PDB_DB01421_97
     RDKit          3D

 87 90  0  0  0  0  0  0  0  0999 V2000
  189.9530   87.5330  -10.9450 C   0  0  2  0  0  0  0  0  0  0  0  0
  190.7560   88.7430  -11.0030 O   0  0  0  0  0  0  0  0  0  0  0  0
  188.5780   87.7750  -10.2350 C   0  0  2  0  0  0  0  0  0  0  0  0
  187.8030   88.8520  -10.8740 N   0  0  0  0  0  0  0  0  0  0  0  0
  188.8190   88.1030   -8.7240 C   0  0  1  0  0  0  0  0  0  0  0  0
  187.5860   88.3170   -8.0280 O   0  0  0  0  0  0  0  0  0  0  0  0
  189.6050   86.9450   -8.0460 C   0  0  2  0  0  0  0  0  0  0  0  0
  189.8290   87.2590   -6.6800 O   0  0  0  0  0  0  0  0  0  0  0  0
  190.9390   86.6870   -8.7890 C   0  0  2  0  0  0  0  0  0  0  0  0
  190.6580   86.4730  -10.2210 O   0  0  0  0  0  0  0  0  0  0  0  0
  191.6620   85.4480   -8.2420 C   0  0  0  0  0  0  0  0  0  0  0  0
  192.8850   85.2460   -8.9370 O   0  0  0  0  0  0  0  0  0  0  0  0
  193.2700   91.1100  -13.5930 C   0  0  2  0  0  0  0  0  0  0  0  0
  194.3240   91.6110  -14.4940 N   0  0  0  0  0  0  0  0  0  0  0  0
  193.9560   90.4220  -12.3780 C   0  0  0  0  0  0  0  0  0  0  0  0
  192.9000   89.8530  -11.3710 C   0  0  2  0  0  0  0  0  0  0  0  0
  193.6620   89.2020  -10.2860 N   0  0  0  0  0  0  0  0  0  0  0  0
  191.8320   88.8860  -11.9970 C   0  0  2  0  0  0  0  0  0  0  0  0
  191.2520   89.5090  -13.3300 C   0  0  2  0  0  0  0  0  0  0  0  0
  190.5130   88.4980  -14.0830 O   0  0  0  0  0  0  0  0  0  0  0  0
  192.3680   90.0540  -14.2780 C   0  0  1  0  0  0  0  0  0  0  0  0
  191.7260   90.6080  -15.4200 O   0  0  0  0  0  0  0  0  0  0  0  0
  189.1870   88.7980  -14.5500 C   0  0  1  0  0  0  0  0  0  0  0  0
  188.7970   88.0510  -15.7930 C   0  0  2  0  0  0  0  0  0  0  0  0
  189.2740   88.6950  -16.9840 O   0  0  0  0  0  0  0  0  0  0  0  0
  187.2620   87.9600  -15.6890 C   0  0  2  0  0  0  0  0  0  0  0  0
  186.5940   89.0790  -16.3890 O   0  0  0  0  0  0  0  0  0  0  0  0
  186.9880   88.1210  -14.1770 C   0  0  2  0  0  0  0  0  0  0  0  0
  188.2550   88.3800  -13.5700 O   0  0  0  0  0  0  0  0  0  0  0  0
  186.3470   86.9350  -13.4610 C   0  0  0  0  0  0  0  0  0  0  0  0
  185.8820   87.3910  -12.1900 O   0  0  0  0  0  0  0  0  0  0  0  0
  185.7450   88.7810  -17.5310 C   0  0  2  0  0  0  0  0  0  0  0  0
  185.4690   89.9780  -18.4910 C   0  0  2  0  0  0  0  0  0  0  0  0
  186.7130   90.5740  -18.9940 N   0  0  0  0  0  0  0  0  0  0  0  0
  184.5590   91.0410  -17.8140 C   0  0  1  0  0  0  0  0  0  0  0  0
  184.2900   92.1180  -18.7030 O   0  0  0  0  0  0  0  0  0  0  0  0
  183.2130   90.3850  -17.4000 C   0  0  2  0  0  0  0  0  0  0  0  0
  182.3130   91.3190  -16.8030 O   0  0  0  0  0  0  0  0  0  0  0  0
  183.4540   89.2060  -16.4150 C   0  0  1  0  0  0  0  0  0  0  0  0
  184.4390   88.2710  -17.0250 O   0  0  0  0  0  0  0  0  0  0  0  0
  183.8720   89.7140  -14.9740 C   0  0  0  0  0  0  0  0  0  0  0  0
  183.2170   88.9760  -13.8490 N   0  0  0  0  0  0  0  0  0  0  0  0
  189.7738   87.2307  -11.9874 H   0  0  0  0  0  0  0  0  0  0  0  0
  187.9852   86.8530  -10.3269 H   0  0  0  0  0  0  0  0  0  0  0  0
  187.3762   89.4451  -10.1480 H   0  0  0  0  0  0  0  0  0  0  0  0
  188.4280   89.4233  -11.4604 H   0  0  0  0  0  0  0  0  0  0  0  0
  189.4069   89.0314   -8.6738 H   0  0  0  0  0  0  0  0  0  0  0  0
  187.7488   88.2887   -7.0519 H   0  0  0  0  0  0  0  0  0  0  0  0
  189.0109   86.0208   -8.0999 H   0  0  0  0  0  0  0  0  0  0  0  0
  189.3594   86.6007   -6.1088 H   0  0  0  0  0  0  0  0  0  0  0  0
  191.5870   87.5631   -8.6386 H   0  0  0  0  0  0  0  0  0  0  0  0
  191.8719   85.5928   -7.1720 H   0  0  0  0  0  0  0  0  0  0  0  0
  191.0195   84.5664   -8.3830 H   0  0  0  0  0  0  0  0  0  0  0  0
  193.6194   85.1247   -8.2842 H   0  0  0  0  0  0  0  0  0  0  0  0
  192.6450   91.9651  -13.2960 H   0  0  0  0  0  0  0  0  0  0  0  0
  195.1054   91.9824  -13.9352 H   0  0  0  0  0  0  0  0  0  0  0  0
  194.6625   90.8407  -15.0881 H   0  0  0  0  0  0  0  0  0  0  0  0
  194.5841   89.5958  -12.7425 H   0  0  0  0  0  0  0  0  0  0  0  0
  194.5643   91.1734  -11.8533 H   0  0  0  0  0  0  0  0  0  0  0  0
  192.2857   90.6873  -11.0015 H   0  0  0  0  0  0  0  0  0  0  0  0
  193.2968   89.5140   -9.3749 H   0  0  0  0  0  0  0  0  0  0  0  0
  193.5640   88.1796  -10.3633 H   0  0  0  0  0  0  0  0  0  0  0  0
  192.2784   87.9114  -12.2438 H   0  0  0  0  0  0  0  0  0  0  0  0
  190.6035   90.3398  -13.0152 H   0  0  0  0  0  0  0  0  0  0  0  0
  193.0357   89.2266  -14.5600 H   0  0  0  0  0  0  0  0  0  0  0  0
  191.0097   91.2261  -15.1285 H   0  0  0  0  0  0  0  0  0  0  0  0
  189.1823   89.8788  -14.7545 H   0  0  0  0  0  0  0  0  0  0  0  0
  189.2519   87.0522  -15.8668 H   0  0  0  0  0  0  0  0  0  0  0  0
  189.8446   89.4653  -16.7367 H   0  0  0  0  0  0  0  0  0  0  0  0
  186.8891   87.0257  -16.1339 H   0  0  0  0  0  0  0  0  0  0  0  0
  186.2459   88.9271  -14.0795 H   0  0  0  0  0  0  0  0  0  0  0  0
  185.5025   86.5525  -14.0531 H   0  0  0  0  0  0  0  0  0  0  0  0
  187.0777   86.1227  -13.3337 H   0  0  0  0  0  0  0  0  0  0  0  0
  186.3676   86.9148  -11.4707 H   0  0  0  0  0  0  0  0  0  0  0  0
  186.2962   88.0403  -18.1291 H   0  0  0  0  0  0  0  0  0  0  0  0
  184.9287   89.5817  -19.3634 H   0  0  0  0  0  0  0  0  0  0  0  0
  187.3039   90.8571  -18.1993 H   0  0  0  0  0  0  0  0  0  0  0  0
  187.2173   89.8831  -19.5678 H   0  0  0  0  0  0  0  0  0  0  0  0
  185.0832   91.4299  -16.9286 H   0  0  0  0  0  0  0  0  0  0  0  0
  184.0862   92.9340  -18.1807 H   0  0  0  0  0  0  0  0  0  0  0  0
  182.7519   90.0098  -18.3255 H   0  0  0  0  0  0  0  0  0  0  0  0
  182.3758   91.2538  -15.8171 H   0  0  0  0  0  0  0  0  0  0  0  0
  182.5150   88.6566  -16.2524 H   0  0  0  0  0  0  0  0  0  0  0  0
  184.9615   89.6024  -14.8716 H   0  0  0  0  0  0  0  0  0  0  0  0
  183.5417   90.7606  -14.8999 H   0  0  0  0  0  0  0  0  0  0  0  0
  183.5513   89.3527  -12.9505 H   0  0  0  0  0  0  0  0  0  0  0  0
  182.1954   89.0919  -13.9111 H   0  0  0  0  0  0  0  0  0  0  0  0
  1  2  1  0
  1  3  1  0
  3  4  1  0
  3  5  1  0
  5  6  1  0
  5  7  1  0
  7  8  1  0
  7  9  1  0
  1 10  1  0
  9 10  1  0
  9 11  1  0
 11 12  1  0
 13 14  1  0
 13 15  1  0
 15 16  1  0
 16 17  1  0
  2 18  1  0
 16 18  1  0
 18 19  1  0
 19 20  1  0
 13 21  1  0
 19 21  1  0
 21 22  1  0
 20 23  1  0
 23 24  1  0
 24 25  1  0
 24 26  1  0
 26 27  1  0
 26 28  1  0
 23 29  1  0
 28 29  1  0
 28 30  1  0
 30 31  1  0
 27 32  1  0
 32 33  1  0
 33 34  1  0
 33 35  1  0
 35 36  1  0
 35 37  1  0
 37 38  1  0
 37 39  1  0
 32 40  1  0
 39 40  1  0
 39 41  1  0
 41 42  1  0
  1 43  1  6
  3 44  1  1
  4 45  1  0
  4 46  1  0
  5 47  1  6
  6 48  1  0
  7 49  1  1
  8 50  1  0
  9 51  1  6
 11 52  1  0
 11 53  1  0
 12 54  1  0
 13 55  1  1
 14 56  1  0
 14 57  1  0
 15 58  1  0
 15 59  1  0
 16 60  1  1
 17 61  1  0
 17 62  1  0
 18 63  1  6
 19 64  1  1
 21 65  1  6
 22 66  1  0
 23 67  1  6
 24 68  1  1
 25 69  1  0
 26 70  1  6
 28 71  1  6
 30 72  1  0
 30 73  1  0
 31 74  1  0
 32 75  1  6
 33 76  1  6
 34 77  1  0
 34 78  1  0
 35 79  1  1
 36 80  1  0
 37 81  1  6
 38 82  1  0
 39 83  1  1
 41 84  1  0
 41 85  1  0
 42 86  1  0
 42 87  1  0
M  END
>  <PDBID>  (1) 
2UUA

>  <PDB ID>  (1) 
2UUA

>  <Generic Name>  (1) 
Paromomycin

>  <Brand Name>  (1) 
Humatin Cap 250mg#Paromomycin Sulfate#Humatin

>  <DrugBank ID>  (1) 
DB01421

>  <ATC Codes>  (1) 
A07AA06

>  <Ligand ID>  (1) 
PAR

>  <Target Name>  (1) 
30S ribosomal protein S10

>  <UniProt ID>  (1) 
Q5SHN7

>  <PDB ID.1>  (1) 
2UUA

>  <Seq. Identity>  (1) 
100%

$$$$
