PDB_DB00293_97
     RDKit          3D

432444  0  0  0  0  0  0  0  0999 V2000
   38.8860   42.7780   24.1390 N   0  0  0  0  0  0  0  0  0  0  0  0
   38.3950   43.9100   24.8430 C   0  0  0  0  0  0  0  0  0  0  0  0
   37.6880   45.0110   24.1930 C   0  0  0  0  0  0  0  0  0  0  0  0
   38.5310   44.0660   26.2080 N   0  0  0  0  0  0  0  0  0  0  0  0
   39.1770   43.1090   26.9120 C   0  0  0  0  0  0  0  0  0  0  0  0
   39.3010   43.2380   28.0800 O   0  0  0  0  0  0  0  0  0  0  0  0
   39.6990   41.9320   26.2460 C   0  0  0  0  0  0  0  0  0  0  0  0
   40.3430   41.0030   27.0330 C   0  0  0  0  0  0  0  0  0  0  0  0
   40.8470   39.9140   26.4440 C   0  0  0  0  0  0  0  0  0  0  0  0
   40.7130   39.7290   25.0870 C   0  0  0  0  0  0  0  0  0  0  0  0
   40.0820   40.6630   24.2960 C   0  0  0  0  0  0  0  0  0  0  0  0
   39.5660   41.7800   24.9100 C   0  0  0  0  0  0  0  0  0  0  0  0
   41.5450   38.9280   27.3260 C   0  0  0  0  0  0  0  0  0  0  0  0
   42.4930   38.2720   26.4990 N   0  0  0  0  0  0  0  0  0  0  0  0
   45.3390   39.8680   24.3020 C   0  0  1  0  0  0  0  0  0  0  0  0
   44.4730   38.4740   24.5760 S   0  0  0  0  0  0  0  0  0  0  0  0
   43.4800   39.0230   25.8040 C   0  0  0  0  0  0  0  0  0  0  0  0
   43.8270   40.3220   26.0000 C   0  0  0  0  0  0  0  0  0  0  0  0
   44.8420   40.7560   25.1930 C   0  0  0  0  0  0  0  0  0  0  0  0
   46.4920   40.0320   23.3540 C   0  0  1  0  0  0  0  0  0  0  0  0
   46.6520   39.3840   22.3790 O   0  0  0  0  0  0  0  0  0  0  0  0
   47.4870   40.9540   23.7620 N   0  0  0  0  0  0  0  0  0  0  0  0
   48.6870   41.1670   23.0210 C   0  0  1  0  0  0  0  0  0  0  0  0
   48.4410   42.2050   21.9900 C   0  0  0  0  0  0  0  0  0  0  0  0
   48.5830   41.6350   20.5850 C   0  0  0  0  0  0  0  0  0  0  0  0
   47.8980   42.5660   19.6290 C   0  0  0  0  0  0  0  0  0  0  0  0
   47.7350   43.7780   19.9230 O   0  0  0  0  0  0  0  0  0  0  0  0
   47.4780   42.1110   18.5370 O   0  0  0  0  0  1  0  0  0  0  0  0
   49.7240   41.6580   23.9540 C   0  0  0  0  0  0  0  0  0  0  0  0
   49.7250   41.4060   25.1750 O   0  0  0  0  0  0  0  0  0  0  0  0
   50.6470   42.3570   23.5230 O   0  0  0  0  0  1  0  0  0  0  0  0
   42.4920   36.8660   26.4130 C   0  0  0  0  0  0  0  0  0  0  0  0
   65.2120   39.0500    0.1230 N   0  0  0  0  0  0  0  0  0  0  0  0
   64.1040   38.4980    0.8310 C   0  0  0  0  0  0  0  0  0  0  0  0
   62.9890   37.8070    0.1970 C   0  0  0  0  0  0  0  0  0  0  0  0
   63.9550   38.5530    2.2000 N   0  0  0  0  0  0  0  0  0  0  0  0
   64.9020   39.1710    2.9300 C   0  0  0  0  0  0  0  0  0  0  0  0
   64.7810   39.2150    4.1050 O   0  0  0  0  0  0  0  0  0  0  0  0
   66.0560   39.7630    2.2740 C   0  0  0  0  0  0  0  0  0  0  0  0
   66.9790   40.3850    3.0930 C   0  0  0  0  0  0  0  0  0  0  0  0
   68.0600   40.9440    2.5090 C   0  0  0  0  0  0  0  0  0  0  0  0
   68.2220   40.8840    1.1360 C   0  0  0  0  0  0  0  0  0  0  0  0
   67.2960   40.2740    0.3190 C   0  0  0  0  0  0  0  0  0  0  0  0
   66.1990   39.7050    0.9250 C   0  0  0  0  0  0  0  0  0  0  0  0
   69.0590   41.6070    3.4090 C   0  0  0  0  0  0  0  0  0  0  0  0
   69.6990   42.5850    2.6040 N   0  0  0  0  0  0  0  0  0  0  0  0
   68.0290   45.4360    0.4780 C   0  0  1  0  0  0  0  0  0  0  0  0
   69.4390   44.5560    0.7070 S   0  0  0  0  0  0  0  0  0  0  0  0
   68.9170   43.5790    1.9550 C   0  0  0  0  0  0  0  0  0  0  0  0
   67.6190   43.9340    2.1950 C   0  0  0  0  0  0  0  0  0  0  0  0
   67.1520   44.9570    1.3990 C   0  0  0  0  0  0  0  0  0  0  0  0
   67.9180   46.5560   -0.5140 C   0  0  1  0  0  0  0  0  0  0  0  0
   68.8300   46.6830   -1.2730 O   0  0  0  0  0  0  0  0  0  0  0  0
   66.8480   47.5070   -0.5190 N   0  0  0  0  0  0  0  0  0  0  0  0
   66.9250   48.5690   -1.4880 C   0  0  1  0  0  0  0  0  0  0  0  0
   66.2540   48.2300   -2.7880 C   0  0  0  0  0  0  0  0  0  0  0  0
   64.7730   47.8980   -2.6100 C   0  0  0  0  0  0  0  0  0  0  0  0
   64.0590   47.7320   -3.9210 C   0  0  0  0  0  0  0  0  0  0  0  0
   62.8500   47.4240   -3.9210 O   0  0  0  0  0  0  0  0  0  0  0  0
   64.6660   47.8940   -5.0060 O   0  0  0  0  0  1  0  0  0  0  0  0
   66.3860   49.8000   -0.8860 C   0  0  0  0  0  0  0  0  0  0  0  0
   66.7800   50.1890    0.2170 O   0  0  0  0  0  0  0  0  0  0  0  0
   65.5270   50.4670   -1.4710 O   0  0  0  0  0  1  0  0  0  0  0  0
   71.1020   42.5700    2.4500 C   0  0  0  0  0  0  0  0  0  0  0  0
   43.7930   69.1130   47.6330 N   0  0  0  0  0  0  0  0  0  0  0  0
   45.0400   69.5250   48.2320 C   0  0  0  0  0  0  0  0  0  0  0  0
   46.1700   70.1390   47.4400 C   0  0  0  0  0  0  0  0  0  0  0  0
   45.2290   69.3510   49.6370 N   0  0  0  0  0  0  0  0  0  0  0  0
   44.2520   68.7850   50.4600 C   0  0  0  0  0  0  0  0  0  0  0  0
   44.4160   68.6310   51.6420 O   0  0  0  0  0  0  0  0  0  0  0  0
   42.9660   68.3580   49.8790 C   0  0  0  0  0  0  0  0  0  0  0  0
   41.9920   67.7950   50.7350 C   0  0  0  0  0  0  0  0  0  0  0  0
   40.7940   67.4110   50.1570 C   0  0  0  0  0  0  0  0  0  0  0  0
   40.5830   67.5850   48.7780 C   0  0  0  0  0  0  0  0  0  0  0  0
   41.5620   68.1420   47.9500 C   0  0  0  0  0  0  0  0  0  0  0  0
   42.7750   68.5360   48.5070 C   0  0  0  0  0  0  0  0  0  0  0  0
   39.7100   66.7610   51.0020 C   0  0  0  0  0  0  0  0  0  0  0  0
   39.1370   65.6590   50.2260 N   0  0  0  0  0  0  0  0  0  0  0  0
   41.0270   62.6840   48.3620 C   0  0  1  0  0  0  0  0  0  0  0  0
   39.5180   63.4870   48.4490 S   0  0  0  0  0  0  0  0  0  0  0  0
   39.9690   64.6160   49.6690 C   0  0  0  0  0  0  0  0  0  0  0  0
   41.2810   64.3320   50.0050 C   0  0  0  0  0  0  0  0  0  0  0  0
   41.8290   63.2650   49.3020 C   0  0  0  0  0  0  0  0  0  0  0  0
   41.2780   61.4740   47.5140 C   0  0  1  0  0  0  0  0  0  0  0  0
   40.7250   61.3990   46.4430 O   0  0  0  0  0  0  0  0  0  0  0  0
   42.0780   60.4160   48.1500 N   0  0  0  0  0  0  0  0  0  0  0  0
   42.3360   59.0910   47.5810 C   0  0  1  0  0  0  0  0  0  0  0  0
   43.5220   59.0300   46.6190 C   0  0  0  0  0  0  0  0  0  0  0  0
   43.4270   59.8650   45.3060 C   0  0  0  0  0  0  0  0  0  0  0  0
   42.1990   59.6990   44.4190 C   0  0  0  0  0  0  0  0  0  0  0  0
   41.2290   58.9580   44.7340 O   0  0  0  0  0  0  0  0  0  0  0  0
   42.1330   60.3400   43.3310 O   0  0  0  0  0  1  0  0  0  0  0  0
   42.4330   58.0820   48.7300 C   0  0  0  0  0  0  0  0  0  0  0  0
   42.7940   56.8990   48.5380 O   0  0  0  0  0  0  0  0  0  0  0  0
   42.1220   58.3460   49.9330 O   0  0  0  0  0  1  0  0  0  0  0  0
   37.7220   65.5960   49.9820 C   0  0  0  0  0  0  0  0  0  0  0  0
   14.8620   11.7290   22.3300 N   0  0  0  0  0  0  0  0  0  0  0  0
   15.2930   10.4420   22.7930 C   0  0  0  0  0  0  0  0  0  0  0  0
   15.9680    9.4540   21.9190 C   0  0  0  0  0  0  0  0  0  0  0  0
   15.0990   10.0270   24.1090 N   0  0  0  0  0  0  0  0  0  0  0  0
   14.4870   10.8660   25.0060 C   0  0  0  0  0  0  0  0  0  0  0  0
   14.3490   10.4420   26.1310 O   0  0  0  0  0  0  0  0  0  0  0  0
   14.0200   12.2290   24.5820 C   0  0  0  0  0  0  0  0  0  0  0  0
   13.3750   13.0700   25.5180 C   0  0  0  0  0  0  0  0  0  0  0  0
   12.9470   14.3070   25.0790 C   0  0  0  0  0  0  0  0  0  0  0  0
   13.1550   14.7070   23.7340 C   0  0  0  0  0  0  0  0  0  0  0  0
   13.7770   13.8740   22.8100 C   0  0  0  0  0  0  0  0  0  0  0  0
   14.2120   12.6220   23.2650 C   0  0  0  0  0  0  0  0  0  0  0  0
   12.2550   15.2230   26.0800 C   0  0  0  0  0  0  0  0  0  0  0  0
   11.2890   16.0280   25.3450 N   0  0  0  0  0  0  0  0  0  0  0  0
    8.2350   14.7650   23.1210 C   0  0  1  0  0  0  0  0  0  0  0  0
    9.2260   16.1450   23.4610 S   0  0  0  0  0  0  0  0  0  0  0  0
   10.1990   15.3850   24.6390 C   0  0  0  0  0  0  0  0  0  0  0  0
    9.7510   14.0810   24.7490 C   0  0  0  0  0  0  0  0  0  0  0  0
    8.6780   13.7580   23.9440 C   0  0  0  0  0  0  0  0  0  0  0  0
    7.0640   14.7740   22.1350 C   0  0  0  0  0  0  0  0  0  0  0  0
    6.8730   15.8110   21.5340 O   0  0  0  0  0  0  0  0  0  0  0  0
    6.1580   13.6400   21.9280 N   0  0  0  0  0  0  0  0  0  0  0  0
    5.0110   13.7740   21.0100 C   0  0  1  0  0  0  0  0  0  0  0  0
    5.2750   13.2950   19.5780 C   0  0  0  0  0  0  0  0  0  0  0  0
    5.3300   11.7520   19.3680 C   0  0  0  0  0  0  0  0  0  0  0  0
    5.9480   11.2670   18.0540 C   0  0  0  0  0  0  0  0  0  0  0  0
    6.1620   12.0760   17.1050 O   0  0  0  0  0  0  0  0  0  0  0  0
    6.2590   10.0430   17.8930 O   0  0  0  0  0  1  0  0  0  0  0  0
    3.7990   13.1790   21.6950 C   0  0  0  0  0  0  0  0  0  0  0  0
    2.6710   13.6100   21.3370 O   0  0  0  0  0  0  0  0  0  0  0  0
    3.8760   12.3140   22.6470 O   0  0  0  0  0  1  0  0  0  0  0  0
   11.4000   17.4580   25.2890 C   0  0  0  0  0  0  0  0  0  0  0  0
   95.8960   14.6940   -2.0260 N   0  0  0  0  0  0  0  0  0  0  0  0
   97.2130   15.0960   -1.5860 C   0  0  0  0  0  0  0  0  0  0  0  0
   98.2070   15.7030   -2.5170 C   0  0  0  0  0  0  0  0  0  0  0  0
   97.6460   14.9320   -0.2450 N   0  0  0  0  0  0  0  0  0  0  0  0
   96.7950   14.3630    0.6760 C   0  0  0  0  0  0  0  0  0  0  0  0
   97.1780   14.2290    1.7930 O   0  0  0  0  0  0  0  0  0  0  0  0
   95.4280   13.9240    0.3030 C   0  0  0  0  0  0  0  0  0  0  0  0
   94.5850   13.3430    1.2850 C   0  0  0  0  0  0  0  0  0  0  0  0
   93.3010   12.9650    0.8860 C   0  0  0  0  0  0  0  0  0  0  0  0
   92.9030   13.1450   -0.4620 C   0  0  0  0  0  0  0  0  0  0  0  0
   93.7500   13.7050   -1.4250 C   0  0  0  0  0  0  0  0  0  0  0  0
   95.0210   14.1070   -1.0250 C   0  0  0  0  0  0  0  0  0  0  0  0
   92.3190   12.3130    1.8700 C   0  0  0  0  0  0  0  0  0  0  0  0
   91.5580   11.2760    1.1440 N   0  0  0  0  0  0  0  0  0  0  0  0
   93.1560    8.2730   -0.9570 C   0  0  0  0  0  0  0  0  0  0  0  0
   91.6460    9.1330   -0.7760 S   0  0  0  0  0  0  0  0  0  0  0  0
   92.2480   10.2190    0.4370 C   0  0  0  0  0  0  0  0  0  0  0  0
   93.5730    9.9190    0.6430 C   0  0  0  0  0  0  0  0  0  0  0  0
   94.0380    8.8830   -0.0940 C   0  0  0  0  0  0  0  0  0  0  0  0
   93.6380    7.1030   -1.8270 C   0  0  0  0  0  0  0  0  0  0  0  0
   94.7820    6.7580   -1.6080 O   0  0  0  0  0  0  0  0  0  0  0  0
   92.8610    6.4030   -2.8580 N   0  0  0  0  0  0  0  0  0  0  0  0
   93.3840    5.2830   -3.6740 C   0  0  1  0  0  0  0  0  0  0  0  0
   94.8020    5.5190   -4.1680 C   0  0  0  0  0  0  0  0  0  0  0  0
   95.0680    5.2970   -5.6650 C   0  0  0  0  0  0  0  0  0  0  0  0
   96.4660    5.8160   -5.9680 C   0  0  0  0  0  0  0  0  0  0  0  0
   96.6220    7.0030   -6.3770 O   0  0  0  0  0  0  0  0  0  0  0  0
   97.4760    5.0720   -5.7800 O   0  0  0  0  0  1  0  0  0  0  0  0
   93.3910    3.9840   -2.9290 C   0  0  0  0  0  0  0  0  0  0  0  0
   93.8430    3.8880   -1.7570 O   0  0  0  0  0  0  0  0  0  0  0  0
   92.9590    2.9440   -3.5070 O   0  0  0  0  0  1  0  0  0  0  0  0
   90.1240   11.2780    1.0930 C   0  0  0  0  0  0  0  0  0  0  0  0
   12.1940   93.2870   45.9210 N   0  0  0  0  0  0  0  0  0  0  0  0
   10.9290   92.7020   46.2870 C   0  0  0  0  0  0  0  0  0  0  0  0
   10.0640   92.0670   45.2420 C   0  0  0  0  0  0  0  0  0  0  0  0
   10.4980   92.7300   47.6490 N   0  0  0  0  0  0  0  0  0  0  0  0
   11.2890   93.3300   48.6470 C   0  0  0  0  0  0  0  0  0  0  0  0
   10.8700   93.3340   49.7940 O   0  0  0  0  0  0  0  0  0  0  0  0
   12.6210   93.9530   48.2880 C   0  0  0  0  0  0  0  0  0  0  0  0
   13.4360   94.5720   49.2800 C   0  0  0  0  0  0  0  0  0  0  0  0
   14.6460   95.1280   48.8760 C   0  0  0  0  0  0  0  0  0  0  0  0
   15.0060   95.0460   47.5090 C   0  0  0  0  0  0  0  0  0  0  0  0
   14.2150   94.4450   46.5390 C   0  0  0  0  0  0  0  0  0  0  0  0
   13.0130   93.9030   46.9500 C   0  0  0  0  0  0  0  0  0  0  0  0
   15.5930   95.8250   49.8750 C   0  0  0  0  0  0  0  0  0  0  0  0
   16.4780   96.8420   49.2400 N   0  0  0  0  0  0  0  0  0  0  0  0
   15.5130   99.8110   46.6730 C   0  0  0  0  0  0  0  0  0  0  0  0
   16.8410   98.7860   47.1700 S   0  0  0  0  0  0  0  0  0  0  0  0
   15.9540   97.9260   48.3970 C   0  0  0  0  0  0  0  0  0  0  0  0
   14.6550   98.4360   48.3820 C   0  0  0  0  0  0  0  0  0  0  0  0
   14.4290   99.4560   47.4630 C   0  0  0  0  0  0  0  0  0  0  0  0
   15.5500  100.8880   45.5850 C   0  0  0  0  0  0  0  0  0  0  0  0
   16.5720  101.0370   44.9360 O   0  0  0  0  0  0  0  0  0  0  0  0
   14.3720  101.7230   45.3210 N   0  0  0  0  0  0  0  0  0  0  0  0
   14.3790  102.7770   44.3010 C   0  0  1  0  0  0  0  0  0  0  0  0
   13.3090  102.4990   43.2470 C   0  0  0  0  0  0  0  0  0  0  0  0
   13.8840  102.4440   41.8110 C   0  0  0  0  0  0  0  0  0  0  0  0
   14.3760  103.7940   41.3260 C   0  0  0  0  0  0  0  0  0  0  0  0
   15.5270  103.8860   40.8240 O   0  0  0  0  0  0  0  0  0  0  0  0
   13.6550  104.8360   41.4210 O   0  0  0  0  0  1  0  0  0  0  0  0
   14.1960  104.1050   44.9920 C   0  0  0  0  0  0  0  0  0  0  0  0
   13.4810  104.2150   46.0240 O   0  0  0  0  0  0  0  0  0  0  0  0
   14.7890  105.1410   44.5630 O   0  0  0  0  0  1  0  0  0  0  0  0
   17.9150   96.7430   49.3990 C   0  0  0  0  0  0  0  0  0  0  0  0
   38.0828   42.3238   23.6812 H   0  0  0  0  0  0  0  0  0  0  0  0
   39.3518   44.4273   24.6785 H   0  0  0  0  0  0  0  0  0  0  0  0
   37.2613   45.6756   24.9587 H   0  0  0  0  0  0  0  0  0  0  0  0
   38.3910   45.5785   23.5655 H   0  0  0  0  0  0  0  0  0  0  0  0
   36.8795   44.6079   23.5655 H   0  0  0  0  0  0  0  0  0  0  0  0
   39.0375   44.9494   26.3627 H   0  0  0  0  0  0  0  0  0  0  0  0
   40.1298   43.6350   26.7527 H   0  0  0  0  0  0  0  0  0  0  0  0
   38.6963   42.6089   28.5475 H   0  0  0  0  0  0  0  0  0  0  0  0
   40.6540   42.4511   26.0772 H   0  0  0  0  0  0  0  0  0  0  0  0
   41.1770   41.5197   27.5305 H   0  0  0  0  0  0  0  0  0  0  0  0
   39.5546   40.6139   27.6940 H   0  0  0  0  0  0  0  0  0  0  0  0
   39.8971   39.3846   26.6100 H   0  0  0  0  0  0  0  0  0  0  0  0
   41.7313   39.6186   24.6860 H   0  0  0  0  0  0  0  0  0  0  0  0
   40.0304   38.8683   25.0301 H   0  0  0  0  0  0  0  0  0  0  0  0
   40.8123   41.0072   23.5488 H   0  0  0  0  0  0  0  0  0  0  0  0
   39.2034   40.1372   23.8940 H   0  0  0  0  0  0  0  0  0  0  0  0
   40.5180   42.3089   24.7551 H   0  0  0  0  0  0  0  0  0  0  0  0
   42.0521   39.4461   28.1533 H   0  0  0  0  0  0  0  0  0  0  0  0
   40.8377   38.2151   27.7749 H   0  0  0  0  0  0  0  0  0  0  0  0
   44.5891   40.1888   23.5640 H   0  0  0  0  0  0  0  0  0  0  0  0
   44.2327   38.7217   26.5474 H   0  0  0  0  0  0  0  0  0  0  0  0
   42.9428   40.9483   25.8103 H   0  0  0  0  0  0  0  0  0  0  0  0
   44.1889   40.4011   27.0357 H   0  0  0  0  0  0  0  0  0  0  0  0
   45.6706   41.0733   25.8431 H   0  0  0  0  0  0  0  0  0  0  0  0
   44.3997   41.5570   24.5825 H   0  0  0  0  0  0  0  0  0  0  0  0
   47.0737   39.3013   23.9351 H   0  0  0  0  0  0  0  0  0  0  0  0
   46.8813   38.4553   22.6340 H   0  0  0  0  0  0  0  0  0  0  0  0
   47.0206   41.8705   23.8200 H   0  0  0  0  0  0  0  0  0  0  0  0
   49.0109   40.2329   22.5388 H   0  0  0  0  0  0  0  0  0  0  0  0
   47.4219   42.5997   22.1151 H   0  0  0  0  0  0  0  0  0  0  0  0
   49.1865   43.0038   22.1172 H   0  0  0  0  0  0  0  0  0  0  0  0
   49.6481   41.5505   20.3235 H   0  0  0  0  0  0  0  0  0  0  0  0
   48.1274   40.6351   20.5332 H   0  0  0  0  0  0  0  0  0  0  0  0
   46.9282   42.3241   20.0884 H   0  0  0  0  0  0  0  0  0  0  0  0
   47.7213   43.8798   20.9077 H   0  0  0  0  0  0  0  0  0  0  0  0
   49.1271   42.5628   24.1412 H   0  0  0  0  0  0  0  0  0  0  0  0
   49.7216   42.2534   25.6868 H   0  0  0  0  0  0  0  0  0  0  0  0
   42.4917   36.4367   27.4258 H   0  0  0  0  0  0  0  0  0  0  0  0
   41.5936   36.5323   25.8730 H   0  0  0  0  0  0  0  0  0  0  0  0
   43.3899   36.5310   25.8730 H   0  0  0  0  0  0  0  0  0  0  0  0
   65.6757   38.2836   -0.3855 H   0  0  0  0  0  0  0  0  0  0  0  0
   63.5668   39.4531    0.7349 H   0  0  0  0  0  0  0  0  0  0  0  0
   62.3248   37.3954    0.9712 H   0  0  0  0  0  0  0  0  0  0  0  0
   62.4271   38.5154   -0.4294 H   0  0  0  0  0  0  0  0  0  0  0  0
   63.3733   36.9885   -0.4294 H   0  0  0  0  0  0  0  0  0  0  0  0
   63.0645   39.0350    2.3887 H   0  0  0  0  0  0  0  0  0  0  0  0
   64.3536   40.1201    2.8380 H   0  0  0  0  0  0  0  0  0  0  0  0
   65.6192   38.9102    4.5347 H   0  0  0  0  0  0  0  0  0  0  0  0
   65.5096   40.7119    2.1691 H   0  0  0  0  0  0  0  0  0  0  0  0
   66.4509   41.1817    3.6374 H   0  0  0  0  0  0  0  0  0  0  0  0
   67.3871   39.5759    3.7165 H   0  0  0  0  0  0  0  0  0  0  0  0
   68.6076   39.9959    2.6150 H   0  0  0  0  0  0  0  0  0  0  0  0
   68.3007   41.9249    0.7892 H   0  0  0  0  0  0  0  0  0  0  0  0
   69.0933   40.2203    1.0344 H   0  0  0  0  0  0  0  0  0  0  0  0
   66.9273   41.0327   -0.3871 H   0  0  0  0  0  0  0  0  0  0  0  0
   67.8346   39.4317   -0.1396 H   0  0  0  0  0  0  0  0  0  0  0  0
   65.6502   40.6532    0.8261 H   0  0  0  0  0  0  0  0  0  0  0  0
   68.5529   42.0819    4.2624 H   0  0  0  0  0  0  0  0  0  0  0  0
   69.7773   40.8855    3.8255 H   0  0  0  0  0  0  0  0  0  0  0  0
   67.6784   44.6858   -0.2460 H   0  0  0  0  0  0  0  0  0  0  0  0
   69.2618   44.3266    2.6845 H   0  0  0  0  0  0  0  0  0  0  0  0
   66.9844   43.0511    2.0281 H   0  0  0  0  0  0  0  0  0  0  0  0
   67.5803   44.3002    3.2315 H   0  0  0  0  0  0  0  0  0  0  0  0
   66.8629   45.7908    2.0557 H   0  0  0  0  0  0  0  0  0  0  0  0
   66.3168   44.5310    0.8237 H   0  0  0  0  0  0  0  0  0  0  0  0
   68.4144   47.2340    0.1959 H   0  0  0  0  0  0  0  0  0  0  0  0
   69.6702   46.8000   -0.7627 H   0  0  0  0  0  0  0  0  0  0  0  0
   65.9737   46.9907   -0.6920 H   0  0  0  0  0  0  0  0  0  0  0  0
   67.9816   48.7244   -1.7517 H   0  0  0  0  0  0  0  0  0  0  0  0
   66.3439   49.0908   -3.4669 H   0  0  0  0  0  0  0  0  0  0  0  0
   66.7504   47.3387   -3.1992 H   0  0  0  0  0  0  0  0  0  0  0  0
   64.6876   46.9607   -2.0407 H   0  0  0  0  0  0  0  0  0  0  0  0
   64.3037   48.7386   -2.0780 H   0  0  0  0  0  0  0  0  0  0  0  0
   64.3305   46.6661   -3.9339 H   0  0  0  0  0  0  0  0  0  0  0  0
   62.5302   47.3425   -2.9876 H   0  0  0  0  0  0  0  0  0  0  0  0
   65.5942   49.2139   -0.3965 H   0  0  0  0  0  0  0  0  0  0  0  0
   66.2917   49.7069    0.9307 H   0  0  0  0  0  0  0  0  0  0  0  0
   71.5796   42.5649    3.4409 H   0  0  0  0  0  0  0  0  0  0  0  0
   71.4003   41.6686    1.8945 H   0  0  0  0  0  0  0  0  0  0  0  0
   71.4195   43.4648    1.8945 H   0  0  0  0  0  0  0  0  0  0  0  0
   43.3786   69.9427   47.1849 H   0  0  0  0  0  0  0  0  0  0  0  0
   45.4576   68.5235   48.0514 H   0  0  0  0  0  0  0  0  0  0  0  0
   46.9222   70.5477   48.1308 H   0  0  0  0  0  0  0  0  0  0  0  0
   46.6342   69.3691   46.8062 H   0  0  0  0  0  0  0  0  0  0  0  0
   45.7766   70.9474   46.8062 H   0  0  0  0  0  0  0  0  0  0  0  0
   46.0680   68.7629   49.7424 H   0  0  0  0  0  0  0  0  0  0  0  0
   44.6720   67.7860   50.2716 H   0  0  0  0  0  0  0  0  0  0  0  0
   43.7926   69.2164   52.1407 H   0  0  0  0  0  0  0  0  0  0  0  0
   43.3821   67.3567   49.6939 H   0  0  0  0  0  0  0  0  0  0  0  0
   42.4360   66.9035   51.2019 H   0  0  0  0  0  0  0  0  0  0  0  0
   41.7262   68.6011   51.4347 H   0  0  0  0  0  0  0  0  0  0  0  0
   40.3814   68.4129   50.3466 H   0  0  0  0  0  0  0  0  0  0  0  0
   40.3639   66.5872   48.3702 H   0  0  0  0  0  0  0  0  0  0  0  0
   39.7940   68.3512   48.7564 H   0  0  0  0  0  0  0  0  0  0  0  0
   41.7909   67.3956   47.1751 H   0  0  0  0  0  0  0  0  0  0  0  0
   41.1112   69.0852   47.6078 H   0  0  0  0  0  0  0  0  0  0  0  0
   43.1834   67.5319   48.3199 H   0  0  0  0  0  0  0  0  0  0  0  0
   40.1448   66.3746   51.9356 H   0  0  0  0  0  0  0  0  0  0  0  0
   38.9319   67.4948   51.2591 H   0  0  0  0  0  0  0  0  0  0  0  0
   41.3726   63.4144   47.6156 H   0  0  0  0  0  0  0  0  0  0  0  0
   39.6152   63.9200   50.4439 H   0  0  0  0  0  0  0  0  0  0  0  0
   41.8899   65.2261   49.8056 H   0  0  0  0  0  0  0  0  0  0  0  0
   41.2815   64.0457   51.0671 H   0  0  0  0  0  0  0  0  0  0  0  0
   42.1059   62.4898   50.0317 H   0  0  0  0  0  0  0  0  0  0  0  0
   42.6775   63.6868   48.7433 H   0  0  0  0  0  0  0  0  0  0  0  0
   40.4268   60.9644   47.9892 H   0  0  0  0  0  0  0  0  0  0  0  0
   39.7537   61.2673   46.5817 H   0  0  0  0  0  0  0  0  0  0  0  0
   43.0073   60.8323   48.3050 H   0  0  0  0  0  0  0  0  0  0  0  0
   41.4887   58.8277   46.9308 H   0  0  0  0  0  0  0  0  0  0  0  0
   44.4095   59.3783   47.1676 H   0  0  0  0  0  0  0  0  0  0  0  0
   43.5573   57.9830   46.2835 H   0  0  0  0  0  0  0  0  0  0  0  0
   43.4780   60.9257   45.5928 H   0  0  0  0  0  0  0  0  0  0  0  0
   44.2549   59.4861   44.6887 H   0  0  0  0  0  0  0  0  0  0  0  0
   42.6812   58.8514   43.9100 H   0  0  0  0  0  0  0  0  0  0  0  0
   41.1604   58.9056   45.7202 H   0  0  0  0  0  0  0  0  0  0  0  0
   41.3859   57.7898   48.5618 H   0  0  0  0  0  0  0  0  0  0  0  0
   42.9310   56.4502   49.4097 H   0  0  0  0  0  0  0  0  0  0  0  0
   37.1851   65.5721   50.9418 H   0  0  0  0  0  0  0  0  0  0  0  0
   37.4090   66.4811   49.4087 H   0  0  0  0  0  0  0  0  0  0  0  0
   37.4889   64.6866   49.4087 H   0  0  0  0  0  0  0  0  0  0  0  0
   15.6956   12.2177   21.9735 H   0  0  0  0  0  0  0  0  0  0  0  0
   14.3162   10.0165   22.5196 H   0  0  0  0  0  0  0  0  0  0  0  0
   16.4801    8.7044   22.5402 H   0  0  0  0  0  0  0  0  0  0  0  0
   15.2209    8.9554   21.2840 H   0  0  0  0  0  0  0  0  0  0  0  0
   16.7041    9.9687   21.2840 H   0  0  0  0  0  0  0  0  0  0  0  0
   14.5325    9.1677   24.0702 H   0  0  0  0  0  0  0  0  0  0  0  0
   13.5079   10.4485   24.7285 H   0  0  0  0  0  0  0  0  0  0  0  0
   14.5799   11.1515   26.7817 H   0  0  0  0  0  0  0  0  0  0  0  0
   13.0471   11.8055   24.2921 H   0  0  0  0  0  0  0  0  0  0  0  0
   12.4924   12.5302   25.8916 H   0  0  0  0  0  0  0  0  0  0  0  0
   14.1460   13.2927   26.2703 H   0  0  0  0  0  0  0  0  0  0  0  0
   13.9178   14.7421   25.3585 H   0  0  0  0  0  0  0  0  0  0  0  0
   12.1610   14.9369   23.3228 H   0  0  0  0  0  0  0  0  0  0  0  0
   13.8861   15.5216   23.8432 H   0  0  0  0  0  0  0  0  0  0  0  0
   13.0642   13.6986   21.9907 H   0  0  0  0  0  0  0  0  0  0  0  0
   14.6964   14.4059   22.5239 H   0  0  0  0  0  0  0  0  0  0  0  0
   13.2354   12.1939   22.9949 H   0  0  0  0  0  0  0  0  0  0  0  0
   11.7391   14.6225   26.8437 H   0  0  0  0  0  0  0  0  0  0  0  0
   12.9891   15.8670   26.5863 H   0  0  0  0  0  0  0  0  0  0  0  0
    8.9469   14.4447   22.3460 H   0  0  0  0  0  0  0  0  0  0  0  0
    9.4999   15.7076   25.4246 H   0  0  0  0  0  0  0  0  0  0  0  0
   10.5846   13.4119   24.4894 H   0  0  0  0  0  0  0  0  0  0  0  0
    9.4005   13.9653   25.7852 H   0  0  0  0  0  0  0  0  0  0  0  0
    7.8430   13.4595   24.5949 H   0  0  0  0  0  0  0  0  0  0  0  0
    9.0287   12.9550   23.2790 H   0  0  0  0  0  0  0  0  0  0  0  0
    6.3919   15.1146   22.9364 H   0  0  0  0  0  0  0  0  0  0  0  0
    6.7373   16.5475   22.1815 H   0  0  0  0  0  0  0  0  0  0  0  0
    6.7319   12.8606   21.5759 H   0  0  0  0  0  0  0  0  0  0  0  0
    4.8114   14.8393   20.8220 H   0  0  0  0  0  0  0  0  0  0  0  0
    4.4735   13.6925   18.9380 H   0  0  0  0  0  0  0  0  0  0  0  0
    6.2805   13.6626   19.3252 H   0  0  0  0  0  0  0  0  0  0  0  0
    5.9172   11.3224   20.1930 H   0  0  0  0  0  0  0  0  0  0  0  0
    4.2808   11.4230   19.3372 H   0  0  0  0  0  0  0  0  0  0  0  0
    4.9427   11.0655   17.6555 H   0  0  0  0  0  0  0  0  0  0  0  0
    6.3968   12.9638   17.4748 H   0  0  0  0  0  0  0  0  0  0  0  0
    3.8522   13.9601   22.4677 H   0  0  0  0  0  0  0  0  0  0  0  0
    2.1276   13.8176   22.1381 H   0  0  0  0  0  0  0  0  0  0  0  0
   11.4315   17.8636   26.3110 H   0  0  0  0  0  0  0  0  0  0  0  0
   12.3222   17.7336   24.7565 H   0  0  0  0  0  0  0  0  0  0  0  0
   10.5313   17.8726   24.7565 H   0  0  0  0  0  0  0  0  0  0  0  0
   95.4243   15.5294   -2.4007 H   0  0  0  0  0  0  0  0  0  0  0  0
   97.5991   14.0945   -1.8267 H   0  0  0  0  0  0  0  0  0  0  0  0
   99.0041   16.1898   -1.9359 H   0  0  0  0  0  0  0  0  0  0  0  0
   98.6432   14.9170   -3.1510 H   0  0  0  0  0  0  0  0  0  0  0  0
   97.7070   16.4500   -3.1510 H   0  0  0  0  0  0  0  0  0  0  0  0
   98.4928   14.3463   -0.2728 H   0  0  0  0  0  0  0  0  0  0  0  0
   97.1865   13.3668    0.4223 H   0  0  0  0  0  0  0  0  0  0  0  0
   96.4563   14.4815    2.4219 H   0  0  0  0  0  0  0  0  0  0  0  0
   95.8176   12.9275    0.0479 H   0  0  0  0  0  0  0  0  0  0  0  0
   95.0913   12.4431    1.6642 H   0  0  0  0  0  0  0  0  0  0  0  0
   94.4265   14.1392    2.0272 H   0  0  0  0  0  0  0  0  0  0  0  0
   92.9290   13.9710    1.1302 H   0  0  0  0  0  0  0  0  0  0  0  0
   92.6310   12.1472   -0.8367 H   0  0  0  0  0  0  0  0  0  0  0  0
   92.1251   13.9170   -0.3677 H   0  0  0  0  0  0  0  0  0  0  0  0
   93.8793   12.9570   -2.2211 H   0  0  0  0  0  0  0  0  0  0  0  0
   93.2484   14.6379   -1.7219 H   0  0  0  0  0  0  0  0  0  0  0  0
   95.4011   13.1066   -1.2794 H   0  0  0  0  0  0  0  0  0  0  0  0
   92.8744   11.8539    2.7011 H   0  0  0  0  0  0  0  0  0  0  0  0
   91.6339   13.0695    2.2803 H   0  0  0  0  0  0  0  0  0  0  0  0
   93.4562    8.9680   -1.7550 H   0  0  0  0  0  0  0  0  0  0  0  0
   91.9569    9.5045    1.2211 H   0  0  0  0  0  0  0  0  0  0  0  0
   94.1688   10.8101    0.3963 H   0  0  0  0  0  0  0  0  0  0  0  0
   93.6638    9.6171    1.6968 H   0  0  0  0  0  0  0  0  0  0  0  0
   94.3983    8.1153    0.6066 H   0  0  0  0  0  0  0  0  0  0  0  0
   94.8081    9.3237   -0.7441 H   0  0  0  0  0  0  0  0  0  0  0  0
   93.9977    7.8146   -2.5848 H   0  0  0  0  0  0  0  0  0  0  0  0
   94.9317    6.7129   -0.6304 H   0  0  0  0  0  0  0  0  0  0  0  0
   92.0291    6.0326   -2.3767 H   0  0  0  0  0  0  0  0  0  0  0  0
   92.6935    5.2310   -4.5287 H   0  0  0  0  0  0  0  0  0  0  0  0
   95.0645    6.5617   -3.9359 H   0  0  0  0  0  0  0  0  0  0  0  0
   95.4118    4.7606   -3.6552 H   0  0  0  0  0  0  0  0  0  0  0  0
   95.0071    4.2244   -5.9014 H   0  0  0  0  0  0  0  0  0  0  0  0
   94.3199    5.8276   -6.2722 H   0  0  0  0  0  0  0  0  0  0  0  0
   96.3689    5.4705   -7.0078 H   0  0  0  0  0  0  0  0  0  0  0  0
   96.7020    7.6118   -5.6004 H   0  0  0  0  0  0  0  0  0  0  0  0
   94.3891    3.7580   -3.3324 H   0  0  0  0  0  0  0  0  0  0  0  0
   93.1120    4.0433   -1.1076 H   0  0  0  0  0  0  0  0  0  0  0  0
   89.7207   11.2786    2.1164 H   0  0  0  0  0  0  0  0  0  0  0  0
   89.7772   12.1766    0.5617 H   0  0  0  0  0  0  0  0  0  0  0  0
   89.7747   10.3803    0.5617 H   0  0  0  0  0  0  0  0  0  0  0  0
   12.7592   92.5393   45.4939 H   0  0  0  0  0  0  0  0  0  0  0  0
   10.4318   93.6675   46.1118 H   0  0  0  0  0  0  0  0  0  0  0  0
    9.2690   91.4834   45.7292 H   0  0  0  0  0  0  0  0  0  0  0  0
    9.6124   92.8496   44.6147 H   0  0  0  0  0  0  0  0  0  0  0  0
   10.6754   91.4016   44.6147 H   0  0  0  0  0  0  0  0  0  0  0  0
    9.5919   93.2197   47.6595 H   0  0  0  0  0  0  0  0  0  0  0  0
   10.7916   94.2935   48.4619 H   0  0  0  0  0  0  0  0  0  0  0  0
   11.6334   93.3267   50.4242 H   0  0  0  0  0  0  0  0  0  0  0  0
   12.1206   94.9142   48.0993 H   0  0  0  0  0  0  0  0  0  0  0  0
   12.8417   95.3775   49.7360 H   0  0  0  0  0  0  0  0  0  0  0  0
   13.7217   93.7505   49.9534 H   0  0  0  0  0  0  0  0  0  0  0  0
   15.1502   94.1690   49.0663 H   0  0  0  0  0  0  0  0  0  0  0  0
   15.1531   96.0837   47.1751 H   0  0  0  0  0  0  0  0  0  0  0  0
   15.8544   94.3473   47.5542 H   0  0  0  0  0  0  0  0  0  0  0  0
   13.9912   95.2058   45.7767 H   0  0  0  0  0  0  0  0  0  0  0  0
   14.8054   93.5875   46.1838 H   0  0  0  0  0  0  0  0  0  0  0  0
   12.5159   94.8673   46.7683 H   0  0  0  0  0  0  0  0  0  0  0  0
   14.9838   96.3238   50.6432 H   0  0  0  0  0  0  0  0  0  0  0  0
   16.2446   95.0480   50.3012 H   0  0  0  0  0  0  0  0  0  0  0  0
   15.2140   99.0612   45.9257 H   0  0  0  0  0  0  0  0  0  0  0  0
   16.2752   98.6642   49.1466 H   0  0  0  0  0  0  0  0  0  0  0  0
   13.9677   97.6095   48.1487 H   0  0  0  0  0  0  0  0  0  0  0  0
   14.4895   98.8784   49.3754 H   0  0  0  0  0  0  0  0  0  0  0  0
   14.1123  100.3490   48.0218 H   0  0  0  0  0  0  0  0  0  0  0  0
   13.6690   99.0682   46.7687 H   0  0  0  0  0  0  0  0  0  0  0  0
   15.9113  101.6202   46.3221 H   0  0  0  0  0  0  0  0  0  0  0  0
   17.3399  101.1490   45.5507 H   0  0  0  0  0  0  0  0  0  0  0  0
   13.6127  101.0768   45.0626 H   0  0  0  0  0  0  0  0  0  0  0  0
   15.3382  102.8003   43.7631 H   0  0  0  0  0  0  0  0  0  0  0  0
   12.8350  101.5325   43.4734 H   0  0  0  0  0  0  0  0  0  0  0  0
   12.5847  103.3261   43.2831 H   0  0  0  0  0  0  0  0  0  0  0  0
   14.7260  101.7363   41.7958 H   0  0  0  0  0  0  0  0  0  0  0  0
   13.0728  102.1251   41.1400 H   0  0  0  0  0  0  0  0  0  0  0  0
   14.7942  103.9996   42.3224 H   0  0  0  0  0  0  0  0  0  0  0  0
   16.1996  103.9398   41.5484 H   0  0  0  0  0  0  0  0  0  0  0  0
   13.3184  104.3119   44.3619 H   0  0  0  0  0  0  0  0  0  0  0  0
   14.0492  104.1276   46.8300 H   0  0  0  0  0  0  0  0  0  0  0  0
   18.1651   96.7258   50.4701 H   0  0  0  0  0  0  0  0  0  0  0  0
   18.2736   95.8180   48.9238 H   0  0  0  0  0  0  0  0  0  0  0  0
   18.3971   97.6101   48.9238 H   0  0  0  0  0  0  0  0  0  0  0  0
  1  2  1  0
  2  3  1  0
  2  4  1  0
  4  5  1  0
  5  6  1  0
  5  7  1  0
  7  8  1  0
  8  9  1  0
  9 10  1  0
 10 11  1  0
  1 12  1  0
  7 12  1  0
 11 12  1  0
  9 13  1  0
 13 14  1  0
 15 16  1  0
 14 17  1  0
 16 17  1  0
 17 18  1  0
 15 19  1  0
 18 19  1  0
 15 20  1  0
 20 21  1  0
 20 22  1  0
 22 23  1  0
 23 24  1  0
 24 25  1  0
 25 26  1  0
 26 27  1  0
 26 28  1  0
 23 29  1  0
 29 30  1  0
 29 31  1  0
 14 32  1  0
 33 34  1  0
 34 35  1  0
 34 36  1  0
 36 37  1  0
 37 38  1  0
 37 39  1  0
 39 40  1  0
 40 41  1  0
 41 42  1  0
 42 43  1  0
 33 44  1  0
 39 44  1  0
 43 44  1  0
 41 45  1  0
 45 46  1  0
 47 48  1  0
 46 49  1  0
 48 49  1  0
 49 50  1  0
 47 51  1  0
 50 51  1  0
 47 52  1  0
 52 53  1  0
 52 54  1  0
 54 55  1  0
 55 56  1  0
 56 57  1  0
 57 58  1  0
 58 59  1  0
 58 60  1  0
 55 61  1  0
 61 62  1  0
 61 63  1  0
 46 64  1  0
 65 66  1  0
 66 67  1  0
 66 68  1  0
 68 69  1  0
 69 70  1  0
 69 71  1  0
 71 72  1  0
 72 73  1  0
 73 74  1  0
 74 75  1  0
 65 76  1  0
 71 76  1  0
 75 76  1  0
 73 77  1  0
 77 78  1  0
 79 80  1  0
 78 81  1  0
 80 81  1  0
 81 82  1  0
 79 83  1  0
 82 83  1  0
 79 84  1  0
 84 85  1  0
 84 86  1  0
 86 87  1  0
 87 88  1  0
 88 89  1  0
 89 90  1  0
 90 91  1  0
 90 92  1  0
 87 93  1  0
 93 94  1  0
 93 95  1  0
 78 96  1  0
 97 98  1  0
 98 99  1  0
 98100  1  0
100101  1  0
101102  1  0
101103  1  0
103104  1  0
104105  1  0
105106  1  0
106107  1  0
 97108  1  0
103108  1  0
107108  1  0
105109  1  0
109110  1  0
111112  1  0
110113  1  0
112113  1  0
113114  1  0
111115  1  0
114115  1  0
111116  1  0
116117  1  0
116118  1  0
118119  1  0
119120  1  0
120121  1  0
121122  1  0
122123  1  0
122124  1  0
119125  1  0
125126  1  0
125127  1  0
110128  1  0
129130  1  0
130131  1  0
130132  1  0
132133  1  0
133134  1  0
133135  1  0
135136  1  0
136137  1  0
137138  1  0
138139  1  0
129140  1  0
135140  1  0
139140  1  0
137141  1  0
141142  1  0
143144  1  0
142145  1  0
144145  1  0
145146  1  0
143147  1  0
146147  1  0
143148  1  0
148149  1  0
148150  1  0
150151  1  0
151152  1  0
152153  1  0
153154  1  0
154155  1  0
154156  1  0
151157  1  0
157158  1  0
157159  1  0
142160  1  0
161162  1  0
162163  1  0
162164  1  0
164165  1  0
165166  1  0
165167  1  0
167168  1  0
168169  1  0
169170  1  0
170171  1  0
161172  1  0
167172  1  0
171172  1  0
169173  1  0
173174  1  0
175176  1  0
174177  1  0
176177  1  0
177178  1  0
175179  1  0
178179  1  0
175180  1  0
180181  1  0
180182  1  0
182183  1  0
183184  1  0
184185  1  0
185186  1  0
186187  1  0
186188  1  0
183189  1  0
189190  1  0
189191  1  0
174192  1  0
  1193  1  0
  2194  1  0
  3195  1  0
  3196  1  0
  3197  1  0
  4198  1  0
  5199  1  0
  6200  1  0
  7201  1  0
  8202  1  0
  8203  1  0
  9204  1  0
 10205  1  0
 10206  1  0
 11207  1  0
 11208  1  0
 12209  1  0
 13210  1  0
 13211  1  0
 15212  1  6
 17213  1  0
 18214  1  0
 18215  1  0
 19216  1  0
 19217  1  0
 20218  1  6
 21219  1  0
 22220  1  0
 23221  1  6
 24222  1  0
 24223  1  0
 25224  1  0
 25225  1  0
 26226  1  0
 27227  1  0
 29228  1  0
 30229  1  0
 32230  1  0
 32231  1  0
 32232  1  0
 33233  1  0
 34234  1  0
 35235  1  0
 35236  1  0
 35237  1  0
 36238  1  0
 37239  1  0
 38240  1  0
 39241  1  0
 40242  1  0
 40243  1  0
 41244  1  0
 42245  1  0
 42246  1  0
 43247  1  0
 43248  1  0
 44249  1  0
 45250  1  0
 45251  1  0
 47252  1  6
 49253  1  0
 50254  1  0
 50255  1  0
 51256  1  0
 51257  1  0
 52258  1  6
 53259  1  0
 54260  1  0
 55261  1  6
 56262  1  0
 56263  1  0
 57264  1  0
 57265  1  0
 58266  1  0
 59267  1  0
 61268  1  0
 62269  1  0
 64270  1  0
 64271  1  0
 64272  1  0
 65273  1  0
 66274  1  0
 67275  1  0
 67276  1  0
 67277  1  0
 68278  1  0
 69279  1  0
 70280  1  0
 71281  1  0
 72282  1  0
 72283  1  0
 73284  1  0
 74285  1  0
 74286  1  0
 75287  1  0
 75288  1  0
 76289  1  0
 77290  1  0
 77291  1  0
 79292  1  6
 81293  1  0
 82294  1  0
 82295  1  0
 83296  1  0
 83297  1  0
 84298  1  6
 85299  1  0
 86300  1  0
 87301  1  6
 88302  1  0
 88303  1  0
 89304  1  0
 89305  1  0
 90306  1  0
 91307  1  0
 93308  1  0
 94309  1  0
 96310  1  0
 96311  1  0
 96312  1  0
 97313  1  0
 98314  1  0
 99315  1  0
 99316  1  0
 99317  1  0
100318  1  0
101319  1  0
102320  1  0
103321  1  0
104322  1  0
104323  1  0
105324  1  0
106325  1  0
106326  1  0
107327  1  0
107328  1  0
108329  1  0
109330  1  0
109331  1  0
111332  1  6
113333  1  0
114334  1  0
114335  1  0
115336  1  0
115337  1  0
116338  1  0
117339  1  0
118340  1  0
119341  1  6
120342  1  0
120343  1  0
121344  1  0
121345  1  0
122346  1  0
123347  1  0
125348  1  0
126349  1  0
128350  1  0
128351  1  0
128352  1  0
129353  1  0
130354  1  0
131355  1  0
131356  1  0
131357  1  0
132358  1  0
133359  1  0
134360  1  0
135361  1  0
136362  1  0
136363  1  0
137364  1  0
138365  1  0
138366  1  0
139367  1  0
139368  1  0
140369  1  0
141370  1  0
141371  1  0
143372  1  0
145373  1  0
146374  1  0
146375  1  0
147376  1  0
147377  1  0
148378  1  0
149379  1  0
150380  1  0
151381  1  6
152382  1  0
152383  1  0
153384  1  0
153385  1  0
154386  1  0
155387  1  0
157388  1  0
158389  1  0
160390  1  0
160391  1  0
160392  1  0
161393  1  0
162394  1  0
163395  1  0
163396  1  0
163397  1  0
164398  1  0
165399  1  0
166400  1  0
167401  1  0
168402  1  0
168403  1  0
169404  1  0
170405  1  0
170406  1  0
171407  1  0
171408  1  0
172409  1  0
173410  1  0
173411  1  0
175412  1  0
177413  1  0
178414  1  0
178415  1  0
179416  1  0
179417  1  0
180418  1  0
181419  1  0
182420  1  0
183421  1  6
184422  1  0
184423  1  0
185424  1  0
185425  1  0
186426  1  0
187427  1  0
189428  1  0
190429  1  0
192430  1  0
192431  1  0
192432  1  0
M  CHG  8  28  -1  31  -1  60  -1  63  -1  92  -1  95  -1 124  -1 127  -1
M  CHG  4 156  -1 159  -1 188  -1 191  -1
M  END
>  <PDBID>  (1) 
5X5Q

>  <PDB ID>  (1) 
5X5Q

>  <Generic Name>  (1) 
Raltitrexed

>  <Brand Name>  (1) 
Tomudex

>  <DrugBank ID>  (1) 
DB00293

>  <ATC Codes>  (1) 
L01BA03

>  <Ligand ID>  (1) 
D16

>  <Target Name>  (1) 
Thymidylate synthase

>  <UniProt ID>  (1) 
P04818

>  <PDB ID.1>  (1) 
5X5Q

>  <Seq. Identity>  (1) 
100%

$$$$
