PDB_DB00421_99
     RDKit          3D

138146  0  0  0  0  0  0  0  0999 V2000
   -0.3510   -2.7480   12.7410 C   0  0  0  0  0  0  0  0  0  0  0  0
    0.4800   -5.5830   15.2650 C   0  0  0  0  0  0  0  0  0  0  0  0
   -0.0170   -4.2210   14.7030 C   0  0  1  0  0  0  0  0  0  0  0  0
    2.9390   -4.2050   18.0810 C   0  0  1  0  0  0  0  0  0  0  0  0
    1.2110   -3.3090   14.5490 C   0  0  1  0  0  0  0  0  0  0  0  0
    3.3890   -5.5990   18.6420 C   0  0  0  0  0  0  0  0  0  0  0  0
    1.0760   -5.4260   16.6760 C   0  0  0  0  0  0  0  0  0  0  0  0
    0.7950   -2.1450   13.6690 C   0  0  0  0  0  0  0  0  0  0  0  0
   -0.6090   -4.2180   13.2330 C   0  0  2  0  0  0  0  0  0  0  0  0
   -1.1550   -3.6160   15.6510 C   0  0  0  0  0  0  0  0  0  0  0  0
    1.9070   -3.6210   19.0570 C   0  0  0  0  0  0  0  0  0  0  0  0
    4.5050   -5.5110   19.7450 C   0  0  0  0  0  0  0  0  0  0  0  0
   -0.0730   -5.3340   12.2940 C   0  0  0  0  0  0  0  0  0  0  0  0
   -1.1540   -6.4340   12.5210 C   0  0  0  0  0  0  0  0  0  0  0  0
   -2.3850   -5.6890   12.8410 C   0  0  0  0  0  0  0  0  0  0  0  0
    4.5760   -4.0850   14.2030 C   0  0  0  0  0  0  0  0  0  0  0  0
    5.4580   -4.2830   13.0220 C   0  0  0  0  0  0  0  0  0  0  0  0
    5.6090   -4.4930   19.4700 C   0  0  0  0  0  0  0  0  0  0  0  0
    5.2930   -3.3670   18.5600 C   0  0  0  0  0  0  0  0  0  0  0  0
    4.1150   -3.1980   17.9520 C   0  0  2  0  0  0  0  0  0  0  0  0
    3.7850   -1.8730   17.2770 C   0  0  0  0  0  0  0  0  0  0  0  0
    3.1040   -2.0700   15.9210 C   0  0  2  0  0  0  0  0  0  0  0  0
    1.8720   -3.0540   15.9480 C   0  0  2  0  0  0  0  0  0  0  0  0
    2.2810   -4.4180   16.6320 C   0  0  1  0  0  0  0  0  0  0  0  0
   -3.5150   -6.0220   12.8130 O   0  0  0  0  0  0  0  0  0  0  0  0
   -2.0610   -4.4230   13.2250 O   0  0  0  0  0  0  0  0  0  0  0  0
    4.1290   -4.9950   14.8500 O   0  0  0  0  0  0  0  0  0  0  0  0
    6.6940   -4.5870   19.9880 O   0  0  0  0  0  0  0  0  0  0  0  0
    4.2450   -2.3690   14.5200 S   0  0  0  0  0  0  0  0  0  0  0  0
   21.5020   49.1180    9.3320 C   0  0  0  0  0  0  0  0  0  0  0  0
   20.6440   52.2720   11.4310 C   0  0  0  0  0  0  0  0  0  0  0  0
   21.1390   50.8490   11.0590 C   0  0  1  0  0  0  0  0  0  0  0  0
   18.1320   51.2310   14.3760 C   0  0  1  0  0  0  0  0  0  0  0  0
   19.9150   49.9100   11.0170 C   0  0  1  0  0  0  0  0  0  0  0  0
   17.6470   52.6690   14.7480 C   0  0  0  0  0  0  0  0  0  0  0  0
   20.0140   52.2860   12.8490 C   0  0  0  0  0  0  0  0  0  0  0  0
   20.3580   48.6350   10.3120 C   0  0  0  0  0  0  0  0  0  0  0  0
   21.7470   50.6550    9.6280 C   0  0  2  0  0  0  0  0  0  0  0  0
   22.2620   50.3610   12.0900 C   0  0  0  0  0  0  0  0  0  0  0  0
   19.1640   50.7910   15.4220 C   0  0  0  0  0  0  0  0  0  0  0  0
   16.5970   52.6890   15.9100 C   0  0  0  0  0  0  0  0  0  0  0  0
   21.2360   51.6130    8.5010 C   0  0  0  0  0  0  0  0  0  0  0  0
   22.3140   52.7260    8.5870 C   0  0  0  0  0  0  0  0  0  0  0  0
   23.5370   52.0320    9.0620 C   0  0  0  0  0  0  0  0  0  0  0  0
   16.4950   50.5950   10.5770 C   0  0  0  0  0  0  0  0  0  0  0  0
   15.6240   50.6040    9.3750 C   0  0  0  0  0  0  0  0  0  0  0  0
   15.4690   51.6590   15.7550 C   0  0  0  0  0  0  0  0  0  0  0  0
   15.7730   50.4300   14.9640 C   0  0  0  0  0  0  0  0  0  0  0  0
   16.9610   50.2010   14.3680 C   0  0  2  0  0  0  0  0  0  0  0  0
   17.3170   48.8170   13.8780 C   0  0  0  0  0  0  0  0  0  0  0  0
   18.0230   48.8440   12.5180 C   0  0  2  0  0  0  0  0  0  0  0  0
   19.2480   49.8410   12.4290 C   0  0  2  0  0  0  0  0  0  0  0  0
   18.8150   51.2700   12.9100 C   0  0  1  0  0  0  0  0  0  0  0  0
   24.6810   52.3370    9.0180 O   0  0  0  0  0  0  0  0  0  0  0  0
   23.1920   50.8530    9.6350 O   0  0  0  0  0  0  0  0  0  0  0  0
   16.8850   51.5970   11.1160 O   0  0  0  0  0  0  0  0  0  0  0  0
   14.3840   51.8280   16.2730 O   0  0  0  0  0  0  0  0  0  0  0  0
   16.9030   48.9450   11.0930 S   0  0  0  0  0  0  0  0  0  0  0  0
   -1.2694   -2.1501   12.8369 H   0  0  0  0  0  0  0  0  0  0  0  0
   -0.0499   -2.7335   11.6831 H   0  0  0  0  0  0  0  0  0  0  0  0
   -0.3681   -6.2820   15.3107 H   0  0  0  0  0  0  0  0  0  0  0  0
    1.2666   -5.9658   14.5981 H   0  0  0  0  0  0  0  0  0  0  0  0
    2.0628   -3.7490   14.0098 H   0  0  0  0  0  0  0  0  0  0  0  0
    2.5102   -6.0973   19.0773 H   0  0  0  0  0  0  0  0  0  0  0  0
    3.8174   -6.1598   17.7982 H   0  0  0  0  0  0  0  0  0  0  0  0
    0.3034   -5.0429   17.3589 H   0  0  0  0  0  0  0  0  0  0  0  0
    1.4316   -6.4040   17.0325 H   0  0  0  0  0  0  0  0  0  0  0  0
    1.6423   -1.7915   13.0630 H   0  0  0  0  0  0  0  0  0  0  0  0
    0.4527   -1.2771   14.2517 H   0  0  0  0  0  0  0  0  0  0  0  0
   -0.8732   -3.7658   16.7037 H   0  0  0  0  0  0  0  0  0  0  0  0
   -1.2655   -2.5401   15.4505 H   0  0  0  0  0  0  0  0  0  0  0  0
   -2.1087   -4.1262   15.4505 H   0  0  0  0  0  0  0  0  0  0  0  0
    2.2342   -3.8062   20.0908 H   0  0  0  0  0  0  0  0  0  0  0  0
    1.8161   -2.5376   18.8897 H   0  0  0  0  0  0  0  0  0  0  0  0
    0.9315   -4.1009   18.8897 H   0  0  0  0  0  0  0  0  0  0  0  0
    4.0231   -5.2422   20.6966 H   0  0  0  0  0  0  0  0  0  0  0  0
    4.9946   -6.4959   19.7645 H   0  0  0  0  0  0  0  0  0  0  0  0
   -0.0430   -5.0035   11.2453 H   0  0  0  0  0  0  0  0  0  0  0  0
    0.9589   -5.6535   12.5017 H   0  0  0  0  0  0  0  0  0  0  0  0
   -1.2909   -7.0368   11.6111 H   0  0  0  0  0  0  0  0  0  0  0  0
   -0.8725   -7.1353   13.3203 H   0  0  0  0  0  0  0  0  0  0  0  0
   -2.4566   -5.3579   11.7945 H   0  0  0  0  0  0  0  0  0  0  0  0
    3.6925   -4.1164   13.5484 H   0  0  0  0  0  0  0  0  0  0  0  0
    6.4790   -4.5122   13.3612 H   0  0  0  0  0  0  0  0  0  0  0  0
    5.0770   -5.1180   12.4157 H   0  0  0  0  0  0  0  0  0  0  0  0
    5.4704   -3.3653   12.4157 H   0  0  0  0  0  0  0  0  0  0  0  0
    5.9473   -5.0918   18.6115 H   0  0  0  0  0  0  0  0  0  0  0  0
    5.4558   -2.4535   19.1507 H   0  0  0  0  0  0  0  0  0  0  0  0
    5.9352   -3.6103   17.7007 H   0  0  0  0  0  0  0  0  0  0  0  0
    4.7368   -3.8409   17.3117 H   0  0  0  0  0  0  0  0  0  0  0  0
    3.1121   -1.2997   17.9316 H   0  0  0  0  0  0  0  0  0  0  0  0
    4.7297   -1.3361   17.1060 H   0  0  0  0  0  0  0  0  0  0  0  0
    2.6727   -1.0797   15.7130 H   0  0  0  0  0  0  0  0  0  0  0  0
    1.0971   -2.5504   16.5446 H   0  0  0  0  0  0  0  0  0  0  0  0
    3.0619   -4.8678   16.0012 H   0  0  0  0  0  0  0  0  0  0  0  0
   -3.8527   -6.1215   13.7383 H   0  0  0  0  0  0  0  0  0  0  0  0
    4.2277   -4.7940   15.8143 H   0  0  0  0  0  0  0  0  0  0  0  0
    6.5915   -4.5781   20.9726 H   0  0  0  0  0  0  0  0  0  0  0  0
   22.4235   48.5462    9.5161 H   0  0  0  0  0  0  0  0  0  0  0  0
   21.2119   48.9617    8.2825 H   0  0  0  0  0  0  0  0  0  0  0  0
   21.4963   52.9671   11.4087 H   0  0  0  0  0  0  0  0  0  0  0  0
   19.8785   52.5792   10.7033 H   0  0  0  0  0  0  0  0  0  0  0  0
   19.0659   50.2626   10.4131 H   0  0  0  0  0  0  0  0  0  0  0  0
   18.5201   53.2628   15.0565 H   0  0  0  0  0  0  0  0  0  0  0  0
   17.1545   53.0866   13.8575 H   0  0  0  0  0  0  0  0  0  0  0  0
   20.7748   51.9978   13.5893 H   0  0  0  0  0  0  0  0  0  0  0  0
   19.6441   53.2977   13.0718 H   0  0  0  0  0  0  0  0  0  0  0  0
   19.5242   48.1889    9.7501 H   0  0  0  0  0  0  0  0  0  0  0  0
   20.7005   47.8601   11.0136 H   0  0  0  0  0  0  0  0  0  0  0  0
   21.9066   50.5154   13.1195 H   0  0  0  0  0  0  0  0  0  0  0  0
   22.4676   49.2924   11.9295 H   0  0  0  0  0  0  0  0  0  0  0  0
   23.1835   50.9398   11.9295 H   0  0  0  0  0  0  0  0  0  0  0  0
   18.7601   50.9632   16.4306 H   0  0  0  0  0  0  0  0  0  0  0  0
   19.3837   49.7209   15.2928 H   0  0  0  0  0  0  0  0  0  0  0  0
   20.0882   51.3733   15.2928 H   0  0  0  0  0  0  0  0  0  0  0  0
   17.1232   52.4853   16.8543 H   0  0  0  0  0  0  0  0  0  0  0  0
   16.1239   53.6819   15.8922 H   0  0  0  0  0  0  0  0  0  0  0  0
   21.2338   51.1215    7.5169 H   0  0  0  0  0  0  0  0  0  0  0  0
   20.1994   51.9606    8.6221 H   0  0  0  0  0  0  0  0  0  0  0  0
   22.4840   53.1783    7.5988 H   0  0  0  0  0  0  0  0  0  0  0  0
   22.0137   53.5446    9.2576 H   0  0  0  0  0  0  0  0  0  0  0  0
   23.6326   51.5328    8.0865 H   0  0  0  0  0  0  0  0  0  0  0  0
   17.3857   50.5955    9.9316 H   0  0  0  0  0  0  0  0  0  0  0  0
   14.5691   50.6149    9.6867 H   0  0  0  0  0  0  0  0  0  0  0  0
   15.8380   51.5000    8.7738 H   0  0  0  0  0  0  0  0  0  0  0  0
   15.8194   49.7038    8.7738 H   0  0  0  0  0  0  0  0  0  0  0  0
   15.1323   52.1656   14.8385 H   0  0  0  0  0  0  0  0  0  0  0  0
   15.6132   49.5847   15.6495 H   0  0  0  0  0  0  0  0  0  0  0  0
   15.1196   50.5712   14.0905 H   0  0  0  0  0  0  0  0  0  0  0  0
   16.3269   50.7164   13.6317 H   0  0  0  0  0  0  0  0  0  0  0  0
   17.9836   48.3423   14.6130 H   0  0  0  0  0  0  0  0  0  0  0  0
   16.3810   48.2514   13.7596 H   0  0  0  0  0  0  0  0  0  0  0  0
   18.4767   47.8443   12.4490 H   0  0  0  0  0  0  0  0  0  0  0  0
   20.0215   49.4381   13.0993 H   0  0  0  0  0  0  0  0  0  0  0  0
   18.0464   51.6305   12.2105 H   0  0  0  0  0  0  0  0  0  0  0  0
   25.0331   52.4309    9.9385 H   0  0  0  0  0  0  0  0  0  0  0  0
   16.8403   51.4821   12.0983 H   0  0  0  0  0  0  0  0  0  0  0  0
   14.4826   51.8126   17.2580 H   0  0  0  0  0  0  0  0  0  0  0  0
  2  3  1  0
  3  5  1  0
  4  6  1  0
  2  7  1  0
  1  8  1  0
  5  8  1  0
  1  9  1  0
  3  9  1  0
  3 10  1  1
  4 11  1  1
  6 12  1  0
  9 13  1  0
 13 14  1  0
 14 15  1  0
 16 17  1  0
 12 18  1  0
 18 19  1  0
  4 20  1  0
 19 20  1  0
 20 21  1  0
 21 22  1  0
  5 23  1  0
 22 23  1  0
  4 24  1  0
  7 24  1  0
 23 24  1  0
 15 25  1  0
  9 26  1  1
 15 26  1  0
 16 27  1  0
 18 28  1  0
 16 29  1  0
 22 29  1  0
 31 32  1  0
 32 34  1  0
 33 35  1  0
 31 36  1  0
 30 37  1  0
 34 37  1  0
 30 38  1  0
 32 38  1  0
 32 39  1  1
 33 40  1  1
 35 41  1  0
 38 42  1  0
 42 43  1  0
 43 44  1  0
 45 46  1  0
 41 47  1  0
 47 48  1  0
 33 49  1  0
 48 49  1  0
 49 50  1  0
 50 51  1  0
 34 52  1  0
 51 52  1  0
 33 53  1  0
 36 53  1  0
 52 53  1  0
 44 54  1  0
 38 55  1  1
 44 55  1  0
 45 56  1  0
 47 57  1  0
 45 58  1  0
 51 58  1  0
  1 59  1  0
  1 60  1  0
  2 61  1  0
  2 62  1  0
  5 63  1  6
  6 64  1  0
  6 65  1  0
  7 66  1  0
  7 67  1  0
  8 68  1  0
  8 69  1  0
 10 70  1  0
 10 71  1  0
 10 72  1  0
 11 73  1  0
 11 74  1  0
 11 75  1  0
 12 76  1  0
 12 77  1  0
 13 78  1  0
 13 79  1  0
 14 80  1  0
 14 81  1  0
 15 82  1  0
 16 83  1  0
 17 84  1  0
 17 85  1  0
 17 86  1  0
 18 87  1  0
 19 88  1  0
 19 89  1  0
 20 90  1  6
 21 91  1  0
 21 92  1  0
 22 93  1  6
 23 94  1  1
 24 95  1  6
 25 96  1  0
 27 97  1  0
 28 98  1  0
 30 99  1  0
 30100  1  0
 31101  1  0
 31102  1  0
 34103  1  6
 35104  1  0
 35105  1  0
 36106  1  0
 36107  1  0
 37108  1  0
 37109  1  0
 39110  1  0
 39111  1  0
 39112  1  0
 40113  1  0
 40114  1  0
 40115  1  0
 41116  1  0
 41117  1  0
 42118  1  0
 42119  1  0
 43120  1  0
 43121  1  0
 44122  1  0
 45123  1  0
 46124  1  0
 46125  1  0
 46126  1  0
 47127  1  0
 48128  1  0
 48129  1  0
 49130  1  6
 50131  1  0
 50132  1  0
 51133  1  6
 52134  1  1
 53135  1  6
 54136  1  0
 56137  1  0
 57138  1  0
M  END
>  <PDBID>  (1) 
2AB2

>  <PDB ID>  (1) 
2AB2

>  <Generic Name>  (1) 
Spironolactone

>  <Brand Name>  (1) 
Aldactazide#Aldactazide 25#Aldactazide 50#Aldactone#Aldactone 100 mg#Aldactone 25 mg#Apo-spirozide Tab#Ntp-spironolactone#Spironolactone#Spironolactone and Hydrochlorothiazide#Teva-spironolactone#Teva-spironolactone/hctz#Osyrol#Spiresis#Spiretic#Spiroctan#Uractone#Verospiron#Xenalon

>  <DrugBank ID>  (1) 
DB00421

>  <ATC Codes>  (1) 
C03DA01

>  <Ligand ID>  (1) 
SNL

>  <Target Name>  (1) 
Mineralocorticoid receptor

>  <UniProt ID>  (1) 
P08235

>  <PDB ID.1>  (1) 
2AB2

>  <Seq. Identity>  (1) 
99%

$$$$
