PDB_DB01421_99
     RDKit          3D

 87 90  0  0  0  0  0  0  0  0999 V2000
  190.1700   87.6110  -10.5760 C   0  0  2  0  0  0  0  0  0  0  0  0
  190.9840   88.7950  -10.6050 O   0  0  0  0  0  0  0  0  0  0  0  0
  188.8180   87.8780   -9.8280 C   0  0  2  0  0  0  0  0  0  0  0  0
  188.0740   89.0210  -10.4020 N   0  0  0  0  0  0  0  0  0  0  0  0
  189.0880   88.1190   -8.3060 C   0  0  1  0  0  0  0  0  0  0  0  0
  187.8630   88.3370   -7.5880 O   0  0  0  0  0  0  0  0  0  0  0  0
  189.8470   86.9080   -7.6920 C   0  0  2  0  0  0  0  0  0  0  0  0
  190.0930   87.1600   -6.3110 O   0  0  0  0  0  0  0  0  0  0  0  0
  191.1770   86.6570   -8.4610 C   0  0  2  0  0  0  0  0  0  0  0  0
  190.8700   86.4940   -9.9100 O   0  0  0  0  0  0  0  0  0  0  0  0
  191.8920   85.3950   -7.9320 C   0  0  0  0  0  0  0  0  0  0  0  0
  193.1070   85.1900   -8.6200 O   0  0  0  0  0  0  0  0  0  0  0  0
  193.5280   91.1180  -13.1290 C   0  0  2  0  0  0  0  0  0  0  0  0
  194.6040   91.5970  -14.0160 N   0  0  0  0  0  0  0  0  0  0  0  0
  194.1840   90.4680  -11.8800 C   0  0  0  0  0  0  0  0  0  0  0  0
  193.0980   89.9300  -10.9010 C   0  0  2  0  0  0  0  0  0  0  0  0
  193.8060   89.3140   -9.7590 N   0  0  0  0  0  0  0  0  0  0  0  0
  192.0800   88.9320  -11.5500 C   0  0  2  0  0  0  0  0  0  0  0  0
  191.5300   89.5250  -12.8880 C   0  0  2  0  0  0  0  0  0  0  0  0
  190.8070   88.5060  -13.6240 O   0  0  0  0  0  0  0  0  0  0  0  0
  192.6540   90.0480  -13.8130 C   0  0  1  0  0  0  0  0  0  0  0  0
  192.0370   90.5840  -14.9710 O   0  0  0  0  0  0  0  0  0  0  0  0
  189.5110   88.8430  -14.1600 C   0  0  1  0  0  0  0  0  0  0  0  0
  189.1520   88.0800  -15.4170 C   0  0  2  0  0  0  0  0  0  0  0  0
  189.6830   88.7100  -16.5980 O   0  0  0  0  0  0  0  0  0  0  0  0
  187.6090   88.0080  -15.3650 C   0  0  2  0  0  0  0  0  0  0  0  0
  186.9710   89.1020  -16.1290 O   0  0  0  0  0  0  0  0  0  0  0  0
  187.2650   88.2280  -13.8690 C   0  0  2  0  0  0  0  0  0  0  0  0
  188.5030   88.5060  -13.2030 O   0  0  0  0  0  0  0  0  0  0  0  0
  186.6040   87.0720  -13.1420 C   0  0  0  0  0  0  0  0  0  0  0  0
  186.1400   87.5820  -11.8970 O   0  0  0  0  0  0  0  0  0  0  0  0
  186.1540   88.7240  -17.2520 C   0  0  2  0  0  0  0  0  0  0  0  0
  185.8350   89.8410  -18.2880 C   0  0  2  0  0  0  0  0  0  0  0  0
  187.0510   90.4960  -18.7800 N   0  0  0  0  0  0  0  0  0  0  0  0
  184.8090   90.8640  -17.7320 C   0  0  1  0  0  0  0  0  0  0  0  0
  184.5110   91.8480  -18.7140 O   0  0  0  0  0  0  0  0  0  0  0  0
  183.4960   90.1280  -17.3280 C   0  0  2  0  0  0  0  0  0  0  0  0
  182.4940   91.0170  -16.8400 O   0  0  0  0  0  0  0  0  0  0  0  0
  183.7820   89.0510  -16.2480 C   0  0  1  0  0  0  0  0  0  0  0  0
  184.8690   88.1620  -16.7410 O   0  0  0  0  0  0  0  0  0  0  0  0
  184.0870   89.6860  -14.8330 C   0  0  0  0  0  0  0  0  0  0  0  0
  183.5970   88.8580  -13.6890 N   0  0  0  0  0  0  0  0  0  0  0  0
  189.9648   87.3371  -11.6214 H   0  0  0  0  0  0  0  0  0  0  0  0
  188.1893   86.9844   -9.9555 H   0  0  0  0  0  0  0  0  0  0  0  0
  187.6959   89.6019   -9.6401 H   0  0  0  0  0  0  0  0  0  0  0  0
  188.7089   89.5871  -10.9827 H   0  0  0  0  0  0  0  0  0  0  0  0
  189.7095   89.0221   -8.2154 H   0  0  0  0  0  0  0  0  0  0  0  0
  188.0409   88.3053   -6.6146 H   0  0  0  0  0  0  0  0  0  0  0  0
  189.2313   86.0010   -7.7837 H   0  0  0  0  0  0  0  0  0  0  0  0
  189.5182   86.5712   -5.7606 H   0  0  0  0  0  0  0  0  0  0  0  0
  191.8471   87.5159   -8.3087 H   0  0  0  0  0  0  0  0  0  0  0  0
  192.1002   85.5199   -6.8591 H   0  0  0  0  0  0  0  0  0  0  0  0
  191.2406   84.5233   -8.0931 H   0  0  0  0  0  0  0  0  0  0  0  0
  193.8398   85.0664   -7.9659 H   0  0  0  0  0  0  0  0  0  0  0  0
  192.8910   91.9755  -12.8664 H   0  0  0  0  0  0  0  0  0  0  0  0
  195.3883   91.9461  -13.4468 H   0  0  0  0  0  0  0  0  0  0  0  0
  194.9297   90.8214  -14.6104 H   0  0  0  0  0  0  0  0  0  0  0  0
  194.8242   89.6335  -12.2021 H   0  0  0  0  0  0  0  0  0  0  0  0
  194.7816   91.2304  -11.3589 H   0  0  0  0  0  0  0  0  0  0  0  0
  192.4709   90.7745  -10.5791 H   0  0  0  0  0  0  0  0  0  0  0  0
  193.4044   89.6634   -8.8772 H   0  0  0  0  0  0  0  0  0  0  0  0
  193.7014   88.2902   -9.8020 H   0  0  0  0  0  0  0  0  0  0  0  0
  192.5577   87.9656  -11.7686 H   0  0  0  0  0  0  0  0  0  0  0  0
  190.8763   90.3636  -12.6064 H   0  0  0  0  0  0  0  0  0  0  0  0
  193.3279   89.2166  -14.0675 H   0  0  0  0  0  0  0  0  0  0  0  0
  191.3177   91.2089  -14.7024 H   0  0  0  0  0  0  0  0  0  0  0  0
  189.5590   89.9172  -14.3921 H   0  0  0  0  0  0  0  0  0  0  0  0
  189.5933   87.0736  -15.4664 H   0  0  0  0  0  0  0  0  0  0  0  0
  190.2980   89.4397  -16.3346 H   0  0  0  0  0  0  0  0  0  0  0  0
  187.2553   87.0570  -15.7898 H   0  0  0  0  0  0  0  0  0  0  0  0
  186.5222   89.0390  -13.8453 H   0  0  0  0  0  0  0  0  0  0  0  0
  185.7594   86.6866  -13.7320 H   0  0  0  0  0  0  0  0  0  0  0  0
  187.3119   86.2438  -12.9906 H   0  0  0  0  0  0  0  0  0  0  0  0
  186.5819   87.0963  -11.1561 H   0  0  0  0  0  0  0  0  0  0  0  0
  186.7586   87.9913  -17.8066 H   0  0  0  0  0  0  0  0  0  0  0  0
  185.3653   89.3523  -19.1543 H   0  0  0  0  0  0  0  0  0  0  0  0
  187.6226   90.8039  -17.9804 H   0  0  0  0  0  0  0  0  0  0  0  0
  187.5911   89.8317  -19.3526 H   0  0  0  0  0  0  0  0  0  0  0  0
  185.2457   91.3548  -16.8498 H   0  0  0  0  0  0  0  0  0  0  0  0
  184.2550   92.6934  -18.2670 H   0  0  0  0  0  0  0  0  0  0  0  0
  183.1147   89.6550  -18.2450 H   0  0  0  0  0  0  0  0  0  0  0  0
  182.5011   91.0107  -15.8500 H   0  0  0  0  0  0  0  0  0  0  0  0
  182.8799   88.4426  -16.0868 H   0  0  0  0  0  0  0  0  0  0  0  0
  185.1757   89.8076  -14.7334 H   0  0  0  0  0  0  0  0  0  0  0  0
  183.5537   90.6470  -14.7882 H   0  0  0  0  0  0  0  0  0  0  0  0
  183.8630   89.3074  -12.8012 H   0  0  0  0  0  0  0  0  0  0  0  0
  182.5714   88.7763  -13.7388 H   0  0  0  0  0  0  0  0  0  0  0  0
  1  2  1  0
  1  3  1  0
  3  4  1  0
  3  5  1  0
  5  6  1  0
  5  7  1  0
  7  8  1  0
  7  9  1  0
  1 10  1  0
  9 10  1  0
  9 11  1  0
 11 12  1  0
 13 14  1  0
 13 15  1  0
 15 16  1  0
 16 17  1  0
  2 18  1  0
 16 18  1  0
 18 19  1  0
 19 20  1  0
 13 21  1  0
 19 21  1  0
 21 22  1  0
 20 23  1  0
 23 24  1  0
 24 25  1  0
 24 26  1  0
 26 27  1  0
 26 28  1  0
 23 29  1  0
 28 29  1  0
 28 30  1  0
 30 31  1  0
 27 32  1  0
 32 33  1  0
 33 34  1  0
 33 35  1  0
 35 36  1  0
 35 37  1  0
 37 38  1  0
 37 39  1  0
 32 40  1  0
 39 40  1  0
 39 41  1  0
 41 42  1  0
  1 43  1  6
  3 44  1  1
  4 45  1  0
  4 46  1  0
  5 47  1  6
  6 48  1  0
  7 49  1  1
  8 50  1  0
  9 51  1  6
 11 52  1  0
 11 53  1  0
 12 54  1  0
 13 55  1  1
 14 56  1  0
 14 57  1  0
 15 58  1  0
 15 59  1  0
 16 60  1  1
 17 61  1  0
 17 62  1  0
 18 63  1  6
 19 64  1  1
 21 65  1  6
 22 66  1  0
 23 67  1  6
 24 68  1  1
 25 69  1  0
 26 70  1  6
 28 71  1  6
 30 72  1  0
 30 73  1  0
 31 74  1  0
 32 75  1  6
 33 76  1  6
 34 77  1  0
 34 78  1  0
 35 79  1  1
 36 80  1  0
 37 81  1  6
 38 82  1  0
 39 83  1  1
 41 84  1  0
 41 85  1  0
 42 86  1  0
 42 87  1  0
M  END
>  <PDBID>  (1) 
2VQE

>  <PDB ID>  (1) 
2VQE

>  <Generic Name>  (1) 
Paromomycin

>  <Brand Name>  (1) 
Humatin Cap 250mg#Paromomycin Sulfate#Humatin

>  <DrugBank ID>  (1) 
DB01421

>  <ATC Codes>  (1) 
A07AA06

>  <Ligand ID>  (1) 
PAR

>  <Target Name>  (1) 
30S ribosomal protein S10

>  <UniProt ID>  (1) 
Q5SHN7

>  <PDB ID.1>  (1) 
2VQE

>  <Seq. Identity>  (1) 
100%

$$$$
