PDB_DB06147_99
     RDKit          3D

 37 38  0  0  0  0  0  0  0  0999 V2000
  -56.0580   51.6320  136.6700 O   0  0  0  0  0  0  0  0  0  0  0  0
  -56.0980   52.2180  135.3590 S   0  0  1  0  0  4  0  0  0  0  0  0
  -57.1360   51.5600  134.6110 O   0  0  0  0  0  0  0  0  0  0  0  0
  -56.4010   53.7760  135.4680 C   0  0  0  0  0  0  0  0  0  0  0  0
  -55.7270   54.5230  136.4340 C   0  0  0  0  0  0  0  0  0  0  0  0
  -55.9640   55.8880  136.5290 C   0  0  0  0  0  0  0  0  0  0  0  0
  -57.3020   54.3740  134.5880 C   0  0  0  0  0  0  0  0  0  0  0  0
  -57.5360   55.7380  134.6890 C   0  0  0  0  0  0  0  0  0  0  0  0
  -56.8670   56.4870  135.6580 C   0  0  0  0  0  0  0  0  0  0  0  0
  -57.0900   57.8170  135.7570 N   0  0  0  0  0  0  0  0  0  0  0  0
  -54.6500   52.0280  134.6460 N   0  0  0  0  0  0  0  0  0  0  0  0
  -53.9660   52.9220  133.8480 C   0  0  0  0  0  0  0  0  0  0  0  0
  -53.2160   52.4910  132.3430 S   0  0  0  0  0  0  0  0  0  0  0  0
  -52.6180   54.0990  132.0700 C   0  0  0  0  0  0  0  0  0  0  0  0
  -53.0230   54.8710  133.1640 C   0  0  0  0  0  0  0  0  0  0  0  0
  -53.7480   54.2310  134.1420 N   0  0  0  0  0  0  0  0  0  0  0  0
  -56.1068   52.3472  137.3528 H   0  0  0  0  0  0  0  0  0  0  0  0
  -57.7839   51.1493  135.2367 H   0  0  0  0  0  0  0  0  0  0  0  0
  -57.2054   53.5691  136.1892 H   0  0  0  0  0  0  0  0  0  0  0  0
  -55.9795   54.0853  137.4111 H   0  0  0  0  0  0  0  0  0  0  0  0
  -54.6746   54.4640  136.1194 H   0  0  0  0  0  0  0  0  0  0  0  0
  -56.3279   56.0796  137.5492 H   0  0  0  0  0  0  0  0  0  0  0  0
  -54.9994   56.3382  136.2519 H   0  0  0  0  0  0  0  0  0  0  0  0
  -56.9316   54.1850  133.5696 H   0  0  0  0  0  0  0  0  0  0  0  0
  -58.2688   53.9202  134.8514 H   0  0  0  0  0  0  0  0  0  0  0  0
  -57.2803   56.1780  133.7138 H   0  0  0  0  0  0  0  0  0  0  0  0
  -58.5880   55.7933  135.0056 H   0  0  0  0  0  0  0  0  0  0  0  0
  -56.0515   56.6804  134.9455 H   0  0  0  0  0  0  0  0  0  0  0  0
  -57.1349   58.0846  136.7506 H   0  0  0  0  0  0  0  0  0  0  0  0
  -56.3231   58.3288  135.2979 H   0  0  0  0  0  0  0  0  0  0  0  0
  -54.0035   51.8256  135.4218 H   0  0  0  0  0  0  0  0  0  0  0  0
  -53.0335   52.6841  134.3808 H   0  0  0  0  0  0  0  0  0  0  0  0
  -51.5203   54.0881  131.9996 H   0  0  0  0  0  0  0  0  0  0  0  0
  -53.0097   54.5117  131.1286 H   0  0  0  0  0  0  0  0  0  0  0  0
  -52.1174   55.2802  133.6356 H   0  0  0  0  0  0  0  0  0  0  0  0
  -53.7070   55.6244  132.7462 H   0  0  0  0  0  0  0  0  0  0  0  0
  -54.6574   54.7038  134.2433 H   0  0  0  0  0  0  0  0  0  0  0  0
  2  1  1  1
  2  3  1  0
  2  4  1  0
  4  5  1  0
  5  6  1  0
  4  7  1  0
  7  8  1  0
  6  9  1  0
  8  9  1  0
  9 10  1  0
  2 11  1  0
 11 12  1  0
 12 13  1  0
 13 14  1  0
 14 15  1  0
 12 16  1  0
 15 16  1  0
  1 17  1  0
  3 18  1  0
  4 19  1  0
  5 20  1  0
  5 21  1  0
  6 22  1  0
  6 23  1  0
  7 24  1  0
  7 25  1  0
  8 26  1  0
  8 27  1  0
  9 28  1  0
 10 29  1  0
 10 30  1  0
 11 31  1  0
 12 32  1  0
 14 33  1  0
 14 34  1  0
 15 35  1  0
 15 36  1  0
 16 37  1  0
M  END
>  <PDBID>  (1) 
3TYE

>  <PDB ID>  (1) 
3TYE

>  <Generic Name>  (1) 
Sulfathiazole

>  <Brand Name>  (1) 
Norsulfazolum#Sulfatiazol

>  <DrugBank ID>  (1) 
DB06147

>  <ATC Codes>  (1) 
J01EB07#D06BA02

>  <Ligand ID>  (1) 
YTZ

>  <Target Name>  (1) 
Dihydropteroate synthetase

>  <UniProt ID>  (1) 
Q27738

>  <PDB ID.1>  (1) 
3TYE

>  <Seq. Identity>  (1) 
35%

$$$$
