PDB_DB00188_93
     RDKit          3D

 53 54  0  0  0  0  0  0  0  0999 V2000
   62.7600 -133.3930   35.8630 N   0  0  0  0  0  0  0  0  0  0  0  0
   62.2140 -134.5950   36.1270 C   0  0  0  0  0  0  0  0  0  0  0  0
   62.2250 -135.5910   35.1480 C   0  0  0  0  0  0  0  0  0  0  0  0
   62.8060 -135.3410   33.8950 N   0  0  0  0  0  0  0  0  0  0  0  0
   63.3730 -134.0860   33.6300 C   0  0  0  0  0  0  0  0  0  0  0  0
   63.3480 -133.1080   34.6180 C   0  0  0  0  0  0  0  0  0  0  0  0
   61.6480 -134.8130   37.3860 C   0  0  0  0  0  0  0  0  0  0  0  0
   61.0200 -133.9100   37.9430 O   0  0  0  0  0  0  0  0  0  0  0  0
   61.8480 -136.0360   37.9290 N   0  0  0  0  0  0  0  0  0  0  0  0
   61.3540 -136.3820   39.2750 C   0  0  1  0  0  0  0  0  0  0  0  0
   60.6170 -137.7050   39.3020 C   0  0  0  0  0  0  0  0  0  0  0  0
   59.4060 -137.5350   38.6020 C   0  0  0  0  0  0  0  0  0  0  0  0
   59.1840 -138.1870   37.3850 C   0  0  0  0  0  0  0  0  0  0  0  0
   57.9820 -138.0180   36.6990 C   0  0  0  0  0  0  0  0  0  0  0  0
   56.9850 -137.1990   37.2250 C   0  0  0  0  0  0  0  0  0  0  0  0
   57.1950 -136.5500   38.4390 C   0  0  0  0  0  0  0  0  0  0  0  0
   58.3970 -136.7210   39.1250 C   0  0  0  0  0  0  0  0  0  0  0  0
   62.5800 -136.4920   40.1830 C   0  0  0  0  0  0  0  0  0  0  0  0
   63.6720 -136.8180   39.7160 O   0  0  0  0  0  0  0  0  0  0  0  0
   62.3640 -136.1990   41.4790 N   0  0  0  0  0  0  0  0  0  0  0  0
   63.4520 -136.2260   42.4700 C   0  0  1  0  0  0  0  0  0  0  0  0
   63.5270 -134.9200   43.2310 C   0  0  0  0  0  0  0  0  0  0  0  0
   63.6250 -133.7350   42.2480 C   0  0  0  0  0  0  0  0  0  0  0  0
   63.4220 -132.4320   43.0410 C   0  0  0  0  0  0  0  0  0  0  0  0
   64.9740 -133.7150   41.5090 C   0  0  0  0  0  0  0  0  0  0  0  0
   63.2370 -137.3490   43.5040 B   0  0  0  0  0  0  0  0  0  0  0  0
   63.0940 -138.6170   42.8450 O   0  0  0  0  0  0  0  0  0  0  0  0
   62.0570 -137.0790   44.2790 O   0  0  0  0  0  0  0  0  0  0  0  0
   61.7774 -136.5734   35.3593 H   0  0  0  0  0  0  0  0  0  0  0  0
   63.8320 -133.8778   32.6523 H   0  0  0  0  0  0  0  0  0  0  0  0
   63.7857 -132.1171   34.4268 H   0  0  0  0  0  0  0  0  0  0  0  0
   62.3602 -136.7462   37.3866 H   0  0  0  0  0  0  0  0  0  0  0  0
   60.6456 -135.6072   39.6033 H   0  0  0  0  0  0  0  0  0  0  0  0
   61.2248 -138.4824   38.8159 H   0  0  0  0  0  0  0  0  0  0  0  0
   60.4223 -138.0165   40.3388 H   0  0  0  0  0  0  0  0  0  0  0  0
   59.9644 -138.8388   36.9653 H   0  0  0  0  0  0  0  0  0  0  0  0
   57.8204 -138.5325   35.7402 H   0  0  0  0  0  0  0  0  0  0  0  0
   56.0366 -137.0657   36.6839 H   0  0  0  0  0  0  0  0  0  0  0  0
   56.4114 -135.9013   38.8576 H   0  0  0  0  0  0  0  0  0  0  0  0
   58.5527 -136.2105   40.0868 H   0  0  0  0  0  0  0  0  0  0  0  0
   61.4127 -135.9494   41.7851 H   0  0  0  0  0  0  0  0  0  0  0  0
   64.3823 -136.3975   41.9086 H   0  0  0  0  0  0  0  0  0  0  0  0
   62.6233 -134.8065   43.8478 H   0  0  0  0  0  0  0  0  0  0  0  0
   64.4208 -134.9292   43.8721 H   0  0  0  0  0  0  0  0  0  0  0  0
   62.8454 -133.8399   41.4791 H   0  0  0  0  0  0  0  0  0  0  0  0
   63.4559 -132.6496   44.1187 H   0  0  0  0  0  0  0  0  0  0  0  0
   64.2199 -131.7192   42.7856 H   0  0  0  0  0  0  0  0  0  0  0  0
   62.4451 -131.9957   42.7856 H   0  0  0  0  0  0  0  0  0  0  0  0
   65.7937 -133.7028   42.2424 H   0  0  0  0  0  0  0  0  0  0  0  0
   65.0598 -134.6120   40.8781 H   0  0  0  0  0  0  0  0  0  0  0  0
   65.0332 -132.8159   40.8781 H   0  0  0  0  0  0  0  0  0  0  0  0
   63.0131 -139.3340   43.5229 H   0  0  0  0  0  0  0  0  0  0  0  0
   62.2767 -137.1293   45.2430 H   0  0  0  0  0  0  0  0  0  0  0  0
  1  2  2  0
  2  3  1  0
  3  4  2  0
  4  5  1  0
  1  6  1  0
  5  6  2  0
  2  7  1  0
  7  8  2  0
  7  9  1  0
  9 10  1  0
 10 11  1  0
 11 12  1  0
 12 13  2  0
 13 14  1  0
 14 15  2  0
 15 16  1  0
 12 17  1  0
 16 17  2  0
 10 18  1  0
 18 19  2  0
 18 20  1  0
 20 21  1  0
 21 22  1  0
 22 23  1  0
 23 24  1  0
 23 25  1  0
 21 26  1  0
 26 27  1  0
 26 28  1  0
  3 29  1  0
  5 30  1  0
  6 31  1  0
  9 32  1  0
 10 33  1  1
 11 34  1  0
 11 35  1  0
 13 36  1  0
 14 37  1  0
 15 38  1  0
 16 39  1  0
 17 40  1  0
 20 41  1  0
 21 42  1  6
 22 43  1  0
 22 44  1  0
 23 45  1  0
 24 46  1  0
 24 47  1  0
 24 48  1  0
 25 49  1  0
 25 50  1  0
 25 51  1  0
 27 52  1  0
 28 53  1  0
M  END
$$$$
