PDB_DB00159_99
     RDKit          3D

 64 63  0  0  0  0  0  0  0  0999 V2000
  253.5670  111.0370  -37.0730 C   0  0  0  0  0  0  0  0  0  0  0  0
  253.3120  111.4470  -35.9120 O   0  0  0  0  0  0  0  0  0  0  0  0
  253.1570  111.6040  -38.1170 O   0  0  0  0  0  0  0  0  0  0  0  0
  254.4130  109.7830  -37.2250 C   0  0  0  0  0  0  0  0  0  0  0  0
  253.5710  108.5910  -37.6070 C   0  0  0  0  0  0  0  0  0  0  0  0
  252.8420  108.8250  -38.9060 C   0  0  0  0  0  0  0  0  0  0  0  0
  253.3620  108.2560  -40.1340 C   0  0  0  0  0  0  0  0  0  0  0  0
  252.7850  107.1340  -40.6750 C   0  0  0  0  0  0  0  0  0  0  0  0
  251.6200  106.4890  -40.0150 C   0  0  0  0  0  0  0  0  0  0  0  0
  250.2690  107.0290  -40.3070 C   0  0  0  0  0  0  0  0  0  0  0  0
  249.1860  106.5800  -39.6160 C   0  0  0  0  0  0  0  0  0  0  0  0
  249.3470  105.5140  -38.5370 C   0  0  0  0  0  0  0  0  0  0  0  0
  248.5000  104.2430  -38.6400 C   0  0  0  0  0  0  0  0  0  0  0  0
  248.8360  103.1230  -37.9330 C   0  0  0  0  0  0  0  0  0  0  0  0
  250.0210  103.1190  -37.0680 C   0  0  0  0  0  0  0  0  0  0  0  0
  250.8710  101.8930  -37.0350 C   0  0  0  0  0  0  0  0  0  0  0  0
  251.1220  101.2170  -35.8610 C   0  0  0  0  0  0  0  0  0  0  0  0
  250.5670  101.6890  -34.5670 C   0  0  0  0  0  0  0  0  0  0  0  0
  249.1290  101.8590  -34.4490 C   0  0  0  0  0  0  0  0  0  0  0  0
  248.4920  101.5570  -33.2710 C   0  0  0  0  0  0  0  0  0  0  0  0
  249.2680  101.0330  -32.0560 C   0  0  0  0  0  0  0  0  0  0  0  0
  248.4580  101.1560  -30.7810 C   0  0  0  0  0  0  0  0  0  0  0  0
  252.6589  110.4165  -37.0533 H   0  0  0  0  0  0  0  0  0  0  0  0
  253.7002  110.8228  -35.2489 H   0  0  0  0  0  0  0  0  0  0  0  0
  252.5950  112.3812  -37.8715 H   0  0  0  0  0  0  0  0  0  0  0  0
  255.1672  109.9533  -38.0074 H   0  0  0  0  0  0  0  0  0  0  0  0
  254.8928  109.5710  -36.2581 H   0  0  0  0  0  0  0  0  0  0  0  0
  254.2236  107.7123  -37.7163 H   0  0  0  0  0  0  0  0  0  0  0  0
  252.8243  108.4272  -36.8160 H   0  0  0  0  0  0  0  0  0  0  0  0
  251.8242  108.4284  -38.7766 H   0  0  0  0  0  0  0  0  0  0  0  0
  252.9413  109.9091  -39.0638 H   0  0  0  0  0  0  0  0  0  0  0  0
  253.2997  109.0440  -40.8990 H   0  0  0  0  0  0  0  0  0  0  0  0
  254.3637  107.9066  -39.8432 H   0  0  0  0  0  0  0  0  0  0  0  0
  252.4608  107.4054  -41.6905 H   0  0  0  0  0  0  0  0  0  0  0  0
  253.5762  106.3767  -40.5728 H   0  0  0  0  0  0  0  0  0  0  0  0
  251.6205  105.4298  -40.3119 H   0  0  0  0  0  0  0  0  0  0  0  0
  251.7685  106.6833  -38.9425 H   0  0  0  0  0  0  0  0  0  0  0  0
  250.3206  108.1154  -40.1428 H   0  0  0  0  0  0  0  0  0  0  0  0
  250.0754  106.6766  -41.3309 H   0  0  0  0  0  0  0  0  0  0  0  0
  248.7367  107.4576  -39.1282 H   0  0  0  0  0  0  0  0  0  0  0  0
  248.5946  106.0654  -40.3876 H   0  0  0  0  0  0  0  0  0  0  0  0
  250.4022  105.2033  -38.5411 H   0  0  0  0  0  0  0  0  0  0  0  0
  248.9922  106.0028  -37.6176 H   0  0  0  0  0  0  0  0  0  0  0  0
  247.4815  104.5178  -38.3284 H   0  0  0  0  0  0  0  0  0  0  0  0
  248.6524  103.9299  -39.6834 H   0  0  0  0  0  0  0  0  0  0  0  0
  247.9754  102.8853  -37.2905 H   0  0  0  0  0  0  0  0  0  0  0  0
  249.1007  102.4021  -38.7205 H   0  0  0  0  0  0  0  0  0  0  0  0
  250.6631  103.9513  -37.3920 H   0  0  0  0  0  0  0  0  0  0  0  0
  249.6126  103.1925  -36.0493 H   0  0  0  0  0  0  0  0  0  0  0  0
  250.3959  101.1690  -37.7133 H   0  0  0  0  0  0  0  0  0  0  0  0
  251.8639  102.2896  -37.2936 H   0  0  0  0  0  0  0  0  0  0  0  0
  250.7482  100.1926  -36.0053 H   0  0  0  0  0  0  0  0  0  0  0  0
  252.2036  101.3653  -35.7259 H   0  0  0  0  0  0  0  0  0  0  0  0
  250.8720  100.9630  -33.7990 H   0  0  0  0  0  0  0  0  0  0  0  0
  250.9678  102.7076  -34.4582 H   0  0  0  0  0  0  0  0  0  0  0  0
  248.9169  102.9173  -34.6612 H   0  0  0  0  0  0  0  0  0  0  0  0
  248.7300  101.1099  -35.1487 H   0  0  0  0  0  0  0  0  0  0  0  0
  247.9883  102.4788  -32.9445 H   0  0  0  0  0  0  0  0  0  0  0  0
  247.8733  100.6913  -33.5499 H   0  0  0  0  0  0  0  0  0  0  0  0
  249.5161   99.9740  -32.2205 H   0  0  0  0  0  0  0  0  0  0  0  0
  250.1802  101.6374  -31.9437 H   0  0  0  0  0  0  0  0  0  0  0  0
  249.1246  101.0548  -29.9119 H   0  0  0  0  0  0  0  0  0  0  0  0
  247.9656  102.1392  -30.7528 H   0  0  0  0  0  0  0  0  0  0  0  0
  247.6959  100.3633  -30.7528 H   0  0  0  0  0  0  0  0  0  0  0  0
  1  2  1  0
  1  3  1  0
  1  4  1  0
  4  5  1  0
  5  6  1  0
  6  7  1  0
  7  8  1  0
  8  9  1  0
  9 10  1  0
 10 11  1  0
 11 12  1  0
 12 13  1  0
 13 14  1  0
 14 15  1  0
 15 16  1  0
 16 17  1  0
 17 18  1  0
 18 19  1  0
 19 20  1  0
 20 21  1  0
 21 22  1  0
  1 23  1  0
  2 24  1  0
  3 25  1  0
  4 26  1  0
  4 27  1  0
  5 28  1  0
  5 29  1  0
  6 30  1  0
  6 31  1  0
  7 32  1  0
  7 33  1  0
  8 34  1  0
  8 35  1  0
  9 36  1  0
  9 37  1  0
 10 38  1  0
 10 39  1  0
 11 40  1  0
 11 41  1  0
 12 42  1  0
 12 43  1  0
 13 44  1  0
 13 45  1  0
 14 46  1  0
 14 47  1  0
 15 48  1  0
 15 49  1  0
 16 50  1  0
 16 51  1  0
 17 52  1  0
 17 53  1  0
 18 54  1  0
 18 55  1  0
 19 56  1  0
 19 57  1  0
 20 58  1  0
 20 59  1  0
 21 60  1  0
 21 61  1  0
 22 62  1  0
 22 63  1  0
 22 64  1  0
M  END
>  <PDBID>  (1) 
1IGX

>  <PDB ID>  (1) 
1IGX

>  <Generic Name>  (1) 
Icosapent

>  <Brand Name>  (1) 
Animi-3#Animi-3 With Vitamin D#Citranatal Assure#Folcaps Care One#Folcaps Omega-3#Gesticare DHA#Herbalifeline#Natelle One#Prenate Essential#Se-tan DHA#Ultimatecare One Nf#Virt-PN Plus#Virt-bal DHA Plus#Vp-CH-pnv

>  <DrugBank ID>  (1) 
DB00159

>  <ATC Codes>  (1) 
nan

>  <Ligand ID>  (1) 
EPA

>  <Target Name>  (1) 
Prostaglandin G/H synthase 1

>  <UniProt ID>  (1) 
P23219

>  <PDB ID.1>  (1) 
1IGX

>  <Seq. Identity>  (1) 
89%

$$$$
