PDB_DB00323_99
     RDKit          3D

 47 48  0  0  0  0  0  0  0  0999 V2000
  -13.3170   35.2330   60.2030 O   0  0  0  0  0  0  0  0  0  0  0  0
  -13.5590   36.0750   61.0640 C   0  0  1  0  0  0  0  0  0  0  0  0
  -12.3980   36.6530   61.8190 C   0  0  1  0  0  0  0  0  0  0  0  0
  -11.2040   35.8810   61.9370 C   0  0  0  0  0  0  0  0  0  0  0  0
  -10.0940   36.4350   62.6250 C   0  0  0  0  0  0  0  0  0  0  0  0
   -8.9270   35.7180   62.7920 O   0  0  0  0  0  0  0  0  0  0  0  0
  -12.4720   37.9530   62.3310 C   0  0  0  0  0  0  0  0  0  0  0  0
  -11.3610   38.4980   62.9780 C   0  0  0  0  0  0  0  0  0  0  0  0
  -11.4610   39.8150   63.4940 N   0  0  0  0  0  0  0  0  0  0  0  0
  -12.4810   40.4540   63.2540 O   0  0  0  0  0  0  0  0  0  0  0  0
  -10.5760   40.3390   64.1970 O   0  0  0  0  0  0  0  0  0  0  0  0
  -10.1770   37.7240   63.1130 C   0  0  0  0  0  0  0  0  0  0  0  0
   -9.0720   38.2390   63.7360 O   0  0  0  0  0  0  0  0  0  0  0  0
  -14.9510   36.5700   61.2700 C   0  0  0  0  0  0  0  0  0  0  0  0
  -15.7120   36.8580   60.1250 C   0  0  0  0  0  0  0  0  0  0  0  0
  -17.0150   37.3330   60.2810 C   0  0  0  0  0  0  0  0  0  0  0  0
  -17.5400   37.5300   61.5650 C   0  0  0  0  0  0  0  0  0  0  0  0
  -18.9460   38.0550   61.7210 C   0  0  0  0  0  0  0  0  0  0  0  0
  -16.7690   37.2590   62.7070 C   0  0  0  0  0  0  0  0  0  0  0  0
  -15.4610   36.7790   62.5580 C   0  0  0  0  0  0  0  0  0  0  0  0
  -11.1640   34.9740   61.5820 H   0  0  0  0  0  0  0  0  0  0  0  0
   -9.0440   35.1020   63.4220 H   0  0  0  0  0  0  0  0  0  0  0  0
  -13.2800   38.4820   62.2130 H   0  0  0  0  0  0  0  0  0  0  0  0
   -8.4000   38.2880   63.1550 H   0  0  0  0  0  0  0  0  0  0  0  0
  -15.3420   36.7130   59.2350 H   0  0  0  0  0  0  0  0  0  0  0  0
  -17.5600   37.5290   59.4960 H   0  0  0  0  0  0  0  0  0  0  0  0
  -19.0330   38.5010   62.5850 H   0  0  0  0  0  0  0  0  0  0  0  0
  -19.1380   38.6910   61.0060 H   0  0  0  0  0  0  0  0  0  0  0  0
  -19.5780   37.3130   61.6730 H   0  0  0  0  0  0  0  0  0  0  0  0
  -17.1420   37.4000   63.5960 H   0  0  0  0  0  0  0  0  0  0  0  0
  -14.9170   36.5810   63.3410 H   0  0  0  0  0  0  0  0  0  0  0  0
  -13.0713   34.3780   60.6374 H   0  0  0  0  0  0  0  0  0  0  0  0
  -13.6520   35.2784   61.8169 H   0  0  0  0  0  0  0  0  0  0  0  0
  -12.7794   36.2051   62.7485 H   0  0  0  0  0  0  0  0  0  0  0  0
  -10.8336   36.3098   60.9942 H   0  0  0  0  0  0  0  0  0  0  0  0
  -10.4788   36.0294   63.5723 H   0  0  0  0  0  0  0  0  0  0  0  0
  -12.8350   37.5547   63.2899 H   0  0  0  0  0  0  0  0  0  0  0  0
  -11.0006   38.9007   62.0199 H   0  0  0  0  0  0  0  0  0  0  0  0
  -12.9099   40.7227   64.1048 H   0  0  0  0  0  0  0  0  0  0  0  0
  -10.7948   40.2095   65.1538 H   0  0  0  0  0  0  0  0  0  0  0  0
   -9.8136   38.1120   62.1500 H   0  0  0  0  0  0  0  0  0  0  0  0
  -14.5806   37.6057   61.2843 H   0  0  0  0  0  0  0  0  0  0  0  0
  -16.0897   35.8249   60.1162 H   0  0  0  0  0  0  0  0  0  0  0  0
  -17.3912   36.2994   60.2858 H   0  0  0  0  0  0  0  0  0  0  0  0
  -17.1553   38.5605   61.5642 H   0  0  0  0  0  0  0  0  0  0  0  0
  -17.1469   36.2260   62.7170 H   0  0  0  0  0  0  0  0  0  0  0  0
  -15.0839   37.8122   62.5396 H   0  0  0  0  0  0  0  0  0  0  0  0
  1  2  1  0
  2  3  1  0
  3  4  1  0
  4  5  1  0
  5  6  1  0
  3  7  1  0
  7  8  1  0
  8  9  1  0
  9 10  1  0
  9 11  1  0
  5 12  1  0
  8 12  1  0
 12 13  1  0
  2 14  1  0
 14 15  1  0
 15 16  1  0
 16 17  1  0
 17 18  1  0
 17 19  1  0
 14 20  1  0
 19 20  1  0
  4 21  1  0
  6 22  1  0
  7 23  1  0
 24 13  1  0
 15 25  1  0
 16 26  1  0
 18 27  1  0
 18 28  1  0
 18 29  1  0
 19 30  1  0
 20 31  1  0
  1 32  1  0
  2 33  1  1
  3 34  1  1
  4 35  1  0
  5 36  1  0
  7 37  1  0
  8 38  1  0
 10 39  1  0
 11 40  1  0
 12 41  1  0
 14 42  1  0
 15 43  1  0
 16 44  1  0
 17 45  1  0
 19 46  1  0
 20 47  1  0
M  END
>  <PDBID>  (1) 
3S68

>  <PDB ID>  (1) 
3S68

>  <Generic Name>  (1) 
Tolcapone

>  <Brand Name>  (1) 
Tasmar#Tolcapone#Sen De Ning

>  <DrugBank ID>  (1) 
DB00323

>  <ATC Codes>  (1) 
N04BX01

>  <Ligand ID>  (1) 
TCW

>  <Target Name>  (1) 
Catechol O-methyltransferase

>  <UniProt ID>  (1) 
P21964

>  <PDB ID.1>  (1) 
3S68

>  <Seq. Identity>  (1) 
81%

$$$$
