PDB_DB00299_98
     RDKit          3D

 33 34  0  0  0  0  0  0  0  0999 V2000
   23.5730   95.2450   44.6590 C   0  0  0  0  0  0  0  0  0  0  0  0
   22.2070   96.8390   44.4260 C   0  0  0  0  0  0  0  0  0  0  0  0
   23.1810   97.8190   44.4520 C   0  0  0  0  0  0  0  0  0  0  0  0
   16.7320   96.4120   44.6480 C   0  0  0  0  0  0  0  0  0  0  0  0
   16.6430   95.5310   45.7600 O   0  0  0  0  0  0  0  0  0  0  0  0
   17.6540   98.5360   43.9530 C   0  0  0  0  0  0  0  0  0  0  0  0
   18.6100   99.5320   44.2130 O   0  0  0  0  0  0  0  0  0  0  0  0
   17.5470   97.6070   45.1220 C   0  0  0  0  0  0  0  0  0  0  0  0
   18.9590   97.1830   45.4080 C   0  0  0  0  0  0  0  0  0  0  0  0
   19.6770   96.8060   44.1440 C   0  0  0  0  0  0  0  0  0  0  0  0
   20.9920   97.4560   44.2730 N   0  0  0  0  0  0  0  0  0  0  0  0
   22.3140   95.5410   44.5270 N   0  0  0  0  0  0  0  0  0  0  0  0
   23.8080   93.9400   44.7750 N   0  0  0  0  0  0  0  0  0  0  0  0
   24.6270   96.1300   44.7230 N   0  0  0  0  0  0  0  0  0  0  0  0
   24.5750   97.4900   44.6340 C   0  0  0  0  0  0  0  0  0  0  0  0
   25.6150   98.2070   44.7220 O   0  0  0  0  0  0  0  0  0  0  0  0
   22.5710   99.0850   44.3310 N   0  0  0  0  0  0  0  0  0  0  0  0
   21.3140   98.7820   44.2300 C   0  0  0  0  0  0  0  0  0  0  0  0
   17.2367   95.9151   43.8064 H   0  0  0  0  0  0  0  0  0  0  0  0
   15.7357   96.7184   44.2966 H   0  0  0  0  0  0  0  0  0  0  0  0
   16.6957   96.0529   46.5996 H   0  0  0  0  0  0  0  0  0  0  0  0
   16.6769   99.0079   43.7729 H   0  0  0  0  0  0  0  0  0  0  0  0
   17.9629   97.9637   43.0658 H   0  0  0  0  0  0  0  0  0  0  0  0
   18.7149   99.6413   45.1913 H   0  0  0  0  0  0  0  0  0  0  0  0
   17.0765   98.0484   46.0129 H   0  0  0  0  0  0  0  0  0  0  0  0
   19.4932   98.0150   45.8901 H   0  0  0  0  0  0  0  0  0  0  0  0
   18.9328   96.3049   46.0700 H   0  0  0  0  0  0  0  0  0  0  0  0
   19.7865   95.7141   44.0675 H   0  0  0  0  0  0  0  0  0  0  0  0
   19.1359   97.1217   43.2398 H   0  0  0  0  0  0  0  0  0  0  0  0
   21.5348   94.8678   44.5057 H   0  0  0  0  0  0  0  0  0  0  0  0
   24.7735   93.5983   44.8846 H   0  0  0  0  0  0  0  0  0  0  0  0
   23.0244   93.2718   44.7552 H   0  0  0  0  0  0  0  0  0  0  0  0
   20.5427   99.5578   44.1150 H   0  0  0  0  0  0  0  0  0  0  0  0
  2  3  2  0
  4  5  1  0
  6  7  1  0
  4  8  1  0
  6  8  1  0
  8  9  1  0
  9 10  1  0
  2 11  1  0
 10 11  1  0
  1 12  1  0
  2 12  1  0
  1 13  1  0
  1 14  2  0
  3 15  1  0
 14 15  1  0
 15 16  2  0
  3 17  1  0
 11 18  1  0
 17 18  2  0
  4 19  1  0
  4 20  1  0
  5 21  1  0
  6 22  1  0
  6 23  1  0
  7 24  1  0
  8 25  1  0
  9 26  1  0
  9 27  1  0
 10 28  1  0
 10 29  1  0
 12 30  1  0
 13 31  1  0
 13 32  1  0
 18 33  1  0
M  END
$$$$
