PDB_DB00482_99
     RDKit          3D

116120  0  0  0  0  0  0  0  0999 V2000
  138.9160  146.1130   75.3160 S   0  0  1  0  0  4  0  0  0  0  0  0
  139.1430  146.0740   73.5570 C   0  0  0  0  0  0  0  0  0  0  0  0
  138.1820  145.4720   72.7660 C   0  0  0  0  0  0  0  0  0  0  0  0
  138.3510  145.4340   71.3920 C   0  0  0  0  0  0  0  0  0  0  0  0
  139.4720  145.9910   70.7940 C   0  0  0  0  0  0  0  0  0  0  0  0
  140.4420  146.5870   71.5880 C   0  0  0  0  0  0  0  0  0  0  0  0
  140.2700  146.6320   72.9660 C   0  0  0  0  0  0  0  0  0  0  0  0
  139.5530  145.9020   69.4530 N   0  0  0  0  0  0  0  0  0  0  0  0
  140.1190  146.7350   68.5380 C   0  0  0  0  0  0  0  0  0  0  0  0
  140.8080  147.9260   68.7390 C   0  0  0  0  0  0  0  0  0  0  0  0
  140.2570  148.9410   69.5060 C   0  0  0  0  0  0  0  0  0  0  0  0
  140.9540  150.1250   69.6930 C   0  0  0  0  0  0  0  0  0  0  0  0
  142.1960  150.3010   69.1030 C   0  0  0  0  0  0  0  0  0  0  0  0
  142.9530  151.5950   69.3050 C   0  0  0  0  0  0  0  0  0  0  0  0
  142.7440  149.2920   68.3280 C   0  0  0  0  0  0  0  0  0  0  0  0
  142.0490  148.1080   68.1440 C   0  0  0  0  0  0  0  0  0  0  0  0
  139.9040  146.1890   67.3030 C   0  0  0  0  0  0  0  0  0  0  0  0
  139.1960  145.0330   67.4490 C   0  0  0  0  0  0  0  0  0  0  0  0
  138.7450  144.1050   66.3400 C   0  0  1  0  0  0  0  0  0  0  0  0
  138.5750  142.8640   66.8100 F   0  0  0  0  0  0  0  0  0  0  0  0
  137.5800  144.5520   65.8560 F   0  0  0  0  0  0  0  0  0  0  0  0
  139.6590  144.0870   65.3610 F   0  0  0  0  0  0  0  0  0  0  0  0
  138.9860  144.8590   68.7650 N   0  0  0  0  0  0  0  0  0  0  0  0
  139.0590  144.5980   75.9280 N   0  0  0  0  0  0  0  0  0  0  0  0
  139.8560  147.0000   75.9370 O   0  0  0  0  0  0  0  0  0  0  0  0
  137.6650  146.7170   75.6880 O   0  0  0  0  0  0  0  0  0  0  0  0
  133.0080  154.8400   17.9650 S   0  0  1  0  0  4  0  0  0  0  0  0
  132.9320  155.0200   19.7300 C   0  0  0  0  0  0  0  0  0  0  0  0
  132.3150  154.0440   20.4910 C   0  0  0  0  0  0  0  0  0  0  0  0
  132.2540  154.1790   21.8670 C   0  0  0  0  0  0  0  0  0  0  0  0
  132.8090  155.2810   22.5000 C   0  0  0  0  0  0  0  0  0  0  0  0
  133.4200  156.2680   21.7360 C   0  0  0  0  0  0  0  0  0  0  0  0
  133.4850  156.1290   20.3550 C   0  0  0  0  0  0  0  0  0  0  0  0
  132.7010  155.3540   23.8400 N   0  0  0  0  0  0  0  0  0  0  0  0
  133.6020  155.7700   24.7680 C   0  0  0  0  0  0  0  0  0  0  0  0
  134.8920  156.2480   24.5630 C   0  0  0  0  0  0  0  0  0  0  0  0
  135.8140  155.5140   23.8360 C   0  0  0  0  0  0  0  0  0  0  0  0
  137.0950  156.0050   23.6420 C   0  0  0  0  0  0  0  0  0  0  0  0
  137.4600  157.2270   24.1810 C   0  0  0  0  0  0  0  0  0  0  0  0
  138.8570  157.7620   23.9730 C   0  0  0  0  0  0  0  0  0  0  0  0
  136.5410  157.9600   24.9120 C   0  0  0  0  0  0  0  0  0  0  0  0
  135.2600  157.4700   25.1030 C   0  0  0  0  0  0  0  0  0  0  0  0
  133.0130  155.6450   25.9980 C   0  0  0  0  0  0  0  0  0  0  0  0
  131.7490  155.1550   25.8330 C   0  0  0  0  0  0  0  0  0  0  0  0
  130.7320  154.8570   26.9220 C   0  0  1  0  0  0  0  0  0  0  0  0
  130.5430  153.5360   27.0340 F   0  0  0  0  0  0  0  0  0  0  0  0
  131.1670  155.3340   28.0960 F   0  0  0  0  0  0  0  0  0  0  0  0
  129.5650  155.4360   26.6140 F   0  0  0  0  0  0  0  0  0  0  0  0
  131.5680  154.9770   24.5120 N   0  0  0  0  0  0  0  0  0  0  0  0
  131.5770  155.2600   17.2800 N   0  0  0  0  0  0  0  0  0  0  0  0
  134.0830  155.6150   17.4150 O   0  0  0  0  0  0  0  0  0  0  0  0
  133.3920  153.5090   17.5840 O   0  0  0  0  0  0  0  0  0  0  0  0
  139.6712  145.1133   73.6465 H   0  0  0  0  0  0  0  0  0  0  0  0
  138.0960  144.4294   73.1060 H   0  0  0  0  0  0  0  0  0  0  0  0
  137.3002  146.1162   72.8984 H   0  0  0  0  0  0  0  0  0  0  0  0
  138.3384  144.3723   71.1047 H   0  0  0  0  0  0  0  0  0  0  0  0
  137.5378  146.0805   71.0305 H   0  0  0  0  0  0  0  0  0  0  0  0
  138.9484  146.9548   70.7102 H   0  0  0  0  0  0  0  0  0  0  0  0
  141.3827  146.0483   71.4012 H   0  0  0  0  0  0  0  0  0  0  0  0
  140.4032  147.6451   71.2898 H   0  0  0  0  0  0  0  0  0  0  0  0
  140.2806  147.6947   73.2498 H   0  0  0  0  0  0  0  0  0  0  0  0
  141.0845  145.9924   73.3367 H   0  0  0  0  0  0  0  0  0  0  0  0
  139.1746  147.2940   68.4628 H   0  0  0  0  0  0  0  0  0  0  0  0
  140.3373  148.3500   67.8397 H   0  0  0  0  0  0  0  0  0  0  0  0
  139.2979  149.2076   69.0381 H   0  0  0  0  0  0  0  0  0  0  0  0
  140.2233  148.5053   70.5155 H   0  0  0  0  0  0  0  0  0  0  0  0
  140.3089  150.9348   69.3215 H   0  0  0  0  0  0  0  0  0  0  0  0
  141.1853  150.1139   70.7683 H   0  0  0  0  0  0  0  0  0  0  0  0
  141.7120  150.7235   68.2101 H   0  0  0  0  0  0  0  0  0  0  0  0
  143.0666  151.7891   70.3818 H   0  0  0  0  0  0  0  0  0  0  0  0
  143.9467  151.5149   68.8401 H   0  0  0  0  0  0  0  0  0  0  0  0
  142.3962  152.4219   68.8401 H   0  0  0  0  0  0  0  0  0  0  0  0
  142.9178  149.7174   67.3286 H   0  0  0  0  0  0  0  0  0  0  0  0
  143.6278  148.9808   68.9042 H   0  0  0  0  0  0  0  0  0  0  0  0
  142.6980  147.2997   68.5121 H   0  0  0  0  0  0  0  0  0  0  0  0
  141.8119  148.1214   67.0699 H   0  0  0  0  0  0  0  0  0  0  0  0
  139.3342  146.8951   66.6811 H   0  0  0  0  0  0  0  0  0  0  0  0
  140.8673  145.9774   66.8160 H   0  0  0  0  0  0  0  0  0  0  0  0
  138.2561  145.5973   67.3590 H   0  0  0  0  0  0  0  0  0  0  0  0
  139.4143  143.9727   69.0682 H   0  0  0  0  0  0  0  0  0  0  0  0
  139.0549  144.6416   76.9571 H   0  0  0  0  0  0  0  0  0  0  0  0
  138.2687  144.0215   75.6056 H   0  0  0  0  0  0  0  0  0  0  0  0
  139.7783  146.9267   76.9212 H   0  0  0  0  0  0  0  0  0  0  0  0
  137.5954  146.7506   76.6750 H   0  0  0  0  0  0  0  0  0  0  0  0
  131.9736  155.5514   19.6345 H   0  0  0  0  0  0  0  0  0  0  0  0
  131.2778  153.9692   20.1323 H   0  0  0  0  0  0  0  0  0  0  0  0
  132.9614  153.1652   20.3501 H   0  0  0  0  0  0  0  0  0  0  0  0
  131.1874  154.1677   22.1358 H   0  0  0  0  0  0  0  0  0  0  0  0
  132.8868  153.3516   22.2205 H   0  0  0  0  0  0  0  0  0  0  0  0
  133.7690  154.7503   22.5822 H   0  0  0  0  0  0  0  0  0  0  0  0
  132.8815  157.2059   21.9371 H   0  0  0  0  0  0  0  0  0  0  0  0
  134.4736  156.2174   22.0480 H   0  0  0  0  0  0  0  0  0  0  0  0
  134.5518  156.1418   20.0873 H   0  0  0  0  0  0  0  0  0  0  0  0
  132.8545  156.9551   19.9943 H   0  0  0  0  0  0  0  0  0  0  0  0
  133.9942  154.7453   24.8466 H   0  0  0  0  0  0  0  0  0  0  0  0
  135.2233  155.7498   25.4861 H   0  0  0  0  0  0  0  0  0  0  0  0
  135.9197  154.5445   24.3448 H   0  0  0  0  0  0  0  0  0  0  0  0
  135.3893  155.5103   22.8213 H   0  0  0  0  0  0  0  0  0  0  0  0
  137.7872  155.2568   24.0556 H   0  0  0  0  0  0  0  0  0  0  0  0
  137.1329  156.1870   22.5578 H   0  0  0  0  0  0  0  0  0  0  0  0
  137.7902  156.7226   25.1011 H   0  0  0  0  0  0  0  0  0  0  0  0
  139.3295  157.9430   24.9497 H   0  0  0  0  0  0  0  0  0  0  0  0
  139.4507  157.0276   23.4089 H   0  0  0  0  0  0  0  0  0  0  0  0
  138.8083  158.7051   23.4089 H   0  0  0  0  0  0  0  0  0  0  0  0
  136.9763  158.1092   25.9111 H   0  0  0  0  0  0  0  0  0  0  0  0
  136.3801  158.8544   24.2922 H   0  0  0  0  0  0  0  0  0  0  0  0
  134.5696  158.2196   24.6889 H   0  0  0  0  0  0  0  0  0  0  0  0
  135.2218  157.2860   26.1868 H   0  0  0  0  0  0  0  0  0  0  0  0
  133.5995  154.9529   26.6201 H   0  0  0  0  0  0  0  0  0  0  0  0
  132.9717  156.6260   26.4940 H   0  0  0  0  0  0  0  0  0  0  0  0
  132.1363  154.1286   25.9139 H   0  0  0  0  0  0  0  0  0  0  0  0
  130.7736  155.5504   24.1941 H   0  0  0  0  0  0  0  0  0  0  0  0
  130.8887  155.4620   18.0192 H   0  0  0  0  0  0  0  0  0  0  0  0
  131.7089  156.0977   16.6955 H   0  0  0  0  0  0  0  0  0  0  0  0
  134.6205  156.0025   18.1506 H   0  0  0  0  0  0  0  0  0  0  0  0
  133.5488  152.9655   18.3965 H   0  0  0  0  0  0  0  0  0  0  0  0
  1  2  1  0
  2  3  1  0
  3  4  1  0
  4  5  1  0
  5  6  1  0
  2  7  1  0
  6  7  1  0
  5  8  1  0
  8  9  1  0
  9 10  1  0
 10 11  1  0
 11 12  1  0
 12 13  1  0
 13 14  1  0
 13 15  1  0
 10 16  1  0
 15 16  1  0
  9 17  1  0
 17 18  1  0
 18 19  1  0
 19 20  1  1
 19 21  1  0
 19 22  1  0
  8 23  1  0
 18 23  1  0
  1 24  1  0
  1 25  1  1
  1 26  1  0
 27 28  1  0
 28 29  1  0
 29 30  1  0
 30 31  1  0
 31 32  1  0
 28 33  1  0
 32 33  1  0
 31 34  1  0
 34 35  1  0
 35 36  1  0
 36 37  1  0
 37 38  1  0
 38 39  1  0
 39 40  1  0
 39 41  1  0
 36 42  1  0
 41 42  1  0
 35 43  1  0
 43 44  1  0
 44 45  1  0
 45 46  1  1
 45 47  1  0
 45 48  1  0
 34 49  1  0
 44 49  1  0
 27 50  1  0
 27 51  1  6
 27 52  1  0
  2 53  1  0
  3 54  1  0
  3 55  1  0
  4 56  1  0
  4 57  1  0
  5 58  1  0
  6 59  1  0
  6 60  1  0
  7 61  1  0
  7 62  1  0
  9 63  1  0
 10 64  1  0
 11 65  1  0
 11 66  1  0
 12 67  1  0
 12 68  1  0
 13 69  1  0
 14 70  1  0
 14 71  1  0
 14 72  1  0
 15 73  1  0
 15 74  1  0
 16 75  1  0
 16 76  1  0
 17 77  1  0
 17 78  1  0
 18 79  1  0
 23 80  1  0
 24 81  1  0
 24 82  1  0
 25 83  1  0
 26 84  1  0
 28 85  1  0
 29 86  1  0
 29 87  1  0
 30 88  1  0
 30 89  1  0
 31 90  1  0
 32 91  1  0
 32 92  1  0
 33 93  1  0
 33 94  1  0
 35 95  1  0
 36 96  1  0
 37 97  1  0
 37 98  1  0
 38 99  1  0
 38100  1  0
 39101  1  0
 40102  1  0
 40103  1  0
 40104  1  0
 41105  1  0
 41106  1  0
 42107  1  0
 42108  1  0
 43109  1  0
 43110  1  0
 44111  1  0
 49112  1  0
 50113  1  0
 50114  1  0
 51115  1  0
 52116  1  0
M  END
>  <PDBID>  (1) 
5JW1

>  <PDB ID>  (1) 
5JW1

>  <Generic Name>  (1) 
Celecoxib

>  <Brand Name>  (1) 
Accel-celecoxib#Act Celecoxib#Ag-celecoxib#Apo-celecoxib#Auro-celecoxib#Bio-celecoxib#Celebrex#Celecoxib#Celecoxib 100 mg#Celecoxib 200 mg#Celecoxib 400 mg#Celecoxib 50 mg#Dom-celecoxib#Gd-celecoxib#Ipg-celecoxib#Jamp-celecoxib#Lupin-celecoxib#Mar-celecoxib#Mint-celecoxib#Mylan-celecoxib#PMS-celecoxib#Priva-celecoxib#Ran-celecoxib#Rbx-celecoxib#Riva-celecox#Riva-celecoxib#Sandoz Celecoxib#Sdz Celecoxib#Teva-celecoxib#Articox#Articoxib#Artiflex#Artilog#Artix#Artrixib#Blockten#Caditar#Cefinix#Celact#Celebra#Onsenal#Valdyne

>  <DrugBank ID>  (1) 
DB00482

>  <ATC Codes>  (1) 
L01XX33#M01AH01

>  <Ligand ID>  (1) 
CEL

>  <Target Name>  (1) 
Prostaglandin G/H synthase 2

>  <UniProt ID>  (1) 
P35354

>  <PDB ID.1>  (1) 
5JW1

>  <Seq. Identity>  (1) 
85%

$$$$
