PDB_DB00787_99
     RDKit          3D

 27 28  0  0  0  0  0  0  0  0999 V2000
   50.9250   84.4330   55.5060 C   0  0  0  0  0  0  0  0  0  0  0  0
   50.5350   85.3260   56.5600 O   0  0  0  0  0  0  0  0  0  0  0  0
   49.9540   84.4700   54.3080 C   0  0  0  0  0  0  0  0  0  0  0  0
   48.6080   84.0160   54.5150 O   0  0  0  0  0  0  0  0  0  0  0  0
   48.3260   83.9580   55.8490 C   0  0  0  0  0  0  0  0  0  0  0  0
   47.1480   84.7490   56.1390 N   0  0  0  0  0  0  0  0  0  0  0  0
   47.0480   85.5420   57.2270 C   0  0  0  0  0  0  0  0  0  0  0  0
   45.9510   86.1650   57.3840 N   0  0  0  0  0  0  0  0  0  0  0  0
   45.2100   85.7320   56.2860 C   0  0  0  0  0  0  0  0  0  0  0  0
   43.8700   86.0780   56.0060 C   0  0  0  0  0  0  0  0  0  0  0  0
   43.1530   86.8500   56.6570 O   0  0  0  0  0  0  0  0  0  0  0  0
   43.4700   85.4280   54.8480 N   0  0  0  0  0  0  0  0  0  0  0  0
   44.2880   84.5730   54.0840 C   0  0  0  0  0  0  0  0  0  0  0  0
   43.7140   84.0500   53.0010 N   0  0  0  0  0  0  0  0  0  0  0  0
   45.5700   84.2570   54.3280 N   0  0  0  0  0  0  0  0  0  0  0  0
   45.9370   84.8800   55.4740 C   0  0  0  0  0  0  0  0  0  0  0  0
   51.9279   84.7182   55.1556 H   0  0  0  0  0  0  0  0  0  0  0  0
   50.9130   83.4113   55.9133 H   0  0  0  0  0  0  0  0  0  0  0  0
   50.7196   84.9032   57.4359 H   0  0  0  0  0  0  0  0  0  0  0  0
   49.8977   85.5137   53.9652 H   0  0  0  0  0  0  0  0  0  0  0  0
   50.3776   83.7525   53.5898 H   0  0  0  0  0  0  0  0  0  0  0  0
   48.1434   82.9125   56.1380 H   0  0  0  0  0  0  0  0  0  0  0  0
   49.1791   84.3574   56.4170 H   0  0  0  0  0  0  0  0  0  0  0  0
   47.8763   85.6442   57.9436 H   0  0  0  0  0  0  0  0  0  0  0  0
   44.2481   83.4147   52.3910 H   0  0  0  0  0  0  0  0  0  0  0  0
   42.7363   84.2811   52.7739 H   0  0  0  0  0  0  0  0  0  0  0  0
   46.1671   83.6501   53.7483 H   0  0  0  0  0  0  0  0  0  0  0  0
  1  2  1  0
  1  3  1  0
  3  4  1  0
  4  5  1  0
  5  6  1  0
  6  7  1  0
  7  8  2  0
  8  9  1  0
  9 10  1  0
 10 11  2  0
 10 12  1  0
 12 13  2  0
 13 14  1  0
 13 15  1  0
  6 16  1  0
  9 16  2  0
 15 16  1  0
  1 17  1  0
  1 18  1  0
  2 19  1  0
  3 20  1  0
  3 21  1  0
  5 22  1  0
  5 23  1  0
  7 24  1  0
 14 25  1  0
 14 26  1  0
 15 27  1  0
M  END
$$$$
