PDB_DB01229_90
     RDKit          3D

113119  0  0  0  0  0  0  0  0999 V2000
   18.8280  -29.4570   64.3900 O   0  0  0  0  0  0  0  0  0  0  0  0
   19.1410  -29.3000   65.7860 C   0  0  1  0  0  0  0  0  0  0  0  0
   20.4540  -28.3350   65.8490 C   0  0  1  0  0  0  0  0  0  0  0  0
   19.9600  -27.1060   65.1870 O   0  0  0  0  0  0  0  0  0  0  0  0
   20.4390  -26.8010   63.8930 C   0  0  0  0  0  0  0  0  0  0  0  0
   21.2560  -27.4700   63.3060 O   0  0  0  0  0  0  0  0  0  0  0  0
   19.8690  -25.5920   63.3590 C   0  0  0  0  0  0  0  0  0  0  0  0
   19.7270  -24.3460   63.9850 C   0  0  0  0  0  0  0  0  0  0  0  0
   19.1310  -23.2900   63.2460 C   0  0  0  0  0  0  0  0  0  0  0  0
   18.7080  -23.3310   62.0670 C   0  0  0  0  0  0  0  0  0  0  0  0
   18.8100  -24.5590   61.3550 C   0  0  0  0  0  0  0  0  0  0  0  0
   19.4110  -25.7770   61.9820 C   0  0  0  0  0  0  0  0  0  0  0  0
   21.0450  -27.9080   67.2980 C   0  0  2  0  0  0  0  0  0  0  0  0
   21.4180  -26.3460   67.4320 C   0  0  2  0  0  0  0  0  0  0  0  0
   20.2250  -25.4690   67.2930 O   0  0  0  0  0  0  0  0  0  0  0  0
   19.2220  -25.4400   68.2340 C   0  0  0  0  0  0  0  0  0  0  0  0
   19.1910  -26.0940   69.2340 O   0  0  0  0  0  0  0  0  0  0  0  0
   18.1680  -24.4410   67.8080 C   0  0  0  0  0  0  0  0  0  0  0  0
   22.4070  -25.6990   66.4290 C   0  0  0  0  0  0  0  0  0  0  0  0
   23.3080  -25.2700   67.4760 O   0  0  0  0  0  0  0  0  0  0  0  0
   22.4460  -25.8390   68.4840 C   0  0  2  0  0  0  0  0  0  0  0  0
   23.1890  -26.8960   69.3670 C   0  0  0  0  0  0  0  0  0  0  0  0
   22.5660  -28.2850   69.3290 C   0  0  2  0  0  0  0  0  0  0  0  0
   23.3580  -29.1880   70.1420 O   0  0  0  0  0  0  0  0  0  0  0  0
   22.3420  -28.8390   67.8400 C   0  0  2  0  0  0  0  0  0  0  0  0
   23.6520  -28.6420   67.0190 C   0  0  0  0  0  0  0  0  0  0  0  0
   22.1690  -30.4520   67.8740 C   0  0  0  0  0  0  0  0  0  0  0  0
   23.0180  -31.1460   67.3380 O   0  0  0  0  0  0  0  0  0  0  0  0
   20.9670  -31.1330   68.5410 C   0  0  2  0  0  0  0  0  0  0  0  0
   21.1230  -32.6050   68.3610 O   0  0  0  0  0  0  0  0  0  0  0  0
   21.3670  -33.4130   69.4540 C   0  0  0  0  0  0  0  0  0  0  0  0
   21.4690  -33.0380   70.5800 O   0  0  0  0  0  0  0  0  0  0  0  0
   21.4940  -34.8500   69.0250 C   0  0  0  0  0  0  0  0  0  0  0  0
   19.6590  -30.6250   67.9290 C   0  0  0  0  0  0  0  0  0  0  0  0
   18.7620  -29.9140   68.7220 C   0  0  0  0  0  0  0  0  0  0  0  0
   17.5350  -29.2930   67.9870 C   0  0  1  0  0  0  0  0  0  0  0  0
   16.8270  -28.2630   68.7620 O   0  0  0  0  0  0  0  0  0  0  0  0
   15.7860  -28.6440   69.4910 C   0  0  0  0  0  0  0  0  0  0  0  0
   15.3460  -29.7470   69.6070 O   0  0  0  0  0  0  0  0  0  0  0  0
   15.1560  -27.4210   70.2040 C   0  0  2  0  0  0  0  0  0  0  0  0
   14.0280  -27.8720   70.9310 O   0  0  0  0  0  0  0  0  0  0  0  0
   14.7970  -26.3630   69.1310 C   0  0  1  0  0  0  0  0  0  0  0  0
   13.9940  -27.0400   68.1180 N   0  0  0  0  0  0  0  0  0  0  0  0
   13.9340  -26.6330   66.8290 C   0  0  0  0  0  0  0  0  0  0  0  0
   14.5360  -25.6510   66.4070 O   0  0  0  0  0  0  0  0  0  0  0  0
   13.0970  -27.5010   65.9570 C   0  0  0  0  0  0  0  0  0  0  0  0
   11.7350  -27.7220   66.1590 C   0  0  0  0  0  0  0  0  0  0  0  0
   10.9940  -28.5710   65.2950 C   0  0  0  0  0  0  0  0  0  0  0  0
   11.6510  -29.2120   64.2080 C   0  0  0  0  0  0  0  0  0  0  0  0
   13.0030  -28.9990   64.0000 C   0  0  0  0  0  0  0  0  0  0  0  0
   13.7420  -28.1650   64.8450 C   0  0  0  0  0  0  0  0  0  0  0  0
   14.1150  -25.1300   69.7600 C   0  0  0  0  0  0  0  0  0  0  0  0
   14.9310  -24.0500   70.1420 C   0  0  0  0  0  0  0  0  0  0  0  0
   14.3660  -22.8890   70.7330 C   0  0  0  0  0  0  0  0  0  0  0  0
   12.9770  -22.8160   70.9360 C   0  0  0  0  0  0  0  0  0  0  0  0
   12.1700  -23.8760   70.5610 C   0  0  0  0  0  0  0  0  0  0  0  0
   12.7290  -25.0450   69.9680 C   0  0  0  0  0  0  0  0  0  0  0  0
   17.9640  -28.6100   66.6300 C   0  0  0  0  0  0  0  0  0  0  0  0
   18.9180  -29.6090   70.2070 C   0  0  0  0  0  0  0  0  0  0  0  0
   19.3700  -30.8380   66.3640 C   0  0  0  0  0  0  0  0  0  0  0  0
   18.0770  -31.7620   66.2000 C   0  0  0  0  0  0  0  0  0  0  0  0
   20.4230  -31.5790   65.5080 C   0  0  0  0  0  0  0  0  0  0  0  0
   17.9470  -29.8989   64.2970 H   0  0  0  0  0  0  0  0  0  0  0  0
   21.2986  -28.8819   65.4045 H   0  0  0  0  0  0  0  0  0  0  0  0
   20.0676  -24.1906   65.0193 H   0  0  0  0  0  0  0  0  0  0  0  0
   19.0290  -22.3268   63.7675 H   0  0  0  0  0  0  0  0  0  0  0  0
   18.2689  -22.4401   61.5943 H   0  0  0  0  0  0  0  0  0  0  0  0
   18.4388  -24.6137   60.3210 H   0  0  0  0  0  0  0  0  0  0  0  0
   19.5014  -26.7355   61.4499 H   0  0  0  0  0  0  0  0  0  0  0  0
   20.1882  -28.1152   67.9560 H   0  0  0  0  0  0  0  0  0  0  0  0
   17.7008  -23.9981   68.6999 H   0  0  0  0  0  0  0  0  0  0  0  0
   18.6364  -23.6475   67.2072 H   0  0  0  0  0  0  0  0  0  0  0  0
   17.4007  -24.9512   67.2072 H   0  0  0  0  0  0  0  0  0  0  0  0
   22.8583  -26.4212   65.7328 H   0  0  0  0  0  0  0  0  0  0  0  0
   22.0265  -24.9505   65.7184 H   0  0  0  0  0  0  0  0  0  0  0  0
   22.0320  -25.2280   69.2997 H   0  0  0  0  0  0  0  0  0  0  0  0
   24.2276  -26.9733   69.0130 H   0  0  0  0  0  0  0  0  0  0  0  0
   23.1201  -26.5454   70.4074 H   0  0  0  0  0  0  0  0  0  0  0  0
   21.5538  -28.2158   69.7541 H   0  0  0  0  0  0  0  0  0  0  0  0
   23.1932  -29.0001   71.0999 H   0  0  0  0  0  0  0  0  0  0  0  0
   24.5004  -28.5144   67.7074 H   0  0  0  0  0  0  0  0  0  0  0  0
   23.8236  -29.5244   66.3851 H   0  0  0  0  0  0  0  0  0  0  0  0
   23.5565  -27.7481   66.3851 H   0  0  0  0  0  0  0  0  0  0  0  0
   20.9291  -30.8955   69.6144 H   0  0  0  0  0  0  0  0  0  0  0  0
   21.5510  -35.4946   69.9146 H   0  0  0  0  0  0  0  0  0  0  0  0
   20.6173  -35.1319   68.4235 H   0  0  0  0  0  0  0  0  0  0  0  0
   22.4066  -34.9738   68.4235 H   0  0  0  0  0  0  0  0  0  0  0  0
   16.8628  -30.1486   67.8255 H   0  0  0  0  0  0  0  0  0  0  0  0
   15.8485  -26.9480   70.9158 H   0  0  0  0  0  0  0  0  0  0  0  0
   14.2101  -27.7992   71.9014 H   0  0  0  0  0  0  0  0  0  0  0  0
   15.6968  -25.9514   68.6505 H   0  0  0  0  0  0  0  0  0  0  0  0
   13.4470  -27.8668   68.3974 H   0  0  0  0  0  0  0  0  0  0  0  0
   11.2263  -27.2306   67.0015 H   0  0  0  0  0  0  0  0  0  0  0  0
    9.9192  -28.7320   65.4650 H   0  0  0  0  0  0  0  0  0  0  0  0
   11.0867  -29.8745   63.5352 H   0  0  0  0  0  0  0  0  0  0  0  0
   13.5046  -29.4943   63.1556 H   0  0  0  0  0  0  0  0  0  0  0  0
   14.8163  -28.0134   64.6638 H   0  0  0  0  0  0  0  0  0  0  0  0
   16.0178  -24.1053   69.9813 H   0  0  0  0  0  0  0  0  0  0  0  0
   15.0125  -22.0503   71.0307 H   0  0  0  0  0  0  0  0  0  0  0  0
   12.5326  -21.9188   71.3917 H   0  0  0  0  0  0  0  0  0  0  0  0
   11.0836  -23.8154   70.7227 H   0  0  0  0  0  0  0  0  0  0  0  0
   12.0756  -25.8796   69.6736 H   0  0  0  0  0  0  0  0  0  0  0  0
   18.2865  -27.5851   66.8659 H   0  0  0  0  0  0  0  0  0  0  0  0
   17.0762  -28.6911   65.9857 H   0  0  0  0  0  0  0  0  0  0  0  0
   18.4954  -30.4353   70.7974 H   0  0  0  0  0  0  0  0  0  0  0  0
   19.9852  -29.4948   70.4477 H   0  0  0  0  0  0  0  0  0  0  0  0
   18.3860  -28.6768   70.4477 H   0  0  0  0  0  0  0  0  0  0  0  0
   17.6936  -32.0360   67.1940 H   0  0  0  0  0  0  0  0  0  0  0  0
   17.3014  -31.2124   65.6466 H   0  0  0  0  0  0  0  0  0  0  0  0
   18.3458  -32.6738   65.6466 H   0  0  0  0  0  0  0  0  0  0  0  0
   21.1423  -32.0852   66.1687 H   0  0  0  0  0  0  0  0  0  0  0  0
   19.9211  -32.3240   64.8732 H   0  0  0  0  0  0  0  0  0  0  0  0
   20.9548  -30.8550   64.8732 H   0  0  0  0  0  0  0  0  0  0  0  0
  2  1  1  6
  2  3  1  0
  3  4  1  0
  4  5  1  0
  5  6  2  0
  5  7  1  0
  7  8  2  0
  8  9  1  0
  9 10  2  0
 10 11  1  0
  7 12  1  0
 11 12  2  0
  3 13  1  0
 13 14  1  0
 14 15  1  1
 15 16  1  0
 16 17  2  0
 16 18  1  0
 14 19  1  0
 19 20  1  0
 14 21  1  0
 20 21  1  0
 21 22  1  0
 22 23  1  0
 23 24  1  0
 13 25  1  0
 23 25  1  0
 25 26  1  6
 25 27  1  0
 27 28  2  0
 27 29  1  0
 29 30  1  0
 30 31  1  0
 31 32  2  0
 31 33  1  0
 29 34  1  0
 34 35  2  0
 35 36  1  0
 36 37  1  0
 37 38  1  0
 38 39  2  0
 38 40  1  0
 40 41  1  0
 40 42  1  0
 42 43  1  0
 43 44  1  0
 44 45  2  0
 44 46  1  0
 46 47  2  0
 47 48  1  0
 48 49  2  0
 49 50  1  0
 46 51  1  0
 50 51  2  0
 42 52  1  0
 52 53  2  0
 53 54  1  0
 54 55  2  0
 55 56  1  0
 52 57  1  0
 56 57  2  0
  2 58  1  0
 36 58  1  0
 35 59  1  0
  2 60  1  0
 34 60  1  0
 60 61  1  0
 60 62  1  0
  1 63  1  0
  3 64  1  6
  8 65  1  0
  9 66  1  0
 10 67  1  0
 11 68  1  0
 12 69  1  0
 13 70  1  1
 18 71  1  0
 18 72  1  0
 18 73  1  0
 19 74  1  0
 19 75  1  0
 21 76  1  1
 22 77  1  0
 22 78  1  0
 23 79  1  1
 24 80  1  0
 26 81  1  0
 26 82  1  0
 26 83  1  0
 29 84  1  1
 33 85  1  0
 33 86  1  0
 33 87  1  0
 36 88  1  6
 40 89  1  1
 41 90  1  0
 42 91  1  6
 43 92  1  0
 47 93  1  0
 48 94  1  0
 49 95  1  0
 50 96  1  0
 51 97  1  0
 53 98  1  0
 54 99  1  0
 55100  1  0
 56101  1  0
 57102  1  0
 58103  1  0
 58104  1  0
 59105  1  0
 59106  1  0
 59107  1  0
 61108  1  0
 61109  1  0
 61110  1  0
 62111  1  0
 62112  1  0
 62113  1  0
M  END
$$$$
