PDB_DB00293_94
     RDKit          3D

 54 56  0  0  0  0  0  0  0  0999 V2000
   10.5780   37.2780   26.2570 N   0  0  0  0  0  0  0  0  0  0  0  0
   10.2890   36.6470   27.4630 C   0  0  0  0  0  0  0  0  0  0  0  0
    8.9480   36.7930   28.1220 C   0  0  0  0  0  0  0  0  0  0  0  0
   11.2980   35.8580   28.0590 N   0  0  0  0  0  0  0  0  0  0  0  0
   12.5810   35.6830   27.4850 C   0  0  0  0  0  0  0  0  0  0  0  0
   13.4180   34.9930   28.0400 O   0  0  0  0  0  0  0  0  0  0  0  0
   12.8350   36.3480   26.2460 C   0  0  0  0  0  0  0  0  0  0  0  0
   14.0600   36.2640   25.5650 C   0  0  0  0  0  0  0  0  0  0  0  0
   14.3410   36.9170   24.3250 C   0  0  0  0  0  0  0  0  0  0  0  0
   13.3000   37.7070   23.7530 C   0  0  0  0  0  0  0  0  0  0  0  0
   12.0250   37.8400   24.3900 C   0  0  0  0  0  0  0  0  0  0  0  0
   11.8200   37.1510   25.6330 C   0  0  0  0  0  0  0  0  0  0  0  0
   15.7220   36.7720   23.6290 C   0  0  0  0  0  0  0  0  0  0  0  0
   16.6850   35.6410   24.1090 N   0  0  0  0  0  0  0  0  0  0  0  0
   15.7730   32.0120   22.8410 C   0  0  0  0  0  0  0  0  0  0  0  0
   15.2240   33.6540   22.7260 S   0  0  0  0  0  0  0  0  0  0  0  0
   16.4890   34.2490   23.7340 C   0  0  0  0  0  0  0  0  0  0  0  0
   17.2600   33.1910   24.1110 C   0  0  0  0  0  0  0  0  0  0  0  0
   16.8730   31.9400   23.6220 C   0  0  0  0  0  0  0  0  0  0  0  0
   14.9750   30.9200   22.0760 C   0  0  0  0  0  0  0  0  0  0  0  0
   13.9680   31.2720   21.4090 O   0  0  0  0  0  0  0  0  0  0  0  0
   15.4250   29.6100   22.1720 N   0  0  0  0  0  0  0  0  0  0  0  0
   14.6950   28.5460   21.4550 C   0  0  1  0  0  0  0  0  0  0  0  0
   15.5030   27.9670   20.3130 C   0  0  0  0  0  0  0  0  0  0  0  0
   14.9680   26.9700   19.3110 C   0  0  0  0  0  0  0  0  0  0  0  0
   15.1000   27.3690   17.8570 C   0  0  0  0  0  0  0  0  0  0  0  0
   14.0510   27.7770   17.2930 O   0  0  0  0  0  0  0  0  0  0  0  0
   16.2380   27.2500   17.3490 O   0  0  0  0  0  0  0  0  0  0  0  0
   14.2300   27.5880   22.5440 C   0  0  0  0  0  0  0  0  0  0  0  0
   15.1070   27.1990   23.3570 O   0  0  0  0  0  0  0  0  0  0  0  0
   13.0100   27.2920   22.5290 O   0  0  0  0  0  0  0  0  0  0  0  0
   17.8240   36.0640   24.9350 C   0  0  0  0  0  0  0  0  0  0  0  0
    9.8525   37.8571   25.8107 H   0  0  0  0  0  0  0  0  0  0  0  0
    9.0730   36.7794   29.2148 H   0  0  0  0  0  0  0  0  0  0  0  0
    8.4914   37.7462   27.8170 H   0  0  0  0  0  0  0  0  0  0  0  0
    8.2970   35.9604   27.8170 H   0  0  0  0  0  0  0  0  0  0  0  0
   14.8570   35.6547   26.0161 H   0  0  0  0  0  0  0  0  0  0  0  0
   13.4813   38.2261   22.8003 H   0  0  0  0  0  0  0  0  0  0  0  0
   11.2276   38.4507   23.9415 H   0  0  0  0  0  0  0  0  0  0  0  0
   15.5299   36.6021   22.5593 H   0  0  0  0  0  0  0  0  0  0  0  0
   16.2509   37.7017   23.8857 H   0  0  0  0  0  0  0  0  0  0  0  0
   18.1372   33.3142   24.7632 H   0  0  0  0  0  0  0  0  0  0  0  0
   17.4038   31.0033   23.8475 H   0  0  0  0  0  0  0  0  0  0  0  0
   16.2568   29.3837   22.7358 H   0  0  0  0  0  0  0  0  0  0  0  0
   13.8094   28.9020   20.9081 H   0  0  0  0  0  0  0  0  0  0  0  0
   15.8410   28.8303   19.7211 H   0  0  0  0  0  0  0  0  0  0  0  0
   16.2194   27.3404   20.8645 H   0  0  0  0  0  0  0  0  0  0  0  0
   15.5103   26.0235   19.4528 H   0  0  0  0  0  0  0  0  0  0  0  0
   13.8879   26.8973   19.5062 H   0  0  0  0  0  0  0  0  0  0  0  0
   14.0751   28.0522   16.3423 H   0  0  0  0  0  0  0  0  0  0  0  0
   14.8639   26.5755   24.0865 H   0  0  0  0  0  0  0  0  0  0  0  0
   17.5617   35.9666   25.9988 H   0  0  0  0  0  0  0  0  0  0  0  0
   18.6942   35.4291   24.7123 H   0  0  0  0  0  0  0  0  0  0  0  0
   18.0689   37.1130   24.7123 H   0  0  0  0  0  0  0  0  0  0  0  0
  1  2  1  0
  2  3  1  0
  2  4  2  0
  4  5  1  0
  5  6  2  0
  5  7  1  0
  7  8  1  0
  8  9  2  0
  9 10  1  0
 10 11  2  0
  1 12  1  0
  7 12  2  0
 11 12  1  0
  9 13  1  0
 13 14  1  0
 15 16  1  0
 14 17  1  0
 16 17  1  0
 17 18  2  0
 15 19  2  0
 18 19  1  0
 15 20  1  0
 20 21  2  0
 20 22  1  0
 22 23  1  0
 23 24  1  0
 24 25  1  0
 25 26  1  0
 26 27  1  0
 26 28  2  0
 23 29  1  0
 29 30  1  0
 29 31  2  0
 14 32  1  0
  1 33  1  0
  3 34  1  0
  3 35  1  0
  3 36  1  0
  8 37  1  0
 10 38  1  0
 11 39  1  0
 13 40  1  0
 13 41  1  0
 18 42  1  0
 19 43  1  0
 22 44  1  0
 23 45  1  6
 24 46  1  0
 24 47  1  0
 25 48  1  0
 25 49  1  0
 27 50  1  0
 30 51  1  0
 32 52  1  0
 32 53  1  0
 32 54  1  0
M  END
$$$$
