PDB_DB04729_89
     RDKit          3D

 70 72  0  0  0  0  0  0  0  0999 V2000
   44.5820  120.5880  -97.6790 C   0  0  2  0  0  0  0  0  0  0  0  0
   45.2000  120.6140  -96.3560 O   0  0  0  0  0  0  0  0  0  0  0  0
   43.8480  119.2320  -97.8320 C   0  0  2  0  0  0  0  0  0  0  0  0
   42.8820  119.1370  -96.7910 N   0  0  0  0  0  0  0  0  0  0  0  0
   44.8930  118.0300  -97.7890 C   0  0  0  0  0  0  0  0  0  0  0  0
   45.8970  118.2190  -98.9830 C   0  0  0  0  0  0  0  0  0  0  0  0
   46.6220  119.6350  -98.8260 C   0  0  2  0  0  0  0  0  0  0  0  0
   45.6480  120.7430  -98.7290 O   0  0  0  0  0  0  0  0  0  0  0  0
   47.5990  119.9280  -99.9440 C   0  0  0  0  0  0  0  0  0  0  0  0
   48.3100  121.1620  -99.7390 N   0  0  0  0  0  0  0  0  0  0  0  0
   46.0630  123.4080  -93.2080 C   0  0  2  0  0  0  0  0  0  0  0  0
   46.3750  124.6370  -92.5500 N   0  0  0  0  0  0  0  0  0  0  0  0
   47.2070  123.0680  -94.2360 C   0  0  0  0  0  0  0  0  0  0  0  0
   46.8720  121.7030  -94.9770 C   0  0  2  0  0  0  0  0  0  0  0  0
   47.9240  121.3660  -95.9430 N   0  0  0  0  0  0  0  0  0  0  0  0
   45.4700  121.8170  -95.7120 C   0  0  2  0  0  0  0  0  0  0  0  0
   44.3380  122.1800  -94.6520 C   0  0  2  0  0  0  0  0  0  0  0  0
   43.0750  122.2920  -95.3030 O   0  0  0  0  0  0  0  0  0  0  0  0
   44.6900  123.5410  -93.9280 C   0  0  1  0  0  0  0  0  0  0  0  0
   43.6640  123.8290  -92.9840 O   0  0  0  0  0  0  0  0  0  0  0  0
   42.9790  125.1140  -92.8870 C   0  0  2  0  0  0  0  0  0  0  0  0
   42.3760  125.1680  -91.4520 C   0  0  2  0  0  0  0  0  0  0  0  0
   43.4090  125.0390  -90.5020 O   0  0  0  0  0  0  0  0  0  0  0  0
   41.2740  124.0220  -91.3090 C   0  0  1  0  0  0  0  0  0  0  0  0
   40.6590  124.0140  -89.9380 N   0  0  0  0  0  0  0  0  0  0  0  0
   40.1060  124.2180  -92.4300 C   0  0  1  0  0  0  0  0  0  0  0  0
   39.4180  125.4380  -92.2370 O   0  0  0  0  0  0  0  0  0  0  0  0
   40.7450  124.2350  -93.8580 C   0  0  0  0  0  0  0  0  0  0  0  0
   41.8790  125.2400  -93.9150 O   0  0  0  0  0  0  0  0  0  0  0  0
   38.9700  123.1850  -92.4280 C   0  0  0  0  0  0  0  0  0  0  0  0
   41.1420  122.9980  -88.9870 C   0  0  0  0  0  0  0  0  0  0  0  0
   43.8631  121.4120  -97.7982 H   0  0  0  0  0  0  0  0  0  0  0  0
   43.3367  119.1708  -98.8040 H   0  0  0  0  0  0  0  0  0  0  0  0
   43.3558  119.1836  -95.8776 H   0  0  0  0  0  0  0  0  0  0  0  0
   42.2133  119.9163  -96.8710 H   0  0  0  0  0  0  0  0  0  0  0  0
   45.4402  118.0446  -96.8349 H   0  0  0  0  0  0  0  0  0  0  0  0
   44.3712  117.0656  -97.8765 H   0  0  0  0  0  0  0  0  0  0  0  0
   46.6477  117.4152  -98.9658 H   0  0  0  0  0  0  0  0  0  0  0  0
   45.3534  118.1810  -99.9385 H   0  0  0  0  0  0  0  0  0  0  0  0
   47.1903  119.5653  -97.8868 H   0  0  0  0  0  0  0  0  0  0  0  0
   48.3273  119.1056 -100.0018 H   0  0  0  0  0  0  0  0  0  0  0  0
   47.0240  120.0221 -100.8770 H   0  0  0  0  0  0  0  0  0  0  0  0
   48.4106  121.3366  -98.7289 H   0  0  0  0  0  0  0  0  0  0  0  0
   49.2429  121.0965 -100.1707 H   0  0  0  0  0  0  0  0  0  0  0  0
   45.9932  122.5908  -92.4750 H   0  0  0  0  0  0  0  0  0  0  0  0
   46.3399  124.4988  -91.5299 H   0  0  0  0  0  0  0  0  0  0  0  0
   47.3201  124.9422  -92.8228 H   0  0  0  0  0  0  0  0  0  0  0  0
   47.2849  123.8770  -94.9772 H   0  0  0  0  0  0  0  0  0  0  0  0
   48.1615  122.9664  -93.6987 H   0  0  0  0  0  0  0  0  0  0  0  0
   46.8212  120.9000  -94.2269 H   0  0  0  0  0  0  0  0  0  0  0  0
   48.7789  121.0921  -95.4380 H   0  0  0  0  0  0  0  0  0  0  0  0
   47.6092  120.5838  -96.5345 H   0  0  0  0  0  0  0  0  0  0  0  0
   45.4943  122.6186  -96.4649 H   0  0  0  0  0  0  0  0  0  0  0  0
   44.2847  121.3770  -93.9021 H   0  0  0  0  0  0  0  0  0  0  0  0
   42.3579  122.3556  -94.6234 H   0  0  0  0  0  0  0  0  0  0  0  0
   44.7569  124.3580  -94.6616 H   0  0  0  0  0  0  0  0  0  0  0  0
   43.6794  125.9408  -93.0762 H   0  0  0  0  0  0  0  0  0  0  0  0
   41.8837  126.1349  -91.2714 H   0  0  0  0  0  0  0  0  0  0  0  0
   43.0266  125.0868  -89.5901 H   0  0  0  0  0  0  0  0  0  0  0  0
   41.7782  123.0571  -91.4659 H   0  0  0  0  0  0  0  0  0  0  0  0
   40.8300  124.9382  -89.5168 H   0  0  0  0  0  0  0  0  0  0  0  0
   39.3200  125.6118  -91.2673 H   0  0  0  0  0  0  0  0  0  0  0  0
   41.1353  123.2337  -94.0929 H   0  0  0  0  0  0  0  0  0  0  0  0
   39.9761  124.5211  -94.5908 H   0  0  0  0  0  0  0  0  0  0  0  0
   38.6997  122.9392  -91.3904 H   0  0  0  0  0  0  0  0  0  0  0  0
   38.0940  123.6024  -92.9461 H   0  0  0  0  0  0  0  0  0  0  0  0
   39.3025  122.2734  -92.9461 H   0  0  0  0  0  0  0  0  0  0  0  0
   40.9748  123.3498  -87.9583 H   0  0  0  0  0  0  0  0  0  0  0  0
   40.5948  122.0571  -89.1463 H   0  0  0  0  0  0  0  0  0  0  0  0
   42.2171  122.8284  -89.1463 H   0  0  0  0  0  0  0  0  0  0  0  0
  2  1  1  0
  3  1  1  0
  4  3  1  0
  5  3  1  0
  6  5  1  0
  7  6  1  0
  8  7  1  0
  8  1  1  0
  9  7  1  0
 10  9  1  0
 12 11  1  0
 13 11  1  0
 14 13  1  0
 15 14  1  0
 16 14  1  0
 16  2  1  0
 17 16  1  0
 18 17  1  0
 19 17  1  0
 19 11  1  0
 20 19  1  0
 21 20  1  0
 22 21  1  0
 23 22  1  0
 24 22  1  0
 25 24  1  0
 26 24  1  0
 26 27  1  1
 28 26  1  0
 29 28  1  0
 29 21  1  0
 30 26  1  0
 31 25  1  0
  1 32  1  1
  3 33  1  6
  4 34  1  0
  4 35  1  0
  5 36  1  0
  5 37  1  0
  6 38  1  0
  6 39  1  0
  7 40  1  1
  9 41  1  0
  9 42  1  0
 10 43  1  0
 10 44  1  0
 11 45  1  1
 12 46  1  0
 12 47  1  0
 13 48  1  0
 13 49  1  0
 14 50  1  1
 15 51  1  0
 15 52  1  0
 16 53  1  6
 17 54  1  1
 18 55  1  0
 19 56  1  6
 21 57  1  1
 22 58  1  1
 23 59  1  0
 24 60  1  6
 25 61  1  0
 27 62  1  0
 28 63  1  0
 28 64  1  0
 30 65  1  0
 30 66  1  0
 30 67  1  0
 31 68  1  0
 31 69  1  0
 31 70  1  0
M  END
$$$$
