PDB_DB06401_98
     RDKit          3D

 67 72  0  0  0  0  0  0  0  0999 V2000
  -14.0780  -10.2870  -35.1040 C   0  0  1  0  0  0  0  0  0  0  0  0
  -12.8070  -10.4270  -35.8680 C   0  0  0  0  0  0  0  0  0  0  0  0
  -11.3390  -10.7250  -35.3830 C   0  0  0  0  0  0  0  0  0  0  0  0
  -11.4360  -11.9650  -34.6660 C   0  0  0  0  0  0  0  0  0  0  0  0
  -12.4310  -11.3420  -33.5210 C   0  0  0  0  0  0  0  0  0  0  0  0
  -13.8470  -10.6360  -33.4300 C   0  0  1  0  0  0  0  0  0  0  0  0
  -14.2500   -9.3360  -34.1040 N   0  0  0  0  0  0  0  0  0  0  0  0
  -15.6480   -9.3590  -33.5420 C   0  0  0  0  0  0  0  0  0  0  0  0
  -16.4320  -10.6040  -32.9820 C   0  0  0  0  0  0  0  0  0  0  0  0
  -15.9080  -11.2960  -31.8310 O   0  0  0  0  0  0  0  0  0  0  0  0
  -16.2290  -10.7920  -30.6190 C   0  0  0  0  0  0  0  0  0  0  0  0
  -15.6890  -11.4100  -29.5010 C   0  0  0  0  0  0  0  0  0  0  0  0
  -15.9720  -10.9220  -28.2370 C   0  0  0  0  0  0  0  0  0  0  0  0
  -17.0310   -9.6650  -30.4840 C   0  0  0  0  0  0  0  0  0  0  0  0
  -17.3200   -9.1810  -29.2170 C   0  0  0  0  0  0  0  0  0  0  0  0
  -16.7890   -9.8100  -28.0980 C   0  0  0  0  0  0  0  0  0  0  0  0
  -17.0740   -9.3070  -26.8410 C   0  0  0  0  0  0  0  0  0  0  0  0
  -16.6170  -10.2360  -25.7560 N   0  0  0  0  0  0  0  0  0  0  0  0
  -15.4320   -9.9510  -25.2090 C   0  0  0  0  0  0  0  0  0  0  0  0
  -14.5200   -9.0300  -25.5230 C   0  0  0  0  0  0  0  0  0  0  0  0
  -13.3150   -8.9620  -24.8330 C   0  0  0  0  0  0  0  0  0  0  0  0
  -13.0910   -9.8750  -23.8140 C   0  0  0  0  0  0  0  0  0  0  0  0
  -11.9300   -9.8550  -23.1030 O   0  0  0  0  0  0  0  0  0  0  0  0
  -14.0750  -10.8120  -23.5310 C   0  0  0  0  0  0  0  0  0  0  0  0
  -15.2080  -10.8230  -24.2320 C   0  0  0  0  0  0  0  0  0  0  0  0
  -16.2730  -11.6060  -24.1520 C   0  0  0  0  0  0  0  0  0  0  0  0
  -16.3110  -12.7270  -23.1020 C   0  0  0  0  0  0  0  0  0  0  0  0
  -17.2170  -11.1910  -25.0210 C   0  0  0  0  0  0  0  0  0  0  0  0
  -18.3790  -11.8220  -25.3160 C   0  0  0  0  0  0  0  0  0  0  0  0
  -18.7850  -11.9180  -26.6460 C   0  0  0  0  0  0  0  0  0  0  0  0
  -19.9150  -12.6140  -27.0430 C   0  0  0  0  0  0  0  0  0  0  0  0
  -20.6510  -13.3170  -26.1080 C   0  0  0  0  0  0  0  0  0  0  0  0
  -21.7550  -14.0030  -26.4920 O   0  0  0  0  0  0  0  0  0  0  0  0
  -20.2460  -13.3080  -24.7840 C   0  0  0  0  0  0  0  0  0  0  0  0
  -19.0930  -12.6230  -24.4240 C   0  0  0  0  0  0  0  0  0  0  0  0
  -14.7071  -10.5694  -35.9610 H   0  0  0  0  0  0  0  0  0  0  0  0
  -13.0174  -11.2353  -36.5838 H   0  0  0  0  0  0  0  0  0  0  0  0
  -12.6627   -9.3587  -36.0870 H   0  0  0  0  0  0  0  0  0  0  0  0
  -10.6597  -10.8260  -36.2423 H   0  0  0  0  0  0  0  0  0  0  0  0
  -10.9345   -9.9144  -34.7591 H   0  0  0  0  0  0  0  0  0  0  0  0
  -11.8995  -12.7717  -35.2528 H   0  0  0  0  0  0  0  0  0  0  0  0
  -10.5075  -12.4582  -34.3425 H   0  0  0  0  0  0  0  0  0  0  0  0
  -12.5665  -12.2028  -32.8497 H   0  0  0  0  0  0  0  0  0  0  0  0
  -11.8855  -10.3877  -33.4804 H   0  0  0  0  0  0  0  0  0  0  0  0
  -14.1728  -11.0399  -32.4601 H   0  0  0  0  0  0  0  0  0  0  0  0
  -15.6286   -8.6406  -32.7093 H   0  0  0  0  0  0  0  0  0  0  0  0
  -16.2116   -9.2047  -34.4740 H   0  0  0  0  0  0  0  0  0  0  0  0
  -17.4423  -10.2577  -32.7185 H   0  0  0  0  0  0  0  0  0  0  0  0
  -16.3645  -11.3460  -33.7912 H   0  0  0  0  0  0  0  0  0  0  0  0
  -15.0362  -12.2875  -29.6187 H   0  0  0  0  0  0  0  0  0  0  0  0
  -15.5511  -11.4136  -27.3475 H   0  0  0  0  0  0  0  0  0  0  0  0
  -17.4333   -9.1609  -31.3751 H   0  0  0  0  0  0  0  0  0  0  0  0
  -17.9686   -8.3005  -29.0983 H   0  0  0  0  0  0  0  0  0  0  0  0
  -16.5647   -8.3395  -26.7201 H   0  0  0  0  0  0  0  0  0  0  0  0
  -18.1646   -9.1911  -26.7568 H   0  0  0  0  0  0  0  0  0  0  0  0
  -14.7232   -8.3172  -26.3358 H   0  0  0  0  0  0  0  0  0  0  0  0
  -12.5597   -8.2043  -25.0886 H   0  0  0  0  0  0  0  0  0  0  0  0
  -11.7823  -10.5125  -22.3777 H   0  0  0  0  0  0  0  0  0  0  0  0
  -13.9193  -11.5464  -22.7270 H   0  0  0  0  0  0  0  0  0  0  0  0
  -16.2961  -12.2862  -22.0943 H   0  0  0  0  0  0  0  0  0  0  0  0
  -17.2297  -13.3183  -23.2300 H   0  0  0  0  0  0  0  0  0  0  0  0
  -15.4344  -13.3791  -23.2300 H   0  0  0  0  0  0  0  0  0  0  0  0
  -18.1798  -11.4177  -27.4163 H   0  0  0  0  0  0  0  0  0  0  0  0
  -20.2253  -12.6072  -28.0983 H   0  0  0  0  0  0  0  0  0  0  0  0
  -22.2825  -14.5067  -25.8226 H   0  0  0  0  0  0  0  0  0  0  0  0
  -20.8341  -13.8403  -24.0219 H   0  0  0  0  0  0  0  0  0  0  0  0
  -18.7267  -12.7158  -23.3910 H   0  0  0  0  0  0  0  0  0  0  0  0
  1  2  1  0
  2  3  1  0
  3  4  1  0
  4  5  1  0
  5  6  1  0
  6  1  1  0
  1  7  1  0
  6  7  1  0
  7  8  1  0
  8  9  1  0
  9 10  1  0
 10 11  1  0
 11 12  2  0
 12 13  1  0
 11 14  1  0
 14 15  2  0
 13 16  2  0
 15 16  1  0
 16 17  1  0
 17 18  1  0
 18 19  1  0
 19 20  2  0
 20 21  1  0
 21 22  2  0
 22 23  1  0
 22 24  1  0
 19 25  1  0
 24 25  2  0
 25 26  1  0
 26 27  1  0
 18 28  1  0
 26 28  2  0
 28 29  1  0
 29 30  2  0
 30 31  1  0
 31 32  2  0
 32 33  1  0
 32 34  1  0
 29 35  1  0
 34 35  2  0
  1 36  1  6
  2 37  1  0
  2 38  1  0
  3 39  1  0
  3 40  1  0
  4 41  1  0
  4 42  1  0
  5 43  1  0
  5 44  1  0
  6 45  1  1
  8 46  1  0
  8 47  1  0
  9 48  1  0
  9 49  1  0
 12 50  1  0
 13 51  1  0
 14 52  1  0
 15 53  1  0
 17 54  1  0
 17 55  1  0
 20 56  1  0
 21 57  1  0
 23 58  1  0
 24 59  1  0
 27 60  1  0
 27 61  1  0
 27 62  1  0
 30 63  1  0
 31 64  1  0
 33 65  1  0
 34 66  1  0
 35 67  1  0
M  END
$$$$
