PDB_DB01092_98
     RDKit          3D

 85 90  0  0  0  0  0  0  0  0999 V2000
  -58.2560  -83.3480   47.0710 C   0  0  2  0  0  0  0  0  0  0  0  0
  -58.9350  -81.9770   47.0410 C   0  0  0  0  0  0  0  0  0  0  0  0
  -58.2990  -81.1610   45.9280 C   0  0  1  0  0  0  0  0  0  0  0  0
  -56.8060  -81.0010   46.1890 C   0  0  0  0  0  0  0  0  0  0  0  0
  -56.0770  -82.3300   46.4050 C   0  0  1  0  0  0  0  0  0  0  0  0
  -54.6190  -82.0620   46.7500 C   0  0  0  0  0  0  0  0  0  0  0  0
  -54.5250  -81.4190   48.1210 C   0  0  0  0  0  0  0  0  0  0  0  0
  -55.2260  -82.2890   49.1670 C   0  0  2  0  0  0  0  0  0  0  0  0
  -56.7030  -82.5390   48.8570 C   0  0  1  0  0  0  0  0  0  0  0  0
  -56.7880  -83.1870   47.4710 C   0  0  1  0  0  0  0  0  0  0  0  0
  -57.2830  -83.3630   50.0160 C   0  0  1  0  0  0  0  0  0  0  0  0
  -57.3520  -82.4590   51.2240 C   0  0  0  0  0  0  0  0  0  0  0  0
  -55.9660  -82.0310   51.6780 C   0  0  1  0  0  0  0  0  0  0  0  0
  -54.9410  -81.7390   50.5610 C   0  0  2  0  0  0  0  0  0  0  0  0
  -54.7150  -80.2300   50.4630 C   0  0  0  0  0  0  0  0  0  0  0  0
  -55.3170  -79.5930   51.6920 C   0  0  0  0  0  0  0  0  0  0  0  0
  -56.1660  -80.6680   52.3470 C   0  0  2  0  0  0  0  0  0  0  0  0
  -55.4930  -83.1500   52.6150 C   0  0  0  0  0  0  0  0  0  0  0  0
  -56.0150  -84.4990   47.6400 C   0  0  0  0  0  0  0  0  0  0  0  0
  -55.8070  -80.6520   53.7850 C   0  0  0  0  0  0  0  0  0  0  0  0
  -54.4030  -80.8040   54.3530 C   0  0  0  0  0  0  0  0  0  0  0  0
  -56.7590  -80.4680   54.6860 C   0  0  0  0  0  0  0  0  0  0  0  0
  -56.1110  -80.7480   55.9570 C   0  0  0  0  0  0  0  0  0  0  0  0
  -58.5500  -81.3600   43.4850 C   0  0  2  0  0  0  0  0  0  0  0  0
  -58.7620  -82.5610   42.5710 C   0  0  1  0  0  0  0  0  0  0  0  0
  -60.1320  -83.1970   42.8480 C   0  0  1  0  0  0  0  0  0  0  0  0
  -61.2780  -82.1760   42.9140 C   0  0  2  0  0  0  0  0  0  0  0  0
  -60.9120  -80.9410   43.7420 C   0  0  2  0  0  0  0  0  0  0  0  0
  -61.9400  -79.8290   43.6030 C   0  0  0  0  0  0  0  0  0  0  0  0
  -58.3690  -84.0230   45.8040 O   0  0  0  0  0  0  0  0  0  0  0  0
  -58.4660  -81.9660   44.7710 O   0  0  0  0  0  0  0  0  0  0  0  0
  -56.0510  -83.0780   45.1880 O   0  0  0  0  0  0  0  0  0  0  0  0
  -58.5990  -83.8930   49.8200 O   0  0  0  0  0  0  0  0  0  0  0  0
  -53.7040  -82.3280   50.9580 O   0  0  0  0  0  0  0  0  0  0  0  0
  -56.8290  -85.6400   47.9270 O   0  0  0  0  0  0  0  0  0  0  0  0
  -54.7030  -81.0220   55.7310 O   0  0  0  0  0  0  0  0  0  0  0  0
  -56.6720  -80.7490   57.0400 O   0  0  0  0  0  0  0  0  0  0  0  0
  -58.5660  -82.1980   41.1970 O   0  0  0  0  0  0  0  0  0  0  0  0
  -60.4080  -84.2050   41.8700 O   0  0  0  0  0  0  0  0  0  0  0  0
  -62.4380  -82.7950   43.4840 O   0  0  0  0  0  0  0  0  0  0  0  0
  -59.6310  -80.4210   43.3670 O   0  0  0  0  0  0  0  0  0  0  0  0
  -58.7682  -83.9717   47.8184 H   0  0  0  0  0  0  0  0  0  0  0  0
  -60.0110  -82.0977   46.8470 H   0  0  0  0  0  0  0  0  0  0  0  0
  -58.8090  -81.4674   48.0077 H   0  0  0  0  0  0  0  0  0  0  0  0
  -58.7437  -80.1588   45.8392 H   0  0  0  0  0  0  0  0  0  0  0  0
  -56.3541  -80.4927   45.3245 H   0  0  0  0  0  0  0  0  0  0  0  0
  -56.7006  -80.4200   47.1171 H   0  0  0  0  0  0  0  0  0  0  0  0
  -54.0640  -83.0117   46.7533 H   0  0  0  0  0  0  0  0  0  0  0  0
  -54.1873  -81.3829   46.0000 H   0  0  0  0  0  0  0  0  0  0  0  0
  -53.4661  -81.3042   48.3957 H   0  0  0  0  0  0  0  0  0  0  0  0
  -55.0156  -80.4350   48.0882 H   0  0  0  0  0  0  0  0  0  0  0  0
  -54.8013  -83.3030   49.1302 H   0  0  0  0  0  0  0  0  0  0  0  0
  -57.3136  -81.6261   48.7964 H   0  0  0  0  0  0  0  0  0  0  0  0
  -56.6164  -84.2318   50.1202 H   0  0  0  0  0  0  0  0  0  0  0  0
  -57.9368  -81.5633   50.9675 H   0  0  0  0  0  0  0  0  0  0  0  0
  -57.8282  -83.0150   52.0450 H   0  0  0  0  0  0  0  0  0  0  0  0
  -53.6371  -80.0150   50.4198 H   0  0  0  0  0  0  0  0  0  0  0  0
  -55.1850  -79.8292   49.5528 H   0  0  0  0  0  0  0  0  0  0  0  0
  -54.5238  -79.2614   52.3782 H   0  0  0  0  0  0  0  0  0  0  0  0
  -55.9164  -78.7074   51.4344 H   0  0  0  0  0  0  0  0  0  0  0  0
  -57.2417  -80.4704   52.2293 H   0  0  0  0  0  0  0  0  0  0  0  0
  -55.6266  -82.8340   53.6601 H   0  0  0  0  0  0  0  0  0  0  0  0
  -56.0839  -84.0588   52.4283 H   0  0  0  0  0  0  0  0  0  0  0  0
  -54.4294  -83.3594   52.4283 H   0  0  0  0  0  0  0  0  0  0  0  0
  -55.4660  -84.6957   46.7073 H   0  0  0  0  0  0  0  0  0  0  0  0
  -55.3557  -84.3612   48.5097 H   0  0  0  0  0  0  0  0  0  0  0  0
  -53.8767  -81.6629   53.9110 H   0  0  0  0  0  0  0  0  0  0  0  0
  -53.7347  -79.9523   54.1582 H   0  0  0  0  0  0  0  0  0  0  0  0
  -57.8037  -80.1706   54.5125 H   0  0  0  0  0  0  0  0  0  0  0  0
  -57.6587  -80.7604   43.2482 H   0  0  0  0  0  0  0  0  0  0  0  0
  -58.0060  -83.3298   42.7889 H   0  0  0  0  0  0  0  0  0  0  0  0
  -60.0752  -83.6531   43.8474 H   0  0  0  0  0  0  0  0  0  0  0  0
  -61.4796  -81.8428   41.8852 H   0  0  0  0  0  0  0  0  0  0  0  0
  -60.8877  -81.2779   44.7888 H   0  0  0  0  0  0  0  0  0  0  0  0
  -62.2522  -79.4913   44.6022 H   0  0  0  0  0  0  0  0  0  0  0  0
  -61.4962  -78.9860   43.0531 H   0  0  0  0  0  0  0  0  0  0  0  0
  -62.8152  -80.2054   43.0531 H   0  0  0  0  0  0  0  0  0  0  0  0
  -58.5305  -84.9876   45.9573 H   0  0  0  0  0  0  0  0  0  0  0  0
  -56.0174  -84.0453   45.3959 H   0  0  0  0  0  0  0  0  0  0  0  0
  -59.0207  -84.0628   50.6994 H   0  0  0  0  0  0  0  0  0  0  0  0
  -53.6524  -82.3526   51.9463 H   0  0  0  0  0  0  0  0  0  0  0  0
  -56.9080  -85.7508   48.9076 H   0  0  0  0  0  0  0  0  0  0  0  0
  -58.0962  -81.3279   41.1493 H   0  0  0  0  0  0  0  0  0  0  0  0
  -60.6401  -85.0525   42.3260 H   0  0  0  0  0  0  0  0  0  0  0  0
  -62.3776  -82.7628   44.4716 H   0  0  0  0  0  0  0  0  0  0  0  0
  1  2  1  0
  2  3  1  0
  3  4  1  0
  4  5  1  0
  5  6  1  0
  6  7  1  0
  7  8  1  0
  8  9  1  0
  1 10  1  0
  5 10  1  0
  9 10  1  0
  9 11  1  0
 11 12  1  0
 12 13  1  0
  8 14  1  0
 13 14  1  0
 14 15  1  0
 15 16  1  0
 13 17  1  0
 16 17  1  0
 13 18  1  1
 10 19  1  1
 17 20  1  0
 20 21  1  0
 20 22  2  0
 22 23  1  0
 24 25  1  0
 25 26  1  0
 26 27  1  0
 27 28  1  0
 28 29  1  0
  1 30  1  0
  3 31  1  0
 24 31  1  0
  5 32  1  6
 11 33  1  0
 14 34  1  1
 19 35  1  0
 21 36  1  0
 23 36  1  0
 23 37  2  0
 25 38  1  0
 26 39  1  0
 27 40  1  0
 24 41  1  0
 28 41  1  0
  1 42  1  1
  2 43  1  0
  2 44  1  0
  3 45  1  6
  4 46  1  0
  4 47  1  0
  6 48  1  0
  6 49  1  0
  7 50  1  0
  7 51  1  0
  8 52  1  1
  9 53  1  6
 11 54  1  1
 12 55  1  0
 12 56  1  0
 15 57  1  0
 15 58  1  0
 16 59  1  0
 16 60  1  0
 17 61  1  1
 18 62  1  0
 18 63  1  0
 18 64  1  0
 19 65  1  0
 19 66  1  0
 21 67  1  0
 21 68  1  0
 22 69  1  0
 24 70  1  6
 25 71  1  1
 26 72  1  1
 27 73  1  6
 28 74  1  1
 29 75  1  0
 29 76  1  0
 29 77  1  0
 30 78  1  0
 32 79  1  0
 33 80  1  0
 34 81  1  0
 35 82  1  0
 38 83  1  0
 39 84  1  0
 40 85  1  0
M  END
$$$$
