PDB_DB01045_99
     RDKit          3D

117121  0  0  0  0  0  0  0  0999 V2000
  116.7180   26.8860   -8.5540 C   0  0  0  0  0  0  0  0  0  0  0  0
  115.4950   26.4760   -8.0550 C   0  0  0  0  0  0  0  0  0  0  0  0
  114.3330   26.6480   -8.7590 C   0  0  0  0  0  0  0  0  0  0  0  0
  114.3730   27.1900  -10.0160 C   0  0  0  0  0  0  0  0  0  0  0  0
  115.7040   28.1510  -11.8130 C   0  0  0  0  0  0  0  0  0  0  0  0
  116.9460   28.5060  -12.2730 C   0  0  0  0  0  0  0  0  0  0  0  0
  118.1040   28.3840  -11.6190 C   0  0  0  0  0  0  0  0  0  0  0  0
  118.0490   27.8470  -10.3520 C   0  0  0  0  0  0  0  0  0  0  0  0
  116.7710   27.4440   -9.8250 C   0  0  0  0  0  0  0  0  0  0  0  0
  115.5620   27.5890  -10.5600 C   0  0  0  0  0  0  0  0  0  0  0  0
  114.8970   28.4720  -12.8600 C   0  0  0  0  0  0  0  0  0  0  0  0
  115.4060   29.2180  -13.8230 C   0  0  2  0  0  0  0  0  0  0  0  0
  114.8720   28.5300  -15.0280 C   0  0  0  0  0  0  0  0  0  0  0  0
  119.4070   28.7930  -12.1720 C   0  0  0  0  0  0  0  0  0  0  0  0
  116.4340   25.7000   -5.8230 C   0  0  0  0  0  0  0  0  0  0  0  0
  116.1530   25.1880   -4.4410 C   0  0  0  0  0  0  0  0  0  0  0  0
  115.9770   26.1460   -3.4260 C   0  0  0  0  0  0  0  0  0  0  0  0
  115.7860   27.6710   -3.6650 C   0  0  0  0  0  0  0  0  0  0  0  0
  114.8720   28.3270   -2.8240 C   0  0  0  0  0  0  0  0  0  0  0  0
  114.6780   29.7950   -2.7340 C   0  0  1  0  0  0  0  0  0  0  0  0
  114.8060   30.3690   -4.1090 C   0  0  1  0  0  0  0  0  0  0  0  0
  113.9740   31.5660   -4.3440 C   0  0  2  0  0  0  0  0  0  0  0  0
  114.3170   32.3580   -5.5550 C   0  0  2  0  0  0  0  0  0  0  0  0
  114.1190   31.7580   -6.8780 C   0  0  2  0  0  0  0  0  0  0  0  0
  114.6150   32.6460   -7.9970 C   0  0  1  0  0  0  0  0  0  0  0  0
  114.2720   32.0030   -9.2660 C   0  0  1  0  0  0  0  0  0  0  0  0
  114.5690   32.8550  -10.4470 C   0  0  2  0  0  0  0  0  0  0  0  0
  114.4250   32.2070  -11.8210 C   0  0  0  0  0  0  0  0  0  0  0  0
  115.3380   31.3700  -12.5270 C   0  0  0  0  0  0  0  0  0  0  0  0
  115.8560   23.7150   -4.2690 C   0  0  0  0  0  0  0  0  0  0  0  0
  113.2990   29.7780   -2.2380 C   0  0  0  0  0  0  0  0  0  0  0  0
  114.4450   32.5550   -3.3480 C   0  0  0  0  0  0  0  0  0  0  0  0
  112.6290   31.7180   -6.8510 C   0  0  0  0  0  0  0  0  0  0  0  0
  115.1940   30.8620   -9.2850 C   0  0  0  0  0  0  0  0  0  0  0  0
  113.8380   34.8250   -7.6800 C   0  0  0  0  0  0  0  0  0  0  0  0
  112.6860   35.7200   -7.7770 C   0  0  0  0  0  0  0  0  0  0  0  0
  116.0980   34.5780  -10.5090 C   0  0  0  0  0  0  0  0  0  0  0  0
  107.8520   25.8180   -4.6690 C   0  0  0  0  0  0  0  0  0  0  0  0
  109.6750   27.2160   -5.6180 C   0  0  0  0  0  0  0  0  0  0  0  0
  110.6240   26.9730   -6.7310 C   0  0  0  0  0  0  0  0  0  0  0  0
  111.2880   24.8770   -5.5880 C   0  0  0  0  0  0  0  0  0  0  0  0
  110.3040   25.2410   -4.5020 C   0  0  0  0  0  0  0  0  0  0  0  0
  113.0010   26.2260   -8.1410 C   0  0  0  0  0  0  0  0  0  0  0  0
  115.3190   25.9290   -6.7320 N   0  0  0  0  0  0  0  0  0  0  0  0
  112.6600   26.6980   -6.9510 N   0  0  0  0  0  0  0  0  0  0  0  0
  111.6190   26.0960   -6.2700 N   0  0  0  0  0  0  0  0  0  0  0  0
  109.2440   25.9520   -5.1450 N   0  0  0  0  0  0  0  0  0  0  0  0
  117.8700   26.7780   -7.9150 O   0  0  0  0  0  0  0  0  0  0  0  0
  119.2310   27.7250   -9.6640 O   0  0  0  0  0  0  0  0  0  0  0  0
  116.7910   29.0900  -13.6960 O   0  0  0  0  0  0  0  0  0  0  0  0
  113.7740   28.0650  -12.9250 O   0  0  0  0  0  0  0  0  0  0  0  0
  114.9850   30.5680  -13.6500 O   0  0  0  0  0  0  0  0  0  0  0  0
  115.8240   33.2530  -10.1910 O   0  0  0  0  0  0  0  0  0  0  0  0
  113.7010   33.5830   -8.1660 O   0  0  0  0  0  0  0  0  0  0  0  0
  114.8040   35.0350   -6.9850 O   0  0  0  0  0  0  0  0  0  0  0  0
  115.6400   32.6180   -5.4130 O   0  0  0  0  0  0  0  0  0  0  0  0
  116.0800   30.8290   -4.1930 O   0  0  0  0  0  0  0  0  0  0  0  0
  117.5740   25.9300   -6.1440 O   0  0  0  0  0  0  0  0  0  0  0  0
  113.2420   27.3380  -10.7340 O   0  0  0  0  0  0  0  0  0  0  0  0
  114.2249   27.6963  -14.7177 H   0  0  0  0  0  0  0  0  0  0  0  0
  114.2885   29.2430  -15.6289 H   0  0  0  0  0  0  0  0  0  0  0  0
  115.7075   28.1416  -15.6289 H   0  0  0  0  0  0  0  0  0  0  0  0
  120.1026   29.0114  -11.3483 H   0  0  0  0  0  0  0  0  0  0  0  0
  119.8146   27.9796  -12.7903 H   0  0  0  0  0  0  0  0  0  0  0  0
  119.2766   29.6934  -12.7903 H   0  0  0  0  0  0  0  0  0  0  0  0
  115.9743   25.7899   -2.3852 H   0  0  0  0  0  0  0  0  0  0  0  0
  116.3376   28.2075   -4.4511 H   0  0  0  0  0  0  0  0  0  0  0  0
  114.2453   27.6972   -2.1755 H   0  0  0  0  0  0  0  0  0  0  0  0
  115.3723   30.3865   -2.1191 H   0  0  0  0  0  0  0  0  0  0  0  0
  114.5099   29.5862   -4.8229 H   0  0  0  0  0  0  0  0  0  0  0  0
  112.9361   31.2021   -4.3604 H   0  0  0  0  0  0  0  0  0  0  0  0
  113.6230   33.2112   -5.5740 H   0  0  0  0  0  0  0  0  0  0  0  0
  114.6446   30.8080   -7.0548 H   0  0  0  0  0  0  0  0  0  0  0  0
  115.6614   32.9101   -7.7842 H   0  0  0  0  0  0  0  0  0  0  0  0
  113.1995   31.7659   -9.3261 H   0  0  0  0  0  0  0  0  0  0  0  0
  113.8295   33.6634  -10.5451 H   0  0  0  0  0  0  0  0  0  0  0  0
  113.4793   32.4161  -12.3425 H   0  0  0  0  0  0  0  0  0  0  0  0
  116.3822   31.3417  -12.1823 H   0  0  0  0  0  0  0  0  0  0  0  0
  115.8073   23.4735   -3.1969 H   0  0  0  0  0  0  0  0  0  0  0  0
  114.8919   23.4776   -4.7425 H   0  0  0  0  0  0  0  0  0  0  0  0
  116.6528   23.1226   -4.7425 H   0  0  0  0  0  0  0  0  0  0  0  0
  113.3050   29.7781   -1.1380 H   0  0  0  0  0  0  0  0  0  0  0  0
  112.7674   30.6697   -2.6019 H   0  0  0  0  0  0  0  0  0  0  0  0
  112.7896   28.8735   -2.6019 H   0  0  0  0  0  0  0  0  0  0  0  0
  114.2617   32.1700   -2.3340 H   0  0  0  0  0  0  0  0  0  0  0  0
  115.5225   32.7287   -3.4850 H   0  0  0  0  0  0  0  0  0  0  0  0
  113.9008   33.5011   -3.4850 H   0  0  0  0  0  0  0  0  0  0  0  0
  112.2813   31.7087   -5.8074 H   0  0  0  0  0  0  0  0  0  0  0  0
  112.2290   32.6057   -7.3628 H   0  0  0  0  0  0  0  0  0  0  0  0
  112.2772   30.8101   -7.3628 H   0  0  0  0  0  0  0  0  0  0  0  0
  115.4329   30.5664   -8.2527 H   0  0  0  0  0  0  0  0  0  0  0  0
  114.7216   30.0176   -9.8083 H   0  0  0  0  0  0  0  0  0  0  0  0
  116.1188   31.1465   -9.8083 H   0  0  0  0  0  0  0  0  0  0  0  0
  112.3428   35.9867   -6.7665 H   0  0  0  0  0  0  0  0  0  0  0  0
  112.9753   36.6326   -8.3187 H   0  0  0  0  0  0  0  0  0  0  0  0
  111.8732   35.2141   -8.3187 H   0  0  0  0  0  0  0  0  0  0  0  0
  116.2183   35.1599   -9.5833 H   0  0  0  0  0  0  0  0  0  0  0  0
  117.0258   34.6295  -11.0977 H   0  0  0  0  0  0  0  0  0  0  0  0
  115.2667   34.9932  -11.0977 H   0  0  0  0  0  0  0  0  0  0  0  0
  107.8391   25.8168   -3.5691 H   0  0  0  0  0  0  0  0  0  0  0  0
  107.2541   26.6627   -5.0417 H   0  0  0  0  0  0  0  0  0  0  0  0
  107.4262   24.8747   -5.0417 H   0  0  0  0  0  0  0  0  0  0  0  0
  110.1767   27.7687   -4.8100 H   0  0  0  0  0  0  0  0  0  0  0  0
  108.8186   27.8147   -5.9616 H   0  0  0  0  0  0  0  0  0  0  0  0
  110.0933   26.5211   -7.5820 H   0  0  0  0  0  0  0  0  0  0  0  0
  111.0739   27.9203   -7.0629 H   0  0  0  0  0  0  0  0  0  0  0  0
  112.1920   24.4319   -5.1469 H   0  0  0  0  0  0  0  0  0  0  0  0
  110.8571   24.1399   -6.2816 H   0  0  0  0  0  0  0  0  0  0  0  0
  109.9155   24.3321   -4.0194 H   0  0  0  0  0  0  0  0  0  0  0  0
  110.7787   25.8514   -3.7197 H   0  0  0  0  0  0  0  0  0  0  0  0
  112.3322   25.5376   -8.6784 H   0  0  0  0  0  0  0  0  0  0  0  0
  114.3675   25.6909   -6.4176 H   0  0  0  0  0  0  0  0  0  0  0  0
  118.7046   27.0963   -8.3419 H   0  0  0  0  0  0  0  0  0  0  0  0
  119.2349   27.3438   -8.7503 H   0  0  0  0  0  0  0  0  0  0  0  0
  115.8661   32.6624   -4.4502 H   0  0  0  0  0  0  0  0  0  0  0  0
  116.4441   30.9605   -3.2818 H   0  0  0  0  0  0  0  0  0  0  0  0
  113.2799   27.7308  -11.6420 H   0  0  0  0  0  0  0  0  0  0  0  0
  1  2  1  0
  2  3  2  0
  3  4  1  0
  5  6  2  0
  6  7  1  0
  7  8  2  0
  1  9  2  0
  8  9  1  0
  4 10  2  0
  5 10  1  0
  9 10  1  0
  5 11  1  0
 11 12  1  0
 12 13  1  6
  7 14  1  0
 15 16  1  0
 16 17  2  0
 17 18  1  0
 18 19  2  0
 19 20  1  0
 20 21  1  0
 21 22  1  0
 22 23  1  0
 23 24  1  0
 24 25  1  0
 25 26  1  0
 26 27  1  0
 27 28  1  0
 28 29  2  0
 16 30  1  0
 20 31  1  0
 22 32  1  0
 24 33  1  0
 26 34  1  0
 35 36  1  0
 39 40  1  0
 41 42  1  0
  3 43  1  0
  2 44  1  0
 15 44  1  0
 43 45  2  0
 40 46  1  0
 41 46  1  0
 45 46  1  0
 38 47  1  0
 39 47  1  0
 42 47  1  0
  1 48  1  0
  8 49  1  0
  6 50  1  0
 12 50  1  0
 11 51  2  0
 12 52  1  0
 29 52  1  0
 27 53  1  0
 37 53  1  0
 25 54  1  0
 35 54  1  0
 35 55  2  0
 23 56  1  0
 21 57  1  0
 15 58  2  0
  4 59  1  0
 13 60  1  0
 13 61  1  0
 13 62  1  0
 14 63  1  0
 14 64  1  0
 14 65  1  0
 17 66  1  0
 18 67  1  0
 19 68  1  0
 20 69  1  1
 21 70  1  6
 22 71  1  1
 23 72  1  6
 24 73  1  1
 25 74  1  1
 26 75  1  1
 27 76  1  6
 28 77  1  0
 29 78  1  0
 30 79  1  0
 30 80  1  0
 30 81  1  0
 31 82  1  0
 31 83  1  0
 31 84  1  0
 32 85  1  0
 32 86  1  0
 32 87  1  0
 33 88  1  0
 33 89  1  0
 33 90  1  0
 34 91  1  0
 34 92  1  0
 34 93  1  0
 36 94  1  0
 36 95  1  0
 36 96  1  0
 37 97  1  0
 37 98  1  0
 37 99  1  0
 38100  1  0
 38101  1  0
 38102  1  0
 39103  1  0
 39104  1  0
 40105  1  0
 40106  1  0
 41107  1  0
 41108  1  0
 42109  1  0
 42110  1  0
 43111  1  0
 44112  1  0
 48113  1  0
 49114  1  0
 56115  1  0
 57116  1  0
 59117  1  0
M  END
>  <PDBID>  (1) 
5UAC

>  <PDB ID>  (1) 
5UAC

>  <Generic Name>  (1) 
Rifampicin

>  <Brand Name>  (1) 
Isonarif#Rifadin#Rifadin Cap 300mg#Rifadin IV#Rifadin IV Novaplus#Rifamate#Rifampin#Rifater#Rofact 150mg#Rofact 300mg#Rifadine#Rifaldin#Rifoldin#Rimactan#Rimactane#Rofact#Tubocin

>  <DrugBank ID>  (1) 
DB01045

>  <ATC Codes>  (1) 
J04AM02#J04AB02#J04AM06#J04AM05

>  <Ligand ID>  (1) 
RFP

>  <Target Name>  (1) 
DNA-directed RNA polymerase subunit beta

>  <UniProt ID>  (1) 
P0A8V2

>  <PDB ID.1>  (1) 
5UAC

>  <Seq. Identity>  (1) 
100%

$$$$
