PDB_DB00932_99
     RDKit          3D

 99102  0  0  0  0  0  0  0  0999 V2000
   13.6940   22.0290   16.5860 O   0  0  0  0  0  0  0  0  0  0  0  0
   12.4450   21.3450   16.8100 C   0  0  0  0  0  0  0  0  0  0  0  0
   12.4600   20.0390   17.4770 C   0  0  0  0  0  0  0  0  0  0  0  0
   13.6860   19.5000   17.7840 C   0  0  0  0  0  0  0  0  0  0  0  0
   15.0150   20.1740   17.4840 C   0  0  0  0  0  0  0  0  0  0  0  0
   14.9040   21.6890   17.2540 C   0  0  2  0  0  0  0  0  0  0  0  0
   11.4360   21.8930   16.4140 O   0  0  0  0  0  0  0  0  0  0  0  0
   13.8160   18.3200   18.3550 O   0  0  0  0  0  0  0  0  0  0  0  0
   14.8370   22.2820   18.6830 C   0  0  0  0  0  0  0  0  0  0  0  0
   15.2090   23.7360   18.8770 C   0  0  0  0  0  0  0  0  0  0  0  0
   15.1790   24.0350   20.3650 C   0  0  0  0  0  0  0  0  0  0  0  0
   16.0530   22.2100   16.3850 C   0  0  0  0  0  0  0  0  0  0  0  0
   16.0850   21.7480   14.9010 C   0  0  0  0  0  0  0  0  0  0  0  0
   17.2110   22.5020   14.1730 C   0  0  0  0  0  0  0  0  0  0  0  0
   16.9200   23.6110   13.3770 C   0  0  0  0  0  0  0  0  0  0  0  0
   17.9730   24.2740   12.7280 C   0  0  0  0  0  0  0  0  0  0  0  0
   19.3070   23.8590   12.8950 C   0  0  0  0  0  0  0  0  0  0  0  0
   19.6000   22.7600   13.6920 C   0  0  0  0  0  0  0  0  0  0  0  0
   18.5490   22.0790   14.2970 C   0  0  0  0  0  0  0  0  0  0  0  0
   11.0990   19.3940   17.7140 C   0  0  2  0  0  0  0  0  0  0  0  0
   10.8720   18.7230   19.0910 C   0  0  0  0  0  0  0  0  0  0  0  0
   11.0610   19.6620   20.2900 C   0  0  0  0  0  0  0  0  0  0  0  0
   10.7490   18.4410   16.6240 C   0  0  0  0  0  0  0  0  0  0  0  0
   11.6810   17.8550   15.7750 C   0  0  0  0  0  0  0  0  0  0  0  0
   11.2710   16.9740   14.7660 C   0  0  0  0  0  0  0  0  0  0  0  0
    9.9140   16.6820   14.6130 C   0  0  0  0  0  0  0  0  0  0  0  0
    8.9630   17.2540   15.4560 C   0  0  0  0  0  0  0  0  0  0  0  0
    7.6170   16.9830   15.3240 N   0  0  0  0  0  0  0  0  0  0  0  0
    9.3950   18.1330   16.4430 C   0  0  0  0  0  0  0  0  0  0  0  0
    7.0060   15.6130   15.8950 S   0  0  2  0  0  4  0  0  0  0  0  0
    7.8350   14.5030   15.4400 O   0  0  0  0  0  0  0  0  0  0  0  0
    5.6300   15.4630   15.4740 O   0  0  0  0  0  0  0  0  0  0  0  0
    7.1150   15.8600   17.4940 C   0  0  1  0  0  0  0  0  0  0  0  0
    8.1990   15.4390   18.2020 N   0  0  0  0  0  0  0  0  0  0  0  0
    8.3130   15.7160   19.5290 C   0  0  0  0  0  0  0  0  0  0  0  0
    7.3350   16.4380   20.2360 C   0  0  1  0  0  0  0  0  0  0  0  0
    6.2270   16.9090   19.5160 C   0  0  0  0  0  0  0  0  0  0  0  0
    6.1380   16.6190   18.1520 C   0  0  0  0  0  0  0  0  0  0  0  0
    7.4870   16.7890   21.7000 C   0  0  2  0  0  0  0  0  0  0  0  0
    7.9660   15.8230   22.4870 F   0  0  0  0  0  0  0  0  0  0  0  0
    6.3480   17.2330   22.1870 F   0  0  0  0  0  0  0  0  0  0  0  0
    8.3380   17.8100   21.7340 F   0  0  0  0  0  0  0  0  0  0  0  0
   12.5423   20.8475   15.8338 H   0  0  0  0  0  0  0  0  0  0  0  0
   12.4855   19.5390   16.4975 H   0  0  0  0  0  0  0  0  0  0  0  0
   13.7148   19.0060   16.8016 H   0  0  0  0  0  0  0  0  0  0  0  0
   15.6913   20.0009   18.3341 H   0  0  0  0  0  0  0  0  0  0  0  0
   15.3930   19.7349   16.5490 H   0  0  0  0  0  0  0  0  0  0  0  0
   10.8944   22.1871   17.1888 H   0  0  0  0  0  0  0  0  0  0  0  0
   13.8043   18.4265   19.3392 H   0  0  0  0  0  0  0  0  0  0  0  0
   13.8026   22.1609   19.0372 H   0  0  0  0  0  0  0  0  0  0  0  0
   15.6067   21.7291   19.2415 H   0  0  0  0  0  0  0  0  0  0  0  0
   16.2184   23.9189   18.4800 H   0  0  0  0  0  0  0  0  0  0  0  0
   14.5000   24.3857   18.3430 H   0  0  0  0  0  0  0  0  0  0  0  0
   15.2732   23.0957   20.9297 H   0  0  0  0  0  0  0  0  0  0  0  0
   16.0147   24.7026   20.6218 H   0  0  0  0  0  0  0  0  0  0  0  0
   14.2274   24.5233   20.6218 H   0  0  0  0  0  0  0  0  0  0  0  0
   15.9994   23.3087   16.3888 H   0  0  0  0  0  0  0  0  0  0  0  0
   16.9636   21.7870   16.8342 H   0  0  0  0  0  0  0  0  0  0  0  0
   16.2744   20.6654   14.8545 H   0  0  0  0  0  0  0  0  0  0  0  0
   15.1190   21.9632   14.4209 H   0  0  0  0  0  0  0  0  0  0  0  0
   17.0879   21.8435   13.3005 H   0  0  0  0  0  0  0  0  0  0  0  0
   16.2209   23.2744   12.5973 H   0  0  0  0  0  0  0  0  0  0  0  0
   16.5366   24.3560   14.0898 H   0  0  0  0  0  0  0  0  0  0  0  0
   17.7609   24.2164   11.6502 H   0  0  0  0  0  0  0  0  0  0  0  0
   17.9670   25.2632   13.2091 H   0  0  0  0  0  0  0  0  0  0  0  0
   19.6977   23.6359   11.8912 H   0  0  0  0  0  0  0  0  0  0  0  0
   19.7644   24.6962   13.4426 H   0  0  0  0  0  0  0  0  0  0  0  0
   20.1360   22.0354   13.0614 H   0  0  0  0  0  0  0  0  0  0  0  0
   20.1671   23.1824   14.5346 H   0  0  0  0  0  0  0  0  0  0  0  0
   18.7693   22.0692   15.3747 H   0  0  0  0  0  0  0  0  0  0  0  0
   18.5415   21.1294   13.7418 H   0  0  0  0  0  0  0  0  0  0  0  0
   10.4191   20.2587   17.7113 H   0  0  0  0  0  0  0  0  0  0  0  0
    9.8442   18.3319   19.1184 H   0  0  0  0  0  0  0  0  0  0  0  0
   11.6324   17.9339   19.1860 H   0  0  0  0  0  0  0  0  0  0  0  0
   10.9463   19.0920   21.2238 H   0  0  0  0  0  0  0  0  0  0  0  0
   12.0666   20.1063   20.2528 H   0  0  0  0  0  0  0  0  0  0  0  0
   10.3056   20.4608   20.2528 H   0  0  0  0  0  0  0  0  0  0  0  0
   10.6399   19.2822   15.9236 H   0  0  0  0  0  0  0  0  0  0  0  0
   12.2141   18.6781   15.2767 H   0  0  0  0  0  0  0  0  0  0  0  0
   12.2559   17.2051   16.4511 H   0  0  0  0  0  0  0  0  0  0  0  0
   11.6156   17.3990   13.8117 H   0  0  0  0  0  0  0  0  0  0  0  0
   11.7075   16.0119   15.0724 H   0  0  0  0  0  0  0  0  0  0  0  0
    9.6430   16.9764   13.5884 H   0  0  0  0  0  0  0  0  0  0  0  0
    9.8623   15.6147   14.8741 H   0  0  0  0  0  0  0  0  0  0  0  0
    8.8600   18.1027   14.7639 H   0  0  0  0  0  0  0  0  0  0  0  0
    7.1135   17.7495   15.7929 H   0  0  0  0  0  0  0  0  0  0  0  0
    9.0435   17.7184   17.3993 H   0  0  0  0  0  0  0  0  0  0  0  0
    8.9859   19.0919   16.0921 H   0  0  0  0  0  0  0  0  0  0  0  0
    8.1969   14.0185   16.2238 H   0  0  0  0  0  0  0  0  0  0  0  0
    5.0461   15.3994   16.2710 H   0  0  0  0  0  0  0  0  0  0  0  0
    6.6206   14.8945   17.6768 H   0  0  0  0  0  0  0  0  0  0  0  0
    8.2287   14.4134   18.1121 H   0  0  0  0  0  0  0  0  0  0  0  0
    8.4030   14.7447   20.0374 H   0  0  0  0  0  0  0  0  0  0  0  0
    9.1628   16.4144   19.5418 H   0  0  0  0  0  0  0  0  0  0  0  0
    7.8717   17.3741   20.0224 H   0  0  0  0  0  0  0  0  0  0  0  0
    5.3290   16.4912   19.9946 H   0  0  0  0  0  0  0  0  0  0  0  0
    6.3339   18.0033   19.5489 H   0  0  0  0  0  0  0  0  0  0  0  0
    6.0970   17.5875   17.6321 H   0  0  0  0  0  0  0  0  0  0  0  0
    5.2607   15.9567   18.1108 H   0  0  0  0  0  0  0  0  0  0  0  0
  1  2  1  0
  2  3  1  0
  3  4  1  0
  4  5  1  0
  1  6  1  0
  5  6  1  0
  2  7  1  0
  4  8  1  0
  6  9  1  1
  9 10  1  0
 10 11  1  0
  6 12  1  0
 12 13  1  0
 13 14  1  0
 14 15  1  0
 15 16  1  0
 16 17  1  0
 17 18  1  0
 14 19  1  0
 18 19  1  0
  3 20  1  0
 20 21  1  0
 21 22  1  0
 20 23  1  0
 23 24  1  0
 24 25  1  0
 25 26  1  0
 26 27  1  0
 27 28  1  0
 23 29  1  0
 27 29  1  0
 28 30  1  0
 30 31  1  1
 30 32  1  0
 30 33  1  0
 33 34  1  0
 34 35  1  0
 35 36  1  0
 36 37  1  0
 33 38  1  0
 37 38  1  0
 36 39  1  0
 39 40  1  1
 39 41  1  0
 39 42  1  0
  2 43  1  0
  3 44  1  0
  4 45  1  0
  5 46  1  0
  5 47  1  0
  7 48  1  0
  8 49  1  0
  9 50  1  0
  9 51  1  0
 10 52  1  0
 10 53  1  0
 11 54  1  0
 11 55  1  0
 11 56  1  0
 12 57  1  0
 12 58  1  0
 13 59  1  0
 13 60  1  0
 14 61  1  0
 15 62  1  0
 15 63  1  0
 16 64  1  0
 16 65  1  0
 17 66  1  0
 17 67  1  0
 18 68  1  0
 18 69  1  0
 19 70  1  0
 19 71  1  0
 20 72  1  1
 21 73  1  0
 21 74  1  0
 22 75  1  0
 22 76  1  0
 22 77  1  0
 23 78  1  0
 24 79  1  0
 24 80  1  0
 25 81  1  0
 25 82  1  0
 26 83  1  0
 26 84  1  0
 27 85  1  0
 28 86  1  0
 29 87  1  0
 29 88  1  0
 31 89  1  0
 32 90  1  0
 33 91  1  1
 34 92  1  0
 35 93  1  0
 35 94  1  0
 36 95  1  1
 37 96  1  0
 37 97  1  0
 38 98  1  0
 38 99  1  0
M  END
>  <PDBID>  (1) 
2O4P

>  <PDB ID>  (1) 
2O4P

>  <Generic Name>  (1) 
Tipranavir

>  <Brand Name>  (1) 
Aptivus

>  <DrugBank ID>  (1) 
DB00932

>  <ATC Codes>  (1) 
J05AE09

>  <Ligand ID>  (1) 
TPV

>  <Target Name>  (1) 
Pol polyprotein

>  <UniProt ID>  (1) 
Q72874

>  <PDB ID.1>  (1) 
2O4P

>  <Seq. Identity>  (1) 
98%

$$$$
