PDB_DB00773_99
     RDKit          3D

 74 80  0  0  0  0  0  0  0  0999 V2000
   32.3120  -23.2600  -63.8360 C   0  0  0  0  0  0  0  0  0  0  0  0
   32.9210  -23.9950  -62.8240 O   0  0  0  0  0  0  0  0  0  0  0  0
   31.8560  -22.2840  -61.9200 C   0  0  0  0  0  0  0  0  0  0  0  0
   31.9330  -22.0550  -63.2680 O   0  0  0  0  0  0  0  0  0  0  0  0
   31.2460  -21.4630  -60.7830 C   0  0  0  0  0  0  0  0  0  0  0  0
   30.2660  -22.1280  -54.5440 O   0  0  0  0  0  0  0  0  0  0  0  0
   31.3060  -21.9650  -59.3730 C   0  0  0  0  0  0  0  0  0  0  0  0
   30.2120  -19.8470  -55.2190 O   0  0  0  0  0  0  0  0  0  0  0  0
   30.6550  -21.1030  -58.1710 C   0  0  2  0  0  0  0  0  0  0  0  0
   26.1810  -22.5560  -60.3490 O   0  0  0  0  0  0  0  0  0  0  0  0
   30.9780  -21.5720  -56.7810 C   0  0  1  0  0  0  0  0  0  0  0  0
   24.8030  -20.2870  -59.1510 O   0  0  0  0  0  0  0  0  0  0  0  0
   30.3820  -21.0180  -55.4850 C   0  0  0  0  0  0  0  0  0  0  0  0
   26.2790  -18.4150  -57.4720 O   0  0  0  0  0  0  0  0  0  0  0  0
   30.8050  -23.3250  -55.1920 C   0  0  0  0  0  0  0  0  0  0  0  0
   33.2950  -23.7400  -56.9760 O   0  0  0  0  0  0  0  0  0  0  0  0
   30.9730  -23.0210  -56.6580 C   0  0  2  0  0  0  0  0  0  0  0  0
   33.1350  -25.6320  -56.2100 O   0  0  0  0  0  0  0  0  0  0  0  0
   31.9840  -23.7020  -57.5940 C   0  0  1  0  0  0  0  0  0  0  0  0
   33.5000  -27.8020  -53.4720 O   0  0  0  0  0  0  0  0  0  0  0  0
   31.9420  -23.2140  -59.0750 C   0  0  0  0  0  0  0  0  0  0  0  0
   35.7230  -27.2240  -54.1580 O   0  0  0  0  0  0  0  0  0  0  0  0
   32.5370  -24.0070  -60.1910 C   0  0  0  0  0  0  0  0  0  0  0  0
   37.0740  -25.1950  -55.9420 O   0  0  0  0  0  0  0  0  0  0  0  0
   32.4650  -23.4820  -61.6440 C   0  0  0  0  0  0  0  0  0  0  0  0
   35.7070  -24.9650  -58.3190 O   0  0  0  0  0  0  0  0  0  0  0  0
   29.1370  -20.8990  -58.4240 C   0  0  0  0  0  0  0  0  0  0  0  0
   28.3660  -21.8640  -59.3040 C   0  0  0  0  0  0  0  0  0  0  0  0
   26.8840  -21.6640  -59.5550 C   0  0  0  0  0  0  0  0  0  0  0  0
   26.1730  -20.4830  -58.9250 C   0  0  0  0  0  0  0  0  0  0  0  0
   26.9390  -19.5150  -58.0560 C   0  0  0  0  0  0  0  0  0  0  0  0
   28.4170  -19.7180  -57.8080 C   0  0  0  0  0  0  0  0  0  0  0  0
   25.8920  -22.2530  -61.6730 C   0  0  0  0  0  0  0  0  0  0  0  0
   26.9890  -17.5560  -56.6230 C   0  0  0  0  0  0  0  0  0  0  0  0
   33.9130  -25.1440  -57.1790 C   0  0  2  0  0  0  0  0  0  0  0  0
   33.8010  -26.5980  -55.4140 C   0  0  2  0  0  0  0  0  0  0  0  0
   32.9790  -26.8350  -54.3330 C   0  0  0  0  0  0  0  0  0  0  0  0
   34.8870  -27.6130  -53.0950 C   0  0  2  0  0  0  0  0  0  0  0  0
   35.1970  -26.2110  -54.9000 C   0  0  2  0  0  0  0  0  0  0  0  0
   35.8390  -25.7440  -56.2250 C   0  0  1  0  0  0  0  0  0  0  0  0
   35.0670  -24.7780  -57.0150 C   0  0  1  0  0  0  0  0  0  0  0  0
   35.3940  -28.8710  -52.4630 C   0  0  0  0  0  0  0  0  0  0  0  0
   33.0202  -23.0866  -64.6597 H   0  0  0  0  0  0  0  0  0  0  0  0
   31.4460  -23.7952  -64.2527 H   0  0  0  0  0  0  0  0  0  0  0  0
   30.7613  -20.5000  -61.0015 H   0  0  0  0  0  0  0  0  0  0  0  0
   31.1500  -20.1210  -58.1966 H   0  0  0  0  0  0  0  0  0  0  0  0
   31.9499  -21.0570  -56.7908 H   0  0  0  0  0  0  0  0  0  0  0  0
   24.3388  -19.5155  -58.7394 H   0  0  0  0  0  0  0  0  0  0  0  0
   31.7785  -23.5833  -54.7498 H   0  0  0  0  0  0  0  0  0  0  0  0
   30.1229  -24.1767  -55.0526 H   0  0  0  0  0  0  0  0  0  0  0  0
   30.1211  -23.5657  -57.0910 H   0  0  0  0  0  0  0  0  0  0  0  0
   31.6692  -24.7488  -57.7172 H   0  0  0  0  0  0  0  0  0  0  0  0
   33.0284  -24.9681  -59.9792 H   0  0  0  0  0  0  0  0  0  0  0  0
   37.1943  -25.1415  -54.9608 H   0  0  0  0  0  0  0  0  0  0  0  0
   36.6489  -25.2402  -58.1879 H   0  0  0  0  0  0  0  0  0  0  0  0
   28.8866  -22.7167  -59.7643 H   0  0  0  0  0  0  0  0  0  0  0  0
   28.9704  -19.0057  -57.1784 H   0  0  0  0  0  0  0  0  0  0  0  0
   25.1332  -21.4575  -61.7099 H   0  0  0  0  0  0  0  0  0  0  0  0
   26.8068  -21.9109  -62.1790 H   0  0  0  0  0  0  0  0  0  0  0  0
   25.5070  -23.1507  -62.1790 H   0  0  0  0  0  0  0  0  0  0  0  0
   26.7744  -17.8156  -55.5758 H   0  0  0  0  0  0  0  0  0  0  0  0
   28.0673  -17.6612  -56.8133 H   0  0  0  0  0  0  0  0  0  0  0  0
   26.6827  -16.5168  -56.8133 H   0  0  0  0  0  0  0  0  0  0  0  0
   33.9448  -25.8556  -58.0173 H   0  0  0  0  0  0  0  0  0  0  0  0
   33.9825  -27.4735  -56.0548 H   0  0  0  0  0  0  0  0  0  0  0  0
   32.0013  -27.1793  -54.7011 H   0  0  0  0  0  0  0  0  0  0  0  0
   32.8881  -25.8957  -53.7677 H   0  0  0  0  0  0  0  0  0  0  0  0
   34.9157  -26.7767  -52.3810 H   0  0  0  0  0  0  0  0  0  0  0  0
   35.3194  -25.4118  -54.1542 H   0  0  0  0  0  0  0  0  0  0  0  0
   35.8957  -26.6457  -56.8525 H   0  0  0  0  0  0  0  0  0  0  0  0
   35.0499  -23.7742  -56.5654 H   0  0  0  0  0  0  0  0  0  0  0  0
   35.3545  -28.7730  -51.3681 H   0  0  0  0  0  0  0  0  0  0  0  0
   34.7671  -29.7181  -52.7782 H   0  0  0  0  0  0  0  0  0  0  0  0
   36.4331  -29.0467  -52.7782 H   0  0  0  0  0  0  0  0  0  0  0  0
  1  2  1  0
  1  4  1  0
  3  4  1  0
  3  5  1  0
  5  7  2  0
  7  9  1  0
  9 11  1  0
  6 13  1  0
  8 13  2  0
 11 13  1  0
  6 15  1  0
 11 17  1  0
 15 17  1  0
 16 19  1  0
 17 19  1  0
  7 21  1  0
 19 21  1  0
 21 23  2  0
  2 25  1  0
  3 25  2  0
 23 25  1  0
  9 27  1  0
 27 28  2  0
 10 29  1  0
 28 29  1  0
 12 30  1  0
 29 30  2  0
 14 31  1  0
 30 31  1  0
 27 32  1  0
 31 32  2  0
 10 33  1  0
 14 34  1  0
 16 35  1  0
 18 35  1  0
 18 36  1  0
 20 37  1  0
 36 37  1  0
 20 38  1  0
 22 38  1  0
 22 39  1  0
 36 39  1  0
 24 40  1  0
 39 40  1  0
 26 41  1  0
 35 41  1  0
 40 41  1  0
 38 42  1  0
  1 43  1  0
  1 44  1  0
  5 45  1  0
  9 46  1  1
 11 47  1  1
 12 48  1  0
 15 49  1  0
 15 50  1  0
 17 51  1  6
 19 52  1  6
 23 53  1  0
 24 54  1  0
 26 55  1  0
 28 56  1  0
 32 57  1  0
 33 58  1  0
 33 59  1  0
 33 60  1  0
 34 61  1  0
 34 62  1  0
 34 63  1  0
 35 64  1  6
 36 65  1  6
 37 66  1  0
 37 67  1  0
 38 68  1  1
 39 69  1  1
 40 70  1  6
 41 71  1  1
 42 72  1  0
 42 73  1  0
 42 74  1  0
M  END
$$$$
