PDB_DB00877_96
     RDKit          3D

162165  0  0  0  0  0  0  0  0999 V2000
   36.0000   53.5320   34.2020 C   0  0  0  0  0  0  0  0  0  0  0  0
   36.3490   52.4930   35.0800 O   0  0  0  0  0  0  0  0  0  0  0  0
   34.8740   53.8900   34.0440 O   0  0  0  0  0  0  0  0  0  0  0  0
   37.1780   54.1860   33.5150 C   0  0  2  0  0  0  0  0  0  0  0  0
   36.9380   54.1750   31.9920 C   0  0  0  0  0  0  0  0  0  0  0  0
   37.1580   52.8120   31.3730 C   0  0  0  0  0  0  0  0  0  0  0  0
   38.5600   52.3690   31.6550 C   0  0  0  0  0  0  0  0  0  0  0  0
   38.7880   52.3010   33.1880 C   0  0  0  0  0  0  0  0  0  0  0  0
   38.4970   53.6030   33.8010 N   0  0  0  0  0  0  0  0  0  0  0  0
   39.3400   54.3580   34.5460 C   0  0  0  0  0  0  0  0  0  0  0  0
   39.0950   55.4260   35.0510 O   0  0  0  0  0  0  0  0  0  0  0  0
   40.6910   53.8350   34.7780 C   0  0  0  0  0  0  0  0  0  0  0  0
   41.5620   54.0930   33.9350 O   0  0  0  0  0  0  0  0  0  0  0  0
   41.0170   53.0020   36.0110 C   0  0  1  0  0  0  0  0  0  0  0  0
   40.4770   51.7210   35.7100 O   0  0  0  0  0  0  0  0  0  0  0  0
   42.4330   52.9190   36.1340 O   0  0  0  0  0  0  0  0  0  0  0  0
   40.3840   53.5570   37.3060 C   0  0  1  0  0  0  0  0  0  0  0  0
   40.5460   52.5400   38.4430 C   0  0  0  0  0  0  0  0  0  0  0  0
   40.0560   51.1500   38.0160 C   0  0  0  0  0  0  0  0  0  0  0  0
   40.6810   50.7150   36.6960 C   0  0  1  0  0  0  0  0  0  0  0  0
   39.9130   49.5350   36.1140 C   0  0  0  0  0  0  0  0  0  0  0  0
   40.0180   48.2270   36.8860 C   0  0  2  0  0  0  0  0  0  0  0  0
   41.3950   47.9000   37.0020 O   0  0  0  0  0  0  0  0  0  0  0  0
   39.1950   47.1220   36.2020 C   0  0  1  0  0  0  0  0  0  0  0  0
   38.1340   46.6070   36.8520 C   0  0  0  0  0  0  0  0  0  0  0  0
   37.2040   45.6000   36.2910 C   0  0  0  0  0  0  0  0  0  0  0  0
   36.1820   45.1400   37.0200 C   0  0  0  0  0  0  0  0  0  0  0  0
   35.2390   44.2230   36.3710 C   0  0  0  0  0  0  0  0  0  0  0  0
   34.1080   43.8840   36.9820 C   0  0  0  0  0  0  0  0  0  0  0  0
   33.0580   42.9930   36.3650 C   0  0  2  0  0  0  0  0  0  0  0  0
   31.7270   43.7700   36.2730 C   0  0  0  0  0  0  0  0  0  0  0  0
   31.7510   45.0460   35.4390 C   0  0  2  0  0  0  0  0  0  0  0  0
   30.5690   45.8800   35.8620 C   0  0  0  0  0  0  0  0  0  0  0  0
   29.5000   45.7890   35.2890 O   0  0  0  0  0  0  0  0  0  0  0  0
   30.7300   46.8100   37.0220 C   0  0  2  0  0  0  0  0  0  0  0  0
   29.4680   47.2050   37.5190 O   0  0  0  0  0  0  0  0  0  0  0  0
   31.4030   48.1280   36.6480 C   0  0  2  0  0  0  0  0  0  0  0  0
   30.7440   48.6200   35.4780 O   0  0  0  0  0  0  0  0  0  0  0  0
   32.8830   48.0140   36.4890 C   0  0  0  0  0  0  0  0  0  0  0  0
   33.4760   48.1680   35.3000 C   0  0  0  0  0  0  0  0  0  0  0  0
   34.9450   48.1330   34.9620 C   0  0  2  0  0  0  0  0  0  0  0  0
   35.3480   49.5740   34.7390 C   0  0  0  0  0  0  0  0  0  0  0  0
   35.4410   50.0640   33.6200 O   0  0  0  0  0  0  0  0  0  0  0  0
   35.6550   50.4350   35.9630 C   0  0  0  0  0  0  0  0  0  0  0  0
   35.2710   51.9010   35.8170 C   0  0  1  0  0  0  0  0  0  0  0  0
   35.1280   52.6070   37.1410 C   0  0  1  0  0  0  0  0  0  0  0  0
   33.9490   52.1370   37.9990 C   0  0  0  0  0  0  0  0  0  0  0  0
   32.5550   52.2660   37.3460 C   0  0  1  0  0  0  0  0  0  0  0  0
   31.5180   51.8580   38.4080 C   0  0  0  0  0  0  0  0  0  0  0  0
   30.0920   51.9500   37.8720 C   0  0  1  0  0  0  0  0  0  0  0  0
   29.1460   51.6310   38.9240 O   0  0  0  0  0  0  0  0  0  0  0  0
   29.8000   53.3680   37.3900 C   0  0  2  0  0  0  0  0  0  0  0  0
   28.4670   53.4660   36.8350 O   0  0  0  0  0  0  0  0  0  0  0  0
   30.8240   53.7720   36.3180 C   0  0  0  0  0  0  0  0  0  0  0  0
   32.2460   53.6820   36.8550 C   0  0  0  0  0  0  0  0  0  0  0  0
   40.9530   54.9120   37.7020 C   0  0  0  0  0  0  0  0  0  0  0  0
   39.6720   46.5600   34.8750 C   0  0  0  0  0  0  0  0  0  0  0  0
   32.8570   41.7440   37.2220 C   0  0  0  0  0  0  0  0  0  0  0  0
   31.7690   44.7630   33.9270 C   0  0  0  0  0  0  0  0  0  0  0  0
   33.6540   47.7540   37.7570 C   0  0  0  0  0  0  0  0  0  0  0  0
   35.1970   47.2650   33.7130 C   0  0  0  0  0  0  0  0  0  0  0  0
   36.3820   52.4840   38.0380 C   0  0  0  0  0  0  0  0  0  0  0  0
   41.6220   46.7820   37.8820 C   0  0  0  0  0  0  0  0  0  0  0  0
   28.9280   46.2970   38.4700 C   0  0  0  0  0  0  0  0  0  0  0  0
   29.1320   50.2310   39.2810 C   0  0  0  0  0  0  0  0  0  0  0  0
   35.8828   52.8033   33.3863 H   0  0  0  0  0  0  0  0  0  0  0  0
   34.4444   54.0266   34.9254 H   0  0  0  0  0  0  0  0  0  0  0  0
   37.2235   55.2045   33.9280 H   0  0  0  0  0  0  0  0  0  0  0  0
   35.9010   54.4860   31.7975 H   0  0  0  0  0  0  0  0  0  0  0  0
   37.6635   54.8658   31.5377 H   0  0  0  0  0  0  0  0  0  0  0  0
   36.4492   52.0912   31.8067 H   0  0  0  0  0  0  0  0  0  0  0  0
   36.9972   52.8671   30.2862 H   0  0  0  0  0  0  0  0  0  0  0  0
   38.7243   51.3737   31.2163 H   0  0  0  0  0  0  0  0  0  0  0  0
   39.2653   53.0882   31.2132 H   0  0  0  0  0  0  0  0  0  0  0  0
   38.1236   51.5387   33.6209 H   0  0  0  0  0  0  0  0  0  0  0  0
   39.8380   52.0381   33.3839 H   0  0  0  0  0  0  0  0  0  0  0  0
   39.6876   54.8682   33.6356 H   0  0  0  0  0  0  0  0  0  0  0  0
   39.1153   55.3373   36.0368 H   0  0  0  0  0  0  0  0  0  0  0  0
   40.4306   52.9184   34.2284 H   0  0  0  0  0  0  0  0  0  0  0  0
   42.4027   54.3420   34.3947 H   0  0  0  0  0  0  0  0  0  0  0  0
   42.6807   52.9045   37.0924 H   0  0  0  0  0  0  0  0  0  0  0  0
   39.3134   53.7159   37.1098 H   0  0  0  0  0  0  0  0  0  0  0  0
   41.6088   52.4768   38.7196 H   0  0  0  0  0  0  0  0  0  0  0  0
   39.9424   52.8749   39.2995 H   0  0  0  0  0  0  0  0  0  0  0  0
   40.3251   50.4218   38.7953 H   0  0  0  0  0  0  0  0  0  0  0  0
   38.9653   51.1965   37.8810 H   0  0  0  0  0  0  0  0  0  0  0  0
   41.7389   50.4972   36.9046 H   0  0  0  0  0  0  0  0  0  0  0  0
   38.8501   49.8146   36.0677 H   0  0  0  0  0  0  0  0  0  0  0  0
   40.3687   49.3385   35.1323 H   0  0  0  0  0  0  0  0  0  0  0  0
   39.5937   48.3308   37.8955 H   0  0  0  0  0  0  0  0  0  0  0  0
   39.8437   46.3581   36.6556 H   0  0  0  0  0  0  0  0  0  0  0  0
   38.5421   46.1526   37.7669 H   0  0  0  0  0  0  0  0  0  0  0  0
   37.4759   47.4877   36.8889 H   0  0  0  0  0  0  0  0  0  0  0  0
   36.7691   46.0437   35.3833 H   0  0  0  0  0  0  0  0  0  0  0  0
   37.8427   44.7123   36.1723 H   0  0  0  0  0  0  0  0  0  0  0  0
   36.6078   44.6138   37.8871 H   0  0  0  0  0  0  0  0  0  0  0  0
   35.5841   46.0330   37.2546 H   0  0  0  0  0  0  0  0  0  0  0  0
   34.9555   44.6854   35.4140 H   0  0  0  0  0  0  0  0  0  0  0  0
   35.7968   43.2757   36.3326 H   0  0  0  0  0  0  0  0  0  0  0  0
   34.4092   43.3891   37.9171 H   0  0  0  0  0  0  0  0  0  0  0  0
   33.5810   44.8493   37.0046 H   0  0  0  0  0  0  0  0  0  0  0  0
   33.3867   42.6880   35.3605 H   0  0  0  0  0  0  0  0  0  0  0  0
   30.9746   43.0970   35.8359 H   0  0  0  0  0  0  0  0  0  0  0  0
   31.5020   44.0928   37.3002 H   0  0  0  0  0  0  0  0  0  0  0  0
   32.6838   45.5993   35.6226 H   0  0  0  0  0  0  0  0  0  0  0  0
   30.8767   46.6710   35.1623 H   0  0  0  0  0  0  0  0  0  0  0  0
   28.7718   45.7270   35.9569 H   0  0  0  0  0  0  0  0  0  0  0  0
   31.3363   46.2459   37.7460 H   0  0  0  0  0  0  0  0  0  0  0  0
   31.2944   48.8496   37.4711 H   0  0  0  0  0  0  0  0  0  0  0  0
   29.9800   49.1904   35.7448 H   0  0  0  0  0  0  0  0  0  0  0  0
   32.7794   46.9357   36.2977 H   0  0  0  0  0  0  0  0  0  0  0  0
   33.0312   47.3846   34.6688 H   0  0  0  0  0  0  0  0  0  0  0  0
   33.3150   49.2500   35.1843 H   0  0  0  0  0  0  0  0  0  0  0  0
   35.5425   47.6800   35.7669 H   0  0  0  0  0  0  0  0  0  0  0  0
   36.4047   49.2716   34.6944 H   0  0  0  0  0  0  0  0  0  0  0  0
   35.6250   51.0336   33.6986 H   0  0  0  0  0  0  0  0  0  0  0  0
   35.1061   50.0200   36.8212 H   0  0  0  0  0  0  0  0  0  0  0  0
   36.7465   50.4097   36.0971 H   0  0  0  0  0  0  0  0  0  0  0  0
   34.2927   51.9888   35.3218 H   0  0  0  0  0  0  0  0  0  0  0  0
   34.9625   53.6469   36.8228 H   0  0  0  0  0  0  0  0  0  0  0  0
   34.1107   51.0771   38.2449 H   0  0  0  0  0  0  0  0  0  0  0  0
   33.9326   52.7998   38.8768 H   0  0  0  0  0  0  0  0  0  0  0  0
   32.5249   51.6185   36.4572 H   0  0  0  0  0  0  0  0  0  0  0  0
   31.7154   50.8214   38.7188 H   0  0  0  0  0  0  0  0  0  0  0  0
   31.6090   52.5497   39.2584 H   0  0  0  0  0  0  0  0  0  0  0  0
   29.9926   51.2389   37.0386 H   0  0  0  0  0  0  0  0  0  0  0  0
   29.8715   54.0443   38.2546 H   0  0  0  0  0  0  0  0  0  0  0  0
   27.8061   53.5146   37.5705 H   0  0  0  0  0  0  0  0  0  0  0  0
   30.7234   53.0991   35.4537 H   0  0  0  0  0  0  0  0  0  0  0  0
   30.6278   54.8134   36.0229 H   0  0  0  0  0  0  0  0  0  0  0  0
   32.3603   54.3865   37.6920 H   0  0  0  0  0  0  0  0  0  0  0  0
   32.9449   53.9333   36.0436 H   0  0  0  0  0  0  0  0  0  0  0  0
   40.9856   54.9896   38.7988 H   0  0  0  0  0  0  0  0  0  0  0  0
   41.9704   55.0151   37.2967 H   0  0  0  0  0  0  0  0  0  0  0  0
   40.3142   55.7106   37.2967 H   0  0  0  0  0  0  0  0  0  0  0  0
   40.3739   45.7330   35.0581 H   0  0  0  0  0  0  0  0  0  0  0  0
   38.8091   46.1887   34.3027 H   0  0  0  0  0  0  0  0  0  0  0  0
   40.1786   47.3510   34.3027 H   0  0  0  0  0  0  0  0  0  0  0  0
   32.9012   42.0186   38.2863 H   0  0  0  0  0  0  0  0  0  0  0  0
   31.8758   41.2999   36.9983 H   0  0  0  0  0  0  0  0  0  0  0  0
   33.6493   41.0144   36.9983 H   0  0  0  0  0  0  0  0  0  0  0  0
   31.8380   43.6783   33.7578 H   0  0  0  0  0  0  0  0  0  0  0  0
   30.8446   45.1472   33.4710 H   0  0  0  0  0  0  0  0  0  0  0  0
   32.6373   45.2612   33.4710 H   0  0  0  0  0  0  0  0  0  0  0  0
   33.0146   47.9696   38.6257 H   0  0  0  0  0  0  0  0  0  0  0  0
   33.9682   46.7002   37.7856 H   0  0  0  0  0  0  0  0  0  0  0  0
   34.5422   48.4023   37.7856 H   0  0  0  0  0  0  0  0  0  0  0  0
   35.4912   46.2517   34.0240 H   0  0  0  0  0  0  0  0  0  0  0  0
   34.2773   47.2116   33.1120 H   0  0  0  0  0  0  0  0  0  0  0  0
   36.0023   47.7124   33.1120 H   0  0  0  0  0  0  0  0  0  0  0  0
   36.0807   52.5136   39.0955 H   0  0  0  0  0  0  0  0  0  0  0  0
   36.8909   51.5316   37.8282 H   0  0  0  0  0  0  0  0  0  0  0  0
   37.0662   53.3193   37.8282 H   0  0  0  0  0  0  0  0  0  0  0  0
   41.5537   47.1182   38.9271 H   0  0  0  0  0  0  0  0  0  0  0  0
   40.8626   46.0084   37.6954 H   0  0  0  0  0  0  0  0  0  0  0  0
   42.6230   46.3658   37.6954 H   0  0  0  0  0  0  0  0  0  0  0  0
   29.1434   46.6591   39.4861 H   0  0  0  0  0  0  0  0  0  0  0  0
   27.8394   46.2237   38.3299 H   0  0  0  0  0  0  0  0  0  0  0  0
   29.3833   45.3055   38.3299 H   0  0  0  0  0  0  0  0  0  0  0  0
   29.1310   50.1320   40.3765 H   0  0  0  0  0  0  0  0  0  0  0  0
   28.2291   49.7566   38.8691 H   0  0  0  0  0  0  0  0  0  0  0  0
   30.0253   49.7386   38.8691 H   0  0  0  0  0  0  0  0  0  0  0  0
  1  2  1  0
  1  3  1  0
  1  4  1  0
  4  5  1  0
  5  6  1  0
  6  7  1  0
  7  8  1  0
  4  9  1  0
  8  9  1  0
  9 10  1  0
 10 11  1  0
 10 12  1  0
 12 13  1  0
 12 14  1  0
 14 15  1  0
 14 16  1  1
 14 17  1  0
 17 18  1  0
 18 19  1  0
 15 20  1  0
 19 20  1  0
 20 21  1  0
 21 22  1  0
 22 23  1  0
 22 24  1  0
 24 25  1  0
 25 26  1  0
 26 27  1  0
 27 28  1  0
 28 29  1  0
 29 30  1  0
 30 31  1  0
 31 32  1  0
 32 33  1  0
 33 34  1  0
 33 35  1  0
 35 36  1  0
 35 37  1  0
 37 38  1  0
 37 39  1  0
 39 40  1  0
 40 41  1  0
 41 42  1  0
 42 43  1  0
 42 44  1  0
  2 45  1  0
 44 45  1  0
 45 46  1  0
 46 47  1  0
 47 48  1  0
 48 49  1  0
 49 50  1  0
 50 51  1  0
 50 52  1  0
 52 53  1  0
 52 54  1  0
 48 55  1  0
 54 55  1  0
 17 56  1  0
 24 57  1  0
 30 58  1  0
 32 59  1  0
 39 60  1  0
 41 61  1  0
 46 62  1  0
 23 63  1  0
 36 64  1  0
 51 65  1  0
  1 66  1  0
  3 67  1  0
  4 68  1  1
  5 69  1  0
  5 70  1  0
  6 71  1  0
  6 72  1  0
  7 73  1  0
  7 74  1  0
  8 75  1  0
  8 76  1  0
 10 77  1  0
 11 78  1  0
 12 79  1  0
 13 80  1  0
 16 81  1  0
 17 82  1  6
 18 83  1  0
 18 84  1  0
 19 85  1  0
 19 86  1  0
 20 87  1  1
 21 88  1  0
 21 89  1  0
 22 90  1  1
 24 91  1  6
 25 92  1  0
 25 93  1  0
 26 94  1  0
 26 95  1  0
 27 96  1  0
 27 97  1  0
 28 98  1  0
 28 99  1  0
 29100  1  0
 29101  1  0
 30102  1  6
 31103  1  0
 31104  1  0
 32105  1  1
 33106  1  0
 34107  1  0
 35108  1  1
 37109  1  1
 38110  1  0
 39111  1  0
 40112  1  0
 40113  1  0
 41114  1  1
 42115  1  0
 43116  1  0
 44117  1  0
 44118  1  0
 45119  1  6
 46120  1  6
 47121  1  0
 47122  1  0
 48123  1  6
 49124  1  0
 49125  1  0
 50126  1  6
 52127  1  1
 53128  1  0
 54129  1  0
 54130  1  0
 55131  1  0
 55132  1  0
 56133  1  0
 56134  1  0
 56135  1  0
 57136  1  0
 57137  1  0
 57138  1  0
 58139  1  0
 58140  1  0
 58141  1  0
 59142  1  0
 59143  1  0
 59144  1  0
 60145  1  0
 60146  1  0
 60147  1  0
 61148  1  0
 61149  1  0
 61150  1  0
 62151  1  0
 62152  1  0
 62153  1  0
 63154  1  0
 63155  1  0
 63156  1  0
 64157  1  0
 64158  1  0
 64159  1  0
 65160  1  0
 65161  1  0
 65162  1  0
M  END
>  <PDBID>  (1) 
4DRI

>  <PDB ID>  (1) 
4DRI

>  <Generic Name>  (1) 
Sirolimus

>  <Brand Name>  (1) 
Gd-sirolimus#Rapamune#Rapamune Oral Solution#Sirolimus

>  <DrugBank ID>  (1) 
DB00877

>  <ATC Codes>  (1) 
S01XA23#L04AA10

>  <Ligand ID>  (1) 
RAP

>  <Target Name>  (1) 
Serine/threonine-protein kinase mTOR

>  <UniProt ID>  (1) 
P42345

>  <PDB ID.1>  (1) 
4DRI

>  <Seq. Identity>  (1) 
100%

$$$$
