PDB_DB00558_97
     RDKit          3D

 43 43  0  0  0  0  0  0  0  0999 V2000
   46.0370   16.4080   23.3930 C   0  0  0  0  0  0  0  0  0  0  0  0
   46.4990   17.4570   23.2330 O   0  0  0  0  0  0  0  0  0  0  0  0
   45.4220   16.0320   24.5280 O   0  0  0  0  0  0  0  0  0  0  0  0
   46.2220   15.3440   22.3290 C   0  0  0  0  0  0  0  0  0  0  0  0
   45.5770   13.9320   22.4220 C   0  0  0  0  0  0  0  0  0  0  0  0
   45.7240   12.9910   21.2630 C   0  0  1  0  0  0  0  0  0  0  0  0
   46.6160   13.4160   20.1260 C   0  0  1  0  0  0  0  0  0  0  0  0
   46.7820   12.6160   18.9770 N   0  0  0  0  0  0  0  0  0  0  0  0
   47.4440   11.4130   18.8420 C   0  0  0  0  0  0  0  0  0  0  0  0
   48.2350   11.0790   19.5840 O   0  0  0  0  0  0  0  0  0  0  0  0
   47.1210   10.7140   17.5470 C   0  0  0  0  0  0  0  0  0  0  0  0
   46.9700   14.8810   19.9890 C   0  0  1  0  0  0  0  0  0  0  0  0
   46.8070   15.7230   21.0840 O   0  0  0  0  0  0  0  0  0  0  0  0
   48.2480   15.2900   19.2250 C   0  0  2  0  0  0  0  0  0  0  0  0
   49.3470   14.9880   19.9290 O   0  0  0  0  0  0  0  0  0  0  0  0
   48.2090   16.7530   18.7820 C   0  0  2  0  0  0  0  0  0  0  0  0
   47.0200   17.0970   18.3030 O   0  0  0  0  0  0  0  0  0  0  0  0
   49.3760   17.0890   17.9010 C   0  0  0  0  0  0  0  0  0  0  0  0
   49.3180   16.6720   16.6420 O   0  0  0  0  0  0  0  0  0  0  0  0
   45.6830   11.6280   21.5910 N   0  0  0  0  0  0  0  0  0  0  0  0
   45.0540   10.6200   20.8460 C   0  0  0  0  0  0  0  0  0  0  0  0
   44.4060   10.8840   19.7470 N   0  0  0  0  0  0  0  0  0  0  0  0
   45.1870    9.4210   21.3330 N   0  0  0  0  0  0  0  0  0  0  0  0
   46.9402   17.6779   22.3747 H   0  0  0  0  0  0  0  0  0  0  0  0
   45.0225   13.6285   23.3222 H   0  0  0  0  0  0  0  0  0  0  0  0
   44.7633   13.1200   20.7430 H   0  0  0  0  0  0  0  0  0  0  0  0
   47.4762   12.9923   20.6649 H   0  0  0  0  0  0  0  0  0  0  0  0
   46.3479   12.9810   18.1172 H   0  0  0  0  0  0  0  0  0  0  0  0
   46.6685    9.7347   17.7619 H   0  0  0  0  0  0  0  0  0  0  0  0
   46.4140   11.3252   16.9668 H   0  0  0  0  0  0  0  0  0  0  0  0
   48.0447   10.5717   16.9668 H   0  0  0  0  0  0  0  0  0  0  0  0
   46.1234   15.0547   19.3086 H   0  0  0  0  0  0  0  0  0  0  0  0
   48.2896   14.6985   18.2985 H   0  0  0  0  0  0  0  0  0  0  0  0
   49.1447   15.0436   20.8965 H   0  0  0  0  0  0  0  0  0  0  0  0
   48.3337   17.3912   19.6692 H   0  0  0  0  0  0  0  0  0  0  0  0
   46.4008   17.2762   19.0544 H   0  0  0  0  0  0  0  0  0  0  0  0
   49.4749   18.1844   17.8840 H   0  0  0  0  0  0  0  0  0  0  0  0
   50.2307   16.5542   18.3410 H   0  0  0  0  0  0  0  0  0  0  0  0
   49.1816   15.6916   16.6251 H   0  0  0  0  0  0  0  0  0  0  0  0
   43.9537   10.1231   19.2204 H   0  0  0  0  0  0  0  0  0  0  0  0
   44.3460   11.8536   19.4047 H   0  0  0  0  0  0  0  0  0  0  0  0
   44.7574    8.6187   20.8507 H   0  0  0  0  0  0  0  0  0  0  0  0
   45.7219    9.2740   22.2009 H   0  0  0  0  0  0  0  0  0  0  0  0
  1  2  1  0
  1  3  2  0
  1  4  1  0
  4  5  2  0
  5  6  1  0
  6  7  1  0
  7  8  1  0
  8  9  1  0
  9 10  2  0
  9 11  1  0
  7 12  1  0
  4 13  1  0
 12 13  1  0
 12 14  1  0
 14 15  1  0
 14 16  1  0
 16 17  1  0
 16 18  1  0
 18 19  1  0
  6 20  1  0
 20 21  2  3
 21 22  1  0
 21 23  1  0
  2 24  1  0
  5 25  1  0
  6 26  1  6
  7 27  1  1
  8 28  1  0
 11 29  1  0
 11 30  1  0
 11 31  1  0
 12 32  1  6
 14 33  1  6
 15 34  1  0
 16 35  1  1
 17 36  1  0
 18 37  1  0
 18 38  1  0
 19 39  1  0
 22 40  1  0
 22 41  1  0
 23 42  1  0
 23 43  1  0
M  END
$$$$
