PDB_DB08901_99
     RDKit          3D

184192  0  0  0  0  0  0  0  0999 V2000
    4.0990   -7.3350   13.8870 N   0  0  0  0  0  0  0  0  0  0  0  0
    7.3470    7.8260   19.1290 N   0  0  0  0  0  0  0  0  0  0  0  0
    3.1070   -2.6590   13.9120 C   0  0  0  0  0  0  0  0  0  0  0  0
    3.1220   -1.2140   13.7470 C   0  0  0  0  0  0  0  0  0  0  0  0
    2.5160   -0.5430   12.6120 C   0  0  0  0  0  0  0  0  0  0  0  0
    2.5780    0.8730   12.5170 C   0  0  0  0  0  0  0  0  0  0  0  0
    3.2500    1.6510   13.5530 C   0  0  0  0  0  0  0  0  0  0  0  0
    3.7740   -0.4660   14.7530 C   0  0  0  0  0  0  0  0  0  0  0  0
    5.5010    3.8910   16.4100 C   0  0  0  0  0  0  0  0  0  0  0  0
    6.1520    6.1920   16.9990 C   0  0  0  0  0  0  0  0  0  0  0  0
    7.4800    4.2940   17.8870 C   0  0  0  0  0  0  0  0  0  0  0  0
    8.1170    6.7780   18.4880 C   0  0  0  0  0  0  0  0  0  0  0  0
    6.4910    7.3580   20.2460 C   0  0  0  0  0  0  0  0  0  0  0  0
    5.6030    8.5190   20.7640 C   0  0  0  0  0  0  0  0  0  0  0  0
    8.2400    8.9150   19.6120 C   0  0  0  0  0  0  0  0  0  0  0  0
    2.3430   -8.4240   15.3410 C   0  0  0  0  0  0  0  0  0  0  0  0
    1.2250   -8.1130   16.1130 C   0  0  0  0  0  0  0  0  0  0  0  0
    0.8010   -6.7460   16.2100 C   0  0  0  0  0  0  0  0  0  0  0  0
    1.3940   -5.7030   15.6090 N   0  0  0  0  0  0  0  0  0  0  0  0
    2.4850   -6.0670   14.8640 N   0  0  0  0  0  0  0  0  0  0  0  0
    3.0300   -7.3760   14.6720 C   0  0  0  0  0  0  0  0  0  0  0  0
    4.2680   -5.9990   13.5590 C   0  0  0  0  0  0  0  0  0  0  0  0
    3.2990   -5.2430   14.1420 C   0  0  0  0  0  0  0  0  0  0  0  0
    3.1670   -3.8530   14.0240 C   0  0  0  0  0  0  0  0  0  0  0  0
    3.8520    0.9650   14.6820 C   0  0  0  0  0  0  0  0  0  0  0  0
    1.8100   -1.3310   11.4990 C   0  0  0  0  0  0  0  0  0  0  0  0
    4.5590    1.6720   15.7800 C   0  0  0  0  0  0  0  0  0  0  0  0
    5.0710    1.0120   16.6910 O   0  0  0  0  0  0  0  0  0  0  0  0
    4.5940    3.0340   15.7100 N   0  0  0  0  0  0  0  0  0  0  0  0
    5.2890    5.2840   16.3210 C   0  0  0  0  0  0  0  0  0  0  0  0
    7.2440    5.7280   17.7840 C   0  0  0  0  0  0  0  0  0  0  0  0
    6.5970    3.4030   17.1950 C   0  0  0  0  0  0  0  0  0  0  0  0
    8.6180    3.7040   18.7050 C   0  0  1  0  0  0  0  0  0  0  0  0
    8.4180    3.9600   19.9890 F   0  0  0  0  0  0  0  0  0  0  0  0
    8.6970    2.3840   18.5830 F   0  0  0  0  0  0  0  0  0  0  0  0
    9.7910    4.2330   18.2900 F   0  0  0  0  0  0  0  0  0  0  0  0
    7.3860   10.1020   20.1030 C   0  0  0  0  0  0  0  0  0  0  0  0
    5.5690   10.8130   21.5730 C   0  0  0  0  0  0  0  0  0  0  0  0
    6.4250    9.6910   21.1710 N   0  0  0  0  0  0  0  0  0  0  0  0
    4.2030   42.3560   16.4500 N   0  0  0  0  0  0  0  0  0  0  0  0
    7.8320   27.0100   11.7140 N   0  0  0  0  0  0  0  0  0  0  0  0
    3.1950   37.6460   16.4530 C   0  0  0  0  0  0  0  0  0  0  0  0
    3.2250   36.1890   16.6460 C   0  0  0  0  0  0  0  0  0  0  0  0
    2.6120   35.5410   17.7820 C   0  0  0  0  0  0  0  0  0  0  0  0
    2.7010   34.1180   17.9070 C   0  0  0  0  0  0  0  0  0  0  0  0
    3.3930   33.3260   16.9110 C   0  0  0  0  0  0  0  0  0  0  0  0
    3.9000   35.4100   15.6750 C   0  0  0  0  0  0  0  0  0  0  0  0
    5.7840   31.0310   14.2210 C   0  0  0  0  0  0  0  0  0  0  0  0
    6.4820   28.7300   13.6720 C   0  0  0  0  0  0  0  0  0  0  0  0
    7.8900   30.6190   12.8970 C   0  0  0  0  0  0  0  0  0  0  0  0
    8.5660   28.1100   12.3430 C   0  0  0  0  0  0  0  0  0  0  0  0
    7.0530   27.4310   10.5130 C   0  0  0  0  0  0  0  0  0  0  0  0
    6.2260   26.2590    9.9150 C   0  0  0  0  0  0  0  0  0  0  0  0
    8.7320   25.8720   11.3710 C   0  0  0  0  0  0  0  0  0  0  0  0
    2.5220   43.4160   14.8430 C   0  0  0  0  0  0  0  0  0  0  0  0
    1.4540   43.0780   14.0140 C   0  0  0  0  0  0  0  0  0  0  0  0
    1.0430   41.7160   13.9270 C   0  0  0  0  0  0  0  0  0  0  0  0
    1.5970   40.6780   14.5940 N   0  0  0  0  0  0  0  0  0  0  0  0
    2.6390   41.0600   15.3970 N   0  0  0  0  0  0  0  0  0  0  0  0
    3.1730   42.3780   15.5890 C   0  0  0  0  0  0  0  0  0  0  0  0
    4.3450   41.0160   16.8230 C   0  0  0  0  0  0  0  0  0  0  0  0
    3.4050   40.2460   16.1920 C   0  0  0  0  0  0  0  0  0  0  0  0
    3.2550   38.8440   16.3240 C   0  0  0  0  0  0  0  0  0  0  0  0
    3.9960   33.9830   15.7850 C   0  0  0  0  0  0  0  0  0  0  0  0
    1.8790   36.3380   18.8690 C   0  0  0  0  0  0  0  0  0  0  0  0
    4.7440   33.2450   14.7220 C   0  0  1  0  0  0  0  0  0  0  0  0
    5.2880   33.8860   13.8340 O   0  0  0  0  0  0  0  0  0  0  0  0
    4.8280   31.8960   14.8450 N   0  0  0  0  0  0  0  0  0  0  0  0
    5.5610   29.6430   14.2900 C   0  0  0  0  0  0  0  0  0  0  0  0
    7.6400   29.1890   12.9780 C   0  0  0  0  0  0  0  0  0  0  0  0
    6.9560   31.5150   13.5230 C   0  0  0  0  0  0  0  0  0  0  0  0
    9.1010   31.2200   12.1810 C   0  0  1  0  0  0  0  0  0  0  0  0
    9.0390   31.0090   10.8870 F   0  0  0  0  0  0  0  0  0  0  0  0
    9.1650   32.5160   12.3310 F   0  0  0  0  0  0  0  0  0  0  0  0
   10.2290   30.6850   12.6790 F   0  0  0  0  0  0  0  0  0  0  0  0
    7.9100   24.6800   10.8100 C   0  0  0  0  0  0  0  0  0  0  0  0
    6.2420   23.9530    9.1820 C   0  0  0  0  0  0  0  0  0  0  0  0
    7.0760   25.0740    9.6240 N   0  0  0  0  0  0  0  0  0  0  0  0
    4.9264   -7.6901   14.3871 H   0  0  0  0  0  0  0  0  0  0  0  0
    2.7894   -2.5563   14.9601 H   0  0  0  0  0  0  0  0  0  0  0  0
    2.7584   -2.7738   12.8750 H   0  0  0  0  0  0  0  0  0  0  0  0
    4.0718   -1.2867   13.1969 H   0  0  0  0  0  0  0  0  0  0  0  0
    1.5681   -0.4644   13.1646 H   0  0  0  0  0  0  0  0  0  0  0  0
    3.0851    1.1045   11.5687 H   0  0  0  0  0  0  0  0  0  0  0  0
    1.5257    1.1767   12.6194 H   0  0  0  0  0  0  0  0  0  0  0  0
    4.0520    2.2183   13.0581 H   0  0  0  0  0  0  0  0  0  0  0  0
    2.4361    2.2345   14.0081 H   0  0  0  0  0  0  0  0  0  0  0  0
    3.2643   -0.7040   15.6983 H   0  0  0  0  0  0  0  0  0  0  0  0
    4.8246   -0.7697   14.6348 H   0  0  0  0  0  0  0  0  0  0  0  0
    6.1477    3.9326   15.5211 H   0  0  0  0  0  0  0  0  0  0  0  0
    6.5802    6.8491   16.2277 H   0  0  0  0  0  0  0  0  0  0  0  0
    5.4863    6.6345   17.7546 H   0  0  0  0  0  0  0  0  0  0  0  0
    6.8295    4.2506   18.7730 H   0  0  0  0  0  0  0  0  0  0  0  0
    8.7800    7.2388   17.7409 H   0  0  0  0  0  0  0  0  0  0  0  0
    8.6804    6.2581   19.2768 H   0  0  0  0  0  0  0  0  0  0  0  0
    5.8478    6.5388   19.8921 H   0  0  0  0  0  0  0  0  0  0  0  0
    7.1332    7.0043   21.0661 H   0  0  0  0  0  0  0  0  0  0  0  0
    4.9130    8.8261   19.9643 H   0  0  0  0  0  0  0  0  0  0  0  0
    5.0469    8.1636   21.6440 H   0  0  0  0  0  0  0  0  0  0  0  0
    8.8587    8.5410   20.4410 H   0  0  0  0  0  0  0  0  0  0  0  0
    8.8903    9.2473   18.7894 H   0  0  0  0  0  0  0  0  0  0  0  0
    3.0695   -8.9120   16.0074 H   0  0  0  0  0  0  0  0  0  0  0  0
    1.9371   -9.0380   14.5235 H   0  0  0  0  0  0  0  0  0  0  0  0
    0.3800   -8.6832   15.6996 H   0  0  0  0  0  0  0  0  0  0  0  0
    1.5360   -8.3643   17.1378 H   0  0  0  0  0  0  0  0  0  0  0  0
   -0.2383   -6.7373   15.8497 H   0  0  0  0  0  0  0  0  0  0  0  0
    1.0589   -6.5373   17.2588 H   0  0  0  0  0  0  0  0  0  0  0  0
    0.7091   -5.2482   14.9885 H   0  0  0  0  0  0  0  0  0  0  0  0
    2.3879   -7.5180   13.7902 H   0  0  0  0  0  0  0  0  0  0  0  0
    5.2534   -5.6607   13.9118 H   0  0  0  0  0  0  0  0  0  0  0  0
    4.1998   -5.8876   12.4668 H   0  0  0  0  0  0  0  0  0  0  0  0
    3.9399   -5.1025   15.0249 H   0  0  0  0  0  0  0  0  0  0  0  0
    2.7203   -3.7957   15.0276 H   0  0  0  0  0  0  0  0  0  0  0  0
    2.9531   -3.9644   12.9508 H   0  0  0  0  0  0  0  0  0  0  0  0
    2.9046    1.0441   15.2353 H   0  0  0  0  0  0  0  0  0  0  0  0
    1.1398   -2.0790   11.9478 H   0  0  0  0  0  0  0  0  0  0  0  0
    1.2233   -0.6399   10.8760 H   0  0  0  0  0  0  0  0  0  0  0  0
    2.5612   -1.8386   10.8760 H   0  0  0  0  0  0  0  0  0  0  0  0
    3.6192    1.7282   16.3489 H   0  0  0  0  0  0  0  0  0  0  0  0
    4.7860    1.3794   17.5650 H   0  0  0  0  0  0  0  0  0  0  0  0
    3.6546    3.3429   15.9981 H   0  0  0  0  0  0  0  0  0  0  0  0
    5.3366    5.5423   15.2528 H   0  0  0  0  0  0  0  0  0  0  0  0
    4.3289    5.4214   16.8400 H   0  0  0  0  0  0  0  0  0  0  0  0
    6.5901    5.6838   18.6675 H   0  0  0  0  0  0  0  0  0  0  0  0
    6.1610    2.7432   17.9595 H   0  0  0  0  0  0  0  0  0  0  0  0
    7.2563    2.9642   16.4316 H   0  0  0  0  0  0  0  0  0  0  0  0
    8.0535   10.8787   20.5045 H   0  0  0  0  0  0  0  0  0  0  0  0
    6.8058   10.4816   19.2491 H   0  0  0  0  0  0  0  0  0  0  0  0
    5.5274   10.8675   22.6709 H   0  0  0  0  0  0  0  0  0  0  0  0
    5.9830   11.7511   21.1747 H   0  0  0  0  0  0  0  0  0  0  0  0
    4.5549   10.6615   21.1747 H   0  0  0  0  0  0  0  0  0  0  0  0
    5.0616   42.6963   15.9939 H   0  0  0  0  0  0  0  0  0  0  0  0
    2.8904   37.5244   15.4030 H   0  0  0  0  0  0  0  0  0  0  0  0
    2.8335   37.7751   17.4838 H   0  0  0  0  0  0  0  0  0  0  0  0
    4.1663   36.2827   17.2074 H   0  0  0  0  0  0  0  0  0  0  0  0
    1.6757   35.4326   17.2149 H   0  0  0  0  0  0  0  0  0  0  0  0
    3.1989   33.9184   18.8673 H   0  0  0  0  0  0  0  0  0  0  0  0
    1.6553   33.7976   17.7889 H   0  0  0  0  0  0  0  0  0  0  0  0
    4.1948   32.7833   17.4330 H   0  0  0  0  0  0  0  0  0  0  0  0
    2.5944   32.7181   16.4608 H   0  0  0  0  0  0  0  0  0  0  0  0
    3.4022   35.6131   14.7153 H   0  0  0  0  0  0  0  0  0  0  0  0
    4.9454   35.7252   15.8084 H   0  0  0  0  0  0  0  0  0  0  0  0
    6.3558   30.9858   15.1596 H   0  0  0  0  0  0  0  0  0  0  0  0
    6.8432   28.0665   14.4715 H   0  0  0  0  0  0  0  0  0  0  0  0
    5.8769   28.3008   12.8598 H   0  0  0  0  0  0  0  0  0  0  0  0
    7.3106   30.6674   11.9632 H   0  0  0  0  0  0  0  0  0  0  0  0
    9.2086   27.6936   13.1328 H   0  0  0  0  0  0  0  0  0  0  0  0
    9.1474   28.6063   11.5520 H   0  0  0  0  0  0  0  0  0  0  0  0
    6.3655   28.2399   10.8013 H   0  0  0  0  0  0  0  0  0  0  0  0
    7.7663   27.7690    9.7468 H   0  0  0  0  0  0  0  0  0  0  0  0
    5.4466   25.9696   10.6353 H   0  0  0  0  0  0  0  0  0  0  0  0
    5.7828   26.6020    8.9685 H   0  0  0  0  0  0  0  0  0  0  0  0
    9.4579   26.2002   10.6125 H   0  0  0  0  0  0  0  0  0  0  0  0
    9.2566   25.5459   12.2812 H   0  0  0  0  0  0  0  0  0  0  0  0
    3.2874   43.8868   14.2085 H   0  0  0  0  0  0  0  0  0  0  0  0
    2.0677   44.0539   15.6155 H   0  0  0  0  0  0  0  0  0  0  0  0
    0.5836   43.6544   14.3607 H   0  0  0  0  0  0  0  0  0  0  0  0
    1.8267   43.3029   13.0038 H   0  0  0  0  0  0  0  0  0  0  0  0
   -0.0175   41.7147   14.2192 H   0  0  0  0  0  0  0  0  0  0  0  0
    1.3749   41.4829   12.9045 H   0  0  0  0  0  0  0  0  0  0  0  0
    0.8728   40.2393   15.1806 H   0  0  0  0  0  0  0  0  0  0  0  0
    2.4775   42.5428   16.4252 H   0  0  0  0  0  0  0  0  0  0  0  0
    5.3492   40.6655   16.5425 H   0  0  0  0  0  0  0  0  0  0  0  0
    4.2068   40.9303   17.9109 H   0  0  0  0  0  0  0  0  0  0  0  0
    4.1002   40.0830   15.3553 H   0  0  0  0  0  0  0  0  0  0  0  0
    2.8452   38.7734   15.3056 H   0  0  0  0  0  0  0  0  0  0  0  0
    3.0023   38.9711   17.3870 H   0  0  0  0  0  0  0  0  0  0  0  0
    3.0580   33.8764   15.2204 H   0  0  0  0  0  0  0  0  0  0  0  0
    2.2012   35.9877   19.8607 H   0  0  0  0  0  0  0  0  0  0  0  0
    2.1162   37.4069   18.7628 H   0  0  0  0  0  0  0  0  0  0  0  0
    0.7941   36.1909   18.7628 H   0  0  0  0  0  0  0  0  0  0  0  0
    3.8268   33.1860   14.1176 H   0  0  0  0  0  0  0  0  0  0  0  0
    5.8734   34.5758   14.2361 H   0  0  0  0  0  0  0  0  0  0  0  0
    3.9106   31.5439   14.5364 H   0  0  0  0  0  0  0  0  0  0  0  0
    5.5247   29.3812   15.3578 H   0  0  0  0  0  0  0  0  0  0  0  0
    4.6420   29.5080   13.7008 H   0  0  0  0  0  0  0  0  0  0  0  0
    7.0611   29.2373   12.0439 H   0  0  0  0  0  0  0  0  0  0  0  0
    6.5889   32.1822   12.7292 H   0  0  0  0  0  0  0  0  0  0  0  0
    7.5549   31.9408   14.3415 H   0  0  0  0  0  0  0  0  0  0  0  0
    8.6043   23.8829   10.5057 H   0  0  0  0  0  0  0  0  0  0  0  0
    7.2290   24.3367   11.6027 H   0  0  0  0  0  0  0  0  0  0  0  0
    5.8466   23.4216   10.0602 H   0  0  0  0  0  0  0  0  0  0  0  0
    5.4061   24.3341    8.5770 H   0  0  0  0  0  0  0  0  0  0  0  0
    6.8473   23.2619    8.5770 H   0  0  0  0  0  0  0  0  0  0  0  0
  3  4  1  0
  4  5  1  0
  5  6  1  0
  6  7  1  0
  4  8  1  0
  2 12  1  0
  2 13  1  0
 13 14  1  0
  2 15  1  0
 16 17  1  0
 17 18  1  0
 18 19  1  0
 19 20  1  0
  1 21  1  0
 16 21  1  0
 20 21  1  0
  1 22  1  0
 20 23  1  0
 22 23  1  0
  3 24  1  0
 23 24  1  0
  7 25  1  0
  8 25  1  0
  5 26  1  0
 25 27  1  0
 27 28  1  0
  9 29  1  0
 27 29  1  0
  9 30  1  0
 10 30  1  0
 10 31  1  0
 11 31  1  0
 12 31  1  0
  9 32  1  0
 11 32  1  0
 11 33  1  0
 33 34  1  1
 33 35  1  0
 33 36  1  0
 15 37  1  0
 14 39  1  0
 37 39  1  0
 38 39  1  0
 42 43  1  0
 43 44  1  0
 44 45  1  0
 45 46  1  0
 43 47  1  0
 41 51  1  0
 41 52  1  0
 52 53  1  0
 41 54  1  0
 55 56  1  0
 56 57  1  0
 57 58  1  0
 58 59  1  0
 40 60  1  0
 55 60  1  0
 59 60  1  0
 40 61  1  0
 59 62  1  0
 61 62  1  0
 42 63  1  0
 62 63  1  0
 46 64  1  0
 47 64  1  0
 44 65  1  0
 64 66  1  0
 66 67  1  0
 48 68  1  0
 66 68  1  0
 48 69  1  0
 49 69  1  0
 49 70  1  0
 50 70  1  0
 51 70  1  0
 48 71  1  0
 50 71  1  0
 50 72  1  0
 72 73  1  6
 72 74  1  0
 72 75  1  0
 54 76  1  0
 53 78  1  0
 76 78  1  0
 77 78  1  0
  1 79  1  0
  3 80  1  0
  3 81  1  0
  4 82  1  0
  5 83  1  0
  6 84  1  0
  6 85  1  0
  7 86  1  0
  7 87  1  0
  8 88  1  0
  8 89  1  0
  9 90  1  0
 10 91  1  0
 10 92  1  0
 11 93  1  0
 12 94  1  0
 12 95  1  0
 13 96  1  0
 13 97  1  0
 14 98  1  0
 14 99  1  0
 15100  1  0
 15101  1  0
 16102  1  0
 16103  1  0
 17104  1  0
 17105  1  0
 18106  1  0
 18107  1  0
 19108  1  0
 21109  1  0
 22110  1  0
 22111  1  0
 23112  1  0
 24113  1  0
 24114  1  0
 25115  1  0
 26116  1  0
 26117  1  0
 26118  1  0
 27119  1  0
 28120  1  0
 29121  1  0
 30122  1  0
 30123  1  0
 31124  1  0
 32125  1  0
 32126  1  0
 37127  1  0
 37128  1  0
 38129  1  0
 38130  1  0
 38131  1  0
 40132  1  0
 42133  1  0
 42134  1  0
 43135  1  0
 44136  1  0
 45137  1  0
 45138  1  0
 46139  1  0
 46140  1  0
 47141  1  0
 47142  1  0
 48143  1  0
 49144  1  0
 49145  1  0
 50146  1  0
 51147  1  0
 51148  1  0
 52149  1  0
 52150  1  0
 53151  1  0
 53152  1  0
 54153  1  0
 54154  1  0
 55155  1  0
 55156  1  0
 56157  1  0
 56158  1  0
 57159  1  0
 57160  1  0
 58161  1  0
 60162  1  0
 61163  1  0
 61164  1  0
 62165  1  0
 63166  1  0
 63167  1  0
 64168  1  0
 65169  1  0
 65170  1  0
 65171  1  0
 66172  1  6
 67173  1  0
 68174  1  0
 69175  1  0
 69176  1  0
 70177  1  0
 71178  1  0
 71179  1  0
 76180  1  0
 76181  1  0
 77182  1  0
 77183  1  0
 77184  1  0
M  END
>  <PDBID>  (1) 
3IK3

>  <PDB ID>  (1) 
3IK3

>  <Generic Name>  (1) 
Ponatinib

>  <Brand Name>  (1) 
Iclusig

>  <DrugBank ID>  (1) 
DB08901

>  <ATC Codes>  (1) 
L01XE24

>  <Ligand ID>  (1) 
0LI

>  <Target Name>  (1) 
Tyrosine-protein kinase ABL1

>  <UniProt ID>  (1) 
P00519

>  <PDB ID.1>  (1) 
3IK3

>  <Seq. Identity>  (1) 
95%

$$$$
