PDB_DB00715_99
     RDKit          3D

 44 47  0  0  0  0  0  0  0  0999 V2000
  -33.5110  -16.5540    0.3960 F   0  0  0  0  0  0  0  0  0  0  0  0
  -34.8480  -18.3840   -0.1430 C   0  0  0  0  0  0  0  0  0  0  0  0
  -32.6350  -18.6940    0.5830 C   0  0  0  0  0  0  0  0  0  0  0  0
  -31.4510  -23.3780    4.7700 C   0  0  0  0  0  0  0  0  0  0  0  0
  -35.0280  -19.7370   -0.2660 C   0  0  0  0  0  0  0  0  0  0  0  0
  -32.8110  -20.0660    0.4590 C   0  0  0  0  0  0  0  0  0  0  0  0
  -30.4250  -22.7910    5.5130 C   0  0  0  0  0  0  0  0  0  0  0  0
  -30.9460  -21.8810    2.9580 C   0  0  0  0  0  0  0  0  0  0  0  0
  -35.5420  -23.9450   -1.2740 C   0  0  0  0  0  0  0  0  0  0  0  0
  -35.2820  -22.4460   -1.1250 C   0  0  0  0  0  0  0  0  0  0  0  0
  -34.6410  -24.2820    0.9780 C   0  0  0  0  0  0  0  0  0  0  0  0
  -28.0260  -20.3030    4.4360 C   0  0  0  0  0  0  0  0  0  0  0  0
  -33.6860  -22.3110    2.2850 C   0  0  0  0  0  0  0  0  0  0  0  0
  -35.6680  -24.6610    0.0050 N   0  0  0  0  0  0  0  0  0  0  0  0
  -32.6170  -23.2150    2.4090 O   0  0  0  0  0  0  0  0  0  0  0  0
  -28.5910  -20.9950    5.5040 O   0  0  0  0  0  0  0  0  0  0  0  0
  -29.0150  -20.2630    3.4370 O   0  0  0  0  0  0  0  0  0  0  0  0
  -33.6430  -17.8620    0.2850 C   0  0  0  0  0  0  0  0  0  0  0  0
  -31.7030  -22.9140    3.5070 C   0  0  0  0  0  0  0  0  0  0  0  0
  -33.9980  -20.5890    0.0330 C   0  0  0  0  0  0  0  0  0  0  0  0
  -29.6770  -21.7660    4.9770 C   0  0  0  0  0  0  0  0  0  0  0  0
  -29.9380  -21.3150    3.7070 C   0  0  0  0  0  0  0  0  0  0  0  0
  -34.6220  -22.7560    1.1530 C   0  0  1  0  0  0  0  0  0  0  0  0
  -34.2290  -22.1490   -0.1230 C   0  0  1  0  0  0  0  0  0  0  0  0
  -35.6762  -17.7031   -0.3890 H   0  0  0  0  0  0  0  0  0  0  0  0
  -31.6704  -18.2908    0.9251 H   0  0  0  0  0  0  0  0  0  0  0  0
  -32.0473  -24.2001    5.1927 H   0  0  0  0  0  0  0  0  0  0  0  0
  -35.9955  -20.1371   -0.6034 H   0  0  0  0  0  0  0  0  0  0  0  0
  -31.9802  -20.7426    0.7082 H   0  0  0  0  0  0  0  0  0  0  0  0
  -30.2129  -23.1488    6.5313 H   0  0  0  0  0  0  0  0  0  0  0  0
  -31.1509  -21.5218    1.9387 H   0  0  0  0  0  0  0  0  0  0  0  0
  -36.4762  -24.0794   -1.8390 H   0  0  0  0  0  0  0  0  0  0  0  0
  -34.6689  -24.3693   -1.7913 H   0  0  0  0  0  0  0  0  0  0  0  0
  -34.9656  -22.0443   -2.0989 H   0  0  0  0  0  0  0  0  0  0  0  0
  -36.2150  -21.9777   -0.7783 H   0  0  0  0  0  0  0  0  0  0  0  0
  -34.8623  -24.7570    1.9452 H   0  0  0  0  0  0  0  0  0  0  0  0
  -33.6580  -24.6164    0.6148 H   0  0  0  0  0  0  0  0  0  0  0  0
  -27.7509  -19.2832    4.7433 H   0  0  0  0  0  0  0  0  0  0  0  0
  -27.1087  -20.7926    4.0772 H   0  0  0  0  0  0  0  0  0  0  0  0
  -34.2474  -22.2791    3.2304 H   0  0  0  0  0  0  0  0  0  0  0  0
  -33.2886  -21.3119    2.0528 H   0  0  0  0  0  0  0  0  0  0  0  0
  -36.5933  -24.4537    0.4072 H   0  0  0  0  0  0  0  0  0  0  0  0
  -35.6291  -22.4190    1.4397 H   0  0  0  0  0  0  0  0  0  0  0  0
  -33.2724  -22.5748   -0.4600 H   0  0  0  0  0  0  0  0  0  0  0  0
  2  5  2  0
  3  6  1  0
  4  7  2  0
  9 10  1  0
  9 14  1  0
 11 14  1  0
 13 15  1  0
 12 16  1  0
 12 17  1  0
  1 18  1  0
  2 18  1  0
  3 18  2  0
  4 19  1  0
  8 19  2  0
 15 19  1  0
  5 20  1  0
  6 20  2  0
  7 21  1  0
 16 21  1  0
  8 22  1  0
 17 22  1  0
 21 22  2  0
 11 23  1  0
 13 23  1  0
 10 24  1  0
 20 24  1  0
 23 24  1  0
  2 25  1  0
  3 26  1  0
  4 27  1  0
  5 28  1  0
  6 29  1  0
  7 30  1  0
  8 31  1  0
  9 32  1  0
  9 33  1  0
 10 34  1  0
 10 35  1  0
 11 36  1  0
 11 37  1  0
 12 38  1  0
 12 39  1  0
 13 40  1  0
 13 41  1  0
 14 42  1  0
 23 43  1  1
 24 44  1  6
M  END
>  <PDBID>  (1) 
5I6X

>  <PDB ID>  (1) 
5I6X

>  <Generic Name>  (1) 
Paroxetine

>  <Brand Name>  (1) 
Act Paroxetine#Apo-paroxetine#Auro-paroxetine#Bio-paroxetine#Brisdelle#Dom-paroxetine#Ipg-paroxetine#Jamp-paroxetine#Mar-paroxetine#Mint-paroxetine#Mylan-paroxetine#Ntp-paroxetine#Nu-paroxetine#PMS-paroxetine#Paroxetine#Paroxetine Hydrochloride#Paroxetine Hydrochloride Anhydrous#Paroxetine-10#Paroxetine-20#Paroxetine-30#Paxil#Paxil CR#Paxil Tab 10mg#Paxil Tab 20mg#Paxil Tab 30mg#Paxilcr CR#Pexeva#Priva-paroxetine#Q-paroxetine#Ratio-paroxetine#Riva-paroxetine#Sandoz Paroxetine#Sandoz Paroxetine Tablets#Teva-paroxetine#Aropax#PAXILCR#Sereupin#Seroxat#Seroxat CR

>  <DrugBank ID>  (1) 
DB00715

>  <ATC Codes>  (1) 
N06AB05

>  <Ligand ID>  (1) 
8PR

>  <Target Name>  (1) 
Sodium-dependent serotonin transporter

>  <UniProt ID>  (1) 
P31645

>  <PDB ID.1>  (1) 
5I6X

>  <Seq. Identity>  (1) 
99%

$$$$
