PDB_DB00205_91
     RDKit          3D

 30 31  0  0  0  0  0  0  0  0999 V2000
   28.2550    2.1360    9.7010 N   0  0  0  0  0  0  0  0  0  0  0  0
   29.2990    3.0270    9.3370 C   0  0  0  0  0  0  0  0  0  0  0  0
   28.0280    1.8600   11.0540 C   0  0  0  0  0  0  0  0  0  0  0  0
   28.8830    2.4860   12.1380 C   0  0  0  0  0  0  0  0  0  0  0  0
   29.9630    3.4310   11.6060 C   0  0  0  0  0  0  0  0  0  0  0  0
   30.1420    3.6650   10.2720 N   0  0  0  0  0  0  0  0  0  0  0  0
   28.6830    2.2360   13.5650 C   0  0  0  0  0  0  0  0  0  0  0  0
   27.8600    3.1860   14.3720 C   0  0  0  0  0  0  0  0  0  0  0  0
   27.6170    3.0010   15.7810 C   0  0  0  0  0  0  0  0  0  0  0  0
   28.1710    1.8830   16.4360 C   0  0  0  0  0  0  0  0  0  0  0  0
   28.9840    0.9280   15.6770 C   0  0  0  0  0  0  0  0  0  0  0  0
   29.2220    1.1230   14.2670 C   0  0  0  0  0  0  0  0  0  0  0  0
   27.0400    1.0210   11.4330 N   0  0  0  0  0  0  0  0  0  0  0  0
   29.5400    3.3060    7.9880 N   0  0  0  0  0  0  0  0  0  0  0  0
   30.8810    4.1440   12.5680 C   0  0  0  0  0  0  0  0  0  0  0  0
   30.8590    5.6550   12.5910 C   0  0  0  0  0  0  0  0  0  0  0  0
   27.9760    1.5590   18.0280 Cl  0  0  0  0  0  0  0  0  0  0  0  0
   27.4218    4.0619   13.8712 H   0  0  0  0  0  0  0  0  0  0  0  0
   27.0054    3.7252   16.3391 H   0  0  0  0  0  0  0  0  0  0  0  0
   29.4167    0.0546   16.1869 H   0  0  0  0  0  0  0  0  0  0  0  0
   29.8363    0.3917   13.7212 H   0  0  0  0  0  0  0  0  0  0  0  0
   26.8843    0.8270   12.4325 H   0  0  0  0  0  0  0  0  0  0  0  0
   26.4422    0.5751   10.7226 H   0  0  0  0  0  0  0  0  0  0  0  0
   30.2971    3.9522    7.7230 H   0  0  0  0  0  0  0  0  0  0  0  0
   28.9604    2.8653    7.2594 H   0  0  0  0  0  0  0  0  0  0  0  0
   30.6239    3.7989   13.5803 H   0  0  0  0  0  0  0  0  0  0  0  0
   31.8923    3.8920   12.2163 H   0  0  0  0  0  0  0  0  0  0  0  0
   30.8539    6.0058   13.6336 H   0  0  0  0  0  0  0  0  0  0  0  0
   31.7516    6.0426   12.0781 H   0  0  0  0  0  0  0  0  0  0  0  0
   29.9555    6.0164   12.0781 H   0  0  0  0  0  0  0  0  0  0  0  0
  1  2  2  0
  1  3  1  0
  3  4  2  0
  4  5  1  0
  2  6  1  0
  5  6  2  0
  4  7  1  0
  7  8  2  0
  8  9  1  0
  9 10  2  0
 10 11  1  0
  7 12  1  0
 11 12  2  0
  3 13  1  0
  2 14  1  0
  5 15  1  0
 15 16  1  0
 10 17  1  0
  8 18  1  0
  9 19  1  0
 11 20  1  0
 12 21  1  0
 13 22  1  0
 13 23  1  0
 14 24  1  0
 14 25  1  0
 15 26  1  0
 15 27  1  0
 16 28  1  0
 16 29  1  0
 16 30  1  0
M  END
>  <PDBID>  (1) 
2BLA

>  <PDB ID>  (1) 
2BLA

>  <Generic Name>  (1) 
Pyrimethamine

>  <Brand Name>  (1) 
Daraprim#Fansidar Tablets#Pyrimethamine Leucovorin

>  <DrugBank ID>  (1) 
DB00205

>  <ATC Codes>  (1) 
P01BF04#P01BD01#P01BD51

>  <Ligand ID>  (1) 
CP6

>  <Target Name>  (1) 
Bifunctional dihydrofolate reductase-thymidylate synthase

>  <UniProt ID>  (1) 
P13922

>  <PDB ID.1>  (1) 
2BLA

>  <Seq. Identity>  (1) 
65%

$$$$
