PDB_DB00513_99
     RDKit          3D

 22 21  0  0  0  0  0  0  0  0999 V2000
    6.8040   -2.1080    5.7500 C   0  0  0  0  0  0  0  0  0  0  0  0
    7.8830   -1.9140    5.2150 O   0  0  0  0  0  0  0  0  0  0  0  0
    6.5240   -1.9550    6.9260 O   0  0  0  0  0  0  0  0  0  0  0  0
    5.6740   -2.5970    4.8410 C   0  0  0  0  0  0  0  0  0  0  0  0
    4.4750   -3.0130    5.6930 C   0  0  0  0  0  0  0  0  0  0  0  0
    4.8400   -4.2590    6.5050 C   0  0  0  0  0  0  0  0  0  0  0  0
    4.5240   -4.0110    7.9850 C   0  0  0  0  0  0  0  0  0  0  0  0
    3.0340   -3.6930    8.1410 C   0  0  0  0  0  0  0  0  0  0  0  0
    2.4240   -4.5500    9.1960 N   0  0  0  0  0  0  0  0  0  0  0  0
    7.9901   -2.0747    4.2440 H   0  0  0  0  0  0  0  0  0  0  0  0
    5.3755   -1.7867    4.1596 H   0  0  0  0  0  0  0  0  0  0  0  0
    6.0234   -3.4601    4.2554 H   0  0  0  0  0  0  0  0  0  0  0  0
    4.2081   -2.1938    6.3768 H   0  0  0  0  0  0  0  0  0  0  0  0
    3.6183   -3.2362    5.0401 H   0  0  0  0  0  0  0  0  0  0  0  0
    4.2550   -5.1175    6.1434 H   0  0  0  0  0  0  0  0  0  0  0  0
    5.9126   -4.4732    6.3885 H   0  0  0  0  0  0  0  0  0  0  0  0
    4.7703   -4.9104    8.5685 H   0  0  0  0  0  0  0  0  0  0  0  0
    5.1209   -3.1626    8.3509 H   0  0  0  0  0  0  0  0  0  0  0  0
    2.9171   -2.6358    8.4214 H   0  0  0  0  0  0  0  0  0  0  0  0
    2.5266   -3.8908    7.1853 H   0  0  0  0  0  0  0  0  0  0  0  0
    2.6822   -4.1873   10.1248 H   0  0  0  0  0  0  0  0  0  0  0  0
    1.3989   -4.5399    9.0963 H   0  0  0  0  0  0  0  0  0  0  0  0
  1  2  1  0
  1  3  2  0
  1  4  1  0
  4  5  1  0
  5  6  1  0
  6  7  1  0
  7  8  1  0
  8  9  1  0
  2 10  1  0
  4 11  1  0
  4 12  1  0
  5 13  1  0
  5 14  1  0
  6 15  1  0
  6 16  1  0
  7 17  1  0
  7 18  1  0
  8 19  1  0
  8 20  1  0
  9 21  1  0
  9 22  1  0
M  END
>  <PDBID>  (1) 
1HPK

>  <PDB ID>  (1) 
1HPK

>  <Generic Name>  (1) 
Aminocaproic Acid

>  <Brand Name>  (1) 
Amicar#Aminocaproic Acid#Exoden White Tooth#Acepramin#Amocap#Caproamin#Caprocat#Caprolisin#E-Capro#Epsicaprom#Hemocid#Inselon#Ipron#Ipsilon#Kai Nai Yin#Minocap#Plaslloid#Resplamin

>  <DrugBank ID>  (1) 
DB00513

>  <ATC Codes>  (1) 
B02AA01

>  <Ligand ID>  (1) 
ACA

>  <Target Name>  (1) 
Plasminogen

>  <UniProt ID>  (1) 
P00747

>  <PDB ID.1>  (1) 
1HPK

>  <Seq. Identity>  (1) 
100%

$$$$
