PDB_DB00328_99
     RDKit          3D

236244  0  0  0  0  0  0  0  0999 V2000
   24.4300   22.5620   15.7290 C   0  0  0  0  0  0  0  0  0  0  0  0
   24.6130   21.6270   16.7660 C   0  0  0  0  0  0  0  0  0  0  0  0
   23.4840   20.9760   17.3480 C   0  0  0  0  0  0  0  0  0  0  0  0
   22.1610   21.2580   16.9000 C   0  0  0  0  0  0  0  0  0  0  0  0
   21.9650   22.2130   15.8370 C   0  0  0  0  0  0  0  0  0  0  0  0
   23.1000   22.8630   15.2550 C   0  0  0  0  0  0  0  0  0  0  0  0
   19.7380   21.0300   17.1770 C   0  0  0  0  0  0  0  0  0  0  0  0
   26.1130   21.5610   16.9930 C   0  0  1  0  0  0  0  0  0  0  0  0
   26.6830   22.4120   16.1370 C   0  0  0  0  0  0  0  0  0  0  0  0
   26.0230   24.0190   14.5170 C   0  0  0  0  0  0  0  0  0  0  0  0
   25.6030   23.9870   13.0580 C   0  0  0  0  0  0  0  0  0  0  0  0
   25.6130   25.1840   12.3130 C   0  0  0  0  0  0  0  0  0  0  0  0
   25.2400   25.1990   10.9540 C   0  0  0  0  0  0  0  0  0  0  0  0
   24.8640   24.0480   10.3300 C   0  0  1  0  0  0  0  0  0  0  0  0
   24.8410   22.8530   11.0520 C   0  0  0  0  0  0  0  0  0  0  0  0
   25.2170   22.8220   12.4340 C   0  0  0  0  0  0  0  0  0  0  0  0
   28.1450   22.6380   16.0440 C   0  0  0  0  0  0  0  0  0  0  0  0
   26.8760   20.7210   18.0620 C   0  0  0  0  0  0  0  0  0  0  0  0
   26.3280   19.2970   18.1950 C   0  0  0  0  0  0  0  0  0  0  0  0
   25.7500   23.0430   15.3710 N   0  0  0  0  0  0  0  0  0  0  0  0
   21.0600   20.6030   17.5140 O   0  0  0  0  0  0  0  0  0  0  0  0
   26.6270   24.9820   14.9450 O   0  0  0  0  0  0  0  0  0  0  0  0
   25.5030   18.8650   17.4260 O   0  0  0  0  0  0  0  0  0  0  0  0
   26.7530   18.5340   19.1350 O   0  0  0  0  0  0  0  0  0  0  0  0
   24.4880   24.0690    8.6490 Cl  0  0  0  0  0  0  0  0  0  0  0  0
   69.9830   14.9390    9.5340 C   0  0  0  0  0  0  0  0  0  0  0  0
   69.8040   13.9700   10.5480 C   0  0  0  0  0  0  0  0  0  0  0  0
   70.9430   13.3750   11.1770 C   0  0  0  0  0  0  0  0  0  0  0  0
   72.2720   13.7470   10.7940 C   0  0  0  0  0  0  0  0  0  0  0  0
   72.4590   14.7400    9.7560 C   0  0  0  0  0  0  0  0  0  0  0  0
   71.3220   15.3290    9.1290 C   0  0  0  0  0  0  0  0  0  0  0  0
   74.7180   13.3740   10.9090 C   0  0  0  0  0  0  0  0  0  0  0  0
   68.3220   13.8280   10.7100 C   0  0  1  0  0  0  0  0  0  0  0  0
   67.7420   14.6760    9.8400 C   0  0  0  0  0  0  0  0  0  0  0  0
   68.3480   16.1800    8.1280 C   0  0  0  0  0  0  0  0  0  0  0  0
   68.8630   17.6200    8.0610 C   0  0  0  0  0  0  0  0  0  0  0  0
   68.8020   18.3080    6.8320 C   0  0  0  0  0  0  0  0  0  0  0  0
   69.2640   19.6460    6.7170 C   0  0  0  0  0  0  0  0  0  0  0  0
   69.7850   20.2970    7.8250 C   0  0  0  0  0  0  0  0  0  0  0  0
   69.8540   19.6240    9.0650 C   0  0  0  0  0  0  0  0  0  0  0  0
   69.3880   18.2700    9.1860 C   0  0  0  0  0  0  0  0  0  0  0  0
   66.2810   14.8530    9.6780 C   0  0  0  0  0  0  0  0  0  0  0  0
   67.5890   12.8440   11.6270 C   0  0  0  0  0  0  0  0  0  0  0  0
   68.1980   12.7920   12.9980 C   0  0  0  0  0  0  0  0  0  0  0  0
   68.6540   15.3440    9.1240 N   0  0  0  0  0  0  0  0  0  0  0  0
   73.3740   13.1240   11.4220 O   0  0  0  0  0  0  0  0  0  0  0  0
   67.6110   15.7530    7.2340 O   0  0  0  0  0  0  0  0  0  0  0  0
   69.0670   13.5350   13.3090 O   0  0  0  0  0  0  0  0  0  0  0  0
   67.7490   11.9620   13.8770 O   0  0  0  0  0  0  0  0  0  0  0  0
   70.3130   21.9030    7.6830 Cl  0  0  0  0  0  0  0  0  0  0  0  0
   60.2140   43.7050   74.0330 C   0  0  0  0  0  0  0  0  0  0  0  0
   60.1670   44.6920   75.0510 C   0  0  0  0  0  0  0  0  0  0  0  0
   61.3700   45.2000   75.6110 C   0  0  0  0  0  0  0  0  0  0  0  0
   62.6420   44.7310   75.1520 C   0  0  0  0  0  0  0  0  0  0  0  0
   62.7040   43.7190   74.1140 C   0  0  0  0  0  0  0  0  0  0  0  0
   61.4840   43.2130   73.5560 C   0  0  0  0  0  0  0  0  0  0  0  0
   65.0980   44.7120   75.3300 C   0  0  0  0  0  0  0  0  0  0  0  0
   58.7050   44.9600   75.2820 C   0  0  0  0  0  0  0  0  0  0  0  0
   58.0200   44.1700   74.4480 C   0  0  0  0  0  0  0  0  0  0  0  0
   58.4350   42.4510   72.8570 C   0  0  0  0  0  0  0  0  0  0  0  0
   58.8480   42.3890   71.3820 C   0  0  0  0  0  0  0  0  0  0  0  0
   58.6730   41.1820   70.6610 C   0  0  0  0  0  0  0  0  0  0  0  0
   59.0390   41.0880   69.2950 C   0  0  0  0  0  0  0  0  0  0  0  0
   59.5640   42.1620   68.6540 C   0  0  1  0  0  0  0  0  0  0  0  0
   59.7510   43.3480   69.3370 C   0  0  0  0  0  0  0  0  0  0  0  0
   59.3900   43.4760   70.7210 C   0  0  0  0  0  0  0  0  0  0  0  0
   56.5090   44.1310   74.3680 C   0  0  0  0  0  0  0  0  0  0  0  0
   58.0560   45.9410   76.3100 C   0  0  0  0  0  0  0  0  0  0  0  0
   58.8010   47.2700   76.4220 C   0  0  0  0  0  0  0  0  0  0  0  0
   58.8550   43.4040   73.6940 N   0  0  0  0  0  0  0  0  0  0  0  0
   63.8050   45.2710   75.6990 O   0  0  0  0  0  0  0  0  0  0  0  0
   57.6790   41.5880   73.3140 O   0  0  0  0  0  0  0  0  0  0  0  0
   59.6970   47.5620   75.6470 O   0  0  0  0  0  0  0  0  0  0  0  0
   58.4740   48.1170   77.3540 O   0  0  0  0  0  0  0  0  0  0  0  0
   59.9240   42.0530   66.9970 Cl  0  0  0  0  0  0  0  0  0  0  0  0
   14.6020   52.7860   68.4070 C   0  0  0  0  0  0  0  0  0  0  0  0
   14.9610   53.9030   69.2300 C   0  0  0  0  0  0  0  0  0  0  0  0
   13.9420   54.6920   69.8450 C   0  0  0  0  0  0  0  0  0  0  0  0
   12.5330   54.3880   69.6470 C   0  0  0  0  0  0  0  0  0  0  0  0
   12.1500   53.2790   68.8180 C   0  0  0  0  0  0  0  0  0  0  0  0
   13.1800   52.4700   68.1950 C   0  0  0  0  0  0  0  0  0  0  0  0
   10.2040   54.9080   70.0290 C   0  0  0  0  0  0  0  0  0  0  0  0
   16.4570   53.9400   69.2110 C   0  0  1  0  0  0  0  0  0  0  0  0
   16.8750   52.9080   68.4350 C   0  0  0  0  0  0  0  0  0  0  0  0
   15.9610   51.2250   67.0500 C   0  0  0  0  0  0  0  0  0  0  0  0
   15.3690   49.8700   67.2380 C   0  0  0  0  0  0  0  0  0  0  0  0
   15.2250   49.0180   66.1170 C   0  0  0  0  0  0  0  0  0  0  0  0
   14.6820   47.7210   66.2540 C   0  0  0  0  0  0  0  0  0  0  0  0
   14.2890   47.2650   67.4840 C   0  0  1  0  0  0  0  0  0  0  0  0
   14.4110   48.0850   68.6090 C   0  0  0  0  0  0  0  0  0  0  0  0
   14.9620   49.4150   68.4910 C   0  0  0  0  0  0  0  0  0  0  0  0
   18.3220   52.5930   68.1470 C   0  0  0  0  0  0  0  0  0  0  0  0
   17.3700   54.9770   69.8780 C   0  0  0  0  0  0  0  0  0  0  0  0
   16.9440   55.2690   71.2950 C   0  0  0  0  0  0  0  0  0  0  0  0
   15.8330   52.2030   67.9330 N   0  0  0  0  0  0  0  0  0  0  0  0
   11.5660   55.1700   70.2850 O   0  0  0  0  0  0  0  0  0  0  0  0
   16.5930   51.4670   66.0290 O   0  0  0  0  0  0  0  0  0  0  0  0
   16.0350   54.6240   71.8270 O   0  0  0  0  0  0  0  0  0  0  0  0
   17.5500   56.2320   71.9690 O   0  0  0  0  0  0  0  0  0  0  0  0
   13.7240   45.6720   67.6300 Cl  0  0  0  0  0  0  0  0  0  0  0  0
   24.5119   21.7545   14.9865 H   0  0  0  0  0  0  0  0  0  0  0  0
   24.5303   22.4343   17.5085 H   0  0  0  0  0  0  0  0  0  0  0  0
   23.6384   19.8962   17.2060 H   0  0  0  0  0  0  0  0  0  0  0  0
   23.4804   21.3711   18.3746 H   0  0  0  0  0  0  0  0  0  0  0  0
   22.0824   22.0669   17.6412 H   0  0  0  0  0  0  0  0  0  0  0  0
   21.4471   21.6842   15.0233 H   0  0  0  0  0  0  0  0  0  0  0  0
   21.4192   23.0340   16.3248 H   0  0  0  0  0  0  0  0  0  0  0  0
   22.9514   23.9441   15.3934 H   0  0  0  0  0  0  0  0  0  0  0  0
   23.1079   22.4794   14.2241 H   0  0  0  0  0  0  0  0  0  0  0  0
   19.1663   21.2147   18.0984 H   0  0  0  0  0  0  0  0  0  0  0  0
   19.7913   21.9566   16.5866 H   0  0  0  0  0  0  0  0  0  0  0  0
   19.2392   20.2473   16.5866 H   0  0  0  0  0  0  0  0  0  0  0  0
   26.1907   20.7574   16.2459 H   0  0  0  0  0  0  0  0  0  0  0  0
   26.6064   23.2153   16.8846 H   0  0  0  0  0  0  0  0  0  0  0  0
   25.0757   24.5131   14.7789 H   0  0  0  0  0  0  0  0  0  0  0  0
   24.5612   24.1797   13.3537 H   0  0  0  0  0  0  0  0  0  0  0  0
   24.9357   25.8794   12.8303 H   0  0  0  0  0  0  0  0  0  0  0  0
   26.6837   25.4327   12.2715 H   0  0  0  0  0  0  0  0  0  0  0  0
   24.3939   25.8964   10.8665 H   0  0  0  0  0  0  0  0  0  0  0  0
   26.1766   25.4649   10.4420 H   0  0  0  0  0  0  0  0  0  0  0  0
   25.9105   23.8583   10.0493 H   0  0  0  0  0  0  0  0  0  0  0  0
   23.8094   22.4748   10.9993 H   0  0  0  0  0  0  0  0  0  0  0  0
   25.6344   22.2625   10.5706 H   0  0  0  0  0  0  0  0  0  0  0  0
   26.0582   22.1186   12.5210 H   0  0  0  0  0  0  0  0  0  0  0  0
   24.2841   22.5498   12.9494 H   0  0  0  0  0  0  0  0  0  0  0  0
   28.5709   22.7038   17.0560 H   0  0  0  0  0  0  0  0  0  0  0  0
   28.6117   21.8013   15.5035 H   0  0  0  0  0  0  0  0  0  0  0  0
   28.3373   23.5765   15.5035 H   0  0  0  0  0  0  0  0  0  0  0  0
   27.9363   20.6648   17.7745 H   0  0  0  0  0  0  0  0  0  0  0  0
   26.7443   21.2202   19.0333 H   0  0  0  0  0  0  0  0  0  0  0  0
   25.5246   19.6672   18.8489 H   0  0  0  0  0  0  0  0  0  0  0  0
   26.6163   24.9650   15.9348 H   0  0  0  0  0  0  0  0  0  0  0  0
   24.7511   18.4713   17.9356 H   0  0  0  0  0  0  0  0  0  0  0  0
   26.5296   18.9351   20.0121 H   0  0  0  0  0  0  0  0  0  0  0  0
   69.9811   15.7344   10.2938 H   0  0  0  0  0  0  0  0  0  0  0  0
   69.8079   13.1744    9.7884 H   0  0  0  0  0  0  0  0  0  0  0  0
   70.8550   13.5898   12.2522 H   0  0  0  0  0  0  0  0  0  0  0  0
   70.8805   12.3262   10.8513 H   0  0  0  0  0  0  0  0  0  0  0  0
   72.2755   12.9518   10.0339 H   0  0  0  0  0  0  0  0  0  0  0  0
   73.0391   15.5617   10.2013 H   0  0  0  0  0  0  0  0  0  0  0  0
   72.9355   14.1735    8.9423 H   0  0  0  0  0  0  0  0  0  0  0  0
   71.4042   15.1108    8.0540 H   0  0  0  0  0  0  0  0  0  0  0  0
   71.3816   16.3828    9.4387 H   0  0  0  0  0  0  0  0  0  0  0  0
   75.4137   13.5034   11.7512 H   0  0  0  0  0  0  0  0  0  0  0  0
   75.0406   12.5205   10.2947 H   0  0  0  0  0  0  0  0  0  0  0  0
   74.7121   14.2865   10.2947 H   0  0  0  0  0  0  0  0  0  0  0  0
   68.3299   14.6183   11.4751 H   0  0  0  0  0  0  0  0  0  0  0  0
   67.7308   13.8846    9.0761 H   0  0  0  0  0  0  0  0  0  0  0  0
   69.2317   15.8380    7.5694 H   0  0  0  0  0  0  0  0  0  0  0  0
   69.8662   17.2493    7.8037 H   0  0  0  0  0  0  0  0  0  0  0  0
   69.3839   17.7137    6.1121 H   0  0  0  0  0  0  0  0  0  0  0  0
   67.7193   18.4119    6.6675 H   0  0  0  0  0  0  0  0  0  0  0  0
   70.0520   19.6450    5.9495 H   0  0  0  0  0  0  0  0  0  0  0  0
   68.3467   20.2125    6.4989 H   0  0  0  0  0  0  0  0  0  0  0  0
   68.7806   20.6654    8.0808 H   0  0  0  0  0  0  0  0  0  0  0  0
   70.9127   19.6210    9.3636 H   0  0  0  0  0  0  0  0  0  0  0  0
   69.1465   20.1865    9.6919 H   0  0  0  0  0  0  0  0  0  0  0  0
   68.5996   18.2698    9.9531 H   0  0  0  0  0  0  0  0  0  0  0  0
   70.3016   17.7005    9.4118 H   0  0  0  0  0  0  0  0  0  0  0  0
   65.8065   14.9105   10.6687 H   0  0  0  0  0  0  0  0  0  0  0  0
   66.0835   15.7816    9.1224 H   0  0  0  0  0  0  0  0  0  0  0  0
   65.8675   13.9984    9.1224 H   0  0  0  0  0  0  0  0  0  0  0  0
   66.5385   13.1575   11.7168 H   0  0  0  0  0  0  0  0  0  0  0  0
   67.6685   11.8413   11.1818 H   0  0  0  0  0  0  0  0  0  0  0  0
   68.9449   12.0688   12.6388 H   0  0  0  0  0  0  0  0  0  0  0  0
   66.8293   15.3001    7.6389 H   0  0  0  0  0  0  0  0  0  0  0  0
   69.1228   13.5827   14.2963 H   0  0  0  0  0  0  0  0  0  0  0  0
   67.9368   12.3092   14.7849 H   0  0  0  0  0  0  0  0  0  0  0  0
   60.2327   44.4951   73.2679 H   0  0  0  0  0  0  0  0  0  0  0  0
   60.1445   43.9019   75.8160 H   0  0  0  0  0  0  0  0  0  0  0  0
   61.3582   46.2878   75.4481 H   0  0  0  0  0  0  0  0  0  0  0  0
   61.3324   44.8350   76.6480 H   0  0  0  0  0  0  0  0  0  0  0  0
   62.6284   43.9430   75.9194 H   0  0  0  0  0  0  0  0  0  0  0  0
   63.2845   44.1462   73.2830 H   0  0  0  0  0  0  0  0  0  0  0  0
   63.1392   42.8473   74.6245 H   0  0  0  0  0  0  0  0  0  0  0  0
   61.4859   42.1256   73.7219 H   0  0  0  0  0  0  0  0  0  0  0  0
   61.5168   43.5656   72.5146 H   0  0  0  0  0  0  0  0  0  0  0  0
   65.6648   44.4670   76.2403 H   0  0  0  0  0  0  0  0  0  0  0  0
   64.9466   43.7990   74.7355 H   0  0  0  0  0  0  0  0  0  0  0  0
   65.6594   45.4478   74.7355 H   0  0  0  0  0  0  0  0  0  0  0  0
   58.7285   45.7487   74.5156 H   0  0  0  0  0  0  0  0  0  0  0  0
   57.9999   43.3798   75.2130 H   0  0  0  0  0  0  0  0  0  0  0  0
   59.3034   41.8318   73.1262 H   0  0  0  0  0  0  0  0  0  0  0  0
   59.8569   42.0659   71.6781 H   0  0  0  0  0  0  0  0  0  0  0  0
   59.2518   40.4129   71.1935 H   0  0  0  0  0  0  0  0  0  0  0  0
   57.5785   41.0778   70.6259 H   0  0  0  0  0  0  0  0  0  0  0  0
   59.7825   40.2807   69.2212 H   0  0  0  0  0  0  0  0  0  0  0  0
   58.0749   40.9393   68.7867 H   0  0  0  0  0  0  0  0  0  0  0  0
   58.5524   42.4860   68.3683 H   0  0  0  0  0  0  0  0  0  0  0  0
   60.8246   43.5785   69.2726 H   0  0  0  0  0  0  0  0  0  0  0  0
   59.0393   44.0242   68.8409 H   0  0  0  0  0  0  0  0  0  0  0  0
   58.6543   44.2911   70.7868 H   0  0  0  0  0  0  0  0  0  0  0  0
   60.3531   43.6356   71.2279 H   0  0  0  0  0  0  0  0  0  0  0  0
   56.0882   44.1201   75.3843 H   0  0  0  0  0  0  0  0  0  0  0  0
   56.1472   45.0201   73.8308 H   0  0  0  0  0  0  0  0  0  0  0  0
   56.1935   43.2244   73.8308 H   0  0  0  0  0  0  0  0  0  0  0  0
   57.0220   46.1447   75.9949 H   0  0  0  0  0  0  0  0  0  0  0  0
   58.0978   45.4571   77.2970 H   0  0  0  0  0  0  0  0  0  0  0  0
   59.5351   46.8018   77.0943 H   0  0  0  0  0  0  0  0  0  0  0  0
   57.7046   41.6172   74.3032 H   0  0  0  0  0  0  0  0  0  0  0  0
   60.5030   47.8247   76.1583 H   0  0  0  0  0  0  0  0  0  0  0  0
   58.6319   47.7081   78.2417 H   0  0  0  0  0  0  0  0  0  0  0  0
   14.6159   52.1307   69.2904 H   0  0  0  0  0  0  0  0  0  0  0  0
   14.9377   54.5602   68.3482 H   0  0  0  0  0  0  0  0  0  0  0  0
   14.1222   54.6445   70.9291 H   0  0  0  0  0  0  0  0  0  0  0  0
   14.0518   55.6629   69.3397 H   0  0  0  0  0  0  0  0  0  0  0  0
   12.5133   55.0508   68.7694 H   0  0  0  0  0  0  0  0  0  0  0  0
   11.5463   52.6045   69.4430 H   0  0  0  0  0  0  0  0  0  0  0  0
   11.6408   53.7538   67.9664 H   0  0  0  0  0  0  0  0  0  0  0  0
   13.0044   52.5152   67.1100 H   0  0  0  0  0  0  0  0  0  0  0  0
   13.0646   51.4944   68.6899 H   0  0  0  0  0  0  0  0  0  0  0  0
    9.6651   54.8043   70.9823 H   0  0  0  0  0  0  0  0  0  0  0  0
    9.7727   55.7396   69.4525 H   0  0  0  0  0  0  0  0  0  0  0  0
   10.1120   53.9757   69.4525 H   0  0  0  0  0  0  0  0  0  0  0  0
   16.4844   53.2862   70.0952 H   0  0  0  0  0  0  0  0  0  0  0  0
   16.8407   53.5599   67.5496 H   0  0  0  0  0  0  0  0  0  0  0  0
   15.0404   51.5576   66.5482 H   0  0  0  0  0  0  0  0  0  0  0  0
   14.3661   50.2825   67.0533 H   0  0  0  0  0  0  0  0  0  0  0  0
   14.5842   49.5511   65.3992 H   0  0  0  0  0  0  0  0  0  0  0  0
   16.2678   48.8148   65.8320 H   0  0  0  0  0  0  0  0  0  0  0  0
   13.7965   47.6781   65.6028 H   0  0  0  0  0  0  0  0  0  0  0  0
   15.5299   47.0666   66.0033 H   0  0  0  0  0  0  0  0  0  0  0  0
   15.3007   46.8713   67.6613 H   0  0  0  0  0  0  0  0  0  0  0  0
   13.3999   48.1988   69.0270 H   0  0  0  0  0  0  0  0  0  0  0  0
   15.1617   47.5596   69.2176 H   0  0  0  0  0  0  0  0  0  0  0  0
   15.8409   49.4593   69.1509 H   0  0  0  0  0  0  0  0  0  0  0  0
   14.1192   50.0731   68.7492 H   0  0  0  0  0  0  0  0  0  0  0  0
   18.8671   52.4743   69.0950 H   0  0  0  0  0  0  0  0  0  0  0  0
   18.3859   51.6599   67.5680 H   0  0  0  0  0  0  0  0  0  0  0  0
   18.7680   53.4151   67.5680 H   0  0  0  0  0  0  0  0  0  0  0  0
   18.3998   54.5906   69.8882 H   0  0  0  0  0  0  0  0  0  0  0  0
   17.3042   55.9116   69.3016 H   0  0  0  0  0  0  0  0  0  0  0  0
   16.2091   55.9985   70.9237 H   0  0  0  0  0  0  0  0  0  0  0  0
   17.4898   51.8104   66.2696 H   0  0  0  0  0  0  0  0  0  0  0  0
   16.1200   54.6843   72.8115 H   0  0  0  0  0  0  0  0  0  0  0  0
   17.4479   56.0697   72.9402 H   0  0  0  0  0  0  0  0  0  0  0  0
  1  2  1  0
  2  3  1  0
  3  4  1  0
  4  5  1  0
  1  6  1  0
  5  6  1  0
  2  8  1  0
  8  9  1  0
 10 11  1  0
 11 12  1  0
 12 13  1  0
 13 14  1  0
 14 15  1  0
 11 16  1  0
 15 16  1  0
  9 17  1  0
  8 18  1  0
 18 19  1  0
  1 20  1  0
  9 20  1  0
 10 20  1  0
  4 21  1  0
  7 21  1  0
 10 22  1  0
 19 23  1  0
 19 24  1  0
 14 25  1  0
 26 27  1  0
 27 28  1  0
 28 29  1  0
 29 30  1  0
 26 31  1  0
 30 31  1  0
 27 33  1  0
 33 34  1  0
 35 36  1  0
 36 37  1  0
 37 38  1  0
 38 39  1  0
 39 40  1  0
 36 41  1  0
 40 41  1  0
 34 42  1  0
 33 43  1  0
 43 44  1  0
 26 45  1  0
 34 45  1  0
 35 45  1  0
 29 46  1  0
 32 46  1  0
 35 47  1  0
 44 48  1  0
 44 49  1  0
 39 50  1  0
 51 52  1  0
 52 53  1  0
 53 54  1  0
 54 55  1  0
 51 56  1  0
 55 56  1  0
 52 58  1  0
 58 59  1  0
 60 61  1  0
 61 62  1  0
 62 63  1  0
 63 64  1  0
 64 65  1  0
 61 66  1  0
 65 66  1  0
 59 67  1  0
 58 68  1  0
 68 69  1  0
 51 70  1  0
 59 70  1  0
 60 70  1  0
 54 71  1  0
 57 71  1  0
 60 72  1  0
 69 73  1  0
 69 74  1  0
 64 75  1  0
 76 77  1  0
 77 78  1  0
 78 79  1  0
 79 80  1  0
 76 81  1  0
 80 81  1  0
 77 83  1  0
 83 84  1  0
 85 86  1  0
 86 87  1  0
 87 88  1  0
 88 89  1  0
 89 90  1  0
 86 91  1  0
 90 91  1  0
 84 92  1  0
 83 93  1  0
 93 94  1  0
 76 95  1  0
 84 95  1  0
 85 95  1  0
 79 96  1  0
 82 96  1  0
 85 97  1  0
 94 98  1  0
 94 99  1  0
 89100  1  0
  1101  1  0
  2102  1  0
  3103  1  0
  3104  1  0
  4105  1  0
  5106  1  0
  5107  1  0
  6108  1  0
  6109  1  0
  7110  1  0
  7111  1  0
  7112  1  0
  8113  1  6
  9114  1  0
 10115  1  0
 11116  1  0
 12117  1  0
 12118  1  0
 13119  1  0
 13120  1  0
 14121  1  1
 15122  1  0
 15123  1  0
 16124  1  0
 16125  1  0
 17126  1  0
 17127  1  0
 17128  1  0
 18129  1  0
 18130  1  0
 19131  1  0
 22132  1  0
 23133  1  0
 24134  1  0
 26135  1  0
 27136  1  0
 28137  1  0
 28138  1  0
 29139  1  0
 30140  1  0
 30141  1  0
 31142  1  0
 31143  1  0
 32144  1  0
 32145  1  0
 32146  1  0
 33147  1  1
 34148  1  0
 35149  1  0
 36150  1  0
 37151  1  0
 37152  1  0
 38153  1  0
 38154  1  0
 39155  1  0
 40156  1  0
 40157  1  0
 41158  1  0
 41159  1  0
 42160  1  0
 42161  1  0
 42162  1  0
 43163  1  0
 43164  1  0
 44165  1  0
 47166  1  0
 48167  1  0
 49168  1  0
 51169  1  0
 52170  1  0
 53171  1  0
 53172  1  0
 54173  1  0
 55174  1  0
 55175  1  0
 56176  1  0
 56177  1  0
 57178  1  0
 57179  1  0
 57180  1  0
 58181  1  0
 59182  1  0
 60183  1  0
 61184  1  0
 62185  1  0
 62186  1  0
 63187  1  0
 63188  1  0
 64189  1  1
 65190  1  0
 65191  1  0
 66192  1  0
 66193  1  0
 67194  1  0
 67195  1  0
 67196  1  0
 68197  1  0
 68198  1  0
 69199  1  0
 72200  1  0
 73201  1  0
 74202  1  0
 76203  1  0
 77204  1  0
 78205  1  0
 78206  1  0
 79207  1  0
 80208  1  0
 80209  1  0
 81210  1  0
 81211  1  0
 82212  1  0
 82213  1  0
 82214  1  0
 83215  1  1
 84216  1  0
 85217  1  0
 86218  1  0
 87219  1  0
 87220  1  0
 88221  1  0
 88222  1  0
 89223  1  6
 90224  1  0
 90225  1  0
 91226  1  0
 91227  1  0
 92228  1  0
 92229  1  0
 92230  1  0
 93231  1  0
 93232  1  0
 94233  1  0
 97234  1  0
 98235  1  0
 99236  1  0
M  END
>  <PDBID>  (1) 
4COX

>  <PDB ID>  (1) 
4COX

>  <Generic Name>  (1) 
Indomethacin

>  <Brand Name>  (1) 
Apo Indomethacin Cap 25mg#Apo Indomethacin Cap 50mg#Ftp-indomethacin#Indocid Cap 25mg#Indocid Cap 50mg#Indocid SR 75mg#Indocid Sterile Oph Susp 1%#Indocid Sup 100mg#Indocid Sup 50mg#Indocin#Indocollyre#Indomethacin#Indomethacin ER#Indomethacin Extended-release#Mint-indomethacin#Novo-methacin - 100mg Sup#Novo-methacin - Sup 50mg#Ntp-indomethacin#Nu-indo Cap 25mg#Nu-indo Cap 50mg#Pro-indo 25 Cap 25mg#Pro-indo 50 Cap 50mg#Ratio-indomethacin#Rhodacine - Cap 25mg#Rhodacine - Cap 50mg#Rhodacine - Sup 100mg#Rhodacine - Sup 50mg#Sandoz Indomethacin#Teva-indomethacin#Tivorbex#Arthrexin#Elmetacin#Indaflex#Indocid#Indolar SR#Indomed#Indoxen#Metindol#Mikametan#Nu-Indo#Reumacide

>  <DrugBank ID>  (1) 
DB00328

>  <ATC Codes>  (1) 
S01CC02#M02AA23#M01AB01#M01AB51#S01BC01#C01EB03

>  <Ligand ID>  (1) 
IMN

>  <Target Name>  (1) 
Prostaglandin G/H synthase 2

>  <UniProt ID>  (1) 
P35354

>  <PDB ID.1>  (1) 
4COX

>  <Seq. Identity>  (1) 
84%

$$$$
