PDB_DB00563_99
     RDKit          3D

 77 79  0  0  0  0  0  0  0  0999 V2000
   28.7630   12.9690   -4.2600 N   0  0  0  0  0  0  0  0  0  0  0  0
   27.4470   12.7490   -4.4770 C   0  0  0  0  0  0  0  0  0  0  0  0
   27.0080   12.5890   -5.6950 N   0  0  0  0  0  0  0  0  0  0  0  0
   26.5500   12.6420   -3.5030 N   0  0  0  0  0  0  0  0  0  0  0  0
   26.9350   12.7650   -2.2560 C   0  0  1  0  0  0  0  0  0  0  0  0
   25.9920   12.6900   -1.3830 N   0  0  0  0  0  0  0  0  0  0  0  0
   28.3250   13.0470   -1.9270 C   0  0  0  0  0  0  0  0  0  0  0  0
   28.7520   13.2140   -0.6730 N   0  0  0  0  0  0  0  0  0  0  0  0
   30.0250   13.4360   -0.4740 C   0  0  0  0  0  0  0  0  0  0  0  0
   30.9330   13.5080   -1.5180 C   0  0  0  0  0  0  0  0  0  0  0  0
   30.5500   13.3390   -2.7870 N   0  0  0  0  0  0  0  0  0  0  0  0
   29.2410   13.1190   -2.9870 C   0  0  0  0  0  0  0  0  0  0  0  0
   30.4210   13.5990    0.9930 C   0  0  0  0  0  0  0  0  0  0  0  0
   31.7050   14.2510    1.1010 N   0  0  0  0  0  0  0  0  0  0  0  0
   32.7240   13.6150    1.9250 C   0  0  0  0  0  0  0  0  0  0  0  0
   32.1390   18.3040    0.0490 C   0  0  0  0  0  0  0  0  0  0  0  0
   30.9100   17.6820   -0.0120 C   0  0  0  0  0  0  0  0  0  0  0  0
   30.7670   16.3730    0.3060 C   0  0  0  0  0  0  0  0  0  0  0  0
   31.8420   15.5990    0.7500 C   0  0  0  0  0  0  0  0  0  0  0  0
   33.0880   16.2370    0.7950 C   0  0  0  0  0  0  0  0  0  0  0  0
   33.2360   17.5590    0.4680 C   0  0  0  0  0  0  0  0  0  0  0  0
   32.2790   19.7460   -0.3000 C   0  0  1  0  0  0  0  0  0  0  0  0
   33.2540   20.2960    0.2540 O   0  0  0  0  0  0  0  0  0  0  0  0
   31.3400   20.2890   -1.0690 N   0  0  0  0  0  0  0  0  0  0  0  0
   31.2370   21.6120   -1.6760 C   0  0  2  0  0  0  0  0  0  0  0  0
   29.9170   22.3420   -1.5180 C   0  0  0  0  0  0  0  0  0  0  0  0
   30.0190   23.6170   -1.5170 O   0  0  0  0  0  0  0  0  0  0  0  0
   28.9410   21.5740   -1.4230 O   0  0  0  0  0  0  0  0  0  0  0  0
   31.6130   21.4920   -3.1550 C   0  0  0  0  0  0  0  0  0  0  0  0
   33.0050   22.0870   -3.1610 C   0  0  0  0  0  0  0  0  0  0  0  0
   33.6830   21.6570   -4.3770 C   0  0  1  0  0  0  0  0  0  0  0  0
   34.7260   20.8850   -4.5630 O   0  0  0  0  0  0  0  0  0  0  0  0
   33.1150   22.0400   -5.5070 O   0  0  0  0  0  0  0  0  0  0  0  0
   29.2675   12.1715   -4.6726 H   0  0  0  0  0  0  0  0  0  0  0  0
   27.2793   13.8330   -4.5590 H   0  0  0  0  0  0  0  0  0  0  0  0
   26.0406   12.2364   -5.6677 H   0  0  0  0  0  0  0  0  0  0  0  0
   27.0304   13.4923   -6.1895 H   0  0  0  0  0  0  0  0  0  0  0  0
   25.8381   13.3675   -3.6700 H   0  0  0  0  0  0  0  0  0  0  0  0
   26.7904   13.8536   -2.3187 H   0  0  0  0  0  0  0  0  0  0  0  0
   26.3970   12.7222   -0.4365 H   0  0  0  0  0  0  0  0  0  0  0  0
   25.3455   13.4822   -1.5070 H   0  0  0  0  0  0  0  0  0  0  0  0
   28.1239   14.1258   -2.0022 H   0  0  0  0  0  0  0  0  0  0  0  0
   28.2381   14.0157   -0.2805 H   0  0  0  0  0  0  0  0  0  0  0  0
   30.2015   12.3531   -0.3952 H   0  0  0  0  0  0  0  0  0  0  0  0
   31.3921   14.5061   -1.4623 H   0  0  0  0  0  0  0  0  0  0  0  0
   31.5673   12.6267   -1.3421 H   0  0  0  0  0  0  0  0  0  0  0  0
   30.8093   14.1881   -3.3092 H   0  0  0  0  0  0  0  0  0  0  0  0
   29.0783   14.2048   -3.0539 H   0  0  0  0  0  0  0  0  0  0  0  0
   29.6620   14.2067    1.5074 H   0  0  0  0  0  0  0  0  0  0  0  0
   30.4875   12.6035    1.4562 H   0  0  0  0  0  0  0  0  0  0  0  0
   32.4828   13.7655    2.9876 H   0  0  0  0  0  0  0  0  0  0  0  0
   32.7538   12.5377    1.7048 H   0  0  0  0  0  0  0  0  0  0  0  0
   33.7049   14.0615    1.7048 H   0  0  0  0  0  0  0  0  0  0  0  0
   31.9395   18.5960    1.0906 H   0  0  0  0  0  0  0  0  0  0  0  0
   30.2446   18.2407    0.6626 H   0  0  0  0  0  0  0  0  0  0  0  0
   30.6915   17.6908   -1.0900 H   0  0  0  0  0  0  0  0  0  0  0  0
   30.0073   16.3299    1.1003 H   0  0  0  0  0  0  0  0  0  0  0  0
   30.5433   15.9201   -0.6712 H   0  0  0  0  0  0  0  0  0  0  0  0
   32.0601   15.3066   -0.2878 H   0  0  0  0  0  0  0  0  0  0  0  0
   33.4511   16.1322    1.8280 H   0  0  0  0  0  0  0  0  0  0  0  0
   33.6358   15.7344   -0.0158 H   0  0  0  0  0  0  0  0  0  0  0  0
   33.9770   17.6031   -0.3437 H   0  0  0  0  0  0  0  0  0  0  0  0
   33.5035   18.0256    1.4275 H   0  0  0  0  0  0  0  0  0  0  0  0
   31.6414   20.0149    0.5551 H   0  0  0  0  0  0  0  0  0  0  0  0
   33.1510   20.2379    1.2369 H   0  0  0  0  0  0  0  0  0  0  0  0
   31.2783   19.6460   -1.8712 H   0  0  0  0  0  0  0  0  0  0  0  0
   31.9363   22.2477   -1.1131 H   0  0  0  0  0  0  0  0  0  0  0  0
   30.0418   22.3312   -0.4252 H   0  0  0  0  0  0  0  0  0  0  0  0
   30.0453   23.9452   -0.5834 H   0  0  0  0  0  0  0  0  0  0  0  0
   28.7384   21.4146   -0.4672 H   0  0  0  0  0  0  0  0  0  0  0  0
   31.6232   20.4422   -3.4832 H   0  0  0  0  0  0  0  0  0  0  0  0
   30.9094   21.9894   -3.8387 H   0  0  0  0  0  0  0  0  0  0  0  0
   32.9400   23.1849   -3.1402 H   0  0  0  0  0  0  0  0  0  0  0  0
   33.5646   21.7491   -2.2763 H   0  0  0  0  0  0  0  0  0  0  0  0
   34.3431   22.5350   -4.3194 H   0  0  0  0  0  0  0  0  0  0  0  0
   35.0950   20.6119   -3.6859 H   0  0  0  0  0  0  0  0  0  0  0  0
   32.3114   22.5819   -5.3053 H   0  0  0  0  0  0  0  0  0  0  0  0
  1  2  1  0
  2  3  1  0
  2  4  1  0
  4  5  1  0
  5  6  1  0
  5  7  1  0
  7  8  1  0
  8  9  1  0
  9 10  1  0
 10 11  1  0
  1 12  1  0
  7 12  1  0
 11 12  1  0
  9 13  1  0
 13 14  1  0
 14 15  1  0
 16 17  1  0
 17 18  1  0
 14 19  1  0
 18 19  1  0
 19 20  1  0
 16 21  1  0
 20 21  1  0
 16 22  1  0
 22 23  1  0
 22 24  1  0
 24 25  1  0
 25 26  1  0
 26 27  1  0
 26 28  1  0
 25 29  1  0
 29 30  1  0
 30 31  1  0
 31 32  1  0
 31 33  1  0
  1 34  1  0
  2 35  1  0
  3 36  1  0
  3 37  1  0
  4 38  1  0
  5 39  1  1
  6 40  1  0
  6 41  1  0
  7 42  1  0
  8 43  1  0
  9 44  1  0
 10 45  1  0
 10 46  1  0
 11 47  1  0
 12 48  1  0
 13 49  1  0
 13 50  1  0
 15 51  1  0
 15 52  1  0
 15 53  1  0
 16 54  1  0
 17 55  1  0
 17 56  1  0
 18 57  1  0
 18 58  1  0
 19 59  1  0
 20 60  1  0
 20 61  1  0
 21 62  1  0
 21 63  1  0
 22 64  1  6
 23 65  1  0
 24 66  1  0
 25 67  1  1
 26 68  1  0
 27 69  1  0
 28 70  1  0
 29 71  1  0
 29 72  1  0
 30 73  1  0
 30 74  1  0
 31 75  1  1
 32 76  1  0
 33 77  1  0
M  END
>  <PDBID>  (1) 
1U72

>  <PDB ID>  (1) 
1U72

>  <Generic Name>  (1) 
Methotrexate

>  <Brand Name>  (1) 
Apo-methotrexate#Jamp-methotrexate#Methotrexate#Methotrexate Dbl Inj 10mg/ml#Methotrexate Dbl Inj 2.5mg/ml#Methotrexate Dbl Inj 25mg/ml#Methotrexate Injection BP#Methotrexate Injection USP#Methotrexate Injection, BP#Methotrexate Injection, USP#Methotrexate PF/sa Injection#Methotrexate Sod Inj 25mg/ml USP#Methotrexate Sodium#Methotrexate Sodium Inj 20mg#Methotrexate Sodium Inj 25.0mg/ml#Methotrexate Sodium Inj 25mg/ml#Methotrexate Sodium Inj 25mg/ml USP#Methotrexate Sodium Injection#Methotrexate Sodium Injection USP#Methotrexate Tab 2.5mg#Methotrexate Tab 2.5mg USP#Methotrexate Tablets, USP#Methotrexate-liq Im IV Iar Int Ivr 25mg/ml#Methotrexate-pws Im IV Iar Int Ivr 20mg/vial#Metoject#Metoject Subcutaneous#Otrexup#Rasuvo#Ratio-methotrexate Sodium#Rheumatrex Dose Pack#Rheumatrex Tab 2.5mg#Rheumatrex-tab 2.5mg#Trexall#Abitrexate#Alltrex#Artrait#Atrexel#Bendatrexat#Carditrex#Dermotrex#Ebetrex#Emtexate#Ledertrexate#Maxtrex#Meisusheng#Mexate#Rheumatrex#Trexan#Zexate

>  <DrugBank ID>  (1) 
DB00563

>  <ATC Codes>  (1) 
L01BA01#L04AX03

>  <Ligand ID>  (1) 
MTX

>  <Target Name>  (1) 
Dihydrofolate reductase

>  <UniProt ID>  (1) 
P00374

>  <PDB ID.1>  (1) 
1U72

>  <Seq. Identity>  (1) 
100%

$$$$
