PDB_DB00273_98
     RDKit          3D

 90 94  0  0  0  0  0  0  0  0999 V2000
  -19.9080   36.8120   44.8220 C   0  0  0  0  0  0  0  0  0  0  0  0
  -18.7750   36.7690   43.8230 C   0  0  2  0  0  0  0  0  0  0  0  0
  -19.1420   37.4720   42.5230 C   0  0  0  0  0  0  0  0  0  0  0  0
  -18.4590   35.3750   43.5640 O   0  0  0  0  0  0  0  0  0  0  0  0
  -17.5480   37.2210   44.4390 O   0  0  0  0  0  0  0  0  0  0  0  0
  -16.4530   36.5000   43.8620 C   0  0  1  0  0  0  0  0  0  0  0  0
  -15.2490   36.5550   44.8130 C   0  0  2  0  0  0  0  0  0  0  0  0
  -14.1100   36.2060   44.0390 O   0  0  0  0  0  0  0  0  0  0  0  0
  -13.1970   35.3780   44.7740 C   0  0  2  0  0  0  0  0  0  0  0  0
  -11.9740   36.1530   45.2700 C   0  0  0  0  0  0  0  0  0  0  0  0
  -12.8890   34.1700   43.9370 C   0  0  0  0  0  0  0  0  0  0  0  0
  -13.9620   34.9420   45.9070 O   0  0  0  0  0  0  0  0  0  0  0  0
  -15.2210   35.5930   46.0320 C   0  0  2  0  0  0  0  0  0  0  0  0
  -16.2800   34.5000   46.0330 C   0  0  0  0  0  0  0  0  0  0  0  0
  -16.7340   34.1490   44.7020 O   0  0  0  0  0  0  0  0  0  0  0  0
  -17.0710   35.0810   43.6810 C   0  0  1  0  0  0  0  0  0  0  0  0
  -16.5960   34.2960   42.4820 C   0  0  0  0  0  0  0  0  0  0  0  0
  -16.7790   35.0520   41.2480 O   0  0  0  0  0  0  0  0  0  0  0  0
  -16.3050   34.4690   39.8670 S   0  0  1  0  0  4  0  0  0  0  0  0
  -17.3240   33.5430   39.5350 O   0  0  0  0  0  0  0  0  0  0  0  0
  -16.1080   35.6540   39.1060 O   0  0  0  0  0  0  0  0  0  0  0  0
  -14.9310   33.7020   40.0820 N   0  0  0  0  0  0  0  0  0  0  0  0
   31.7630   36.7060   52.8150 C   0  0  0  0  0  0  0  0  0  0  0  0
   30.6650   36.5690   53.8410 C   0  0  2  0  0  0  0  0  0  0  0  0
   31.0530   37.1170   55.2040 C   0  0  0  0  0  0  0  0  0  0  0  0
   30.3290   35.1550   53.9240 O   0  0  0  0  0  0  0  0  0  0  0  0
   29.4530   37.1340   53.3090 O   0  0  0  0  0  0  0  0  0  0  0  0
   28.3520   36.3430   53.7590 C   0  0  1  0  0  0  0  0  0  0  0  0
   27.1490   36.4870   52.8240 C   0  0  2  0  0  0  0  0  0  0  0  0
   26.0510   36.0760   53.6280 O   0  0  0  0  0  0  0  0  0  0  0  0
   25.0630   35.3840   52.8520 C   0  0  2  0  0  0  0  0  0  0  0  0
   23.8940   36.3010   52.4880 C   0  0  0  0  0  0  0  0  0  0  0  0
   24.6390   34.1860   53.6380 C   0  0  0  0  0  0  0  0  0  0  0  0
   25.7970   34.9540   51.6890 O   0  0  0  0  0  0  0  0  0  0  0  0
   27.0590   35.6010   51.5530 C   0  0  2  0  0  0  0  0  0  0  0  0
   28.1420   34.5400   51.4470 C   0  0  0  0  0  0  0  0  0  0  0  0
   28.5960   34.0590   52.7330 O   0  0  0  0  0  0  0  0  0  0  0  0
   28.9360   34.9020   53.8320 C   0  0  1  0  0  0  0  0  0  0  0  0
   28.4660   34.0890   55.0200 C   0  0  0  0  0  0  0  0  0  0  0  0
   28.5910   34.8400   56.2670 O   0  0  0  0  0  0  0  0  0  0  0  0
   28.1990   34.2620   57.6760 S   0  0  0  0  0  4  0  0  0  0  0  0
   29.2380   33.3280   57.9500 O   0  0  0  0  0  0  0  0  0  0  0  0
   28.0680   35.4180   58.4930 O   0  0  0  0  0  0  0  0  0  0  0  0
   26.7810   33.5600   57.5070 N   0  0  0  0  0  0  0  0  0  0  0  0
  -19.4978   36.7964   45.8425 H   0  0  0  0  0  0  0  0  0  0  0  0
  -20.4914   37.7329   44.6753 H   0  0  0  0  0  0  0  0  0  0  0  0
  -20.5595   35.9379   44.6753 H   0  0  0  0  0  0  0  0  0  0  0  0
  -19.6401   38.4261   42.7501 H   0  0  0  0  0  0  0  0  0  0  0  0
  -18.2293   37.6645   41.9399 H   0  0  0  0  0  0  0  0  0  0  0  0
  -19.8217   36.8332   41.9399 H   0  0  0  0  0  0  0  0  0  0  0  0
  -16.0580   36.8894   42.9121 H   0  0  0  0  0  0  0  0  0  0  0  0
  -15.2890   37.5681   45.2397 H   0  0  0  0  0  0  0  0  0  0  0  0
  -11.9649   36.1588   46.3699 H   0  0  0  0  0  0  0  0  0  0  0  0
  -11.0583   35.6700   44.8983 H   0  0  0  0  0  0  0  0  0  0  0  0
  -12.0198   37.1873   44.8983 H   0  0  0  0  0  0  0  0  0  0  0  0
  -12.6710   33.3148   44.5936 H   0  0  0  0  0  0  0  0  0  0  0  0
  -13.7555   33.9332   43.3021 H   0  0  0  0  0  0  0  0  0  0  0  0
  -12.0149   34.3770   43.3021 H   0  0  0  0  0  0  0  0  0  0  0  0
  -15.4004   36.1767   46.9470 H   0  0  0  0  0  0  0  0  0  0  0  0
  -15.8564   33.6022   46.5068 H   0  0  0  0  0  0  0  0  0  0  0  0
  -17.1494   34.8853   46.5859 H   0  0  0  0  0  0  0  0  0  0  0  0
  -15.5278   34.0644   42.6054 H   0  0  0  0  0  0  0  0  0  0  0  0
  -17.1889   33.3719   42.4146 H   0  0  0  0  0  0  0  0  0  0  0  0
  -17.7233   33.1801   40.3650 H   0  0  0  0  0  0  0  0  0  0  0  0
  -15.9804   36.4217   39.7179 H   0  0  0  0  0  0  0  0  0  0  0  0
  -14.7488   33.6003   41.0906 H   0  0  0  0  0  0  0  0  0  0  0  0
  -14.9865   32.7698   39.6474 H   0  0  0  0  0  0  0  0  0  0  0  0
   32.7295   36.8266   53.3262 H   0  0  0  0  0  0  0  0  0  0  0  0
   31.7911   35.8044   52.1855 H   0  0  0  0  0  0  0  0  0  0  0  0
   31.5687   37.5869   52.1855 H   0  0  0  0  0  0  0  0  0  0  0  0
   30.6090   36.4900   55.9912 H   0  0  0  0  0  0  0  0  0  0  0  0
   32.1484   37.1099   55.3038 H   0  0  0  0  0  0  0  0  0  0  0  0
   30.6824   38.1479   55.3038 H   0  0  0  0  0  0  0  0  0  0  0  0
   27.9520   36.6519   54.7360 H   0  0  0  0  0  0  0  0  0  0  0  0
   27.1968   37.5161   52.4384 H   0  0  0  0  0  0  0  0  0  0  0  0
   23.4196   36.6731   53.4081 H   0  0  0  0  0  0  0  0  0  0  0  0
   24.2652   37.1513   51.8971 H   0  0  0  0  0  0  0  0  0  0  0  0
   23.1565   35.7380   51.8971 H   0  0  0  0  0  0  0  0  0  0  0  0
   24.7170   34.4063   54.7129 H   0  0  0  0  0  0  0  0  0  0  0  0
   23.5973   33.9346   53.3899 H   0  0  0  0  0  0  0  0  0  0  0  0
   25.2906   33.3352   53.3899 H   0  0  0  0  0  0  0  0  0  0  0  0
   27.1818   36.2207   50.6525 H   0  0  0  0  0  0  0  0  0  0  0  0
   27.7427   33.6886   50.8764 H   0  0  0  0  0  0  0  0  0  0  0  0
   29.0058   35.0033   50.9477 H   0  0  0  0  0  0  0  0  0  0  0  0
   27.4107   33.8164   54.8714 H   0  0  0  0  0  0  0  0  0  0  0  0
   29.0963   33.1906   55.0940 H   0  0  0  0  0  0  0  0  0  0  0  0
   29.3452   33.2316   58.9294 H   0  0  0  0  0  0  0  0  0  0  0  0
   28.0980   35.1533   59.4465 H   0  0  0  0  0  0  0  0  0  0  0  0
   26.3826   33.3628   58.4361 H   0  0  0  0  0  0  0  0  0  0  0  0
   26.1481   34.1851   56.9877 H   0  0  0  0  0  0  0  0  0  0  0  0
  2  1  1  1
  2  3  1  0
  2  4  1  0
  2  5  1  0
  5  6  1  0
  6  7  1  0
  7  8  1  0
  8  9  1  0
  9 10  1  1
  9 11  1  0
  9 12  1  0
  7 13  1  0
 12 13  1  0
 13 14  1  0
 14 15  1  0
  4 16  1  0
  6 16  1  0
 15 16  1  0
 16 17  1  6
 17 18  1  0
 19 18  1  1
 19 20  1  0
 19 21  1  0
 19 22  1  0
 24 23  1  6
 24 25  1  0
 24 26  1  0
 24 27  1  0
 27 28  1  0
 28 29  1  0
 29 30  1  0
 30 31  1  0
 31 32  1  6
 31 33  1  0
 31 34  1  0
 29 35  1  0
 34 35  1  0
 35 36  1  0
 36 37  1  0
 26 38  1  0
 28 38  1  0
 37 38  1  0
 38 39  1  1
 39 40  1  0
 40 41  1  0
 41 42  1  0
 41 43  1  0
 41 44  1  0
  1 45  1  0
  1 46  1  0
  1 47  1  0
  3 48  1  0
  3 49  1  0
  3 50  1  0
  6 51  1  6
  7 52  1  1
 10 53  1  0
 10 54  1  0
 10 55  1  0
 11 56  1  0
 11 57  1  0
 11 58  1  0
 13 59  1  1
 14 60  1  0
 14 61  1  0
 17 62  1  0
 17 63  1  0
 20 64  1  0
 21 65  1  0
 22 66  1  0
 22 67  1  0
 23 68  1  0
 23 69  1  0
 23 70  1  0
 25 71  1  0
 25 72  1  0
 25 73  1  0
 28 74  1  1
 29 75  1  6
 32 76  1  0
 32 77  1  0
 32 78  1  0
 33 79  1  0
 33 80  1  0
 33 81  1  0
 35 82  1  6
 36 83  1  0
 36 84  1  0
 39 85  1  0
 39 86  1  0
 42 87  1  0
 43 88  1  0
 44 89  1  0
 44 90  1  0
M  END
>  <PDBID>  (1) 
3LXE

>  <PDB ID>  (1) 
3LXE

>  <Generic Name>  (1) 
Topiramate

>  <Brand Name>  (1) 
Abbott-topiramate#Accel-topiramate#Act Topiramate#Apo-topiramate#Auro-topiramate#Ava-topiramate#Dom-topiramate#Gd-topiramate#Ipg-topiramate#Jamp-topiramate#Mar-topiramate#Mint-topiramate#Mylan-topiramate#Nu-topiramate#PHL-topiramate#PMS-topiramate#Pro-topiramate#Q-topiramate#Qsymia#Qudexy XR#Ran-topiramate#Ratio-topiramate#Sandoz Topiramate#Sandoz Topiramate Tablets#Teva-topiramate#Topamax#Topamax 100mg#Topamax 200mg#Topamax 25mg#Topiramate#Topiramate Tablets#Topiramate Tablets USP#Trokendi XR#Van-topiramate#Zym-topiramate

>  <DrugBank ID>  (1) 
DB00273

>  <ATC Codes>  (1) 
N03AX11

>  <Ligand ID>  (1) 
TOR

>  <Target Name>  (1) 
Carbonic anhydrase 2

>  <UniProt ID>  (1) 
P00918

>  <PDB ID.1>  (1) 
3LXE

>  <Seq. Identity>  (1) 
61%

$$$$
