PDB_DB01263_99
     RDKit          3D

119125  0  0  0  0  0  0  0  0999 V2000
  -10.0560   13.4060   98.3280 C   0  0  0  0  0  0  0  0  0  0  0  0
   -9.6920   16.8210  101.9660 C   0  0  0  0  0  0  0  0  0  0  0  0
   -6.6800   15.2340   99.9000 O   0  0  0  0  0  0  0  0  0  0  0  0
   -9.8860   14.5620  102.7170 O   0  0  0  0  0  0  0  0  0  0  0  0
    9.6960   12.9200   93.9310 F   0  0  0  0  0  0  0  0  0  0  0  0
   13.7770   11.7080   92.0130 F   0  0  0  0  0  0  0  0  0  0  0  0
   11.7470   12.3750   92.9810 C   0  0  0  0  0  0  0  0  0  0  0  0
    4.4500    9.5330   98.4740 C   0  0  0  0  0  0  0  0  0  0  0  0
    4.8050   11.8620   98.0590 C   0  0  0  0  0  0  0  0  0  0  0  0
    3.2790    9.8350   99.1490 C   0  0  0  0  0  0  0  0  0  0  0  0
    3.6300   12.1570   98.7270 C   0  0  0  0  0  0  0  0  0  0  0  0
   -3.2120   11.5040  101.3690 C   0  0  0  0  0  0  0  0  0  0  0  0
   -2.9030   13.5740  100.2090 C   0  0  0  0  0  0  0  0  0  0  0  0
   -4.5760   11.7360  101.4180 C   0  0  0  0  0  0  0  0  0  0  0  0
   -4.2650   13.8080  100.2630 C   0  0  0  0  0  0  0  0  0  0  0  0
   12.8150   11.5160   92.9540 C   0  0  0  0  0  0  0  0  0  0  0  0
   12.7780   13.6370   97.4100 C   0  0  0  0  0  0  0  0  0  0  0  0
   10.8320   11.0730   94.8190 C   0  0  1  0  0  0  0  0  0  0  0  0
   11.9310   11.8740   98.0920 C   0  0  0  0  0  0  0  0  0  0  0  0
   -7.4780   12.2200  101.3390 C   0  0  0  0  0  0  0  0  0  0  0  0
  -10.6430   14.1980   99.4670 C   0  0  0  0  0  0  0  0  0  0  0  0
    8.4190   10.4580   95.3890 C   0  0  0  0  0  0  0  0  0  0  0  0
    0.6360   10.4250   99.9930 C   0  0  0  0  0  0  0  0  0  0  0  0
    1.1490   12.8160   99.7150 C   0  0  0  0  0  0  0  0  0  0  0  0
   -0.4800   10.8100  100.9420 C   0  0  0  0  0  0  0  0  0  0  0  0
    0.0150   13.1400  100.6660 C   0  0  0  0  0  0  0  0  0  0  0  0
    6.6760    9.0920   96.7080 C   0  0  0  0  0  0  0  0  0  0  0  0
    9.7330   12.0530   96.8740 C   0  0  0  0  0  0  0  0  0  0  0  0
   13.0410   12.5600   98.1890 N   0  0  0  0  0  0  0  0  0  0  0  0
   11.5910   13.6490   96.8480 N   0  0  0  0  0  0  0  0  0  0  0  0
   -8.7110   12.7610  101.2280 N   0  0  0  0  0  0  0  0  0  0  0  0
    6.3240   10.4030   97.1390 O   0  0  0  0  0  0  0  0  0  0  0  0
   10.2740    9.7060   96.6540 O   0  0  0  0  0  0  0  0  0  0  0  0
   10.7750   12.1170   93.9090 C   0  0  0  0  0  0  0  0  0  0  0  0
   11.9440   10.2440   94.7410 C   0  0  0  0  0  0  0  0  0  0  0  0
    5.2110   10.5500   97.9280 C   0  0  1  0  0  0  0  0  0  0  0  0
    2.8540   11.1530   99.2770 C   0  0  0  0  0  0  0  0  0  0  0  0
   -2.3620   12.4110  100.7430 C   0  0  1  0  0  0  0  0  0  0  0  0
   -5.1110   12.8860  100.8580 C   0  0  0  0  0  0  0  0  0  0  0  0
   12.9450   10.4580   93.8090 C   0  0  0  0  0  0  0  0  0  0  0  0
   -7.1750   14.2410  100.4010 C   0  0  0  0  0  0  0  0  0  0  0  0
  -10.1960   15.4330  101.6360 C   0  0  2  0  0  0  0  0  0  0  0  0
   -9.5960   14.8870  100.3460 C   0  0  1  0  0  0  0  0  0  0  0  0
    1.6710   11.4630   99.9430 N   0  0  0  0  0  0  0  0  0  0  0  0
   -1.0200   12.1120  100.5550 N   0  0  0  0  0  0  0  0  0  0  0  0
   11.0540   12.4900   97.3010 N   0  0  0  0  0  0  0  0  0  0  0  0
   -6.5400   13.0940  100.8540 N   0  0  0  0  0  0  0  0  0  0  0  0
   -8.4840   13.9810  100.6510 N   0  0  0  0  0  0  0  0  0  0  0  0
    9.8010   10.8550   95.9090 C   0  0  2  0  0  0  0  0  0  0  0  0
    9.1440    9.0570   97.1850 C   0  0  0  0  0  0  0  0  0  0  0  0
    8.0660    9.1540   96.1190 C   0  0  2  0  0  0  0  0  0  0  0  0
   -9.4462   12.5832   98.7295 H   0  0  0  0  0  0  0  0  0  0  0  0
  -10.8681   12.9934   97.7114 H   0  0  0  0  0  0  0  0  0  0  0  0
   -9.4250   14.0630   97.7114 H   0  0  0  0  0  0  0  0  0  0  0  0
   -9.6471   16.9447  103.0581 H   0  0  0  0  0  0  0  0  0  0  0  0
   -8.6871   16.9571  101.5399 H   0  0  0  0  0  0  0  0  0  0  0  0
  -10.3755   17.5702  101.5399 H   0  0  0  0  0  0  0  0  0  0  0  0
   -6.3745   15.8469  100.6149 H   0  0  0  0  0  0  0  0  0  0  0  0
  -10.0519   15.0282  103.5744 H   0  0  0  0  0  0  0  0  0  0  0  0
   12.1362   13.3849   93.1777 H   0  0  0  0  0  0  0  0  0  0  0  0
   11.2543   12.2550   92.0048 H   0  0  0  0  0  0  0  0  0  0  0  0
    5.0973    8.9968   99.1836 H   0  0  0  0  0  0  0  0  0  0  0  0
    4.0995    8.9759   97.5927 H   0  0  0  0  0  0  0  0  0  0  0  0
    4.7022   12.2662   97.0411 H   0  0  0  0  0  0  0  0  0  0  0  0
    5.5803   12.3047   98.7015 H   0  0  0  0  0  0  0  0  0  0  0  0
    2.4714    9.2927   98.6356 H   0  0  0  0  0  0  0  0  0  0  0  0
    3.5126    9.5505  100.1856 H   0  0  0  0  0  0  0  0  0  0  0  0
    3.9001   12.8318   99.5526 H   0  0  0  0  0  0  0  0  0  0  0  0
    2.9869   12.5494   97.9254 H   0  0  0  0  0  0  0  0  0  0  0  0
   -2.8695   11.4189  102.4108 H   0  0  0  0  0  0  0  0  0  0  0  0
   -3.1362   10.6126  100.7289 H   0  0  0  0  0  0  0  0  0  0  0  0
   -2.6230   13.5914   99.1454 H   0  0  0  0  0  0  0  0  0  0  0  0
   -2.4931   14.3581  100.8626 H   0  0  0  0  0  0  0  0  0  0  0  0
   -5.0595   10.8853  100.9154 H   0  0  0  0  0  0  0  0  0  0  0  0
   -4.7677   11.8697  102.4929 H   0  0  0  0  0  0  0  0  0  0  0  0
   -4.4013   14.7564  100.8034 H   0  0  0  0  0  0  0  0  0  0  0  0
   -4.5653   13.7750   99.2053 H   0  0  0  0  0  0  0  0  0  0  0  0
   13.3612   12.1733   93.6465 H   0  0  0  0  0  0  0  0  0  0  0  0
   12.8667   14.5378   98.0350 H   0  0  0  0  0  0  0  0  0  0  0  0
   13.5040   13.5987   96.5845 H   0  0  0  0  0  0  0  0  0  0  0  0
   10.2987   10.4245   94.1084 H   0  0  0  0  0  0  0  0  0  0  0  0
   12.1571   10.8821   97.6737 H   0  0  0  0  0  0  0  0  0  0  0  0
   11.4901   11.7793   99.0953 H   0  0  0  0  0  0  0  0  0  0  0  0
   -7.2665   12.0082  102.3975 H   0  0  0  0  0  0  0  0  0  0  0  0
   -7.4382   11.2867  100.7581 H   0  0  0  0  0  0  0  0  0  0  0  0
  -11.3054   14.9696   99.0475 H   0  0  0  0  0  0  0  0  0  0  0  0
  -11.1804   13.4847  100.1091 H   0  0  0  0  0  0  0  0  0  0  0  0
    7.6814   11.2404   95.6210 H   0  0  0  0  0  0  0  0  0  0  0  0
    8.4153   10.3285   94.2967 H   0  0  0  0  0  0  0  0  0  0  0  0
    1.0889    9.4828  100.3351 H   0  0  0  0  0  0  0  0  0  0  0  0
    0.2113   10.3075   98.9851 H   0  0  0  0  0  0  0  0  0  0  0  0
    0.7802   12.8875   98.6811 H   0  0  0  0  0  0  0  0  0  0  0  0
    1.9631   13.5346   99.8904 H   0  0  0  0  0  0  0  0  0  0  0  0
   -1.2776   10.0538  100.8964 H   0  0  0  0  0  0  0  0  0  0  0  0
   -0.0866   10.8659  101.9677 H   0  0  0  0  0  0  0  0  0  0  0  0
    0.3969   13.1666  101.6972 H   0  0  0  0  0  0  0  0  0  0  0  0
   -0.4117   14.1207  100.4089 H   0  0  0  0  0  0  0  0  0  0  0  0
    6.6633    8.4012   97.5640 H   0  0  0  0  0  0  0  0  0  0  0  0
    5.9578    8.7297   95.9576 H   0  0  0  0  0  0  0  0  0  0  0  0
    9.1524   11.7607   97.7614 H   0  0  0  0  0  0  0  0  0  0  0  0
    9.2562   12.8892   96.3416 H   0  0  0  0  0  0  0  0  0  0  0  0
   13.8439   12.0249   97.8285 H   0  0  0  0  0  0  0  0  0  0  0  0
   11.0393   14.4626   97.1556 H   0  0  0  0  0  0  0  0  0  0  0  0
   -9.3141   12.1789  100.6294 H   0  0  0  0  0  0  0  0  0  0  0  0
   10.2672   11.4543   93.1928 H   0  0  0  0  0  0  0  0  0  0  0  0
   12.4273   10.2804   95.7285 H   0  0  0  0  0  0  0  0  0  0  0  0
   11.5056    9.2941   94.4012 H   0  0  0  0  0  0  0  0  0  0  0  0
    4.6452   10.4688   96.9882 H   0  0  0  0  0  0  0  0  0  0  0  0
    3.4103   11.2406  100.2219 H   0  0  0  0  0  0  0  0  0  0  0  0
   -2.5201   11.8969   99.7835 H   0  0  0  0  0  0  0  0  0  0  0  0
   -5.0007   13.4062  101.8209 H   0  0  0  0  0  0  0  0  0  0  0  0
   13.0182    9.5488   93.1942 H   0  0  0  0  0  0  0  0  0  0  0  0
   13.8318   10.7021   94.4123 H   0  0  0  0  0  0  0  0  0  0  0  0
   -7.2789   13.7895   99.4033 H   0  0  0  0  0  0  0  0  0  0  0  0
  -11.2838   15.4944  101.4845 H   0  0  0  0  0  0  0  0  0  0  0  0
   -9.2119   15.7406   99.7682 H   0  0  0  0  0  0  0  0  0  0  0  0
    9.3746    8.0033   97.4006 H   0  0  0  0  0  0  0  0  0  0  0  0
    8.8201    9.5197   98.1289 H   0  0  0  0  0  0  0  0  0  0  0  0
    8.0438    8.3068   95.4177 H   0  0  0  0  0  0  0  0  0  0  0  0
  8 10  1  0
  9 11  1  0
 12 14  1  0
 13 15  1  0
  6 16  1  0
  7 16  1  0
  1 21  1  0
 23 25  1  0
 24 26  1  0
 17 29  1  0
 19 29  1  0
 17 30  1  0
 20 31  1  0
 27 32  1  0
  5 34  1  0
  7 34  1  0
 18 34  1  0
 18 35  1  0
  8 36  1  0
  9 36  1  0
 32 36  1  0
 10 37  1  0
 11 37  1  0
 12 38  1  0
 13 38  1  0
 14 39  1  0
 15 39  1  0
 16 40  1  0
 35 40  1  0
  3 41  1  0
  2 42  1  0
  4 42  1  0
 21 43  1  0
 42 43  1  0
 23 44  1  0
 24 44  1  0
 37 44  1  0
 25 45  1  0
 26 45  1  0
 38 45  1  0
 19 46  1  0
 28 46  1  0
 30 46  1  0
 20 47  1  0
 39 47  1  0
 41 47  1  0
 31 48  1  0
 41 48  1  0
 43 48  1  0
 18 49  1  0
 22 49  1  0
 49 28  1  1
 33 49  1  0
 33 50  1  0
 22 51  1  0
 27 51  1  0
 50 51  1  0
  1 52  1  0
  1 53  1  0
  1 54  1  0
  2 55  1  0
  2 56  1  0
  2 57  1  0
  3 58  1  0
  4 59  1  0
  7 60  1  0
  7 61  1  0
  8 62  1  0
  8 63  1  0
  9 64  1  0
  9 65  1  0
 10 66  1  0
 10 67  1  0
 11 68  1  0
 11 69  1  0
 12 70  1  0
 12 71  1  0
 13 72  1  0
 13 73  1  0
 14 74  1  0
 14 75  1  0
 15 76  1  0
 15 77  1  0
 16 78  1  0
 17 79  1  0
 17 80  1  0
 18 81  1  6
 19 82  1  0
 19 83  1  0
 20 84  1  0
 20 85  1  0
 21 86  1  0
 21 87  1  0
 22 88  1  0
 22 89  1  0
 23 90  1  0
 23 91  1  0
 24 92  1  0
 24 93  1  0
 25 94  1  0
 25 95  1  0
 26 96  1  0
 26 97  1  0
 27 98  1  0
 27 99  1  0
 28100  1  0
 28101  1  0
 29102  1  6
 30103  1  0
 31104  1  0
 34105  1  0
 35106  1  0
 35107  1  0
 36108  1  1
 37109  1  0
 38110  1  1
 39111  1  0
 40112  1  0
 40113  1  0
 41114  1  0
 42115  1  6
 43116  1  6
 50117  1  0
 50118  1  0
 51119  1  6
M  END
>  <PDBID>  (1) 
4ZE1

>  <PDB ID>  (1) 
4ZE1

>  <Generic Name>  (1) 
Posaconazole

>  <Brand Name>  (1) 
Noxafil#Posanol

>  <DrugBank ID>  (1) 
DB01263

>  <ATC Codes>  (1) 
J02AC04

>  <Ligand ID>  (1) 
X2N

>  <Target Name>  (1) 
Lanosterol 14-alpha demethylase

>  <UniProt ID>  (1) 
P10613

>  <PDB ID.1>  (1) 
4ZE1

>  <Seq. Identity>  (1) 
65%

$$$$
