PDB_DB00127_98
     RDKit          3D

160156  0  0  0  0  0  0  0  0999 V2000
   47.3190  -12.5200    3.4480 N   0  0  0  0  0  0  0  0  0  0  0  0
   45.9300  -13.0420    3.4620 C   0  0  0  0  0  0  0  0  0  0  0  0
   44.7300  -12.0610    3.3450 C   0  0  0  0  0  0  0  0  0  0  0  0
   43.4970  -12.7160    2.7150 C   0  0  0  0  0  0  0  0  0  0  0  0
   42.8020  -11.8540    1.7300 N   0  0  0  0  0  0  0  0  0  0  0  0
   41.6640  -12.3100    0.9140 C   0  0  0  0  0  0  0  0  0  0  0  0
   41.2950  -11.5730   -0.3910 C   0  0  0  0  0  0  0  0  0  0  0  0
   40.0260  -12.2220   -0.9830 C   0  0  0  0  0  0  0  0  0  0  0  0
   39.3760  -11.5920   -2.2440 C   0  0  0  0  0  0  0  0  0  0  0  0
   39.1340  -12.5700   -3.3270 N   0  0  0  0  0  0  0  0  0  0  0  0
   37.8110  -13.0610   -3.7400 C   0  0  0  0  0  0  0  0  0  0  0  0
   37.7530  -14.0200   -4.9500 C   0  0  0  0  0  0  0  0  0  0  0  0
   38.5920  -15.3270   -4.8960 C   0  0  0  0  0  0  0  0  0  0  0  0
   37.8320  -16.5840   -4.7250 N   0  0  0  0  0  0  0  0  0  0  0  0
   49.3160  -19.7250   17.4710 N   0  0  0  0  0  0  0  0  0  0  0  0
   48.4050  -20.6050   18.1930 C   0  0  0  0  0  0  0  0  0  0  0  0
   49.1370  -21.5060   19.1950 C   0  0  0  0  0  0  0  0  0  0  0  0
   48.1070  -22.3610   19.9270 C   0  0  0  0  0  0  0  0  0  0  0  0
   48.6110  -23.0250   21.1120 N   0  0  0  0  0  0  0  0  0  0  0  0
   47.6800  -23.7830   21.9280 C   0  0  0  0  0  0  0  0  0  0  0  0
   48.3320  -24.3900   23.1640 C   0  0  0  0  0  0  0  0  0  0  0  0
   47.3070  -25.1530   23.9830 C   0  0  0  0  0  0  0  0  0  0  0  0
   46.5250  -24.2220   24.9180 C   0  0  0  0  0  0  0  0  0  0  0  0
   45.3330  -24.8700   25.4420 N   0  0  0  0  0  0  0  0  0  0  0  0
   44.4930  -24.1640   26.3860 C   0  0  0  0  0  0  0  0  0  0  0  0
   43.7910  -22.9120   25.8330 C   0  0  0  0  0  0  0  0  0  0  0  0
   42.5460  -23.2030   24.9900 C   0  0  0  0  0  0  0  0  0  0  0  0
   41.4330  -23.4820   25.8670 N   0  0  0  0  0  0  0  0  0  0  0  0
   65.0740  -49.8620    1.3500 N   0  0  0  0  0  0  0  0  0  0  0  0
   63.8820  -50.5210    0.8320 C   0  0  0  0  0  0  0  0  0  0  0  0
   63.0800  -49.5100    0.0080 C   0  0  0  0  0  0  0  0  0  0  0  0
   61.8780  -50.1760   -0.6220 C   0  0  0  0  0  0  0  0  0  0  0  0
   61.4540  -49.5910   -1.8880 N   0  0  0  0  0  0  0  0  0  0  0  0
   60.1130  -49.9960   -2.2920 C   0  0  0  0  0  0  0  0  0  0  0  0
   59.6710  -49.4600   -3.6390 C   0  0  0  0  0  0  0  0  0  0  0  0
   58.3070  -50.0010   -4.0190 C   0  0  0  0  0  0  0  0  0  0  0  0
   58.5030  -51.2440   -4.8820 C   0  0  0  0  0  0  0  0  0  0  0  0
   57.2710  -51.9060   -5.2780 N   0  0  0  0  0  0  0  0  0  0  0  0
   57.3510  -53.0740   -6.1330 C   0  0  0  0  0  0  0  0  0  0  0  0
   58.0830  -54.2760   -5.5390 C   0  0  0  0  0  0  0  0  0  0  0  0
   57.3250  -54.9730   -4.4230 C   0  0  0  0  0  0  0  0  0  0  0  0
   56.4350  -56.0030   -4.9290 N   0  0  0  0  0  0  0  0  0  0  0  0
   72.2950  -54.8540   15.0870 N   0  0  0  0  0  0  0  0  0  0  0  0
   71.2480  -55.8690   15.3040 C   0  0  0  0  0  0  0  0  0  0  0  0
   71.6840  -57.1180   16.0490 C   0  0  0  0  0  0  0  0  0  0  0  0
   70.7460  -57.5630   17.1790 C   0  0  0  0  0  0  0  0  0  0  0  0
   71.4650  -58.1310   18.3400 N   0  0  0  0  0  0  0  0  0  0  0  0
   70.8080  -59.0920   19.2270 C   0  0  0  0  0  0  0  0  0  0  0  0
   71.3530  -59.2230   20.6420 C   0  0  0  0  0  0  0  0  0  0  0  0
   70.5560  -60.3520   21.3020 C   0  0  0  0  0  0  0  0  0  0  0  0
   70.6910  -60.4120   22.8170 C   0  0  0  0  0  0  0  0  0  0  0  0
   69.4090  -60.5880   23.5110 N   0  0  0  0  0  0  0  0  0  0  0  0
   68.9040  -59.5270   24.3720 C   0  0  0  0  0  0  0  0  0  0  0  0
   67.5580  -59.8010   25.0370 C   0  0  0  0  0  0  0  0  0  0  0  0
   66.5570  -58.6660   24.7940 C   0  0  0  0  0  0  0  0  0  0  0  0
   65.1790  -59.0480   25.1530 N   0  0  0  0  0  0  0  0  0  0  0  0
   47.6489  -12.3960    4.4158 H   0  0  0  0  0  0  0  0  0  0  0  0
   47.9319  -13.1881    2.9592 H   0  0  0  0  0  0  0  0  0  0  0  0
   45.8471  -13.7468    2.6215 H   0  0  0  0  0  0  0  0  0  0  0  0
   45.8239  -13.4514    4.4775 H   0  0  0  0  0  0  0  0  0  0  0  0
   44.4652  -11.7057    4.3518 H   0  0  0  0  0  0  0  0  0  0  0  0
   45.0386  -11.2314    2.6919 H   0  0  0  0  0  0  0  0  0  0  0  0
   43.8153  -13.6378    2.2061 H   0  0  0  0  0  0  0  0  0  0  0  0
   42.7848  -12.9110    3.5303 H   0  0  0  0  0  0  0  0  0  0  0  0
   42.4605  -11.0393    2.2597 H   0  0  0  0  0  0  0  0  0  0  0  0
   41.8711  -13.3547    0.6390 H   0  0  0  0  0  0  0  0  0  0  0  0
   40.7979  -12.1149    1.5635 H   0  0  0  0  0  0  0  0  0  0  0  0
   41.1019  -10.5118   -0.1751 H   0  0  0  0  0  0  0  0  0  0  0  0
   42.1241  -11.6459   -1.1103 H   0  0  0  0  0  0  0  0  0  0  0  0
   40.2843  -13.2603   -1.2383 H   0  0  0  0  0  0  0  0  0  0  0  0
   39.2680  -12.0824   -0.1982 H   0  0  0  0  0  0  0  0  0  0  0  0
   38.4131  -11.1458   -1.9547 H   0  0  0  0  0  0  0  0  0  0  0  0
   40.0797  -10.8416   -2.6334 H   0  0  0  0  0  0  0  0  0  0  0  0
   39.5477  -12.1515   -4.1723 H   0  0  0  0  0  0  0  0  0  0  0  0
   37.3718  -13.5881   -2.8802 H   0  0  0  0  0  0  0  0  0  0  0  0
   37.2678  -12.1624   -4.0678 H   0  0  0  0  0  0  0  0  0  0  0  0
   36.7012  -14.3136   -5.0826 H   0  0  0  0  0  0  0  0  0  0  0  0
   38.2004  -13.4445   -5.7738 H   0  0  0  0  0  0  0  0  0  0  0  0
   39.1574  -15.4020   -5.8366 H   0  0  0  0  0  0  0  0  0  0  0  0
   39.2190  -15.2374   -3.9967 H   0  0  0  0  0  0  0  0  0  0  0  0
   37.7137  -16.7797   -3.7207 H   0  0  0  0  0  0  0  0  0  0  0  0
   36.9068  -16.4888   -5.1676 H   0  0  0  0  0  0  0  0  0  0  0  0
   49.8764  -19.1837   18.1446 H   0  0  0  0  0  0  0  0  0  0  0  0
   49.9419  -20.2897   16.8791 H   0  0  0  0  0  0  0  0  0  0  0  0
   47.6760  -19.9882   18.7390 H   0  0  0  0  0  0  0  0  0  0  0  0
   47.9101  -21.2545   17.4559 H   0  0  0  0  0  0  0  0  0  0  0  0
   49.8447  -22.1562   18.6599 H   0  0  0  0  0  0  0  0  0  0  0  0
   49.6934  -20.8896   19.9165 H   0  0  0  0  0  0  0  0  0  0  0  0
   47.2714  -21.7113   20.2263 H   0  0  0  0  0  0  0  0  0  0  0  0
   47.8053  -23.1548   19.2278 H   0  0  0  0  0  0  0  0  0  0  0  0
   49.3477  -23.6765   20.8058 H   0  0  0  0  0  0  0  0  0  0  0  0
   46.8707  -23.1121   22.2519 H   0  0  0  0  0  0  0  0  0  0  0  0
   47.3026  -24.6132   21.3129 H   0  0  0  0  0  0  0  0  0  0  0  0
   49.1309  -25.0784   22.8511 H   0  0  0  0  0  0  0  0  0  0  0  0
   48.7500  -23.5805   23.7805 H   0  0  0  0  0  0  0  0  0  0  0  0
   46.6011  -25.6480   23.2999 H   0  0  0  0  0  0  0  0  0  0  0  0
   47.8401  -25.8915   24.5998 H   0  0  0  0  0  0  0  0  0  0  0  0
   47.1732  -23.9329   25.7584 H   0  0  0  0  0  0  0  0  0  0  0  0
   46.2122  -23.3385   24.3422 H   0  0  0  0  0  0  0  0  0  0  0  0
   44.7409  -25.1067   24.6331 H   0  0  0  0  0  0  0  0  0  0  0  0
   43.7179  -24.8605   26.7383 H   0  0  0  0  0  0  0  0  0  0  0  0
   45.1628  -23.8099   27.1835 H   0  0  0  0  0  0  0  0  0  0  0  0
   43.4907  -22.2824   26.6836 H   0  0  0  0  0  0  0  0  0  0  0  0
   44.5124  -22.4175   25.1658 H   0  0  0  0  0  0  0  0  0  0  0  0
   42.3119  -22.3283   24.3654 H   0  0  0  0  0  0  0  0  0  0  0  0
   42.7331  -24.0723   24.3425 H   0  0  0  0  0  0  0  0  0  0  0  0
   41.7404  -23.4049   26.8470 H   0  0  0  0  0  0  0  0  0  0  0  0
   40.6779  -22.8043   25.6897 H   0  0  0  0  0  0  0  0  0  0  0  0
   65.0527  -49.8738    2.3797 H   0  0  0  0  0  0  0  0  0  0  0  0
   65.9128  -50.3592    1.0182 H   0  0  0  0  0  0  0  0  0  0  0  0
   64.1751  -51.3683    0.1947 H   0  0  0  0  0  0  0  0  0  0  0  0
   63.2690  -50.8952    1.6652 H   0  0  0  0  0  0  0  0  0  0  0  0
   62.7400  -48.6959    0.6650 H   0  0  0  0  0  0  0  0  0  0  0  0
   63.7238  -49.1098   -0.7891 H   0  0  0  0  0  0  0  0  0  0  0  0
   62.1248  -51.2334   -0.7983 H   0  0  0  0  0  0  0  0  0  0  0  0
   61.0423  -50.0391    0.0800 H   0  0  0  0  0  0  0  0  0  0  0  0
   61.4716  -48.5653   -1.7959 H   0  0  0  0  0  0  0  0  0  0  0  0
   60.0845  -51.0948   -2.3338 H   0  0  0  0  0  0  0  0  0  0  0  0
   59.4223  -49.5745   -1.5469 H   0  0  0  0  0  0  0  0  0  0  0  0
   59.6216  -48.3622   -3.5905 H   0  0  0  0  0  0  0  0  0  0  0  0
   60.3988  -49.7803   -4.3991 H   0  0  0  0  0  0  0  0  0  0  0  0
   57.7460  -50.2648   -3.1103 H   0  0  0  0  0  0  0  0  0  0  0  0
   57.7415  -49.2400   -4.5767 H   0  0  0  0  0  0  0  0  0  0  0  0
   59.0414  -50.9470   -5.7941 H   0  0  0  0  0  0  0  0  0  0  0  0
   59.0610  -51.9656   -4.2672 H   0  0  0  0  0  0  0  0  0  0  0  0
   56.7913  -52.1955   -4.4137 H   0  0  0  0  0  0  0  0  0  0  0  0
   56.3248  -53.3879   -6.3746 H   0  0  0  0  0  0  0  0  0  0  0  0
   57.9391  -52.7660   -7.0101 H   0  0  0  0  0  0  0  0  0  0  0  0
   58.2606  -55.0047   -6.3437 H   0  0  0  0  0  0  0  0  0  0  0  0
   59.0159  -53.8939   -5.0988 H   0  0  0  0  0  0  0  0  0  0  0  0
   58.0497  -55.4358   -3.7369 H   0  0  0  0  0  0  0  0  0  0  0  0
   56.7126  -54.2192   -3.9066 H   0  0  0  0  0  0  0  0  0  0  0  0
   56.0034  -56.5025   -4.1384 H   0  0  0  0  0  0  0  0  0  0  0  0
   55.6989  -55.5687   -5.5037 H   0  0  0  0  0  0  0  0  0  0  0  0
   72.6415  -54.5181   15.9970 H   0  0  0  0  0  0  0  0  0  0  0  0
   73.0729  -55.2712   14.5562 H   0  0  0  0  0  0  0  0  0  0  0  0
   70.4362  -55.3992   15.8786 H   0  0  0  0  0  0  0  0  0  0  0  0
   70.9478  -56.2081   14.3016 H   0  0  0  0  0  0  0  0  0  0  0  0
   71.7560  -57.9405   15.3222 H   0  0  0  0  0  0  0  0  0  0  0  0
   72.6433  -56.8703   16.5270 H   0  0  0  0  0  0  0  0  0  0  0  0
   70.1677  -56.6908   17.5179 H   0  0  0  0  0  0  0  0  0  0  0  0
   70.0982  -58.3549   16.7749 H   0  0  0  0  0  0  0  0  0  0  0  0
   72.3028  -58.5998   17.9669 H   0  0  0  0  0  0  0  0  0  0  0  0
   69.7507  -58.7990   19.3062 H   0  0  0  0  0  0  0  0  0  0  0  0
   70.9887  -60.0730   18.7633 H   0  0  0  0  0  0  0  0  0  0  0  0
   72.4233  -59.4756   20.6169 H   0  0  0  0  0  0  0  0  0  0  0  0
   71.2519  -58.2805   21.2002 H   0  0  0  0  0  0  0  0  0  0  0  0
   69.4929  -60.2124   21.0562 H   0  0  0  0  0  0  0  0  0  0  0  0
   70.9649  -61.2957   20.9119 H   0  0  0  0  0  0  0  0  0  0  0  0
   71.3461  -61.2571   23.0753 H   0  0  0  0  0  0  0  0  0  0  0  0
   71.1071  -59.4477   23.1440 H   0  0  0  0  0  0  0  0  0  0  0  0
   68.6959  -60.7489   22.7854 H   0  0  0  0  0  0  0  0  0  0  0  0
   69.6450  -59.3546   25.1665 H   0  0  0  0  0  0  0  0  0  0  0  0
   68.7441  -58.6584   23.7163 H   0  0  0  0  0  0  0  0  0  0  0  0
   67.1432  -60.7342   24.6283 H   0  0  0  0  0  0  0  0  0  0  0  0
   67.7244  -59.8815   26.1214 H   0  0  0  0  0  0  0  0  0  0  0  0
   66.8528  -57.7976   25.4010 H   0  0  0  0  0  0  0  0  0  0  0  0
   66.5713  -58.4293   23.7199 H   0  0  0  0  0  0  0  0  0  0  0  0
   65.0860  -59.0738   26.1785 H   0  0  0  0  0  0  0  0  0  0  0  0
   64.5195  -58.3581   24.7657 H   0  0  0  0  0  0  0  0  0  0  0  0
  1  2  1  0
  2  3  1  0
  3  4  1  0
  4  5  1  0
  5  6  1  0
  6  7  1  0
  7  8  1  0
  8  9  1  0
  9 10  1  0
 10 11  1  0
 11 12  1  0
 12 13  1  0
 13 14  1  0
 15 16  1  0
 16 17  1  0
 17 18  1  0
 18 19  1  0
 19 20  1  0
 20 21  1  0
 21 22  1  0
 22 23  1  0
 23 24  1  0
 24 25  1  0
 25 26  1  0
 26 27  1  0
 27 28  1  0
 29 30  1  0
 30 31  1  0
 31 32  1  0
 32 33  1  0
 33 34  1  0
 34 35  1  0
 35 36  1  0
 36 37  1  0
 37 38  1  0
 38 39  1  0
 39 40  1  0
 40 41  1  0
 41 42  1  0
 43 44  1  0
 44 45  1  0
 45 46  1  0
 46 47  1  0
 47 48  1  0
 48 49  1  0
 49 50  1  0
 50 51  1  0
 51 52  1  0
 52 53  1  0
 53 54  1  0
 54 55  1  0
 55 56  1  0
  1 57  1  0
  1 58  1  0
  2 59  1  0
  2 60  1  0
  3 61  1  0
  3 62  1  0
  4 63  1  0
  4 64  1  0
  5 65  1  0
  6 66  1  0
  6 67  1  0
  7 68  1  0
  7 69  1  0
  8 70  1  0
  8 71  1  0
  9 72  1  0
  9 73  1  0
 10 74  1  0
 11 75  1  0
 11 76  1  0
 12 77  1  0
 12 78  1  0
 13 79  1  0
 13 80  1  0
 14 81  1  0
 14 82  1  0
 15 83  1  0
 15 84  1  0
 16 85  1  0
 16 86  1  0
 17 87  1  0
 17 88  1  0
 18 89  1  0
 18 90  1  0
 19 91  1  0
 20 92  1  0
 20 93  1  0
 21 94  1  0
 21 95  1  0
 22 96  1  0
 22 97  1  0
 23 98  1  0
 23 99  1  0
 24100  1  0
 25101  1  0
 25102  1  0
 26103  1  0
 26104  1  0
 27105  1  0
 27106  1  0
 28107  1  0
 28108  1  0
 29109  1  0
 29110  1  0
 30111  1  0
 30112  1  0
 31113  1  0
 31114  1  0
 32115  1  0
 32116  1  0
 33117  1  0
 34118  1  0
 34119  1  0
 35120  1  0
 35121  1  0
 36122  1  0
 36123  1  0
 37124  1  0
 37125  1  0
 38126  1  0
 39127  1  0
 39128  1  0
 40129  1  0
 40130  1  0
 41131  1  0
 41132  1  0
 42133  1  0
 42134  1  0
 43135  1  0
 43136  1  0
 44137  1  0
 44138  1  0
 45139  1  0
 45140  1  0
 46141  1  0
 46142  1  0
 47143  1  0
 48144  1  0
 48145  1  0
 49146  1  0
 49147  1  0
 50148  1  0
 50149  1  0
 51150  1  0
 51151  1  0
 52152  1  0
 53153  1  0
 53154  1  0
 54155  1  0
 54156  1  0
 55157  1  0
 55158  1  0
 56159  1  0
 56160  1  0
M  END
>  <PDBID>  (1) 
3C6M

>  <PDB ID>  (1) 
3C6M

>  <Generic Name>  (1) 
Spermine

>  <Brand Name>  (1) 
nan

>  <DrugBank ID>  (1) 
DB00127

>  <ATC Codes>  (1) 
nan

>  <Ligand ID>  (1) 
SPM

>  <Target Name>  (1) 
Spermine synthase

>  <UniProt ID>  (1) 
P52788

>  <PDB ID.1>  (1) 
3C6M

>  <Seq. Identity>  (1) 
93%

$$$$
