PDB_DB01336_97
     RDKit          3D

 96102  0  0  0  0  0  0  0  0999 V2000
   -8.5280    2.6990    8.3330 N   0  0  0  0  0  0  0  0  0  0  0  0
   -9.7750    1.8810    8.5480 C   0  0  0  0  0  0  0  0  0  0  0  0
  -11.1060    2.6500    8.5140 C   0  0  0  0  0  0  0  0  0  0  0  0
  -11.0780    3.8030    7.5230 C   0  0  0  0  0  0  0  0  0  0  0  0
   -9.8890    4.1240    6.8530 C   0  0  0  0  0  0  0  0  0  0  0  0
   -8.5680    3.3670    7.0450 C   0  0  2  0  0  0  0  0  0  0  0  0
  -12.2630    4.5360    7.2660 C   0  0  0  0  0  0  0  0  0  0  0  0
  -12.2820    5.6070    6.3690 C   0  0  0  0  0  0  0  0  0  0  0  0
  -11.0840    5.9570    5.6980 C   0  0  0  0  0  0  0  0  0  0  0  0
   -9.9110    5.2190    5.9580 C   0  0  0  0  0  0  0  0  0  0  0  0
  -10.9990    7.0010    4.7790 O   0  0  0  0  0  0  0  0  0  0  0  0
   -9.8170    7.7070    4.6820 C   0  0  0  0  0  0  0  0  0  0  0  0
   -9.4320    8.5970    5.7040 C   0  0  0  0  0  0  0  0  0  0  0  0
   -8.1850    9.2850    5.5670 C   0  0  0  0  0  0  0  0  0  0  0  0
   -7.3940    9.0450    4.3960 C   0  0  0  0  0  0  0  0  0  0  0  0
   -7.7760    8.1340    3.3930 C   0  0  0  0  0  0  0  0  0  0  0  0
   -9.0110    7.4620    3.5510 C   0  0  0  0  0  0  0  0  0  0  0  0
   -6.8830    7.8530    2.1390 C   0  0  0  0  0  0  0  0  0  0  0  0
   -7.5930    7.8300    0.7360 C   0  0  1  0  0  0  0  0  0  0  0  0
   -7.6320    9.1730    0.0660 N   0  0  0  0  0  0  0  0  0  0  0  0
   -6.2970    9.6710   -0.3760 C   0  0  0  0  0  0  0  0  0  0  0  0
   -5.5340    8.6850   -1.2930 C   0  0  0  0  0  0  0  0  0  0  0  0
   -5.8560    7.2000   -1.0540 C   0  0  0  0  0  0  0  0  0  0  0  0
   -6.8410    6.7910   -0.1200 C   0  0  0  0  0  0  0  0  0  0  0  0
   -5.1740    6.1880   -1.7940 C   0  0  0  0  0  0  0  0  0  0  0  0
   -5.4400    4.7920   -1.6160 C   0  0  0  0  0  0  0  0  0  0  0  0
   -6.4090    4.3950   -0.6930 C   0  0  0  0  0  0  0  0  0  0  0  0
   -7.0690    5.4010    0.0480 C   0  0  0  0  0  0  0  0  0  0  0  0
   -8.0490    5.0000    0.9010 O   0  0  0  0  0  0  0  0  0  0  0  0
   -8.0060    4.3640    2.0920 C   0  0  0  0  0  0  0  0  0  0  0  0
   -9.1550    3.6180    2.4280 C   0  0  0  0  0  0  0  0  0  0  0  0
   -9.2080    2.9470    3.6610 C   0  0  0  0  0  0  0  0  0  0  0  0
   -8.1260    3.0490    4.5500 C   0  0  0  0  0  0  0  0  0  0  0  0
   -7.0130    3.8160    4.1880 C   0  0  0  0  0  0  0  0  0  0  0  0
   -6.9220    4.4680    2.9510 C   0  0  0  0  0  0  0  0  0  0  0  0
   -8.2060    2.3640    5.8990 C   0  0  0  0  0  0  0  0  0  0  0  0
  -13.4300    6.3120    6.1260 O   0  0  0  0  0  0  0  0  0  0  0  0
  -14.6040    6.3370    6.9810 C   0  0  0  0  0  0  0  0  0  0  0  0
  -10.3170    8.7430    6.7750 O   0  0  0  0  0  0  0  0  0  0  0  0
   -4.7680    3.8020   -2.3020 O   0  0  0  0  0  0  0  0  0  0  0  0
   -4.0500    4.0480   -3.5280 C   0  0  0  0  0  0  0  0  0  0  0  0
   -6.6670    3.0280   -0.4830 O   0  0  0  0  0  0  0  0  0  0  0  0
   -8.3320    3.6760    9.4010 C   0  0  0  0  0  0  0  0  0  0  0  0
   -8.4060    9.0260   -1.1770 C   0  0  0  0  0  0  0  0  0  0  0  0
   -8.2310   10.1940    0.9700 C   0  0  0  0  0  0  0  0  0  0  0  0
   -7.8580    2.3970   -0.9550 C   0  0  0  0  0  0  0  0  0  0  0  0
   -7.3770    1.7830    8.4060 C   0  0  0  0  0  0  0  0  0  0  0  0
  -10.3860    9.7410    7.8030 C   0  0  0  0  0  0  0  0  0  0  0  0
   -9.8116    1.1121    7.7622 H   0  0  0  0  0  0  0  0  0  0  0  0
   -9.6922    1.4813    9.5694 H   0  0  0  0  0  0  0  0  0  0  0  0
  -11.9092    1.9554    8.2268 H   0  0  0  0  0  0  0  0  0  0  0  0
  -11.2791    3.0699    9.5159 H   0  0  0  0  0  0  0  0  0  0  0  0
   -7.7943    4.1480    7.0062 H   0  0  0  0  0  0  0  0  0  0  0  0
  -13.1909    4.2549    7.7855 H   0  0  0  0  0  0  0  0  0  0  0  0
   -8.9800    5.5050    5.4467 H   0  0  0  0  0  0  0  0  0  0  0  0
   -7.8406    9.9834    6.3439 H   0  0  0  0  0  0  0  0  0  0  0  0
   -6.4492    9.5955    4.2761 H   0  0  0  0  0  0  0  0  0  0  0  0
   -9.3445    6.7442    2.7871 H   0  0  0  0  0  0  0  0  0  0  0  0
   -6.1082    8.6331    2.1041 H   0  0  0  0  0  0  0  0  0  0  0  0
   -6.5104    6.8281    2.2827 H   0  0  0  0  0  0  0  0  0  0  0  0
   -8.6511    7.5573    0.8626 H   0  0  0  0  0  0  0  0  0  0  0  0
   -6.4428   10.6130   -0.9250 H   0  0  0  0  0  0  0  0  0  0  0  0
   -5.6879    9.8016    0.5306 H   0  0  0  0  0  0  0  0  0  0  0  0
   -5.7839    8.9255   -2.3369 H   0  0  0  0  0  0  0  0  0  0  0  0
   -4.4660    8.8110   -1.0619 H   0  0  0  0  0  0  0  0  0  0  0  0
   -4.4147    6.4920   -2.5295 H   0  0  0  0  0  0  0  0  0  0  0  0
  -10.0032    3.5621    1.7298 H   0  0  0  0  0  0  0  0  0  0  0  0
  -10.0901    2.3465    3.9279 H   0  0  0  0  0  0  0  0  0  0  0  0
   -6.1798    3.9105    4.8999 H   0  0  0  0  0  0  0  0  0  0  0  0
   -6.0251    5.0404    2.6719 H   0  0  0  0  0  0  0  0  0  0  0  0
   -7.2315    1.9055    6.1229 H   0  0  0  0  0  0  0  0  0  0  0  0
   -9.0004    1.6048    5.8482 H   0  0  0  0  0  0  0  0  0  0  0  0
  -14.2900    6.3303    8.0352 H   0  0  0  0  0  0  0  0  0  0  0  0
  -15.1864    7.2478    6.7776 H   0  0  0  0  0  0  0  0  0  0  0  0
  -15.2246    5.4519    6.7776 H   0  0  0  0  0  0  0  0  0  0  0  0
   -3.0332    4.3964   -3.2939 H   0  0  0  0  0  0  0  0  0  0  0  0
   -3.9934    3.1180   -4.1127 H   0  0  0  0  0  0  0  0  0  0  0  0
   -4.5756    4.8173   -4.1127 H   0  0  0  0  0  0  0  0  0  0  0  0
   -8.4320    3.1778   10.3766 H   0  0  0  0  0  0  0  0  0  0  0  0
   -7.3276    4.1163    9.3153 H   0  0  0  0  0  0  0  0  0  0  0  0
   -9.0888    4.4697    9.3153 H   0  0  0  0  0  0  0  0  0  0  0  0
   -9.4594    8.8259   -0.9315 H   0  0  0  0  0  0  0  0  0  0  0  0
   -8.3361    9.9535   -1.7643 H   0  0  0  0  0  0  0  0  0  0  0  0
   -8.0010    8.1887   -1.7643 H   0  0  0  0  0  0  0  0  0  0  0  0
   -8.0599    9.9024    2.0168 H   0  0  0  0  0  0  0  0  0  0  0  0
   -7.7630   11.1713    0.7804 H   0  0  0  0  0  0  0  0  0  0  0  0
   -9.3124   10.2623    0.7804 H   0  0  0  0  0  0  0  0  0  0  0  0
   -8.4667    2.0745   -0.0974 H   0  0  0  0  0  0  0  0  0  0  0  0
   -8.4328    3.1089   -1.5656 H   0  0  0  0  0  0  0  0  0  0  0  0
   -7.5919    1.5216   -1.5656 H   0  0  0  0  0  0  0  0  0  0  0  0
   -7.1307    1.5870    9.4600 H   0  0  0  0  0  0  0  0  0  0  0  0
   -7.6296    0.8362    7.9063 H   0  0  0  0  0  0  0  0  0  0  0  0
   -6.5111    2.2417    7.9063 H   0  0  0  0  0  0  0  0  0  0  0  0
  -10.3524    9.2546    8.7891 H   0  0  0  0  0  0  0  0  0  0  0  0
   -9.5333   10.4288    7.7041 H   0  0  0  0  0  0  0  0  0  0  0  0
  -11.3253   10.3049    7.7041 H   0  0  0  0  0  0  0  0  0  0  0  0
  1  2  1  0
  2  3  1  0
  3  4  1  0
  4  5  2  0
  1  6  1  0
  5  6  1  0
  4  7  1  0
  7  8  2  0
  8  9  1  0
  5 10  1  0
  9 10  2  0
  9 11  1  0
 11 12  1  0
 12 13  2  0
 13 14  1  0
 14 15  2  0
 15 16  1  0
 12 17  1  0
 16 17  2  0
 16 18  1  0
 18 19  1  0
 19 20  1  0
 20 21  1  0
 21 22  1  0
 22 23  1  0
 19 24  1  0
 23 24  2  0
 23 25  1  0
 25 26  2  0
 26 27  1  0
 24 28  1  0
 27 28  2  0
 28 29  1  0
 29 30  1  0
 30 31  2  0
 31 32  1  0
 32 33  2  0
 33 34  1  0
 30 35  1  0
 34 35  2  0
  6 36  1  0
 33 36  1  0
  8 37  1  0
 37 38  1  0
 13 39  1  0
 26 40  1  0
 40 41  1  0
 27 42  1  0
  1 43  1  0
 20 44  1  0
 20 45  1  0
 42 46  1  0
  1 47  1  0
 39 48  1  0
  2 49  1  0
  2 50  1  0
  3 51  1  0
  3 52  1  0
  6 53  1  1
  7 54  1  0
 10 55  1  0
 14 56  1  0
 15 57  1  0
 17 58  1  0
 18 59  1  0
 18 60  1  0
 19 61  1  1
 21 62  1  0
 21 63  1  0
 22 64  1  0
 22 65  1  0
 25 66  1  0
 31 67  1  0
 32 68  1  0
 34 69  1  0
 35 70  1  0
 36 71  1  0
 36 72  1  0
 38 73  1  0
 38 74  1  0
 38 75  1  0
 41 76  1  0
 41 77  1  0
 41 78  1  0
 43 79  1  0
 43 80  1  0
 43 81  1  0
 44 82  1  0
 44 83  1  0
 44 84  1  0
 45 85  1  0
 45 86  1  0
 45 87  1  0
 46 88  1  0
 46 89  1  0
 46 90  1  0
 47 91  1  0
 47 92  1  0
 47 93  1  0
 48 94  1  0
 48 95  1  0
 48 96  1  0
M  CHG  2   1   1  20   1
M  END
$$$$
