PDB_DB01167_96
     RDKit          3D

 87 93  0  0  0  0  0  0  0  0999 V2000
  -34.6830  -23.1080   30.3020 C   0  0  0  0  0  0  0  0  0  0  0  0
  -33.3760  -23.0360   30.7500 C   0  0  0  0  0  0  0  0  0  0  0  0
  -31.8780  -27.4470   28.1200 C   0  0  0  0  0  0  0  0  0  0  0  0
  -31.1800  -27.9740   29.3800 C   0  0  0  0  0  0  0  0  0  0  0  0
  -31.9650  -27.7510   30.7360 C   0  0  1  0  0  0  0  0  0  0  0  0
  -31.3160  -28.4450   31.9240 C   0  0  0  0  0  0  0  0  0  0  0  0
  -32.0650  -26.2970   31.0340 N   0  0  0  0  0  0  0  0  0  0  0  0
  -33.0920  -25.5070   30.6370 C   0  0  0  0  0  0  0  0  0  0  0  0
  -34.1400  -25.8260   30.0980 O   0  0  0  0  0  0  0  0  0  0  0  0
  -32.6390  -24.2470   30.9900 N   0  0  0  0  0  0  0  0  0  0  0  0
  -31.4100  -24.3280   31.6030 C   0  0  0  0  0  0  0  0  0  0  0  0
  -31.0370  -25.6210   31.6460 N   0  0  0  0  0  0  0  0  0  0  0  0
  -35.3230  -21.9760   29.8410 C   0  0  0  0  0  0  0  0  0  0  0  0
  -34.6620  -20.7590   29.8140 C   0  0  0  0  0  0  0  0  0  0  0  0
  -33.3560  -20.6840   30.2890 C   0  0  0  0  0  0  0  0  0  0  0  0
  -32.7200  -21.8170   30.7640 C   0  0  0  0  0  0  0  0  0  0  0  0
  -35.2710  -19.6740   29.2950 N   0  0  0  0  0  0  0  0  0  0  0  0
  -36.7330  -19.6550   29.3210 C   0  0  0  0  0  0  0  0  0  0  0  0
  -37.2360  -18.7440   28.2470 C   0  0  0  0  0  0  0  0  0  0  0  0
  -36.6450  -17.4120   28.3950 N   0  0  0  0  0  0  0  0  0  0  0  0
  -35.1830  -17.4030   28.4830 C   0  0  0  0  0  0  0  0  0  0  0  0
  -34.7070  -18.3500   29.5450 C   0  0  0  0  0  0  0  0  0  0  0  0
  -37.1920  -16.4410   27.6080 C   0  0  0  0  0  0  0  0  0  0  0  0
  -38.2200  -16.7460   26.7320 C   0  0  0  0  0  0  0  0  0  0  0  0
  -38.7830  -15.7660   25.9380 C   0  0  0  0  0  0  0  0  0  0  0  0
  -38.3230  -14.4680   26.0170 C   0  0  0  0  0  0  0  0  0  0  0  0
  -37.2980  -14.1480   26.8870 C   0  0  0  0  0  0  0  0  0  0  0  0
  -36.7330  -15.1330   27.6750 C   0  0  0  0  0  0  0  0  0  0  0  0
  -38.9440  -13.5840   25.1660 O   0  0  0  0  0  0  0  0  0  0  0  0
  -38.5610  -12.2040   25.1810 C   0  0  0  0  0  0  0  0  0  0  0  0
  -38.9910  -11.5780   23.8780 C   0  0  1  0  0  0  0  0  0  0  0  0
  -38.4880  -12.3490   22.6800 C   0  0  0  0  0  0  0  0  0  0  0  0
  -39.5310  -13.2400   22.4010 O   0  0  0  0  0  0  0  0  0  0  0  0
  -40.7350  -12.5360   22.6590 C   0  0  2  0  0  0  0  0  0  0  0  0
  -40.4290  -11.5900   23.6870 O   0  0  0  0  0  0  0  0  0  0  0  0
  -41.6970  -13.4940   23.3120 C   0  0  0  0  0  0  0  0  0  0  0  0
  -43.0100  -12.8640   23.2810 N   0  0  0  0  0  0  0  0  0  0  0  0
  -43.4020  -11.7150   23.8070 C   0  0  0  0  0  0  0  0  0  0  0  0
  -44.6870  -11.5370   23.6240 N   0  0  0  0  0  0  0  0  0  0  0  0
  -45.0390  -12.6380   22.9440 C   0  0  0  0  0  0  0  0  0  0  0  0
  -44.0650  -13.4820   22.7010 N   0  0  0  0  0  0  0  0  0  0  0  0
  -41.2300  -11.9910   21.2880 C   0  0  0  0  0  0  0  0  0  0  0  0
  -41.5420  -12.8410   20.2210 C   0  0  0  0  0  0  0  0  0  0  0  0
  -41.9640  -12.3580   19.0000 C   0  0  0  0  0  0  0  0  0  0  0  0
  -42.0340  -10.9990   18.8120 C   0  0  0  0  0  0  0  0  0  0  0  0
  -41.7540  -10.1180   19.8350 C   0  0  0  0  0  0  0  0  0  0  0  0
  -41.3570  -10.6210   21.0630 C   0  0  0  0  0  0  0  0  0  0  0  0
  -42.3660  -10.3950   17.2140 Cl  0  0  0  0  0  0  0  0  0  0  0  0
  -41.3190  -14.5560   20.3230 Cl  0  0  0  0  0  0  0  0  0  0  0  0
  -35.2139  -24.0714   30.3134 H   0  0  0  0  0  0  0  0  0  0  0  0
  -32.7248  -26.8077   28.4102 H   0  0  0  0  0  0  0  0  0  0  0  0
  -31.1637  -26.8609   27.5231 H   0  0  0  0  0  0  0  0  0  0  0  0
  -32.2461  -28.2945   27.5231 H   0  0  0  0  0  0  0  0  0  0  0  0
  -31.0224  -29.0552   29.2533 H   0  0  0  0  0  0  0  0  0  0  0  0
  -30.2472  -27.3984   29.4723 H   0  0  0  0  0  0  0  0  0  0  0  0
  -32.9614  -28.1940   30.5910 H   0  0  0  0  0  0  0  0  0  0  0  0
  -31.7128  -28.0207   32.8581 H   0  0  0  0  0  0  0  0  0  0  0  0
  -31.5390  -29.5215   31.8865 H   0  0  0  0  0  0  0  0  0  0  0  0
  -30.2270  -28.2946   31.8865 H   0  0  0  0  0  0  0  0  0  0  0  0
  -30.8294  -23.4788   31.9926 H   0  0  0  0  0  0  0  0  0  0  0  0
  -36.3645  -22.0403   29.4928 H   0  0  0  0  0  0  0  0  0  0  0  0
  -32.8271  -19.7195   30.2867 H   0  0  0  0  0  0  0  0  0  0  0  0
  -31.6932  -21.7493   31.1528 H   0  0  0  0  0  0  0  0  0  0  0  0
  -37.1165  -20.6716   29.1496 H   0  0  0  0  0  0  0  0  0  0  0  0
  -37.0789  -19.2945   30.3010 H   0  0  0  0  0  0  0  0  0  0  0  0
  -36.9627  -19.1555   27.2642 H   0  0  0  0  0  0  0  0  0  0  0  0
  -38.3299  -18.6622   28.3292 H   0  0  0  0  0  0  0  0  0  0  0  0
  -34.7615  -17.7071   27.5135 H   0  0  0  0  0  0  0  0  0  0  0  0
  -34.8518  -16.3867   28.7428 H   0  0  0  0  0  0  0  0  0  0  0  0
  -35.0344  -17.9909   30.5319 H   0  0  0  0  0  0  0  0  0  0  0  0
  -33.6086  -18.4062   29.5250 H   0  0  0  0  0  0  0  0  0  0  0  0
  -38.5921  -17.7792   26.6678 H   0  0  0  0  0  0  0  0  0  0  0  0
  -39.5972  -16.0203   25.2435 H   0  0  0  0  0  0  0  0  0  0  0  0
  -36.9329  -13.1124   26.9522 H   0  0  0  0  0  0  0  0  0  0  0  0
  -35.9122  -14.8779   28.3614 H   0  0  0  0  0  0  0  0  0  0  0  0
  -39.0531  -11.6907   26.0203 H   0  0  0  0  0  0  0  0  0  0  0  0
  -37.4714  -12.1148   25.3024 H   0  0  0  0  0  0  0  0  0  0  0  0
  -38.5834  -10.5584   23.9442 H   0  0  0  0  0  0  0  0  0  0  0  0
  -38.3069  -11.6770   21.8281 H   0  0  0  0  0  0  0  0  0  0  0  0
  -37.5309  -12.8569   22.8695 H   0  0  0  0  0  0  0  0  0  0  0  0
  -41.7201  -14.4435   22.7571 H   0  0  0  0  0  0  0  0  0  0  0  0
  -41.3912  -13.7151   24.3453 H   0  0  0  0  0  0  0  0  0  0  0  0
  -42.7400  -11.0066   24.3265 H   0  0  0  0  0  0  0  0  0  0  0  0
  -46.0721  -12.8204   22.6133 H   0  0  0  0  0  0  0  0  0  0  0  0
  -42.2399  -13.0495   18.1902 H   0  0  0  0  0  0  0  0  0  0  0  0
  -41.8445   -9.0330   19.6784 H   0  0  0  0  0  0  0  0  0  0  0  0
  -41.1361   -9.9210   21.8823 H   0  0  0  0  0  0  0  0  0  0  0  0
  1  2  2  0
  3  4  1  0
  4  5  1  0
  5  6  1  0
  5  7  1  0
  7  8  1  0
  8  9  2  0
  2 10  1  0
  8 10  1  0
 10 11  1  0
  7 12  1  0
 11 12  2  0
  1 13  1  0
 13 14  2  0
 14 15  1  0
  2 16  1  0
 15 16  2  0
 14 17  1  0
 17 18  1  0
 18 19  1  0
 19 20  1  0
 20 21  1  0
 17 22  1  0
 21 22  1  0
 20 23  1  0
 23 24  2  0
 24 25  1  0
 25 26  2  0
 26 27  1  0
 23 28  1  0
 27 28  2  0
 26 29  1  0
 29 30  1  0
 30 31  1  0
 31 32  1  0
 32 33  1  0
 33 34  1  0
 31 35  1  0
 34 35  1  0
 34 36  1  1
 36 37  1  0
 37 38  1  0
 38 39  2  0
 40 39  1  0
 37 41  1  0
 40 41  2  0
 34 42  1  0
 42 43  2  0
 43 44  1  0
 44 45  2  0
 45 46  1  0
 42 47  1  0
 46 47  2  0
 45 48  1  0
 43 49  1  0
  1 50  1  0
  3 51  1  0
  3 52  1  0
  3 53  1  0
  4 54  1  0
  4 55  1  0
  5 56  1  6
  6 57  1  0
  6 58  1  0
  6 59  1  0
 11 60  1  0
 13 61  1  0
 15 62  1  0
 16 63  1  0
 18 64  1  0
 18 65  1  0
 19 66  1  0
 19 67  1  0
 21 68  1  0
 21 69  1  0
 22 70  1  0
 22 71  1  0
 24 72  1  0
 25 73  1  0
 27 74  1  0
 28 75  1  0
 30 76  1  0
 30 77  1  0
 31 78  1  6
 32 79  1  0
 32 80  1  0
 36 81  1  0
 36 82  1  0
 38 83  1  0
 40 84  1  0
 44 85  1  0
 46 86  1  0
 47 87  1  0
M  END
>  <PDBID>  (1) 
5V5Z

>  <PDB ID>  (1) 
5V5Z

>  <Generic Name>  (1) 
Itraconazole

>  <Brand Name>  (1) 
Itraconazole#Onmel#Sporanox#Sporanox Oral Solution 10mg/ml#Itrizole#Oriconazole#Sporal

>  <DrugBank ID>  (1) 
DB01167

>  <ATC Codes>  (1) 
J02AC02

>  <Ligand ID>  (1) 
1YN

>  <Target Name>  (1) 
Lanosterol 14-alpha demethylase

>  <UniProt ID>  (1) 
Q16850

>  <PDB ID.1>  (1) 
5V5Z

>  <Seq. Identity>  (1) 
38%

$$$$
