PDB_DB00273_95
     RDKit          3D

 43 45  0  0  0  0  0  0  0  0999 V2000
   37.1550  -11.4910  -25.7460 C   0  0  0  0  0  0  0  0  0  0  0  0
   35.9910  -11.7240  -24.7800 C   0  0  0  0  0  0  0  0  0  0  0  0
   35.2770  -13.0420  -25.1000 C   0  0  0  0  0  0  0  0  0  0  0  0
   35.0570  -10.6240  -24.7820 O   0  0  0  0  0  0  0  0  0  0  0  0
   36.4770  -11.7670  -23.4250 O   0  0  0  0  0  0  0  0  0  0  0  0
   35.5130  -11.1320  -22.5890 C   0  0  1  0  0  0  0  0  0  0  0  0
   36.2050  -10.6180  -21.3430 C   0  0  2  0  0  0  0  0  0  0  0  0
   35.2100  -10.0950  -20.4700 O   0  0  0  0  0  0  0  0  0  0  0  0
   35.8160   -9.0190  -19.7550 C   0  0  0  0  0  0  0  0  0  0  0  0
   36.3660   -9.5950  -18.4350 C   0  0  0  0  0  0  0  0  0  0  0  0
   34.8040   -7.8980  -19.5360 C   0  0  0  0  0  0  0  0  0  0  0  0
   36.8700   -8.5070  -20.5820 O   0  0  0  0  0  0  0  0  0  0  0  0
   37.1620   -9.4520  -21.6060 C   0  0  2  0  0  0  0  0  0  0  0  0
   36.9480   -8.8080  -22.9790 C   0  0  0  0  0  0  0  0  0  0  0  0
   35.5700   -8.7870  -23.3660 O   0  0  0  0  0  0  0  0  0  0  0  0
   34.8850  -10.0530  -23.4900 C   0  0  1  0  0  0  0  0  0  0  0  0
   33.3960   -9.8180  -23.2410 C   0  0  0  0  0  0  0  0  0  0  0  0
   32.6280  -11.0240  -23.2650 O   0  0  0  0  0  0  0  0  0  0  0  0
   31.0940  -10.9160  -23.3270 S   0  0  0  0  0  0  0  0  0  0  0  0
   30.6130  -10.5110  -24.6730 O   0  0  0  0  0  0  0  0  0  0  0  0
   30.5960  -12.2310  -22.9430 O   0  0  0  0  0  0  0  0  0  0  0  0
   30.6070   -9.8110  -22.3910 N   0  0  0  0  0  0  0  0  0  0  0  0
   38.0757  -11.3067  -25.1730 H   0  0  0  0  0  0  0  0  0  0  0  0
   37.2892  -12.3801  -26.3796 H   0  0  0  0  0  0  0  0  0  0  0  0
   36.9367  -10.6187  -26.3796 H   0  0  0  0  0  0  0  0  0  0  0  0
   35.0031  -13.5477  -24.1623 H   0  0  0  0  0  0  0  0  0  0  0  0
   34.3681  -12.8343  -25.6837 H   0  0  0  0  0  0  0  0  0  0  0  0
   35.9475  -13.6899  -25.6837 H   0  0  0  0  0  0  0  0  0  0  0  0
   34.7159  -11.7855  -22.2050 H   0  0  0  0  0  0  0  0  0  0  0  0
   36.7747  -11.4656  -20.9343 H   0  0  0  0  0  0  0  0  0  0  0  0
   35.8836   -9.0898  -17.5853 H   0  0  0  0  0  0  0  0  0  0  0  0
   36.1539  -10.6734  -18.3889 H   0  0  0  0  0  0  0  0  0  0  0  0
   37.4530   -9.4329  -18.3889 H   0  0  0  0  0  0  0  0  0  0  0  0
   34.6606   -7.7391  -18.4570 H   0  0  0  0  0  0  0  0  0  0  0  0
   35.1776   -6.9716  -19.9966 H   0  0  0  0  0  0  0  0  0  0  0  0
   33.8443   -8.1753  -19.9966 H   0  0  0  0  0  0  0  0  0  0  0  0
   38.2057   -9.7994  -21.6001 H   0  0  0  0  0  0  0  0  0  0  0  0
   37.3207   -7.7736  -22.9454 H   0  0  0  0  0  0  0  0  0  0  0  0
   37.4939   -9.4109  -23.7196 H   0  0  0  0  0  0  0  0  0  0  0  0
   33.2759   -9.3456  -22.2549 H   0  0  0  0  0  0  0  0  0  0  0  0
   33.0243   -9.1752  -24.0525 H   0  0  0  0  0  0  0  0  0  0  0  0
   30.7375  -10.1071  -21.4131 H   0  0  0  0  0  0  0  0  0  0  0  0
   31.1472   -8.9513  -22.5644 H   0  0  0  0  0  0  0  0  0  0  0  0
  1  2  1  0
  2  3  1  0
  2  4  1  0
  2  5  1  0
  5  6  1  0
  6  7  1  0
  7  8  1  0
  8  9  1  0
  9 10  1  0
  9 11  1  0
  9 12  1  0
  7 13  1  0
 12 13  1  0
 13 14  1  0
 14 15  1  0
  4 16  1  0
  6 16  1  0
 15 16  1  0
 16 17  1  1
 17 18  1  0
 18 19  1  0
 19 20  2  0
 19 21  2  0
 19 22  1  0
  1 23  1  0
  1 24  1  0
  1 25  1  0
  3 26  1  0
  3 27  1  0
  3 28  1  0
  6 29  1  1
  7 30  1  1
 10 31  1  0
 10 32  1  0
 10 33  1  0
 11 34  1  0
 11 35  1  0
 11 36  1  0
 13 37  1  6
 14 38  1  0
 14 39  1  0
 17 40  1  0
 17 41  1  0
 22 42  1  0
 22 43  1  0
M  END
$$$$
