PDB_DB00396_95
     RDKit          3D

177186  0  0  0  0  0  0  0  0999 V2000
  123.5000  -20.1740   10.9690 C   0  0  0  0  0  0  0  0  0  0  0  0
  123.0230  -18.8130   10.3600 C   0  0  0  0  0  0  0  0  0  0  0  0
  121.6740  -18.9040    9.6360 C   0  0  0  0  0  0  0  0  0  0  0  0
  121.4520  -18.0830    8.7240 O   0  0  0  0  0  0  0  0  0  0  0  0
  120.6710  -19.9190    9.9530 C   0  0  0  0  0  0  0  0  0  0  0  0
  120.8910  -20.9130   11.0240 C   0  0  1  0  0  0  0  0  0  0  0  0
  119.7240  -21.9670   11.3880 C   0  0  0  0  0  0  0  0  0  0  0  0
  120.2370  -23.4010   11.3310 C   0  0  0  0  0  0  0  0  0  0  0  0
  121.5540  -23.6230   12.2070 C   0  0  2  0  0  0  0  0  0  0  0  0
  122.7800  -22.6130   11.6960 C   0  0  1  0  0  0  0  0  0  0  0  0
  122.3370  -21.0780   11.7470 C   0  0  1  0  0  0  0  0  0  0  0  0
  124.2220  -22.8650   12.3860 C   0  0  0  0  0  0  0  0  0  0  0  0
  124.6020  -24.3210   12.3880 C   0  0  0  0  0  0  0  0  0  0  0  0
  123.4570  -25.2860   13.0740 C   0  0  1  0  0  0  0  0  0  0  0  0
  122.0990  -25.0800   12.1790 C   0  0  1  0  0  0  0  0  0  0  0  0
  121.1440  -26.2620   12.4720 C   0  0  0  0  0  0  0  0  0  0  0  0
  122.1740  -27.3760   12.7940 C   0  0  0  0  0  0  0  0  0  0  0  0
  123.6360  -26.7460   12.7690 C   0  0  2  0  0  0  0  0  0  0  0  0
  123.3070  -24.9540   14.6890 C   0  0  0  0  0  0  0  0  0  0  0  0
  122.1340  -20.5770   13.2670 C   0  0  0  0  0  0  0  0  0  0  0  0
  124.6850  -27.5110   13.5270 C   0  0  0  0  0  0  0  0  0  0  0  0
  124.3230  -28.1370   14.5710 O   0  0  0  0  0  0  0  0  0  0  0  0
  126.1330  -27.5580   13.0380 C   0  0  0  0  0  0  0  0  0  0  0  0
  124.5740   49.2290   -6.4920 C   0  0  0  0  0  0  0  0  0  0  0  0
  123.9920   50.5860   -6.8680 C   0  0  0  0  0  0  0  0  0  0  0  0
  122.7480   50.4690   -7.7740 C   0  0  0  0  0  0  0  0  0  0  0  0
  122.6290   51.3430   -8.6230 O   0  0  0  0  0  0  0  0  0  0  0  0
  121.7830   49.3530   -7.6830 C   0  0  0  0  0  0  0  0  0  0  0  0
  122.0700   48.2710   -6.6590 C   0  0  1  0  0  0  0  0  0  0  0  0
  121.0610   47.1060   -6.4400 C   0  0  0  0  0  0  0  0  0  0  0  0
  121.7700   45.7720   -6.2870 C   0  0  0  0  0  0  0  0  0  0  0  0
  122.8950   45.6790   -5.3080 C   0  0  2  0  0  0  0  0  0  0  0  0
  124.0840   46.7830   -5.7610 C   0  0  1  0  0  0  0  0  0  0  0  0
  123.5350   48.2120   -5.8040 C   0  0  1  0  0  0  0  0  0  0  0  0
  125.4460   46.6400   -4.8700 C   0  0  0  0  0  0  0  0  0  0  0  0
  125.9480   45.2220   -4.7680 C   0  0  0  0  0  0  0  0  0  0  0  0
  124.7730   44.1290   -4.2030 C   0  0  1  0  0  0  0  0  0  0  0  0
  123.5550   44.1730   -5.2450 C   0  0  1  0  0  0  0  0  0  0  0  0
  122.6480   42.9420   -4.7540 C   0  0  0  0  0  0  0  0  0  0  0  0
  123.6490   41.9520   -4.2390 C   0  0  0  0  0  0  0  0  0  0  0  0
  125.0450   42.6140   -4.3980 C   0  0  2  0  0  0  0  0  0  0  0  0
  124.3590   44.5210   -2.6170 C   0  0  0  0  0  0  0  0  0  0  0  0
  123.1600   48.7370   -4.2420 C   0  0  0  0  0  0  0  0  0  0  0  0
  126.2140   41.9500   -3.6090 C   0  0  0  0  0  0  0  0  0  0  0  0
  125.9580   41.1560   -2.6740 O   0  0  0  0  0  0  0  0  0  0  0  0
  127.7050   42.2790   -3.9120 C   0  0  0  0  0  0  0  0  0  0  0  0
   60.2300   14.1860  -12.9100 C   0  0  0  0  0  0  0  0  0  0  0  0
   60.0600   15.6700  -13.5280 C   0  0  0  0  0  0  0  0  0  0  0  0
   58.6380   16.0050  -14.0220 C   0  0  1  0  0  0  0  0  0  0  0  0
   58.5560   16.9140  -14.8360 O   0  0  0  0  0  0  0  0  0  0  0  0
   57.4280   15.1950  -13.6350 C   0  0  0  0  0  0  0  0  0  0  0  0
   57.5380   14.0920  -12.6240 C   0  0  1  0  0  0  0  0  0  0  0  0
   56.2100   13.2900  -12.1720 C   0  0  0  0  0  0  0  0  0  0  0  0
   56.4330   11.6960  -12.1130 C   0  0  0  0  0  0  0  0  0  0  0  0
   57.7480   11.2170  -11.3590 C   0  0  2  0  0  0  0  0  0  0  0  0
   59.1150   11.9740  -12.0210 C   0  0  1  0  0  0  0  0  0  0  0  0
   59.0180   13.5810  -12.0510 C   0  0  1  0  0  0  0  0  0  0  0  0
   60.5530   11.3920  -11.4520 C   0  0  0  0  0  0  0  0  0  0  0  0
   60.5700    9.8910  -11.3630 C   0  0  0  0  0  0  0  0  0  0  0  0
   59.3130    9.2230  -10.5000 C   0  0  1  0  0  0  0  0  0  0  0  0
   57.9800    9.6710  -11.3010 C   0  0  1  0  0  0  0  0  0  0  0  0
   56.8550    8.7010  -10.8580 C   0  0  0  0  0  0  0  0  0  0  0  0
   57.6330    7.3440  -10.5530 C   0  0  0  0  0  0  0  0  0  0  0  0
   59.1540    7.6230  -10.6840 C   0  0  2  0  0  0  0  0  0  0  0  0
   59.2920    9.6570   -8.9260 C   0  0  0  0  0  0  0  0  0  0  0  0
   59.0610   14.1930  -10.6540 C   0  0  0  0  0  0  0  0  0  0  0  0
   60.0870    6.6430   -9.8750 C   0  0  0  0  0  0  0  0  0  0  0  0
   59.6190    5.9240   -8.8710 O   0  0  0  0  0  0  0  0  0  0  0  0
   61.5820    6.4990  -10.3190 C   0  0  0  0  0  0  0  0  0  0  0  0
  123.9072  -20.7843   10.1494 H   0  0  0  0  0  0  0  0  0  0  0  0
  124.2347  -19.9091   11.7436 H   0  0  0  0  0  0  0  0  0  0  0  0
  122.9315  -18.0802   11.1752 H   0  0  0  0  0  0  0  0  0  0  0  0
  123.7716  -18.5144    9.6114 H   0  0  0  0  0  0  0  0  0  0  0  0
  121.2345  -18.2101   10.3677 H   0  0  0  0  0  0  0  0  0  0  0  0
  121.2151  -17.2068    9.1192 H   0  0  0  0  0  0  0  0  0  0  0  0
  119.7522  -19.3754   10.2180 H   0  0  0  0  0  0  0  0  0  0  0  0
  120.6713  -20.5431    9.0472 H   0  0  0  0  0  0  0  0  0  0  0  0
  120.4839  -20.2071   11.7628 H   0  0  0  0  0  0  0  0  0  0  0  0
  119.3560  -21.7580   12.4033 H   0  0  0  0  0  0  0  0  0  0  0  0
  118.9146  -21.8577   10.6511 H   0  0  0  0  0  0  0  0  0  0  0  0
  119.4490  -24.0712   11.7051 H   0  0  0  0  0  0  0  0  0  0  0  0
  120.4952  -23.6188   10.2841 H   0  0  0  0  0  0  0  0  0  0  0  0
  121.2462  -23.3959   13.2383 H   0  0  0  0  0  0  0  0  0  0  0  0
  122.9463  -22.8873   10.6438 H   0  0  0  0  0  0  0  0  0  0  0  0
  124.9848  -22.3001   11.8300 H   0  0  0  0  0  0  0  0  0  0  0  0
  124.1603  -22.5297   13.4318 H   0  0  0  0  0  0  0  0  0  0  0  0
  124.7551  -24.6444   11.3478 H   0  0  0  0  0  0  0  0  0  0  0  0
  125.5180  -24.4204   12.9889 H   0  0  0  0  0  0  0  0  0  0  0  0
  122.2983  -25.1474   11.0993 H   0  0  0  0  0  0  0  0  0  0  0  0
  120.4888  -26.0529   13.3304 H   0  0  0  0  0  0  0  0  0  0  0  0
  120.4449  -26.5023   11.6575 H   0  0  0  0  0  0  0  0  0  0  0  0
  121.9681  -27.7929   13.7909 H   0  0  0  0  0  0  0  0  0  0  0  0
  122.1007  -28.1800   12.0469 H   0  0  0  0  0  0  0  0  0  0  0  0
  124.1021  -26.8384   11.7769 H   0  0  0  0  0  0  0  0  0  0  0  0
  123.6903  -25.8024   15.2749 H   0  0  0  0  0  0  0  0  0  0  0  0
  123.8840  -24.0497   14.9326 H   0  0  0  0  0  0  0  0  0  0  0  0
  122.2470  -24.7893   14.9326 H   0  0  0  0  0  0  0  0  0  0  0  0
  122.4548  -21.3688   13.9600 H   0  0  0  0  0  0  0  0  0  0  0  0
  122.7368  -19.6730   13.4387 H   0  0  0  0  0  0  0  0  0  0  0  0
  121.0720  -20.3476   13.4387 H   0  0  0  0  0  0  0  0  0  0  0  0
  124.8961  -26.6190   14.1351 H   0  0  0  0  0  0  0  0  0  0  0  0
  124.6130  -27.6354   15.3737 H   0  0  0  0  0  0  0  0  0  0  0  0
  126.8117  -27.5800   13.9034 H   0  0  0  0  0  0  0  0  0  0  0  0
  126.2853  -28.4616   12.4294 H   0  0  0  0  0  0  0  0  0  0  0  0
  126.3436  -26.6662   12.4294 H   0  0  0  0  0  0  0  0  0  0  0  0
  124.9583   48.7566   -7.4081 H   0  0  0  0  0  0  0  0  0  0  0  0
  125.3545   49.4258   -5.7423 H   0  0  0  0  0  0  0  0  0  0  0  0
  123.7078   51.1149   -5.9463 H   0  0  0  0  0  0  0  0  0  0  0  0
  124.7625   51.1343   -7.4299 H   0  0  0  0  0  0  0  0  0  0  0  0
  122.1730   51.0809   -7.0635 H   0  0  0  0  0  0  0  0  0  0  0  0
  122.5096   52.2199   -8.1794 H   0  0  0  0  0  0  0  0  0  0  0  0
  120.8000   49.7841   -7.4425 H   0  0  0  0  0  0  0  0  0  0  0  0
  121.8434   48.8453   -8.6570 H   0  0  0  0  0  0  0  0  0  0  0  0
  121.5537   48.8629   -5.8889 H   0  0  0  0  0  0  0  0  0  0  0  0
  120.4772   47.3062   -5.5295 H   0  0  0  0  0  0  0  0  0  0  0  0
  120.4066   47.0480   -7.3223 H   0  0  0  0  0  0  0  0  0  0  0  0
  121.0131   45.0330   -5.9854 H   0  0  0  0  0  0  0  0  0  0  0  0
  122.2444   45.6016   -7.2647 H   0  0  0  0  0  0  0  0  0  0  0  0
  122.4953   45.9022   -4.3078 H   0  0  0  0  0  0  0  0  0  0  0  0
  124.3857   46.5342   -6.7892 H   0  0  0  0  0  0  0  0  0  0  0  0
  126.2316   47.2557   -5.3324 H   0  0  0  0  0  0  0  0  0  0  0  0
  125.2036   46.9731   -3.8501 H   0  0  0  0  0  0  0  0  0  0  0  0
  126.2767   44.8958   -5.7657 H   0  0  0  0  0  0  0  0  0  0  0  0
  126.7711   45.2203   -4.0382 H   0  0  0  0  0  0  0  0  0  0  0  0
  123.7944   44.0323   -6.3094 H   0  0  0  0  0  0  0  0  0  0  0  0
  121.9588   43.2554   -3.9560 H   0  0  0  0  0  0  0  0  0  0  0  0
  122.0132   42.5324   -5.5535 H   0  0  0  0  0  0  0  0  0  0  0  0
  123.4526   41.7287   -3.1800 H   0  0  0  0  0  0  0  0  0  0  0  0
  123.5926   41.0037   -4.7937 H   0  0  0  0  0  0  0  0  0  0  0  0
  125.4841   42.4457   -5.3924 H   0  0  0  0  0  0  0  0  0  0  0  0
  124.9776   43.9353   -1.9211 H   0  0  0  0  0  0  0  0  0  0  0  0
  124.5321   45.5940   -2.4474 H   0  0  0  0  0  0  0  0  0  0  0  0
  123.2971   44.2896   -2.4474 H   0  0  0  0  0  0  0  0  0  0  0  0
  123.6358   48.0709   -3.5072 H   0  0  0  0  0  0  0  0  0  0  0  0
  123.5309   49.7629   -4.1011 H   0  0  0  0  0  0  0  0  0  0  0  0
  122.0692   48.7189   -4.1011 H   0  0  0  0  0  0  0  0  0  0  0  0
  126.2104   42.7890   -2.8976 H   0  0  0  0  0  0  0  0  0  0  0  0
  126.1043   41.6098   -1.8064 H   0  0  0  0  0  0  0  0  0  0  0  0
  128.2533   42.4000   -2.9661 H   0  0  0  0  0  0  0  0  0  0  0  0
  128.1512   41.4577   -4.4920 H   0  0  0  0  0  0  0  0  0  0  0  0
  127.7641   43.2118   -4.4920 H   0  0  0  0  0  0  0  0  0  0  0  0
   60.4079   13.5003  -13.7515 H   0  0  0  0  0  0  0  0  0  0  0  0
   61.0545   14.2833  -12.1884 H   0  0  0  0  0  0  0  0  0  0  0  0
   60.3325   16.3982  -12.7499 H   0  0  0  0  0  0  0  0  0  0  0  0
   60.7137   15.7146  -14.4116 H   0  0  0  0  0  0  0  0  0  0  0  0
   58.5237   16.7291  -13.2019 H   0  0  0  0  0  0  0  0  0  0  0  0
   58.4781   17.7780  -14.3591 H   0  0  0  0  0  0  0  0  0  0  0  0
   56.6850   15.9062  -13.2450 H   0  0  0  0  0  0  0  0  0  0  0  0
   57.1864   14.6553  -14.5625 H   0  0  0  0  0  0  0  0  0  0  0  0
   57.3751   14.8182  -11.8140 H   0  0  0  0  0  0  0  0  0  0  0  0
   55.9109   13.6402  -11.1730 H   0  0  0  0  0  0  0  0  0  0  0  0
   55.4318   13.4878  -12.9238 H   0  0  0  0  0  0  0  0  0  0  0  0
   55.5673   11.2513  -11.6004 H   0  0  0  0  0  0  0  0  0  0  0  0
   56.5465   11.3678  -13.1568 H   0  0  0  0  0  0  0  0  0  0  0  0
   57.5881   11.5212  -10.3141 H   0  0  0  0  0  0  0  0  0  0  0  0
   59.1083   11.6784  -13.0805 H   0  0  0  0  0  0  0  0  0  0  0  0
   61.3574   11.7147  -12.1294 H   0  0  0  0  0  0  0  0  0  0  0  0
   60.6970   11.7894  -10.4365 H   0  0  0  0  0  0  0  0  0  0  0  0
   60.5337    9.4881  -12.3859 H   0  0  0  0  0  0  0  0  0  0  0  0
   61.4899    9.6256  -10.8214 H   0  0  0  0  0  0  0  0  0  0  0  0
   58.0539    9.5454  -12.3913 H   0  0  0  0  0  0  0  0  0  0  0  0
   56.3466    9.0739   -9.9566 H   0  0  0  0  0  0  0  0  0  0  0  0
   56.0678    8.5824  -11.6172 H   0  0  0  0  0  0  0  0  0  0  0  0
   57.4026    7.0028   -9.5329 H   0  0  0  0  0  0  0  0  0  0  0  0
   57.3260    6.5602  -11.2611 H   0  0  0  0  0  0  0  0  0  0  0  0
   59.5575    7.3625  -11.6736 H   0  0  0  0  0  0  0  0  0  0  0  0
   59.3356    8.7559   -8.2966 H   0  0  0  0  0  0  0  0  0  0  0  0
   60.1602   10.2971   -8.7105 H   0  0  0  0  0  0  0  0  0  0  0  0
   58.3660   10.2103   -8.7105 H   0  0  0  0  0  0  0  0  0  0  0  0
   59.0048   13.3928   -9.9013 H   0  0  0  0  0  0  0  0  0  0  0  0
   60.0005   14.7507  -10.5268 H   0  0  0  0  0  0  0  0  0  0  0  0
   58.2087   14.8766  -10.5268 H   0  0  0  0  0  0  0  0  0  0  0  0
   60.3356    7.4560   -9.1769 H   0  0  0  0  0  0  0  0  0  0  0  0
   59.8892    6.3391   -8.0138 H   0  0  0  0  0  0  0  0  0  0  0  0
   62.2247    6.4371   -9.4284 H   0  0  0  0  0  0  0  0  0  0  0  0
   61.6996    5.5854  -10.9202 H   0  0  0  0  0  0  0  0  0  0  0  0
   61.8718    7.3734  -10.9202 H   0  0  0  0  0  0  0  0  0  0  0  0
  1  2  1  0
  2  3  1  0
  3  4  1  0
  3  5  1  0
  5  6  1  0
  6  7  1  0
  7  8  1  0
  8  9  1  0
  9 10  1  0
  1 11  1  0
  6 11  1  0
 10 11  1  0
 10 12  1  0
 12 13  1  0
 13 14  1  0
  9 15  1  0
 14 15  1  0
 15 16  1  0
 16 17  1  0
 14 18  1  0
 17 18  1  0
 14 19  1  1
 11 20  1  1
 18 21  1  0
 21 22  1  0
 21 23  1  0
 24 25  1  0
 25 26  1  0
 26 27  1  0
 26 28  1  0
 28 29  1  0
 29 30  1  0
 30 31  1  0
 31 32  1  0
 32 33  1  0
 24 34  1  0
 29 34  1  0
 33 34  1  0
 33 35  1  0
 35 36  1  0
 36 37  1  0
 32 38  1  0
 37 38  1  0
 38 39  1  0
 39 40  1  0
 37 41  1  0
 40 41  1  0
 37 42  1  1
 34 43  1  1
 41 44  1  0
 44 45  1  0
 44 46  1  0
 47 48  1  0
 48 49  1  0
 49 50  1  0
 49 51  1  0
 51 52  1  0
 52 53  1  0
 53 54  1  0
 54 55  1  0
 55 56  1  0
 47 57  1  0
 52 57  1  0
 56 57  1  0
 56 58  1  0
 58 59  1  0
 59 60  1  0
 55 61  1  0
 60 61  1  0
 61 62  1  0
 62 63  1  0
 60 64  1  0
 63 64  1  0
 60 65  1  1
 57 66  1  1
 64 67  1  0
 67 68  1  0
 67 69  1  0
  1 70  1  0
  1 71  1  0
  2 72  1  0
  2 73  1  0
  3 74  1  0
  4 75  1  0
  5 76  1  0
  5 77  1  0
  6 78  1  1
  7 79  1  0
  7 80  1  0
  8 81  1  0
  8 82  1  0
  9 83  1  1
 10 84  1  6
 12 85  1  0
 12 86  1  0
 13 87  1  0
 13 88  1  0
 15 89  1  6
 16 90  1  0
 16 91  1  0
 17 92  1  0
 17 93  1  0
 18 94  1  6
 19 95  1  0
 19 96  1  0
 19 97  1  0
 20 98  1  0
 20 99  1  0
 20100  1  0
 21101  1  0
 22102  1  0
 23103  1  0
 23104  1  0
 23105  1  0
 24106  1  0
 24107  1  0
 25108  1  0
 25109  1  0
 26110  1  0
 27111  1  0
 28112  1  0
 28113  1  0
 29114  1  1
 30115  1  0
 30116  1  0
 31117  1  0
 31118  1  0
 32119  1  1
 33120  1  6
 35121  1  0
 35122  1  0
 36123  1  0
 36124  1  0
 38125  1  6
 39126  1  0
 39127  1  0
 40128  1  0
 40129  1  0
 41130  1  6
 42131  1  0
 42132  1  0
 42133  1  0
 43134  1  0
 43135  1  0
 43136  1  0
 44137  1  0
 45138  1  0
 46139  1  0
 46140  1  0
 46141  1  0
 47142  1  0
 47143  1  0
 48144  1  0
 48145  1  0
 49146  1  1
 50147  1  0
 51148  1  0
 51149  1  0
 52150  1  1
 53151  1  0
 53152  1  0
 54153  1  0
 54154  1  0
 55155  1  1
 56156  1  6
 58157  1  0
 58158  1  0
 59159  1  0
 59160  1  0
 61161  1  6
 62162  1  0
 62163  1  0
 63164  1  0
 63165  1  0
 64166  1  6
 65167  1  0
 65168  1  0
 65169  1  0
 66170  1  0
 66171  1  0
 66172  1  0
 67173  1  0
 68174  1  0
 69175  1  0
 69176  1  0
 69177  1  0
M  END
>  <PDBID>  (1) 
1YA3

>  <PDB ID>  (1) 
1YA3

>  <Generic Name>  (1) 
Progesterone

>  <Brand Name>  (1) 
Act Progesterone Injection#Crinone#Endometrin#Estrogel Propak#Gesterol In Oil-liq Im 50mg/ml#PMS-progesterone Inj 50mg/ml USP#Prochieve#Progesterone#Progesterone Inj 50mg/ml USP#Progesterone Injection USP#Prometrium#Teva-progesterone#Agolutin#Cyclogest#Gesterol#Gestone#Progestasert#Progestogel#Qi Ning#Relantan#Susten#Utrogestan#Utrogestran#Utrovin#Vasclor

>  <DrugBank ID>  (1) 
DB00396

>  <ATC Codes>  (1) 
G03DA04#G03FA04

>  <Ligand ID>  (1) 
STR

>  <Target Name>  (1) 
Mineralocorticoid receptor

>  <UniProt ID>  (1) 
P08235

>  <PDB ID.1>  (1) 
1YA3

>  <Seq. Identity>  (1) 
99%

$$$$
