PDB_DB00560_98
     RDKit          3D

 81 84  0  0  0  0  0  0  0  0999 V2000
  -81.4140   92.3340   84.4500 C   0  0  0  0  0  0  0  0  0  0  0  0
  -80.2980   91.3030   84.3910 C   0  0  0  0  0  0  0  0  0  0  0  0
  -79.0000   91.9320   84.8830 C   0  0  0  0  0  0  0  0  0  0  0  0
  -80.6570   90.1090   85.2650 C   0  0  0  0  0  0  0  0  0  0  0  0
  -80.2110   90.8550   82.9590 N   0  0  0  0  0  0  0  0  0  0  0  0
  -79.1900   89.8930   82.4290 C   0  0  0  0  0  0  0  0  0  0  0  0
  -78.0650   90.7010   81.8080 C   0  0  0  0  0  0  0  0  0  0  0  0
  -76.9040   90.5520   82.1830 O   0  0  0  0  0  0  0  0  0  0  0  0
  -78.4520   91.5860   80.8610 N   0  0  0  0  0  0  0  0  0  0  0  0
  -77.8500   92.8180   80.4960 C   0  0  0  0  0  0  0  0  0  0  0  0
  -76.7840   93.3750   81.1990 C   0  0  0  0  0  0  0  0  0  0  0  0
  -76.2410   94.6150   80.9190 C   0  0  0  0  0  0  0  0  0  0  0  0
  -75.0570   95.0710   81.7010 N   0  0  0  0  0  0  0  0  0  0  0  0
  -73.9270   94.0980   81.6660 C   0  0  0  0  0  0  0  0  0  0  0  0
  -75.4000   95.4600   83.0990 C   0  0  0  0  0  0  0  0  0  0  0  0
  -76.7760   95.4130   79.8590 C   0  0  0  0  0  0  0  0  0  0  0  0
  -76.2950   96.8280   79.6170 C   0  0  0  0  0  0  0  0  0  0  0  0
  -77.5000   97.6970   79.2720 C   0  0  1  0  0  0  0  0  0  0  0  0
  -77.1450   99.1760   79.0920 C   0  0  0  0  0  0  0  0  0  0  0  0
  -78.2670   99.9570   78.3910 C   0  0  1  0  0  0  0  0  0  0  0  0
  -77.9640  101.4730   78.4250 C   0  0  2  0  0  0  0  0  0  0  0  0
  -79.0580  102.3130   79.0390 N   0  0  0  0  0  0  0  0  0  0  0  0
  -79.1130  102.2730   80.5330 C   0  0  0  0  0  0  0  0  0  0  0  0
  -80.4180  102.2150   78.4150 C   0  0  0  0  0  0  0  0  0  0  0  0
  -77.5010  102.0600   77.0330 C   0  0  0  0  0  0  0  0  0  0  0  0
  -77.4450  103.3890   77.1060 O   0  0  0  0  0  0  0  0  0  0  0  0
  -77.1610  101.3080   75.9380 C   0  0  0  0  0  0  0  0  0  0  0  0
  -76.7420  101.9380   74.6850 C   0  0  0  0  0  0  0  0  0  0  0  0
  -77.5860  102.4490   73.9330 O   0  0  0  0  0  0  0  0  0  0  0  0
  -75.4510  101.9440   74.3840 N   0  0  0  0  0  0  0  0  0  0  0  0
  -77.2850   99.8820   76.0590 C   0  0  0  0  0  0  0  0  0  0  0  0
  -76.5020   99.0740   75.5970 O   0  0  0  0  0  0  0  0  0  0  0  0
  -78.4520   99.4230   76.9640 C   0  0  2  0  0  0  0  0  0  0  0  0
  -79.6520   99.9320   76.4000 O   0  0  0  0  0  0  0  0  0  0  0  0
  -78.5500   97.9030   76.9860 C   0  0  0  0  0  0  0  0  0  0  0  0
  -78.9700   97.4150   75.8250 O   0  0  0  0  0  0  0  0  0  0  0  0
  -78.1820   97.1330   78.0430 C   0  0  0  0  0  0  0  0  0  0  0  0
  -78.4400   95.6790   78.0230 C   0  0  0  0  0  0  0  0  0  0  0  0
  -79.1570   95.1760   77.1590 O   0  0  0  0  0  0  0  0  0  0  0  0
  -77.8160   94.8570   79.0730 C   0  0  0  0  0  0  0  0  0  0  0  0
  -78.3320   93.5740   79.4090 C   0  0  0  0  0  0  0  0  0  0  0  0
  -79.3430   92.9890   78.7080 O   0  0  0  0  0  0  0  0  0  0  0  0
  -81.6536   92.5553   85.5005 H   0  0  0  0  0  0  0  0  0  0  0  0
  -81.0884   93.2560   83.9461 H   0  0  0  0  0  0  0  0  0  0  0  0
  -82.3074   91.9366   83.9461 H   0  0  0  0  0  0  0  0  0  0  0  0
  -78.9890   91.9373   85.9829 H   0  0  0  0  0  0  0  0  0  0  0  0
  -78.1454   91.3481   84.5106 H   0  0  0  0  0  0  0  0  0  0  0  0
  -78.9287   92.9646   84.5106 H   0  0  0  0  0  0  0  0  0  0  0  0
  -80.5720   90.3916   86.3247 H   0  0  0  0  0  0  0  0  0  0  0  0
  -81.6893   89.7950   85.0509 H   0  0  0  0  0  0  0  0  0  0  0  0
  -79.9690   89.2778   85.0509 H   0  0  0  0  0  0  0  0  0  0  0  0
  -81.1259   90.4329   82.7452 H   0  0  0  0  0  0  0  0  0  0  0  0
  -78.7972   89.2751   83.2500 H   0  0  0  0  0  0  0  0  0  0  0  0
  -79.6433   89.2282   81.6789 H   0  0  0  0  0  0  0  0  0  0  0  0
  -79.2988   91.3309   80.3331 H   0  0  0  0  0  0  0  0  0  0  0  0
  -76.3488   92.7939   82.0254 H   0  0  0  0  0  0  0  0  0  0  0  0
  -73.6308   93.8429   82.6942 H   0  0  0  0  0  0  0  0  0  0  0  0
  -74.2445   93.1862   81.1390 H   0  0  0  0  0  0  0  0  0  0  0  0
  -73.0724   94.5474   81.1390 H   0  0  0  0  0  0  0  0  0  0  0  0
  -74.8413   94.8263   83.8035 H   0  0  0  0  0  0  0  0  0  0  0  0
  -75.1322   96.5143   83.2624 H   0  0  0  0  0  0  0  0  0  0  0  0
  -76.4795   95.3263   83.2624 H   0  0  0  0  0  0  0  0  0  0  0  0
  -75.8067   97.2140   80.5240 H   0  0  0  0  0  0  0  0  0  0  0  0
  -75.5704   96.8432   78.7895 H   0  0  0  0  0  0  0  0  0  0  0  0
  -78.1938   97.6685   80.1252 H   0  0  0  0  0  0  0  0  0  0  0  0
  -76.9674   99.6214   80.0820 H   0  0  0  0  0  0  0  0  0  0  0  0
  -76.2455   99.2348   78.4615 H   0  0  0  0  0  0  0  0  0  0  0  0
  -79.2181   99.8105   78.9239 H   0  0  0  0  0  0  0  0  0  0  0  0
  -77.1031  101.5450   79.1059 H   0  0  0  0  0  0  0  0  0  0  0  0
  -78.2886  102.8726   80.9464 H   0  0  0  0  0  0  0  0  0  0  0  0
  -80.0737  102.6849   80.8757 H   0  0  0  0  0  0  0  0  0  0  0  0
  -79.0172  101.2322   80.8757 H   0  0  0  0  0  0  0  0  0  0  0  0
  -81.1810  102.1600   79.2055 H   0  0  0  0  0  0  0  0  0  0  0  0
  -80.5999  103.1024   77.7909 H   0  0  0  0  0  0  0  0  0  0  0  0
  -80.4708  101.3107   77.7909 H   0  0  0  0  0  0  0  0  0  0  0  0
  -77.1704  103.9171   76.3149 H   0  0  0  0  0  0  0  0  0  0  0  0
  -75.1283  102.3805   73.5086 H   0  0  0  0  0  0  0  0  0  0  0  0
  -74.7706  101.5122   75.0255 H   0  0  0  0  0  0  0  0  0  0  0  0
  -80.2720  100.1950   77.1256 H   0  0  0  0  0  0  0  0  0  0  0  0
  -79.0765   96.4377   75.7083 H   0  0  0  0  0  0  0  0  0  0  0  0
  -79.6756   92.0947   78.9720 H   0  0  0  0  0  0  0  0  0  0  0  0
  2  1  1  0
  3  2  1  0
  4  2  1  0
  5  2  1  0
  6  5  1  0
  7  6  1  0
  8  7  2  0
  9  7  1  0
 10  9  1  0
 11 10  2  0
 12 11  1  0
 13 12  1  0
 14 13  1  0
 15 13  1  0
 16 12  2  0
 17 16  1  0
 18 17  1  0
 19 18  1  0
 20 19  1  0
 21 20  1  0
 22 21  1  0
 23 22  1  0
 24 22  1  0
 25 21  1  0
 26 25  1  0
 27 25  2  0
 28 27  1  0
 29 28  2  0
 30 28  1  0
 31 27  1  0
 32 31  2  0
 33 31  1  0
 33 20  1  0
 33 34  1  6
 35 33  1  0
 36 35  1  0
 37 35  2  0
 37 18  1  0
 38 37  1  0
 39 38  2  0
 40 38  1  0
 40 16  1  0
 41 40  2  0
 41 10  1  0
 42 41  1  0
  1 43  1  0
  1 44  1  0
  1 45  1  0
  3 46  1  0
  3 47  1  0
  3 48  1  0
  4 49  1  0
  4 50  1  0
  4 51  1  0
  5 52  1  0
  6 53  1  0
  6 54  1  0
  9 55  1  0
 11 56  1  0
 14 57  1  0
 14 58  1  0
 14 59  1  0
 15 60  1  0
 15 61  1  0
 15 62  1  0
 17 63  1  0
 17 64  1  0
 18 65  1  1
 19 66  1  0
 19 67  1  0
 20 68  1  1
 21 69  1  1
 23 70  1  0
 23 71  1  0
 23 72  1  0
 24 73  1  0
 24 74  1  0
 24 75  1  0
 26 76  1  0
 30 77  1  0
 30 78  1  0
 34 79  1  0
 36 80  1  0
 42 81  1  0
M  END
$$$$
