PDB_DB02546_96
     RDKit          3D

 39 39  0  0  0  0  0  0  0  0999 V2000
   18.5440   26.0960   15.0360 O   0  0  0  0  0  0  0  0  0  0  0  0
   18.8700   26.8960   17.5570 O   0  0  0  0  0  0  0  0  0  0  0  0
   18.6180   27.4360   15.4010 N   0  0  0  0  0  0  0  0  0  0  0  0
   18.7820   27.7450   16.6830 C   0  0  0  0  0  0  0  0  0  0  0  0
   18.8340   29.2150   17.0280 C   0  0  0  0  0  0  0  0  0  0  0  0
   19.8870   29.9270   16.2000 C   0  0  0  0  0  0  0  0  0  0  0  0
   19.2780   31.1630   15.5530 C   0  0  0  0  0  0  0  0  0  0  0  0
   19.0500   32.3010   16.5410 C   0  0  0  0  0  0  0  0  0  0  0  0
   18.0760   33.3110   15.9490 C   0  0  0  0  0  0  0  0  0  0  0  0
   18.3800   34.7540   16.3330 C   0  0  0  0  0  0  0  0  0  0  0  0
   17.9510   35.0160   17.7580 C   0  0  0  0  0  0  0  0  0  0  0  0
   17.0690   34.3330   18.2500 O   0  0  0  0  0  0  0  0  0  0  0  0
   18.5980   36.0200   18.3570 N   0  0  0  0  0  0  0  0  0  0  0  0
   18.4250   36.4930   19.6700 C   0  0  0  0  0  0  0  0  0  0  0  0
   17.5020   35.9490   20.5620 C   0  0  0  0  0  0  0  0  0  0  0  0
   17.3830   36.4620   21.8470 C   0  0  0  0  0  0  0  0  0  0  0  0
   18.1890   37.5190   22.2540 C   0  0  0  0  0  0  0  0  0  0  0  0
   19.1140   38.0620   21.3700 C   0  0  0  0  0  0  0  0  0  0  0  0
   19.2320   37.5480   20.0840 C   0  0  0  0  0  0  0  0  0  0  0  0
   18.5129   25.5335   15.8501 H   0  0  0  0  0  0  0  0  0  0  0  0
   18.5468   28.1770   14.6891 H   0  0  0  0  0  0  0  0  0  0  0  0
   17.8515   29.6672   16.8276 H   0  0  0  0  0  0  0  0  0  0  0  0
   19.0938   29.3180   18.0919 H   0  0  0  0  0  0  0  0  0  0  0  0
   20.7221   30.2277   16.8498 H   0  0  0  0  0  0  0  0  0  0  0  0
   20.2559   29.2487   15.4165 H   0  0  0  0  0  0  0  0  0  0  0  0
   19.9570   31.5156   14.7627 H   0  0  0  0  0  0  0  0  0  0  0  0
   18.2956   30.8740   15.1513 H   0  0  0  0  0  0  0  0  0  0  0  0
   18.6332   31.8958   17.4748 H   0  0  0  0  0  0  0  0  0  0  0  0
   20.0085   32.7993   16.7484 H   0  0  0  0  0  0  0  0  0  0  0  0
   18.1137   33.2282   14.8528 H   0  0  0  0  0  0  0  0  0  0  0  0
   17.0813   33.0736   16.3543 H   0  0  0  0  0  0  0  0  0  0  0  0
   19.4610   34.9348   16.2399 H   0  0  0  0  0  0  0  0  0  0  0  0
   17.8274   35.4281   15.6620 H   0  0  0  0  0  0  0  0  0  0  0  0
   19.3077   36.5051   17.7897 H   0  0  0  0  0  0  0  0  0  0  0  0
   16.8650   35.1095   20.2465 H   0  0  0  0  0  0  0  0  0  0  0  0
   16.6494   36.0311   22.5443 H   0  0  0  0  0  0  0  0  0  0  0  0
   18.0950   37.9243   23.2723 H   0  0  0  0  0  0  0  0  0  0  0  0
   19.7530   38.8989   21.6883 H   0  0  0  0  0  0  0  0  0  0  0  0
   19.9682   37.9781   19.3891 H   0  0  0  0  0  0  0  0  0  0  0  0
  1  3  1  0
  4  2  2  0
  4  3  1  0
  4  5  1  0
  5  6  1  0
  6  7  1  0
  7  8  1  0
  8  9  1  0
  9 10  1  0
 10 11  1  0
 11 12  2  0
 11 13  1  0
 13 14  1  0
 14 15  2  0
 15 16  1  0
 16 17  2  0
 17 18  1  0
 14 19  1  0
 18 19  2  0
  1 20  1  0
  3 21  1  0
  5 22  1  0
  5 23  1  0
  6 24  1  0
  6 25  1  0
  7 26  1  0
  7 27  1  0
  8 28  1  0
  8 29  1  0
  9 30  1  0
  9 31  1  0
 10 32  1  0
 10 33  1  0
 13 34  1  0
 15 35  1  0
 16 36  1  0
 17 37  1  0
 18 38  1  0
 19 39  1  0
M  END
$$$$
