PDB_DB00560_94
     RDKit          3D

 81 84  0  0  0  0  0  0  0  0999 V2000
  -72.2140   84.1920   89.2080 C   0  0  0  0  0  0  0  0  0  0  0  0
  -72.7270   83.3400   88.0420 C   0  0  0  0  0  0  0  0  0  0  0  0
  -72.7660   81.8620   88.4390 C   0  0  0  0  0  0  0  0  0  0  0  0
  -74.1320   83.7940   87.6440 C   0  0  0  0  0  0  0  0  0  0  0  0
  -71.8290   83.5190   86.9180 N   0  0  0  0  0  0  0  0  0  0  0  0
  -72.1270   82.5910   85.8420 C   0  0  0  0  0  0  0  0  0  0  0  0
  -71.5390   83.1100   84.5540 C   0  0  0  0  0  0  0  0  0  0  0  0
  -70.4060   82.7820   84.2250 O   0  0  0  0  0  0  0  0  0  0  0  0
  -72.3260   83.9220   83.8430 N   0  0  0  0  0  0  0  0  0  0  0  0
  -72.0160   85.2420   83.9690 C   0  0  0  0  0  0  0  0  0  0  0  0
  -71.1810   85.7340   84.9770 C   0  0  0  0  0  0  0  0  0  0  0  0
  -70.8930   87.0990   85.0640 C   0  0  0  0  0  0  0  0  0  0  0  0
  -70.0630   87.6180   86.0770 N   0  0  0  0  0  0  0  0  0  0  0  0
  -68.6460   87.4130   85.7810 C   0  0  0  0  0  0  0  0  0  0  0  0
  -70.4370   87.0560   87.3720 C   0  0  0  0  0  0  0  0  0  0  0  0
  -71.4420   87.9790   84.1450 C   0  0  0  0  0  0  0  0  0  0  0  0
  -71.0940   89.4530   84.2600 C   0  0  0  0  0  0  0  0  0  0  0  0
  -72.1130   90.3780   83.6060 C   0  0  1  0  0  0  0  0  0  0  0  0
  -71.5690   91.7890   83.4400 C   0  0  0  0  0  0  0  0  0  0  0  0
  -72.7640   92.5910   82.9610 C   0  0  1  0  0  0  0  0  0  0  0  0
  -72.5820   94.1000   83.1720 C   0  0  2  0  0  0  0  0  0  0  0  0
  -73.7410   94.6780   83.8670 N   0  0  0  0  0  0  0  0  0  0  0  0
  -73.3100   95.7110   84.8050 C   0  0  0  0  0  0  0  0  0  0  0  0
  -74.4760   93.6710   84.6280 C   0  0  0  0  0  0  0  0  0  0  0  0
  -72.2150   94.8790   81.9110 C   0  0  0  0  0  0  0  0  0  0  0  0
  -72.1730   96.2090   81.9690 O   0  0  0  0  0  0  0  0  0  0  0  0
  -71.9140   94.2940   80.7350 C   0  0  0  0  0  0  0  0  0  0  0  0
  -71.5660   95.1240   79.5670 C   0  0  0  0  0  0  0  0  0  0  0  0
  -70.8950   94.6580   78.6490 O   0  0  0  0  0  0  0  0  0  0  0  0
  -71.9730   96.3940   79.5520 N   0  0  0  0  0  0  0  0  0  0  0  0
  -71.9790   92.8330   80.6440 C   0  0  0  0  0  0  0  0  0  0  0  0
  -71.2180   92.1800   79.9280 O   0  0  0  0  0  0  0  0  0  0  0  0
  -73.0400   92.1940   81.5220 C   0  0  2  0  0  0  0  0  0  0  0  0
  -74.3420   92.7170   81.2100 O   0  0  0  0  0  0  0  0  0  0  0  0
  -73.1470   90.6900   81.3920 C   0  0  0  0  0  0  0  0  0  0  0  0
  -73.8760   90.1740   80.4100 O   0  0  0  0  0  0  0  0  0  0  0  0
  -72.6530   89.8560   82.2980 C   0  0  0  0  0  0  0  0  0  0  0  0
  -72.8800   88.4220   82.1440 C   0  0  0  0  0  0  0  0  0  0  0  0
  -73.5910   87.9800   81.2470 O   0  0  0  0  0  0  0  0  0  0  0  0
  -72.2790   87.4890   83.1510 C   0  0  0  0  0  0  0  0  0  0  0  0
  -72.5540   86.1330   83.0560 C   0  0  0  0  0  0  0  0  0  0  0  0
  -73.3510   85.6780   82.0450 O   0  0  0  0  0  0  0  0  0  0  0  0
  -72.4983   83.7199   90.1600 H   0  0  0  0  0  0  0  0  0  0  0  0
  -71.1183   84.2706   89.1505 H   0  0  0  0  0  0  0  0  0  0  0  0
  -72.6572   85.1971   89.1505 H   0  0  0  0  0  0  0  0  0  0  0  0
  -72.7682   81.7769   89.5357 H   0  0  0  0  0  0  0  0  0  0  0  0
  -73.6767   81.3973   88.0333 H   0  0  0  0  0  0  0  0  0  0  0  0
  -71.8811   81.3499   88.0333 H   0  0  0  0  0  0  0  0  0  0  0  0
  -74.7257   83.9858   88.5499 H   0  0  0  0  0  0  0  0  0  0  0  0
  -74.0643   84.7160   87.0479 H   0  0  0  0  0  0  0  0  0  0  0  0
  -74.6166   83.0067   87.0479 H   0  0  0  0  0  0  0  0  0  0  0  0
  -71.9237   84.4819   86.5647 H   0  0  0  0  0  0  0  0  0  0  0  0
  -71.6913   81.6080   86.0742 H   0  0  0  0  0  0  0  0  0  0  0  0
  -73.2172   82.4923   85.7341 H   0  0  0  0  0  0  0  0  0  0  0  0
  -73.0978   83.5805   83.2526 H   0  0  0  0  0  0  0  0  0  0  0  0
  -70.7458   85.0388   85.7100 H   0  0  0  0  0  0  0  0  0  0  0  0
  -68.0828   87.3315   86.7224 H   0  0  0  0  0  0  0  0  0  0  0  0
  -68.5231   86.4877   85.1990 H   0  0  0  0  0  0  0  0  0  0  0  0
  -68.2659   88.2655   85.1990 H   0  0  0  0  0  0  0  0  0  0  0  0
  -70.0214   87.6805   88.1765 H   0  0  0  0  0  0  0  0  0  0  0  0
  -71.5334   87.0297   87.4574 H   0  0  0  0  0  0  0  0  0  0  0  0
  -70.0379   86.0345   87.4574 H   0  0  0  0  0  0  0  0  0  0  0  0
  -71.0259   89.7111   85.3271 H   0  0  0  0  0  0  0  0  0  0  0  0
  -70.1414   89.5997   83.7299 H   0  0  0  0  0  0  0  0  0  0  0  0
  -72.9638   90.4107   84.3025 H   0  0  0  0  0  0  0  0  0  0  0  0
  -71.1955   92.1790   84.3983 H   0  0  0  0  0  0  0  0  0  0  0  0
  -70.7211   91.8355   82.7408 H   0  0  0  0  0  0  0  0  0  0  0  0
  -73.6513   92.3545   83.5666 H   0  0  0  0  0  0  0  0  0  0  0  0
  -71.7000   94.2058   83.8208 H   0  0  0  0  0  0  0  0  0  0  0  0
  -73.4583   95.3556   85.8354 H   0  0  0  0  0  0  0  0  0  0  0  0
  -72.2446   95.9319   84.6431 H   0  0  0  0  0  0  0  0  0  0  0  0
  -73.9024   96.6236   84.6431 H   0  0  0  0  0  0  0  0  0  0  0  0
  -74.3420   93.8547   85.7042 H   0  0  0  0  0  0  0  0  0  0  0  0
  -75.5452   93.7295   84.3764 H   0  0  0  0  0  0  0  0  0  0  0  0
  -74.0943   92.6705   84.3764 H   0  0  0  0  0  0  0  0  0  0  0  0
  -71.9372   96.7324   81.1625 H   0  0  0  0  0  0  0  0  0  0  0  0
  -71.7451   96.9984   78.7497 H   0  0  0  0  0  0  0  0  0  0  0  0
  -72.5152   96.7704   80.3427 H   0  0  0  0  0  0  0  0  0  0  0  0
  -74.8289   92.9126   82.0495 H   0  0  0  0  0  0  0  0  0  0  0  0
  -73.9536   89.1917   80.3147 H   0  0  0  0  0  0  0  0  0  0  0  0
  -73.7354   86.3157   81.3925 H   0  0  0  0  0  0  0  0  0  0  0  0
  2  1  1  0
  3  2  1  0
  4  2  1  0
  5  2  1  0
  6  5  1  0
  7  6  1  0
  8  7  2  0
  9  7  1  0
 10  9  1  0
 11 10  2  0
 12 11  1  0
 13 12  1  0
 14 13  1  0
 15 13  1  0
 16 12  2  0
 17 16  1  0
 18 17  1  0
 19 18  1  0
 20 19  1  0
 21 20  1  0
 22 21  1  0
 23 22  1  0
 24 22  1  0
 25 21  1  0
 26 25  1  0
 27 25  2  0
 28 27  1  0
 29 28  2  0
 30 28  1  0
 31 27  1  0
 32 31  2  0
 33 20  1  0
 33 31  1  0
 33 34  1  6
 35 33  1  0
 36 35  1  0
 37 35  2  0
 37 18  1  0
 38 37  1  0
 39 38  2  0
 40 38  1  0
 40 16  1  0
 41 10  1  0
 41 40  2  0
 42 41  1  0
  1 43  1  0
  1 44  1  0
  1 45  1  0
  3 46  1  0
  3 47  1  0
  3 48  1  0
  4 49  1  0
  4 50  1  0
  4 51  1  0
  5 52  1  0
  6 53  1  0
  6 54  1  0
  9 55  1  0
 11 56  1  0
 14 57  1  0
 14 58  1  0
 14 59  1  0
 15 60  1  0
 15 61  1  0
 15 62  1  0
 17 63  1  0
 17 64  1  0
 18 65  1  1
 19 66  1  0
 19 67  1  0
 20 68  1  1
 21 69  1  1
 23 70  1  0
 23 71  1  0
 23 72  1  0
 24 73  1  0
 24 74  1  0
 24 75  1  0
 26 76  1  0
 30 77  1  0
 30 78  1  0
 34 79  1  0
 36 80  1  0
 42 81  1  0
M  END
$$$$
