PDB_DB00787_99
     RDKit          3D

 70 72  0  0  0  0  0  0  0  0999 V2000
   50.9250   84.4330   55.5060 C   0  0  0  0  0  0  0  0  0  0  0  0
   50.5350   85.3260   56.5600 O   0  0  0  0  0  0  0  0  0  0  0  0
   49.9540   84.4700   54.3080 C   0  0  0  0  0  0  0  0  0  0  0  0
   48.6080   84.0160   54.5150 O   0  0  0  0  0  0  0  0  0  0  0  0
   48.3260   83.9580   55.8490 C   0  0  0  0  0  0  0  0  0  0  0  0
   47.1480   84.7490   56.1390 N   0  0  0  0  0  0  0  0  0  0  0  0
   47.0480   85.5420   57.2270 C   0  0  0  0  0  0  0  0  0  0  0  0
   45.9510   86.1650   57.3840 N   0  0  0  0  0  0  0  0  0  0  0  0
   45.2100   85.7320   56.2860 C   0  0  0  0  0  0  0  0  0  0  0  0
   43.8700   86.0780   56.0060 C   0  0  0  0  0  0  0  0  0  0  0  0
   43.1530   86.8500   56.6570 O   0  0  0  0  0  0  0  0  0  0  0  0
   43.4700   85.4280   54.8480 N   0  0  0  0  0  0  0  0  0  0  0  0
   44.2880   84.5730   54.0840 C   0  0  0  0  0  0  0  0  0  0  0  0
   43.7140   84.0500   53.0010 N   0  0  0  0  0  0  0  0  0  0  0  0
   45.5700   84.2570   54.3280 N   0  0  0  0  0  0  0  0  0  0  0  0
   45.9370   84.8800   55.4740 C   0  0  0  0  0  0  0  0  0  0  0  0
   16.9740   96.7440   45.7930 C   0  0  0  0  0  0  0  0  0  0  0  0
   17.1270   95.5030   45.0650 O   0  0  0  0  0  0  0  0  0  0  0  0
   18.2740   97.5150   45.8290 C   0  0  0  0  0  0  0  0  0  0  0  0
   18.5240   97.8560   44.4880 O   0  0  0  0  0  0  0  0  0  0  0  0
   19.2610   96.8420   43.8760 C   0  0  0  0  0  0  0  0  0  0  0  0
   20.6100   97.2720   44.0770 N   0  0  0  0  0  0  0  0  0  0  0  0
   21.1130   98.5800   44.0610 C   0  0  0  0  0  0  0  0  0  0  0  0
   22.4180   98.6910   44.2530 N   0  0  0  0  0  0  0  0  0  0  0  0
   22.8030   97.3080   44.4410 C   0  0  1  0  0  0  0  0  0  0  0  0
   24.1020   96.7070   44.6460 C   0  0  0  0  0  0  0  0  0  0  0  0
   25.2320   97.1740   44.7640 O   0  0  0  0  0  0  0  0  0  0  0  0
   24.0670   95.3500   44.7000 N   0  0  0  0  0  0  0  0  0  0  0  0
   22.9690   94.6130   44.5530 C   0  0  0  0  0  0  0  0  0  0  0  0
   23.2210   93.3170   44.5980 N   0  0  0  0  0  0  0  0  0  0  0  0
   21.7540   95.1310   44.3660 N   0  0  0  0  0  0  0  0  0  0  0  0
   21.7280   96.4730   44.3100 C   0  0  0  0  0  0  0  0  0  0  0  0
   51.9279   84.7182   55.1556 H   0  0  0  0  0  0  0  0  0  0  0  0
   50.9130   83.4113   55.9133 H   0  0  0  0  0  0  0  0  0  0  0  0
   50.7196   84.9032   57.4359 H   0  0  0  0  0  0  0  0  0  0  0  0
   49.8977   85.5137   53.9652 H   0  0  0  0  0  0  0  0  0  0  0  0
   50.3776   83.7525   53.5898 H   0  0  0  0  0  0  0  0  0  0  0  0
   48.1434   82.9125   56.1380 H   0  0  0  0  0  0  0  0  0  0  0  0
   49.1791   84.3574   56.4170 H   0  0  0  0  0  0  0  0  0  0  0  0
   47.2017   84.9103   58.1143 H   0  0  0  0  0  0  0  0  0  0  0  0
   47.8058   86.3261   57.0820 H   0  0  0  0  0  0  0  0  0  0  0  0
   45.4953   85.9025   58.2696 H   0  0  0  0  0  0  0  0  0  0  0  0
   44.8647   84.8611   56.8625 H   0  0  0  0  0  0  0  0  0  0  0  0
   43.5236   85.2359   56.6231 H   0  0  0  0  0  0  0  0  0  0  0  0
   43.2958   86.6962   57.6245 H   0  0  0  0  0  0  0  0  0  0  0  0
   42.6541   84.8603   55.1182 H   0  0  0  0  0  0  0  0  0  0  0  0
   43.9465   83.7138   54.6799 H   0  0  0  0  0  0  0  0  0  0  0  0
   42.9828   83.3837   53.2878 H   0  0  0  0  0  0  0  0  0  0  0  0
   43.2914   84.8027   52.4390 H   0  0  0  0  0  0  0  0  0  0  0  0
   45.6653   83.2372   54.4371 H   0  0  0  0  0  0  0  0  0  0  0  0
   45.5403   84.0153   56.0261 H   0  0  0  0  0  0  0  0  0  0  0  0
   16.2054   97.3576   45.3003 H   0  0  0  0  0  0  0  0  0  0  0  0
   16.6767   96.5100   46.8259 H   0  0  0  0  0  0  0  0  0  0  0  0
   17.2194   94.7539   45.7056 H   0  0  0  0  0  0  0  0  0  0  0  0
   18.1716   98.4195   46.4466 H   0  0  0  0  0  0  0  0  0  0  0  0
   19.0938   96.9282   46.2690 H   0  0  0  0  0  0  0  0  0  0  0  0
   19.0776   95.8709   44.3591 H   0  0  0  0  0  0  0  0  0  0  0  0
   19.0029   96.6915   42.8173 H   0  0  0  0  0  0  0  0  0  0  0  0
   20.8756   99.0225   43.0823 H   0  0  0  0  0  0  0  0  0  0  0  0
   20.6381   99.0966   44.9081 H   0  0  0  0  0  0  0  0  0  0  0  0
   22.8850   99.1030   43.4326 H   0  0  0  0  0  0  0  0  0  0  0  0
   22.9215   97.1931   43.3534 H   0  0  0  0  0  0  0  0  0  0  0  0
   24.2431   96.6406   43.5571 H   0  0  0  0  0  0  0  0  0  0  0  0
   25.4527   97.2652   45.7248 H   0  0  0  0  0  0  0  0  0  0  0  0
   24.7152   95.0281   43.9672 H   0  0  0  0  0  0  0  0  0  0  0  0
   23.1205   94.6046   43.4635 H   0  0  0  0  0  0  0  0  0  0  0  0
   23.2802   93.0126   45.5802 H   0  0  0  0  0  0  0  0  0  0  0  0
   22.4641   92.8034   44.1244 H   0  0  0  0  0  0  0  0  0  0  0  0
   21.3797   94.7638   43.4795 H   0  0  0  0  0  0  0  0  0  0  0  0
   21.9088   96.4101   43.2268 H   0  0  0  0  0  0  0  0  0  0  0  0
  1  2  1  0
  1  3  1  0
  3  4  1  0
  4  5  1  0
  5  6  1  0
  6  7  1  0
  7  8  1  0
  8  9  1  0
  9 10  1  0
 10 11  1  0
 10 12  1  0
 12 13  1  0
 13 14  1  0
 13 15  1  0
  6 16  1  0
  9 16  1  0
 15 16  1  0
 17 18  1  0
 17 19  1  0
 19 20  1  0
 20 21  1  0
 21 22  1  0
 22 23  1  0
 23 24  1  0
 24 25  1  0
 25 26  1  0
 26 27  1  0
 26 28  1  0
 28 29  1  0
 29 30  1  0
 29 31  1  0
 22 32  1  0
 25 32  1  0
 31 32  1  0
  1 33  1  0
  1 34  1  0
  2 35  1  0
  3 36  1  0
  3 37  1  0
  5 38  1  0
  5 39  1  0
  7 40  1  0
  7 41  1  0
  8 42  1  0
  9 43  1  0
 10 44  1  0
 11 45  1  0
 12 46  1  0
 13 47  1  0
 14 48  1  0
 14 49  1  0
 15 50  1  0
 16 51  1  0
 17 52  1  0
 17 53  1  0
 18 54  1  0
 19 55  1  0
 19 56  1  0
 21 57  1  0
 21 58  1  0
 23 59  1  0
 23 60  1  0
 24 61  1  0
 25 62  1  1
 26 63  1  0
 27 64  1  0
 28 65  1  0
 29 66  1  0
 30 67  1  0
 30 68  1  0
 31 69  1  0
 32 70  1  0
M  END
>  <PDBID>  (1) 
2KI5

>  <PDB ID>  (1) 
2KI5

>  <Generic Name>  (1) 
Aciclovir

>  <Brand Name>  (1) 
Acyclovir#Acyclovir Sodium#Acyclovir Sodium Injection#Acyclovir Sodium for Injection#Acyclovir-200#Acyclovir-400#Acyclovir-800#Alti-acyclovir - 400mg#Alti-acyclovir - 800mg#Alti-acyclovir - Tab 200mg#Apo-acyclovir - Tab 200mg#Apo-acyclovir - Tab 400mg#Apo-acyclovir - Tab 800mg#Mylan-acyclovir#Ntp-acyclovir#Nu-acyclovir - Tab 200mg#Nu-acyclovir - Tab 400mg#Nu-acyclovir - Tab 800mg#Ratio-acyclovir#Sitavig#Teva-acyclovir#Xerese#Zovirax#Zovirax 400#Zovirax 800#Zovirax Cap 200mg#Zovirax Tab 200mg#Zovir

>  <DrugBank ID>  (1) 
DB00787

>  <ATC Codes>  (1) 
S01AD03#D06BB03#J05AB01#D06BB53

>  <Ligand ID>  (1) 
AC2

>  <Target Name>  (1) 
Thymidine kinase

>  <UniProt ID>  (1) 
P03176

>  <PDB ID.1>  (1) 
2KI5

>  <Seq. Identity>  (1) 
100%

$$$$
