PDB_DB00615_99
     RDKit          3D

294304  0  0  0  0  0  0  0  0999 V2000
  -37.8270  179.0920   -1.0630 C   0  0  0  0  0  0  0  0  0  0  0  0
  -36.4220  178.6490   -1.4780 C   0  0  0  0  0  0  0  0  0  0  0  0
  -35.2990  179.5970   -1.4480 C   0  0  0  0  0  0  0  0  0  0  0  0
  -35.4620  180.9360   -0.9970 C   0  0  1  0  0  0  0  0  0  0  0  0
  -37.0260  182.9130   -0.1610 C   0  0  0  0  0  0  0  0  0  0  0  0
  -38.4000  183.3470    0.1980 C   0  0  0  0  0  0  0  0  0  0  0  0
  -39.5580  182.5340    0.3090 C   0  0  0  0  0  0  0  0  0  0  0  0
  -39.4100  181.0550   -0.0790 C   0  0  0  0  0  0  0  0  0  0  0  0
  -38.0040  180.5230   -0.5680 C   0  0  0  0  0  0  0  0  0  0  0  0
  -36.7660  181.4680   -0.5700 C   0  0  0  0  0  0  0  0  0  0  0  0
  -36.1990  184.0540   -0.0550 C   0  0  1  0  0  0  0  0  0  0  0  0
  -37.0950  185.2680    0.1840 C   0  0  2  0  0  0  0  0  0  0  0  0
  -36.6850  186.1330    1.3540 C   0  0  0  0  0  0  0  0  0  0  0  0
  -40.8960  183.0460    0.7720 C   0  0  0  0  0  0  0  0  0  0  0  0
  -36.6880  176.1000   -1.8660 C   0  0  0  0  0  0  0  0  0  0  0  0
  -35.8510  175.0220   -2.5280 C   0  0  0  0  0  0  0  0  0  0  0  0
  -35.7810  174.7650   -3.9030 C   0  0  0  0  0  0  0  0  0  0  0  0
  -36.4780  175.3830   -5.0670 C   0  0  0  0  0  0  0  0  0  0  0  0
  -35.8160  175.9080   -6.1160 C   0  0  0  0  0  0  0  0  0  0  0  0
  -36.3720  176.5740   -7.3680 C   0  0  1  0  0  0  0  0  0  0  0  0
  -36.9390  178.0220   -7.0690 C   0  0  1  0  0  0  0  0  0  0  0  0
  -36.9820  179.1270   -8.1990 C   0  0  2  0  0  0  0  0  0  0  0  0
  -37.4050  180.5440   -7.7380 C   0  0  2  0  0  0  0  0  0  0  0  0
  -36.5580  181.3470   -6.6770 C   0  0  2  0  0  0  0  0  0  0  0  0
  -37.2540  182.7890   -6.3810 C   0  0  1  0  0  0  0  0  0  0  0  0
  -37.3180  183.3040   -4.8980 C   0  0  1  0  0  0  0  0  0  0  0  0
  -38.0740  184.6990   -4.7230 C   0  0  2  0  0  0  0  0  0  0  0  0
  -38.1410  185.2910   -3.2500 C   0  0  0  0  0  0  0  0  0  0  0  0
  -37.0760  185.6530   -2.5040 C   0  0  0  0  0  0  0  0  0  0  0  0
  -35.0630  174.2200   -1.5260 C   0  0  0  0  0  0  0  0  0  0  0  0
  -35.1850  176.5170   -8.3750 C   0  0  0  0  0  0  0  0  0  0  0  0
  -37.9150  178.7390   -9.4090 C   0  0  0  0  0  0  0  0  0  0  0  0
  -35.0460  181.4630   -7.0600 C   0  0  0  0  0  0  0  0  0  0  0  0
  -37.9460  182.1970   -4.0650 C   0  0  0  0  0  0  0  0  0  0  0  0
  -37.3480  184.2190   -8.4590 C   0  0  0  0  0  0  0  0  0  0  0  0
  -36.5760  185.1970   -9.2040 C   0  0  0  0  0  0  0  0  0  0  0  0
  -40.7040  184.5620   -4.5430 C   0  0  0  0  0  0  0  0  0  0  0  0
  -33.3800  180.6470   -1.5710 C   0  0  2  0  0  0  0  0  0  0  0  0
  -32.7880  181.1510   -2.9730 C   0  0  0  0  0  0  0  0  0  0  0  0
  -32.2520  180.5070   -0.4490 C   0  0  0  0  0  0  0  0  0  0  0  0
  -31.2640  181.4220   -3.1840 C   0  0  0  0  0  0  0  0  0  0  0  0
  -30.7510  180.8500   -0.7180 C   0  0  0  0  0  0  0  0  0  0  0  0
  -29.1440  182.4020   -2.0410 C   0  0  0  0  0  0  0  0  0  0  0  0
  -28.7610  183.7680   -1.4270 C   0  0  1  0  0  0  0  0  0  0  0  0
  -28.1690  183.5820   -0.0270 C   0  0  0  0  0  0  0  0  0  0  0  0
  -27.7410  184.4750   -2.3120 C   0  0  0  0  0  0  0  0  0  0  0  0
  -36.0840  177.3260   -1.9550 N   0  0  0  0  0  0  0  0  0  0  0  0
  -33.9860  179.4610   -1.7550 N   0  0  0  0  0  0  0  0  0  0  0  0
  -34.3210  181.5380   -1.1510 N   0  0  0  0  0  0  0  0  0  0  0  0
  -30.6230  181.9370   -1.8490 N   0  0  0  0  0  0  0  0  0  0  0  0
  -38.8700  178.2700   -1.1540 O   0  0  0  0  0  0  0  0  0  0  0  0
  -40.4320  180.2500   -0.0110 O   0  0  0  0  0  0  0  0  0  0  0  0
  -38.4500  184.7080    0.4120 O   0  0  0  0  0  0  0  0  0  0  0  0
  -34.9410  184.2130   -0.1730 O   0  0  0  0  0  0  0  0  0  0  0  0
  -37.1570  186.1880   -1.0780 O   0  0  0  0  0  0  0  0  0  0  0  0
  -39.4840  184.5650   -5.4140 O   0  0  0  0  0  0  0  0  0  0  0  0
  -36.6770  183.8100   -7.2960 O   0  0  0  0  0  0  0  0  0  0  0  0
  -38.4370  183.8180   -8.7730 O   0  0  0  0  0  0  0  0  0  0  0  0
  -38.7610  180.5240   -7.2080 O   0  0  0  0  0  0  0  0  0  0  0  0
  -38.2620  177.7950   -6.4950 O   0  0  0  0  0  0  0  0  0  0  0  0
  -37.7460  175.8310   -1.3360 O   0  0  0  0  0  0  0  0  0  0  0  0
  136.2450  122.1180   40.9270 C   0  0  0  0  0  0  0  0  0  0  0  0
  136.7370  120.7220   40.5780 C   0  0  0  0  0  0  0  0  0  0  0  0
  138.1880  120.4030   40.6610 C   0  0  1  0  0  0  0  0  0  0  0  0
  139.1340  121.3650   41.1370 C   0  0  2  0  0  0  0  0  0  0  0  0
  139.7170  123.8110   41.9290 C   0  0  0  0  0  0  0  0  0  0  0  0
  139.2330  125.1890   42.1670 C   0  0  0  0  0  0  0  0  0  0  0  0
  137.8920  125.6450   42.1420 C   0  0  0  0  0  0  0  0  0  0  0  0
  136.8100  124.6010   41.7960 C   0  0  0  0  0  0  0  0  0  0  0  0
  137.2550  123.1390   41.4150 C   0  0  0  0  0  0  0  0  0  0  0  0
  138.7470  122.7260   41.5070 C   0  0  1  0  0  0  0  0  0  0  0  0
  141.1050  123.8350   42.1380 C   0  0  0  0  0  0  0  0  0  0  0  0
  141.5340  125.2760   42.3760 C   0  0  2  0  0  0  0  0  0  0  0  0
  142.3020  125.4970   43.6400 C   0  0  0  0  0  0  0  0  0  0  0  0
  137.4820  127.0740   42.4110 C   0  0  0  0  0  0  0  0  0  0  0  0
  134.5320  119.3720   40.2780 C   0  0  0  0  0  0  0  0  0  0  0  0
  134.1060  118.0840   39.6390 C   0  0  0  0  0  0  0  0  0  0  0  0
  133.8090  117.8870   38.2800 C   0  0  0  0  0  0  0  0  0  0  0  0
  133.8440  118.8030   37.0870 C   0  0  0  0  0  0  0  0  0  0  0  0
  134.8410  118.7230   36.1650 C   0  0  0  0  0  0  0  0  0  0  0  0
  135.0710  119.5340   34.8850 C   0  0  1  0  0  0  0  0  0  0  0  0
  135.9930  120.8170   35.0990 C   0  0  1  0  0  0  0  0  0  0  0  0
  136.9270  121.3760   33.9370 C   0  0  2  0  0  0  0  0  0  0  0  0
  137.8110  122.6070   34.3230 C   0  0  2  0  0  0  0  0  0  0  0  0
  138.7810  122.5430   35.5790 C   0  0  2  0  0  0  0  0  0  0  0  0
  139.5120  123.9760   35.8440 C   0  0  1  0  0  0  0  0  0  0  0  0
  139.9140  124.3190   37.3270 C   0  0  1  0  0  0  0  0  0  0  0  0
  140.6370  125.7350   37.5340 C   0  0  2  0  0  0  0  0  0  0  0  0
  141.1030  126.0520   39.0170 C   0  0  0  0  0  0  0  0  0  0  0  0
  142.0920  125.4310   39.7220 C   0  0  0  0  0  0  0  0  0  0  0  0
  134.0240  116.9520   40.6380 C   0  0  0  0  0  0  0  0  0  0  0  0
  135.6280  118.4590   33.8820 C   0  0  0  0  0  0  0  0  0  0  0  0
  136.1240  121.7610   32.6270 C   0  0  0  0  0  0  0  0  0  0  0  0
  139.8190  121.3930   35.4760 C   0  0  0  0  0  0  0  0  0  0  0  0
  138.6490  124.2130   38.1490 C   0  0  0  0  0  0  0  0  0  0  0  0
  140.6680  124.8480   33.7940 C   0  0  0  0  0  0  0  0  0  0  0  0
  141.9520  124.8320   33.1030 C   0  0  0  0  0  0  0  0  0  0  0  0
  139.1280  127.8210   37.9530 C   0  0  0  0  0  0  0  0  0  0  0  0
  140.2240  119.5600   40.6440 C   0  0  2  0  0  0  0  0  0  0  0  0
  141.0530  119.3820   39.3160 C   0  0  0  0  0  0  0  0  0  0  0  0
  140.7950  118.6780   41.8550 C   0  0  0  0  0  0  0  0  0  0  0  0
  142.1540  118.2930   39.1620 C   0  0  0  0  0  0  0  0  0  0  0  0
  141.9960  117.6920   41.6850 C   0  0  0  0  0  0  0  0  0  0  0  0
  144.0890  117.1020   40.3340 C   0  0  0  0  0  0  0  0  0  0  0  0
  145.4430  117.5170   40.8800 C   0  0  1  0  0  0  0  0  0  0  0  0
  145.7130  116.7930   42.1970 C   0  0  0  0  0  0  0  0  0  0  0  0
  146.5340  117.1830   39.8620 C   0  0  0  0  0  0  0  0  0  0  0  0
  135.8720  119.6340   40.1180 N   0  0  0  0  0  0  0  0  0  0  0  0
  138.9110  119.2740   40.4520 N   0  0  0  0  0  0  0  0  0  0  0  0
  140.3220  120.8560   40.9950 N   0  0  0  0  0  0  0  0  0  0  0  0
  142.9440  118.1160   40.5060 N   0  0  0  0  0  0  0  0  0  0  0  0
  134.9620  122.4510   40.7840 O   0  0  0  0  0  0  0  0  0  0  0  0
  135.5670  124.9180   41.8250 O   0  0  0  0  0  0  0  0  0  0  0  0
  140.2820  126.0490   42.4090 O   0  0  0  0  0  0  0  0  0  0  0  0
  141.9770  122.9240   42.1230 O   0  0  0  0  0  0  0  0  0  0  0  0
  142.4160  125.7950   41.1710 O   0  0  0  0  0  0  0  0  0  0  0  0
  139.6650  126.8410   36.9750 O   0  0  0  0  0  0  0  0  0  0  0  0
  140.6920  124.0870   34.9610 O   0  0  0  0  0  0  0  0  0  0  0  0
  139.7100  125.4300   33.4160 O   0  0  0  0  0  0  0  0  0  0  0  0
  136.9630  123.7800   34.5380 O   0  0  0  0  0  0  0  0  0  0  0  0
  135.1040  121.8490   35.5870 O   0  0  0  0  0  0  0  0  0  0  0  0
  133.7300  120.0530   40.8630 O   0  0  0  0  0  0  0  0  0  0  0  0
  -37.6274  178.7605   -0.0333 H   0  0  0  0  0  0  0  0  0  0  0  0
  -36.6379  178.9377   -2.5172 H   0  0  0  0  0  0  0  0  0  0  0  0
  -35.5387  179.9134   -2.4739 H   0  0  0  0  0  0  0  0  0  0  0  0
  -35.6682  181.2583   -2.0283 H   0  0  0  0  0  0  0  0  0  0  0  0
  -36.8345  182.6500    0.8898 H   0  0  0  0  0  0  0  0  0  0  0  0
  -38.6232  183.5198   -0.8652 H   0  0  0  0  0  0  0  0  0  0  0  0
  -39.8295  182.7790   -0.7284 H   0  0  0  0  0  0  0  0  0  0  0  0
  -39.6782  181.3005   -1.1172 H   0  0  0  0  0  0  0  0  0  0  0  0
  -38.2371  180.8486   -1.5925 H   0  0  0  0  0  0  0  0  0  0  0  0
  -36.5272  181.2156    0.4737 H   0  0  0  0  0  0  0  0  0  0  0  0
  -36.2762  184.2108   -1.1410 H   0  0  0  0  0  0  0  0  0  0  0  0
  -36.9293  185.6175    2.2945 H   0  0  0  0  0  0  0  0  0  0  0  0
  -35.6021  186.3208    1.3094 H   0  0  0  0  0  0  0  0  0  0  0  0
  -37.2252  187.0902    1.3094 H   0  0  0  0  0  0  0  0  0  0  0  0
  -40.9240  183.0567    1.8716 H   0  0  0  0  0  0  0  0  0  0  0  0
  -41.0498  184.0665    0.3913 H   0  0  0  0  0  0  0  0  0  0  0  0
  -41.6918  182.3889    0.3913 H   0  0  0  0  0  0  0  0  0  0  0  0
  -36.1720  175.9150   -0.9123 H   0  0  0  0  0  0  0  0  0  0  0  0
  -36.6898  174.3159   -2.4387 H   0  0  0  0  0  0  0  0  0  0  0  0
  -34.7149  174.8999   -4.1379 H   0  0  0  0  0  0  0  0  0  0  0  0
  -36.3651  173.8330   -3.8868 H   0  0  0  0  0  0  0  0  0  0  0  0
  -37.1326  174.6015   -5.4801 H   0  0  0  0  0  0  0  0  0  0  0  0
  -36.9220  176.2802   -4.6111 H   0  0  0  0  0  0  0  0  0  0  0  0
  -35.1594  176.6698   -5.6705 H   0  0  0  0  0  0  0  0  0  0  0  0
  -35.4854  174.9655   -6.5768 H   0  0  0  0  0  0  0  0  0  0  0  0
  -37.2548  176.0682   -7.7862 H   0  0  0  0  0  0  0  0  0  0  0  0
  -36.1978  178.4999   -6.4116 H   0  0  0  0  0  0  0  0  0  0  0  0
  -35.9268  179.1651   -8.5073 H   0  0  0  0  0  0  0  0  0  0  0  0
  -37.2496  181.0815   -8.6851 H   0  0  0  0  0  0  0  0  0  0  0  0
  -36.5609  180.7725   -5.7390 H   0  0  0  0  0  0  0  0  0  0  0  0
  -38.3206  182.6119   -6.5834 H   0  0  0  0  0  0  0  0  0  0  0  0
  -36.2971  183.5233   -4.5520 H   0  0  0  0  0  0  0  0  0  0  0  0
  -37.4658  185.4688   -5.2205 H   0  0  0  0  0  0  0  0  0  0  0  0
  -38.7634  186.1947   -3.3272 H   0  0  0  0  0  0  0  0  0  0  0  0
  -38.4711  184.3991   -2.6972 H   0  0  0  0  0  0  0  0  0  0  0  0
  -36.4379  184.7588   -2.4476 H   0  0  0  0  0  0  0  0  0  0  0  0
  -36.7517  186.5569   -3.0405 H   0  0  0  0  0  0  0  0  0  0  0  0
  -35.3547  174.5169   -0.5078 H   0  0  0  0  0  0  0  0  0  0  0  0
  -35.2700  173.1492   -1.6692 H   0  0  0  0  0  0  0  0  0  0  0  0
  -33.9887  174.4081   -1.6692 H   0  0  0  0  0  0  0  0  0  0  0  0
  -34.2359  176.4714   -7.8208 H   0  0  0  0  0  0  0  0  0  0  0  0
  -35.2835  175.6226   -9.0077 H   0  0  0  0  0  0  0  0  0  0  0  0
  -35.1973  177.4168   -9.0077 H   0  0  0  0  0  0  0  0  0  0  0  0
  -38.8670  178.3431   -9.0257 H   0  0  0  0  0  0  0  0  0  0  0  0
  -38.1094  179.6309  -10.0228 H   0  0  0  0  0  0  0  0  0  0  0  0
  -37.4196  177.9723  -10.0228 H   0  0  0  0  0  0  0  0  0  0  0  0
  -34.4383  181.5096   -6.1443 H   0  0  0  0  0  0  0  0  0  0  0  0
  -34.7494  180.5850   -7.6525 H   0  0  0  0  0  0  0  0  0  0  0  0
  -34.8868  182.3760   -7.6525 H   0  0  0  0  0  0  0  0  0  0  0  0
  -37.8171  182.4241   -2.9964 H   0  0  0  0  0  0  0  0  0  0  0  0
  -39.0187  182.1263   -4.2981 H   0  0  0  0  0  0  0  0  0  0  0  0
  -37.4563  181.2400   -4.2981 H   0  0  0  0  0  0  0  0  0  0  0  0
  -36.8647  183.4077   -9.0232 H   0  0  0  0  0  0  0  0  0  0  0  0
  -36.0513  185.8618   -8.5021 H   0  0  0  0  0  0  0  0  0  0  0  0
  -35.8409  184.6787   -9.8372 H   0  0  0  0  0  0  0  0  0  0  0  0
  -37.2509  185.7916   -9.8372 H   0  0  0  0  0  0  0  0  0  0  0  0
  -40.3998  184.5627   -3.4859 H   0  0  0  0  0  0  0  0  0  0  0  0
  -41.3059  185.4587   -4.7520 H   0  0  0  0  0  0  0  0  0  0  0  0
  -41.3015  183.6624   -4.7520 H   0  0  0  0  0  0  0  0  0  0  0  0
  -33.0704  180.3910   -3.7164 H   0  0  0  0  0  0  0  0  0  0  0  0
  -33.2131  182.1626   -3.0504 H   0  0  0  0  0  0  0  0  0  0  0  0
  -32.5681  181.1525    0.3838 H   0  0  0  0  0  0  0  0  0  0  0  0
  -32.2114  179.4171   -0.3057 H   0  0  0  0  0  0  0  0  0  0  0  0
  -30.7671  180.4900   -3.4913 H   0  0  0  0  0  0  0  0  0  0  0  0
  -31.1371  182.1864   -3.9648 H   0  0  0  0  0  0  0  0  0  0  0  0
  -30.2974  181.2360    0.2068 H   0  0  0  0  0  0  0  0  0  0  0  0
  -30.2325  179.9366   -1.0449 H   0  0  0  0  0  0  0  0  0  0  0  0
  -28.9492  182.4561   -3.1223 H   0  0  0  0  0  0  0  0  0  0  0  0
  -28.5355  181.6614   -1.5013 H   0  0  0  0  0  0  0  0  0  0  0  0
  -29.6729  184.3789   -1.3553 H   0  0  0  0  0  0  0  0  0  0  0  0
  -28.9318  183.8217    0.7285 H   0  0  0  0  0  0  0  0  0  0  0  0
  -27.8442  182.5385    0.0981 H   0  0  0  0  0  0  0  0  0  0  0  0
  -27.3058  184.2522    0.0981 H   0  0  0  0  0  0  0  0  0  0  0  0
  -27.0008  184.9881   -1.6805 H   0  0  0  0  0  0  0  0  0  0  0  0
  -27.2314  183.7354   -2.9471 H   0  0  0  0  0  0  0  0  0  0  0  0
  -28.2547  185.2117   -2.9471 H   0  0  0  0  0  0  0  0  0  0  0  0
  -35.9853  177.4633   -2.9710 H   0  0  0  0  0  0  0  0  0  0  0  0
  -33.5573  178.7529   -1.1420 H   0  0  0  0  0  0  0  0  0  0  0  0
  -34.4211  182.2853   -1.8527 H   0  0  0  0  0  0  0  0  0  0  0  0
  -39.1787  178.0267   -0.2454 H   0  0  0  0  0  0  0  0  0  0  0  0
  -40.6526  180.0762    0.9383 H   0  0  0  0  0  0  0  0  0  0  0  0
  -34.5292  184.2650    0.7258 H   0  0  0  0  0  0  0  0  0  0  0  0
  -38.9647  183.6237   -7.9582 H   0  0  0  0  0  0  0  0  0  0  0  0
  -38.7286  180.5245   -6.2185 H   0  0  0  0  0  0  0  0  0  0  0  0
  -38.1994  177.8057   -5.5070 H   0  0  0  0  0  0  0  0  0  0  0  0
  -37.6386  175.8583   -0.3522 H   0  0  0  0  0  0  0  0  0  0  0  0
  136.0688  121.7966   41.9641 H   0  0  0  0  0  0  0  0  0  0  0  0
  136.8645  121.0291   39.5295 H   0  0  0  0  0  0  0  0  0  0  0  0
  138.3281  120.7731   39.6346 H   0  0  0  0  0  0  0  0  0  0  0  0
  139.1916  121.9982   42.0346 H   0  0  0  0  0  0  0  0  0  0  0  0
  139.5336  123.5642   42.9851 H   0  0  0  0  0  0  0  0  0  0  0  0
  139.3274  125.4076   41.0931 H   0  0  0  0  0  0  0  0  0  0  0  0
  137.9956  125.8912   41.0749 H   0  0  0  0  0  0  0  0  0  0  0  0
  136.8659  124.8939   40.7372 H   0  0  0  0  0  0  0  0  0  0  0  0
  137.4292  123.4622   40.3781 H   0  0  0  0  0  0  0  0  0  0  0  0
  138.6428  122.4112   42.5558 H   0  0  0  0  0  0  0  0  0  0  0  0
  141.2654  123.9657   41.0576 H   0  0  0  0  0  0  0  0  0  0  0  0
  141.6479  125.3088   44.5041 H   0  0  0  0  0  0  0  0  0  0  0  0
  143.1599  124.8093   43.6728 H   0  0  0  0  0  0  0  0  0  0  0  0
  142.6631  126.5355   43.6728 H   0  0  0  0  0  0  0  0  0  0  0  0
  137.4334  127.2433   43.4968 H   0  0  0  0  0  0  0  0  0  0  0  0
  138.2203  127.7573   41.9660 H   0  0  0  0  0  0  0  0  0  0  0  0
  136.4937  127.2619   41.9660 H   0  0  0  0  0  0  0  0  0  0  0  0
  134.7485  118.8361   41.2139 H   0  0  0  0  0  0  0  0  0  0  0  0
  133.0530  118.3363   39.8326 H   0  0  0  0  0  0  0  0  0  0  0  0
  134.4777  117.0634   37.9893 H   0  0  0  0  0  0  0  0  0  0  0  0
  132.7152  117.8865   38.3968 H   0  0  0  0  0  0  0  0  0  0  0  0
  132.9022  118.6412   36.5422 H   0  0  0  0  0  0  0  0  0  0  0  0
  134.0210  119.7869   37.5460 H   0  0  0  0  0  0  0  0  0  0  0  0
  135.7594  118.8797   36.7497 H   0  0  0  0  0  0  0  0  0  0  0  0
  134.5180  117.7872   35.6856 H   0  0  0  0  0  0  0  0  0  0  0  0
  134.1580  120.0103   34.4983 H   0  0  0  0  0  0  0  0  0  0  0  0
  136.7830  120.4786   35.7856 H   0  0  0  0  0  0  0  0  0  0  0  0
  137.5924  120.5206   33.7485 H   0  0  0  0  0  0  0  0  0  0  0  0
  138.4834  122.6395   33.4530 H   0  0  0  0  0  0  0  0  0  0  0  0
  138.1467  122.3193   36.4494 H   0  0  0  0  0  0  0  0  0  0  0  0
  138.7394  124.7238   35.6117 H   0  0  0  0  0  0  0  0  0  0  0  0
  140.6843  123.6036   37.6507 H   0  0  0  0  0  0  0  0  0  0  0  0
  141.5875  125.7118   36.9808 H   0  0  0  0  0  0  0  0  0  0  0  0
  141.3914  127.1134   39.0014 H   0  0  0  0  0  0  0  0  0  0  0  0
  140.2301  125.6619   39.5610 H   0  0  0  0  0  0  0  0  0  0  0  0
  141.8403  124.3602   39.7242 H   0  0  0  0  0  0  0  0  0  0  0  0
  142.9952  125.7720   39.1948 H   0  0  0  0  0  0  0  0  0  0  0  0
  134.0536  117.3609   41.6587 H   0  0  0  0  0  0  0  0  0  0  0  0
  133.0836  116.4007   40.4910 H   0  0  0  0  0  0  0  0  0  0  0  0
  134.8752  116.2709   40.4910 H   0  0  0  0  0  0  0  0  0  0  0  0
  136.0623  117.6209   34.4467 H   0  0  0  0  0  0  0  0  0  0  0  0
  134.8083  118.0888   33.2488 H   0  0  0  0  0  0  0  0  0  0  0  0
  136.4032  118.9152   33.2488 H   0  0  0  0  0  0  0  0  0  0  0  0
  135.1647  122.2209   32.9068 H   0  0  0  0  0  0  0  0  0  0  0  0
  136.7131  122.4746   32.0322 H   0  0  0  0  0  0  0  0  0  0  0  0
  135.9365  120.8548   32.0322 H   0  0  0  0  0  0  0  0  0  0  0  0
  140.1102  121.0703   36.4865 H   0  0  0  0  0  0  0  0  0  0  0  0
  139.3744  120.5452   34.9343 H   0  0  0  0  0  0  0  0  0  0  0  0
  140.7078  121.7487   34.9343 H   0  0  0  0  0  0  0  0  0  0  0  0
  138.9040  124.2344   39.2188 H   0  0  0  0  0  0  0  0  0  0  0  0
  137.9864  125.0588   37.9130 H   0  0  0  0  0  0  0  0  0  0  0  0
  138.1364  123.2688   37.9130 H   0  0  0  0  0  0  0  0  0  0  0  0
  140.3499  123.9630   33.2234 H   0  0  0  0  0  0  0  0  0  0  0  0
  142.7663  124.8219   33.8425 H   0  0  0  0  0  0  0  0  0  0  0  0
  142.0180  123.9330   32.4726 H   0  0  0  0  0  0  0  0  0  0  0  0
  142.0404  125.7291   32.4726 H   0  0  0  0  0  0  0  0  0  0  0  0
  139.3236  127.4640   38.9749 H   0  0  0  0  0  0  0  0  0  0  0  0
  139.6189  128.7941   37.8043 H   0  0  0  0  0  0  0  0  0  0  0  0
  138.0437  127.9309   37.8043 H   0  0  0  0  0  0  0  0  0  0  0  0
  140.3186  119.1899   38.5199 H   0  0  0  0  0  0  0  0  0  0  0  0
  141.6449  120.3089   39.2915 H   0  0  0  0  0  0  0  0  0  0  0  0
  141.0941  119.3912   42.6373 H   0  0  0  0  0  0  0  0  0  0  0  0
  139.9607  117.9857   42.0415 H   0  0  0  0  0  0  0  0  0  0  0  0
  141.6821  117.3370   38.8909 H   0  0  0  0  0  0  0  0  0  0  0  0
  142.8562  118.6060   38.3753 H   0  0  0  0  0  0  0  0  0  0  0  0
  142.5767  117.6754   42.6191 H   0  0  0  0  0  0  0  0  0  0  0  0
  141.5883  116.6973   41.4519 H   0  0  0  0  0  0  0  0  0  0  0  0
  144.2067  116.9089   39.2575 H   0  0  0  0  0  0  0  0  0  0  0  0
  143.7923  116.2221   40.9237 H   0  0  0  0  0  0  0  0  0  0  0  0
  145.4450  118.6017   41.0630 H   0  0  0  0  0  0  0  0  0  0  0  0
  145.4653  117.4573   43.0381 H   0  0  0  0  0  0  0  0  0  0  0  0
  145.0926  115.8863   42.2508 H   0  0  0  0  0  0  0  0  0  0  0  0
  146.7756  116.5139   42.2508 H   0  0  0  0  0  0  0  0  0  0  0  0
  147.4558  116.9008   40.3917 H   0  0  0  0  0  0  0  0  0  0  0  0
  146.2026  116.3452   39.2310 H   0  0  0  0  0  0  0  0  0  0  0  0
  146.7284  118.0628   39.2310 H   0  0  0  0  0  0  0  0  0  0  0  0
  135.9897  119.6533   39.0949 H   0  0  0  0  0  0  0  0  0  0  0  0
  138.6141  118.5439   41.1151 H   0  0  0  0  0  0  0  0  0  0  0  0
  140.8294  121.3714   40.2617 H   0  0  0  0  0  0  0  0  0  0  0  0
  134.5475  122.5586   41.6766 H   0  0  0  0  0  0  0  0  0  0  0  0
  135.2678  124.9943   42.7656 H   0  0  0  0  0  0  0  0  0  0  0  0
  142.2128  122.6776   43.0524 H   0  0  0  0  0  0  0  0  0  0  0  0
  139.1879  125.7472   34.1950 H   0  0  0  0  0  0  0  0  0  0  0  0
  136.8521  123.9334   35.5097 H   0  0  0  0  0  0  0  0  0  0  0  0
  135.1067  121.8459   36.5770 H   0  0  0  0  0  0  0  0  0  0  0  0
  133.8559  119.9461   41.8391 H   0  0  0  0  0  0  0  0  0  0  0  0
  1  2  1  0
  2  3  1  0
  3  4  1  0
  5  6  1  0
  6  7  1  0
  7  8  1  0
  1  9  1  0
  8  9  1  0
  4 10  1  0
  5 10  1  0
  9 10  1  0
  5 11  1  0
 11 12  1  0
 12 13  1  1
  7 14  1  0
 15 16  1  0
 16 17  1  0
 17 18  1  0
 18 19  1  0
 19 20  1  0
 20 21  1  0
 21 22  1  0
 22 23  1  0
 23 24  1  0
 24 25  1  0
 25 26  1  0
 26 27  1  0
 27 28  1  0
 28 29  1  0
 16 30  1  0
 20 31  1  0
 22 32  1  0
 24 33  1  0
 26 34  1  0
 35 36  1  0
 38 39  1  0
 38 40  1  0
 39 41  1  0
 40 42  1  0
 43 44  1  0
 44 45  1  0
 44 46  1  0
  2 47  1  0
 15 47  1  0
  3 48  1  0
 38 48  1  0
  4 49  1  0
 38 49  1  1
 41 50  1  0
 42 50  1  0
 43 50  1  0
  1 51  1  0
  8 52  1  0
  6 53  1  0
 12 53  1  0
 11 54  1  0
 12 55  1  0
 29 55  1  0
 27 56  1  0
 37 56  1  0
 25 57  1  0
 35 57  1  0
 35 58  1  0
 23 59  1  0
 21 60  1  0
 15 61  1  0
 62 63  1  0
 63 64  1  0
 64 65  1  0
 66 67  1  0
 67 68  1  0
 68 69  1  0
 62 70  1  0
 69 70  1  0
 65 71  1  0
 66 71  1  0
 70 71  1  0
 66 72  1  0
 72 73  1  0
 73 74  1  1
 68 75  1  0
 76 77  1  0
 77 78  1  0
 78 79  1  0
 79 80  1  0
 80 81  1  0
 81 82  1  0
 82 83  1  0
 83 84  1  0
 84 85  1  0
 85 86  1  0
 86 87  1  0
 87 88  1  0
 88 89  1  0
 89 90  1  0
 77 91  1  0
 81 92  1  0
 83 93  1  0
 85 94  1  0
 87 95  1  0
 96 97  1  0
 99100  1  0
 99101  1  0
100102  1  0
101103  1  0
104105  1  0
105106  1  0
105107  1  0
 63108  1  0
 76108  1  0
 64109  1  0
 99109  1  6
 65110  1  0
 99110  1  0
102111  1  0
103111  1  0
104111  1  0
 62112  1  0
 69113  1  0
 67114  1  0
 73114  1  0
 72115  1  0
 73116  1  0
 90116  1  0
 88117  1  0
 98117  1  0
 86118  1  0
 96118  1  0
 96119  1  0
 84120  1  0
 82121  1  0
 76122  1  0
  1123  1  0
  2124  1  0
  3125  1  0
  4126  1  1
  5127  1  0
  6128  1  0
  7129  1  0
  8130  1  0
  9131  1  0
 10132  1  0
 11133  1  1
 13134  1  0
 13135  1  0
 13136  1  0
 14137  1  0
 14138  1  0
 14139  1  0
 15140  1  0
 16141  1  0
 17142  1  0
 17143  1  0
 18144  1  0
 18145  1  0
 19146  1  0
 19147  1  0
 20148  1  6
 21149  1  1
 22150  1  6
 23151  1  6
 24152  1  1
 25153  1  6
 26154  1  1
 27155  1  6
 28156  1  0
 28157  1  0
 29158  1  0
 29159  1  0
 30160  1  0
 30161  1  0
 30162  1  0
 31163  1  0
 31164  1  0
 31165  1  0
 32166  1  0
 32167  1  0
 32168  1  0
 33169  1  0
 33170  1  0
 33171  1  0
 34172  1  0
 34173  1  0
 34174  1  0
 35175  1  0
 36176  1  0
 36177  1  0
 36178  1  0
 37179  1  0
 37180  1  0
 37181  1  0
 39182  1  0
 39183  1  0
 40184  1  0
 40185  1  0
 41186  1  0
 41187  1  0
 42188  1  0
 42189  1  0
 43190  1  0
 43191  1  0
 44192  1  1
 45193  1  0
 45194  1  0
 45195  1  0
 46196  1  0
 46197  1  0
 46198  1  0
 47199  1  0
 48200  1  6
 49201  1  0
 51202  1  0
 52203  1  0
 54204  1  0
 58205  1  0
 59206  1  0
 60207  1  0
 61208  1  0
 62209  1  0
 63210  1  0
 64211  1  6
 65212  1  1
 66213  1  0
 67214  1  0
 68215  1  0
 69216  1  0
 70217  1  0
 71218  1  1
 72219  1  0
 74220  1  0
 74221  1  0
 74222  1  0
 75223  1  0
 75224  1  0
 75225  1  0
 76226  1  0
 77227  1  0
 78228  1  0
 78229  1  0
 79230  1  0
 79231  1  0
 80232  1  0
 80233  1  0
 81234  1  6
 82235  1  1
 83236  1  6
 84237  1  6
 85238  1  1
 86239  1  6
 87240  1  1
 88241  1  6
 89242  1  0
 89243  1  0
 90244  1  0
 90245  1  0
 91246  1  0
 91247  1  0
 91248  1  0
 92249  1  0
 92250  1  0
 92251  1  0
 93252  1  0
 93253  1  0
 93254  1  0
 94255  1  0
 94256  1  0
 94257  1  0
 95258  1  0
 95259  1  0
 95260  1  0
 96261  1  0
 97262  1  0
 97263  1  0
 97264  1  0
 98265  1  0
 98266  1  0
 98267  1  0
100268  1  0
100269  1  0
101270  1  0
101271  1  0
102272  1  0
102273  1  0
103274  1  0
103275  1  0
104276  1  0
104277  1  0
105278  1  1
106279  1  0
106280  1  0
106281  1  0
107282  1  0
107283  1  0
107284  1  0
108285  1  0
109286  1  0
110287  1  0
112288  1  0
113289  1  0
115290  1  0
119291  1  0
120292  1  0
121293  1  0
122294  1  0
M  END
>  <PDBID>  (1) 
2A68

>  <PDB ID>  (1) 
2A68

>  <Generic Name>  (1) 
Rifabutin

>  <Brand Name>  (1) 
Mycobutin#Rifabutin#Ansatipin#Ansatipine#Ributin

>  <DrugBank ID>  (1) 
DB00615

>  <ATC Codes>  (1) 
J04AB04

>  <Ligand ID>  (1) 
RBT

>  <Target Name>  (1) 
DNA-directed RNA polymerase subunit beta

>  <UniProt ID>  (1) 
P0A8V2

>  <PDB ID.1>  (1) 
2A68

>  <Seq. Identity>  (1) 
51%

$$$$
