PDB_DB00932_97
     RDKit          3D

 75 78  0  0  0  0  0  0  0  0999 V2000
   13.6170   21.5370    6.0600 O   0  0  0  0  0  0  0  0  0  0  0  0
   12.5610   22.3470    5.9440 C   0  0  0  0  0  0  0  0  0  0  0  0
   12.7670   23.6610    5.2530 C   0  0  0  0  0  0  0  0  0  0  0  0
   14.0610   23.9900    4.8250 C   0  0  0  0  0  0  0  0  0  0  0  0
   15.2020   23.3100    5.5750 C   0  0  0  0  0  0  0  0  0  0  0  0
   14.9740   22.1270    5.9630 C   0  0  2  0  0  0  0  0  0  0  0  0
   11.4630   21.9690    6.2400 O   0  0  0  0  0  0  0  0  0  0  0  0
   14.3380   25.1840    4.2350 O   0  0  0  0  0  0  0  0  0  0  0  0
   15.9500   21.2170    5.1920 C   0  0  0  0  0  0  0  0  0  0  0  0
   15.4850   20.1410    4.6320 C   0  0  0  0  0  0  0  0  0  0  0  0
   15.4480   20.0120    3.1230 C   0  0  0  0  0  0  0  0  0  0  0  0
   14.9020   21.9190    7.4700 C   0  0  0  0  0  0  0  0  0  0  0  0
   16.1830   22.4920    8.0080 C   0  0  0  0  0  0  0  0  0  0  0  0
   17.1150   21.7170    8.8100 C   0  0  0  0  0  0  0  0  0  0  0  0
   16.7170   20.8630    9.8420 C   0  0  0  0  0  0  0  0  0  0  0  0
   17.6870   20.1630   10.5920 C   0  0  0  0  0  0  0  0  0  0  0  0
   19.0440   20.2320   10.2140 C   0  0  0  0  0  0  0  0  0  0  0  0
   19.4660   21.1430    9.2260 C   0  0  0  0  0  0  0  0  0  0  0  0
   18.4910   21.9090    8.5470 C   0  0  0  0  0  0  0  0  0  0  0  0
   11.5160   24.4310    4.8740 C   0  0  1  0  0  0  0  0  0  0  0  0
   10.4570   24.2950    3.7320 C   0  0  0  0  0  0  0  0  0  0  0  0
   11.0140   24.1580    2.2970 C   0  0  0  0  0  0  0  0  0  0  0  0
   11.0700   25.1840    6.1160 C   0  0  0  0  0  0  0  0  0  0  0  0
   12.0080   25.5680    7.0850 C   0  0  0  0  0  0  0  0  0  0  0  0
   11.5820   26.3140    8.2040 C   0  0  0  0  0  0  0  0  0  0  0  0
   10.2220   26.6690    8.3390 C   0  0  0  0  0  0  0  0  0  0  0  0
    9.2640   26.1540    7.4590 C   0  0  0  0  0  0  0  0  0  0  0  0
    7.5850   26.7340    7.8730 N   0  0  0  0  0  0  0  0  0  0  0  0
    9.7010   25.4160    6.3390 C   0  0  0  0  0  0  0  0  0  0  0  0
    7.2470   28.0600    7.0170 S   0  0  0  0  0  0  0  0  0  0  0  0
    8.2460   29.0690    7.3420 O   0  0  0  0  0  0  0  0  0  0  0  0
    5.8490   28.3660    7.2780 O   0  0  0  0  0  0  0  0  0  0  0  0
    7.4120   27.6670    5.3260 C   0  0  0  0  0  0  0  0  0  0  0  0
    8.5000   28.1080    4.6670 N   0  0  0  0  0  0  0  0  0  0  0  0
    8.6300   27.7410    3.3730 C   0  0  0  0  0  0  0  0  0  0  0  0
    7.5710   27.1990    2.6400 C   0  0  0  0  0  0  0  0  0  0  0  0
    6.5350   26.5770    3.3650 C   0  0  0  0  0  0  0  0  0  0  0  0
    6.3940   26.9270    4.7160 C   0  0  0  0  0  0  0  0  0  0  0  0
    7.8730   26.6530    1.2370 C   0  0  0  0  0  0  0  0  0  0  0  0
    9.0680   25.9140    1.4370 F   0  0  0  0  0  0  0  0  0  0  0  0
    8.0310   27.7940    0.4230 F   0  0  0  0  0  0  0  0  0  0  0  0
    6.7590   25.8520    0.9150 F   0  0  0  0  0  0  0  0  0  0  0  0
   16.0770   23.2848    4.9089 H   0  0  0  0  0  0  0  0  0  0  0  0
   15.3554   23.9019    6.4894 H   0  0  0  0  0  0  0  0  0  0  0  0
   15.2613   25.3893    3.9427 H   0  0  0  0  0  0  0  0  0  0  0  0
   16.4027   21.8271    4.3965 H   0  0  0  0  0  0  0  0  0  0  0  0
   16.6360   20.8421    5.9659 H   0  0  0  0  0  0  0  0  0  0  0  0
   16.0937   19.3040    5.0047 H   0  0  0  0  0  0  0  0  0  0  0  0
   14.4193   20.1624    4.9038 H   0  0  0  0  0  0  0  0  0  0  0  0
   15.1542   18.9878    2.8496 H   0  0  0  0  0  0  0  0  0  0  0  0
   14.7181   20.7249    2.7118 H   0  0  0  0  0  0  0  0  0  0  0  0
   16.4448   20.2296    2.7118 H   0  0  0  0  0  0  0  0  0  0  0  0
   14.0352   22.4490    7.8917 H   0  0  0  0  0  0  0  0  0  0  0  0
   14.7835   20.8576    7.7335 H   0  0  0  0  0  0  0  0  0  0  0  0
   16.7513   22.8409    7.1332 H   0  0  0  0  0  0  0  0  0  0  0  0
   15.8099   23.2212    8.7423 H   0  0  0  0  0  0  0  0  0  0  0  0
   15.6484   20.7362   10.0699 H   0  0  0  0  0  0  0  0  0  0  0  0
   17.3860   19.5671   11.4663 H   0  0  0  0  0  0  0  0  0  0  0  0
   19.7787   19.5692   10.6945 H   0  0  0  0  0  0  0  0  0  0  0  0
   20.5338   21.2562    8.9874 H   0  0  0  0  0  0  0  0  0  0  0  0
   18.8054   22.6606    7.8079 H   0  0  0  0  0  0  0  0  0  0  0  0
   11.9392   24.7172    3.8998 H   0  0  0  0  0  0  0  0  0  0  0  0
    9.8492   23.4027    3.9426 H   0  0  0  0  0  0  0  0  0  0  0  0
    9.8932   25.2395    3.7397 H   0  0  0  0  0  0  0  0  0  0  0  0
   12.0813   23.8955    2.3415 H   0  0  0  0  0  0  0  0  0  0  0  0
   10.4641   23.3683    1.7641 H   0  0  0  0  0  0  0  0  0  0  0  0
   10.8931   25.1126    1.7641 H   0  0  0  0  0  0  0  0  0  0  0  0
   13.0665   25.2901    6.9736 H   0  0  0  0  0  0  0  0  0  0  0  0
   12.3090   26.6190    8.9711 H   0  0  0  0  0  0  0  0  0  0  0  0
    9.9136   27.3552    9.1416 H   0  0  0  0  0  0  0  0  0  0  0  0
    6.9505   26.2847    8.5487 H   0  0  0  0  0  0  0  0  0  0  0  0
    8.9607   25.0165    5.6303 H   0  0  0  0  0  0  0  0  0  0  0  0
    9.6039   27.8736    2.8792 H   0  0  0  0  0  0  0  0  0  0  0  0
    5.8637   25.8462    2.8904 H   0  0  0  0  0  0  0  0  0  0  0  0
    5.5014   26.6257    5.2838 H   0  0  0  0  0  0  0  0  0  0  0  0
  1  2  1  0
  2  3  1  0
  3  4  2  0
  4  5  1  0
  1  6  1  0
  5  6  1  0
  2  7  2  0
  4  8  1  0
  6  9  1  6
  9 10  1  0
 10 11  1  0
  6 12  1  0
 12 13  1  0
 13 14  1  0
 14 15  2  0
 15 16  1  0
 16 17  2  0
 17 18  1  0
 14 19  1  0
 18 19  2  0
  3 20  1  0
 20 21  1  0
 21 22  1  0
 20 23  1  0
 23 24  2  0
 24 25  1  0
 25 26  2  0
 26 27  1  0
 27 28  1  0
 23 29  1  0
 27 29  2  0
 28 30  1  0
 30 31  2  0
 30 32  2  0
 30 33  1  0
 33 34  2  0
 34 35  1  0
 35 36  2  0
 36 37  1  0
 33 38  1  0
 37 38  2  0
 36 39  1  0
 39 40  1  0
 39 41  1  0
 39 42  1  0
  5 43  1  0
  5 44  1  0
  8 45  1  0
  9 46  1  0
  9 47  1  0
 10 48  1  0
 10 49  1  0
 11 50  1  0
 11 51  1  0
 11 52  1  0
 12 53  1  0
 12 54  1  0
 13 55  1  0
 13 56  1  0
 15 57  1  0
 16 58  1  0
 17 59  1  0
 18 60  1  0
 19 61  1  0
 20 62  1  6
 21 63  1  0
 21 64  1  0
 22 65  1  0
 22 66  1  0
 22 67  1  0
 24 68  1  0
 25 69  1  0
 26 70  1  0
 28 71  1  0
 29 72  1  0
 35 73  1  0
 37 74  1  0
 38 75  1  0
M  END
>  <PDBID>  (1) 
1D4S

>  <PDB ID>  (1) 
1D4S

>  <Generic Name>  (1) 
Tipranavir

>  <Brand Name>  (1) 
Aptivus

>  <DrugBank ID>  (1) 
DB00932

>  <ATC Codes>  (1) 
J05AE09

>  <Ligand ID>  (1) 
TPV

>  <Target Name>  (1) 
Pol polyprotein

>  <UniProt ID>  (1) 
Q72874

>  <PDB ID.1>  (1) 
1D4S

>  <Seq. Identity>  (1) 
97%

$$$$
