PDB_DB00328_96
     RDKit          3D

 41 43  0  0  0  0  0  0  0  0999 V2000
   14.6020   52.7860   68.4070 C   0  0  0  0  0  0  0  0  0  0  0  0
   14.9610   53.9030   69.2300 C   0  0  0  0  0  0  0  0  0  0  0  0
   13.9420   54.6920   69.8450 C   0  0  0  0  0  0  0  0  0  0  0  0
   12.5330   54.3880   69.6470 C   0  0  0  0  0  0  0  0  0  0  0  0
   12.1500   53.2790   68.8180 C   0  0  0  0  0  0  0  0  0  0  0  0
   13.1800   52.4700   68.1950 C   0  0  0  0  0  0  0  0  0  0  0  0
   10.2040   54.9080   70.0290 C   0  0  0  0  0  0  0  0  0  0  0  0
   16.4570   53.9400   69.2110 C   0  0  0  0  0  0  0  0  0  0  0  0
   16.8750   52.9080   68.4350 C   0  0  0  0  0  0  0  0  0  0  0  0
   15.9610   51.2250   67.0500 C   0  0  0  0  0  0  0  0  0  0  0  0
   15.3690   49.8700   67.2380 C   0  0  0  0  0  0  0  0  0  0  0  0
   15.2250   49.0180   66.1170 C   0  0  0  0  0  0  0  0  0  0  0  0
   14.6820   47.7210   66.2540 C   0  0  0  0  0  0  0  0  0  0  0  0
   14.2890   47.2650   67.4840 C   0  0  0  0  0  0  0  0  0  0  0  0
   14.4110   48.0850   68.6090 C   0  0  0  0  0  0  0  0  0  0  0  0
   14.9620   49.4150   68.4910 C   0  0  0  0  0  0  0  0  0  0  0  0
   18.3220   52.5930   68.1470 C   0  0  0  0  0  0  0  0  0  0  0  0
   17.3700   54.9770   69.8780 C   0  0  0  0  0  0  0  0  0  0  0  0
   16.9440   55.2690   71.2950 C   0  0  0  0  0  0  0  0  0  0  0  0
   15.8330   52.2030   67.9330 N   0  0  0  0  0  0  0  0  0  0  0  0
   11.5660   55.1700   70.2850 O   0  0  0  0  0  0  0  0  0  0  0  0
   16.5930   51.4670   66.0290 O   0  0  0  0  0  0  0  0  0  0  0  0
   16.0350   54.6240   71.8270 O   0  0  0  0  0  0  0  0  0  0  0  0
   17.5500   56.2320   71.9690 O   0  0  0  0  0  0  0  0  0  0  0  0
   13.7240   45.6720   67.6300 Cl  0  0  0  0  0  0  0  0  0  0  0  0
   14.2272   55.5442   70.4793 H   0  0  0  0  0  0  0  0  0  0  0  0
   11.0870   53.0459   68.6575 H   0  0  0  0  0  0  0  0  0  0  0  0
   12.8973   51.6165   67.5613 H   0  0  0  0  0  0  0  0  0  0  0  0
    9.6651   54.8043   70.9823 H   0  0  0  0  0  0  0  0  0  0  0  0
    9.7727   55.7396   69.4525 H   0  0  0  0  0  0  0  0  0  0  0  0
   10.1120   53.9757   69.4525 H   0  0  0  0  0  0  0  0  0  0  0  0
   15.5406   49.3710   65.1242 H   0  0  0  0  0  0  0  0  0  0  0  0
   14.5746   47.0754   65.3699 H   0  0  0  0  0  0  0  0  0  0  0  0
   14.0849   47.7147   69.5921 H   0  0  0  0  0  0  0  0  0  0  0  0
   15.0590   50.0594   69.3772 H   0  0  0  0  0  0  0  0  0  0  0  0
   18.8671   52.4743   69.0950 H   0  0  0  0  0  0  0  0  0  0  0  0
   18.3859   51.6599   67.5680 H   0  0  0  0  0  0  0  0  0  0  0  0
   18.7680   53.4151   67.5680 H   0  0  0  0  0  0  0  0  0  0  0  0
   18.3998   54.5906   69.8882 H   0  0  0  0  0  0  0  0  0  0  0  0
   17.3042   55.9116   69.3016 H   0  0  0  0  0  0  0  0  0  0  0  0
   17.2779   56.4316   72.8997 H   0  0  0  0  0  0  0  0  0  0  0  0
  1  2  1  0
  2  3  2  0
  3  4  1  0
  4  5  2  0
  1  6  2  0
  5  6  1  0
  2  8  1  0
  8  9  2  0
 10 11  1  0
 11 12  2  0
 12 13  1  0
 13 14  2  0
 14 15  1  0
 11 16  1  0
 15 16  2  0
  9 17  1  0
  8 18  1  0
 18 19  1  0
  1 20  1  0
  9 20  1  0
 10 20  1  0
  4 21  1  0
  7 21  1  0
 10 22  2  0
 19 23  2  0
 19 24  1  0
 14 25  1  0
  3 26  1  0
  5 27  1  0
  6 28  1  0
  7 29  1  0
  7 30  1  0
  7 31  1  0
 12 32  1  0
 13 33  1  0
 15 34  1  0
 16 35  1  0
 17 36  1  0
 17 37  1  0
 17 38  1  0
 18 39  1  0
 18 40  1  0
 24 41  1  0
M  END
$$$$
