PDB_DB00864_97
     RDKit          3D

126129  0  0  0  0  0  0  0  0999 V2000
   55.6910   42.8170   53.5550 C   0  0  0  0  0  0  0  0  0  0  0  0
   55.4390   44.0610   52.6960 C   0  0  2  0  0  0  0  0  0  0  0  0
   54.8500   43.6270   51.3530 C   0  0  0  0  0  0  0  0  0  0  0  0
   55.8590   42.9500   50.4540 C   0  0  0  0  0  0  0  0  0  0  0  0
   56.9510   43.9510   50.1620 C   0  0  0  0  0  0  0  0  0  0  0  0
   57.5790   44.5350   51.4500 C   0  0  0  0  0  0  0  0  0  0  0  0
   56.5360   46.1350   53.0370 C   0  0  0  0  0  0  0  0  0  0  0  0
   57.6860   47.1050   52.7800 C   0  0  0  0  0  0  0  0  0  0  0  0
   58.9250   47.1330   53.7560 C   0  0  1  0  0  0  0  0  0  0  0  0
   58.6760   46.7620   55.2820 C   0  0  1  0  0  0  0  0  0  0  0  0
   59.9120   46.2350   56.0430 C   0  0  0  0  0  0  0  0  0  0  0  0
   60.8090   45.3210   55.2370 C   0  0  1  0  0  0  0  0  0  0  0  0
   61.0700   45.9610   53.8180 C   0  0  1  0  0  0  0  0  0  0  0  0
   61.9140   45.2000   52.7540 C   0  0  2  0  0  0  0  0  0  0  0  0
   61.4840   43.6960   52.6860 C   0  0  0  0  0  0  0  0  0  0  0  0
   62.1490   42.7870   51.6070 C   0  0  2  0  0  0  0  0  0  0  0  0
   63.4790   42.1220   52.0800 C   0  0  0  0  0  0  0  0  0  0  0  0
   63.2920   40.9240   53.0290 C   0  0  0  0  0  0  0  0  0  0  0  0
   63.3370   41.1340   54.3780 C   0  0  0  0  0  0  0  0  0  0  0  0
   63.0720   40.2370   55.5620 C   0  0  2  0  0  0  0  0  0  0  0  0
   61.6350   40.4210   55.9020 C   0  0  0  0  0  0  0  0  0  0  0  0
   60.7250   39.5650   55.0480 C   0  0  0  0  0  0  0  0  0  0  0  0
   59.2040   39.8000   55.2270 C   0  0  1  0  0  0  0  0  0  0  0  0
   58.6820   40.9630   54.3530 C   0  0  2  0  0  0  0  0  0  0  0  0
   57.3100   41.4720   54.7660 C   0  0  1  0  0  0  0  0  0  0  0  0
   57.1560   41.8060   56.2380 C   0  0  0  0  0  0  0  0  0  0  0  0
   56.2790   41.1920   57.0560 C   0  0  0  0  0  0  0  0  0  0  0  0
   56.1910   41.4280   58.5570 C   0  0  1  0  0  0  0  0  0  0  0  0
   54.7080   41.2840   58.9690 C   0  0  0  0  0  0  0  0  0  0  0  0
   54.4610   41.2790   60.4760 C   0  0  2  0  0  0  0  0  0  0  0  0
   55.3410   40.2350   61.1720 C   0  0  1  0  0  0  0  0  0  0  0  0
   56.8290   40.4590   60.8540 C   0  0  0  0  0  0  0  0  0  0  0  0
   57.0850   40.4470   59.3420 C   0  0  0  0  0  0  0  0  0  0  0  0
   58.0200   47.8980   56.1140 C   0  0  0  0  0  0  0  0  0  0  0  0
   62.2720   43.4460   50.2080 C   0  0  0  0  0  0  0  0  0  0  0  0
   63.0140   39.5700   52.3680 C   0  0  0  0  0  0  0  0  0  0  0  0
   63.9130   40.6410   56.7710 C   0  0  0  0  0  0  0  0  0  0  0  0
   65.3780   40.5440   56.4920 C   0  0  0  0  0  0  0  0  0  0  0  0
   66.0830   39.4820   56.8910 C   0  0  0  0  0  0  0  0  0  0  0  0
   58.6570   40.5960   52.8680 C   0  0  0  0  0  0  0  0  0  0  0  0
   57.9900   42.9640   56.7030 C   0  0  0  0  0  0  0  0  0  0  0  0
   61.9020   44.3310   57.1530 C   0  0  0  0  0  0  0  0  0  0  0  0
   64.0190   46.4060   52.4510 C   0  0  0  0  0  0  0  0  0  0  0  0
   52.2620   42.1430   60.8690 C   0  0  0  0  0  0  0  0  0  0  0  0
   56.5430   44.9450   52.4030 N   0  0  0  0  0  0  0  0  0  0  0  0
   56.9590   42.6730   54.0190 O   0  0  0  0  0  0  0  0  0  0  0  0
   54.8360   41.9800   53.7340 O   0  0  0  0  0  0  0  0  0  0  0  0
   55.6410   46.4860   53.8070 O   0  0  0  0  0  0  0  0  0  0  0  0
   57.6620   47.8340   51.7780 O   0  0  0  0  0  0  0  0  0  0  0  0
   59.8070   46.1530   53.2150 O   0  0  0  0  0  0  0  0  0  0  0  0
   59.4630   48.4770   53.6730 O   0  0  0  0  0  0  0  0  0  0  0  0
   61.9870   45.1670   56.0470 O   0  0  0  0  0  0  0  0  0  0  0  0
   63.3190   45.3430   53.0540 O   0  0  0  0  0  0  0  0  0  0  0  0
   61.2270   41.1890   56.7770 O   0  0  0  0  0  0  0  0  0  0  0  0
   58.6420   38.5570   54.7650 O   0  0  0  0  0  0  0  0  0  0  0  0
   53.0860   40.9980   60.7120 O   0  0  0  0  0  0  0  0  0  0  0  0
   55.1390   40.4070   62.5470 O   0  0  0  0  0  0  0  0  0  0  0  0
   54.7705   44.6554   53.3361 H   0  0  0  0  0  0  0  0  0  0  0  0
   54.0243   42.9255   51.5432 H   0  0  0  0  0  0  0  0  0  0  0  0
   54.5077   44.5356   50.8360 H   0  0  0  0  0  0  0  0  0  0  0  0
   56.2820   42.0698   50.9603 H   0  0  0  0  0  0  0  0  0  0  0  0
   55.3825   42.6137   49.5214 H   0  0  0  0  0  0  0  0  0  0  0  0
   57.7399   43.4527   49.5795 H   0  0  0  0  0  0  0  0  0  0  0  0
   56.5002   44.7839   49.6025 H   0  0  0  0  0  0  0  0  0  0  0  0
   58.2155   43.7698   51.9183 H   0  0  0  0  0  0  0  0  0  0  0  0
   58.1741   45.4195   51.1787 H   0  0  0  0  0  0  0  0  0  0  0  0
   57.9623   45.9300   55.1903 H   0  0  0  0  0  0  0  0  0  0  0  0
   60.5083   47.1001   56.3687 H   0  0  0  0  0  0  0  0  0  0  0  0
   59.5280   45.6338   56.8803 H   0  0  0  0  0  0  0  0  0  0  0  0
   60.3794   44.3316   55.0211 H   0  0  0  0  0  0  0  0  0  0  0  0
   61.6740   46.8466   54.0647 H   0  0  0  0  0  0  0  0  0  0  0  0
   61.7309   45.6365   51.7611 H   0  0  0  0  0  0  0  0  0  0  0  0
   61.7020   43.2498   53.6675 H   0  0  0  0  0  0  0  0  0  0  0  0
   60.4229   43.7288   52.3981 H   0  0  0  0  0  0  0  0  0  0  0  0
   61.4327   41.9627   51.4750 H   0  0  0  0  0  0  0  0  0  0  0  0
   64.0242   41.7737   51.1904 H   0  0  0  0  0  0  0  0  0  0  0  0
   64.0270   42.8882   52.6479 H   0  0  0  0  0  0  0  0  0  0  0  0
   63.6228   42.1592   54.6560 H   0  0  0  0  0  0  0  0  0  0  0  0
   63.3255   39.1961   55.3126 H   0  0  0  0  0  0  0  0  0  0  0  0
   60.9733   39.7581   53.9939 H   0  0  0  0  0  0  0  0  0  0  0  0
   60.9044   38.5289   55.3710 H   0  0  0  0  0  0  0  0  0  0  0  0
   58.9422   40.0706   56.2606 H   0  0  0  0  0  0  0  0  0  0  0  0
   59.4020   41.7780   54.5186 H   0  0  0  0  0  0  0  0  0  0  0  0
   56.6425   40.6262   54.5443 H   0  0  0  0  0  0  0  0  0  0  0  0
   55.5789   40.4711   56.6086 H   0  0  0  0  0  0  0  0  0  0  0  0
   56.5580   42.4368   58.7972 H   0  0  0  0  0  0  0  0  0  0  0  0
   54.1483   42.1246   58.5330 H   0  0  0  0  0  0  0  0  0  0  0  0
   54.3765   40.3033   58.5970 H   0  0  0  0  0  0  0  0  0  0  0  0
   54.7203   42.2649   60.8892 H   0  0  0  0  0  0  0  0  0  0  0  0
   55.0758   39.2237   60.8302 H   0  0  0  0  0  0  0  0  0  0  0  0
   57.1398   41.4321   61.2621 H   0  0  0  0  0  0  0  0  0  0  0  0
   57.4077   39.6422   61.3100 H   0  0  0  0  0  0  0  0  0  0  0  0
   56.8993   39.4301   58.9659 H   0  0  0  0  0  0  0  0  0  0  0  0
   58.1265   40.7660   59.1885 H   0  0  0  0  0  0  0  0  0  0  0  0
   58.1429   47.6851   57.1862 H   0  0  0  0  0  0  0  0  0  0  0  0
   58.5040   48.8558   55.8725 H   0  0  0  0  0  0  0  0  0  0  0  0
   56.9485   47.9575   55.8725 H   0  0  0  0  0  0  0  0  0  0  0  0
   62.4727   44.5211   50.3255 H   0  0  0  0  0  0  0  0  0  0  0  0
   63.0982   42.9773   49.6533 H   0  0  0  0  0  0  0  0  0  0  0  0
   61.3324   43.3069   49.6533 H   0  0  0  0  0  0  0  0  0  0  0  0
   62.8575   38.8077   53.1454 H   0  0  0  0  0  0  0  0  0  0  0  0
   62.1127   39.6457   51.7420 H   0  0  0  0  0  0  0  0  0  0  0  0
   63.8723   39.2845   51.7420 H   0  0  0  0  0  0  0  0  0  0  0  0
   63.6709   41.6796   57.0408 H   0  0  0  0  0  0  0  0  0  0  0  0
   63.6777   39.9506   57.5944 H   0  0  0  0  0  0  0  0  0  0  0  0
   65.8824   41.3581   55.9508 H   0  0  0  0  0  0  0  0  0  0  0  0
   67.1607   39.4256   56.6779 H   0  0  0  0  0  0  0  0  0  0  0  0
   65.5859   38.6638   57.4327 H   0  0  0  0  0  0  0  0  0  0  0  0
   58.5826   39.5037   52.7615 H   0  0  0  0  0  0  0  0  0  0  0  0
   57.7891   41.0713   52.3874 H   0  0  0  0  0  0  0  0  0  0  0  0
   59.5813   40.9492   52.3874 H   0  0  0  0  0  0  0  0  0  0  0  0
   58.0060   42.9862   57.8027 H   0  0  0  0  0  0  0  0  0  0  0  0
   59.0164   42.8524   56.3236 H   0  0  0  0  0  0  0  0  0  0  0  0
   57.5588   43.9021   56.3236 H   0  0  0  0  0  0  0  0  0  0  0  0
   61.9631   44.9319   58.0724 H   0  0  0  0  0  0  0  0  0  0  0  0
   60.9443   43.7904   57.1313 H   0  0  0  0  0  0  0  0  0  0  0  0
   62.7313   43.6087   57.1313 H   0  0  0  0  0  0  0  0  0  0  0  0
   64.4454   47.0536   53.2312 H   0  0  0  0  0  0  0  0  0  0  0  0
   64.8293   46.0034   51.8254 H   0  0  0  0  0  0  0  0  0  0  0  0
   63.3290   46.9913   51.8254 H   0  0  0  0  0  0  0  0  0  0  0  0
   52.1161   42.3457   61.9403 H   0  0  0  0  0  0  0  0  0  0  0  0
   52.7446   43.0100   60.3942 H   0  0  0  0  0  0  0  0  0  0  0  0
   51.2866   41.9607   60.3942 H   0  0  0  0  0  0  0  0  0  0  0  0
   59.6053   48.8325   54.5860 H   0  0  0  0  0  0  0  0  0  0  0  0
   58.3899   37.9994   55.5432 H   0  0  0  0  0  0  0  0  0  0  0  0
   55.7892   39.8534   63.0479 H   0  0  0  0  0  0  0  0  0  0  0  0
  1  2  1  0
  2  3  1  0
  3  4  1  0
  4  5  1  0
  5  6  1  0
  7  8  1  0
  8  9  1  0
  9 10  1  0
 10 11  1  0
 11 12  1  0
 12 13  1  0
 13 14  1  0
 14 15  1  0
 15 16  1  0
 16 17  1  0
 17 18  1  0
 18 19  2  0
 19 20  1  0
 20 21  1  0
 21 22  1  0
 22 23  1  0
 23 24  1  0
 24 25  1  0
 25 26  1  0
 26 27  2  0
 27 28  1  0
 28 29  1  0
 29 30  1  0
 30 31  1  0
 31 32  1  0
 28 33  1  0
 32 33  1  0
 10 34  1  0
 16 35  1  0
 18 36  1  0
 20 37  1  0
 37 38  1  0
 38 39  2  3
 24 40  1  0
 26 41  1  0
  2 45  1  0
  6 45  1  0
  7 45  1  0
  1 46  1  0
 25 46  1  0
  1 47  2  0
  7 48  2  0
  8 49  2  0
  9 50  1  0
 13 50  1  0
  9 51  1  1
 12 52  1  0
 42 52  1  0
 14 53  1  0
 43 53  1  0
 21 54  2  0
 23 55  1  0
 30 56  1  0
 44 56  1  0
 31 57  1  0
  2 58  1  1
  3 59  1  0
  3 60  1  0
  4 61  1  0
  4 62  1  0
  5 63  1  0
  5 64  1  0
  6 65  1  0
  6 66  1  0
 10 67  1  6
 11 68  1  0
 11 69  1  0
 12 70  1  6
 13 71  1  1
 14 72  1  6
 15 73  1  0
 15 74  1  0
 16 75  1  6
 17 76  1  0
 17 77  1  0
 19 78  1  0
 20 79  1  6
 22 80  1  0
 22 81  1  0
 23 82  1  1
 24 83  1  6
 25 84  1  6
 27 85  1  0
 28 86  1  6
 29 87  1  0
 29 88  1  0
 30 89  1  1
 31 90  1  6
 32 91  1  0
 32 92  1  0
 33 93  1  0
 33 94  1  0
 34 95  1  0
 34 96  1  0
 34 97  1  0
 35 98  1  0
 35 99  1  0
 35100  1  0
 36101  1  0
 36102  1  0
 36103  1  0
 37104  1  0
 37105  1  0
 38106  1  0
 39107  1  0
 39108  1  0
 40109  1  0
 40110  1  0
 40111  1  0
 41112  1  0
 41113  1  0
 41114  1  0
 42115  1  0
 42116  1  0
 42117  1  0
 43118  1  0
 43119  1  0
 43120  1  0
 44121  1  0
 44122  1  0
 44123  1  0
 51124  1  0
 55125  1  0
 57126  1  0
M  END
>  <PDBID>  (1) 
1TCO

>  <PDB ID>  (1) 
1TCO

>  <Generic Name>  (1) 
Tacrolimus

>  <Brand Name>  (1) 
Ach-tacrolimus#Advagraf#Astagraf XL#Envarsus XR#Hecoria#Prograf#Protopic#Ran-tacrolimus#Sandoz Tacrolimus#Tacrolimus

>  <DrugBank ID>  (1) 
DB00864

>  <ATC Codes>  (1) 
D11AH01#L04AD02

>  <Ligand ID>  (1) 
FK5

>  <Target Name>  (1) 
Peptidyl-prolyl cis-trans isomerase FKBP1A

>  <UniProt ID>  (1) 
P62942

>  <PDB ID.1>  (1) 
1TCO

>  <Seq. Identity>  (1) 
99%

$$$$
