PDB_DB01268_97
     RDKit          3D

104108  0  0  0  0  0  0  0  0999 V2000
  -12.5570   70.4800  -38.3840 C   0  0  0  0  0  0  0  0  0  0  0  0
  -17.2200   78.9120  -37.0410 C   0  0  0  0  0  0  0  0  0  0  0  0
  -15.9490   78.6880  -37.6290 C   0  0  0  0  0  0  0  0  0  0  0  0
  -17.4610   76.4830  -36.5450 C   0  0  0  0  0  0  0  0  0  0  0  0
  -15.7520   71.3360  -36.5950 C   0  0  0  0  0  0  0  0  0  0  0  0
  -17.9580   77.8080  -36.5030 C   0  0  0  0  0  0  0  0  0  0  0  0
  -16.2070   76.2720  -37.1310 C   0  0  0  0  0  0  0  0  0  0  0  0
  -15.3940   75.0750  -37.3600 C   0  0  0  0  0  0  0  0  0  0  0  0
  -14.1310   75.5470  -38.0500 C   0  0  0  0  0  0  0  0  0  0  0  0
  -14.9040   68.8820  -36.6820 C   0  0  0  0  0  0  0  0  0  0  0  0
  -17.0050   71.1090  -35.8030 C   0  0  0  0  0  0  0  0  0  0  0  0
  -15.8450   73.8610  -36.9720 C   0  0  0  0  0  0  0  0  0  0  0  0
  -13.8060   70.9660  -37.7090 C   0  0  0  0  0  0  0  0  0  0  0  0
  -15.4740   77.3620  -37.6560 C   0  0  0  0  0  0  0  0  0  0  0  0
  -15.2880   72.5530  -37.0820 C   0  0  0  0  0  0  0  0  0  0  0  0
  -14.8080   70.3190  -36.9890 C   0  0  0  0  0  0  0  0  0  0  0  0
  -14.1260   72.3020  -37.7440 N   0  0  0  0  0  0  0  0  0  0  0  0
  -14.2720   76.9180  -38.1800 N   0  0  0  0  0  0  0  0  0  0  0  0
  -15.2650   68.5790  -35.3700 N   0  0  0  0  0  0  0  0  0  0  0  0
  -13.1940   74.8890  -38.4210 O   0  0  0  0  0  0  0  0  0  0  0  0
  -14.6630   68.0270  -37.5350 O   0  0  0  0  0  0  0  0  0  0  0  0
  -19.1470   78.0170  -35.9440 F   0  0  0  0  0  0  0  0  0  0  0  0
  -17.7370  130.0680  -17.0090 C   0  0  0  0  0  0  0  0  0  0  0  0
  -20.4890  120.9180  -18.5280 C   0  0  0  0  0  0  0  0  0  0  0  0
  -19.3450  121.4080  -17.8510 C   0  0  0  0  0  0  0  0  0  0  0  0
  -21.1730  123.2260  -19.1580 C   0  0  0  0  0  0  0  0  0  0  0  0
  -20.4130  128.6320  -19.2180 C   0  0  0  0  0  0  0  0  0  0  0  0
  -21.3830  121.8250  -19.1730 C   0  0  0  0  0  0  0  0  0  0  0  0
  -20.0360  123.7110  -18.4800 C   0  0  0  0  0  0  0  0  0  0  0  0
  -19.5010  125.0580  -18.2430 C   0  0  0  0  0  0  0  0  0  0  0  0
  -18.2390  124.8800  -17.4330 C   0  0  0  0  0  0  0  0  0  0  0  0
  -20.0330  131.2080  -19.1250 C   0  0  0  0  0  0  0  0  0  0  0  0
  -21.5400  128.6070  -20.2050 C   0  0  0  0  0  0  0  0  0  0  0  0
  -20.1360  126.1440  -18.7160 C   0  0  0  0  0  0  0  0  0  0  0  0
  -18.7610  129.3700  -17.8390 C   0  0  0  0  0  0  0  0  0  0  0  0
  -19.1430  122.8050  -17.8440 C   0  0  0  0  0  0  0  0  0  0  0  0
  -19.8360  127.5330  -18.6020 C   0  0  0  0  0  0  0  0  0  0  0  0
  -19.7320  129.8160  -18.7310 C   0  0  0  0  0  0  0  0  0  0  0  0
  -18.8530  128.0040  -17.7860 N   0  0  0  0  0  0  0  0  0  0  0  0
  -18.1060  123.4940  -17.2450 N   0  0  0  0  0  0  0  0  0  0  0  0
  -20.0350  132.1260  -18.0960 N   0  0  0  0  0  0  0  0  0  0  0  0
  -17.4900  125.7510  -17.0230 O   0  0  0  0  0  0  0  0  0  0  0  0
  -20.2650  131.5080  -20.3040 O   0  0  0  0  0  0  0  0  0  0  0  0
  -22.4530  121.3470  -19.8120 F   0  0  0  0  0  0  0  0  0  0  0  0
  -11.8171   70.1921  -37.6227 H   0  0  0  0  0  0  0  0  0  0  0  0
  -12.7949   69.6088  -39.0121 H   0  0  0  0  0  0  0  0  0  0  0  0
  -12.1435   71.2828  -39.0121 H   0  0  0  0  0  0  0  0  0  0  0  0
  -17.0693   79.6262  -36.2181 H   0  0  0  0  0  0  0  0  0  0  0  0
  -17.8385   79.2453  -37.8874 H   0  0  0  0  0  0  0  0  0  0  0  0
  -15.9992   79.0422  -38.6692 H   0  0  0  0  0  0  0  0  0  0  0  0
  -15.2405   79.2286  -36.9842 H   0  0  0  0  0  0  0  0  0  0  0  0
  -17.4027   76.1219  -35.5076 H   0  0  0  0  0  0  0  0  0  0  0  0
  -18.1645   75.9450  -37.1975 H   0  0  0  0  0  0  0  0  0  0  0  0
  -16.3127   71.1765  -37.5278 H   0  0  0  0  0  0  0  0  0  0  0  0
  -18.4432   77.6569  -37.4786 H   0  0  0  0  0  0  0  0  0  0  0  0
  -15.7259   76.4114  -36.1517 H   0  0  0  0  0  0  0  0  0  0  0  0
  -15.8762   74.9347  -38.3387 H   0  0  0  0  0  0  0  0  0  0  0  0
  -14.6125   75.4047  -39.0287 H   0  0  0  0  0  0  0  0  0  0  0  0
  -13.8429   68.8730  -36.3921 H   0  0  0  0  0  0  0  0  0  0  0  0
  -16.7724   71.1511  -34.7287 H   0  0  0  0  0  0  0  0  0  0  0  0
  -17.7410   71.8884  -36.0497 H   0  0  0  0  0  0  0  0  0  0  0  0
  -17.4207   70.1209  -36.0497 H   0  0  0  0  0  0  0  0  0  0  0  0
  -16.0093   73.9808  -35.8910 H   0  0  0  0  0  0  0  0  0  0  0  0
  -16.5896   73.7450  -37.7733 H   0  0  0  0  0  0  0  0  0  0  0  0
  -14.3710   70.8059  -38.6391 H   0  0  0  0  0  0  0  0  0  0  0  0
  -14.9969   77.5130  -36.6764 H   0  0  0  0  0  0  0  0  0  0  0  0
  -15.8479   72.3930  -38.0152 H   0  0  0  0  0  0  0  0  0  0  0  0
  -14.2454   70.4804  -36.0576 H   0  0  0  0  0  0  0  0  0  0  0  0
  -13.3664   72.8399  -37.3030 H   0  0  0  0  0  0  0  0  0  0  0  0
  -13.4991   77.3816  -37.6814 H   0  0  0  0  0  0  0  0  0  0  0  0
  -14.6539   69.0919  -34.7186 H   0  0  0  0  0  0  0  0  0  0  0  0
  -16.2446   68.8548  -35.2110 H   0  0  0  0  0  0  0  0  0  0  0  0
  -12.7016   74.5432  -37.6348 H   0  0  0  0  0  0  0  0  0  0  0  0
  -14.4230   67.1757  -37.0903 H   0  0  0  0  0  0  0  0  0  0  0  0
  -17.9621  129.9145  -15.9433 H   0  0  0  0  0  0  0  0  0  0  0  0
  -16.7410  129.6600  -17.2358 H   0  0  0  0  0  0  0  0  0  0  0  0
  -17.7527  131.1443  -17.2358 H   0  0  0  0  0  0  0  0  0  0  0  0
  -20.1268  120.2256  -19.3022 H   0  0  0  0  0  0  0  0  0  0  0  0
  -21.1004  120.4968  -17.7163 H   0  0  0  0  0  0  0  0  0  0  0  0
  -19.4156  121.0796  -16.8035 H   0  0  0  0  0  0  0  0  0  0  0  0
  -18.4906  121.0031  -18.4131 H   0  0  0  0  0  0  0  0  0  0  0  0
  -21.0984  123.5582  -20.2040 H   0  0  0  0  0  0  0  0  0  0  0  0
  -22.0265  123.6290  -18.5931 H   0  0  0  0  0  0  0  0  0  0  0  0
  -21.1367  128.7141  -18.3937 H   0  0  0  0  0  0  0  0  0  0  0  0
  -21.9716  121.9033  -18.2470 H   0  0  0  0  0  0  0  0  0  0  0  0
  -19.4524  123.6428  -19.4099 H   0  0  0  0  0  0  0  0  0  0  0  0
  -20.0870  125.1274  -17.3147 H   0  0  0  0  0  0  0  0  0  0  0  0
  -18.8250  124.9497  -16.5047 H   0  0  0  0  0  0  0  0  0  0  0  0
  -21.1049  131.0225  -18.9616 H   0  0  0  0  0  0  0  0  0  0  0  0
  -22.4988  128.5857  -19.6663 H   0  0  0  0  0  0  0  0  0  0  0  0
  -21.4942  129.5064  -20.8367 H   0  0  0  0  0  0  0  0  0  0  0  0
  -21.4544  127.7105  -20.8367 H   0  0  0  0  0  0  0  0  0  0  0  0
  -20.1747  125.9726  -19.8019 H   0  0  0  0  0  0  0  0  0  0  0  0
  -20.9711  126.1305  -18.0001 H   0  0  0  0  0  0  0  0  0  0  0  0
  -19.4836  129.4482  -17.0133 H   0  0  0  0  0  0  0  0  0  0  0  0
  -18.5612  122.7255  -18.7741 H   0  0  0  0  0  0  0  0  0  0  0  0
  -20.5544  127.6202  -17.7736 H   0  0  0  0  0  0  0  0  0  0  0  0
  -19.0083  129.7390  -19.5558 H   0  0  0  0  0  0  0  0  0  0  0  0
  -17.9530  127.5973  -18.0785 H   0  0  0  0  0  0  0  0  0  0  0  0
  -17.2145  123.1834  -17.6569 H   0  0  0  0  0  0  0  0  0  0  0  0
  -20.0339  131.6299  -17.1933 H   0  0  0  0  0  0  0  0  0  0  0  0
  -19.1953  132.7187  -18.1630 H   0  0  0  0  0  0  0  0  0  0  0  0
  -17.4919  125.7488  -16.0330 H   0  0  0  0  0  0  0  0  0  0  0  0
  -20.8704  132.2908  -20.3323 H   0  0  0  0  0  0  0  0  0  0  0  0
  2  3  1  0
  2  6  1  0
  4  6  1  0
  4  7  1  0
  7  8  1  0
  8  9  1  0
  5 11  1  0
  8 12  1  0
  1 13  1  0
  3 14  1  0
  7 14  1  0
  5 15  1  0
 12 15  1  0
  5 16  1  0
 10 16  1  0
 13 16  1  0
 13 17  1  0
 15 17  1  0
  9 18  1  0
 14 18  1  0
 10 19  1  0
  9 20  1  0
 10 21  1  0
  6 22  1  0
 24 25  1  0
 24 28  1  0
 26 28  1  0
 26 29  1  0
 29 30  1  0
 30 31  1  0
 27 33  1  0
 30 34  1  0
 23 35  1  0
 25 36  1  0
 29 36  1  0
 27 37  1  0
 34 37  1  0
 27 38  1  0
 32 38  1  0
 35 38  1  0
 35 39  1  0
 37 39  1  0
 31 40  1  0
 36 40  1  0
 32 41  1  0
 31 42  1  0
 32 43  1  0
 28 44  1  0
  1 45  1  0
  1 46  1  0
  1 47  1  0
  2 48  1  0
  2 49  1  0
  3 50  1  0
  3 51  1  0
  4 52  1  0
  4 53  1  0
  5 54  1  0
  6 55  1  0
  7 56  1  0
  8 57  1  0
  9 58  1  0
 10 59  1  0
 11 60  1  0
 11 61  1  0
 11 62  1  0
 12 63  1  0
 12 64  1  0
 13 65  1  0
 14 66  1  0
 15 67  1  0
 16 68  1  0
 17 69  1  0
 18 70  1  0
 19 71  1  0
 19 72  1  0
 20 73  1  0
 21 74  1  0
 23 75  1  0
 23 76  1  0
 23 77  1  0
 24 78  1  0
 24 79  1  0
 25 80  1  0
 25 81  1  0
 26 82  1  0
 26 83  1  0
 27 84  1  0
 28 85  1  0
 29 86  1  0
 30 87  1  0
 31 88  1  0
 32 89  1  0
 33 90  1  0
 33 91  1  0
 33 92  1  0
 34 93  1  0
 34 94  1  0
 35 95  1  0
 36 96  1  0
 37 97  1  0
 38 98  1  0
 39 99  1  0
 40100  1  0
 41101  1  0
 41102  1  0
 42103  1  0
 43104  1  0
M  END
>  <PDBID>  (1) 
3G0F

>  <PDB ID>  (1) 
3G0F

>  <Generic Name>  (1) 
Sunitinib

>  <Brand Name>  (1) 
Sutent

>  <DrugBank ID>  (1) 
DB01268

>  <ATC Codes>  (1) 
L01XE04

>  <Ligand ID>  (1) 
B49

>  <Target Name>  (1) 
Vascular endothelial growth factor receptor 3

>  <UniProt ID>  (1) 
P35916

>  <PDB ID.1>  (1) 
3G0F

>  <Seq. Identity>  (1) 
41%

$$$$
