PDB_DB00685_97
     RDKit          3D

126134  0  0  0  0  0  0  0  0999 V2000
    4.1640  132.9530  232.6190 C   0  0  0  0  0  0  0  0  0  0  0  0
    5.4130  132.6910  232.0740 C   0  0  0  0  0  0  0  0  0  0  0  0
    6.5540  133.1470  232.7080 C   0  0  0  0  0  0  0  0  0  0  0  0
    7.7250  132.9010  232.1940 F   0  0  0  0  0  0  0  0  0  0  0  0
    6.4460  133.8640  233.8910 C   0  0  0  0  0  0  0  0  0  0  0  0
    5.1990  134.1220  234.4340 C   0  0  0  0  0  0  0  0  0  0  0  0
    5.1020  134.8220  235.5860 F   0  0  0  0  0  0  0  0  0  0  0  0
    4.0480  133.6620  233.7990 C   0  0  0  0  0  0  0  0  0  0  0  0
    2.8060  133.9040  234.2920 N   0  0  0  0  0  0  0  0  0  0  0  0
    2.0640  132.8220  234.5550 C   0  0  0  0  0  0  0  0  0  0  0  0
    2.5700  131.6000  234.3450 N   0  0  0  0  0  0  0  0  0  0  0  0
    1.8800  130.4710  234.5750 C   0  0  0  0  0  0  0  0  0  0  0  0
    2.6010  129.2340  234.3000 N   0  0  0  0  0  0  0  0  0  0  0  0
    4.0320  129.2650  234.2220 C   0  0  0  0  0  0  0  0  0  0  0  0
    4.3710  127.8900  233.7580 C   0  0  1  0  0  0  0  0  0  0  0  0
    4.2840  126.8120  234.7800 C   0  0  2  0  0  0  0  0  0  0  0  0
    5.1190  125.5940  234.5600 N   0  0  0  0  0  0  0  0  0  0  0  0
    3.1400  127.0380  233.8370 C   0  0  1  0  0  0  0  0  0  0  0  0
    2.0030  127.9150  234.2770 C   0  0  0  0  0  0  0  0  0  0  0  0
    0.5940  130.5570  235.0740 C   0  0  0  0  0  0  0  0  0  0  0  0
    0.0350  131.8160  235.3090 C   0  0  0  0  0  0  0  0  0  0  0  0
    0.7770  132.9620  235.0470 C   0  0  0  0  0  0  0  0  0  0  0  0
    0.2590  134.2380  235.2680 C   0  0  0  0  0  0  0  0  0  0  0  0
    1.0640  135.3470  234.9770 C   0  0  0  0  0  0  0  0  0  0  0  0
    2.3480  135.1440  234.4830 C   0  0  0  0  0  0  0  0  0  0  0  0
    0.6180  136.7720  235.1650 C   0  0  0  0  0  0  0  0  0  0  0  0
   -0.5170  137.0160  235.6080 O   0  0  0  0  0  0  0  0  0  0  0  0
    1.3990  137.7080  234.8810 O   0  0  0  0  0  0  0  0  0  0  0  0
   -0.8830  134.3280  235.7030 O   0  0  0  0  0  0  0  0  0  0  0  0
   -0.1270  129.4710  235.3250 F   0  0  0  0  0  0  0  0  0  0  0  0
    3.3540  132.6290  232.1660 H   0  0  0  0  0  0  0  0  0  0  0  0
    5.4870  132.1840  231.2360 H   0  0  0  0  0  0  0  0  0  0  0  0
    7.2350  134.1790  234.3320 H   0  0  0  0  0  0  0  0  0  0  0  0
    4.4210  129.4150  235.1240 H   0  0  0  0  0  0  0  0  0  0  0  0
    4.3430  129.9350  233.5990 H   0  0  0  0  0  0  0  0  0  0  0  0
    4.8830  127.7300  232.9190 H   0  0  0  0  0  0  0  0  0  0  0  0
    4.1480  127.1230  235.6800 H   0  0  0  0  0  0  0  0  0  0  0  0
    5.7550  125.5320  235.2250 H   0  0  0  0  0  0  0  0  0  0  0  0
    5.5370  125.6510  233.7400 H   0  0  0  0  0  0  0  0  0  0  0  0
    3.0180  126.3440  233.1320 H   0  0  0  0  0  0  0  0  0  0  0  0
    1.7290  127.6500  235.1810 H   0  0  0  0  0  0  0  0  0  0  0  0
    1.2330  127.8720  233.6450 H   0  0  0  0  0  0  0  0  0  0  0  0
   -0.8820  131.8870  235.6600 H   0  0  0  0  0  0  0  0  0  0  0  0
    2.9220  135.9160  234.2760 H   0  0  0  0  0  0  0  0  0  0  0  0
  -10.5440  134.0710  223.4320 C   0  0  0  0  0  0  0  0  0  0  0  0
  -11.8290  133.8720  223.9090 C   0  0  0  0  0  0  0  0  0  0  0  0
  -12.9080  134.3920  223.2240 C   0  0  0  0  0  0  0  0  0  0  0  0
  -14.1120  134.2010  223.6790 F   0  0  0  0  0  0  0  0  0  0  0  0
  -12.7050  135.1160  222.0560 C   0  0  0  0  0  0  0  0  0  0  0  0
  -11.4210  135.3130  221.5820 C   0  0  0  0  0  0  0  0  0  0  0  0
  -11.2170  136.0170  220.4430 F   0  0  0  0  0  0  0  0  0  0  0  0
  -10.3360  134.7890  222.2760 C   0  0  0  0  0  0  0  0  0  0  0  0
   -9.0740  134.9730  221.8270 N   0  0  0  0  0  0  0  0  0  0  0  0
   -8.4420  133.8590  221.4330 C   0  0  0  0  0  0  0  0  0  0  0  0
   -9.0590  132.6640  221.4920 N   0  0  0  0  0  0  0  0  0  0  0  0
   -8.4640  131.5150  221.1110 C   0  0  0  0  0  0  0  0  0  0  0  0
   -9.2620  130.2960  221.2100 N   0  0  0  0  0  0  0  0  0  0  0  0
  -10.5990  130.3050  221.7340 C   0  0  0  0  0  0  0  0  0  0  0  0
  -10.8790  128.8530  221.9670 C   0  0  1  0  0  0  0  0  0  0  0  0
  -11.1630  128.0050  220.7710 C   0  0  2  0  0  0  0  0  0  0  0  0
  -11.8760  126.7090  220.9610 N   0  0  0  0  0  0  0  0  0  0  0  0
   -9.7790  128.0550  221.3320 C   0  0  1  0  0  0  0  0  0  0  0  0
   -8.7990  129.0140  220.7310 C   0  0  0  0  0  0  0  0  0  0  0  0
   -7.1690  131.5560  220.6250 C   0  0  0  0  0  0  0  0  0  0  0  0
   -6.5000  132.7780  220.5500 C   0  0  0  0  0  0  0  0  0  0  0  0
   -7.1410  133.9410  220.9580 C   0  0  0  0  0  0  0  0  0  0  0  0
   -6.5000  135.1780  220.8950 C   0  0  0  0  0  0  0  0  0  0  0  0
   -7.1960  136.3180  221.3190 C   0  0  0  0  0  0  0  0  0  0  0  0
   -8.5000  136.1800  221.7880 C   0  0  0  0  0  0  0  0  0  0  0  0
   -6.6060  137.7040  221.3030 C   0  0  0  0  0  0  0  0  0  0  0  0
   -7.2950  138.6770  221.6950 O   0  0  0  0  0  0  0  0  0  0  0  0
   -5.4470  137.8810  220.8880 O   0  0  0  0  0  0  0  0  0  0  0  0
   -5.3520  135.2050  220.4700 O   0  0  0  0  0  0  0  0  0  0  0  0
   -6.5400  130.4540  220.2320 F   0  0  0  0  0  0  0  0  0  0  0  0
   -9.7750  133.7020  223.9210 H   0  0  0  0  0  0  0  0  0  0  0  0
  -11.9730  133.3610  224.7350 H   0  0  0  0  0  0  0  0  0  0  0  0
  -13.4530  135.4760  221.5800 H   0  0  0  0  0  0  0  0  0  0  0  0
  -11.2310  130.6610  221.0540 H   0  0  0  0  0  0  0  0  0  0  0  0
  -10.6580  130.8110  222.5550 H   0  0  0  0  0  0  0  0  0  0  0  0
  -11.1120  128.5090  222.8720 H   0  0  0  0  0  0  0  0  0  0  0  0
  -11.2990  128.4940  219.9540 H   0  0  0  0  0  0  0  0  0  0  0  0
  -12.6900  126.7390  220.5290 H   0  0  0  0  0  0  0  0  0  0  0  0
  -12.0110  126.5610  221.8610 H   0  0  0  0  0  0  0  0  0  0  0  0
   -9.4760  127.2330  221.8080 H   0  0  0  0  0  0  0  0  0  0  0  0
   -8.8690  128.9710  219.7530 H   0  0  0  0  0  0  0  0  0  0  0  0
   -7.8660  128.8270  221.0290 H   0  0  0  0  0  0  0  0  0  0  0  0
   -5.5760  132.8120  220.2100 H   0  0  0  0  0  0  0  0  0  0  0  0
   -9.0000  136.9720  222.0900 H   0  0  0  0  0  0  0  0  0  0  0  0
    4.2155  132.0134  233.1886 H   0  0  0  0  0  0  0  0  0  0  0  0
    5.3584  133.6271  231.4989 H   0  0  0  0  0  0  0  0  0  0  0  0
    6.6093  132.2104  233.2822 H   0  0  0  0  0  0  0  0  0  0  0  0
    6.3903  134.8012  233.3179 H   0  0  0  0  0  0  0  0  0  0  0  0
    5.2551  133.1853  235.0079 H   0  0  0  0  0  0  0  0  0  0  0  0
    4.1087  132.7232  234.3690 H   0  0  0  0  0  0  0  0  0  0  0  0
    1.6758  132.8381  233.5259 H   0  0  0  0  0  0  0  0  0  0  0  0
    2.8373  131.5711  233.3507 H   0  0  0  0  0  0  0  0  0  0  0  0
    1.5104  130.4859  233.5391 H   0  0  0  0  0  0  0  0  0  0  0  0
    0.9910  130.5418  236.0997 H   0  0  0  0  0  0  0  0  0  0  0  0
    0.4261  131.7978  236.3370 H   0  0  0  0  0  0  0  0  0  0  0  0
    0.3860  132.9801  234.0190 H   0  0  0  0  0  0  0  0  0  0  0  0
    0.6540  134.2206  236.2945 H   0  0  0  0  0  0  0  0  0  0  0  0
    1.4568  135.3315  236.0044 H   0  0  0  0  0  0  0  0  0  0  0  0
    1.9548  135.1570  233.4557 H   0  0  0  0  0  0  0  0  0  0  0  0
    0.2201  136.7827  234.1396 H   0  0  0  0  0  0  0  0  0  0  0  0
   -0.4931  137.0109  236.5977 H   0  0  0  0  0  0  0  0  0  0  0  0
    1.7406  138.1174  235.7152 H   0  0  0  0  0  0  0  0  0  0  0  0
   -0.8602  134.3262  236.6927 H   0  0  0  0  0  0  0  0  0  0  0  0
  -10.6191  133.1449  222.8433 H   0  0  0  0  0  0  0  0  0  0  0  0
  -11.7547  134.7993  224.4960 H   0  0  0  0  0  0  0  0  0  0  0  0
  -12.9826  133.4645  222.6373 H   0  0  0  0  0  0  0  0  0  0  0  0
  -12.6303  136.0429  222.6436 H   0  0  0  0  0  0  0  0  0  0  0  0
  -11.4952  134.3854  220.9954 H   0  0  0  0  0  0  0  0  0  0  0  0
  -10.4072  133.8623  221.6876 H   0  0  0  0  0  0  0  0  0  0  0  0
   -8.0619  133.7132  222.4549 H   0  0  0  0  0  0  0  0  0  0  0  0
   -9.3294  132.5316  222.4770 H   0  0  0  0  0  0  0  0  0  0  0  0
   -8.1023  131.3616  222.1384 H   0  0  0  0  0  0  0  0  0  0  0  0
   -7.5561  131.7054  219.6062 H   0  0  0  0  0  0  0  0  0  0  0  0
   -6.8829  132.9250  219.5293 H   0  0  0  0  0  0  0  0  0  0  0  0
   -6.7590  133.7934  221.9789 H   0  0  0  0  0  0  0  0  0  0  0  0
   -6.8825  135.3242  219.8741 H   0  0  0  0  0  0  0  0  0  0  0  0
   -7.5786  136.4641  220.2981 H   0  0  0  0  0  0  0  0  0  0  0  0
   -8.1172  136.0309  222.8084 H   0  0  0  0  0  0  0  0  0  0  0  0
   -6.9802  137.8515  220.2792 H   0  0  0  0  0  0  0  0  0  0  0  0
   -7.3077  138.6949  222.6848 H   0  0  0  0  0  0  0  0  0  0  0  0
   -4.8316  137.9750  221.6578 H   0  0  0  0  0  0  0  0  0  0  0  0
   -4.7187  135.2199  221.2308 H   0  0  0  0  0  0  0  0  0  0  0  0
  1  2  1  0
  2  3  1  0
  3  4  1  0
  3  5  1  0
  5  6  1  0
  6  7  1  0
  1  8  1  0
  6  8  1  0
  8  9  1  0
  9 10  1  0
 10 11  1  0
 11 12  1  0
 12 13  1  0
 13 14  1  0
 14 15  1  0
 15 16  1  0
 16 17  1  0
 15 18  1  0
 16 18  1  0
 13 19  1  0
 18 19  1  0
 12 20  1  0
 20 21  1  0
 10 22  1  0
 21 22  1  0
 22 23  1  0
 23 24  1  0
  9 25  1  0
 24 25  1  0
 24 26  1  0
 26 27  1  0
 26 28  1  0
 23 29  1  0
 20 30  1  0
  1 31  1  0
  2 32  1  0
  5 33  1  0
 14 34  1  0
 14 35  1  0
 15 36  1  6
 16 37  1  1
 17 38  1  0
 17 39  1  0
 18 40  1  6
 19 41  1  0
 19 42  1  0
 21 43  1  0
 25 44  1  0
 45 46  1  0
 46 47  1  0
 47 48  1  0
 47 49  1  0
 49 50  1  0
 50 51  1  0
 45 52  1  0
 50 52  1  0
 52 53  1  0
 53 54  1  0
 54 55  1  0
 55 56  1  0
 56 57  1  0
 57 58  1  0
 58 59  1  0
 59 60  1  0
 60 61  1  0
 59 62  1  0
 60 62  1  0
 57 63  1  0
 62 63  1  0
 56 64  1  0
 64 65  1  0
 54 66  1  0
 65 66  1  0
 66 67  1  0
 67 68  1  0
 53 69  1  0
 68 69  1  0
 68 70  1  0
 70 71  1  0
 70 72  1  0
 67 73  1  0
 64 74  1  0
 45 75  1  0
 46 76  1  0
 49 77  1  0
 58 78  1  0
 58 79  1  0
 59 80  1  1
 60 81  1  6
 61 82  1  0
 61 83  1  0
 62 84  1  1
 63 85  1  0
 63 86  1  0
 65 87  1  0
 69 88  1  0
  1 89  1  0
  2 90  1  0
  3 91  1  0
  5 92  1  0
  6 93  1  0
  8 94  1  0
 10 95  1  0
 11 96  1  0
 12 97  1  0
 20 98  1  0
 21 99  1  0
 22100  1  0
 23101  1  0
 24102  1  0
 25103  1  0
 26104  1  0
 27105  1  0
 28106  1  0
 29107  1  0
 45108  1  0
 46109  1  0
 47110  1  0
 49111  1  0
 50112  1  0
 52113  1  0
 54114  1  0
 55115  1  0
 56116  1  0
 64117  1  0
 65118  1  0
 66119  1  0
 67120  1  0
 68121  1  0
 69122  1  0
 70123  1  0
 71124  1  0
 72125  1  0
 73126  1  0
M  END
>  <PDBID>  (1) 
4Z53

>  <PDB ID>  (1) 
4Z53

>  <Generic Name>  (1) 
Trovafloxacin

>  <Brand Name>  (1) 
Trovan I.V.#Trovan Tablets 100mg#Trovan Tablets 200mg#Trovan

>  <DrugBank ID>  (1) 
DB00685

>  <ATC Codes>  (1) 
J01MA13

>  <Ligand ID>  (1) 
TR6

>  <Target Name>  (1) 
DNA gyrase subunit A

>  <UniProt ID>  (1) 
P43700

>  <PDB ID.1>  (1) 
4Z53

>  <Seq. Identity>  (1) 
43%

$$$$
