PDB_DB00696_97
     RDKit          3D

200214  0  0  0  0  0  0  0  0999 V2000
   15.6540  -25.1520   80.3150 C   0  0  0  0  0  0  0  0  0  0  0  0
   14.3700  -25.2050   80.7960 N   0  0  0  0  0  0  0  0  0  0  0  0
   19.7310  -26.6690   87.2410 O   0  0  0  0  0  0  0  0  0  0  0  0
   15.1850  -25.1640   84.8260 C   0  0  0  0  0  0  0  0  0  0  0  0
   13.8350  -25.2330   84.4780 C   0  0  0  0  0  0  0  0  0  0  0  0
   13.4320  -25.2710   83.1470 C   0  0  0  0  0  0  0  0  0  0  0  0
   14.4130  -25.2250   82.1640 C   0  0  0  0  0  0  0  0  0  0  0  0
   15.7580  -25.1710   82.5190 C   0  0  0  0  0  0  0  0  0  0  0  0
   20.7080  -26.3480   82.0890 C   0  0  0  0  0  0  0  0  0  0  0  0
   20.0490  -25.5370   86.8960 C   0  0  0  0  0  0  0  0  0  0  0  0
   21.0870  -25.0390   89.0570 C   0  0  2  0  0  0  0  0  0  0  0  0
   19.9170  -25.5780   89.8400 C   0  0  0  0  0  0  0  0  0  0  0  0
   19.3290  -27.6170   90.9700 C   0  0  2  0  0  0  0  0  0  0  0  0
   19.9340  -25.5650   83.0540 N   0  0  0  0  0  0  0  0  0  0  0  0
   16.5410  -25.1300   81.3520 C   0  0  0  0  0  0  0  0  0  0  0  0
   22.0320  -26.1260   89.0770 O   0  0  0  0  0  0  0  0  0  0  0  0
   20.0490  -28.7150   91.7200 C   0  0  2  0  0  0  0  0  0  0  0  0
   22.1990  -29.8030   92.2580 C   0  0  0  0  0  0  0  0  0  0  0  0
   23.2290  -30.1040   91.2110 C   0  0  0  0  0  0  0  0  0  0  0  0
   23.5020  -28.7760   90.5580 C   0  0  0  0  0  0  0  0  0  0  0  0
   22.2740  -27.8850   90.8350 C   0  0  1  0  0  0  0  0  0  0  0  0
   21.5040  -27.3360   89.6520 C   0  0  1  0  0  0  0  0  0  0  0  0
   21.5970  -23.8680   89.8720 C   0  0  0  0  0  0  0  0  0  0  0  0
   18.1020  -28.0840   90.1660 C   0  0  0  0  0  0  0  0  0  0  0  0
   16.9390  -28.4070   91.0620 C   0  0  1  0  0  0  0  0  0  0  0  0
   16.3580  -27.4320   91.8640 C   0  0  0  0  0  0  0  0  0  0  0  0
   18.0360  -25.0960   81.4920 C   0  0  0  0  0  0  0  0  0  0  0  0
   20.7220  -24.6940   87.7020 N   0  0  0  0  0  0  0  0  0  0  0  0
   18.8870  -24.9840   90.0980 O   0  0  0  0  0  0  0  0  0  0  0  0
   15.3370  -27.7570   92.7410 C   0  0  0  0  0  0  0  0  0  0  0  0
   14.8750  -29.0600   92.8140 C   0  0  0  0  0  0  0  0  0  0  0  0
   15.4340  -30.0310   92.0090 C   0  0  0  0  0  0  0  0  0  0  0  0
   16.4620  -29.7060   91.1420 C   0  0  0  0  0  0  0  0  0  0  0  0
   18.4720  -25.7200   82.8380 C   0  0  2  0  0  0  0  0  0  0  0  0
   20.2300  -26.8290   90.1470 N   0  0  0  0  0  0  0  0  0  0  0  0
   19.4110  -29.3960   92.5020 O   0  0  0  0  0  0  0  0  0  0  0  0
   20.3600  -25.9420   84.4150 C   0  0  0  0  0  0  0  0  0  0  0  0
   21.3940  -28.7680   91.6140 N   0  0  0  0  0  0  0  0  0  0  0  0
   21.3700  -28.3160   88.6860 O   0  0  0  0  0  0  0  0  0  0  0  0
   19.7430  -25.0230   85.4750 C   0  0  1  0  0  0  0  0  0  0  0  0
   18.2560  -24.9190   85.2300 C   0  0  0  0  0  0  0  0  0  0  0  0
   17.6720  -25.2030   84.0520 C   0  0  1  0  0  0  0  0  0  0  0  0
   16.1870  -25.1530   83.8500 C   0  0  1  0  0  0  0  0  0  0  0  0
   19.0050  -68.2620   77.8350 C   0  0  0  0  0  0  0  0  0  0  0  0
   20.2730  -68.0670   78.3190 N   0  0  0  0  0  0  0  0  0  0  0  0
   15.0290  -66.6090   84.5470 O   0  0  0  0  0  0  0  0  0  0  0  0
   19.3600  -67.4800   82.2850 C   0  0  0  0  0  0  0  0  0  0  0  0
   20.7150  -67.4280   81.9550 C   0  0  0  0  0  0  0  0  0  0  0  0
   21.1550  -67.5870   80.6440 C   0  0  0  0  0  0  0  0  0  0  0  0
   20.1990  -67.8230   79.6650 C   0  0  0  0  0  0  0  0  0  0  0  0
   18.8470  -67.8790   80.0030 C   0  0  0  0  0  0  0  0  0  0  0  0
   13.8090  -66.9950   79.4470 C   0  0  0  0  0  0  0  0  0  0  0  0
   14.6140  -67.7220   84.2150 C   0  0  0  0  0  0  0  0  0  0  0  0
   13.5620  -68.1660   86.3950 C   0  0  2  0  0  0  0  0  0  0  0  0
   14.7830  -67.7480   87.2200 C   0  0  0  0  0  0  0  0  0  0  0  0
   15.5100  -65.7300   88.4150 C   0  0  2  0  0  0  0  0  0  0  0  0
   14.6510  -67.7090   80.4190 N   0  0  0  0  0  0  0  0  0  0  0  0
   18.0950  -68.1500   78.8460 C   0  0  0  0  0  0  0  0  0  0  0  0
   12.7230  -67.0000   86.4280 O   0  0  0  0  0  0  0  0  0  0  0  0
   14.7690  -64.8330   89.3750 C   0  0  0  0  0  0  0  0  0  0  0  0
   12.5890  -64.0550   90.2170 C   0  0  0  0  0  0  0  0  0  0  0  0
   11.4350  -63.6030   89.3630 C   0  0  0  0  0  0  0  0  0  0  0  0
   11.4210  -64.4720   88.1220 C   0  0  0  0  0  0  0  0  0  0  0  0
   12.5440  -65.4950   88.3230 C   0  0  1  0  0  0  0  0  0  0  0  0
   13.3460  -65.9070   87.1120 C   0  0  1  0  0  0  0  0  0  0  0  0
   12.8480  -69.3300   87.0490 C   0  0  0  0  0  0  0  0  0  0  0  0
   16.6420  -64.9960   87.6890 C   0  0  0  0  0  0  0  0  0  0  0  0
   17.8780  -64.9650   88.5480 C   0  0  1  0  0  0  0  0  0  0  0  0
   18.4350  -66.1370   89.0480 C   0  0  0  0  0  0  0  0  0  0  0  0
   16.5980  -68.2180   78.9570 C   0  0  0  0  0  0  0  0  0  0  0  0
   13.9060  -68.5200   85.0350 N   0  0  0  0  0  0  0  0  0  0  0  0
   15.7540  -68.4370   87.4690 O   0  0  0  0  0  0  0  0  0  0  0  0
   19.6780  -66.1240   89.6640 C   0  0  0  0  0  0  0  0  0  0  0  0
   20.3750  -64.9380   89.7950 C   0  0  0  0  0  0  0  0  0  0  0  0
   19.8190  -63.7640   89.3250 C   0  0  0  0  0  0  0  0  0  0  0  0
   18.5730  -63.7760   88.7230 C   0  0  0  0  0  0  0  0  0  0  0  0
   16.1060  -67.4620   80.2080 C   0  0  2  0  0  0  0  0  0  0  0  0
   14.5990  -66.4790   87.5760 N   0  0  0  0  0  0  0  0  0  0  0  0
   15.3940  -64.1790   90.1890 O   0  0  0  0  0  0  0  0  0  0  0  0
   14.2150  -67.3550   81.7740 C   0  0  0  0  0  0  0  0  0  0  0  0
   13.4170  -64.8230   89.2960 N   0  0  0  0  0  0  0  0  0  0  0  0
   13.5260  -64.8170   86.2810 O   0  0  0  0  0  0  0  0  0  0  0  0
   14.8590  -68.2800   82.8070 C   0  0  1  0  0  0  0  0  0  0  0  0
   16.3470  -68.2810   82.5840 C   0  0  0  0  0  0  0  0  0  0  0  0
   16.9190  -67.8270   81.4660 C   0  0  1  0  0  0  0  0  0  0  0  0
   18.3900  -67.7080   81.3090 C   0  0  0  0  0  0  0  0  0  0  0  0
   15.8457  -26.0370   79.6905 H   0  0  0  0  0  0  0  0  0  0  0  0
   15.7772  -24.2381   79.7154 H   0  0  0  0  0  0  0  0  0  0  0  0
   13.8465  -24.3769   80.4780 H   0  0  0  0  0  0  0  0  0  0  0  0
   19.7164  -26.7209   88.2295 H   0  0  0  0  0  0  0  0  0  0  0  0
   15.3092  -24.2402   85.4101 H   0  0  0  0  0  0  0  0  0  0  0  0
   15.3517  -26.1282   85.3285 H   0  0  0  0  0  0  0  0  0  0  0  0
   13.4384  -26.1444   84.9493 H   0  0  0  0  0  0  0  0  0  0  0  0
   13.4520  -24.2585   84.8151 H   0  0  0  0  0  0  0  0  0  0  0  0
   12.8689  -26.2049   83.0029 H   0  0  0  0  0  0  0  0  0  0  0  0
   12.8614  -24.3410   83.0075 H   0  0  0  0  0  0  0  0  0  0  0  0
   14.3786  -24.1257   82.1812 H   0  0  0  0  0  0  0  0  0  0  0  0
   15.8041  -26.2700   82.5113 H   0  0  0  0  0  0  0  0  0  0  0  0
   21.3824  -27.0303   82.6272 H   0  0  0  0  0  0  0  0  0  0  0  0
   20.0228  -26.9324   81.4574 H   0  0  0  0  0  0  0  0  0  0  0  0
   21.3003  -25.6696   81.4574 H   0  0  0  0  0  0  0  0  0  0  0  0
   19.0963  -25.1502   87.2869 H   0  0  0  0  0  0  0  0  0  0  0  0
   20.3668  -25.2023   90.7708 H   0  0  0  0  0  0  0  0  0  0  0  0
   18.9291  -26.9665   91.7618 H   0  0  0  0  0  0  0  0  0  0  0  0
   16.5004  -24.0308   81.3634 H   0  0  0  0  0  0  0  0  0  0  0  0
   20.0797  -29.6859   91.2039 H   0  0  0  0  0  0  0  0  0  0  0  0
   21.5940  -30.6922   92.4889 H   0  0  0  0  0  0  0  0  0  0  0  0
   22.6283  -29.4913   93.2216 H   0  0  0  0  0  0  0  0  0  0  0  0
   24.1438  -30.5069   91.6701 H   0  0  0  0  0  0  0  0  0  0  0  0
   22.8847  -30.8611   90.4911 H   0  0  0  0  0  0  0  0  0  0  0  0
   24.4058  -28.3204   90.9888 H   0  0  0  0  0  0  0  0  0  0  0  0
   23.6697  -28.8936   89.4772 H   0  0  0  0  0  0  0  0  0  0  0  0
   22.6252  -26.9632   91.3217 H   0  0  0  0  0  0  0  0  0  0  0  0
   21.4977  -24.0961   90.9435 H   0  0  0  0  0  0  0  0  0  0  0  0
   22.6552  -23.6875   89.6321 H   0  0  0  0  0  0  0  0  0  0  0  0
   21.0084  -22.9702   89.6321 H   0  0  0  0  0  0  0  0  0  0  0  0
   17.8054  -27.2840   89.4717 H   0  0  0  0  0  0  0  0  0  0  0  0
   18.3780  -28.9982   89.6201 H   0  0  0  0  0  0  0  0  0  0  0  0
   17.6356  -28.6605   91.8748 H   0  0  0  0  0  0  0  0  0  0  0  0
   17.1677  -26.9996   92.4701 H   0  0  0  0  0  0  0  0  0  0  0  0
   15.8571  -26.7791   91.1340 H   0  0  0  0  0  0  0  0  0  0  0  0
   18.4892  -25.6645   80.6665 H   0  0  0  0  0  0  0  0  0  0  0  0
   18.3708  -24.0486   81.4622 H   0  0  0  0  0  0  0  0  0  0  0  0
   21.6032  -24.4757   87.2154 H   0  0  0  0  0  0  0  0  0  0  0  0
   18.7791  -24.9218   91.0801 H   0  0  0  0  0  0  0  0  0  0  0  0
   15.6861  -27.4871   93.7486 H   0  0  0  0  0  0  0  0  0  0  0  0
   14.4742  -27.2052   92.3397 H   0  0  0  0  0  0  0  0  0  0  0  0
   15.0140  -29.3896   93.8542 H   0  0  0  0  0  0  0  0  0  0  0  0
   13.8416  -28.9857   92.4444 H   0  0  0  0  0  0  0  0  0  0  0  0
   15.8193  -30.8145   92.6781 H   0  0  0  0  0  0  0  0  0  0  0  0
   14.6102  -30.3021   91.3324 H   0  0  0  0  0  0  0  0  0  0  0  0
   16.1186  -29.9768   90.1327 H   0  0  0  0  0  0  0  0  0  0  0  0
   17.3179  -30.2549   91.5616 H   0  0  0  0  0  0  0  0  0  0  0  0
   18.2386  -26.7921   82.7596 H   0  0  0  0  0  0  0  0  0  0  0  0
   19.6480  -29.1431   93.4294 H   0  0  0  0  0  0  0  0  0  0  0  0
   20.0454  -26.9772   84.6135 H   0  0  0  0  0  0  0  0  0  0  0  0
   21.4543  -25.8458   84.4716 H   0  0  0  0  0  0  0  0  0  0  0  0
   21.2497  -29.1960   89.1232 H   0  0  0  0  0  0  0  0  0  0  0  0
   20.1879  -24.0201   85.3963 H   0  0  0  0  0  0  0  0  0  0  0  0
   17.7836  -25.5852   85.9669 H   0  0  0  0  0  0  0  0  0  0  0  0
   18.1076  -23.8304   85.2836 H   0  0  0  0  0  0  0  0  0  0  0  0
   17.5063  -26.2386   84.3838 H   0  0  0  0  0  0  0  0  0  0  0  0
   16.2072  -26.2528   83.8584 H   0  0  0  0  0  0  0  0  0  0  0  0
   18.7890  -67.5061   77.0656 H   0  0  0  0  0  0  0  0  0  0  0  0
   18.9369  -69.2697   77.3991 H   0  0  0  0  0  0  0  0  0  0  0  0
   20.8412  -68.9094   78.1506 H   0  0  0  0  0  0  0  0  0  0  0  0
   15.0523  -66.5466   85.5348 H   0  0  0  0  0  0  0  0  0  0  0  0
   19.2501  -68.2832   83.0285 H   0  0  0  0  0  0  0  0  0  0  0  0
   19.1483  -66.4472   82.5989 H   0  0  0  0  0  0  0  0  0  0  0  0
   21.0763  -66.4429   82.2853 H   0  0  0  0  0  0  0  0  0  0  0  0
   21.1105  -68.3295   82.4458 H   0  0  0  0  0  0  0  0  0  0  0  0
   21.6915  -66.6684   80.3642 H   0  0  0  0  0  0  0  0  0  0  0  0
   21.7628  -68.5036   80.6647 H   0  0  0  0  0  0  0  0  0  0  0  0
   20.2616  -68.9030   79.8642 H   0  0  0  0  0  0  0  0  0  0  0  0
   18.7542  -66.7999   79.8106 H   0  0  0  0  0  0  0  0  0  0  0  0
   13.0764  -66.3738   79.9831 H   0  0  0  0  0  0  0  0  0  0  0  0
   14.4413  -66.3536   78.8155 H   0  0  0  0  0  0  0  0  0  0  0  0
   13.2796  -67.7236   78.8155 H   0  0  0  0  0  0  0  0  0  0  0  0
   15.5473  -68.1780   84.5771 H   0  0  0  0  0  0  0  0  0  0  0  0
   14.2903  -68.1121   88.1336 H   0  0  0  0  0  0  0  0  0  0  0  0
   16.0395  -66.5014   88.9934 H   0  0  0  0  0  0  0  0  0  0  0  0
   18.1809  -69.2288   79.0428 H   0  0  0  0  0  0  0  0  0  0  0  0
   14.6985  -65.6617   90.0949 H   0  0  0  0  0  0  0  0  0  0  0  0
   13.1427  -63.1929   90.6172 H   0  0  0  0  0  0  0  0  0  0  0  0
   12.2695  -64.6389   91.0928 H   0  0  0  0  0  0  0  0  0  0  0  0
   10.4906  -63.7204   89.9147 H   0  0  0  0  0  0  0  0  0  0  0  0
   11.5443  -62.5423   89.0928 H   0  0  0  0  0  0  0  0  0  0  0  0
   10.4512  -64.9812   88.0207 H   0  0  0  0  0  0  0  0  0  0  0  0
   11.5696  -63.8786   87.2078 H   0  0  0  0  0  0  0  0  0  0  0  0
   12.1020  -66.4548   88.6287 H   0  0  0  0  0  0  0  0  0  0  0  0
   12.9093  -69.2300   88.1427 H   0  0  0  0  0  0  0  0  0  0  0  0
   11.7924  -69.3332   86.7397 H   0  0  0  0  0  0  0  0  0  0  0  0
   13.3236  -70.2724   86.7397 H   0  0  0  0  0  0  0  0  0  0  0  0
   16.8674  -65.5174   86.7470 H   0  0  0  0  0  0  0  0  0  0  0  0
   16.3242  -63.9637   87.4808 H   0  0  0  0  0  0  0  0  0  0  0  0
   17.2507  -64.8794   89.4475 H   0  0  0  0  0  0  0  0  0  0  0  0
   17.7225  -66.5333   89.7865 H   0  0  0  0  0  0  0  0  0  0  0  0
   18.6181  -66.7286   88.1389 H   0  0  0  0  0  0  0  0  0  0  0  0
   16.1491  -67.7636   78.0614 H   0  0  0  0  0  0  0  0  0  0  0  0
   16.2986  -69.2730   79.0425 H   0  0  0  0  0  0  0  0  0  0  0  0
   13.0115  -68.6939   84.5549 H   0  0  0  0  0  0  0  0  0  0  0  0
   15.8616  -68.5134   88.4502 H   0  0  0  0  0  0  0  0  0  0  0  0
   19.5324  -66.5199   90.6799 H   0  0  0  0  0  0  0  0  0  0  0  0
   20.3055  -66.7097   88.9761 H   0  0  0  0  0  0  0  0  0  0  0  0
   20.5627  -64.7948   90.8694 H   0  0  0  0  0  0  0  0  0  0  0  0
   21.2533  -65.0832   89.1488 H   0  0  0  0  0  0  0  0  0  0  0  0
   19.7489  -63.0807   90.1842 H   0  0  0  0  0  0  0  0  0  0  0  0
   20.4919  -63.4796   88.5027 H   0  0  0  0  0  0  0  0  0  0  0  0
   18.7044  -63.3396   87.7219 H   0  0  0  0  0  0  0  0  0  0  0  0
   17.9477  -63.2329   89.4469 H   0  0  0  0  0  0  0  0  0  0  0  0
   16.2620  -66.3875   80.0318 H   0  0  0  0  0  0  0  0  0  0  0  0
   15.1321  -64.4530   91.1036 H   0  0  0  0  0  0  0  0  0  0  0  0
   14.5069  -66.3162   81.9876 H   0  0  0  0  0  0  0  0  0  0  0  0
   13.1220  -67.4639   81.8340 H   0  0  0  0  0  0  0  0  0  0  0  0
   13.6604  -64.0032   86.8285 H   0  0  0  0  0  0  0  0  0  0  0  0
   14.4334  -69.2896   82.7091 H   0  0  0  0  0  0  0  0  0  0  0  0
   16.7759  -67.6879   83.4051 H   0  0  0  0  0  0  0  0  0  0  0  0
   16.5561  -69.3587   82.5136 H   0  0  0  0  0  0  0  0  0  0  0  0
   16.8157  -66.7949   81.8322 H   0  0  0  0  0  0  0  0  0  0  0  0
   18.3072  -66.6245   81.1382 H   0  0  0  0  0  0  0  0  0  0  0  0
  1  2  1  0
  4  5  1  0
  5  6  1  0
  2  7  1  0
  6  7  1  0
  7  8  1  0
  3 10  1  0
 11 12  1  0
  9 14  1  0
  1 15  1  0
  8 15  1  0
 11 16  1  0
 13 17  1  0
 18 19  1  0
 19 20  1  0
 20 21  1  0
 16 22  1  0
 21 22  1  0
 11 23  1  0
 13 24  1  0
 24 25  1  0
 25 26  1  0
 15 27  1  0
 10 28  1  0
 11 28  1  6
 12 29  1  0
 26 30  1  0
 30 31  1  0
 31 32  1  0
 25 33  1  0
 32 33  1  0
 14 34  1  0
 27 34  1  0
 12 35  1  0
 13 35  1  0
 22 35  1  0
 17 36  1  0
 14 37  1  0
 17 38  1  0
 18 38  1  0
 21 38  1  0
 22 39  1  6
 10 40  1  0
 37 40  1  0
 40 41  1  0
 34 42  1  0
 41 42  1  0
  4 43  1  0
  8 43  1  0
 42 43  1  0
 44 45  1  0
 47 48  1  0
 48 49  1  0
 45 50  1  0
 49 50  1  0
 50 51  1  0
 46 53  1  0
 54 55  1  0
 52 57  1  0
 44 58  1  0
 51 58  1  0
 54 59  1  0
 56 60  1  0
 61 62  1  0
 62 63  1  0
 63 64  1  0
 59 65  1  0
 64 65  1  0
 54 66  1  0
 56 67  1  0
 67 68  1  0
 68 69  1  0
 58 70  1  0
 53 71  1  0
 54 71  1  6
 55 72  1  0
 69 73  1  0
 73 74  1  0
 74 75  1  0
 68 76  1  0
 75 76  1  0
 57 77  1  0
 70 77  1  0
 55 78  1  0
 56 78  1  0
 65 78  1  0
 60 79  1  0
 57 80  1  0
 60 81  1  0
 61 81  1  0
 64 81  1  0
 65 82  1  6
 53 83  1  0
 80 83  1  0
 83 84  1  0
 77 85  1  0
 84 85  1  0
 47 86  1  0
 51 86  1  0
 85 86  1  0
  1 87  1  0
  1 88  1  0
  2 89  1  0
  3 90  1  0
  4 91  1  0
  4 92  1  0
  5 93  1  0
  5 94  1  0
  6 95  1  0
  6 96  1  0
  7 97  1  0
  8 98  1  0
  9 99  1  0
  9100  1  0
  9101  1  0
 10102  1  0
 12103  1  0
 13104  1  1
 15105  1  0
 17106  1  6
 18107  1  0
 18108  1  0
 19109  1  0
 19110  1  0
 20111  1  0
 20112  1  0
 21113  1  1
 23114  1  0
 23115  1  0
 23116  1  0
 24117  1  0
 24118  1  0
 25119  1  6
 26120  1  0
 26121  1  0
 27122  1  0
 27123  1  0
 28124  1  0
 29125  1  0
 30126  1  0
 30127  1  0
 31128  1  0
 31129  1  0
 32130  1  0
 32131  1  0
 33132  1  0
 33133  1  0
 34134  1  6
 36135  1  0
 37136  1  0
 37137  1  0
 39138  1  0
 40139  1  1
 41140  1  0
 41141  1  0
 42142  1  6
 43143  1  6
 44144  1  0
 44145  1  0
 45146  1  0
 46147  1  0
 47148  1  0
 47149  1  0
 48150  1  0
 48151  1  0
 49152  1  0
 49153  1  0
 50154  1  0
 51155  1  0
 52156  1  0
 52157  1  0
 52158  1  0
 53159  1  0
 55160  1  0
 56161  1  1
 58162  1  0
 60163  1  0
 61164  1  0
 61165  1  0
 62166  1  0
 62167  1  0
 63168  1  0
 63169  1  0
 64170  1  1
 66171  1  0
 66172  1  0
 66173  1  0
 67174  1  0
 67175  1  0
 68176  1  1
 69177  1  0
 69178  1  0
 70179  1  0
 70180  1  0
 71181  1  0
 72182  1  0
 73183  1  0
 73184  1  0
 74185  1  0
 74186  1  0
 75187  1  0
 75188  1  0
 76189  1  0
 76190  1  0
 77191  1  6
 79192  1  0
 80193  1  0
 80194  1  0
 82195  1  0
 83196  1  1
 84197  1  0
 84198  1  0
 85199  1  1
 86200  1  0
M  END
>  <PDBID>  (1) 
5TUD

>  <PDB ID>  (1) 
5TUD

>  <Generic Name>  (1) 
Ergotamine

>  <Brand Name>  (1) 
Cafergot#Cafergot Sup#Cafergot Tab#Ergodryl Cap#Ergomar#Ergomar Slt 2mg#Ergomar Sublingual#Ergotamine#Ergotamine Tartrate and Caffeine#Gravergol Capsules#Megral Tabs#Migergot#Anervan#Antimigraine#Enxak#Ergam#Ergo-Kranit#Gynaemine#Wigrettes

>  <DrugBank ID>  (1) 
DB00696

>  <ATC Codes>  (1) 
N02CA52#N02CA72#N02CA02

>  <Ligand ID>  (1) 
ERM

>  <Target Name>  (1) 
5-hydroxytryptamine receptor 2A

>  <UniProt ID>  (1) 
P28223

>  <PDB ID.1>  (1) 
5TUD

>  <Seq. Identity>  (1) 
58%

$$$$
