PDB_DB01229_95
     RDKit          3D

113119  0  0  0  0  0  0  0  0999 V2000
   60.4990  -44.1710  -10.3030 O   0  0  0  0  0  0  0  0  0  0  0  0
   60.8440  -44.1630   -8.9060 C   0  0  1  0  0  0  0  0  0  0  0  0
   62.4430  -43.8490   -8.8370 C   0  0  1  0  0  0  0  0  0  0  0  0
   62.5220  -42.5260   -9.4980 O   0  0  0  0  0  0  0  0  0  0  0  0
   63.0890  -42.4530  -10.7900 C   0  0  0  0  0  0  0  0  0  0  0  0
   63.5460  -43.4050  -11.3770 O   0  0  0  0  0  0  0  0  0  0  0  0
   63.0900  -41.1150  -11.3220 C   0  0  0  0  0  0  0  0  0  0  0  0
   63.4900  -39.9280  -10.6940 C   0  0  0  0  0  0  0  0  0  0  0  0
   63.4020  -38.7180  -11.4330 C   0  0  0  0  0  0  0  0  0  0  0  0
   63.0060  -38.5730  -12.6130 C   0  0  0  0  0  0  0  0  0  0  0  0
   62.5780  -39.7280  -13.3270 C   0  0  0  0  0  0  0  0  0  0  0  0
   62.6010  -41.0870  -12.7010 C   0  0  0  0  0  0  0  0  0  0  0  0
   63.1550  -43.7160   -7.3860 C   0  0  2  0  0  0  0  0  0  0  0  0
   64.1570  -42.4620   -7.2470 C   0  0  2  0  0  0  0  0  0  0  0  0
   63.4510  -41.1600   -7.3870 O   0  0  0  0  0  0  0  0  0  0  0  0
   62.5530  -40.7070   -6.4490 C   0  0  0  0  0  0  0  0  0  0  0  0
   62.2430  -41.2870   -5.4510 O   0  0  0  0  0  0  0  0  0  0  0  0
   62.0260  -39.3550   -6.8750 C   0  0  0  0  0  0  0  0  0  0  0  0
   65.3310  -42.2960   -8.2460 C   0  0  0  0  0  0  0  0  0  0  0  0
   66.3250  -42.2920   -7.1960 O   0  0  0  0  0  0  0  0  0  0  0  0
   65.2990  -42.4420   -6.1920 C   0  0  2  0  0  0  0  0  0  0  0  0
   65.5190  -43.7150   -5.3090 C   0  0  0  0  0  0  0  0  0  0  0  0
   64.3640  -44.7060   -5.3520 C   0  0  2  0  0  0  0  0  0  0  0  0
   64.6930  -45.8620   -4.5390 O   0  0  0  0  0  0  0  0  0  0  0  0
   63.9300  -45.1110   -6.8430 C   0  0  2  0  0  0  0  0  0  0  0  0
   65.2020  -45.4900   -7.6610 C   0  0  0  0  0  0  0  0  0  0  0  0
   63.0870  -46.4970   -6.8130 C   0  0  0  0  0  0  0  0  0  0  0  0
   63.5610  -47.4850   -7.3480 O   0  0  0  0  0  0  0  0  0  0  0  0
   61.7070  -46.6020   -6.1510 C   0  0  2  0  0  0  0  0  0  0  0  0
   61.2220  -48.0000   -6.3340 O   0  0  0  0  0  0  0  0  0  0  0  0
   61.0950  -48.8370   -5.2430 C   0  0  0  0  0  0  0  0  0  0  0  0
   61.3430  -48.5410   -4.1150 O   0  0  0  0  0  0  0  0  0  0  0  0
   60.6000  -50.1900   -5.6740 C   0  0  0  0  0  0  0  0  0  0  0  0
   60.7420  -45.5840   -6.7650 C   0  0  0  0  0  0  0  0  0  0  0  0
   60.2310  -44.5600   -5.9730 C   0  0  0  0  0  0  0  0  0  0  0  0
   59.3870  -43.4750   -6.7100 C   0  0  1  0  0  0  0  0  0  0  0  0
   59.1820  -42.2430   -5.9340 O   0  0  0  0  0  0  0  0  0  0  0  0
   58.0760  -42.1460   -5.2090 C   0  0  0  0  0  0  0  0  0  0  0  0
   57.2070  -42.9560   -5.0970 O   0  0  0  0  0  0  0  0  0  0  0  0
   58.0240  -40.7710   -4.4940 C   0  0  2  0  0  0  0  0  0  0  0  0
   56.8090  -40.7000   -3.7710 O   0  0  0  0  0  0  0  0  0  0  0  0
   58.1530  -39.6600   -5.5660 C   0  0  1  0  0  0  0  0  0  0  0  0
   57.1420  -39.9300   -6.5820 N   0  0  0  0  0  0  0  0  0  0  0  0
   57.2650  -39.5340   -7.8700 C   0  0  0  0  0  0  0  0  0  0  0  0
   58.2290  -38.9010   -8.2890 O   0  0  0  0  0  0  0  0  0  0  0  0
   56.1410  -39.9620   -8.7460 C   0  0  0  0  0  0  0  0  0  0  0  0
   54.8130  -39.5830   -8.5480 C   0  0  0  0  0  0  0  0  0  0  0  0
   53.7840  -40.0350   -9.4160 C   0  0  0  0  0  0  0  0  0  0  0  0
   54.1100  -40.8930  -10.5030 C   0  0  0  0  0  0  0  0  0  0  0  0
   55.4250  -41.2760  -10.7070 C   0  0  0  0  0  0  0  0  0  0  0  0
   56.4460  -40.8360   -9.8580 C   0  0  0  0  0  0  0  0  0  0  0  0
   58.0590  -38.2550   -4.9350 C   0  0  0  0  0  0  0  0  0  0  0  0
   59.2550  -37.6250   -4.5490 C   0  0  0  0  0  0  0  0  0  0  0  0
   59.2360  -36.3350   -3.9570 C   0  0  0  0  0  0  0  0  0  0  0  0
   58.0100  -35.6780   -3.7570 C   0  0  0  0  0  0  0  0  0  0  0  0
   56.8300  -36.2920   -4.1360 C   0  0  0  0  0  0  0  0  0  0  0  0
   56.8400  -37.5880   -4.7300 C   0  0  0  0  0  0  0  0  0  0  0  0
   60.0700  -43.0390   -8.0640 C   0  0  0  0  0  0  0  0  0  0  0  0
   60.4970  -44.3530   -4.4870 C   0  0  0  0  0  0  0  0  0  0  0  0
   60.3950  -45.6530   -8.3320 C   0  0  0  0  0  0  0  0  0  0  0  0
   58.8320  -45.9380   -8.5010 C   0  0  0  0  0  0  0  0  0  0  0  0
   61.0350  -46.7710   -9.1860 C   0  0  0  0  0  0  0  0  0  0  0  0
   59.5140  -44.1938  -10.3995 H   0  0  0  0  0  0  0  0  0  0  0  0
   62.9756  -44.7033   -9.2802 H   0  0  0  0  0  0  0  0  0  0  0  0
   63.8614  -39.9330   -9.6586 H   0  0  0  0  0  0  0  0  0  0  0  0
   63.7176  -37.8035  -10.9094 H   0  0  0  0  0  0  0  0  0  0  0  0
   62.9895  -37.5794  -13.0848 H   0  0  0  0  0  0  0  0  0  0  0  0
   62.2224  -39.6189  -14.3622 H   0  0  0  0  0  0  0  0  0  0  0  0
   62.2763  -41.9924  -13.2347 H   0  0  0  0  0  0  0  0  0  0  0  0
   62.2893  -43.5392   -6.7308 H   0  0  0  0  0  0  0  0  0  0  0  0
   61.7921  -38.7550   -5.9832 H   0  0  0  0  0  0  0  0  0  0  0  0
   62.7881  -38.8371   -7.4758 H   0  0  0  0  0  0  0  0  0  0  0  0
   61.1145  -39.4895   -7.4758 H   0  0  0  0  0  0  0  0  0  0  0  0
   65.4347  -43.1408   -8.9428 H   0  0  0  0  0  0  0  0  0  0  0  0
   65.3074  -41.4560   -8.9558 H   0  0  0  0  0  0  0  0  0  0  0  0
   65.1811  -41.7140   -5.3759 H   0  0  0  0  0  0  0  0  0  0  0  0
   66.4271  -44.2268   -5.6603 H   0  0  0  0  0  0  0  0  0  0  0  0
   65.6031  -43.3695   -4.2681 H   0  0  0  0  0  0  0  0  0  0  0  0
   63.4767  -44.2119   -4.9294 H   0  0  0  0  0  0  0  0  0  0  0  0
   64.6247  -45.6219   -3.5810 H   0  0  0  0  0  0  0  0  0  0  0  0
   66.0226  -45.7345   -6.9705 H   0  0  0  0  0  0  0  0  0  0  0  0
   64.9839  -46.3622   -8.2948 H   0  0  0  0  0  0  0  0  0  0  0  0
   65.4969  -44.6407   -8.2948 H   0  0  0  0  0  0  0  0  0  0  0  0
   61.7700  -46.3723   -5.0771 H   0  0  0  0  0  0  0  0  0  0  0  0
   60.3772  -50.7990   -4.7855 H   0  0  0  0  0  0  0  0  0  0  0  0
   59.6869  -50.0717   -6.2759 H   0  0  0  0  0  0  0  0  0  0  0  0
   61.3738  -50.6889   -6.2759 H   0  0  0  0  0  0  0  0  0  0  0  0
   58.4149  -43.9625   -6.8756 H   0  0  0  0  0  0  0  0  0  0  0  0
   58.8493  -40.6381   -3.7790 H   0  0  0  0  0  0  0  0  0  0  0  0
   57.0017  -40.7113   -2.8000 H   0  0  0  0  0  0  0  0  0  0  0  0
   59.1435  -39.6698   -6.0442 H   0  0  0  0  0  0  0  0  0  0  0  0
   56.2946  -40.4464   -6.3061 H   0  0  0  0  0  0  0  0  0  0  0  0
   54.5588  -38.9231   -7.7055 H   0  0  0  0  0  0  0  0  0  0  0  0
   52.7422  -39.7239   -9.2491 H   0  0  0  0  0  0  0  0  0  0  0  0
   53.3199  -41.2511  -11.1794 H   0  0  0  0  0  0  0  0  0  0  0  0
   55.6709  -41.9374  -11.5509 H   0  0  0  0  0  0  0  0  0  0  0  0
   57.4834  -41.1553  -10.0363 H   0  0  0  0  0  0  0  0  0  0  0  0
   60.2156  -38.1371   -4.7074 H   0  0  0  0  0  0  0  0  0  0  0  0
   60.1771  -35.8516   -3.6560 H   0  0  0  0  0  0  0  0  0  0  0  0
   57.9888  -34.6776   -3.3000 H   0  0  0  0  0  0  0  0  0  0  0  0
   55.8725  -35.7743   -3.9772 H   0  0  0  0  0  0  0  0  0  0  0  0
   55.8944  -38.0649   -5.0273 H   0  0  0  0  0  0  0  0  0  0  0  0
   60.7971  -42.2489   -7.8253 H   0  0  0  0  0  0  0  0  0  0  0  0
   59.2340  -42.7345   -8.7108 H   0  0  0  0  0  0  0  0  0  0  0  0
   59.7628  -44.9243   -3.9000 H   0  0  0  0  0  0  0  0  0  0  0  0
   61.5117  -44.7014   -4.2441 H   0  0  0  0  0  0  0  0  0  0  0  0
   60.4085  -43.2838   -4.2441 H   0  0  0  0  0  0  0  0  0  0  0  0
   58.3654  -46.0231   -7.5085 H   0  0  0  0  0  0  0  0  0  0  0  0
   58.3661  -45.1100   -9.0554 H   0  0  0  0  0  0  0  0  0  0  0  0
   58.6884  -46.8771   -9.0554 H   0  0  0  0  0  0  0  0  0  0  0  0
   61.4715  -47.5335   -8.5242 H   0  0  0  0  0  0  0  0  0  0  0  0
   60.2650  -47.2338   -9.8208 H   0  0  0  0  0  0  0  0  0  0  0  0
   61.8240  -46.3414   -9.8208 H   0  0  0  0  0  0  0  0  0  0  0  0
  2  1  1  6
  2  3  1  0
  3  4  1  0
  4  5  1  0
  5  6  2  0
  5  7  1  0
  7  8  2  0
  8  9  1  0
  9 10  2  0
 10 11  1  0
  7 12  1  0
 11 12  2  0
  3 13  1  0
 13 14  1  0
 14 15  1  1
 15 16  1  0
 16 17  2  0
 16 18  1  0
 14 19  1  0
 19 20  1  0
 14 21  1  0
 20 21  1  0
 21 22  1  0
 22 23  1  0
 23 24  1  0
 13 25  1  0
 23 25  1  0
 25 26  1  6
 25 27  1  0
 27 28  2  0
 27 29  1  0
 29 30  1  0
 30 31  1  0
 31 32  2  0
 31 33  1  0
 29 34  1  0
 34 35  2  0
 35 36  1  0
 36 37  1  0
 37 38  1  0
 38 39  2  0
 38 40  1  0
 40 41  1  0
 40 42  1  0
 42 43  1  0
 43 44  1  0
 44 45  2  0
 44 46  1  0
 46 47  2  0
 47 48  1  0
 48 49  2  0
 49 50  1  0
 46 51  1  0
 50 51  2  0
 42 52  1  0
 52 53  2  0
 53 54  1  0
 54 55  2  0
 55 56  1  0
 52 57  1  0
 56 57  2  0
  2 58  1  0
 36 58  1  0
 35 59  1  0
  2 60  1  0
 34 60  1  0
 60 61  1  0
 60 62  1  0
  1 63  1  0
  3 64  1  6
  8 65  1  0
  9 66  1  0
 10 67  1  0
 11 68  1  0
 12 69  1  0
 13 70  1  1
 18 71  1  0
 18 72  1  0
 18 73  1  0
 19 74  1  0
 19 75  1  0
 21 76  1  1
 22 77  1  0
 22 78  1  0
 23 79  1  1
 24 80  1  0
 26 81  1  0
 26 82  1  0
 26 83  1  0
 29 84  1  1
 33 85  1  0
 33 86  1  0
 33 87  1  0
 36 88  1  6
 40 89  1  1
 41 90  1  0
 42 91  1  6
 43 92  1  0
 47 93  1  0
 48 94  1  0
 49 95  1  0
 50 96  1  0
 51 97  1  0
 53 98  1  0
 54 99  1  0
 55100  1  0
 56101  1  0
 57102  1  0
 58103  1  0
 58104  1  0
 59105  1  0
 59106  1  0
 59107  1  0
 61108  1  0
 61109  1  0
 61110  1  0
 62111  1  0
 62112  1  0
 62113  1  0
M  END
$$$$
