PDB_DB01095_99
     RDKit          3D

296304  0  0  0  0  0  0  0  0999 V2000
   18.4010  -24.9180   16.5060 C   0  0  0  0  0  0  0  0  0  0  0  0
   17.9490  -25.1160   15.2150 C   0  0  0  0  0  0  0  0  0  0  0  0
   16.7230  -25.7930   15.0000 C   0  0  0  0  0  0  0  0  0  0  0  0
   15.9800  -26.2550   16.1050 C   0  0  0  0  0  0  0  0  0  0  0  0
   16.4590  -26.0420   17.4160 C   0  0  0  0  0  0  0  0  0  0  0  0
   17.6720  -25.3710   17.6270 C   0  0  0  0  0  0  0  0  0  0  0  0
   19.7110  -24.1830   16.4580 C   0  0  0  0  0  0  0  0  0  0  0  0
   19.8850  -24.0340   15.1280 C   0  0  0  0  0  0  0  0  0  0  0  0
   18.7880  -24.6130   14.3630 N   0  0  0  0  0  0  0  0  0  0  0  0
   21.8730  -24.2130   19.6180 C   0  0  0  0  0  0  0  0  0  0  0  0
   21.0480  -24.6580   18.5760 C   0  0  0  0  0  0  0  0  0  0  0  0
   20.5850  -23.7380   17.6190 C   0  0  0  0  0  0  0  0  0  0  0  0
   20.9500  -22.3800   17.7090 C   0  0  0  0  0  0  0  0  0  0  0  0
   21.7680  -21.9450   18.7450 C   0  0  0  0  0  0  0  0  0  0  0  0
   22.2310  -22.8600   19.6980 C   0  0  0  0  0  0  0  0  0  0  0  0
   23.0340  -22.4250   20.7080 F   0  0  0  0  0  0  0  0  0  0  0  0
   23.3240  -17.1500   16.8110 O   0  0  0  0  0  0  0  0  0  0  0  0
   21.2130  -17.9530   17.0500 O   0  0  0  0  0  0  0  0  0  0  0  0
   23.6280  -20.2010   15.3420 O   0  0  0  0  0  0  0  0  0  0  0  0
   22.3490  -17.7280   16.3490 C   0  0  0  0  0  0  0  0  0  0  0  0
   22.2800  -18.2610   14.9270 C   0  0  0  0  0  0  0  0  0  0  0  0
   22.3680  -19.7910   14.8180 C   0  0  1  0  0  0  0  0  0  0  0  0
   22.2860  -20.2600   13.3610 C   0  0  0  0  0  0  0  0  0  0  0  0
   22.3530  -21.7860   13.2180 C   0  0  1  0  0  0  0  0  0  0  0  0
   21.0790  -22.4250   13.7070 C   0  0  0  0  0  0  0  0  0  0  0  0
   20.9810  -23.3940   14.6150 C   0  0  0  0  0  0  0  0  0  0  0  0
   18.6060  -24.3980   12.8520 C   0  0  1  0  0  0  0  0  0  0  0  0
   18.5490  -25.7280   12.0780 C   0  0  0  0  0  0  0  0  0  0  0  0
   17.3550  -23.5350   12.5500 C   0  0  0  0  0  0  0  0  0  0  0  0
   22.5660  -22.0540   11.8620 O   0  0  0  0  0  0  0  0  0  0  0  0
   34.5900   -7.3020  -13.1620 C   0  0  0  0  0  0  0  0  0  0  0  0
   34.7220   -8.6540  -12.9220 C   0  0  0  0  0  0  0  0  0  0  0  0
   35.6320   -9.4120  -13.6910 C   0  0  0  0  0  0  0  0  0  0  0  0
   36.3980   -8.7790  -14.6960 C   0  0  0  0  0  0  0  0  0  0  0  0
   36.2530   -7.4010  -14.9230 C   0  0  0  0  0  0  0  0  0  0  0  0
   35.3460   -6.6540  -14.1560 C   0  0  0  0  0  0  0  0  0  0  0  0
   33.5600   -6.7290  -12.2210 C   0  0  0  0  0  0  0  0  0  0  0  0
   33.2020   -7.8280  -11.5240 C   0  0  0  0  0  0  0  0  0  0  0  0
   33.9300   -9.0170  -11.9660 N   0  0  0  0  0  0  0  0  0  0  0  0
   32.0550   -3.3330  -13.1100 C   0  0  0  0  0  0  0  0  0  0  0  0
   32.5040   -4.6520  -13.2230 C   0  0  0  0  0  0  0  0  0  0  0  0
   33.0830   -5.2880  -12.1180 C   0  0  0  0  0  0  0  0  0  0  0  0
   33.2080   -4.5980  -10.9020 C   0  0  0  0  0  0  0  0  0  0  0  0
   32.7590   -3.2800  -10.7910 C   0  0  0  0  0  0  0  0  0  0  0  0
   32.1810   -2.6500  -11.8980 C   0  0  0  0  0  0  0  0  0  0  0  0
   31.7350   -1.3640  -11.7930 F   0  0  0  0  0  0  0  0  0  0  0  0
   32.4980   -3.2890   -4.9480 O   0  0  0  0  0  0  0  0  0  0  0  0
   34.0220   -3.8720   -6.5480 O   0  0  0  0  0  0  0  0  0  0  0  0
   30.8900   -5.3120   -7.3940 O   0  0  0  0  0  0  0  0  0  0  0  0
   33.0070   -4.1330   -5.6760 C   0  0  0  0  0  0  0  0  0  0  0  0
   32.5760   -5.5940   -5.6880 C   0  0  0  0  0  0  0  0  0  0  0  0
   32.0460   -6.0870   -7.0450 C   0  0  1  0  0  0  0  0  0  0  0  0
   31.6420   -7.5660   -6.9700 C   0  0  0  0  0  0  0  0  0  0  0  0
   31.1070   -8.1150   -8.2960 C   0  0  1  0  0  0  0  0  0  0  0  0
   32.2290   -8.2910   -9.2940 C   0  0  0  0  0  0  0  0  0  0  0  0
   32.2660   -7.7600  -10.5290 C   0  0  0  0  0  0  0  0  0  0  0  0
   33.6970  -10.4120  -11.4090 C   0  0  1  0  0  0  0  0  0  0  0  0
   33.4460  -11.4490  -12.5080 C   0  0  0  0  0  0  0  0  0  0  0  0
   34.8620  -10.8430  -10.4960 C   0  0  0  0  0  0  0  0  0  0  0  0
   30.4700   -9.3470   -8.0030 O   0  0  0  0  0  0  0  0  0  0  0  0
   15.0440   18.1020   27.7990 C   0  0  0  0  0  0  0  0  0  0  0  0
   15.9520   18.4010   28.7910 C   0  0  0  0  0  0  0  0  0  0  0  0
   15.4950   18.6560   30.1010 C   0  0  0  0  0  0  0  0  0  0  0  0
   14.1140   18.6040   30.3820 C   0  0  0  0  0  0  0  0  0  0  0  0
   13.2030   18.3000   29.3580 C   0  0  0  0  0  0  0  0  0  0  0  0
   13.6670   18.0450   28.0500 C   0  0  0  0  0  0  0  0  0  0  0  0
   15.7740   17.8710   26.5150 C   0  0  0  0  0  0  0  0  0  0  0  0
   17.0550   18.0650   26.8930 C   0  0  0  0  0  0  0  0  0  0  0  0
   17.1600   18.3920   28.3130 N   0  0  0  0  0  0  0  0  0  0  0  0
   13.7430   17.9400   23.2840 C   0  0  0  0  0  0  0  0  0  0  0  0
   14.2400   18.3240   24.5360 C   0  0  0  0  0  0  0  0  0  0  0  0
   15.1860   17.5090   25.1670 C   0  0  0  0  0  0  0  0  0  0  0  0
   15.6240   16.3280   24.5500 C   0  0  0  0  0  0  0  0  0  0  0  0
   15.1300   15.9530   23.3140 C   0  0  0  0  0  0  0  0  0  0  0  0
   14.1960   16.7510   22.6790 C   0  0  0  0  0  0  0  0  0  0  0  0
   13.7220   16.3700   21.4640 F   0  0  0  0  0  0  0  0  0  0  0  0
   18.7480   12.3790   21.7650 O   0  0  0  0  0  0  0  0  0  0  0  0
   17.5700   12.6400   23.6940 O   0  0  0  0  0  0  0  0  0  0  0  0
   19.2930   15.6680   22.5770 O   0  0  0  0  0  0  0  0  0  0  0  0
   18.6670   12.7990   22.9120 C   0  0  0  0  0  0  0  0  0  0  0  0
   19.7850   13.5640   23.6200 C   0  0  0  0  0  0  0  0  0  0  0  0
   19.4630   15.0580   23.8520 C   0  0  1  0  0  0  0  0  0  0  0  0
   20.6020   15.7970   24.5810 C   0  0  0  0  0  0  0  0  0  0  0  0
   20.2530   17.2520   24.9440 C   0  0  1  0  0  0  0  0  0  0  0  0
   19.2230   17.2960   26.0410 C   0  0  0  0  0  0  0  0  0  0  0  0
   18.0650   17.9450   25.9980 C   0  0  0  0  0  0  0  0  0  0  0  0
   18.4780   18.6070   29.0610 C   0  0  1  0  0  0  0  0  0  0  0  0
   18.4960   19.9500   29.8140 C   0  0  0  0  0  0  0  0  0  0  0  0
   18.7750   17.4440   30.0390 C   0  0  0  0  0  0  0  0  0  0  0  0
   21.4500   17.8740   25.3480 O   0  0  0  0  0  0  0  0  0  0  0  0
   52.4920   13.9940   21.8120 C   0  0  0  0  0  0  0  0  0  0  0  0
   51.8820   15.2240   21.9500 C   0  0  0  0  0  0  0  0  0  0  0  0
   52.6160   16.4090   21.6950 C   0  0  0  0  0  0  0  0  0  0  0  0
   53.9630   16.3230   21.3030 C   0  0  0  0  0  0  0  0  0  0  0  0
   54.5740   15.0640   21.1670 C   0  0  0  0  0  0  0  0  0  0  0  0
   53.8410   13.8860   21.4220 C   0  0  0  0  0  0  0  0  0  0  0  0
   51.5010   12.9090   22.1370 C   0  0  0  0  0  0  0  0  0  0  0  0
   50.4030   13.6370   22.4320 C   0  0  0  0  0  0  0  0  0  0  0  0
   50.6540   15.0770   22.3130 N   0  0  0  0  0  0  0  0  0  0  0  0
   52.8750    9.3770   22.7810 C   0  0  0  0  0  0  0  0  0  0  0  0
   52.7620   10.7820   22.8060 C   0  0  0  0  0  0  0  0  0  0  0  0
   51.6990   11.3940   22.1300 C   0  0  0  0  0  0  0  0  0  0  0  0
   50.7660   10.6070   21.4440 C   0  0  0  0  0  0  0  0  0  0  0  0
   50.8770    9.2220   21.4170 C   0  0  0  0  0  0  0  0  0  0  0  0
   51.9240    8.6030   22.0820 C   0  0  0  0  0  0  0  0  0  0  0  0
   52.0170    7.2450   22.0510 F   0  0  0  0  0  0  0  0  0  0  0  0
   46.1230    7.8950   19.4760 O   0  0  0  0  0  0  0  0  0  0  0  0
   47.6340    9.3980   18.6750 O   0  0  0  0  0  0  0  0  0  0  0  0
   46.6750    9.7320   22.2520 O   0  0  0  0  0  0  0  0  0  0  0  0
   46.5360    9.0460   19.3890 C   0  0  0  0  0  0  0  0  0  0  0  0
   45.8780   10.2360   20.0580 C   0  0  0  0  0  0  0  0  0  0  0  0
   46.6450   10.7660   21.2790 C   0  0  1  0  0  0  0  0  0  0  0  0
   45.9550   11.9830   21.9010 C   0  0  0  0  0  0  0  0  0  0  0  0
   46.7320   12.5930   23.0830 C   0  0  1  0  0  0  0  0  0  0  0  0
   47.9450   13.3620   22.6060 C   0  0  0  0  0  0  0  0  0  0  0  0
   49.2280   13.0280   22.7970 C   0  0  0  0  0  0  0  0  0  0  0  0
   49.6190   16.1680   22.5770 C   0  0  1  0  0  0  0  0  0  0  0  0
   50.0880   17.1810   23.6280 C   0  0  0  0  0  0  0  0  0  0  0  0
   49.2270   16.8890   21.2720 C   0  0  0  0  0  0  0  0  0  0  0  0
   45.8440   13.4540   23.7640 O   0  0  0  0  0  0  0  0  0  0  0  0
   17.8659  -23.9578   16.5461 H   0  0  0  0  0  0  0  0  0  0  0  0
   18.4859  -26.0752   15.1742 H   0  0  0  0  0  0  0  0  0  0  0  0
   16.0713  -25.1044   14.4422 H   0  0  0  0  0  0  0  0  0  0  0  0
   17.0263  -26.7185   14.4888 H   0  0  0  0  0  0  0  0  0  0  0  0
   14.9917  -25.7756   16.0461 H   0  0  0  0  0  0  0  0  0  0  0  0
   16.0183  -27.3489   15.9962 H   0  0  0  0  0  0  0  0  0  0  0  0
   15.6844  -25.4683   17.9460 H   0  0  0  0  0  0  0  0  0  0  0  0
   16.6730  -27.0608   17.7714 H   0  0  0  0  0  0  0  0  0  0  0  0
   18.3280  -26.0559   18.1844 H   0  0  0  0  0  0  0  0  0  0  0  0
   17.3786  -24.4464   18.1457 H   0  0  0  0  0  0  0  0  0  0  0  0
   20.2479  -25.1424   16.4208 H   0  0  0  0  0  0  0  0  0  0  0  0
   20.4187  -24.9951   15.0901 H   0  0  0  0  0  0  0  0  0  0  0  0
   21.3595  -24.4620   20.5584 H   0  0  0  0  0  0  0  0  0  0  0  0
   22.8298  -24.7168   19.4165 H   0  0  0  0  0  0  0  0  0  0  0  0
   21.6095  -25.4312   18.0312 H   0  0  0  0  0  0  0  0  0  0  0  0
   20.1306  -24.9785   19.0915 H   0  0  0  0  0  0  0  0  0  0  0  0
   19.6860  -23.5582   18.2268 H   0  0  0  0  0  0  0  0  0  0  0  0
   21.4655  -22.1274   16.7707 H   0  0  0  0  0  0  0  0  0  0  0  0
   19.9942  -21.8757   17.9144 H   0  0  0  0  0  0  0  0  0  0  0  0
   22.6564  -21.4922   18.2805 H   0  0  0  0  0  0  0  0  0  0  0  0
   21.1110  -21.2818   19.3269 H   0  0  0  0  0  0  0  0  0  0  0  0
   23.1174  -23.0578   19.0774 H   0  0  0  0  0  0  0  0  0  0  0  0
   23.2838  -17.1738   17.7999 H   0  0  0  0  0  0  0  0  0  0  0  0
   21.4102  -17.9139   18.0194 H   0  0  0  0  0  0  0  0  0  0  0  0
   23.5934  -20.1897   16.3313 H   0  0  0  0  0  0  0  0  0  0  0  0
   22.7542  -18.6896   16.6970 H   0  0  0  0  0  0  0  0  0  0  0  0
   21.3257  -17.9389   14.4847 H   0  0  0  0  0  0  0  0  0  0  0  0
   23.1557  -17.8576   14.3976 H   0  0  0  0  0  0  0  0  0  0  0  0
   21.5263  -20.2285   15.3749 H   0  0  0  0  0  0  0  0  0  0  0  0
   21.3355  -19.9092   12.9328 H   0  0  0  0  0  0  0  0  0  0  0  0
   23.1543  -19.8414   12.8311 H   0  0  0  0  0  0  0  0  0  0  0  0
   23.1672  -22.2048   13.8277 H   0  0  0  0  0  0  0  0  0  0  0  0
   20.4771  -21.5955   14.1067 H   0  0  0  0  0  0  0  0  0  0  0  0
   20.7978  -22.9886   12.8052 H   0  0  0  0  0  0  0  0  0  0  0  0
   21.4818  -22.9769   15.5011 H   0  0  0  0  0  0  0  0  0  0  0  0
   21.3306  -24.2166   13.9738 H   0  0  0  0  0  0  0  0  0  0  0  0
   19.4944  -23.8514   12.5026 H   0  0  0  0  0  0  0  0  0  0  0  0
   18.5131  -26.5655   12.7903 H   0  0  0  0  0  0  0  0  0  0  0  0
   17.6493  -25.7458   11.4454 H   0  0  0  0  0  0  0  0  0  0  0  0
   19.4439  -25.8227   11.4454 H   0  0  0  0  0  0  0  0  0  0  0  0
   16.8926  -23.2160   13.4957 H   0  0  0  0  0  0  0  0  0  0  0  0
   17.6522  -22.6489   11.9699 H   0  0  0  0  0  0  0  0  0  0  0  0
   16.6322  -24.1275   11.9699 H   0  0  0  0  0  0  0  0  0  0  0  0
   23.1793  -22.8257   11.7705 H   0  0  0  0  0  0  0  0  0  0  0  0
   35.3802   -7.0941  -12.4255 H   0  0  0  0  0  0  0  0  0  0  0  0
   33.9291   -8.8616  -13.6556 H   0  0  0  0  0  0  0  0  0  0  0  0
   36.3440   -9.8662  -12.9862 H   0  0  0  0  0  0  0  0  0  0  0  0
   34.9815  -10.0947  -14.2573 H   0  0  0  0  0  0  0  0  0  0  0  0
   37.4553   -8.9505  -14.4454 H   0  0  0  0  0  0  0  0  0  0  0  0
   36.0203   -9.2305  -15.6253 H   0  0  0  0  0  0  0  0  0  0  0  0
   37.2442   -6.9485  -14.7720 H   0  0  0  0  0  0  0  0  0  0  0  0
   35.8245   -7.3558  -15.9351 H   0  0  0  0  0  0  0  0  0  0  0  0
   34.6313   -6.1984  -14.8572 H   0  0  0  0  0  0  0  0  0  0  0  0
   35.9891   -5.9657  -13.5880 H   0  0  0  0  0  0  0  0  0  0  0  0
   32.7704   -6.9389  -12.9575 H   0  0  0  0  0  0  0  0  0  0  0  0
   32.4123   -8.0378  -12.2604 H   0  0  0  0  0  0  0  0  0  0  0  0
   32.6025   -2.7465  -13.8625 H   0  0  0  0  0  0  0  0  0  0  0  0
   30.9660   -3.4271  -13.2330 H   0  0  0  0  0  0  0  0  0  0  0  0
   31.6365   -5.2591  -13.5213 H   0  0  0  0  0  0  0  0  0  0  0  0
   33.3361   -4.5773  -13.9386 H   0  0  0  0  0  0  0  0  0  0  0  0
   34.0757   -4.9367  -12.4359 H   0  0  0  0  0  0  0  0  0  0  0  0
   32.6604   -5.1832  -10.1486 H   0  0  0  0  0  0  0  0  0  0  0  0
   34.2970   -4.5021  -10.7799 H   0  0  0  0  0  0  0  0  0  0  0  0
   32.0081   -3.2653   -9.9873 H   0  0  0  0  0  0  0  0  0  0  0  0
   33.6832   -2.7074  -10.6236 H   0  0  0  0  0  0  0  0  0  0  0  0
   31.1906   -3.0156  -11.5890 H   0  0  0  0  0  0  0  0  0  0  0  0
   32.6473   -3.5366   -4.0012 H   0  0  0  0  0  0  0  0  0  0  0  0
   34.8459   -3.6602   -6.0416 H   0  0  0  0  0  0  0  0  0  0  0  0
   30.4356   -5.0073   -6.5689 H   0  0  0  0  0  0  0  0  0  0  0  0
   32.2726   -3.8990   -6.4608 H   0  0  0  0  0  0  0  0  0  0  0  0
   33.4437   -6.2113   -5.4123 H   0  0  0  0  0  0  0  0  0  0  0  0
   31.7438   -5.6825   -4.9741 H   0  0  0  0  0  0  0  0  0  0  0  0
   32.8394   -5.9744   -7.7986 H   0  0  0  0  0  0  0  0  0  0  0  0
   32.5243   -8.1548   -6.6788 H   0  0  0  0  0  0  0  0  0  0  0  0
   30.8296   -7.6452   -6.2327 H   0  0  0  0  0  0  0  0  0  0  0  0
   30.3919   -7.4166   -8.7552 H   0  0  0  0  0  0  0  0  0  0  0  0
   33.1300   -7.9138   -8.7881 H   0  0  0  0  0  0  0  0  0  0  0  0
   32.0990   -9.3541   -9.5449 H   0  0  0  0  0  0  0  0  0  0  0  0
   32.1561   -6.6802  -10.3501 H   0  0  0  0  0  0  0  0  0  0  0  0
   31.5458   -8.4545  -10.9861 H   0  0  0  0  0  0  0  0  0  0  0  0
   32.7797  -10.3642  -10.8037 H   0  0  0  0  0  0  0  0  0  0  0  0
   33.2109  -12.4205  -12.0487 H   0  0  0  0  0  0  0  0  0  0  0  0
   32.6005  -11.1243  -13.1323 H   0  0  0  0  0  0  0  0  0  0  0  0
   34.3464  -11.5469  -13.1323 H   0  0  0  0  0  0  0  0  0  0  0  0
   34.5630  -10.7324   -9.4432 H   0  0  0  0  0  0  0  0  0  0  0  0
   35.1155  -11.8944  -10.6967 H   0  0  0  0  0  0  0  0  0  0  0  0
   35.7387  -10.2097  -10.6967 H   0  0  0  0  0  0  0  0  0  0  0  0
   30.4103   -9.4624   -7.0216 H   0  0  0  0  0  0  0  0  0  0  0  0
   15.1323   17.0325   28.0405 H   0  0  0  0  0  0  0  0  0  0  0  0
   15.8617   19.4707   28.5513 H   0  0  0  0  0  0  0  0  0  0  0  0
   15.9820   17.9200   30.7576 H   0  0  0  0  0  0  0  0  0  0  0  0
   15.7488   19.7146   30.2591 H   0  0  0  0  0  0  0  0  0  0  0  0
   13.9771   17.8441   31.1655 H   0  0  0  0  0  0  0  0  0  0  0  0
   13.8678   19.6444   30.6406 H   0  0  0  0  0  0  0  0  0  0  0  0
   12.6524   17.4036   29.6794 H   0  0  0  0  0  0  0  0  0  0  0  0
   12.6315   19.2330   29.2447 H   0  0  0  0  0  0  0  0  0  0  0  0
   13.1870   18.7805   27.3876 H   0  0  0  0  0  0  0  0  0  0  0  0
   13.4088   16.9898   27.8773 H   0  0  0  0  0  0  0  0  0  0  0  0
   15.6840   18.9399   26.2715 H   0  0  0  0  0  0  0  0  0  0  0  0
   16.9637   19.1347   26.6534 H   0  0  0  0  0  0  0  0  0  0  0  0
   12.6523   17.8459   23.3910 H   0  0  0  0  0  0  0  0  0  0  0  0
   14.1203   18.7245   22.6116 H   0  0  0  0  0  0  0  0  0  0  0  0
   14.7003   19.3151   24.4104 H   0  0  0  0  0  0  0  0  0  0  0  0
   13.3622   18.2714   25.1969 H   0  0  0  0  0  0  0  0  0  0  0  0
   14.3767   16.9576   25.6681 H   0  0  0  0  0  0  0  0  0  0  0  0
   16.7147   16.4173   24.4387 H   0  0  0  0  0  0  0  0  0  0  0  0
   15.2368   15.5440   25.2174 H   0  0  0  0  0  0  0  0  0  0  0  0
   15.9930   15.8714   22.6369 H   0  0  0  0  0  0  0  0  0  0  0  0
   14.5733   15.0292   23.5300 H   0  0  0  0  0  0  0  0  0  0  0  0
   15.0068   17.3095   22.1884 H   0  0  0  0  0  0  0  0  0  0  0  0
   18.9354   11.4071   21.7819 H   0  0  0  0  0  0  0  0  0  0  0  0
   17.8356   12.6785   24.6469 H   0  0  0  0  0  0  0  0  0  0  0  0
   19.0292   16.6147   22.6966 H   0  0  0  0  0  0  0  0  0  0  0  0
   18.2608   13.7493   22.5353 H   0  0  0  0  0  0  0  0  0  0  0  0
   19.9650   13.0914   24.5969 H   0  0  0  0  0  0  0  0  0  0  0  0
   20.6683   13.5226   22.9657 H   0  0  0  0  0  0  0  0  0  0  0  0
   18.5598   15.1218   24.4767 H   0  0  0  0  0  0  0  0  0  0  0  0
   20.8337   15.2523   25.5082 H   0  0  0  0  0  0  0  0  0  0  0  0
   21.4597   15.8307   23.8931 H   0  0  0  0  0  0  0  0  0  0  0  0
   19.8184   17.7769   24.0805 H   0  0  0  0  0  0  0  0  0  0  0  0
   18.9580   16.2453   26.2303 H   0  0  0  0  0  0  0  0  0  0  0  0
   19.7580   17.9149   26.7763 H   0  0  0  0  0  0  0  0  0  0  0  0
   17.5710   17.5309   25.1066 H   0  0  0  0  0  0  0  0  0  0  0  0
   18.4831   18.9510   26.1500 H   0  0  0  0  0  0  0  0  0  0  0  0
   19.2709   18.6304   28.2989 H   0  0  0  0  0  0  0  0  0  0  0  0
   18.4935   19.7627   30.8979 H   0  0  0  0  0  0  0  0  0  0  0  0
   19.4017   20.5113   29.5410 H   0  0  0  0  0  0  0  0  0  0  0  0
   17.6056   20.5354   29.5410 H   0  0  0  0  0  0  0  0  0  0  0  0
   18.6832   17.8033   31.0746 H   0  0  0  0  0  0  0  0  0  0  0  0
   18.0562   16.6290   29.8686 H   0  0  0  0  0  0  0  0  0  0  0  0
   19.7966   17.0735   29.8686 H   0  0  0  0  0  0  0  0  0  0  0  0
   21.4929   17.8963   26.3368 H   0  0  0  0  0  0  0  0  0  0  0  0
   52.1841   13.9597   20.7565 H   0  0  0  0  0  0  0  0  0  0  0  0
   52.1917   15.2592   23.0049 H   0  0  0  0  0  0  0  0  0  0  0  0
   52.0850   16.9474   20.8961 H   0  0  0  0  0  0  0  0  0  0  0  0
   52.6665   16.8960   22.6800 H   0  0  0  0  0  0  0  0  0  0  0  0
   54.0425   16.8224   20.3261 H   0  0  0  0  0  0  0  0  0  0  0  0
   54.5027   16.7776   22.1468 H   0  0  0  0  0  0  0  0  0  0  0  0
   54.9303   14.9961   20.1285 H   0  0  0  0  0  0  0  0  0  0  0  0
   55.3297   15.0657   21.9663 H   0  0  0  0  0  0  0  0  0  0  0  0
   54.3664   13.3462   22.2236 H   0  0  0  0  0  0  0  0  0  0  0  0
   53.7942   13.3864   20.4431 H   0  0  0  0  0  0  0  0  0  0  0  0
   51.8082   12.9446   23.1926 H   0  0  0  0  0  0  0  0  0  0  0  0
   50.7092   13.6709   23.4880 H   0  0  0  0  0  0  0  0  0  0  0  0
   53.8567    9.1456   22.3420 H   0  0  0  0  0  0  0  0  0  0  0  0
   52.7092    9.0923   23.8305 H   0  0  0  0  0  0  0  0  0  0  0  0
   52.6851   11.0795   23.8622 H   0  0  0  0  0  0  0  0  0  0  0  0
   53.6524   11.1259   22.2593 H   0  0  0  0  0  0  0  0  0  0  0  0
   52.3222   11.4796   21.2276 H   0  0  0  0  0  0  0  0  0  0  0  0
   49.7834   10.8330   21.8838 H   0  0  0  0  0  0  0  0  0  0  0  0
   50.9434   10.8833   20.3942 H   0  0  0  0  0  0  0  0  0  0  0  0
   49.9462    8.8192   21.8430 H   0  0  0  0  0  0  0  0  0  0  0  0
   51.0809    9.0024   20.3586 H   0  0  0  0  0  0  0  0  0  0  0  0
   51.3083    8.5384   22.9912 H   0  0  0  0  0  0  0  0  0  0  0  0
   46.0342    7.6475   20.4304 H   0  0  0  0  0  0  0  0  0  0  0  0
   48.3691    9.6337   19.2948 H   0  0  0  0  0  0  0  0  0  0  0  0
   46.6634   10.1310   23.1580 H   0  0  0  0  0  0  0  0  0  0  0  0
   47.1646    8.8876   20.2777 H   0  0  0  0  0  0  0  0  0  0  0  0
   45.7980   11.0478   19.3200 H   0  0  0  0  0  0  0  0  0  0  0  0
   44.8964    9.8964   20.4201 H   0  0  0  0  0  0  0  0  0  0  0  0
   47.6527   11.0678   20.9572 H   0  0  0  0  0  0  0  0  0  0  0  0
   45.8416   12.7536   21.1243 H   0  0  0  0  0  0  0  0  0  0  0  0
   44.9863   11.6400   22.2934 H   0  0  0  0  0  0  0  0  0  0  0  0
   47.0985   11.7955   23.7460 H   0  0  0  0  0  0  0  0  0  0  0  0
   47.8277   13.4317   21.5145 H   0  0  0  0  0  0  0  0  0  0  0  0
   47.8827   14.2322   23.2760 H   0  0  0  0  0  0  0  0  0  0  0  0
   49.3042   12.0288   22.3434 H   0  0  0  0  0  0  0  0  0  0  0  0
   49.2704   13.3071   23.8602 H   0  0  0  0  0  0  0  0  0  0  0  0
   48.7301   15.6637   22.9839 H   0  0  0  0  0  0  0  0  0  0  0  0
   49.9015   16.7781   24.6344 H   0  0  0  0  0  0  0  0  0  0  0  0
   51.1645   17.3685   23.5018 H   0  0  0  0  0  0  0  0  0  0  0  0
   49.5345   18.1232   23.5018 H   0  0  0  0  0  0  0  0  0  0  0  0
   48.7144   17.8318   21.5137 H   0  0  0  0  0  0  0  0  0  0  0  0
   50.1325   17.1038   20.6856 H   0  0  0  0  0  0  0  0  0  0  0  0
   48.5544   16.2458   20.6856 H   0  0  0  0  0  0  0  0  0  0  0  0
   45.9597   13.3419   24.7408 H   0  0  0  0  0  0  0  0  0  0  0  0
  1  2  1  0
  2  3  1  0
  3  4  1  0
  4  5  1  0
  1  6  1  0
  5  6  1  0
  1  7  1  0
  7  8  1  0
  2  9  1  0
  8  9  1  0
 10 11  1  0
  7 12  1  0
 11 12  1  0
 12 13  1  0
 13 14  1  0
 10 15  1  0
 14 15  1  0
 15 16  1  0
 17 20  1  0
 18 20  1  0
 20 21  1  0
 19 22  1  0
 21 22  1  0
 22 23  1  0
 23 24  1  0
 24 25  1  0
  8 26  1  0
 25 26  1  0
  9 27  1  0
 27 28  1  0
 27 29  1  0
 24 30  1  0
 31 32  1  0
 32 33  1  0
 33 34  1  0
 34 35  1  0
 31 36  1  0
 35 36  1  0
 31 37  1  0
 37 38  1  0
 32 39  1  0
 38 39  1  0
 40 41  1  0
 37 42  1  0
 41 42  1  0
 42 43  1  0
 43 44  1  0
 40 45  1  0
 44 45  1  0
 45 46  1  0
 47 50  1  0
 48 50  1  0
 50 51  1  0
 49 52  1  0
 51 52  1  0
 52 53  1  0
 53 54  1  0
 54 55  1  0
 38 56  1  0
 55 56  1  0
 39 57  1  0
 57 58  1  0
 57 59  1  0
 54 60  1  0
 61 62  1  0
 62 63  1  0
 63 64  1  0
 64 65  1  0
 61 66  1  0
 65 66  1  0
 61 67  1  0
 67 68  1  0
 62 69  1  0
 68 69  1  0
 70 71  1  0
 67 72  1  0
 71 72  1  0
 72 73  1  0
 73 74  1  0
 70 75  1  0
 74 75  1  0
 75 76  1  0
 77 80  1  0
 78 80  1  0
 80 81  1  0
 79 82  1  0
 81 82  1  0
 82 83  1  0
 83 84  1  0
 84 85  1  0
 68 86  1  0
 85 86  1  0
 69 87  1  0
 87 88  1  0
 87 89  1  0
 84 90  1  0
 91 92  1  0
 92 93  1  0
 93 94  1  0
 94 95  1  0
 91 96  1  0
 95 96  1  0
 91 97  1  0
 97 98  1  0
 92 99  1  0
 98 99  1  0
100101  1  0
 97102  1  0
101102  1  0
102103  1  0
103104  1  0
100105  1  0
104105  1  0
105106  1  0
107110  1  0
108110  1  0
110111  1  0
109112  1  0
111112  1  0
112113  1  0
113114  1  0
114115  1  0
 98116  1  0
115116  1  0
 99117  1  0
117118  1  0
117119  1  0
114120  1  0
  1121  1  0
  2122  1  0
  3123  1  0
  3124  1  0
  4125  1  0
  4126  1  0
  5127  1  0
  5128  1  0
  6129  1  0
  6130  1  0
  7131  1  0
  8132  1  0
 10133  1  0
 10134  1  0
 11135  1  0
 11136  1  0
 12137  1  0
 13138  1  0
 13139  1  0
 14140  1  0
 14141  1  0
 15142  1  0
 17143  1  0
 18144  1  0
 19145  1  0
 20146  1  0
 21147  1  0
 21148  1  0
 22149  1  1
 23150  1  0
 23151  1  0
 24152  1  1
 25153  1  0
 25154  1  0
 26155  1  0
 26156  1  0
 27157  1  6
 28158  1  0
 28159  1  0
 28160  1  0
 29161  1  0
 29162  1  0
 29163  1  0
 30164  1  0
 31165  1  0
 32166  1  0
 33167  1  0
 33168  1  0
 34169  1  0
 34170  1  0
 35171  1  0
 35172  1  0
 36173  1  0
 36174  1  0
 37175  1  0
 38176  1  0
 40177  1  0
 40178  1  0
 41179  1  0
 41180  1  0
 42181  1  0
 43182  1  0
 43183  1  0
 44184  1  0
 44185  1  0
 45186  1  0
 47187  1  0
 48188  1  0
 49189  1  0
 50190  1  0
 51191  1  0
 51192  1  0
 52193  1  6
 53194  1  0
 53195  1  0
 54196  1  6
 55197  1  0
 55198  1  0
 56199  1  0
 56200  1  0
 57201  1  1
 58202  1  0
 58203  1  0
 58204  1  0
 59205  1  0
 59206  1  0
 59207  1  0
 60208  1  0
 61209  1  0
 62210  1  0
 63211  1  0
 63212  1  0
 64213  1  0
 64214  1  0
 65215  1  0
 65216  1  0
 66217  1  0
 66218  1  0
 67219  1  0
 68220  1  0
 70221  1  0
 70222  1  0
 71223  1  0
 71224  1  0
 72225  1  0
 73226  1  0
 73227  1  0
 74228  1  0
 74229  1  0
 75230  1  0
 77231  1  0
 78232  1  0
 79233  1  0
 80234  1  0
 81235  1  0
 81236  1  0
 82237  1  1
 83238  1  0
 83239  1  0
 84240  1  6
 85241  1  0
 85242  1  0
 86243  1  0
 86244  1  0
 87245  1  6
 88246  1  0
 88247  1  0
 88248  1  0
 89249  1  0
 89250  1  0
 89251  1  0
 90252  1  0
 91253  1  0
 92254  1  0
 93255  1  0
 93256  1  0
 94257  1  0
 94258  1  0
 95259  1  0
 95260  1  0
 96261  1  0
 96262  1  0
 97263  1  0
 98264  1  0
100265  1  0
100266  1  0
101267  1  0
101268  1  0
102269  1  0
103270  1  0
103271  1  0
104272  1  0
104273  1  0
105274  1  0
107275  1  0
108276  1  0
109277  1  0
110278  1  0
111279  1  0
111280  1  0
112281  1  6
113282  1  0
113283  1  0
114284  1  1
115285  1  0
115286  1  0
116287  1  0
116288  1  0
117289  1  1
118290  1  0
118291  1  0
118292  1  0
119293  1  0
119294  1  0
119295  1  0
120296  1  0
M  END
>  <PDBID>  (1) 
1HWI

>  <PDB ID>  (1) 
1HWI

>  <Generic Name>  (1) 
Fluvastatin

>  <Brand Name>  (1) 
Fluvastatin#Fluvastatin Sodium#Fluvastatin Sodium ER#Lescol#Lescol 20mg#Lescol 40mg#Lescol XL#Sandoz Fluvastatin#Teva-fluvastatin#Canef#Cranoc

>  <DrugBank ID>  (1) 
DB01095

>  <ATC Codes>  (1) 
C10AA04

>  <Ligand ID>  (1) 
115

>  <Target Name>  (1) 
3-hydroxy-3-methylglutaryl-coenzyme A reductase

>  <UniProt ID>  (1) 
P04035

>  <PDB ID.1>  (1) 
1HWI

>  <Seq. Identity>  (1) 
97%

$$$$
