PDB_DB00452_96
     RDKit          3D

 88 91  0  0  0  0  0  0  0  0999 V2000
   44.5620  149.3840  -95.7800 C   0  0  2  0  0  0  0  0  0  0  0  0
   45.4420  149.0520  -96.8840 O   0  0  0  0  0  0  0  0  0  0  0  0
   43.9640  150.8100  -95.9470 C   0  0  2  0  0  0  0  0  0  0  0  0
   43.2780  150.9450  -97.2620 N   0  0  0  0  0  0  0  0  0  0  0  0
   45.1020  151.9070  -95.7740 C   0  0  1  0  0  0  0  0  0  0  0  0
   44.5600  153.2430  -95.9080 O   0  0  0  0  0  0  0  0  0  0  0  0
   45.7790  151.7410  -94.3730 C   0  0  2  0  0  0  0  0  0  0  0  0
   46.7910  152.7280  -94.2010 O   0  0  0  0  0  0  0  0  0  0  0  0
   46.3780  150.2900  -94.2400 C   0  0  2  0  0  0  0  0  0  0  0  0
   45.2690  149.3120  -94.4570 O   0  0  0  0  0  0  0  0  0  0  0  0
   47.0290  150.0810  -92.8310 C   0  0  0  0  0  0  0  0  0  0  0  0
   47.1600  145.4400  -98.6360 C   0  0  1  0  0  0  0  0  0  0  0  0
   47.7610  144.0850  -98.7580 N   0  0  0  0  0  0  0  0  0  0  0  0
   45.7010  145.4110  -98.0360 C   0  0  1  0  0  0  0  0  0  0  0  0
   45.1030  146.8380  -97.9080 C   0  0  1  0  0  0  0  0  0  0  0  0
   43.7880  146.7790  -97.2930 O   0  0  0  0  0  0  0  0  0  0  0  0
   46.0030  147.6910  -96.9840 C   0  0  1  0  0  0  0  0  0  0  0  0
   47.4680  147.7280  -97.5380 C   0  0  1  0  0  0  0  0  0  0  0  0
   48.3400  148.5100  -96.6470 N   0  0  0  0  0  0  0  0  0  0  0  0
   48.0700  146.2890  -97.6860 C   0  0  0  0  0  0  0  0  0  0  0  0
   42.6090  146.6910  -98.1180 C   0  0  1  0  0  0  0  0  0  0  0  0
   41.3370  146.7060  -97.3200 C   0  0  1  0  0  0  0  0  0  0  0  0
   40.2880  146.9430  -98.4620 C   0  0  1  0  0  0  0  0  0  0  0  0
   40.9780  147.9400  -99.3920 C   0  0  2  0  0  0  0  0  0  0  0  0
   42.4290  147.7580  -99.1220 O   0  0  0  0  0  0  0  0  0  0  0  0
   40.5910  149.3930  -99.1460 C   0  0  0  0  0  0  0  0  0  0  0  0
   38.5640  142.3130  -99.7990 C   0  0  1  0  0  0  0  0  0  0  0  0
   38.9570  142.8940  -98.3870 C   0  0  1  0  0  0  0  0  0  0  0  0
   38.2620  144.2460  -98.1220 C   0  0  2  0  0  0  0  0  0  0  0  0
   38.6460  145.2630  -99.2410 C   0  0  1  0  0  0  0  0  0  0  0  0
   39.9980  145.7000  -99.2210 O   0  0  0  0  0  0  0  0  0  0  0  0
   38.9160  143.3030 -100.9520 C   0  0  1  0  0  0  0  0  0  0  0  0
   38.3150  144.6380 -100.5970 O   0  0  0  0  0  0  0  0  0  0  0  0
   40.4810  143.4000 -101.2010 C   0  0  0  0  0  0  0  0  0  0  0  0
   47.4820  148.6960  -92.6330 N   0  0  0  0  0  0  0  0  0  0  0  0
   41.2240  145.5250  -96.5160 O   0  0  0  0  0  0  0  0  0  0  0  0
   38.6070  141.9820  -97.3870 O   0  0  0  0  0  0  0  0  0  0  0  0
   39.1690  141.0320 -100.1110 O   0  0  0  0  0  0  0  0  0  0  0  0
   41.3220  150.1730 -100.0770 O   0  0  0  0  0  0  0  0  0  0  0  0
   44.8510  144.6570  -98.8850 O   0  0  0  0  0  0  0  0  0  0  0  0
   40.8020  144.3550 -102.3110 N   0  0  0  0  0  0  0  0  0  0  0  0
   38.5930  144.7870  -96.7500 N   0  0  0  0  0  0  0  0  0  0  0  0
   43.7539  148.6378  -95.7944 H   0  0  0  0  0  0  0  0  0  0  0  0
   43.2107  150.9706  -95.1616 H   0  0  0  0  0  0  0  0  0  0  0  0
   42.2786  151.1417  -97.1093 H   0  0  0  0  0  0  0  0  0  0  0  0
   43.7029  151.7185  -97.7931 H   0  0  0  0  0  0  0  0  0  0  0  0
   45.8519  151.7625  -96.5657 H   0  0  0  0  0  0  0  0  0  0  0  0
   44.4040  153.6275  -95.0092 H   0  0  0  0  0  0  0  0  0  0  0  0
   45.0259  151.8804  -93.5834 H   0  0  0  0  0  0  0  0  0  0  0  0
   46.9448  152.8780  -93.2346 H   0  0  0  0  0  0  0  0  0  0  0  0
   47.1688  150.1410  -94.9899 H   0  0  0  0  0  0  0  0  0  0  0  0
   47.8936  150.7544  -92.7359 H   0  0  0  0  0  0  0  0  0  0  0  0
   46.2671  150.3013  -92.0688 H   0  0  0  0  0  0  0  0  0  0  0  0
   47.0924  145.8718  -99.6454 H   0  0  0  0  0  0  0  0  0  0  0  0
   47.9320  143.6994  -97.8183 H   0  0  0  0  0  0  0  0  0  0  0  0
   47.1148  143.4676  -99.2701 H   0  0  0  0  0  0  0  0  0  0  0  0
   45.7677  144.9581  -97.0358 H   0  0  0  0  0  0  0  0  0  0  0  0
   45.0364  147.2760  -98.9149 H   0  0  0  0  0  0  0  0  0  0  0  0
   46.0338  147.2427  -95.9800 H   0  0  0  0  0  0  0  0  0  0  0  0
   47.4202  148.1995  -98.5307 H   0  0  0  0  0  0  0  0  0  0  0  0
   48.1057  148.2999  -95.6662 H   0  0  0  0  0  0  0  0  0  0  0  0
   49.3238  148.2626  -96.8256 H   0  0  0  0  0  0  0  0  0  0  0  0
   48.1186  145.8081  -96.6979 H   0  0  0  0  0  0  0  0  0  0  0  0
   49.0827  146.3561  -98.1103 H   0  0  0  0  0  0  0  0  0  0  0  0
   42.7913  145.7339  -98.6286 H   0  0  0  0  0  0  0  0  0  0  0  0
   41.2255  147.4711  -96.5376 H   0  0  0  0  0  0  0  0  0  0  0  0
   39.3273  147.2916  -98.0552 H   0  0  0  0  0  0  0  0  0  0  0  0
   40.6823  147.7444 -100.4333 H   0  0  0  0  0  0  0  0  0  0  0  0
   39.5108  149.5293  -99.3029 H   0  0  0  0  0  0  0  0  0  0  0  0
   40.8193  149.6936  -98.1128 H   0  0  0  0  0  0  0  0  0  0  0  0
   37.4761  142.1665  -99.7275 H   0  0  0  0  0  0  0  0  0  0  0  0
   40.0444  143.0597  -98.3773 H   0  0  0  0  0  0  0  0  0  0  0  0
   37.1738  144.0871  -98.1442 H   0  0  0  0  0  0  0  0  0  0  0  0
   38.0558  146.1721  -99.0535 H   0  0  0  0  0  0  0  0  0  0  0  0
   38.4966  142.9399 -101.9019 H   0  0  0  0  0  0  0  0  0  0  0  0
   40.9690  143.7472 -100.2783 H   0  0  0  0  0  0  0  0  0  0  0  0
   40.8478  142.4030 -101.4863 H   0  0  0  0  0  0  0  0  0  0  0  0
   47.5471  148.4969  -91.6245 H   0  0  0  0  0  0  0  0  0  0  0  0
   46.8088  148.0491  -93.0679 H   0  0  0  0  0  0  0  0  0  0  0  0
   41.2479  145.7743  -95.5582 H   0  0  0  0  0  0  0  0  0  0  0  0
   38.7636  142.3901  -96.4987 H   0  0  0  0  0  0  0  0  0  0  0  0
   39.3924  140.5591  -99.2704 H   0  0  0  0  0  0  0  0  0  0  0  0
   41.9114  150.8019  -99.5899 H   0  0  0  0  0  0  0  0  0  0  0  0
   44.2353  144.1108  -98.3348 H   0  0  0  0  0  0  0  0  0  0  0  0
   41.1046  145.2553 -101.9126 H   0  0  0  0  0  0  0  0  0  0  0  0
   41.5581  143.9650 -102.8916 H   0  0  0  0  0  0  0  0  0  0  0  0
   38.2081  144.1580  -96.0309 H   0  0  0  0  0  0  0  0  0  0  0  0
   39.6156  144.8469  -96.6421 H   0  0  0  0  0  0  0  0  0  0  0  0
  2  1  1  0
  3  1  1  0
  4  3  1  0
  5  3  1  0
  6  5  1  0
  7  5  1  0
  8  7  1  0
  9  7  1  0
 10  9  1  0
 10  1  1  0
 11  9  1  0
 13 12  1  0
 14 12  1  0
 15 14  1  0
 16 15  1  0
 17 15  1  0
 17  2  1  0
 18 17  1  0
 19 18  1  0
 20 12  1  0
 20 18  1  0
 21 16  1  0
 22 21  1  0
 23 22  1  0
 24 23  1  0
 25 21  1  0
 25 24  1  0
 26 24  1  0
 28 27  1  0
 29 28  1  0
 30 29  1  0
 31 30  1  0
 31 23  1  0
 32 27  1  0
 33 32  1  0
 33 30  1  0
 34 32  1  0
 35 11  1  0
 36 22  1  0
 37 28  1  0
 38 27  1  0
 39 26  1  0
 40 14  1  0
 41 34  1  0
 42 29  1  0
  1 43  1  1
  3 44  1  1
  4 45  1  0
  4 46  1  0
  5 47  1  6
  6 48  1  0
  7 49  1  1
  8 50  1  0
  9 51  1  6
 11 52  1  0
 11 53  1  0
 12 54  1  6
 13 55  1  0
 13 56  1  0
 14 57  1  1
 15 58  1  6
 17 59  1  1
 18 60  1  6
 19 61  1  0
 19 62  1  0
 20 63  1  0
 20 64  1  0
 21 65  1  6
 22 66  1  1
 23 67  1  1
 24 68  1  6
 26 69  1  0
 26 70  1  0
 27 71  1  1
 28 72  1  6
 29 73  1  1
 30 74  1  1
 32 75  1  6
 34 76  1  0
 34 77  1  0
 35 78  1  0
 35 79  1  0
 36 80  1  0
 37 81  1  0
 38 82  1  0
 39 83  1  0
 40 84  1  0
 41 85  1  0
 41 86  1  0
 42 87  1  0
 42 88  1  0
M  END
$$$$
