PDB_DB00619_99
     RDKit          3D

 94 98  0  0  0  0  0  0  0  0999 V2000
   32.6960   24.7000   47.5410 C   0  0  0  0  0  0  0  0  0  0  0  0
   31.8180   25.4090   46.7190 C   0  0  0  0  0  0  0  0  0  0  0  0
   30.6070   24.8220   46.3550 C   0  0  0  0  0  0  0  0  0  0  0  0
   30.2890   23.5400   46.7930 C   0  0  0  0  0  0  0  0  0  0  0  0
   31.1560   22.8770   47.5750 N   0  0  0  0  0  0  0  0  0  0  0  0
   32.3300   23.4240   47.9550 C   0  0  0  0  0  0  0  0  0  0  0  0
   29.6570   25.5420   45.4790 C   0  0  0  0  0  0  0  0  0  0  0  0
   29.9720   26.7830   44.9260 C   0  0  0  0  0  0  0  0  0  0  0  0
   29.0340   27.3880   44.0930 C   0  0  0  0  0  0  0  0  0  0  0  0
   27.8540   26.7890   43.8490 N   0  0  0  0  0  0  0  0  0  0  0  0
   27.5660   25.5940   44.4210 C   0  0  0  0  0  0  0  0  0  0  0  0
   28.4650   24.9750   45.2160 N   0  0  0  0  0  0  0  0  0  0  0  0
   26.4040   24.9540   44.2010 N   0  0  0  0  0  0  0  0  0  0  0  0
   25.3470   25.5110   43.5600 C   0  0  0  0  0  0  0  0  0  0  0  0
   24.2990   26.0650   44.2940 C   0  0  0  0  0  0  0  0  0  0  0  0
   23.2070   26.6100   43.6280 C   0  0  0  0  0  0  0  0  0  0  0  0
   23.1490   26.6030   42.2330 C   0  0  0  0  0  0  0  0  0  0  0  0
   24.1950   26.0540   41.4950 C   0  0  1  0  0  0  0  0  0  0  0  0
   25.2830   25.4900   42.1650 C   0  0  0  0  0  0  0  0  0  0  0  0
   24.0610   26.0500   40.0970 N   0  0  0  0  0  0  0  0  0  0  0  0
   24.9820   25.6240   39.2380 C   0  0  0  0  0  0  0  0  0  0  0  0
   24.6520   25.6310   37.7790 C   0  0  0  0  0  0  0  0  0  0  0  0
   25.4430   24.8950   36.8960 C   0  0  0  0  0  0  0  0  0  0  0  0
   25.1350   24.8970   35.5390 C   0  0  0  0  0  0  0  0  0  0  0  0
   24.0400   25.6290   35.0810 C   0  0  0  0  0  0  0  0  0  0  0  0
   23.2420   26.3570   35.9610 C   0  0  0  0  0  0  0  0  0  0  0  0
   23.5530   26.3490   37.3180 C   0  0  0  0  0  0  0  0  0  0  0  0
   23.7080   25.6150   33.6100 C   0  0  0  0  0  0  0  0  0  0  0  0
   23.6120   26.9460   33.0270 N   0  0  0  0  0  0  0  0  0  0  0  0
   24.7780   27.8090   33.1870 C   0  0  0  0  0  0  0  0  0  0  0  0
   24.4070   29.2250   32.7690 C   0  0  0  0  0  0  0  0  0  0  0  0
   23.8580   29.1530   31.4220 N   0  0  0  0  0  0  0  0  0  0  0  0
   23.8300   30.4370   30.7290 C   0  0  0  0  0  0  0  0  0  0  0  0
   22.6960   28.3020   31.1910 C   0  0  0  0  0  0  0  0  0  0  0  0
   22.9660   26.9000   31.7180 C   0  0  0  0  0  0  0  0  0  0  0  0
   26.0670   25.2150   39.5910 O   0  0  0  0  0  0  0  0  0  0  0  0
   24.3250   26.0840   45.8060 C   0  0  0  0  0  0  0  0  0  0  0  0
   33.6466   24.6048   46.9958 H   0  0  0  0  0  0  0  0  0  0  0  0
   32.7290   25.2867   48.4709 H   0  0  0  0  0  0  0  0  0  0  0  0
   31.5772   26.3478   47.2392 H   0  0  0  0  0  0  0  0  0  0  0  0
   32.3630   25.4986   45.7677 H   0  0  0  0  0  0  0  0  0  0  0  0
   31.0822   24.3977   45.4582 H   0  0  0  0  0  0  0  0  0  0  0  0
   29.3460   23.6177   47.3541 H   0  0  0  0  0  0  0  0  0  0  0  0
   30.2688   22.9468   45.8669 H   0  0  0  0  0  0  0  0  0  0  0  0
   30.6485   22.6492   48.4419 H   0  0  0  0  0  0  0  0  0  0  0  0
   33.1196   22.7434   47.6038 H   0  0  0  0  0  0  0  0  0  0  0  0
   32.1958   23.5523   49.0392 H   0  0  0  0  0  0  0  0  0  0  0  0
   29.2261   26.0432   46.3583 H   0  0  0  0  0  0  0  0  0  0  0  0
   30.1610   27.4739   45.7608 H   0  0  0  0  0  0  0  0  0  0  0  0
   30.8301   26.5793   44.2686 H   0  0  0  0  0  0  0  0  0  0  0  0
   28.8048   28.3686   44.5355 H   0  0  0  0  0  0  0  0  0  0  0  0
   29.5281   27.3736   43.1103 H   0  0  0  0  0  0  0  0  0  0  0  0
   27.1199   27.4462   44.1492 H   0  0  0  0  0  0  0  0  0  0  0  0
   27.9826   25.0745   43.5454 H   0  0  0  0  0  0  0  0  0  0  0  0
   28.6631   24.0627   44.7808 H   0  0  0  0  0  0  0  0  0  0  0  0
   26.6462   24.1106   43.6617 H   0  0  0  0  0  0  0  0  0  0  0  0
   24.8336   24.5382   43.5612 H   0  0  0  0  0  0  0  0  0  0  0  0
   24.8009   27.0436   44.2719 H   0  0  0  0  0  0  0  0  0  0  0  0
   22.3189   26.0663   43.9825 H   0  0  0  0  0  0  0  0  0  0  0  0
   23.2833   27.6813   43.8658 H   0  0  0  0  0  0  0  0  0  0  0  0
   22.2399   26.0491   41.9558 H   0  0  0  0  0  0  0  0  0  0  0  0
   23.1896   27.6711   41.9730 H   0  0  0  0  0  0  0  0  0  0  0  0
   24.7036   27.0294   41.4902 H   0  0  0  0  0  0  0  0  0  0  0  0
   26.1811   26.0104   41.8009 H   0  0  0  0  0  0  0  0  0  0  0  0
   25.1829   24.4181   41.9390 H   0  0  0  0  0  0  0  0  0  0  0  0
   23.2240   25.4814   39.9044 H   0  0  0  0  0  0  0  0  0  0  0  0
   24.5874   24.6007   39.3224 H   0  0  0  0  0  0  0  0  0  0  0  0
   25.3048   26.5047   37.6355 H   0  0  0  0  0  0  0  0  0  0  0  0
   26.4703   25.2764   36.9920 H   0  0  0  0  0  0  0  0  0  0  0  0
   25.2695   23.8521   37.1999 H   0  0  0  0  0  0  0  0  0  0  0  0
   26.0199   25.2826   35.0114 H   0  0  0  0  0  0  0  0  0  0  0  0
   24.8479   23.8540   35.3395 H   0  0  0  0  0  0  0  0  0  0  0  0
   23.3936   24.7502   35.2219 H   0  0  0  0  0  0  0  0  0  0  0  0
   23.2706   27.4056   35.6299 H   0  0  0  0  0  0  0  0  0  0  0  0
   22.2658   25.8524   35.9110 H   0  0  0  0  0  0  0  0  0  0  0  0
   22.6719   25.9510   37.8426 H   0  0  0  0  0  0  0  0  0  0  0  0
   23.8339   27.3937   37.5174 H   0  0  0  0  0  0  0  0  0  0  0  0
   24.4947   25.0580   33.0801 H   0  0  0  0  0  0  0  0  0  0  0  0
   22.7207   25.1416   33.5040 H   0  0  0  0  0  0  0  0  0  0  0  0
   25.0969   27.8067   34.2397 H   0  0  0  0  0  0  0  0  0  0  0  0
   25.6026   27.4400   32.5594 H   0  0  0  0  0  0  0  0  0  0  0  0
   23.6558   29.6360   33.4595 H   0  0  0  0  0  0  0  0  0  0  0  0
   25.2900   29.8806   32.7935 H   0  0  0  0  0  0  0  0  0  0  0  0
   23.8122   31.2520   31.4676 H   0  0  0  0  0  0  0  0  0  0  0  0
   24.7263   30.5330   30.0985 H   0  0  0  0  0  0  0  0  0  0  0  0
   22.9304   30.4938   30.0985 H   0  0  0  0  0  0  0  0  0  0  0  0
   21.8247   28.7256   31.7119 H   0  0  0  0  0  0  0  0  0  0  0  0
   22.4951   28.2497   30.1108 H   0  0  0  0  0  0  0  0  0  0  0  0
   23.6226   26.3709   31.0117 H   0  0  0  0  0  0  0  0  0  0  0  0
   22.0053   26.3742   31.8207 H   0  0  0  0  0  0  0  0  0  0  0  0
   26.1080   25.1995   40.5800 H   0  0  0  0  0  0  0  0  0  0  0  0
   23.4942   25.4768   46.1947 H   0  0  0  0  0  0  0  0  0  0  0  0
   25.2798   25.6693   46.1615 H   0  0  0  0  0  0  0  0  0  0  0  0
   24.2200   27.1196   46.1615 H   0  0  0  0  0  0  0  0  0  0  0  0
  1  2  1  0
  2  3  1  0
  3  4  1  0
  4  5  1  0
  1  6  1  0
  5  6  1  0
  3  7  1  0
  7  8  1  0
  8  9  1  0
  9 10  1  0
 10 11  1  0
  7 12  1  0
 11 12  1  0
 11 13  1  0
 13 14  1  0
 14 15  1  0
 15 16  1  0
 16 17  1  0
 17 18  1  0
 14 19  1  0
 18 19  1  0
 18 20  1  0
 20 21  1  0
 21 22  1  0
 22 23  1  0
 23 24  1  0
 24 25  1  0
 25 26  1  0
 22 27  1  0
 26 27  1  0
 25 28  1  0
 28 29  1  0
 29 30  1  0
 30 31  1  0
 31 32  1  0
 32 33  1  0
 32 34  1  0
 29 35  1  0
 34 35  1  0
 21 36  1  0
 15 37  1  0
  1 38  1  0
  1 39  1  0
  2 40  1  0
  2 41  1  0
  3 42  1  0
  4 43  1  0
  4 44  1  0
  5 45  1  0
  6 46  1  0
  6 47  1  0
  7 48  1  0
  8 49  1  0
  8 50  1  0
  9 51  1  0
  9 52  1  0
 10 53  1  0
 11 54  1  0
 12 55  1  0
 13 56  1  0
 14 57  1  0
 15 58  1  0
 16 59  1  0
 16 60  1  0
 17 61  1  0
 17 62  1  0
 18 63  1  6
 19 64  1  0
 19 65  1  0
 20 66  1  0
 21 67  1  0
 22 68  1  0
 23 69  1  0
 23 70  1  0
 24 71  1  0
 24 72  1  0
 25 73  1  0
 26 74  1  0
 26 75  1  0
 27 76  1  0
 27 77  1  0
 28 78  1  0
 28 79  1  0
 30 80  1  0
 30 81  1  0
 31 82  1  0
 31 83  1  0
 33 84  1  0
 33 85  1  0
 33 86  1  0
 34 87  1  0
 34 88  1  0
 35 89  1  0
 35 90  1  0
 36 91  1  0
 37 92  1  0
 37 93  1  0
 37 94  1  0
M  END
>  <PDBID>  (1) 
1T46

>  <PDB ID>  (1) 
1T46

>  <Generic Name>  (1) 
Imatinib

>  <Brand Name>  (1) 
Apo-imatinib#Gleevec#Imatinib Mesylate#Mylan-imatinib#Nat-imatinib#PMS-imatinib#Ran-imatinib#Teva-imatinib#Celonib#Enliven#Glivec#Imatib#Mesylonib#Mitinab#Plivatinib#Shantinib

>  <DrugBank ID>  (1) 
DB00619

>  <ATC Codes>  (1) 
L01XE01

>  <Ligand ID>  (1) 
STI

>  <Target Name>  (1) 
Mast/stem cell growth factor receptor Kit

>  <UniProt ID>  (1) 
P10721

>  <PDB ID.1>  (1) 
1T46

>  <Seq. Identity>  (1) 
90%

$$$$
