PDB_DB01072_97
     RDKit          3D

103105  0  0  0  0  0  0  0  0999 V2000
   20.7340   23.4750    9.2320 C   0  0  0  0  0  0  0  0  0  0  0  0
   21.0810   24.8530    9.3900 O   0  0  0  0  0  0  0  0  0  0  0  0
   21.5960   25.3580   10.6480 C   0  0  0  0  0  0  0  0  0  0  0  0
   21.8310   24.5800   11.5650 O   0  0  0  0  0  0  0  0  0  0  0  0
   21.8050   26.6660   10.7200 N   0  0  0  0  0  0  0  0  0  0  0  0
   22.3140   27.3330   11.9070 C   0  0  1  0  0  0  0  0  0  0  0  0
   23.7220   27.8930   11.6700 C   0  0  0  0  0  0  0  0  0  0  0  0
   24.7030   26.7280   11.5370 C   0  0  0  0  0  0  0  0  0  0  0  0
   23.8190   28.7630   10.4170 C   0  0  0  0  0  0  0  0  0  0  0  0
   24.1400   28.7380   12.8720 C   0  0  0  0  0  0  0  0  0  0  0  0
   21.2880   28.3430   12.3560 C   0  0  0  0  0  0  0  0  0  0  0  0
   21.1160   29.3870   11.7420 O   0  0  0  0  0  0  0  0  0  0  0  0
   20.5650   28.0520   13.4440 N   0  0  0  0  0  0  0  0  0  0  0  0
   19.5270   28.9070   14.0080 C   0  0  1  0  0  0  0  0  0  0  0  0
   18.2010   28.1830   13.7830 C   0  0  0  0  0  0  0  0  0  0  0  0
   17.9890   27.7590   12.3410 C   0  0  0  0  0  0  0  0  0  0  0  0
   17.4460   28.6400   11.4150 C   0  0  0  0  0  0  0  0  0  0  0  0
   17.2490   28.2370   10.0990 C   0  0  0  0  0  0  0  0  0  0  0  0
   17.5900   26.9490    9.6940 C   0  0  0  0  0  0  0  0  0  0  0  0
   18.1330   26.0610   10.6160 C   0  0  0  0  0  0  0  0  0  0  0  0
   18.3210   26.4710   11.9370 C   0  0  0  0  0  0  0  0  0  0  0  0
   19.7420   29.1900   15.5070 C   0  0  1  0  0  0  0  0  0  0  0  0
   19.9670   28.0220   16.2910 O   0  0  0  0  0  0  0  0  0  0  0  0
   20.9700   29.9990   15.8320 C   0  0  0  0  0  0  0  0  0  0  0  0
   20.8690   31.4120   15.4740 N   0  0  0  0  0  0  0  0  0  0  0  0
   19.8860   32.0270   16.1480 N   0  0  0  0  0  0  0  0  0  0  0  0
   18.9560   32.7770   15.5440 C   0  0  0  0  0  0  0  0  0  0  0  0
   18.9320   32.9270   14.3330 O   0  0  0  0  0  0  0  0  0  0  0  0
   17.9460   33.4790   16.4100 C   0  0  2  0  0  0  0  0  0  0  0  0
   16.5010   33.4390   15.9010 C   0  0  0  0  0  0  0  0  0  0  0  0
   16.2520   34.3140   14.6630 C   0  0  0  0  0  0  0  0  0  0  0  0
   16.1180   31.9950   15.5890 C   0  0  0  0  0  0  0  0  0  0  0  0
   15.6170   33.9250   17.0420 C   0  0  0  0  0  0  0  0  0  0  0  0
   18.3790   34.8660   16.5280 N   0  0  0  0  0  0  0  0  0  0  0  0
   18.5720   35.4530   17.6960 C   0  0  0  0  0  0  0  0  0  0  0  0
   18.4140   34.8850   18.7830 O   0  0  0  0  0  0  0  0  0  0  0  0
   19.0030   36.8360   17.6570 O   0  0  0  0  0  0  0  0  0  0  0  0
   19.1700   37.5880   18.8500 C   0  0  0  0  0  0  0  0  0  0  0  0
   22.1780   32.0110   15.8450 C   0  0  0  0  0  0  0  0  0  0  0  0
   22.1500   33.5280   15.8970 C   0  0  0  0  0  0  0  0  0  0  0  0
   22.2870   34.2970   14.7380 C   0  0  0  0  0  0  0  0  0  0  0  0
   22.2550   35.6910   14.8130 C   0  0  0  0  0  0  0  0  0  0  0  0
   21.9850   34.1750   17.1190 C   0  0  0  0  0  0  0  0  0  0  0  0
   21.9500   35.5680   17.1900 C   0  0  0  0  0  0  0  0  0  0  0  0
   22.0800   36.3400   16.0380 C   0  0  0  0  0  0  0  0  0  0  0  0
   22.0340   37.8410   16.1250 C   0  0  0  0  0  0  0  0  0  0  0  0
   21.3440   38.5810   15.1590 C   0  0  0  0  0  0  0  0  0  0  0  0
   21.3040   39.9710   15.2400 C   0  0  0  0  0  0  0  0  0  0  0  0
   21.9460   40.6140   16.2950 C   0  0  0  0  0  0  0  0  0  0  0  0
   22.6140   39.8450   17.2470 C   0  0  0  0  0  0  0  0  0  0  0  0
   22.6390   38.5000   17.1460 N   0  0  0  0  0  0  0  0  0  0  0  0
   20.6170   23.0105   10.2222 H   0  0  0  0  0  0  0  0  0  0  0  0
   19.7880   23.3965    8.6761 H   0  0  0  0  0  0  0  0  0  0  0  0
   21.5300   22.9579    8.6761 H   0  0  0  0  0  0  0  0  0  0  0  0
   21.5954   27.2396    9.8906 H   0  0  0  0  0  0  0  0  0  0  0  0
   22.4525   26.6237   12.7363 H   0  0  0  0  0  0  0  0  0  0  0  0
   24.9964   26.3796   12.5383 H   0  0  0  0  0  0  0  0  0  0  0  0
   24.2222   25.9046   10.9885 H   0  0  0  0  0  0  0  0  0  0  0  0
   25.5962   27.0616   10.9885 H   0  0  0  0  0  0  0  0  0  0  0  0
   23.9365   29.8166   10.7104 H   0  0  0  0  0  0  0  0  0  0  0  0
   24.6878   28.4497    9.8194 H   0  0  0  0  0  0  0  0  0  0  0  0
   22.9026   28.6488    9.8194 H   0  0  0  0  0  0  0  0  0  0  0  0
   23.8785   28.2094   13.8005 H   0  0  0  0  0  0  0  0  0  0  0  0
   25.2263   28.9083   12.8405 H   0  0  0  0  0  0  0  0  0  0  0  0
   23.6162   29.7048   12.8405 H   0  0  0  0  0  0  0  0  0  0  0  0
   20.7559   27.1578   13.9182 H   0  0  0  0  0  0  0  0  0  0  0  0
   19.5458   29.8904   13.5155 H   0  0  0  0  0  0  0  0  0  0  0  0
   18.1806   27.2851   14.4181 H   0  0  0  0  0  0  0  0  0  0  0  0
   17.3960   28.8878   14.0385 H   0  0  0  0  0  0  0  0  0  0  0  0
   17.1710   29.6594   11.7235 H   0  0  0  0  0  0  0  0  0  0  0  0
   16.8200   28.9417    9.3714 H   0  0  0  0  0  0  0  0  0  0  0  0
   17.4308   26.6361    8.6515 H   0  0  0  0  0  0  0  0  0  0  0  0
   18.4123   25.0430   10.3067 H   0  0  0  0  0  0  0  0  0  0  0  0
   18.7382   25.7642   12.6694 H   0  0  0  0  0  0  0  0  0  0  0  0
   18.8037   29.7148   15.7398 H   0  0  0  0  0  0  0  0  0  0  0  0
   19.9220   28.2558   17.2519 H   0  0  0  0  0  0  0  0  0  0  0  0
   21.1521   29.9297   16.9146 H   0  0  0  0  0  0  0  0  0  0  0  0
   21.7921   29.5795   15.2335 H   0  0  0  0  0  0  0  0  0  0  0  0
   19.8450   31.9179   17.1714 H   0  0  0  0  0  0  0  0  0  0  0  0
   17.9163   32.9456   17.3716 H   0  0  0  0  0  0  0  0  0  0  0  0
   15.9638   35.3266   14.9817 H   0  0  0  0  0  0  0  0  0  0  0  0
   17.1708   34.3668   14.0605 H   0  0  0  0  0  0  0  0  0  0  0  0
   15.4431   33.8751   14.0605 H   0  0  0  0  0  0  0  0  0  0  0  0
   15.9716   31.4431   16.5292 H   0  0  0  0  0  0  0  0  0  0  0  0
   15.1850   31.9808   15.0064 H   0  0  0  0  0  0  0  0  0  0  0  0
   16.9213   31.5203   15.0064 H   0  0  0  0  0  0  0  0  0  0  0  0
   16.0850   33.6677   18.0036 H   0  0  0  0  0  0  0  0  0  0  0  0
   15.4964   35.0162   16.9732 H   0  0  0  0  0  0  0  0  0  0  0  0
   14.6310   33.4421   16.9732 H   0  0  0  0  0  0  0  0  0  0  0  0
   18.5407   35.4092   15.6680 H   0  0  0  0  0  0  0  0  0  0  0  0
   19.0242   36.9316   19.7206 H   0  0  0  0  0  0  0  0  0  0  0  0
   20.1843   38.0127   18.8768 H   0  0  0  0  0  0  0  0  0  0  0  0
   18.4308   38.4021   18.8768 H   0  0  0  0  0  0  0  0  0  0  0  0
   22.4667   31.6328   16.8368 H   0  0  0  0  0  0  0  0  0  0  0  0
   22.9002   31.7246   15.0663 H   0  0  0  0  0  0  0  0  0  0  0  0
   22.4204   33.8029   13.7643 H   0  0  0  0  0  0  0  0  0  0  0  0
   22.3691   36.2864   13.8951 H   0  0  0  0  0  0  0  0  0  0  0  0
   21.8811   33.5810   18.0390 H   0  0  0  0  0  0  0  0  0  0  0  0
   21.8186   36.0610   18.1645 H   0  0  0  0  0  0  0  0  0  0  0  0
   20.8320   38.0642   14.3339 H   0  0  0  0  0  0  0  0  0  0  0  0
   20.7697   40.5558   14.4768 H   0  0  0  0  0  0  0  0  0  0  0  0
   21.9265   41.7108   16.3761 H   0  0  0  0  0  0  0  0  0  0  0  0
   23.1246   40.3388   18.0869 H   0  0  0  0  0  0  0  0  0  0  0  0
  1  2  1  0
  2  3  1  0
  3  4  2  0
  3  5  1  0
  5  6  1  0
  6  7  1  0
  7  8  1  0
  7  9  1  0
  7 10  1  0
  6 11  1  0
 11 12  2  0
 11 13  1  0
 13 14  1  0
 14 15  1  0
 15 16  1  0
 16 17  2  0
 17 18  1  0
 18 19  2  0
 19 20  1  0
 16 21  1  0
 20 21  2  0
 14 22  1  0
 22 23  1  0
 22 24  1  0
 24 25  1  0
 25 26  1  0
 26 27  1  0
 27 28  2  0
 27 29  1  0
 29 30  1  0
 30 31  1  0
 30 32  1  0
 30 33  1  0
 29 34  1  0
 34 35  1  0
 35 36  2  0
 35 37  1  0
 37 38  1  0
 25 39  1  0
 39 40  1  0
 40 41  2  0
 41 42  1  0
 40 43  1  0
 43 44  2  0
 42 45  2  0
 44 45  1  0
 45 46  1  0
 46 47  2  0
 47 48  1  0
 48 49  2  0
 49 50  1  0
 46 51  1  0
 50 51  2  0
  1 52  1  0
  1 53  1  0
  1 54  1  0
  5 55  1  0
  6 56  1  1
  8 57  1  0
  8 58  1  0
  8 59  1  0
  9 60  1  0
  9 61  1  0
  9 62  1  0
 10 63  1  0
 10 64  1  0
 10 65  1  0
 13 66  1  0
 14 67  1  6
 15 68  1  0
 15 69  1  0
 17 70  1  0
 18 71  1  0
 19 72  1  0
 20 73  1  0
 21 74  1  0
 22 75  1  1
 23 76  1  0
 24 77  1  0
 24 78  1  0
 26 79  1  0
 29 80  1  1
 31 81  1  0
 31 82  1  0
 31 83  1  0
 32 84  1  0
 32 85  1  0
 32 86  1  0
 33 87  1  0
 33 88  1  0
 33 89  1  0
 34 90  1  0
 38 91  1  0
 38 92  1  0
 38 93  1  0
 39 94  1  0
 39 95  1  0
 41 96  1  0
 42 97  1  0
 43 98  1  0
 44 99  1  0
 47100  1  0
 48101  1  0
 49102  1  0
 50103  1  0
M  END
>  <PDBID>  (1) 
3EKY

>  <PDB ID>  (1) 
3EKY

>  <Generic Name>  (1) 
Atazanavir

>  <Brand Name>  (1) 
Evotaz#Reyataz#Latazanavir#Zrivada

>  <DrugBank ID>  (1) 
DB01072

>  <ATC Codes>  (1) 
J05AE08#J05AR15

>  <Ligand ID>  (1) 
DR7

>  <Target Name>  (1) 
Pol polyprotein

>  <UniProt ID>  (1) 
Q72874

>  <PDB ID.1>  (1) 
3EKY

>  <Seq. Identity>  (1) 
94%

$$$$
