PDB_DB01167_95
     RDKit          3D

113119  0  0  0  0  0  0  0  0999 V2000
    7.8060   -4.5960    8.3230 C   0  0  0  0  0  0  0  0  0  0  0  0
    7.1100   -5.3690    7.3860 C   0  0  0  0  0  0  0  0  0  0  0  0
    9.0060   -4.2170    2.9430 C   0  0  0  0  0  0  0  0  0  0  0  0
    7.8200   -3.9210    2.0430 C   0  0  0  0  0  0  0  0  0  0  0  0
    6.5160   -4.5150    2.5830 C   0  0  1  0  0  0  0  0  0  0  0  0
    6.2900   -5.9130    2.0300 C   0  0  0  0  0  0  0  0  0  0  0  0
    6.6000   -4.5450    4.0610 N   0  0  0  0  0  0  0  0  0  0  0  0
    6.9570   -5.4270    4.9960 C   0  0  0  0  0  0  0  0  0  0  0  0
    7.3260   -6.6470    4.7790 O   0  0  0  0  0  0  0  0  0  0  0  0
    6.8200   -4.8410    6.1820 N   0  0  0  0  0  0  0  0  0  0  0  0
    6.4240   -3.5680    6.0400 C   0  0  0  0  0  0  0  0  0  0  0  0
    6.2620   -3.3440    4.7040 N   0  0  0  0  0  0  0  0  0  0  0  0
    8.1620   -5.0610    9.5880 C   0  0  0  0  0  0  0  0  0  0  0  0
    7.8280   -6.3480    9.9840 C   0  0  0  0  0  0  0  0  0  0  0  0
    7.1450   -7.1440    9.0770 C   0  0  0  0  0  0  0  0  0  0  0  0
    6.7950   -6.6650    7.8080 C   0  0  0  0  0  0  0  0  0  0  0  0
    8.1920   -6.8330   11.2600 N   0  0  0  0  0  0  0  0  0  0  0  0
    8.7560   -8.1560   11.4220 C   0  0  0  0  0  0  0  0  0  0  0  0
   10.2160   -7.8480   11.7300 C   0  0  0  0  0  0  0  0  0  0  0  0
   10.2940   -6.9300   12.8720 N   0  0  0  0  0  0  0  0  0  0  0  0
    9.5040   -5.7000   12.9110 C   0  0  0  0  0  0  0  0  0  0  0  0
    8.0790   -6.0410   12.4730 C   0  0  0  0  0  0  0  0  0  0  0  0
   11.1900   -7.2660   13.9110 C   0  0  0  0  0  0  0  0  0  0  0  0
   11.7840   -6.3150   14.7440 C   0  0  0  0  0  0  0  0  0  0  0  0
   12.6780   -6.7110   15.7460 C   0  0  0  0  0  0  0  0  0  0  0  0
   12.9830   -8.0600   15.9200 C   0  0  0  0  0  0  0  0  0  0  0  0
   12.3920   -8.9950   15.0800 C   0  0  0  0  0  0  0  0  0  0  0  0
   11.5100   -8.6020   14.0900 C   0  0  0  0  0  0  0  0  0  0  0  0
   13.8620   -8.5060   16.8920 O   0  0  0  0  0  0  0  0  0  0  0  0
   14.1840   -7.7650   18.0780 C   0  0  0  0  0  0  0  0  0  0  0  0
   15.3850   -8.4350   18.7270 C   0  0  1  0  0  0  0  0  0  0  0  0
   16.1370   -9.0510   17.5630 C   0  0  0  0  0  0  0  0  0  0  0  0
   17.2220   -8.1620   17.3410 O   0  0  0  0  0  0  0  0  0  0  0  0
   17.3920   -7.2960   18.4580 C   0  0  2  0  0  0  0  0  0  0  0  0
   16.2970   -7.5300   19.3560 O   0  0  0  0  0  0  0  0  0  0  0  0
   17.3550   -5.8600   17.9610 C   0  0  0  0  0  0  0  0  0  0  0  0
   17.9440   -4.9180   18.9000 N   0  0  0  0  0  0  0  0  0  0  0  0
   18.0620   -4.9010   20.2160 C   0  0  0  0  0  0  0  0  0  0  0  0
   18.6810   -3.7470   20.5420 N   0  0  0  0  0  0  0  0  0  0  0  0
   18.9690   -3.0690   19.4070 C   0  0  0  0  0  0  0  0  0  0  0  0
   18.5070   -3.7680   18.3500 N   0  0  0  0  0  0  0  0  0  0  0  0
   18.7450   -7.6980   18.9380 C   0  0  1  0  0  0  0  0  0  0  0  0
   19.8650   -7.7120   17.9600 C   0  0  0  0  0  0  0  0  0  0  0  0
   21.1330   -8.0940   18.3580 C   0  0  0  0  0  0  0  0  0  0  0  0
   21.3370   -8.4840   19.6710 C   0  0  0  0  0  0  0  0  0  0  0  0
   20.2840   -8.4950   20.5920 C   0  0  0  0  0  0  0  0  0  0  0  0
   18.9960   -8.1050   20.2290 C   0  0  0  0  0  0  0  0  0  0  0  0
   22.9860   -8.9780   20.1790 Cl  0  0  0  0  0  0  0  0  0  0  0  0
   19.5980   -7.2000   16.2570 Cl  0  0  0  0  0  0  0  0  0  0  0  0
    8.7469   -4.3043    7.8335 H   0  0  0  0  0  0  0  0  0  0  0  0
    7.0534   -3.8349    8.5767 H   0  0  0  0  0  0  0  0  0  0  0  0
    6.1562   -4.9901    7.7819 H   0  0  0  0  0  0  0  0  0  0  0  0
    8.6959   -4.1396    3.9955 H   0  0  0  0  0  0  0  0  0  0  0  0
    9.3733   -5.2344    2.7428 H   0  0  0  0  0  0  0  0  0  0  0  0
    9.8083   -3.4915    2.7428 H   0  0  0  0  0  0  0  0  0  0  0  0
    7.7035   -2.8304    1.9591 H   0  0  0  0  0  0  0  0  0  0  0  0
    8.0184   -4.3812    1.0638 H   0  0  0  0  0  0  0  0  0  0  0  0
    5.6636   -3.8957    2.2668 H   0  0  0  0  0  0  0  0  0  0  0  0
    6.1753   -6.6226    2.8627 H   0  0  0  0  0  0  0  0  0  0  0  0
    5.3790   -5.9206    1.4136 H   0  0  0  0  0  0  0  0  0  0  0  0
    7.1522   -6.2073    1.4136 H   0  0  0  0  0  0  0  0  0  0  0  0
    5.9117   -5.7585    5.0824 H   0  0  0  0  0  0  0  0  0  0  0  0
    7.4655   -7.1083    5.6438 H   0  0  0  0  0  0  0  0  0  0  0  0
    5.4720   -3.4081    6.5674 H   0  0  0  0  0  0  0  0  0  0  0  0
    7.1673   -2.8775    6.4650 H   0  0  0  0  0  0  0  0  0  0  0  0
    6.8837   -2.5846    4.3915 H   0  0  0  0  0  0  0  0  0  0  0  0
    9.2573   -4.9846    9.6553 H   0  0  0  0  0  0  0  0  0  0  0  0
    7.5622   -4.4311   10.2614 H   0  0  0  0  0  0  0  0  0  0  0  0
    6.8708   -5.9778   10.3799 H   0  0  0  0  0  0  0  0  0  0  0  0
    7.7694   -8.0345    8.9123 H   0  0  0  0  0  0  0  0  0  0  0  0
    6.1661   -7.2726    9.5620 H   0  0  0  0  0  0  0  0  0  0  0  0
    5.7007   -6.7527    7.7382 H   0  0  0  0  0  0  0  0  0  0  0  0
    7.4274   -7.2791    7.1500 H   0  0  0  0  0  0  0  0  0  0  0  0
    8.2779   -8.6943   12.2537 H   0  0  0  0  0  0  0  0  0  0  0  0
    8.6172   -8.8056   10.5452 H   0  0  0  0  0  0  0  0  0  0  0  0
   10.7438   -8.7818   11.9740 H   0  0  0  0  0  0  0  0  0  0  0  0
   10.6842   -7.3797   10.8516 H   0  0  0  0  0  0  0  0  0  0  0  0
    9.4936   -5.2950   13.9337 H   0  0  0  0  0  0  0  0  0  0  0  0
    9.9396   -4.9440   12.2411 H   0  0  0  0  0  0  0  0  0  0  0  0
    7.5135   -5.1191   12.2723 H   0  0  0  0  0  0  0  0  0  0  0  0
    7.5461   -6.5960   13.2591 H   0  0  0  0  0  0  0  0  0  0  0  0
   12.0341   -7.1800   13.2109 H   0  0  0  0  0  0  0  0  0  0  0  0
   12.3307   -5.6198   14.0899 H   0  0  0  0  0  0  0  0  0  0  0  0
   10.9317   -5.9170   15.3143 H   0  0  0  0  0  0  0  0  0  0  0  0
   13.6283   -6.1949   15.5445 H   0  0  0  0  0  0  0  0  0  0  0  0
   12.1459   -6.4525   16.6734 H   0  0  0  0  0  0  0  0  0  0  0  0
   12.1422   -8.1595   16.6223 H   0  0  0  0  0  0  0  0  0  0  0  0
   13.2127   -9.5262   14.5757 H   0  0  0  0  0  0  0  0  0  0  0  0
   11.7492   -9.5663   15.7658 H   0  0  0  0  0  0  0  0  0  0  0  0
   10.5637   -9.1269   14.2873 H   0  0  0  0  0  0  0  0  0  0  0  0
   12.0563   -8.8465   13.1671 H   0  0  0  0  0  0  0  0  0  0  0  0
   14.4308   -6.7257   17.8155 H   0  0  0  0  0  0  0  0  0  0  0  0
   13.3286   -7.7519   18.7694 H   0  0  0  0  0  0  0  0  0  0  0  0
   15.0298   -9.1245   19.5070 H   0  0  0  0  0  0  0  0  0  0  0  0
   16.5023  -10.0557   17.8222 H   0  0  0  0  0  0  0  0  0  0  0  0
   15.5050   -9.1761   16.6714 H   0  0  0  0  0  0  0  0  0  0  0  0
   17.9097   -5.8029   17.0128 H   0  0  0  0  0  0  0  0  0  0  0  0
   16.2980   -5.5823   17.8359 H   0  0  0  0  0  0  0  0  0  0  0  0
   17.0678   -4.9419   20.6849 H   0  0  0  0  0  0  0  0  0  0  0  0
   18.6381   -5.7688   20.5696 H   0  0  0  0  0  0  0  0  0  0  0  0
   18.0616   -3.1783   21.1368 H   0  0  0  0  0  0  0  0  0  0  0  0
   18.4868   -2.0807   19.4351 H   0  0  0  0  0  0  0  0  0  0  0  0
   20.0574   -2.9366   19.3186 H   0  0  0  0  0  0  0  0  0  0  0  0
   19.2777   -4.0114   17.7115 H   0  0  0  0  0  0  0  0  0  0  0  0
   18.5196   -8.7469   18.6949 H   0  0  0  0  0  0  0  0  0  0  0  0
   20.0998   -6.6678   18.2140 H   0  0  0  0  0  0  0  0  0  0  0  0
   21.4291   -8.9404   17.7209 H   0  0  0  0  0  0  0  0  0  0  0  0
   21.7275   -7.1735   18.2616 H   0  0  0  0  0  0  0  0  0  0  0  0
   21.5654   -7.4434   19.9446 H   0  0  0  0  0  0  0  0  0  0  0  0
   20.2035   -9.5287   20.9593 H   0  0  0  0  0  0  0  0  0  0  0  0
   20.5798   -7.7063   21.2994 H   0  0  0  0  0  0  0  0  0  0  0  0
   18.7188   -7.2682   20.8869 H   0  0  0  0  0  0  0  0  0  0  0  0
   18.4114   -9.0320   20.3236 H   0  0  0  0  0  0  0  0  0  0  0  0
  1  2  1  0
  3  4  1  0
  4  5  1  0
  5  6  1  0
  5  7  1  0
  7  8  1  0
  8  9  1  0
  2 10  1  0
  8 10  1  0
 10 11  1  0
  7 12  1  0
 11 12  1  0
  1 13  1  0
 13 14  1  0
 14 15  1  0
  2 16  1  0
 15 16  1  0
 14 17  1  0
 17 18  1  0
 18 19  1  0
 19 20  1  0
 20 21  1  0
 17 22  1  0
 21 22  1  0
 20 23  1  0
 23 24  1  0
 24 25  1  0
 25 26  1  0
 26 27  1  0
 23 28  1  0
 27 28  1  0
 26 29  1  0
 29 30  1  0
 30 31  1  0
 31 32  1  0
 32 33  1  0
 33 34  1  0
 31 35  1  0
 34 35  1  0
 34 36  1  6
 36 37  1  0
 37 38  1  0
 38 39  1  0
 40 39  1  0
 37 41  1  0
 40 41  1  0
 34 42  1  0
 42 43  1  0
 43 44  1  0
 44 45  1  0
 45 46  1  0
 42 47  1  0
 46 47  1  0
 45 48  1  0
 43 49  1  0
  1 50  1  0
  1 51  1  0
  2 52  1  0
  3 53  1  0
  3 54  1  0
  3 55  1  0
  4 56  1  0
  4 57  1  0
  5 58  1  1
  6 59  1  0
  6 60  1  0
  6 61  1  0
  8 62  1  0
  9 63  1  0
 11 64  1  0
 11 65  1  0
 12 66  1  0
 13 67  1  0
 13 68  1  0
 14 69  1  0
 15 70  1  0
 15 71  1  0
 16 72  1  0
 16 73  1  0
 18 74  1  0
 18 75  1  0
 19 76  1  0
 19 77  1  0
 21 78  1  0
 21 79  1  0
 22 80  1  0
 22 81  1  0
 23 82  1  0
 24 83  1  0
 24 84  1  0
 25 85  1  0
 25 86  1  0
 26 87  1  0
 27 88  1  0
 27 89  1  0
 28 90  1  0
 28 91  1  0
 30 92  1  0
 30 93  1  0
 31 94  1  1
 32 95  1  0
 32 96  1  0
 36 97  1  0
 36 98  1  0
 38 99  1  0
 38100  1  0
 39101  1  1
 40102  1  0
 40103  1  0
 41104  1  0
 42105  1  1
 43106  1  0
 44107  1  0
 44108  1  0
 45109  1  0
 46110  1  0
 46111  1  0
 47112  1  0
 47113  1  0
M  END
>  <PDBID>  (1) 
6AYC

>  <PDB ID>  (1) 
6AYC

>  <Generic Name>  (1) 
Itraconazole

>  <Brand Name>  (1) 
Itraconazole#Onmel#Sporanox#Sporanox Oral Solution 10mg/ml#Itrizole#Oriconazole#Sporal

>  <DrugBank ID>  (1) 
DB01167

>  <ATC Codes>  (1) 
J02AC02

>  <Ligand ID>  (1) 
1YN

>  <Target Name>  (1) 
Lanosterol 14-alpha demethylase

>  <UniProt ID>  (1) 
Q16850

>  <PDB ID.1>  (1) 
6AYC

>  <Seq. Identity>  (1) 
36%

$$$$
