PDB_DB04865_99
     RDKit          3D

 78 82  0  0  0  0  0  0  0  0999 V2000
   32.7930    7.2740   64.2950 C   0  0  0  0  0  0  0  0  0  0  0  0
   31.7100    6.3410   64.4010 O   0  0  0  0  0  0  0  0  0  0  0  0
   31.4950    5.5810   63.2990 C   0  0  0  0  0  0  0  0  0  0  0  0
   31.8630    5.7350   62.0550 C   0  0  0  0  0  0  0  0  0  0  0  0
   30.9730    4.8790   61.1930 C   0  0  2  0  0  0  0  0  0  0  0  0
   31.7030    3.7840   60.4070 C   0  0  0  0  0  0  0  0  0  0  0  0
   32.2800    4.5620   59.2530 C   0  0  0  0  0  0  0  0  0  0  0  0
   31.4950    5.8850   59.1900 C   0  0  0  0  0  0  0  0  0  0  0  0
   30.3710    5.6670   60.1400 N   0  0  0  0  0  0  0  0  0  0  0  0
   29.5630    6.8850   60.3720 C   0  0  0  0  0  0  0  0  0  0  0  0
   28.8440    7.0020   61.7150 C   0  0  0  0  0  0  0  0  0  0  0  0
   27.9800    5.7850   61.9200 C   0  0  0  0  0  0  0  0  0  0  0  0
   26.6130    5.9440   61.7360 C   0  0  0  0  0  0  0  0  0  0  0  0
   25.8250    4.8360   61.7150 C   0  0  0  0  0  0  0  0  0  0  0  0
   24.4960    4.7480   61.3710 O   0  0  0  0  0  0  0  0  0  0  0  0
   24.1480    3.3730   61.5350 C   0  0  0  0  0  0  0  0  0  0  0  0
   25.3360    2.6490   61.8430 O   0  0  0  0  0  0  0  0  0  0  0  0
   26.3290    3.5920   61.9530 C   0  0  0  0  0  0  0  0  0  0  0  0
   27.6640    3.3950   62.2070 C   0  0  0  0  0  0  0  0  0  0  0  0
   28.5130    4.5020   62.1390 C   0  0  0  0  0  0  0  0  0  0  0  0
   29.9830    4.2090   62.1760 C   0  0  2  0  0  0  0  0  0  0  0  0
   30.5360    4.4690   63.5030 C   0  0  2  0  0  0  0  0  0  0  0  0
   29.5410    5.1850   64.2340 O   0  0  0  0  0  0  0  0  0  0  0  0
   29.3030    4.7520   65.4730 C   0  0  0  0  0  0  0  0  0  0  0  0
   29.8950    3.8430   65.9730 O   0  0  0  0  0  0  0  0  0  0  0  0
   28.2870    5.6330   66.1900 C   0  0  1  0  0  0  0  0  0  0  0  0
   26.8430    5.3310   65.7510 C   0  0  0  0  0  0  0  0  0  0  0  0
   26.4080    3.9270   65.4240 C   0  0  0  0  0  0  0  0  0  0  0  0
   27.0930    2.9440   65.5120 O   0  0  0  0  0  0  0  0  0  0  0  0
   25.1330    3.8970   65.0400 O   0  0  0  0  0  0  0  0  0  0  0  0
   24.5360    2.5980   64.8340 C   0  0  0  0  0  0  0  0  0  0  0  0
   28.4460    5.3810   67.5840 O   0  0  0  0  0  0  0  0  0  0  0  0
   28.5490    7.1030   65.8950 C   0  0  0  0  0  0  0  0  0  0  0  0
   28.9000    7.9530   67.1260 C   0  0  0  0  0  0  0  0  0  0  0  0
   30.3900    8.2100   67.2090 C   0  0  0  0  0  0  0  0  0  0  0  0
   30.8240    9.2280   68.2320 C   0  0  0  0  0  0  0  0  0  0  0  0
   32.1740    9.7690   67.8900 C   0  0  0  0  0  0  0  0  0  0  0  0
   30.8020    8.6770   69.6320 C   0  0  0  0  0  0  0  0  0  0  0  0
   29.8840   10.3040   68.1570 O   0  0  0  0  0  0  0  0  0  0  0  0
   33.1281    7.5627   65.3021 H   0  0  0  0  0  0  0  0  0  0  0  0
   33.6272    6.8072   63.7508 H   0  0  0  0  0  0  0  0  0  0  0  0
   32.4548    8.1681   63.7508 H   0  0  0  0  0  0  0  0  0  0  0  0
   32.6811    6.3784   61.6989 H   0  0  0  0  0  0  0  0  0  0  0  0
   32.4953    3.3182   61.0115 H   0  0  0  0  0  0  0  0  0  0  0  0
   31.0550    2.9496   60.1007 H   0  0  0  0  0  0  0  0  0  0  0  0
   33.3484    4.7605   59.4235 H   0  0  0  0  0  0  0  0  0  0  0  0
   32.1960    4.0014   58.3103 H   0  0  0  0  0  0  0  0  0  0  0  0
   32.1222    6.7300   59.5102 H   0  0  0  0  0  0  0  0  0  0  0  0
   31.1552    6.1338   58.1738 H   0  0  0  0  0  0  0  0  0  0  0  0
   30.2357    7.7505   60.2806 H   0  0  0  0  0  0  0  0  0  0  0  0
   28.7584    6.8377   59.6234 H   0  0  0  0  0  0  0  0  0  0  0  0
   29.5853    7.0680   62.5250 H   0  0  0  0  0  0  0  0  0  0  0  0
   28.2177    7.9063   61.7222 H   0  0  0  0  0  0  0  0  0  0  0  0
   26.1764    6.9457   61.6098 H   0  0  0  0  0  0  0  0  0  0  0  0
   23.4235    3.2672   62.3560 H   0  0  0  0  0  0  0  0  0  0  0  0
   23.6924    2.9828   60.6130 H   0  0  0  0  0  0  0  0  0  0  0  0
   28.0527    2.3966   62.4562 H   0  0  0  0  0  0  0  0  0  0  0  0
   29.9338    3.1588   61.8523 H   0  0  0  0  0  0  0  0  0  0  0  0
   30.9064    3.5415   63.9640 H   0  0  0  0  0  0  0  0  0  0  0  0
   26.1898    5.6790   66.5648 H   0  0  0  0  0  0  0  0  0  0  0  0
   26.7761    5.8374   64.7768 H   0  0  0  0  0  0  0  0  0  0  0  0
   24.3227    2.1338   65.8082 H   0  0  0  0  0  0  0  0  0  0  0  0
   23.5992    2.7105   64.2685 H   0  0  0  0  0  0  0  0  0  0  0  0
   25.2314    1.9604   64.2685 H   0  0  0  0  0  0  0  0  0  0  0  0
   27.9957    6.0946   68.1018 H   0  0  0  0  0  0  0  0  0  0  0  0
   29.3870    7.1658   65.1852 H   0  0  0  0  0  0  0  0  0  0  0  0
   27.6097    7.5112   65.4936 H   0  0  0  0  0  0  0  0  0  0  0  0
   28.3732    8.9163   67.0586 H   0  0  0  0  0  0  0  0  0  0  0  0
   28.5912    7.4035   68.0275 H   0  0  0  0  0  0  0  0  0  0  0  0
   30.8839    7.2572   67.4504 H   0  0  0  0  0  0  0  0  0  0  0  0
   30.6760    8.6273   66.2323 H   0  0  0  0  0  0  0  0  0  0  0  0
   32.7257    9.9901   68.8156 H   0  0  0  0  0  0  0  0  0  0  0  0
   32.7292    9.0239   67.3013 H   0  0  0  0  0  0  0  0  0  0  0  0
   32.0610   10.6913   67.3013 H   0  0  0  0  0  0  0  0  0  0  0  0
   30.8351    9.5069   70.3532 H   0  0  0  0  0  0  0  0  0  0  0  0
   29.8800    8.0965   69.7831 H   0  0  0  0  0  0  0  0  0  0  0  0
   31.6748    8.0248   69.7831 H   0  0  0  0  0  0  0  0  0  0  0  0
   29.6350   10.5890   69.0718 H   0  0  0  0  0  0  0  0  0  0  0  0
  2  1  1  0
  3  2  1  0
  4  3  2  0
  5  4  1  1
  6  5  1  0
  7  6  1  0
  8  7  1  0
  9  5  1  0
  9  8  1  0
 10  9  1  0
 11 10  1  0
 12 11  1  0
 13 12  2  0
 14 13  1  0
 15 14  1  0
 16 15  1  0
 17 16  1  0
 18 17  1  0
 18 14  2  0
 19 18  1  0
 20 19  2  0
 20 12  1  0
 21 20  1  0
 21  5  1  0
 22 21  1  0
 22  3  1  0
 23 22  1  0
 24 23  1  0
 25 24  2  0
 26 24  1  0
 27 26  1  0
 28 27  1  0
 29 28  2  0
 30 28  1  0
 31 30  1  0
 26 32  1  1
 33 26  1  0
 34 33  1  0
 35 34  1  0
 36 35  1  0
 37 36  1  0
 38 36  1  0
 39 36  1  0
  1 40  1  0
  1 41  1  0
  1 42  1  0
  4 43  1  0
  6 44  1  0
  6 45  1  0
  7 46  1  0
  7 47  1  0
  8 48  1  0
  8 49  1  0
 10 50  1  0
 10 51  1  0
 11 52  1  0
 11 53  1  0
 13 54  1  0
 16 55  1  0
 16 56  1  0
 19 57  1  0
 21 58  1  6
 22 59  1  1
 27 60  1  0
 27 61  1  0
 31 62  1  0
 31 63  1  0
 31 64  1  0
 32 65  1  0
 33 66  1  0
 33 67  1  0
 34 68  1  0
 34 69  1  0
 35 70  1  0
 35 71  1  0
 37 72  1  0
 37 73  1  0
 37 74  1  0
 38 75  1  0
 38 76  1  0
 38 77  1  0
 39 78  1  0
M  END
$$$$
