PDB_DB00834_91
     RDKit          3D

 67 71  0  0  0  0  0  0  0  0999 V2000
  -50.2650   15.0510  -37.7710 O   0  0  0  0  0  0  0  0  0  0  0  0
  -49.3730   14.8450  -38.5840 C   0  0  0  0  0  0  0  0  0  0  0  0
  -49.3600   15.6690  -39.8470 C   0  0  0  0  0  0  0  0  0  0  0  0
  -48.4030   13.8470  -38.3380 C   0  0  0  0  0  0  0  0  0  0  0  0
  -47.4220   13.5820  -39.2290 C   0  0  0  0  0  0  0  0  0  0  0  0
  -46.3740   12.5250  -38.9910 C   0  0  0  0  0  0  0  0  0  0  0  0
  -47.3230   14.3280  -40.4790 C   0  0  0  0  0  0  0  0  0  0  0  0
  -47.9990   15.6800  -40.5460 C   0  0  0  0  0  0  0  0  0  0  0  0
  -46.6400   13.8450  -41.5240 C   0  0  0  0  0  0  0  0  0  0  0  0
  -46.5560   14.6920  -42.7820 C   0  0  1  0  0  0  0  0  0  0  0  0
  -45.3810   15.6340  -42.6260 C   0  0  0  0  0  0  0  0  0  0  0  0
  -44.7920   16.2210  -43.7360 C   0  0  0  0  0  0  0  0  0  0  0  0
  -43.7130   17.0810  -43.6220 C   0  0  0  0  0  0  0  0  0  0  0  0
  -43.2190   17.3580  -42.3620 C   0  0  0  0  0  0  0  0  0  0  0  0
  -42.1420   18.2250  -42.2190 N   0  0  0  0  0  0  0  0  0  0  0  0
  -41.5600   18.8200  -43.4110 C   0  0  0  0  0  0  0  0  0  0  0  0
  -41.6120   18.5230  -40.8850 C   0  0  0  0  0  0  0  0  0  0  0  0
  -43.8060   16.7690  -41.2480 C   0  0  0  0  0  0  0  0  0  0  0  0
  -44.8820   15.9180  -41.3730 C   0  0  0  0  0  0  0  0  0  0  0  0
  -46.4340   13.8860  -44.0980 C   0  0  0  0  0  0  0  0  0  0  0  0
  -45.6570   12.5860  -43.9430 C   0  0  2  0  0  0  0  0  0  0  0  0
  -44.1710   12.8510  -43.6990 C   0  0  0  0  0  0  0  0  0  0  0  0
  -45.8410   11.5340  -45.0490 C   0  0  1  0  0  0  0  0  0  0  0  0
  -47.2780   11.3250  -45.3220 C   0  0  0  0  0  0  0  0  0  0  0  0
  -48.4370   11.1690  -45.4860 C   0  0  0  0  0  0  0  0  0  0  0  0
  -49.8680   10.8670  -45.6950 C   0  0  0  0  0  0  0  0  0  0  0  0
  -45.1630   11.8290  -46.2740 O   0  0  0  0  0  0  0  0  0  0  0  0
  -45.2220   10.2730  -44.4130 C   0  0  0  0  0  0  0  0  0  0  0  0
  -45.4670   10.4500  -42.8890 C   0  0  0  0  0  0  0  0  0  0  0  0
  -46.2360   11.7760  -42.7560 C   0  0  1  0  0  0  0  0  0  0  0  0
  -45.9370   12.5220  -41.4670 C   0  0  2  0  0  0  0  0  0  0  0  0
  -46.3400   11.6840  -40.2660 C   0  0  0  0  0  0  0  0  0  0  0  0
  -50.1063   15.2559  -40.5415 H   0  0  0  0  0  0  0  0  0  0  0  0
  -49.5896   16.7065  -39.5626 H   0  0  0  0  0  0  0  0  0  0  0  0
  -48.4475   13.2732  -37.4006 H   0  0  0  0  0  0  0  0  0  0  0  0
  -45.3935   12.9902  -38.8119 H   0  0  0  0  0  0  0  0  0  0  0  0
  -46.6068   11.9135  -38.1067 H   0  0  0  0  0  0  0  0  0  0  0  0
  -48.1428   15.9544  -41.6015 H   0  0  0  0  0  0  0  0  0  0  0  0
  -47.3562   16.4100  -40.0322 H   0  0  0  0  0  0  0  0  0  0  0  0
  -47.5078   15.2350  -42.8786 H   0  0  0  0  0  0  0  0  0  0  0  0
  -45.1935   15.9969  -44.7353 H   0  0  0  0  0  0  0  0  0  0  0  0
  -43.2588   17.5340  -44.5156 H   0  0  0  0  0  0  0  0  0  0  0  0
  -40.8186   19.5779  -43.1179 H   0  0  0  0  0  0  0  0  0  0  0  0
  -41.0684   18.0381  -44.0085 H   0  0  0  0  0  0  0  0  0  0  0  0
  -42.3526   19.2942  -44.0085 H   0  0  0  0  0  0  0  0  0  0  0  0
  -42.3020   18.1350  -40.1212 H   0  0  0  0  0  0  0  0  0  0  0  0
  -40.6280   18.0459  -40.7664 H   0  0  0  0  0  0  0  0  0  0  0  0
  -41.5083   19.6117  -40.7664 H   0  0  0  0  0  0  0  0  0  0  0  0
  -43.4036   16.9866  -40.2476 H   0  0  0  0  0  0  0  0  0  0  0  0
  -45.3396   15.4684  -40.4794 H   0  0  0  0  0  0  0  0  0  0  0  0
  -47.4465   13.6462  -44.4548 H   0  0  0  0  0  0  0  0  0  0  0  0
  -45.8783   14.5125  -44.8113 H   0  0  0  0  0  0  0  0  0  0  0  0
  -43.9776   12.8855  -42.6167 H   0  0  0  0  0  0  0  0  0  0  0  0
  -43.5755   12.0449  -44.1524 H   0  0  0  0  0  0  0  0  0  0  0  0
  -43.8909   13.8133  -44.1524 H   0  0  0  0  0  0  0  0  0  0  0  0
  -50.3667   10.7618  -44.7202 H   0  0  0  0  0  0  0  0  0  0  0  0
  -50.3368   11.6860  -46.2602 H   0  0  0  0  0  0  0  0  0  0  0  0
  -49.9659    9.9284  -46.2602 H   0  0  0  0  0  0  0  0  0  0  0  0
  -44.2739   12.2159  -46.0742 H   0  0  0  0  0  0  0  0  0  0  0  0
  -45.7197    9.3651  -44.7846 H   0  0  0  0  0  0  0  0  0  0  0  0
  -44.1551   10.1608  -44.6563 H   0  0  0  0  0  0  0  0  0  0  0  0
  -46.0657    9.6156  -42.4950 H   0  0  0  0  0  0  0  0  0  0  0  0
  -44.5259   10.4614  -42.3196 H   0  0  0  0  0  0  0  0  0  0  0  0
  -47.3251   11.6212  -42.7519 H   0  0  0  0  0  0  0  0  0  0  0  0
  -44.8585   12.7078  -41.3559 H   0  0  0  0  0  0  0  0  0  0  0  0
  -45.6136   10.8679  -40.1381 H   0  0  0  0  0  0  0  0  0  0  0  0
  -47.3482   11.2819  -40.4447 H   0  0  0  0  0  0  0  0  0  0  0  0
  1  2  2  0
  2  3  1  0
  2  4  1  0
  4  5  2  0
  5  6  1  0
  5  7  1  0
  3  8  1  0
  7  8  1  0
  7  9  2  0
  9 10  1  0
 10 11  1  0
 11 12  2  0
 12 13  1  0
 13 14  2  0
 14 15  1  0
 15 16  1  0
 15 17  1  0
 14 18  1  0
 11 19  1  0
 18 19  2  0
 10 20  1  0
 20 21  1  0
 21 22  1  1
 21 23  1  0
 23 24  1  6
 24 25  3  0
 25 26  1  0
 23 27  1  0
 23 28  1  0
 28 29  1  0
 21 30  1  0
 29 30  1  0
  9 31  1  0
 30 31  1  0
  6 32  1  0
 31 32  1  0
  3 33  1  0
  3 34  1  0
  4 35  1  0
  6 36  1  0
  6 37  1  0
  8 38  1  0
  8 39  1  0
 10 40  1  6
 12 41  1  0
 13 42  1  0
 16 43  1  0
 16 44  1  0
 16 45  1  0
 17 46  1  0
 17 47  1  0
 17 48  1  0
 18 49  1  0
 19 50  1  0
 20 51  1  0
 20 52  1  0
 22 53  1  0
 22 54  1  0
 22 55  1  0
 26 56  1  0
 26 57  1  0
 26 58  1  0
 27 59  1  0
 28 60  1  0
 28 61  1  0
 29 62  1  0
 29 63  1  0
 30 64  1  6
 31 65  1  1
 32 66  1  0
 32 67  1  0
M  END
$$$$
