PDB_DB04786_99
     RDKit          3D

126133  0  0  0  0  0  0  0  0999 V2000
   18.3120  -29.5950   13.5870 O   0  0  0  0  0  0  0  0  0  0  0  0
   17.7710  -28.5320   14.4640 S   0  0  0  0  0  0  0  0  0  0  0  0
   18.7700  -28.0920   15.4260 O   0  0  0  0  0  0  0  0  0  0  0  0
   16.5620  -29.0330   15.1680 O   0  0  0  0  0  0  0  0  0  0  0  0
   17.3320  -27.2850   13.5550 C   0  0  0  0  0  0  0  0  0  0  0  0
   17.0410  -26.0490   14.1140 C   0  0  0  0  0  0  0  0  0  0  0  0
   16.7070  -24.9360   13.3340 C   0  0  0  0  0  0  0  0  0  0  0  0
   16.3200  -23.6790   14.2640 S   0  0  0  0  0  0  0  0  0  0  0  0
   16.7430  -23.9110   15.6530 O   0  0  0  0  0  0  0  0  0  0  0  0
   16.9910  -22.4880   13.7130 O   0  0  0  0  0  0  0  0  0  0  0  0
   14.8590  -23.5220   14.1780 O   0  0  0  0  0  0  0  0  0  0  0  0
   17.2540  -27.4250   12.1810 C   0  0  0  0  0  0  0  0  0  0  0  0
   16.8910  -26.3650   11.3530 C   0  0  0  0  0  0  0  0  0  0  0  0
   16.8670  -26.6130    9.9620 C   0  0  0  0  0  0  0  0  0  0  0  0
   17.0990  -28.0700    9.2780 S   0  0  0  0  0  0  0  0  0  0  0  0
   18.5500  -28.3820    9.3820 O   0  0  0  0  0  0  0  0  0  0  0  0
   16.2920  -29.0460    9.9380 O   0  0  0  0  0  0  0  0  0  0  0  0
   16.7320  -27.9190    7.8480 O   0  0  0  0  0  0  0  0  0  0  0  0
   16.4860  -25.5890    9.1150 C   0  0  0  0  0  0  0  0  0  0  0  0
   16.1940  -24.3380    9.6250 C   0  0  0  0  0  0  0  0  0  0  0  0
   16.5920  -25.0820   11.9150 C   0  0  0  0  0  0  0  0  0  0  0  0
   16.1990  -24.0660   10.9930 C   0  0  0  0  0  0  0  0  0  0  0  0
   15.9340  -22.7050   11.2590 N   0  0  0  0  0  0  0  0  0  0  0  0
   15.0440  -21.8930   10.6820 C   0  0  0  0  0  0  0  0  0  0  0  0
   14.2090  -22.2700    9.8720 O   0  0  0  0  0  0  0  0  0  0  0  0
   15.0730  -20.4370   11.0520 C   0  0  0  0  0  0  0  0  0  0  0  0
   14.3400  -19.5410   10.2760 C   0  0  0  0  0  0  0  0  0  0  0  0
   15.8690  -19.9520   12.0920 C   0  0  0  0  0  0  0  0  0  0  0  0
   15.8850  -18.5810   12.3740 C   0  0  0  0  0  0  0  0  0  0  0  0
   15.1310  -17.6900   11.6100 C   0  0  0  0  0  0  0  0  0  0  0  0
   15.1750  -16.2170   11.9530 C   0  0  0  0  0  0  0  0  0  0  0  0
   14.3540  -18.1740   10.5530 C   0  0  0  0  0  0  0  0  0  0  0  0
   13.5530  -17.3490    9.7490 N   0  0  0  0  0  0  0  0  0  0  0  0
   14.0470  -16.5240    8.8200 C   0  0  0  0  0  0  0  0  0  0  0  0
   15.2430  -16.4080    8.6150 O   0  0  0  0  0  0  0  0  0  0  0  0
   13.0890  -15.6990    8.0130 C   0  0  0  0  0  0  0  0  0  0  0  0
   11.7860  -15.4960    8.4650 C   0  0  0  0  0  0  0  0  0  0  0  0
   13.5100  -15.1370    6.8070 C   0  0  0  0  0  0  0  0  0  0  0  0
   12.6390  -14.3750    6.0430 C   0  0  0  0  0  0  0  0  0  0  0  0
   11.3380  -14.1740    6.4940 C   0  0  0  0  0  0  0  0  0  0  0  0
   10.9090  -14.7400    7.7010 C   0  0  0  0  0  0  0  0  0  0  0  0
    9.5910  -14.4760    8.0760 N   0  0  0  0  0  0  0  0  0  0  0  0
    8.9790  -14.6340    9.2490 C   0  0  0  0  0  0  0  0  0  0  0  0
    9.4960  -15.1060   10.2420 O   0  0  0  0  0  0  0  0  0  0  0  0
    7.7080  -14.2430    9.2000 N   0  0  0  0  0  0  0  0  0  0  0  0
    6.7410  -14.2310   10.2030 C   0  0  0  0  0  0  0  0  0  0  0  0
    5.8690  -13.1690   10.0980 C   0  0  0  0  0  0  0  0  0  0  0  0
    6.5870  -15.1520   11.2460 C   0  0  0  0  0  0  0  0  0  0  0  0
    5.5410  -14.9630   12.1670 C   0  0  0  0  0  0  0  0  0  0  0  0
    4.6570  -13.8800   12.0520 C   0  0  0  0  0  0  0  0  0  0  0  0
    4.8490  -12.9710   11.0090 C   0  0  0  0  0  0  0  0  0  0  0  0
    3.9730  -11.7870   10.7380 C   0  0  0  0  0  0  0  0  0  0  0  0
    3.9180  -11.3760    9.5820 O   0  0  0  0  0  0  0  0  0  0  0  0
    3.2550  -11.1980   11.6750 N   0  0  0  0  0  0  0  0  0  0  0  0
    2.4630  -10.1330   11.2140 C   0  0  0  0  0  0  0  0  0  0  0  0
    3.0010   -8.8530   11.1170 C   0  0  0  0  0  0  0  0  0  0  0  0
    1.1340  -10.3700   10.8280 C   0  0  0  0  0  0  0  0  0  0  0  0
    0.5270  -11.7510   10.9030 C   0  0  0  0  0  0  0  0  0  0  0  0
    0.3420   -9.3230   10.3680 C   0  0  0  0  0  0  0  0  0  0  0  0
    0.8800   -8.0420   10.2870 C   0  0  0  0  0  0  0  0  0  0  0  0
    2.2080   -7.8070   10.6540 C   0  0  0  0  0  0  0  0  0  0  0  0
    2.7880   -6.4240   10.5800 C   0  0  0  0  0  0  0  0  0  0  0  0
    3.9570   -6.2630   10.9200 O   0  0  0  0  0  0  0  0  0  0  0  0
    1.9870   -5.4410   10.1510 N   0  0  0  0  0  0  0  0  0  0  0  0
    2.3620   -4.0940   10.0420 C   0  0  0  0  0  0  0  0  0  0  0  0
    2.7800   -3.5240   11.2440 C   0  0  0  0  0  0  0  0  0  0  0  0
    3.1700   -2.1960   11.3110 C   0  0  0  0  0  0  0  0  0  0  0  0
    3.1630   -1.3980   10.1750 C   0  0  0  0  0  0  0  0  0  0  0  0
    3.5720    0.1510   10.4250 S   0  0  0  0  0  0  0  0  0  0  0  0
    3.8850    0.2900   11.9070 O   0  0  0  0  0  0  0  0  0  0  0  0
    4.7830    0.4380    9.6660 O   0  0  0  0  0  0  0  0  0  0  0  0
    2.4740    1.0150   10.0740 O   0  0  0  0  0  0  0  0  0  0  0  0
    2.3050   -3.3170    8.8520 C   0  0  0  0  0  0  0  0  0  0  0  0
    2.7090   -1.9490    8.9580 C   0  0  0  0  0  0  0  0  0  0  0  0
    2.6940   -1.1210    7.8310 C   0  0  0  0  0  0  0  0  0  0  0  0
    1.9010   -3.8040    7.5670 C   0  0  0  0  0  0  0  0  0  0  0  0
    1.3350   -5.2770    7.1570 S   0  0  0  0  0  0  0  0  0  0  0  0
    1.0070   -5.2520    5.7350 O   0  0  0  0  0  0  0  0  0  0  0  0
    0.2090   -5.6240    7.9830 O   0  0  0  0  0  0  0  0  0  0  0  0
    2.4530   -6.2930    7.3790 O   0  0  0  0  0  0  0  0  0  0  0  0
    1.8880   -2.9220    6.4820 C   0  0  0  0  0  0  0  0  0  0  0  0
    2.2630   -1.5890    6.5980 C   0  0  0  0  0  0  0  0  0  0  0  0
    2.3030   -0.6120    5.3150 S   0  0  0  0  0  0  0  0  0  0  0  0
    3.1160    0.5810    5.5870 O   0  0  0  0  0  0  0  0  0  0  0  0
    2.9250   -1.3890    4.1970 O   0  0  0  0  0  0  0  0  0  0  0  0
    0.9310   -0.2640    4.9660 O   0  0  0  0  0  0  0  0  0  0  0  0
   18.6834  -30.3247   14.1435 H   0  0  0  0  0  0  0  0  0  0  0  0
   17.0739  -25.9400   15.2081 H   0  0  0  0  0  0  0  0  0  0  0  0
   16.0649  -23.5391   16.2710 H   0  0  0  0  0  0  0  0  0  0  0  0
   17.4852  -28.4010   11.7293 H   0  0  0  0  0  0  0  0  0  0  0  0
   18.8080  -28.4375   10.3362 H   0  0  0  0  0  0  0  0  0  0  0  0
   16.4150  -25.7703    8.0324 H   0  0  0  0  0  0  0  0  0  0  0  0
   15.9482  -23.5257    8.9251 H   0  0  0  0  0  0  0  0  0  0  0  0
   16.5067  -22.2788   12.0014 H   0  0  0  0  0  0  0  0  0  0  0  0
   13.7418  -19.9172    9.4330 H   0  0  0  0  0  0  0  0  0  0  0  0
   16.4813  -20.6451   12.6876 H   0  0  0  0  0  0  0  0  0  0  0  0
   16.4977  -18.2028   13.2056 H   0  0  0  0  0  0  0  0  0  0  0  0
   15.1786  -16.0950   13.0462 H   0  0  0  0  0  0  0  0  0  0  0  0
   16.0869  -15.7694   11.5311 H   0  0  0  0  0  0  0  0  0  0  0  0
   14.2914  -15.7157   11.5311 H   0  0  0  0  0  0  0  0  0  0  0  0
   12.5320  -17.3805    9.8812 H   0  0  0  0  0  0  0  0  0  0  0  0
   11.4560  -15.9317    9.4196 H   0  0  0  0  0  0  0  0  0  0  0  0
   14.5410  -15.2998    6.4597 H   0  0  0  0  0  0  0  0  0  0  0  0
   12.9725  -13.9347    5.0918 H   0  0  0  0  0  0  0  0  0  0  0  0
   10.6414  -13.5661    5.8981 H   0  0  0  0  0  0  0  0  0  0  0  0
    8.9955  -14.0982    7.3253 H   0  0  0  0  0  0  0  0  0  0  0  0
    7.3915  -13.8973    8.2828 H   0  0  0  0  0  0  0  0  0  0  0  0
    5.9882  -12.4593    9.2660 H   0  0  0  0  0  0  0  0  0  0  0  0
    7.2714  -16.0076   11.3434 H   0  0  0  0  0  0  0  0  0  0  0  0
    5.4137  -15.6780   12.9932 H   0  0  0  0  0  0  0  0  0  0  0  0
    3.8313  -13.7495   12.7670 H   0  0  0  0  0  0  0  0  0  0  0  0
    3.2735  -11.4939   12.6614 H   0  0  0  0  0  0  0  0  0  0  0  0
    4.0467   -8.6691   11.4045 H   0  0  0  0  0  0  0  0  0  0  0  0
    0.4004  -12.0391   11.9570 H   0  0  0  0  0  0  0  0  0  0  0  0
   -0.4529  -11.7484   10.4033 H   0  0  0  0  0  0  0  0  0  0  0  0
    1.1915  -12.4712   10.4033 H   0  0  0  0  0  0  0  0  0  0  0  0
   -0.7011   -9.5061   10.0707 H   0  0  0  0  0  0  0  0  0  0  0  0
    0.2558   -7.2088    9.9317 H   0  0  0  0  0  0  0  0  0  0  0  0
    1.0252   -5.6922    9.8813 H   0  0  0  0  0  0  0  0  0  0  0  0
    2.8005   -4.1396   12.1554 H   0  0  0  0  0  0  0  0  0  0  0  0
    3.4883   -1.7699   12.2739 H   0  0  0  0  0  0  0  0  0  0  0  0
    3.1218   -0.0489   12.4387 H   0  0  0  0  0  0  0  0  0  0  0  0
    3.0306   -0.0779    7.9240 H   0  0  0  0  0  0  0  0  0  0  0  0
    0.0261   -5.1772    5.6239 H   0  0  0  0  0  0  0  0  0  0  0  0
    1.5686   -3.2979    5.4988 H   0  0  0  0  0  0  0  0  0  0  0  0
    3.2013    0.7062    6.5653 H   0  0  0  0  0  0  0  0  0  0  0  0
  1  2  1  0
  2  3  2  0
  2  4  2  0
  2  5  1  0
  5  6  2  0
  6  7  1  0
  7  8  1  0
  8  9  1  0
  8 10  2  0
  8 11  2  0
  5 12  1  0
 12 13  2  0
 13 14  1  0
 14 15  1  0
 15 16  1  0
 15 17  2  0
 15 18  2  0
 14 19  2  0
 19 20  1  0
  7 21  2  0
 13 21  1  0
 20 22  2  0
 21 22  1  0
 22 23  1  0
 23 24  1  0
 24 25  2  0
 24 26  1  0
 26 27  2  0
 26 28  1  0
 28 29  2  0
 29 30  1  0
 30 31  1  0
 27 32  1  0
 30 32  2  0
 32 33  1  0
 33 34  1  0
 34 35  2  0
 34 36  1  0
 36 37  2  0
 36 38  1  0
 38 39  2  0
 39 40  1  0
 37 41  1  0
 40 41  2  0
 41 42  1  0
 42 43  1  0
 43 44  2  0
 43 45  1  0
 45 46  1  0
 46 47  2  0
 46 48  1  0
 48 49  2  0
 49 50  1  0
 47 51  1  0
 50 51  2  0
 51 52  1  0
 52 53  2  0
 52 54  1  0
 54 55  1  0
 55 56  2  0
 55 57  1  0
 57 58  1  0
 57 59  2  0
 59 60  1  0
 56 61  1  0
 60 61  2  0
 61 62  1  0
 62 63  2  0
 62 64  1  0
 64 65  1  0
 65 66  2  0
 66 67  1  0
 67 68  2  0
 68 69  1  0
 69 70  1  0
 69 71  2  0
 69 72  2  0
 65 73  1  0
 68 74  1  0
 73 74  2  0
 74 75  1  0
 73 76  1  0
 76 77  1  0
 77 78  1  0
 77 79  2  0
 77 80  2  0
 76 81  2  0
 75 82  2  0
 81 82  1  0
 82 83  1  0
 83 84  1  0
 83 85  2  0
 83 86  2  0
  1 87  1  0
  6 88  1  0
  9 89  1  0
 12 90  1  0
 16 91  1  0
 19 92  1  0
 20 93  1  0
 23 94  1  0
 27 95  1  0
 28 96  1  0
 29 97  1  0
 31 98  1  0
 31 99  1  0
 31100  1  0
 33101  1  0
 37102  1  0
 38103  1  0
 39104  1  0
 40105  1  0
 42106  1  0
 45107  1  0
 47108  1  0
 48109  1  0
 49110  1  0
 50111  1  0
 54112  1  0
 56113  1  0
 58114  1  0
 58115  1  0
 58116  1  0
 59117  1  0
 60118  1  0
 64119  1  0
 66120  1  0
 67121  1  0
 70122  1  0
 75123  1  0
 78124  1  0
 81125  1  0
 84126  1  0
M  END
>  <PDBID>  (1) 
2NYR

>  <PDB ID>  (1) 
2NYR

>  <Generic Name>  (1) 
Suramin

>  <Brand Name>  (1) 
309 Fourneau#Antrypol#Bayer 205#Belganyl#Germanin#Moranyl#Naganin#Naganine#Naganol#Naphuride

>  <DrugBank ID>  (1) 
DB04786

>  <ATC Codes>  (1) 
P01CX02

>  <Ligand ID>  (1) 
SVR

>  <Target Name>  (1) 
NAD-dependent protein deacylase sirtuin-5, mitochondrial

>  <UniProt ID>  (1) 
Q9NXA8

>  <PDB ID.1>  (1) 
2NYR

>  <Seq. Identity>  (1) 
100%

$$$$
