PDB_DB00284_95
     RDKit          3D

 89 92  0  0  0  0  0  0  0  0999 V2000
    9.7550   44.5270    2.8140 C   0  0  2  0  0  0  0  0  0  0  0  0
    8.5610   44.7870    1.9040 C   0  0  1  0  0  0  0  0  0  0  0  0
    8.9600   44.5140    0.4560 C   0  0  2  0  0  0  0  0  0  0  0  0
    9.7860   45.6790   -0.0690 C   0  0  1  0  0  0  0  0  0  0  0  0
   10.9230   45.9350    0.9120 C   0  0  0  0  0  0  0  0  0  0  0  0
   12.1280   46.7400    0.4620 C   0  0  0  0  0  0  0  0  0  0  0  0
   10.8910   45.4090    2.3390 C   0  0  0  0  0  0  0  0  0  0  0  0
    7.4980   43.9320    2.2760 O   0  0  0  0  0  0  0  0  0  0  0  0
    7.8070   44.3360   -0.3530 O   0  0  0  0  0  0  0  0  0  0  0  0
   10.2580   45.3820   -1.3780 O   0  0  0  0  0  0  0  0  0  0  0  0
   12.5210   47.6340    1.4930 O   0  0  0  0  0  0  0  0  0  0  0  0
   11.1140   40.6580    6.0810 C   0  0  2  0  0  0  0  0  0  0  0  0
    9.7230   41.2590    6.0470 C   0  0  1  0  0  0  0  0  0  0  0  0
    9.3970   41.7200    4.6300 C   0  0  2  0  0  0  0  0  0  0  0  0
   10.4510   42.7100    4.1580 C   0  0  1  0  0  0  0  0  0  0  0  0
   11.8300   42.0580    4.2600 C   0  0  1  0  0  0  0  0  0  0  0  0
   12.9220   43.0430    3.8740 C   0  0  0  0  0  0  0  0  0  0  0  0
   10.1340   43.1170    2.7940 N   0  0  0  0  0  0  0  0  0  0  0  0
    8.7860   40.2830    6.4720 O   0  0  0  0  0  0  0  0  0  0  0  0
    8.1270   42.3430    4.6130 O   0  0  0  0  0  0  0  0  0  0  0  0
   12.0570   41.6080    5.6060 O   0  0  0  0  0  0  0  0  0  0  0  0
   12.4790   35.5190    6.2040 C   0  0  2  0  0  0  0  0  0  0  0  0
   11.0310   35.8780    6.5750 C   0  0  1  0  0  0  0  0  0  0  0  0
   10.5800   37.1450    5.8370 C   0  0  2  0  0  0  0  0  0  0  0  0
   11.5600   38.2820    6.0880 C   0  0  1  0  0  0  0  0  0  0  0  0
   12.9580   37.8220    5.6420 C   0  0  1  0  0  0  0  0  0  0  0  0
   14.0660   38.8560    5.8140 C   0  0  0  0  0  0  0  0  0  0  0  0
   10.1730   34.7980    6.2250 O   0  0  0  0  0  0  0  0  0  0  0  0
    9.2890   37.5280    6.2760 O   0  0  0  0  0  0  0  0  0  0  0  0
   11.1360   39.4550    5.3520 O   0  0  0  0  0  0  0  0  0  0  0  0
   13.3420   36.6410    6.3880 O   0  0  0  0  0  0  0  0  0  0  0  0
   14.1010   39.3620    7.1350 O   0  0  0  0  0  0  0  0  0  0  0  0
   13.8810   31.8910    2.6040 C   0  0  2  0  0  0  0  0  0  0  0  0
   12.7250   31.5340    3.5160 C   0  0  1  0  0  0  0  0  0  0  0  0
   12.0700   32.8220    4.0050 C   0  0  2  0  0  0  0  0  0  0  0  0
   13.1060   33.7550    4.6500 C   0  0  1  0  0  0  0  0  0  0  0  0
   14.3390   33.9390    3.7600 C   0  0  1  0  0  0  0  0  0  0  0  0
   15.4460   34.6330    4.5470 C   0  0  0  0  0  0  0  0  0  0  0  0
   14.4870   30.7360    2.1360 O   0  0  0  0  0  0  0  0  0  0  0  0
   11.7830   30.7570    2.7960 O   0  0  0  0  0  0  0  0  0  0  0  0
   11.0570   32.5120    4.9480 O   0  0  0  0  0  0  0  0  0  0  0  0
   12.5080   35.0510    4.8810 O   0  0  0  0  0  0  0  0  0  0  0  0
   14.8520   32.6560    3.3300 O   0  0  0  0  0  0  0  0  0  0  0  0
   16.5840   34.8900    3.7460 O   0  0  0  0  0  0  0  0  0  0  0  0
    9.5002   44.7669    3.8569 H   0  0  0  0  0  0  0  0  0  0  0  0
    8.2391   45.8344    2.0008 H   0  0  0  0  0  0  0  0  0  0  0  0
    9.5577   43.5913    0.4181 H   0  0  0  0  0  0  0  0  0  0  0  0
    9.1792   46.5932   -0.1472 H   0  0  0  0  0  0  0  0  0  0  0  0
   11.4173   45.0099    0.5806 H   0  0  0  0  0  0  0  0  0  0  0  0
   12.9595   46.0567    0.2345 H   0  0  0  0  0  0  0  0  0  0  0  0
   11.8650   47.3158   -0.4376 H   0  0  0  0  0  0  0  0  0  0  0  0
   10.9017   46.2894    2.9984 H   0  0  0  0  0  0  0  0  0  0  0  0
   11.7564   44.7306    2.3691 H   0  0  0  0  0  0  0  0  0  0  0  0
    7.4413   43.8864    3.2633 H   0  0  0  0  0  0  0  0  0  0  0  0
    7.0134   44.2135    0.2260 H   0  0  0  0  0  0  0  0  0  0  0  0
   11.0943   44.8558   -1.3158 H   0  0  0  0  0  0  0  0  0  0  0  0
   12.3396   47.2214    2.3745 H   0  0  0  0  0  0  0  0  0  0  0  0
   11.3954   40.4096    7.1150 H   0  0  0  0  0  0  0  0  0  0  0  0
    9.6749   42.1274    6.7205 H   0  0  0  0  0  0  0  0  0  0  0  0
    9.3872   40.8480    3.9595 H   0  0  0  0  0  0  0  0  0  0  0  0
   10.4603   43.6114    4.7885 H   0  0  0  0  0  0  0  0  0  0  0  0
   11.8591   41.2031    3.5684 H   0  0  0  0  0  0  0  0  0  0  0  0
   13.3809   43.4569    4.7840 H   0  0  0  0  0  0  0  0  0  0  0  0
   13.6892   42.5255    3.2794 H   0  0  0  0  0  0  0  0  0  0  0  0
   12.4860   43.8593    3.2794 H   0  0  0  0  0  0  0  0  0  0  0  0
    9.3522   42.5511    2.4342 H   0  0  0  0  0  0  0  0  0  0  0  0
    8.7617   40.2577    7.4614 H   0  0  0  0  0  0  0  0  0  0  0  0
    7.8207   42.4933    5.5423 H   0  0  0  0  0  0  0  0  0  0  0  0
   12.8465   34.7228    6.8681 H   0  0  0  0  0  0  0  0  0  0  0  0
   10.9807   36.0643    7.6579 H   0  0  0  0  0  0  0  0  0  0  0  0
   10.5502   36.9289    4.7588 H   0  0  0  0  0  0  0  0  0  0  0  0
   11.5906   38.5440    7.1559 H   0  0  0  0  0  0  0  0  0  0  0  0
   12.8611   37.6317    4.5629 H   0  0  0  0  0  0  0  0  0  0  0  0
   15.0334   38.3849    5.5857 H   0  0  0  0  0  0  0  0  0  0  0  0
   13.8672   39.6929    5.1284 H   0  0  0  0  0  0  0  0  0  0  0  0
    9.8312   34.3678    7.0485 H   0  0  0  0  0  0  0  0  0  0  0  0
    9.2656   37.5350    7.2657 H   0  0  0  0  0  0  0  0  0  0  0  0
   14.0490   38.6107    7.7776 H   0  0  0  0  0  0  0  0  0  0  0  0
   13.4950   32.4788    1.7581 H   0  0  0  0  0  0  0  0  0  0  0  0
   13.0862   30.9534    4.3776 H   0  0  0  0  0  0  0  0  0  0  0  0
   11.6288   33.3379    3.1395 H   0  0  0  0  0  0  0  0  0  0  0  0
   13.4246   33.2945    5.5968 H   0  0  0  0  0  0  0  0  0  0  0  0
   14.0391   34.5399    2.8888 H   0  0  0  0  0  0  0  0  0  0  0  0
   15.0613   35.5879    4.9345 H   0  0  0  0  0  0  0  0  0  0  0  0
   15.7507   33.9652    5.3663 H   0  0  0  0  0  0  0  0  0  0  0  0
   14.7778   30.1818    2.9031 H   0  0  0  0  0  0  0  0  0  0  0  0
   11.1980   30.2745    3.4324 H   0  0  0  0  0  0  0  0  0  0  0  0
   11.4147   32.6215    5.8646 H   0  0  0  0  0  0  0  0  0  0  0  0
   17.3647   35.0663    4.3287 H   0  0  0  0  0  0  0  0  0  0  0  0
  1  2  1  0
  2  3  1  0
  3  4  1  0
  4  5  1  0
  5  6  1  0
  1  7  1  0
  5  7  1  0
  2  8  1  0
  3  9  1  0
  4 10  1  0
  6 11  1  0
 12 13  1  0
 13 14  1  0
 14 15  1  0
 15 16  1  0
 16 17  1  0
  1 18  1  0
 15 18  1  0
 13 19  1  0
 14 20  1  0
 12 21  1  0
 16 21  1  0
 22 23  1  0
 23 24  1  0
 24 25  1  0
 25 26  1  0
 26 27  1  0
 23 28  1  0
 24 29  1  0
 12 30  1  0
 25 30  1  0
 22 31  1  0
 26 31  1  0
 27 32  1  0
 33 34  1  0
 34 35  1  0
 35 36  1  0
 36 37  1  0
 37 38  1  0
 33 39  1  0
 34 40  1  0
 35 41  1  0
 22 42  1  0
 36 42  1  0
 33 43  1  0
 37 43  1  0
 38 44  1  0
  1 45  1  1
  2 46  1  6
  3 47  1  1
  4 48  1  6
  5 49  1  0
  6 50  1  0
  6 51  1  0
  7 52  1  0
  7 53  1  0
  8 54  1  0
  9 55  1  0
 10 56  1  0
 11 57  1  0
 12 58  1  1
 13 59  1  1
 14 60  1  6
 15 61  1  1
 16 62  1  6
 17 63  1  0
 17 64  1  0
 17 65  1  0
 18 66  1  0
 19 67  1  0
 20 68  1  0
 22 69  1  1
 23 70  1  1
 24 71  1  6
 25 72  1  1
 26 73  1  6
 27 74  1  0
 27 75  1  0
 28 76  1  0
 29 77  1  0
 32 78  1  0
 33 79  1  6
 34 80  1  1
 35 81  1  6
 36 82  1  1
 37 83  1  6
 38 84  1  0
 38 85  1  0
 39 86  1  0
 40 87  1  0
 41 88  1  0
 44 89  1  0
M  END
>  <PDBID>  (1) 
1KXH

>  <PDB ID>  (1) 
1KXH

>  <Generic Name>  (1) 
Acarbose

>  <Brand Name>  (1) 
Acarbose#Glucobay#Precose#Prandase

>  <DrugBank ID>  (1) 
DB00284

>  <ATC Codes>  (1) 
A10BF01#A10BD17

>  <Ligand ID>  (1) 
ACR,QPS

>  <Target Name>  (1) 
Pancreatic alpha-amylase

>  <UniProt ID>  (1) 
P04746

>  <PDB ID.1>  (1) 
1KXH

>  <Seq. Identity>  (1) 
45%

$$$$
