PDB_DB00224_98
     RDKit          3D

114118  0  0  0  0  0  0  0  0999 V2000
    9.3350   24.4680    3.1140 N   0  0  0  0  0  0  0  0  0  0  0  0
    9.4030   24.7380    4.5690 C   0  0  0  0  0  0  0  0  0  0  0  0
   10.7000   25.4630    4.9540 C   0  0  1  0  0  0  0  0  0  0  0  0
   10.7510   25.6770    6.4560 C   0  0  0  0  0  0  0  0  0  0  0  0
   11.1530   24.7800    7.1970 O   0  0  0  0  0  0  0  0  0  0  0  0
   10.3340   26.8990    6.8710 N   0  0  0  0  0  0  0  0  0  0  0  0
   10.0620   27.2130    8.2730 C   0  0  2  0  0  0  0  0  0  0  0  0
    9.4680   28.6120    8.3850 C   0  0  0  0  0  0  0  0  0  0  0  0
   11.3670   27.1240    9.1060 C   0  0  0  0  0  0  0  0  0  0  0  0
    8.9380   26.3030    8.7870 C   0  0  0  0  0  0  0  0  0  0  0  0
   11.8610   24.6450    4.5220 N   0  0  0  0  0  0  0  0  0  0  0  0
   11.7780   24.4290    3.0710 C   0  0  0  0  0  0  0  0  0  0  0  0
   10.5050   23.6980    2.6900 C   0  0  0  0  0  0  0  0  0  0  0  0
   13.0700   25.4950    4.5650 C   0  0  0  0  0  0  0  0  0  0  0  0
   14.3490   24.8390    5.1220 C   0  0  1  0  0  0  0  0  0  0  0  0
   15.3090   25.6670    4.8290 O   0  0  0  0  0  0  0  0  0  0  0  0
   14.4490   24.5420    6.6320 C   0  0  0  0  0  0  0  0  0  0  0  0
   15.6490   23.7130    7.1090 C   0  0  1  0  0  0  0  0  0  0  0  0
   15.7550   23.6090    8.6300 C   0  0  0  0  0  0  0  0  0  0  0  0
   16.9130   22.7260    9.0480 C   0  0  1  0  0  0  0  0  0  0  0  0
   18.2390   22.9930    8.6660 C   0  0  0  0  0  0  0  0  0  0  0  0
   19.2700   22.0890    8.9830 C   0  0  0  0  0  0  0  0  0  0  0  0
   18.9350   20.9140    9.6970 C   0  0  0  0  0  0  0  0  0  0  0  0
   17.6150   20.6460   10.1220 C   0  0  0  0  0  0  0  0  0  0  0  0
   16.6110   21.5740    9.7870 C   0  0  0  0  0  0  0  0  0  0  0  0
   15.5650   22.3400    6.5350 C   0  0  1  0  0  0  0  0  0  0  0  0
   14.5180   21.6910    6.5700 O   0  0  0  0  0  0  0  0  0  0  0  0
   16.7330   21.8940    6.0900 N   0  0  0  0  0  0  0  0  0  0  0  0
   16.8990   20.4760    5.8320 C   0  0  2  0  0  0  0  0  0  0  0  0
   18.3450   19.9970    6.0790 C   0  0  2  0  0  0  0  0  0  0  0  0
   19.2450   20.7140    5.4160 O   0  0  0  0  0  0  0  0  0  0  0  0
   18.4690   18.6210    5.4960 C   0  0  0  0  0  0  0  0  0  0  0  0
   17.6110   18.9380    4.2480 C   0  0  0  0  0  0  0  0  0  0  0  0
   17.5970   18.2200    3.0320 C   0  0  0  0  0  0  0  0  0  0  0  0
   16.6960   18.6660    2.0380 C   0  0  0  0  0  0  0  0  0  0  0  0
   15.8570   19.8020    2.2470 C   0  0  0  0  0  0  0  0  0  0  0  0
   15.8770   20.4950    3.4800 C   0  0  0  0  0  0  0  0  0  0  0  0
   16.7610   20.0340    4.4520 C   0  0  1  0  0  0  0  0  0  0  0  0
    8.2090   23.5460    2.9300 C   0  0  0  0  0  0  0  0  0  0  0  0
    6.8650   24.2590    2.8410 C   0  0  0  0  0  0  0  0  0  0  0  0
    6.6250   25.2420    1.8560 C   0  0  0  0  0  0  0  0  0  0  0  0
    5.4280   25.8340    1.7700 N   0  0  0  0  0  0  0  0  0  0  0  0
    4.4200   25.5290    2.6030 C   0  0  0  0  0  0  0  0  0  0  0  0
    4.5560   24.5550    3.6240 C   0  0  0  0  0  0  0  0  0  0  0  0
    5.8140   23.9240    3.7240 C   0  0  0  0  0  0  0  0  0  0  0  0
    8.5459   25.3653    4.8552 H   0  0  0  0  0  0  0  0  0  0  0  0
    9.3806   23.7734    5.0973 H   0  0  0  0  0  0  0  0  0  0  0  0
   10.7325   26.4436    4.4566 H   0  0  0  0  0  0  0  0  0  0  0  0
    9.7248   25.2913    6.5458 H   0  0  0  0  0  0  0  0  0  0  0  0
   11.0310   25.0523    8.1410 H   0  0  0  0  0  0  0  0  0  0  0  0
   11.0584   27.5648    6.5663 H   0  0  0  0  0  0  0  0  0  0  0  0
    9.3549   28.8784    9.4462 H   0  0  0  0  0  0  0  0  0  0  0  0
   10.1369   29.3347    7.8948 H   0  0  0  0  0  0  0  0  0  0  0  0
    8.4835   28.6327    7.8948 H   0  0  0  0  0  0  0  0  0  0  0  0
   11.1198   27.1409   10.1777 H   0  0  0  0  0  0  0  0  0  0  0  0
   11.8923   26.1879    8.8656 H   0  0  0  0  0  0  0  0  0  0  0  0
   12.0146   27.9801    8.8656 H   0  0  0  0  0  0  0  0  0  0  0  0
    8.9394   26.3041    9.8870 H   0  0  0  0  0  0  0  0  0  0  0  0
    7.9694   26.6744    8.4212 H   0  0  0  0  0  0  0  0  0  0  0  0
    9.0997   25.2783    8.4212 H   0  0  0  0  0  0  0  0  0  0  0  0
   11.7959   25.4044    2.5628 H   0  0  0  0  0  0  0  0  0  0  0  0
   12.6354   23.8120    2.7642 H   0  0  0  0  0  0  0  0  0  0  0  0
   10.4900   22.7139    3.1812 H   0  0  0  0  0  0  0  0  0  0  0  0
   10.4759   23.5724    1.5976 H   0  0  0  0  0  0  0  0  0  0  0  0
   13.2834   25.8257    3.5378 H   0  0  0  0  0  0  0  0  0  0  0  0
   12.8303   26.3091    5.2648 H   0  0  0  0  0  0  0  0  0  0  0  0
   14.3802   23.8369    4.6694 H   0  0  0  0  0  0  0  0  0  0  0  0
   15.7116   26.0143    5.6641 H   0  0  0  0  0  0  0  0  0  0  0  0
   14.4853   25.5080    7.1569 H   0  0  0  0  0  0  0  0  0  0  0  0
   13.5697   23.9202    6.8560 H   0  0  0  0  0  0  0  0  0  0  0  0
   16.5494   24.2387    6.7585 H   0  0  0  0  0  0  0  0  0  0  0  0
   15.9046   24.6157    9.0473 H   0  0  0  0  0  0  0  0  0  0  0  0
   14.8252   23.1610    9.0104 H   0  0  0  0  0  0  0  0  0  0  0  0
   16.7750   22.1165    8.1428 H   0  0  0  0  0  0  0  0  0  0  0  0
   18.2366   23.0967    7.5709 H   0  0  0  0  0  0  0  0  0  0  0  0
   18.4949   23.8795    9.2648 H   0  0  0  0  0  0  0  0  0  0  0  0
   19.7302   21.7741    8.0348 H   0  0  0  0  0  0  0  0  0  0  0  0
   19.9205   22.6490    9.6710 H   0  0  0  0  0  0  0  0  0  0  0  0
   19.2291   20.0700    9.0558 H   0  0  0  0  0  0  0  0  0  0  0  0
   19.4579   21.0680   10.6524 H   0  0  0  0  0  0  0  0  0  0  0  0
   17.3226   19.6777    9.6898 H   0  0  0  0  0  0  0  0  0  0  0  0
   17.6674   20.6829   11.2201 H   0  0  0  0  0  0  0  0  0  0  0  0
   16.1721   21.9166   10.7357 H   0  0  0  0  0  0  0  0  0  0  0  0
   15.9729   21.0029    9.0966 H   0  0  0  0  0  0  0  0  0  0  0  0
   15.8603   21.9160    7.5061 H   0  0  0  0  0  0  0  0  0  0  0  0
   14.2602   21.5312    7.5124 H   0  0  0  0  0  0  0  0  0  0  0  0
   16.9250   22.3851    5.2052 H   0  0  0  0  0  0  0  0  0  0  0  0
   16.1117   20.0830    6.4920 H   0  0  0  0  0  0  0  0  0  0  0  0
   18.5275   20.0665    7.1615 H   0  0  0  0  0  0  0  0  0  0  0  0
   19.8331   21.1825    6.0600 H   0  0  0  0  0  0  0  0  0  0  0  0
   19.5059   18.3499    5.2484 H   0  0  0  0  0  0  0  0  0  0  0  0
   18.1713   17.7673    6.1225 H   0  0  0  0  0  0  0  0  0  0  0  0
   18.4143   19.5810    3.8591 H   0  0  0  0  0  0  0  0  0  0  0  0
   18.6105   18.2658    2.6070 H   0  0  0  0  0  0  0  0  0  0  0  0
   17.2538   17.2095    3.2987 H   0  0  0  0  0  0  0  0  0  0  0  0
   17.3018   18.8874    1.1469 H   0  0  0  0  0  0  0  0  0  0  0  0
   15.9696   17.8413    1.9903 H   0  0  0  0  0  0  0  0  0  0  0  0
   16.1202   20.5347    1.4699 H   0  0  0  0  0  0  0  0  0  0  0  0
   14.8461   19.3689    2.2244 H   0  0  0  0  0  0  0  0  0  0  0  0
   16.1354   21.5428    3.2671 H   0  0  0  0  0  0  0  0  0  0  0  0
   14.8760   20.3411    3.9094 H   0  0  0  0  0  0  0  0  0  0  0  0
   17.5696   20.7169    4.1524 H   0  0  0  0  0  0  0  0  0  0  0  0
    8.3678   22.9797    2.0004 H   0  0  0  0  0  0  0  0  0  0  0  0
    8.1750   22.8877    3.8106 H   0  0  0  0  0  0  0  0  0  0  0  0
    7.2319   25.0363    3.5274 H   0  0  0  0  0  0  0  0  0  0  0  0
    7.3619   26.0417    2.0215 H   0  0  0  0  0  0  0  0  0  0  0  0
    6.6905   24.6743    0.9161 H   0  0  0  0  0  0  0  0  0  0  0  0
    5.5976   26.8439    1.8809 H   0  0  0  0  0  0  0  0  0  0  0  0
    4.1433   26.4666    3.1073 H   0  0  0  0  0  0  0  0  0  0  0  0
    3.6971   25.0522    1.9248 H   0  0  0  0  0  0  0  0  0  0  0  0
    4.3509   25.0474    4.5860 H   0  0  0  0  0  0  0  0  0  0  0  0
    3.8474   23.7554    3.3621 H   0  0  0  0  0  0  0  0  0  0  0  0
    5.6343   22.8456    3.6025 H   0  0  0  0  0  0  0  0  0  0  0  0
    6.1887   24.2805    4.6948 H   0  0  0  0  0  0  0  0  0  0  0  0
  1  2  1  0
  2  3  1  0
  3  4  1  0
  4  5  1  0
  4  6  1  0
  7  6  1  6
  7  8  1  0
  7  9  1  0
  7 10  1  0
  3 11  1  0
 11 12  1  0
  1 13  1  0
 12 13  1  0
 11 14  1  0
 14 15  1  0
 15 16  1  0
 15 17  1  0
 17 18  1  0
 18 19  1  0
 19 20  1  0
 20 21  1  0
 21 22  1  0
 22 23  1  0
 23 24  1  0
 20 25  1  0
 24 25  1  0
 18 26  1  0
 26 27  1  0
 26 28  1  0
 28 29  1  0
 29 30  1  0
 30 31  1  0
 30 32  1  0
 32 33  1  0
 33 34  1  0
 34 35  1  0
 35 36  1  0
 36 37  1  0
 29 38  1  0
 33 38  1  0
 37 38  1  0
  1 39  1  0
 39 40  1  0
 40 41  1  0
 41 42  1  0
 42 43  1  0
 43 44  1  0
 40 45  1  0
 44 45  1  0
  2 46  1  0
  2 47  1  0
  3 48  1  6
  4 49  1  0
  5 50  1  0
  6 51  1  0
  8 52  1  0
  8 53  1  0
  8 54  1  0
  9 55  1  0
  9 56  1  0
  9 57  1  0
 10 58  1  0
 10 59  1  0
 10 60  1  0
 12 61  1  0
 12 62  1  0
 13 63  1  0
 13 64  1  0
 14 65  1  0
 14 66  1  0
 15 67  1  6
 16 68  1  0
 17 69  1  0
 17 70  1  0
 18 71  1  6
 19 72  1  0
 19 73  1  0
 20 74  1  1
 21 75  1  0
 21 76  1  0
 22 77  1  0
 22 78  1  0
 23 79  1  0
 23 80  1  0
 24 81  1  0
 24 82  1  0
 25 83  1  0
 25 84  1  0
 26 85  1  6
 27 86  1  0
 28 87  1  0
 29 88  1  1
 30 89  1  1
 31 90  1  0
 32 91  1  0
 32 92  1  0
 33 93  1  0
 34 94  1  0
 34 95  1  0
 35 96  1  0
 35 97  1  0
 36 98  1  0
 36 99  1  0
 37100  1  0
 37101  1  0
 38102  1  6
 39103  1  0
 39104  1  0
 40105  1  0
 41106  1  0
 41107  1  0
 42108  1  0
 43109  1  0
 43110  1  0
 44111  1  0
 44112  1  0
 45113  1  0
 45114  1  0
M  END
>  <PDBID>  (1) 
2BPX

>  <PDB ID>  (1) 
2BPX

>  <Generic Name>  (1) 
Indinavir

>  <Brand Name>  (1) 
Crixivan

>  <DrugBank ID>  (1) 
DB00224

>  <ATC Codes>  (1) 
J05AE02

>  <Ligand ID>  (1) 
MK1

>  <Target Name>  (1) 
Pol polyprotein

>  <UniProt ID>  (1) 
Q72874

>  <PDB ID.1>  (1) 
2BPX

>  <Seq. Identity>  (1) 
99%

$$$$
