PDB_DB00712_98
     RDKit          3D

180184  0  0  0  0  0  0  0  0999 V2000
   21.1880  -17.5930  -55.5490 C   0  0  0  0  0  0  0  0  0  0  0  0
   20.8870  -18.7930  -56.1830 C   0  0  0  0  0  0  0  0  0  0  0  0
   20.0720  -19.7160  -55.5480 C   0  0  0  0  0  0  0  0  0  0  0  0
   19.5470  -19.4390  -54.2960 C   0  0  0  0  0  0  0  0  0  0  0  0
   19.8560  -18.2450  -53.6680 C   0  0  0  0  0  0  0  0  0  0  0  0
   20.6560  -17.3070  -54.3000 C   0  0  1  0  0  0  0  0  0  0  0  0
   21.0200  -16.0490  -53.5790 C   0  0  1  0  0  0  0  0  0  0  0  0
   20.1320  -15.3230  -52.7870 C   0  0  0  0  0  0  0  0  0  0  0  0
   20.5690  -14.1840  -52.1100 C   0  0  0  0  0  0  0  0  0  0  0  0
   18.8690  -15.7050  -52.6930 F   0  0  0  0  0  0  0  0  0  0  0  0
   22.3480  -15.6540  -53.6550 C   0  0  0  0  0  0  0  0  0  0  0  0
   22.7830  -14.5270  -52.9830 C   0  0  0  0  0  0  0  0  0  0  0  0
   21.9030  -13.7870  -52.2140 C   0  0  0  0  0  0  0  0  0  0  0  0
   22.4490  -12.5870  -51.5050 C   0  0  1  0  0  0  0  0  0  0  0  0
   22.1150  -11.3130  -52.2170 C   0  0  0  0  0  0  0  0  0  0  0  0
   22.0460  -12.6070  -50.0440 C   0  0  0  0  0  0  0  0  0  0  0  0
   20.8530  -12.4120  -49.6540 O   0  0  0  0  0  0  0  0  0  0  0  0
   22.9310  -12.8430  -49.1710 O   0  0  0  0  0  0  0  0  0  0  0  0
   63.0940  -25.0100  -47.8220 C   0  0  0  0  0  0  0  0  0  0  0  0
   63.3670  -25.6930  -49.0040 C   0  0  0  0  0  0  0  0  0  0  0  0
   64.2420  -25.1390  -49.9290 C   0  0  0  0  0  0  0  0  0  0  0  0
   64.8280  -23.9040  -49.6750 C   0  0  0  0  0  0  0  0  0  0  0  0
   64.5480  -23.2200  -48.4950 C   0  0  0  0  0  0  0  0  0  0  0  0
   63.6940  -23.7830  -47.5510 C   0  0  1  0  0  0  0  0  0  0  0  0
   63.3590  -23.0060  -46.3160 C   0  0  1  0  0  0  0  0  0  0  0  0
   64.2810  -22.2190  -45.6520 C   0  0  0  0  0  0  0  0  0  0  0  0
   63.9330  -21.4640  -44.5300 C   0  0  0  0  0  0  0  0  0  0  0  0
   65.5150  -22.2220  -46.0990 F   0  0  0  0  0  0  0  0  0  0  0  0
   62.0530  -23.0080  -45.8720 C   0  0  0  0  0  0  0  0  0  0  0  0
   61.6910  -22.2650  -44.7620 C   0  0  0  0  0  0  0  0  0  0  0  0
   62.6200  -21.4960  -44.0790 C   0  0  0  0  0  0  0  0  0  0  0  0
   62.1480  -20.7120  -42.8890 C   0  0  1  0  0  0  0  0  0  0  0  0
   62.7960  -21.1500  -41.6160 C   0  0  0  0  0  0  0  0  0  0  0  0
   62.3990  -19.2540  -43.1300 C   0  0  0  0  0  0  0  0  0  0  0  0
   63.5740  -18.8120  -43.1640 O   0  0  0  0  0  0  0  0  0  0  0  0
   61.4380  -18.4630  -43.3090 O   0  0  0  0  0  0  0  0  0  0  0  0
   74.2860  -50.3880    5.8610 C   0  0  0  0  0  0  0  0  0  0  0  0
   74.5920  -49.2000    5.2080 C   0  0  0  0  0  0  0  0  0  0  0  0
   75.4990  -48.3120    5.7750 C   0  0  0  0  0  0  0  0  0  0  0  0
   76.1000  -48.6140    6.9860 C   0  0  0  0  0  0  0  0  0  0  0  0
   75.7800  -49.8020    7.6280 C   0  0  0  0  0  0  0  0  0  0  0  0
   74.8960  -50.7010    7.0610 C   0  0  1  0  0  0  0  0  0  0  0  0
   74.5440  -51.9510    7.7840 C   0  0  0  0  0  0  0  0  0  0  0  0
   75.4510  -52.7190    8.5030 C   0  0  0  0  0  0  0  0  0  0  0  0
   74.9960  -53.8630    9.1730 C   0  0  0  0  0  0  0  0  0  0  0  0
   76.7420  -52.3790    8.5420 F   0  0  0  0  0  0  0  0  0  0  0  0
   73.2180  -52.3200    7.7530 C   0  0  0  0  0  0  0  0  0  0  0  0
   72.7750  -53.4500    8.4120 C   0  0  0  0  0  0  0  0  0  0  0  0
   73.6520  -54.2380    9.1300 C   0  0  0  0  0  0  0  0  0  0  0  0
   73.0790  -55.4420    9.8340 C   0  0  1  0  0  0  0  0  0  0  0  0
   73.5160  -56.7360    9.2310 C   0  0  0  0  0  0  0  0  0  0  0  0
   73.3800  -55.3920   11.3060 C   0  0  0  0  0  0  0  0  0  0  0  0
   74.5620  -55.4180   11.7470 O   0  0  0  0  0  0  0  0  0  0  0  0
   72.4420  -55.3180   12.1370 O   0  0  0  0  0  0  0  0  0  0  0  0
   32.5160  -42.0760   13.2460 C   0  0  0  0  0  0  0  0  0  0  0  0
   32.2470  -41.3080   12.1200 C   0  0  0  0  0  0  0  0  0  0  0  0
   31.3810  -41.7690   11.1320 C   0  0  0  0  0  0  0  0  0  0  0  0
   30.7900  -43.0100   11.2820 C   0  0  0  0  0  0  0  0  0  0  0  0
   31.0620  -43.7830   12.4080 C   0  0  0  0  0  0  0  0  0  0  0  0
   31.9280  -43.3240   13.3960 C   0  0  0  0  0  0  0  0  0  0  0  0
   32.2180  -44.1530   14.6120 C   0  0  0  0  0  0  0  0  0  0  0  0
   31.2160  -44.8730   15.2530 C   0  0  0  0  0  0  0  0  0  0  0  0
   31.4840  -45.6420   16.3790 C   0  0  0  0  0  0  0  0  0  0  0  0
   29.9860  -44.8280   14.7690 F   0  0  0  0  0  0  0  0  0  0  0  0
   33.4960  -44.1960   15.1200 C   0  0  0  0  0  0  0  0  0  0  0  0
   33.7760  -44.9530   16.2470 C   0  0  0  0  0  0  0  0  0  0  0  0
   32.7790  -45.6800   16.8770 C   0  0  0  0  0  0  0  0  0  0  0  0
   33.1340  -46.4780   18.0900 C   0  0  1  0  0  0  0  0  0  0  0  0
   32.1310  -46.2150   19.1480 C   0  0  0  0  0  0  0  0  0  0  0  0
   33.1650  -47.9440   17.8040 C   0  0  0  0  0  0  0  0  0  0  0  0
   32.1070  -48.5840   17.5580 O   0  0  0  0  0  0  0  0  0  0  0  0
   34.2730  -48.5480   17.8150 O   0  0  0  0  0  0  0  0  0  0  0  0
   22.2822  -17.5583  -55.4417 H   0  0  0  0  0  0  0  0  0  0  0  0
   20.7144  -16.8425  -56.1990 H   0  0  0  0  0  0  0  0  0  0  0  0
   20.3993  -18.5378  -57.1354 H   0  0  0  0  0  0  0  0  0  0  0  0
   21.8591  -19.3046  -56.2410 H   0  0  0  0  0  0  0  0  0  0  0  0
   19.2173  -19.8961  -56.2166 H   0  0  0  0  0  0  0  0  0  0  0  0
   20.7524  -20.5580  -55.3531 H   0  0  0  0  0  0  0  0  0  0  0  0
   18.4520  -19.4721  -54.3957 H   0  0  0  0  0  0  0  0  0  0  0  0
   20.0170  -20.1952  -53.6501 H   0  0  0  0  0  0  0  0  0  0  0  0
   18.8999  -17.7475  -53.4479 H   0  0  0  0  0  0  0  0  0  0  0  0
   20.4740  -18.5650  -52.8161 H   0  0  0  0  0  0  0  0  0  0  0  0
   19.7667  -16.8710  -54.7786 H   0  0  0  0  0  0  0  0  0  0  0  0
   20.7194  -15.4587  -54.4572 H   0  0  0  0  0  0  0  0  0  0  0  0
   20.4004  -15.9423  -51.9184 H   0  0  0  0  0  0  0  0  0  0  0  0
   19.9572  -13.3441  -52.4708 H   0  0  0  0  0  0  0  0  0  0  0  0
   20.4659  -14.4605  -51.0503 H   0  0  0  0  0  0  0  0  0  0  0  0
   22.9494  -16.4958  -53.2813 H   0  0  0  0  0  0  0  0  0  0  0  0
   22.4629  -15.3722  -54.7121 H   0  0  0  0  0  0  0  0  0  0  0  0
   23.5918  -14.8521  -52.3121 H   0  0  0  0  0  0  0  0  0  0  0  0
   23.0417  -13.8359  -53.7987 H   0  0  0  0  0  0  0  0  0  0  0  0
   22.1540  -14.4006  -51.3362 H   0  0  0  0  0  0  0  0  0  0  0  0
   23.5479  -12.6335  -51.5239 H   0  0  0  0  0  0  0  0  0  0  0  0
   21.9081  -10.5239  -51.4791 H   0  0  0  0  0  0  0  0  0  0  0  0
   22.9645  -11.0118  -52.8475 H   0  0  0  0  0  0  0  0  0  0  0  0
   21.2270  -11.4673  -52.8475 H   0  0  0  0  0  0  0  0  0  0  0  0
   22.2453  -11.5274  -49.9743 H   0  0  0  0  0  0  0  0  0  0  0  0
   20.8259  -12.4076  -48.6644 H   0  0  0  0  0  0  0  0  0  0  0  0
   22.5396  -12.7386  -48.2677 H   0  0  0  0  0  0  0  0  0  0  0  0
   62.0076  -24.8386  -47.8029 H   0  0  0  0  0  0  0  0  0  0  0  0
   63.5283  -25.6680  -47.0549 H   0  0  0  0  0  0  0  0  0  0  0  0
   63.7804  -26.6718  -48.7194 H   0  0  0  0  0  0  0  0  0  0  0  0
   62.4013  -25.6927  -49.5306 H   0  0  0  0  0  0  0  0  0  0  0  0
   65.0627  -25.8593  -50.0615 H   0  0  0  0  0  0  0  0  0  0  0  0
   63.5995  -24.9411  -50.7997 H   0  0  0  0  0  0  0  0  0  0  0  0
   65.9166  -24.0605  -49.6982 H   0  0  0  0  0  0  0  0  0  0  0  0
   64.3875  -23.2567  -50.4476 H   0  0  0  0  0  0  0  0  0  0  0  0
   65.5106  -23.0491  -47.9908 H   0  0  0  0  0  0  0  0  0  0  0  0
   63.9947  -22.3344  -48.8408 H   0  0  0  0  0  0  0  0  0  0  0  0
   64.5468  -24.3020  -47.0891 H   0  0  0  0  0  0  0  0  0  0  0  0
   63.6476  -23.8674  -45.6958 H   0  0  0  0  0  0  0  0  0  0  0  0
   64.0249  -21.3699  -46.3028 H   0  0  0  0  0  0  0  0  0  0  0  0
   64.5676  -21.8083  -43.7001 H   0  0  0  0  0  0  0  0  0  0  0  0
   64.0747  -20.4234  -44.8573 H   0  0  0  0  0  0  0  0  0  0  0  0
   61.4346  -22.6490  -46.7079 H   0  0  0  0  0  0  0  0  0  0  0  0
   61.9055  -24.0452  -45.5365 H   0  0  0  0  0  0  0  0  0  0  0  0
   60.8989  -21.5769  -45.0922 H   0  0  0  0  0  0  0  0  0  0  0  0
   61.4354  -23.0418  -44.0263 H   0  0  0  0  0  0  0  0  0  0  0  0
   62.3788  -20.6353  -44.7201 H   0  0  0  0  0  0  0  0  0  0  0  0
   61.0703  -20.8971  -42.7696 H   0  0  0  0  0  0  0  0  0  0  0  0
   62.2229  -20.7627  -40.7607 H   0  0  0  0  0  0  0  0  0  0  0  0
   62.8181  -22.2490  -41.5750 H   0  0  0  0  0  0  0  0  0  0  0  0
   63.8240  -20.7608  -41.5750 H   0  0  0  0  0  0  0  0  0  0  0  0
   62.3605  -19.0683  -42.0465 H   0  0  0  0  0  0  0  0  0  0  0  0
   63.9064  -18.6870  -42.2399 H   0  0  0  0  0  0  0  0  0  0  0  0
   61.0832  -18.1710  -42.4321 H   0  0  0  0  0  0  0  0  0  0  0  0
   73.2027  -50.3743    6.0512 H   0  0  0  0  0  0  0  0  0  0  0  0
   74.6737  -51.1564    5.1760 H   0  0  0  0  0  0  0  0  0  0  0  0
   74.9900  -49.4736    4.2197 H   0  0  0  0  0  0  0  0  0  0  0  0
   73.6429  -48.6445    5.2328 H   0  0  0  0  0  0  0  0  0  0  0  0
   76.3093  -48.1758    5.0437 H   0  0  0  0  0  0  0  0  0  0  0  0
   74.8790  -47.4350    6.0125 H   0  0  0  0  0  0  0  0  0  0  0  0
   77.1858  -48.6271    6.8103 H   0  0  0  0  0  0  0  0  0  0  0  0
   75.7157  -47.8398    7.6664 H   0  0  0  0  0  0  0  0  0  0  0  0
   76.7263  -50.3435    7.7742 H   0  0  0  0  0  0  0  0  0  0  0  0
   75.2360  -49.4568    8.5196 H   0  0  0  0  0  0  0  0  0  0  0  0
   75.7263  -51.1735    6.5157 H   0  0  0  0  0  0  0  0  0  0  0  0
   74.7653  -52.5365    6.8794 H   0  0  0  0  0  0  0  0  0  0  0  0
   75.2518  -52.1144    9.4001 H   0  0  0  0  0  0  0  0  0  0  0  0
   75.5695  -54.7102    8.7688 H   0  0  0  0  0  0  0  0  0  0  0  0
   75.1369  -53.5944   10.2303 H   0  0  0  0  0  0  0  0  0  0  0  0
   72.6491  -51.4744    8.1669 H   0  0  0  0  0  0  0  0  0  0  0  0
   73.0669  -52.5838    6.6959 H   0  0  0  0  0  0  0  0  0  0  0  0
   72.0006  -53.1177    9.1191 H   0  0  0  0  0  0  0  0  0  0  0  0
   72.4717  -54.1111    7.5868 H   0  0  0  0  0  0  0  0  0  0  0  0
   73.4555  -53.6368   10.0299 H   0  0  0  0  0  0  0  0  0  0  0  0
   71.9882  -55.3983    9.6986 H   0  0  0  0  0  0  0  0  0  0  0  0
   73.7573  -57.4506   10.0316 H   0  0  0  0  0  0  0  0  0  0  0  0
   72.7054  -57.1427    8.6085 H   0  0  0  0  0  0  0  0  0  0  0  0
   74.4072  -56.5680    8.6085 H   0  0  0  0  0  0  0  0  0  0  0  0
   73.3388  -56.4903   11.3517 H   0  0  0  0  0  0  0  0  0  0  0  0
   74.5450  -55.4176   12.7369 H   0  0  0  0  0  0  0  0  0  0  0  0
   72.8114  -55.3471   13.0550 H   0  0  0  0  0  0  0  0  0  0  0  0
   33.6044  -42.2339   13.2690 H   0  0  0  0  0  0  0  0  0  0  0  0
   32.0702  -41.4889   14.0625 H   0  0  0  0  0  0  0  0  0  0  0  0
   31.8315  -40.3559   12.4818 H   0  0  0  0  0  0  0  0  0  0  0  0
   33.2174  -41.2859   11.6025 H   0  0  0  0  0  0  0  0  0  0  0  0
   30.5677  -41.0332   11.0478 H   0  0  0  0  0  0  0  0  0  0  0  0
   32.0283  -41.8908   10.2510 H   0  0  0  0  0  0  0  0  0  0  0  0
   29.7023  -42.8470   11.2649 H   0  0  0  0  0  0  0  0  0  0  0  0
   31.2285  -43.5977   10.4621 H   0  0  0  0  0  0  0  0  0  0  0  0
   30.0963  -43.9709   12.9001 H   0  0  0  0  0  0  0  0  0  0  0  0
   31.6049  -44.6427   11.9882 H   0  0  0  0  0  0  0  0  0  0  0  0
   31.0809  -42.8614   13.9236 H   0  0  0  0  0  0  0  0  0  0  0  0
   32.0054  -43.2855   15.2541 H   0  0  0  0  0  0  0  0  0  0  0  0
   31.4280  -45.7402   14.6103 H   0  0  0  0  0  0  0  0  0  0  0  0
   30.8392  -45.2657   17.1869 H   0  0  0  0  0  0  0  0  0  0  0  0
   31.3010  -46.6733   16.0429 H   0  0  0  0  0  0  0  0  0  0  0  0
   34.1432  -44.5755   14.3156 H   0  0  0  0  0  0  0  0  0  0  0  0
   33.6621  -43.1647   15.4648 H   0  0  0  0  0  0  0  0  0  0  0  0
   34.5541  -45.6739   15.9557 H   0  0  0  0  0  0  0  0  0  0  0  0
   34.0338  -44.1903   16.9965 H   0  0  0  0  0  0  0  0  0  0  0  0
   33.0014  -46.5434   16.2327 H   0  0  0  0  0  0  0  0  0  0  0  0
   34.1400  -46.1742   18.4150 H   0  0  0  0  0  0  0  0  0  0  0  0
   32.5992  -46.3378   20.1358 H   0  0  0  0  0  0  0  0  0  0  0  0
   31.7523  -45.1872   19.0469 H   0  0  0  0  0  0  0  0  0  0  0  0
   31.2967  -46.9247   19.0469 H   0  0  0  0  0  0  0  0  0  0  0  0
   33.0437  -48.1558   18.8766 H   0  0  0  0  0  0  0  0  0  0  0  0
   31.6742  -48.8458   18.4091 H   0  0  0  0  0  0  0  0  0  0  0  0
   34.5556  -48.7020   18.7512 H   0  0  0  0  0  0  0  0  0  0  0  0
  1  2  1  0
  2  3  1  0
  3  4  1  0
  4  5  1  0
  1  6  1  0
  5  6  1  0
  6  7  1  0
  7  8  1  0
  8  9  1  0
  8 10  1  0
  7 11  1  0
 11 12  1  0
  9 13  1  0
 12 13  1  0
 13 14  1  0
 14 15  1  0
 14 16  1  0
 16 17  1  0
 16 18  1  0
 19 20  1  0
 20 21  1  0
 21 22  1  0
 22 23  1  0
 19 24  1  0
 23 24  1  0
 24 25  1  0
 25 26  1  0
 26 27  1  0
 26 28  1  0
 25 29  1  0
 29 30  1  0
 27 31  1  0
 30 31  1  0
 31 32  1  0
 32 33  1  0
 32 34  1  0
 34 35  1  0
 34 36  1  0
 37 38  1  0
 38 39  1  0
 39 40  1  0
 40 41  1  0
 37 42  1  0
 41 42  1  0
 42 43  1  0
 43 44  1  0
 44 45  1  0
 44 46  1  0
 43 47  1  0
 47 48  1  0
 45 49  1  0
 48 49  1  0
 49 50  1  0
 50 51  1  0
 50 52  1  0
 52 53  1  0
 52 54  1  0
 55 56  1  0
 56 57  1  0
 57 58  1  0
 58 59  1  0
 55 60  1  0
 59 60  1  0
 60 61  1  0
 61 62  1  0
 62 63  1  0
 62 64  1  0
 61 65  1  0
 65 66  1  0
 63 67  1  0
 66 67  1  0
 67 68  1  0
 68 69  1  0
 68 70  1  0
 70 71  1  0
 70 72  1  0
  1 73  1  0
  1 74  1  0
  2 75  1  0
  2 76  1  0
  3 77  1  0
  3 78  1  0
  4 79  1  0
  4 80  1  0
  5 81  1  0
  5 82  1  0
  6 83  1  6
  7 84  1  6
  8 85  1  0
  9 86  1  0
  9 87  1  0
 11 88  1  0
 11 89  1  0
 12 90  1  0
 12 91  1  0
 13 92  1  0
 14 93  1  1
 15 94  1  0
 15 95  1  0
 15 96  1  0
 16 97  1  0
 17 98  1  0
 18 99  1  0
 19100  1  0
 19101  1  0
 20102  1  0
 20103  1  0
 21104  1  0
 21105  1  0
 22106  1  0
 22107  1  0
 23108  1  0
 23109  1  0
 24110  1  1
 25111  1  1
 26112  1  0
 27113  1  0
 27114  1  0
 29115  1  0
 29116  1  0
 30117  1  0
 30118  1  0
 31119  1  0
 32120  1  1
 33121  1  0
 33122  1  0
 33123  1  0
 34124  1  0
 35125  1  0
 36126  1  0
 37127  1  0
 37128  1  0
 38129  1  0
 38130  1  0
 39131  1  0
 39132  1  0
 40133  1  0
 40134  1  0
 41135  1  0
 41136  1  0
 42137  1  6
 43138  1  0
 44139  1  0
 45140  1  0
 45141  1  0
 47142  1  0
 47143  1  0
 48144  1  0
 48145  1  0
 49146  1  0
 50147  1  1
 51148  1  0
 51149  1  0
 51150  1  0
 52151  1  0
 53152  1  0
 54153  1  0
 55154  1  0
 55155  1  0
 56156  1  0
 56157  1  0
 57158  1  0
 57159  1  0
 58160  1  0
 58161  1  0
 59162  1  0
 59163  1  0
 60164  1  0
 61165  1  0
 62166  1  0
 63167  1  0
 63168  1  0
 65169  1  0
 65170  1  0
 66171  1  0
 66172  1  0
 67173  1  0
 68174  1  1
 69175  1  0
 69176  1  0
 69177  1  0
 70178  1  0
 71179  1  0
 72180  1  0
M  END
>  <PDBID>  (1) 
3RR3

>  <PDB ID>  (1) 
3RR3

>  <Generic Name>  (1) 
Flurbiprofen

>  <Brand Name>  (1) 
Ansaid Tablets 100 mg#Ansaid Tablets 50 mg#Antiphlamine Pain Relieving#Apo-flurbiprofen Fc Tablets 100mg#Apo-flurbiprofen Fc Tablets 50mg#Flurbiprofen#Flurbiprofen Sodium#Flurbiprofen-100 Tab 100mg#Flurbiprofen-50 Tab 50mg#Froben#Froben SR#Froben Tab 100mg#Froben Tab 50mg#Froben-SR Cap 200mg#Novo-flurprofen SR#Nu-flurbiprofen Tab 100mg#Nu-flurbiprofen Tab 50mg#Ocufen#Ocufen Oph Soln 0.03%#Ratio-flurbiprofen Tablets 100mg#Ratio-flurbiprofen Tablets 50mg#Teva-flurbiprofen#Acustop Cataplasma#Adofeed#Ansaid#Antadys#Cebutid#Flurofen#Ocuflur#Stayban#Strefen#Strepfen#Strepsils#Strepsils Intensive#TransAct#Urbifen#Zepolas

>  <DrugBank ID>  (1) 
DB00712

>  <ATC Codes>  (1) 
M02AA19#R02AX01#M01AE09#S01BC04

>  <Ligand ID>  (1) 
FLP,FLR

>  <Target Name>  (1) 
Prostaglandin G/H synthase 2

>  <UniProt ID>  (1) 
P35354

>  <PDB ID.1>  (1) 
3RR3

>  <Seq. Identity>  (1) 
85%

$$$$
