PDB_DB01197_99
     RDKit          3D

 29 29  0  0  0  0  0  0  0  0999 V2000
  -11.9350    8.1700  -21.7690 O   0  0  0  0  0  0  0  0  0  0  0  0
  -13.0580    7.9770  -22.2130 C   0  0  0  0  0  0  0  0  0  0  0  0
  -14.2070    7.8800  -21.2390 C   0  0  1  0  0  0  0  0  0  0  0  0
  -13.7120    7.2700  -19.9260 C   0  0  0  0  0  0  0  0  0  0  0  0
  -14.9740    6.3130  -19.0560 S   0  0  0  0  0  0  0  0  0  0  0  0
  -14.8120    9.2650  -21.0110 C   0  0  0  0  0  0  0  0  0  0  0  0
  -13.3030    7.8480  -23.5300 N   0  0  0  0  0  0  0  0  0  0  0  0
  -12.2040    7.9330  -24.5070 C   0  0  2  0  0  0  0  0  0  0  0  0
  -11.5680    9.2980  -24.6070 C   0  0  0  0  0  0  0  0  0  0  0  0
  -10.4480    9.4180  -25.1590 O   0  0  0  0  0  0  0  0  0  0  0  0
  -12.1770   10.2740  -24.1310 O   0  0  0  0  0  0  0  0  0  0  0  0
  -14.6050    7.6110  -24.1690 C   0  0  0  0  0  0  0  0  0  0  0  0
  -14.3100    7.3180  -25.6330 C   0  0  0  0  0  0  0  0  0  0  0  0
  -12.8260    7.5580  -25.8480 C   0  0  0  0  0  0  0  0  0  0  0  0
  -14.9918    7.2288  -21.6514 H   0  0  0  0  0  0  0  0  0  0  0  0
  -12.8633    6.6064  -20.1483 H   0  0  0  0  0  0  0  0  0  0  0  0
  -13.4274    8.1044  -19.2682 H   0  0  0  0  0  0  0  0  0  0  0  0
  -14.7974    6.4469  -17.7040 H   0  0  0  0  0  0  0  0  0  0  0  0
  -14.8952    9.4555  -19.9308 H   0  0  0  0  0  0  0  0  0  0  0  0
  -14.1651   10.0277  -21.4690 H   0  0  0  0  0  0  0  0  0  0  0  0
  -15.8111    9.3086  -21.4690 H   0  0  0  0  0  0  0  0  0  0  0  0
  -11.3889    7.2645  -24.1929 H   0  0  0  0  0  0  0  0  0  0  0  0
  -10.0236   10.3097  -25.2289 H   0  0  0  0  0  0  0  0  0  0  0  0
  -15.1087    6.7520  -23.7018 H   0  0  0  0  0  0  0  0  0  0  0  0
  -15.2704    8.4801  -24.0594 H   0  0  0  0  0  0  0  0  0  0  0  0
  -14.5605    6.2726  -25.8662 H   0  0  0  0  0  0  0  0  0  0  0  0
  -14.9097    7.9654  -26.2897 H   0  0  0  0  0  0  0  0  0  0  0  0
  -12.6819    8.3776  -26.5674 H   0  0  0  0  0  0  0  0  0  0  0  0
  -12.3487    6.6510  -26.2475 H   0  0  0  0  0  0  0  0  0  0  0  0
  1  2  2  0
  2  3  1  0
  3  4  1  0
  4  5  1  0
  3  6  1  0
  2  7  1  0
  7  8  1  0
  8  9  1  0
  9 10  1  0
  9 11  2  0
  7 12  1  0
 12 13  1  0
  8 14  1  0
 13 14  1  0
  3 15  1  6
  4 16  1  0
  4 17  1  0
  5 18  1  0
  6 19  1  0
  6 20  1  0
  6 21  1  0
  8 22  1  1
 10 23  1  0
 12 24  1  0
 12 25  1  0
 13 26  1  0
 13 27  1  0
 14 28  1  0
 14 29  1  0
M  END
>  <PDBID>  (1) 
4C2P

>  <PDB ID>  (1) 
4C2P

>  <Generic Name>  (1) 
Captopril

>  <Brand Name>  (1) 
Apo-capto Tab 100mg#Apo-capto Tab 12.5mg#Apo-capto Tab 25mg#Apo-capto Tab 50mg#Apo-capto Tab 6.25mg#Bci Captopril Tablets#Capoten Tab 100mg#Capoten Tab 12.5mg#Capoten Tab 25mg#Capoten Tab 50mg#Captopril#Captopril Tablets#Captopril and Hydrochlorothiazide#Captopril-100 Tab 100mg#Captopril-12.5 Tab 12.5mg#Captopril-25 Tab 25mg#Captopril-50 Tab 50mg#Captril#Dom-captopril#Ftp-captopril#Med Captopril - Tab  12.5mg#Med Captopril - Tab 100mg#Med Captopril - Tab 25mg#Med Captopril - Tab 50mg#Mylan-captopril#Novo-captoril#Nu-capto Tab 100mg#Nu-capto Tab 12.5mg#Nu-capto Tab 25mg#Nu-capto Tab 50mg#Orb-captopril#PMS-captopril - Tab  12.5mg#PMS-captopril - Tab  25mg#PMS-captopril - Tab  50mg#PMS-captopril - Tab 100mg#Penta-captopril Tablets#Ratio-captopril Tab 100mg#Ratio-captopril Tab 12.5mg#Ratio-captopril Tab 25mg#Ratio-captopril Tab 50mg#Teva-captopril#Tria-captopril 100mg Tablet#Tria-captopril 12.5mg Tablet#Tria-captopril 25mg Tablet#Tria-captopril 50mg Tablet#Acepress#Acepril#Alopresin#Apopril#Capoten#Captolane#Captoril#Cesplon#Dilabar#Garranil#Hipertil#Hypertil#Lopirin#Lopril#Tenosbon#Tensoprel

>  <DrugBank ID>  (1) 
DB01197

>  <ATC Codes>  (1) 
C09AA01#C09BA01

>  <Ligand ID>  (1) 
X8Z

>  <Target Name>  (1) 
Angiotensin-converting enzyme

>  <UniProt ID>  (1) 
P12821

>  <PDB ID.1>  (1) 
4C2P

>  <Seq. Identity>  (1) 
100%

$$$$
