PDB_DB01232_98
     RDKit          3D

 99103  0  0  0  0  0  0  0  0999 V2000
  -12.4490   14.2580   32.6220 C   0  0  0  0  0  0  0  0  0  0  0  0
  -12.9120   15.3120   33.0110 O   0  0  0  0  0  0  0  0  0  0  0  0
  -12.6120   11.8530   32.2520 N   0  0  0  0  0  0  0  0  0  0  0  0
  -13.2280   12.9760   32.6820 C   0  0  0  0  0  0  0  0  0  0  0  0
  -14.5340   12.9240   33.1620 C   0  0  0  0  0  0  0  0  0  0  0  0
  -15.1940   11.7000   33.1890 C   0  0  0  0  0  0  0  0  0  0  0  0
  -15.1670    9.3190   32.7470 C   0  0  0  0  0  0  0  0  0  0  0  0
  -14.4890    8.1940   32.2900 C   0  0  0  0  0  0  0  0  0  0  0  0
  -13.1850    8.2980   31.8170 C   0  0  0  0  0  0  0  0  0  0  0  0
  -12.5520    9.5320   31.8070 C   0  0  0  0  0  0  0  0  0  0  0  0
  -14.5320   10.5580   32.7380 C   0  0  0  0  0  0  0  0  0  0  0  0
  -13.2300   10.6570   32.2660 C   0  0  0  0  0  0  0  0  0  0  0  0
  -11.2150   14.1660   32.1550 N   0  0  0  0  0  0  0  0  0  0  0  0
  -10.3540   15.3290   32.0120 C   0  0  2  0  0  0  0  0  0  0  0  0
   -9.9030   15.3780   30.5810 C   0  0  0  0  0  0  0  0  0  0  0  0
   -8.8880   14.7860   30.2510 O   0  0  0  0  0  0  0  0  0  0  0  0
   -9.1770   15.1020   32.9470 C   0  0  0  0  0  0  0  0  0  0  0  0
   -9.7410   15.0720   34.3460 C   0  0  0  0  0  0  0  0  0  0  0  0
  -10.1480   16.0950   34.8810 O   0  0  0  0  0  0  0  0  0  0  0  0
   -9.7850   13.8740   34.9220 N   0  0  0  0  0  0  0  0  0  0  0  0
   -9.9910   17.6190   28.0410 C   0  0  1  0  0  0  0  0  0  0  0  0
  -11.1630   18.4200   28.1940 O   0  0  0  0  0  0  0  0  0  0  0  0
  -10.3350   16.1530   28.2920 C   0  0  1  0  0  0  0  0  0  0  0  0
  -10.6760   16.0480   29.7150 N   0  0  0  0  0  0  0  0  0  0  0  0
  -11.5940   15.7810   27.5110 C   0  0  0  0  0  0  0  0  0  0  0  0
  -12.0940   14.4290   27.9460 C   0  0  0  0  0  0  0  0  0  0  0  0
  -11.4630   13.2780   27.4830 C   0  0  0  0  0  0  0  0  0  0  0  0
  -13.1910   14.3390   28.7990 C   0  0  0  0  0  0  0  0  0  0  0  0
  -11.9210   12.0280   27.8780 C   0  0  0  0  0  0  0  0  0  0  0  0
  -13.6410   13.0860   29.1960 C   0  0  0  0  0  0  0  0  0  0  0  0
  -13.0110   11.9390   28.7350 C   0  0  0  0  0  0  0  0  0  0  0  0
   -7.9540   17.5660   26.6860 N   0  0  0  0  0  0  0  0  0  0  0  0
   -9.3940   17.8670   26.6550 C   0  0  0  0  0  0  0  0  0  0  0  0
   -7.4660   17.4010   25.3090 C   0  0  2  0  0  0  0  0  0  0  0  0
   -8.1200   16.2400   24.6340 C   0  0  0  0  0  0  0  0  0  0  0  0
   -8.1760   15.1520   25.1980 O   0  0  0  0  0  0  0  0  0  0  0  0
   -5.9680   17.1400   25.2920 C   0  0  0  0  0  0  0  0  0  0  0  0
   -5.2250   18.2800   25.9670 C   0  0  2  0  0  0  0  0  0  0  0  0
   -3.7490   17.9330   25.9800 C   0  0  0  0  0  0  0  0  0  0  0  0
   -3.5330   16.6850   26.8210 C   0  0  0  0  0  0  0  0  0  0  0  0
   -3.9580   16.9500   28.2610 C   0  0  0  0  0  0  0  0  0  0  0  0
   -5.4370   17.3240   28.3170 C   0  0  0  0  0  0  0  0  0  0  0  0
   -5.7620   18.4850   27.3770 C   0  0  2  0  0  0  0  0  0  0  0  0
   -7.2720   18.6950   27.3390 C   0  0  0  0  0  0  0  0  0  0  0  0
   -8.5680   16.5250   23.4130 N   0  0  0  0  0  0  0  0  0  0  0  0
   -9.2340   15.5850   22.5250 C   0  0  0  0  0  0  0  0  0  0  0  0
   -9.5270   16.2660   21.1980 C   0  0  0  0  0  0  0  0  0  0  0  0
   -8.3740   14.3610   22.2680 C   0  0  0  0  0  0  0  0  0  0  0  0
  -10.5600   15.1620   23.1390 C   0  0  0  0  0  0  0  0  0  0  0  0
  -15.0361   13.8370   33.5145 H   0  0  0  0  0  0  0  0  0  0  0  0
  -16.2267   11.6333   33.5619 H   0  0  0  0  0  0  0  0  0  0  0  0
  -16.2002    9.2303   33.1139 H   0  0  0  0  0  0  0  0  0  0  0  0
  -14.9881    7.2138   32.3027 H   0  0  0  0  0  0  0  0  0  0  0  0
  -12.6575    7.4044   31.4520 H   0  0  0  0  0  0  0  0  0  0  0  0
  -11.5195    9.6208   31.4382 H   0  0  0  0  0  0  0  0  0  0  0  0
  -10.8523   13.2409   31.8839 H   0  0  0  0  0  0  0  0  0  0  0  0
  -10.8532   16.2772   32.2602 H   0  0  0  0  0  0  0  0  0  0  0  0
   -8.6860   14.1455   32.7146 H   0  0  0  0  0  0  0  0  0  0  0  0
   -8.4239   15.8964   32.8386 H   0  0  0  0  0  0  0  0  0  0  0  0
  -10.1576   13.7752   35.8771 H   0  0  0  0  0  0  0  0  0  0  0  0
   -9.4465   13.0451   34.4129 H   0  0  0  0  0  0  0  0  0  0  0  0
   -9.2260   17.8956   28.7814 H   0  0  0  0  0  0  0  0  0  0  0  0
  -11.3513   18.5487   29.1574 H   0  0  0  0  0  0  0  0  0  0  0  0
   -9.4981   15.5035   27.9957 H   0  0  0  0  0  0  0  0  0  0  0  0
  -11.5342   16.5023   30.0585 H   0  0  0  0  0  0  0  0  0  0  0  0
  -12.3735   16.5343   27.6978 H   0  0  0  0  0  0  0  0  0  0  0  0
  -11.3544   15.7474   26.4379 H   0  0  0  0  0  0  0  0  0  0  0  0
  -10.6013   13.3586   26.8040 H   0  0  0  0  0  0  0  0  0  0  0  0
  -13.6955   15.2496   29.1544 H   0  0  0  0  0  0  0  0  0  0  0  0
  -11.4249   11.1157   27.5154 H   0  0  0  0  0  0  0  0  0  0  0  0
  -14.4998   13.0030   29.8783 H   0  0  0  0  0  0  0  0  0  0  0  0
  -13.3775   10.9510   29.0506 H   0  0  0  0  0  0  0  0  0  0  0  0
   -9.8898   17.2166   25.9194 H   0  0  0  0  0  0  0  0  0  0  0  0
   -9.5450   18.9189   26.3711 H   0  0  0  0  0  0  0  0  0  0  0  0
   -7.7064   18.3352   24.7803 H   0  0  0  0  0  0  0  0  0  0  0  0
   -5.7572   16.2025   25.8274 H   0  0  0  0  0  0  0  0  0  0  0  0
   -5.6308   17.0626   24.2478 H   0  0  0  0  0  0  0  0  0  0  0  0
   -5.3719   19.2229   25.4198 H   0  0  0  0  0  0  0  0  0  0  0  0
   -3.4064   17.7467   24.9515 H   0  0  0  0  0  0  0  0  0  0  0  0
   -3.1778   18.7695   26.4090 H   0  0  0  0  0  0  0  0  0  0  0  0
   -4.1327   15.8596   26.4097 H   0  0  0  0  0  0  0  0  0  0  0  0
   -2.4668   16.4153   26.8018 H   0  0  0  0  0  0  0  0  0  0  0  0
   -3.7899   16.0438   28.8615 H   0  0  0  0  0  0  0  0  0  0  0  0
   -3.3628   17.7837   28.6619 H   0  0  0  0  0  0  0  0  0  0  0  0
   -6.0372   16.4498   28.0247 H   0  0  0  0  0  0  0  0  0  0  0  0
   -5.6729   17.6380   29.3445 H   0  0  0  0  0  0  0  0  0  0  0  0
   -5.2596   19.3793   27.7743 H   0  0  0  0  0  0  0  0  0  0  0  0
   -7.4913   19.6171   26.7808 H   0  0  0  0  0  0  0  0  0  0  0  0
   -7.6378   18.7693   28.3737 H   0  0  0  0  0  0  0  0  0  0  0  0
   -8.4323   17.4868   23.0703 H   0  0  0  0  0  0  0  0  0  0  0  0
   -9.9555   17.2619   21.3837 H   0  0  0  0  0  0  0  0  0  0  0  0
   -8.5937   16.3694   20.6250 H   0  0  0  0  0  0  0  0  0  0  0  0
  -10.2438   15.6595   20.6250 H   0  0  0  0  0  0  0  0  0  0  0  0
   -8.0653   13.9216   23.2280 H   0  0  0  0  0  0  0  0  0  0  0  0
   -8.9516   13.6208   21.6949 H   0  0  0  0  0  0  0  0  0  0  0  0
   -7.4818   14.6535   21.6949 H   0  0  0  0  0  0  0  0  0  0  0  0
  -10.4808   15.1873   24.2359 H   0  0  0  0  0  0  0  0  0  0  0  0
  -11.3520   15.8521   22.8126 H   0  0  0  0  0  0  0  0  0  0  0  0
  -10.8060   14.1408   22.8126 H   0  0  0  0  0  0  0  0  0  0  0  0
  1  2  2  0
  1  4  1  0
  3  4  2  0
  4  5  1  0
  5  6  2  0
  7  8  1  0
  8  9  2  0
  9 10  1  0
  6 11  1  0
  7 11  2  0
  3 12  1  0
 10 12  2  0
 11 12  1  0
  1 13  1  0
 13 14  1  0
 14 15  1  0
 15 16  2  0
 14 17  1  0
 17 18  1  0
 18 19  2  0
 18 20  1  0
 21 22  1  0
 21 23  1  0
 15 24  1  0
 23 24  1  0
 23 25  1  0
 25 26  1  0
 26 27  2  0
 26 28  1  0
 27 29  1  0
 28 30  2  0
 29 31  2  0
 30 31  1  0
 21 33  1  0
 32 33  1  0
 32 34  1  0
 34 35  1  0
 35 36  2  0
 34 37  1  0
 37 38  1  0
 38 39  1  0
 39 40  1  0
 40 41  1  0
 41 42  1  0
 38 43  1  0
 42 43  1  0
 32 44  1  0
 43 44  1  0
 35 45  1  0
 45 46  1  0
 46 47  1  0
 46 48  1  0
 46 49  1  0
  5 50  1  0
  6 51  1  0
  7 52  1  0
  8 53  1  0
  9 54  1  0
 10 55  1  0
 13 56  1  0
 14 57  1  1
 17 58  1  0
 17 59  1  0
 20 60  1  0
 20 61  1  0
 21 62  1  1
 22 63  1  0
 23 64  1  6
 24 65  1  0
 25 66  1  0
 25 67  1  0
 27 68  1  0
 28 69  1  0
 29 70  1  0
 30 71  1  0
 31 72  1  0
 33 73  1  0
 33 74  1  0
 34 75  1  6
 37 76  1  0
 37 77  1  0
 38 78  1  6
 39 79  1  0
 39 80  1  0
 40 81  1  0
 40 82  1  0
 41 83  1  0
 41 84  1  0
 42 85  1  0
 42 86  1  0
 43 87  1  1
 44 88  1  0
 44 89  1  0
 45 90  1  0
 47 91  1  0
 47 92  1  0
 47 93  1  0
 48 94  1  0
 48 95  1  0
 48 96  1  0
 49 97  1  0
 49 98  1  0
 49 99  1  0
M  END
>  <PDBID>  (1) 
4Q5M

>  <PDB ID>  (1) 
4Q5M

>  <Generic Name>  (1) 
Saquinavir

>  <Brand Name>  (1) 
Fortovase Roche#Invirase#Invirase - Cap 200mg#Fortovase#ROC

>  <DrugBank ID>  (1) 
DB01232

>  <ATC Codes>  (1) 
J05AE01

>  <Ligand ID>  (1) 
ROC

>  <Target Name>  (1) 
Pol polyprotein

>  <UniProt ID>  (1) 
Q72874

>  <PDB ID.1>  (1) 
4Q5M

>  <Seq. Identity>  (1) 
98%

$$$$
