PDB_DB00300_99
     RDKit          3D

 41 42  0  0  0  0  0  0  0  0999 V2000
   30.2900  141.7810  -17.7520 P   0  0  0  0  0  4  0  0  0  0  0  0
   29.4440  140.7590  -18.4710 O   0  0  0  0  0  0  0  0  0  0  0  0
   31.4500  141.5060  -16.9610 O   0  0  0  0  0  0  0  0  0  0  0  0
   31.0650  142.5100  -18.9970 C   0  0  0  0  0  0  0  0  0  0  0  0
   32.5710  142.3080  -18.9150 O   0  0  0  0  0  0  0  0  0  0  0  0
   32.2320  140.6080  -20.8320 C   0  0  0  0  0  0  0  0  0  0  0  0
   33.0210  141.9960  -20.1630 C   0  0  2  0  0  0  0  0  0  0  0  0
   34.4990  141.7730  -20.0480 C   0  0  0  0  0  0  0  0  0  0  0  0
   35.6340  141.8150  -19.2430 N   0  0  0  0  0  0  0  0  0  0  0  0
   36.7610  141.5010  -19.8530 C   0  0  1  0  0  0  0  0  0  0  0  0
   36.7030  141.1380  -21.0990 N   0  0  0  0  0  0  0  0  0  0  0  0
   37.8680  140.9270  -21.5810 C   0  0  0  0  0  0  0  0  0  0  0  0
   39.0210  141.0870  -20.9220 N   0  0  0  0  0  0  0  0  0  0  0  0
   39.0410  141.5160  -19.6370 C   0  0  0  0  0  0  0  0  0  0  0  0
   40.2710  141.7460  -19.0920 N   0  0  0  0  0  0  0  0  0  0  0  0
   37.7810  141.7200  -19.0150 C   0  0  0  0  0  0  0  0  0  0  0  0
   37.3230  142.1430  -17.7660 N   0  0  0  0  0  0  0  0  0  0  0  0
   35.9730  142.1610  -17.9070 C   0  0  0  0  0  0  0  0  0  0  0  0
   29.4744  142.2594  -16.9811 H   0  0  0  0  0  0  0  0  0  0  0  0
   28.9754  140.1929  -17.8076 H   0  0  0  0  0  0  0  0  0  0  0  0
   31.2154  141.5616  -16.0008 H   0  0  0  0  0  0  0  0  0  0  0  0
   30.6989  142.0851  -19.9432 H   0  0  0  0  0  0  0  0  0  0  0  0
   30.8594  143.5894  -18.9454 H   0  0  0  0  0  0  0  0  0  0  0  0
   31.8668  139.9656  -20.0172 H   0  0  0  0  0  0  0  0  0  0  0  0
   31.3831  140.9321  -21.4520 H   0  0  0  0  0  0  0  0  0  0  0  0
   32.9447  140.0444  -21.4520 H   0  0  0  0  0  0  0  0  0  0  0  0
   32.7927  142.8200  -20.8550 H   0  0  0  0  0  0  0  0  0  0  0  0
   34.5450  140.7207  -20.3650 H   0  0  0  0  0  0  0  0  0  0  0  0
   34.6725  142.8205  -20.3354 H   0  0  0  0  0  0  0  0  0  0  0  0
   36.6374  140.4532  -19.5420 H   0  0  0  0  0  0  0  0  0  0  0  0
   36.1498  140.2720  -21.1698 H   0  0  0  0  0  0  0  0  0  0  0  0
   37.8623  139.8763  -21.9066 H   0  0  0  0  0  0  0  0  0  0  0  0
   37.9359  141.7612  -22.2948 H   0  0  0  0  0  0  0  0  0  0  0  0
   39.4922  140.1712  -20.9314 H   0  0  0  0  0  0  0  0  0  0  0  0
   39.0820  140.4731  -19.2895 H   0  0  0  0  0  0  0  0  0  0  0  0
   40.1992  141.7326  -18.0646 H   0  0  0  0  0  0  0  0  0  0  0  0
   40.9256  141.0128  -19.4001 H   0  0  0  0  0  0  0  0  0  0  0  0
   37.7593  140.6627  -18.7122 H   0  0  0  0  0  0  0  0  0  0  0  0
   37.6064  141.4827  -17.0280 H   0  0  0  0  0  0  0  0  0  0  0  0
   35.5937  143.1685  -17.6812 H   0  0  0  0  0  0  0  0  0  0  0  0
   35.5211  141.4365  -17.2135 H   0  0  0  0  0  0  0  0  0  0  0  0
  1  2  1  0
  1  3  1  0
  1  4  1  0
  4  5  1  0
  5  7  1  0
  6  7  1  0
  7  8  1  0
  8  9  1  0
  9 10  1  0
 10 11  1  0
 11 12  1  0
 12 13  1  0
 13 14  1  0
 14 15  1  0
 10 16  1  0
 14 16  1  0
 16 17  1  0
  9 18  1  0
 17 18  1  0
  1 19  1  0
  2 20  1  0
  3 21  1  0
  4 22  1  0
  4 23  1  0
  6 24  1  0
  6 25  1  0
  6 26  1  0
  7 27  1  6
  8 28  1  0
  8 29  1  0
 10 30  1  1
 11 31  1  0
 12 32  1  0
 12 33  1  0
 13 34  1  0
 14 35  1  0
 15 36  1  0
 15 37  1  0
 16 38  1  0
 17 39  1  0
 18 40  1  0
 18 41  1  0
M  RAD  1   1   2
M  END
>  <PDBID>  (1) 
1T03

>  <PDB ID>  (1) 
1T03

>  <Generic Name>  (1) 
Tenofovir

>  <Brand Name>  (1) 
Atripla#Complera#Stribild#Truvada#Viread

>  <DrugBank ID>  (1) 
DB00300

>  <ATC Codes>  (1) 
nan

>  <Ligand ID>  (1) 
TFO

>  <Target Name>  (1) 
Reverse transcriptase/RNaseH

>  <UniProt ID>  (1) 
Q72547

>  <PDB ID.1>  (1) 
1T03

>  <Seq. Identity>  (1) 
95%

$$$$
