PDB_DB01409_99
     RDKit          3D

116124  0  0  0  0  0  0  0  0999 V2000
   43.6800   91.7760   57.9190 C   0  0  2  0  0  0  0  0  0  0  0  0
   43.9030   91.9900   59.1040 O   0  0  0  0  0  0  0  0  0  0  0  0
   42.1170   93.6150   57.2840 C   0  0  0  0  0  0  0  0  0  0  0  0
   42.2560   91.5840   55.9140 C   0  0  0  0  0  0  0  0  0  0  0  0
   43.0540   94.6280   57.3030 C   0  0  0  0  0  0  0  0  0  0  0  0
   42.6240   95.9230   57.2610 C   0  0  0  0  0  0  0  0  0  0  0  0
   41.2780   96.1740   57.1920 C   0  0  0  0  0  0  0  0  0  0  0  0
   42.5380   92.2220   54.7250 C   0  0  0  0  0  0  0  0  0  0  0  0
   42.3990   91.5310   53.5570 C   0  0  0  0  0  0  0  0  0  0  0  0
   41.9830   90.2230   53.6060 C   0  0  0  0  0  0  0  0  0  0  0  0
   46.5970   92.0430   53.4030 O   0  0  0  0  0  0  0  0  0  0  0  0
   44.7430   91.5260   57.0250 O   0  0  0  0  0  0  0  0  0  0  0  0
   41.3560   91.5340   58.0850 O   0  0  0  0  0  0  0  0  0  0  0  0
   40.5880   94.5250   57.1870 S   0  0  0  0  0  0  0  0  0  0  0  0
   41.7810   89.9600   55.3650 S   0  0  0  0  0  0  0  0  0  0  0  0
   49.2910   92.3800   56.6690 C   0  0  0  0  0  0  0  0  0  0  0  0
   47.2640   93.1710   55.6260 C   0  0  2  0  0  0  0  0  0  0  0  0
   46.4690   93.1920   56.9130 C   0  0  0  0  0  0  0  0  0  0  0  0
   46.0880   91.7830   57.3690 C   0  0  2  0  0  0  0  0  0  0  0  0
   46.9650   90.6550   56.8170 C   0  0  0  0  0  0  0  0  0  0  0  0
   47.6390   91.0560   55.5300 C   0  0  1  0  0  0  0  0  0  0  0  0
   46.5000   91.2420   54.5620 C   0  0  1  0  0  0  0  0  0  0  0  0
   46.2580   92.7040   54.6060 C   0  0  2  0  0  0  0  0  0  0  0  0
   49.2400   92.4470   54.4310 C   0  0  0  0  0  0  0  0  0  0  0  0
   42.3340   92.1260   57.3150 C   0  0  1  0  0  0  0  0  0  0  0  0
   48.3510   92.2680   55.5780 N   0  0  2  0  0  4  0  0  0  0  0  0
   19.3220   87.7410   56.6240 C   0  0  1  0  0  0  0  0  0  0  0  0
   19.0130   88.3530   57.6430 O   0  0  0  0  0  0  0  0  0  0  0  0
   21.0890   86.1530   55.8680 C   0  0  0  0  0  0  0  0  0  0  0  0
   21.0870   88.4860   55.0740 C   0  0  0  0  0  0  0  0  0  0  0  0
   20.2340   85.1830   55.3810 C   0  0  0  0  0  0  0  0  0  0  0  0
   20.7270   83.9410   55.0970 C   0  0  0  0  0  0  0  0  0  0  0  0
   22.0610   83.6950   55.2930 C   0  0  0  0  0  0  0  0  0  0  0  0
   21.0430   88.1910   53.7270 C   0  0  0  0  0  0  0  0  0  0  0  0
   21.3550   89.1660   52.8250 C   0  0  0  0  0  0  0  0  0  0  0  0
   21.7020   90.4150   53.2850 C   0  0  0  0  0  0  0  0  0  0  0  0
   16.9570   88.2820   51.7820 O   0  0  0  0  0  0  0  0  0  0  0  0
   18.4230   87.7410   55.5420 O   0  0  0  0  0  0  0  0  0  0  0  0
   21.5570   87.9530   57.3270 O   0  0  0  0  0  0  0  0  0  0  0  0
   22.6390   85.2730   55.9030 S   0  0  0  0  0  0  0  0  0  0  0  0
   21.5810   90.1980   55.0580 S   0  0  0  0  0  0  0  0  0  0  0  0
   13.9090   87.4310   54.6280 C   0  0  0  0  0  0  0  0  0  0  0  0
   15.9780   86.7340   53.6040 C   0  0  2  0  0  0  0  0  0  0  0  0
   16.5950   86.3460   54.9270 C   0  0  0  0  0  0  0  0  0  0  0  0
   17.0360   87.5740   55.7240 C   0  0  2  0  0  0  0  0  0  0  0  0
   16.3160   88.8790   55.3710 C   0  0  0  0  0  0  0  0  0  0  0  0
   15.7500   88.8380   53.9750 C   0  0  1  0  0  0  0  0  0  0  0  0
   16.9740   88.7850   53.1000 C   0  0  1  0  0  0  0  0  0  0  0  0
   17.1190   87.3350   52.8210 C   0  0  2  0  0  0  0  0  0  0  0  0
   14.1870   87.8460   52.4450 C   0  0  0  0  0  0  0  0  0  0  0  0
   20.7840   87.5840   56.2440 C   0  0  1  0  0  0  0  0  0  0  0  0
   14.9610   87.7090   53.6780 N   0  0  2  0  0  4  0  0  0  0  0  0
   43.4636   90.7377   58.2108 H   0  0  0  0  0  0  0  0  0  0  0  0
   43.3114   91.4223   59.6589 H   0  0  0  0  0  0  0  0  0  0  0  0
   42.0642   93.6433   58.3824 H   0  0  0  0  0  0  0  0  0  0  0  0
   41.2091   91.9142   55.8429 H   0  0  0  0  0  0  0  0  0  0  0  0
   43.6377   94.5111   58.2280 H   0  0  0  0  0  0  0  0  0  0  0  0
   43.6034   94.4996   56.3587 H   0  0  0  0  0  0  0  0  0  0  0  0
   42.9978   96.4165   58.1702 H   0  0  0  0  0  0  0  0  0  0  0  0
   43.0122   96.2992   56.3030 H   0  0  0  0  0  0  0  0  0  0  0  0
   40.9338   96.7480   58.0650 H   0  0  0  0  0  0  0  0  0  0  0  0
   40.9850   96.7785   56.3210 H   0  0  0  0  0  0  0  0  0  0  0  0
   41.8747   93.0974   54.6631 H   0  0  0  0  0  0  0  0  0  0  0  0
   43.6169   92.4279   54.7842 H   0  0  0  0  0  0  0  0  0  0  0  0
   41.6698   92.0790   52.9423 H   0  0  0  0  0  0  0  0  0  0  0  0
   43.4237   91.4689   53.1620 H   0  0  0  0  0  0  0  0  0  0  0  0
   41.0323   90.0860   53.0699 H   0  0  0  0  0  0  0  0  0  0  0  0
   42.6809   89.5183   53.1302 H   0  0  0  0  0  0  0  0  0  0  0  0
   41.5679   91.6623   59.0435 H   0  0  0  0  0  0  0  0  0  0  0  0
   48.7518   92.3158   57.6256 H   0  0  0  0  0  0  0  0  0  0  0  0
   50.0248   91.5629   56.6061 H   0  0  0  0  0  0  0  0  0  0  0  0
   49.8123   93.3466   56.6061 H   0  0  0  0  0  0  0  0  0  0  0  0
   47.7146   94.1634   55.4775 H   0  0  0  0  0  0  0  0  0  0  0  0
   47.0748   93.6685   57.6978 H   0  0  0  0  0  0  0  0  0  0  0  0
   45.5415   93.7551   56.7324 H   0  0  0  0  0  0  0  0  0  0  0  0
   46.2460   91.7794   58.4576 H   0  0  0  0  0  0  0  0  0  0  0  0
   47.7358   90.4054   57.5610 H   0  0  0  0  0  0  0  0  0  0  0  0
   46.3210   89.7870   56.6124 H   0  0  0  0  0  0  0  0  0  0  0  0
   48.3826   90.2889   55.2682 H   0  0  0  0  0  0  0  0  0  0  0  0
   46.0401   90.2481   54.6652 H   0  0  0  0  0  0  0  0  0  0  0  0
   45.5125   93.5004   54.7478 H   0  0  0  0  0  0  0  0  0  0  0  0
   50.2605   92.6525   54.7866 H   0  0  0  0  0  0  0  0  0  0  0  0
   49.2414   91.5311   53.8218 H   0  0  0  0  0  0  0  0  0  0  0  0
   48.8869   93.2921   53.8218 H   0  0  0  0  0  0  0  0  0  0  0  0
   19.1436   86.7626   57.0939 H   0  0  0  0  0  0  0  0  0  0  0  0
   19.2790   87.8261   58.4378 H   0  0  0  0  0  0  0  0  0  0  0  0
   20.8783   85.8227   56.8959 H   0  0  0  0  0  0  0  0  0  0  0  0
   22.1435   88.1814   55.1062 H   0  0  0  0  0  0  0  0  0  0  0  0
   19.4394   85.0497   56.1299 H   0  0  0  0  0  0  0  0  0  0  0  0
   19.9279   85.5734   54.3992 H   0  0  0  0  0  0  0  0  0  0  0  0
   20.1721   83.2238   55.7196 H   0  0  0  0  0  0  0  0  0  0  0  0
   20.5988   83.8488   54.0084 H   0  0  0  0  0  0  0  0  0  0  0  0
   22.2164   82.8977   56.0348 H   0  0  0  0  0  0  0  0  0  0  0  0
   22.5866   83.3465   54.3917 H   0  0  0  0  0  0  0  0  0  0  0  0
   21.7418   87.3588   53.5565 H   0  0  0  0  0  0  0  0  0  0  0  0
   19.9790   87.9869   53.5367 H   0  0  0  0  0  0  0  0  0  0  0  0
   22.2024   88.7950   52.2299 H   0  0  0  0  0  0  0  0  0  0  0  0
   20.4119   89.3368   52.2852 H   0  0  0  0  0  0  0  0  0  0  0  0
   22.7252   90.6831   52.9831 H   0  0  0  0  0  0  0  0  0  0  0  0
   21.0718   91.2260   52.8912 H   0  0  0  0  0  0  0  0  0  0  0  0
   21.0811   87.7258   58.1648 H   0  0  0  0  0  0  0  0  0  0  0  0
   14.3014   87.5347   55.6504 H   0  0  0  0  0  0  0  0  0  0  0  0
   13.0828   88.1416   54.4785 H   0  0  0  0  0  0  0  0  0  0  0  0
   13.5417   86.4050   54.4785 H   0  0  0  0  0  0  0  0  0  0  0  0
   15.5032   85.8435   53.1662 H   0  0  0  0  0  0  0  0  0  0  0  0
   15.8539   85.7855   55.5158 H   0  0  0  0  0  0  0  0  0  0  0  0
   17.4835   85.7298   54.7248 H   0  0  0  0  0  0  0  0  0  0  0  0
   16.7672   87.3749   56.7719 H   0  0  0  0  0  0  0  0  0  0  0  0
   15.4946   89.0384   56.0851 H   0  0  0  0  0  0  0  0  0  0  0  0
   17.0457   89.7005   55.4233 H   0  0  0  0  0  0  0  0  0  0  0  0
   15.0809   89.6993   53.8319 H   0  0  0  0  0  0  0  0  0  0  0  0
   17.4792   89.6870   53.4758 H   0  0  0  0  0  0  0  0  0  0  0  0
   17.7932   86.4661   52.8399 H   0  0  0  0  0  0  0  0  0  0  0  0
   13.1318   88.0328   52.6933 H   0  0  0  0  0  0  0  0  0  0  0  0
   14.5800   88.6885   51.8571 H   0  0  0  0  0  0  0  0  0  0  0  0
   14.2669   86.9197   51.8571 H   0  0  0  0  0  0  0  0  0  0  0  0
  1  2  1  0
  3  5  1  0
  5  6  1  0
  6  7  1  0
  4  8  1  0
  8  9  1  0
  9 10  1  0
  1 12  1  0
  3 14  1  0
  7 14  1  0
  4 15  1  0
 10 15  1  0
 17 18  1  0
 12 19  1  0
 18 19  1  0
 19 20  1  0
 20 21  1  0
 11 22  1  0
 21 22  1  0
 11 23  1  0
 17 23  1  0
 22 23  1  0
  1 25  1  0
  3 25  1  0
  4 25  1  0
 25 13  1  1
 26 16  1  1
 17 26  1  0
 21 26  1  0
 24 26  1  0
 27 28  1  0
 29 31  1  0
 31 32  1  0
 32 33  1  0
 30 34  1  0
 34 35  1  0
 35 36  1  0
 27 38  1  0
 29 40  1  0
 33 40  1  0
 30 41  1  0
 36 41  1  0
 43 44  1  0
 38 45  1  0
 44 45  1  0
 45 46  1  0
 46 47  1  0
 37 48  1  0
 47 48  1  0
 37 49  1  0
 43 49  1  0
 48 49  1  0
 27 51  1  0
 29 51  1  0
 30 51  1  0
 51 39  1  1
 52 42  1  1
 43 52  1  0
 47 52  1  0
 50 52  1  0
  1 53  1  1
  2 54  1  0
  3 55  1  0
  4 56  1  0
  5 57  1  0
  5 58  1  0
  6 59  1  0
  6 60  1  0
  7 61  1  0
  7 62  1  0
  8 63  1  0
  8 64  1  0
  9 65  1  0
  9 66  1  0
 10 67  1  0
 10 68  1  0
 13 69  1  0
 16 70  1  0
 16 71  1  0
 16 72  1  0
 17 73  1  6
 18 74  1  0
 18 75  1  0
 19 76  1  1
 20 77  1  0
 20 78  1  0
 21 79  1  6
 22 80  1  6
 23 81  1  6
 24 82  1  0
 24 83  1  0
 24 84  1  0
 27 85  1  1
 28 86  1  0
 29 87  1  0
 30 88  1  0
 31 89  1  0
 31 90  1  0
 32 91  1  0
 32 92  1  0
 33 93  1  0
 33 94  1  0
 34 95  1  0
 34 96  1  0
 35 97  1  0
 35 98  1  0
 36 99  1  0
 36100  1  0
 39101  1  0
 42102  1  0
 42103  1  0
 42104  1  0
 43105  1  6
 44106  1  0
 44107  1  0
 45108  1  1
 46109  1  0
 46110  1  0
 47111  1  6
 48112  1  6
 49113  1  6
 50114  1  0
 50115  1  0
 50116  1  0
M  CHG  2  26   1  52   1
M  END
>  <PDBID>  (1) 
4U15

>  <PDB ID>  (1) 
4U15

>  <Generic Name>  (1) 
Tiotropium

>  <Brand Name>  (1) 
Inspiolto Respimat#Spiriva#Spiriva Respimat#Stiolto Respimat

>  <DrugBank ID>  (1) 
DB01409

>  <ATC Codes>  (1) 
R03AL06#R03BB54#R03BB04

>  <Ligand ID>  (1) 
0HK

>  <Target Name>  (1) 
Muscarinic acetylcholine receptor M3

>  <UniProt ID>  (1) 
P20309

>  <PDB ID.1>  (1) 
4U15

>  <Seq. Identity>  (1) 
98%

$$$$
