PDB_DB00203_97
     RDKit          3D

316328  0  0  0  0  0  0  0  0999 V2000
  -12.3870  -29.3570   39.4640 C   0  0  0  0  0  0  0  0  0  0  0  0
  -12.6090  -28.8860   40.9210 C   0  0  0  0  0  0  0  0  0  0  0  0
  -11.8040  -27.6220   41.2620 C   0  0  0  0  0  0  0  0  0  0  0  0
  -12.1880  -27.1720   42.6510 C   0  0  0  0  0  0  0  0  0  0  0  0
  -13.2360  -26.4230   42.9280 N   0  0  0  0  0  0  0  0  0  0  0  0
  -13.3020  -26.2320   44.1530 N   0  0  0  0  0  0  0  0  0  0  0  0
  -14.3700  -25.3910   44.8340 C   0  0  0  0  0  0  0  0  0  0  0  0
  -12.3150  -26.8350   44.8380 C   0  0  0  0  0  0  0  0  0  0  0  0
  -11.9600  -26.9300   46.1970 C   0  0  0  0  0  0  0  0  0  0  0  0
  -12.5780  -26.3670   47.1120 O   0  0  0  0  0  0  0  0  0  0  0  0
  -10.8560  -27.6820   46.5120 N   0  0  0  0  0  0  0  0  0  0  0  0
  -10.1040  -28.3390   45.5220 C   0  0  1  0  0  0  0  0  0  0  0  0
  -10.4550  -28.2220   44.2270 N   0  0  0  0  0  0  0  0  0  0  0  0
  -11.5500  -27.4820   43.8680 C   0  0  0  0  0  0  0  0  0  0  0  0
   -8.9600  -29.0150   45.9480 C   0  0  1  0  0  0  0  0  0  0  0  0
   -7.7480  -28.8350   45.2820 C   0  0  0  0  0  0  0  0  0  0  0  0
   -6.5890  -29.4620   45.7350 C   0  0  0  0  0  0  0  0  0  0  0  0
   -6.6330  -30.2520   46.8660 C   0  0  0  0  0  0  0  0  0  0  0  0
   -7.8370  -30.4080   47.5390 C   0  0  0  0  0  0  0  0  0  0  0  0
   -8.9910  -29.7870   47.0950 C   0  0  0  0  0  0  0  0  0  0  0  0
  -10.1880  -29.9250   47.7290 O   0  0  0  0  0  0  0  0  0  0  0  0
  -10.3260  -30.9780   48.7000 C   0  0  0  0  0  0  0  0  0  0  0  0
  -11.5550  -30.5550   49.5080 C   0  0  0  0  0  0  0  0  0  0  0  0
   -5.0320  -29.2730   44.9450 S   0  0  1  0  0  4  0  0  0  0  0  0
   -4.8040  -27.8320   44.5270 O   0  0  0  0  0  0  0  0  0  0  0  0
   -3.9850  -29.5880   45.9990 O   0  0  0  0  0  0  0  0  0  0  0  0
   -4.9360  -30.1850   43.5600 N   0  0  0  0  0  0  0  0  0  0  0  0
   -3.5170  -30.5660   43.3410 C   0  0  0  0  0  0  0  0  0  0  0  0
   -3.2620  -31.0770   41.8890 C   0  0  0  0  0  0  0  0  0  0  0  0
   -3.7310  -30.1010   40.8600 N   0  0  0  0  0  0  0  0  0  0  0  0
   -3.3350  -30.5360   39.4980 C   0  0  0  0  0  0  0  0  0  0  0  0
   -5.1880  -29.8430   41.0060 C   0  0  0  0  0  0  0  0  0  0  0  0
   -5.5260  -29.3580   42.4530 C   0  0  0  0  0  0  0  0  0  0  0  0
   18.8180  -35.5470   20.1900 C   0  0  0  0  0  0  0  0  0  0  0  0
   18.5830  -36.7730   19.3080 C   0  0  0  0  0  0  0  0  0  0  0  0
   18.8260  -36.3900   17.8460 C   0  0  0  0  0  0  0  0  0  0  0  0
   20.3000  -36.3150   17.4560 C   0  0  0  0  0  0  0  0  0  0  0  0
   20.9500  -35.2590   16.9590 N   0  0  0  0  0  0  0  0  0  0  0  0
   22.1370  -35.5590   16.7360 N   0  0  0  0  0  0  0  0  0  0  0  0
   23.1770  -34.6620   16.1730 C   0  0  0  0  0  0  0  0  0  0  0  0
   22.4050  -36.8120   17.0540 C   0  0  0  0  0  0  0  0  0  0  0  0
   23.5580  -37.5670   16.9950 C   0  0  0  0  0  0  0  0  0  0  0  0
   24.5790  -37.0440   16.5580 O   0  0  0  0  0  0  0  0  0  0  0  0
   23.4940  -38.8940   17.4360 N   0  0  0  0  0  0  0  0  0  0  0  0
   22.2470  -39.3930   17.9400 C   0  0  0  0  0  0  0  0  0  0  0  0
   21.1510  -38.6240   17.9640 N   0  0  0  0  0  0  0  0  0  0  0  0
   21.2180  -37.3480   17.5350 C   0  0  0  0  0  0  0  0  0  0  0  0
   22.0980  -40.6890   18.3800 C   0  0  0  0  0  0  0  0  0  0  0  0
   20.9070  -41.2880   18.1090 C   0  0  0  0  0  0  0  0  0  0  0  0
   20.6950  -42.5930   18.4820 C   0  0  0  0  0  0  0  0  0  0  0  0
   21.6530  -43.3270   19.1420 C   0  0  0  0  0  0  0  0  0  0  0  0
   22.8620  -42.7160   19.4300 C   0  0  0  0  0  0  0  0  0  0  0  0
   23.0950  -41.3840   19.0580 C   0  0  0  0  0  0  0  0  0  0  0  0
   24.3200  -40.7960   19.3240 O   0  0  0  0  0  0  0  0  0  0  0  0
   24.4610  -40.2070   20.5970 C   0  0  0  0  0  0  0  0  0  0  0  0
   24.4230  -41.2440   21.7110 C   0  0  0  0  0  0  0  0  0  0  0  0
   19.1470  -43.2310   18.1170 S   0  0  1  0  0  4  0  0  0  0  0  0
   18.9720  -43.0590   16.6250 O   0  0  0  0  0  0  0  0  0  0  0  0
   19.0480  -44.6750   18.5030 O   0  0  0  0  0  0  0  0  0  0  0  0
   18.0370  -42.3130   19.0570 N   0  0  0  0  0  0  0  0  0  0  0  0
   16.8400  -43.0590   19.5030 C   0  0  0  0  0  0  0  0  0  0  0  0
   16.0610  -42.2390   20.5700 C   0  0  0  0  0  0  0  0  0  0  0  0
   15.7460  -40.8930   20.0230 N   0  0  0  0  0  0  0  0  0  0  0  0
   14.9060  -40.0930   20.9410 C   0  0  0  0  0  0  0  0  0  0  0  0
   16.9730  -40.1610   19.5800 C   0  0  0  0  0  0  0  0  0  0  0  0
   17.6550  -40.9980   18.4760 C   0  0  0  0  0  0  0  0  0  0  0  0
    6.5700  -63.3120   12.0720 C   0  0  0  0  0  0  0  0  0  0  0  0
    6.5950  -64.4260   11.0190 C   0  0  0  0  0  0  0  0  0  0  0  0
    6.9540  -65.7720   11.6450 C   0  0  0  0  0  0  0  0  0  0  0  0
    8.0520  -66.4820   10.8470 C   0  0  0  0  0  0  0  0  0  0  0  0
    7.9790  -66.9350    9.5930 N   0  0  0  0  0  0  0  0  0  0  0  0
    9.0500  -67.4630    9.2640 N   0  0  0  0  0  0  0  0  0  0  0  0
    9.2560  -68.0660    7.9170 C   0  0  0  0  0  0  0  0  0  0  0  0
    9.9610  -67.4230   10.2450 C   0  0  0  0  0  0  0  0  0  0  0  0
   11.2930  -67.8580   10.3950 C   0  0  0  0  0  0  0  0  0  0  0  0
   11.9250  -68.4490    9.5050 O   0  0  0  0  0  0  0  0  0  0  0  0
   11.9090  -67.6080   11.6410 N   0  0  0  0  0  0  0  0  0  0  0  0
   11.1920  -66.9280   12.6560 C   0  0  1  0  0  0  0  0  0  0  0  0
    9.9190  -66.5390   12.4750 N   0  0  0  0  0  0  0  0  0  0  0  0
    9.3180  -66.7760   11.3030 C   0  0  0  0  0  0  0  0  0  0  0  0
   11.8280  -66.7490   13.8680 C   0  0  1  0  0  0  0  0  0  0  0  0
   11.1770  -67.1560   15.0270 C   0  0  0  0  0  0  0  0  0  0  0  0
   11.7810  -67.0480   16.2680 C   0  0  0  0  0  0  0  0  0  0  0  0
   13.0770  -66.5430   16.3310 C   0  0  0  0  0  0  0  0  0  0  0  0
   13.7410  -66.1350   15.1670 C   0  0  0  0  0  0  0  0  0  0  0  0
   13.1120  -66.2440   13.9220 C   0  0  0  0  0  0  0  0  0  0  0  0
   13.6850  -65.8840   12.7390 O   0  0  0  0  0  0  0  0  0  0  0  0
   14.5900  -64.7700   12.7930 C   0  0  0  0  0  0  0  0  0  0  0  0
   15.6300  -65.0170   11.6960 C   0  0  0  0  0  0  0  0  0  0  0  0
   10.8860  -67.5960   17.7000 S   0  0  1  0  0  4  0  0  0  0  0  0
    9.9500  -68.6620   17.2200 O   0  0  0  0  0  0  0  0  0  0  0  0
   11.8670  -68.2050   18.6430 O   0  0  0  0  0  0  0  0  0  0  0  0
    9.9290  -66.3560   18.4880 N   0  0  0  0  0  0  0  0  0  0  0  0
   10.4490  -65.8680   19.8020 C   0  0  0  0  0  0  0  0  0  0  0  0
    9.6280  -64.6450   20.3070 C   0  0  0  0  0  0  0  0  0  0  0  0
    8.1410  -64.7750   20.1300 N   0  0  0  0  0  0  0  0  0  0  0  0
    7.5240  -63.6150   19.4360 C   0  0  0  0  0  0  0  0  0  0  0  0
    7.5850  -66.0770   19.6470 C   0  0  0  0  0  0  0  0  0  0  0  0
    8.4840  -66.8030   18.5870 C   0  0  0  0  0  0  0  0  0  0  0  0
  -11.0200  -59.5350   44.4140 C   0  0  0  0  0  0  0  0  0  0  0  0
  -12.1030  -60.4930   44.9430 C   0  0  0  0  0  0  0  0  0  0  0  0
  -13.3990  -59.7520   45.2670 C   0  0  0  0  0  0  0  0  0  0  0  0
  -13.7160  -60.0120   46.7110 C   0  0  0  0  0  0  0  0  0  0  0  0
  -14.3520  -61.1000   47.1200 N   0  0  0  0  0  0  0  0  0  0  0  0
  -14.4970  -61.0790   48.3540 N   0  0  0  0  0  0  0  0  0  0  0  0
  -15.1680  -62.1660   49.1340 C   0  0  0  0  0  0  0  0  0  0  0  0
  -13.9620  -59.9790   48.9060 C   0  0  0  0  0  0  0  0  0  0  0  0
  -13.8650  -59.5150   50.2400 C   0  0  0  0  0  0  0  0  0  0  0  0
  -14.3230  -60.1630   51.1930 O   0  0  0  0  0  0  0  0  0  0  0  0
  -13.2260  -58.2810   50.4480 N   0  0  0  0  0  0  0  0  0  0  0  0
  -12.7310  -57.5680   49.3260 C   0  0  0  0  0  0  0  0  0  0  0  0
  -12.8360  -58.0630   48.0540 N   0  0  0  0  0  0  0  0  0  0  0  0
  -13.4310  -59.2440   47.8320 C   0  0  0  0  0  0  0  0  0  0  0  0
  -12.0890  -56.3550   49.5220 C   0  0  0  0  0  0  0  0  0  0  0  0
  -12.2580  -55.3900   48.5580 C   0  0  0  0  0  0  0  0  0  0  0  0
  -11.6000  -54.1760   48.6980 C   0  0  0  0  0  0  0  0  0  0  0  0
  -10.7950  -53.9020   49.8120 C   0  0  0  0  0  0  0  0  0  0  0  0
  -10.6340  -54.8770   50.7850 C   0  0  0  0  0  0  0  0  0  0  0  0
  -11.2780  -56.1130   50.6430 C   0  0  0  0  0  0  0  0  0  0  0  0
  -11.1270  -57.0830   51.6200 O   0  0  0  0  0  0  0  0  0  0  0  0
  -10.1010  -56.8680   52.6350 C   0  0  0  0  0  0  0  0  0  0  0  0
  -10.1420  -57.9980   53.6490 C   0  0  0  0  0  0  0  0  0  0  0  0
  -11.7730  -52.9270   47.4800 S   0  0  1  0  0  4  0  0  0  0  0  0
  -13.1960  -52.4670   47.6100 O   0  0  0  0  0  0  0  0  0  0  0  0
  -10.7590  -51.8620   47.8050 O   0  0  0  0  0  0  0  0  0  0  0  0
  -11.5570  -53.4730   45.8660 N   0  0  0  0  0  0  0  0  0  0  0  0
  -12.2970  -54.7120   45.4880 C   0  0  0  0  0  0  0  0  0  0  0  0
  -11.3270  -55.8140   45.0050 C   0  0  0  0  0  0  0  0  0  0  0  0
  -10.4430  -55.3810   43.9060 N   0  0  0  0  0  0  0  0  0  0  0  0
   -9.1490  -56.1000   44.0410 C   0  0  0  0  0  0  0  0  0  0  0  0
  -10.1590  -53.9500   43.9720 C   0  0  0  0  0  0  0  0  0  0  0  0
  -10.1490  -53.5990   45.4620 C   0  0  0  0  0  0  0  0  0  0  0  0
  -11.9180  -30.3520   39.4677 H   0  0  0  0  0  0  0  0  0  0  0  0
  -13.3550  -29.4098   38.9442 H   0  0  0  0  0  0  0  0  0  0  0  0
  -11.7302  -28.6440   38.9442 H   0  0  0  0  0  0  0  0  0  0  0  0
  -13.6785  -28.6717   41.0630 H   0  0  0  0  0  0  0  0  0  0  0  0
  -12.2648  -29.6905   41.5876 H   0  0  0  0  0  0  0  0  0  0  0  0
  -10.7277  -27.8469   41.2287 H   0  0  0  0  0  0  0  0  0  0  0  0
  -12.0224  -26.8272   40.5336 H   0  0  0  0  0  0  0  0  0  0  0  0
  -11.5742  -26.2676   42.5277 H   0  0  0  0  0  0  0  0  0  0  0  0
  -13.1472  -25.5178   42.4447 H   0  0  0  0  0  0  0  0  0  0  0  0
  -14.2626  -25.4756   45.9255 H   0  0  0  0  0  0  0  0  0  0  0  0
  -14.2544  -24.3389   44.5346 H   0  0  0  0  0  0  0  0  0  0  0  0
  -15.3657  -25.7501   44.5346 H   0  0  0  0  0  0  0  0  0  0  0  0
  -11.6947  -25.9320   44.7391 H   0  0  0  0  0  0  0  0  0  0  0  0
  -11.3136  -26.0464   46.0899 H   0  0  0  0  0  0  0  0  0  0  0  0
  -12.2332  -26.6812   47.9852 H   0  0  0  0  0  0  0  0  0  0  0  0
  -10.2045  -27.0505   46.9996 H   0  0  0  0  0  0  0  0  0  0  0  0
  -10.7510  -29.2234   45.6175 H   0  0  0  0  0  0  0  0  0  0  0  0
   -9.6473  -27.8100   43.7383 H   0  0  0  0  0  0  0  0  0  0  0  0
  -10.9206  -26.5856   43.7664 H   0  0  0  0  0  0  0  0  0  0  0  0
   -9.2045  -29.8516   45.2770 H   0  0  0  0  0  0  0  0  0  0  0  0
   -7.9046  -29.1732   44.2471 H   0  0  0  0  0  0  0  0  0  0  0  0
   -7.5320  -27.7693   45.4481 H   0  0  0  0  0  0  0  0  0  0  0  0
   -6.3574  -28.5847   46.3568 H   0  0  0  0  0  0  0  0  0  0  0  0
   -6.2989  -31.2570   46.5687 H   0  0  0  0  0  0  0  0  0  0  0  0
   -6.0002  -29.7121   47.5858 H   0  0  0  0  0  0  0  0  0  0  0  0
   -8.0491  -31.4873   47.5529 H   0  0  0  0  0  0  0  0  0  0  0  0
   -7.6446  -29.9012   48.4961 H   0  0  0  0  0  0  0  0  0  0  0  0
   -9.2360  -30.6736   46.4917 H   0  0  0  0  0  0  0  0  0  0  0  0
  -10.4927  -31.9478   48.2083 H   0  0  0  0  0  0  0  0  0  0  0  0
   -9.4279  -31.1104   49.3212 H   0  0  0  0  0  0  0  0  0  0  0  0
  -11.3317  -30.6319   50.5824 H   0  0  0  0  0  0  0  0  0  0  0  0
  -11.8160  -29.5153   49.2612 H   0  0  0  0  0  0  0  0  0  0  0  0
  -12.4006  -31.2138   49.2612 H   0  0  0  0  0  0  0  0  0  0  0  0
   -4.7142  -27.2647   45.3334 H   0  0  0  0  0  0  0  0  0  0  0  0
   -4.3778  -29.4698   46.9000 H   0  0  0  0  0  0  0  0  0  0  0  0
   -2.8817  -29.6868   43.5239 H   0  0  0  0  0  0  0  0  0  0  0  0
   -3.2760  -31.3850   44.0347 H   0  0  0  0  0  0  0  0  0  0  0  0
   -2.1827  -31.2422   41.7554 H   0  0  0  0  0  0  0  0  0  0  0  0
   -3.8281  -32.0104   41.7538 H   0  0  0  0  0  0  0  0  0  0  0  0
   -2.5962  -31.3476   39.5726 H   0  0  0  0  0  0  0  0  0  0  0  0
   -4.2218  -30.8961   38.9558 H   0  0  0  0  0  0  0  0  0  0  0  0
   -2.8934  -29.6869   38.9558 H   0  0  0  0  0  0  0  0  0  0  0  0
   -5.4904  -29.0679   40.2865 H   0  0  0  0  0  0  0  0  0  0  0  0
   -5.7319  -30.7794   40.8130 H   0  0  0  0  0  0  0  0  0  0  0  0
   -6.6200  -29.3668   42.5678 H   0  0  0  0  0  0  0  0  0  0  0  0
   -5.0815  -28.3565   42.5505 H   0  0  0  0  0  0  0  0  0  0  0  0
   18.7617  -35.8406   21.2486 H   0  0  0  0  0  0  0  0  0  0  0  0
   19.8128  -35.1281   19.9781 H   0  0  0  0  0  0  0  0  0  0  0  0
   18.0486  -34.7899   19.9781 H   0  0  0  0  0  0  0  0  0  0  0  0
   19.2771  -37.5752   19.5992 H   0  0  0  0  0  0  0  0  0  0  0  0
   17.5490  -37.1271   19.4322 H   0  0  0  0  0  0  0  0  0  0  0  0
   18.3377  -37.1405   17.2070 H   0  0  0  0  0  0  0  0  0  0  0  0
   18.4111  -35.3803   17.7104 H   0  0  0  0  0  0  0  0  0  0  0  0
   20.0466  -36.6391   16.4358 H   0  0  0  0  0  0  0  0  0  0  0  0
   20.5012  -34.9644   16.0800 H   0  0  0  0  0  0  0  0  0  0  0  0
   23.7318  -34.1835   16.9935 H   0  0  0  0  0  0  0  0  0  0  0  0
   23.8716  -35.2490   15.5541 H   0  0  0  0  0  0  0  0  0  0  0  0
   22.6984  -33.8888   15.5541 H   0  0  0  0  0  0  0  0  0  0  0  0
   22.1467  -37.1266   16.0321 H   0  0  0  0  0  0  0  0  0  0  0  0
   23.2913  -37.8949   15.9794 H   0  0  0  0  0  0  0  0  0  0  0  0
   25.1492  -36.7519   17.3128 H   0  0  0  0  0  0  0  0  0  0  0  0
   23.7600  -39.4912   16.6401 H   0  0  0  0  0  0  0  0  0  0  0  0
   22.5145  -39.0433   18.9480 H   0  0  0  0  0  0  0  0  0  0  0  0
   20.4425  -39.0965   17.3846 H   0  0  0  0  0  0  0  0  0  0  0  0
   20.9486  -37.6652   16.5168 H   0  0  0  0  0  0  0  0  0  0  0  0
   21.6947  -40.3187   19.3341 H   0  0  0  0  0  0  0  0  0  0  0  0
   20.1292  -40.6863   18.6019 H   0  0  0  0  0  0  0  0  0  0  0  0
   20.8902  -41.3327   17.0100 H   0  0  0  0  0  0  0  0  0  0  0  0
   21.0982  -42.9343   17.5172 H   0  0  0  0  0  0  0  0  0  0  0  0
   21.2151  -43.6504   20.0978 H   0  0  0  0  0  0  0  0  0  0  0  0
   21.9144  -44.1303   18.4375 H   0  0  0  0  0  0  0  0  0  0  0  0
   22.9868  -42.7643   20.5218 H   0  0  0  0  0  0  0  0  0  0  0  0
   23.5751  -43.2745   18.8058 H   0  0  0  0  0  0  0  0  0  0  0  0
   22.6797  -41.0433   20.0179 H   0  0  0  0  0  0  0  0  0  0  0  0
   25.4235  -39.6761   20.6383 H   0  0  0  0  0  0  0  0  0  0  0  0
   23.6191  -39.5152   20.7471 H   0  0  0  0  0  0  0  0  0  0  0  0
   24.4416  -40.7354   22.6862 H   0  0  0  0  0  0  0  0  0  0  0  0
   23.5024  -41.8400   21.6259 H   0  0  0  0  0  0  0  0  0  0  0  0
   25.2975  -41.9058   21.6259 H   0  0  0  0  0  0  0  0  0  0  0  0
   18.2769  -42.3759   16.4508 H   0  0  0  0  0  0  0  0  0  0  0  0
   19.0426  -44.7532   19.4899 H   0  0  0  0  0  0  0  0  0  0  0  0
   16.1853  -43.2450   18.6389 H   0  0  0  0  0  0  0  0  0  0  0  0
   17.1578  -44.0140   19.9468 H   0  0  0  0  0  0  0  0  0  0  0  0
   15.1262  -42.7604   20.8234 H   0  0  0  0  0  0  0  0  0  0  0  0
   16.6771  -42.1335   21.4751 H   0  0  0  0  0  0  0  0  0  0  0  0
   15.1638  -40.3386   21.9818 H   0  0  0  0  0  0  0  0  0  0  0  0
   15.0842  -39.0224   20.7619 H   0  0  0  0  0  0  0  0  0  0  0  0
   13.8454  -40.3232   20.7619 H   0  0  0  0  0  0  0  0  0  0  0  0
   16.6956  -39.1737   19.1823 H   0  0  0  0  0  0  0  0  0  0  0  0
   17.6585  -40.0156   20.4279 H   0  0  0  0  0  0  0  0  0  0  0  0
   18.5532  -40.4759   18.1145 H   0  0  0  0  0  0  0  0  0  0  0  0
   16.9671  -41.1425   17.6299 H   0  0  0  0  0  0  0  0  0  0  0  0
    6.5800  -63.7577   13.0776 H   0  0  0  0  0  0  0  0  0  0  0  0
    7.4539  -62.6694   11.9470 H   0  0  0  0  0  0  0  0  0  0  0  0
    5.6581  -62.7097   11.9470 H   0  0  0  0  0  0  0  0  0  0  0  0
    5.6015  -64.5010   10.5528 H   0  0  0  0  0  0  0  0  0  0  0  0
    7.3590  -64.1772   10.2678 H   0  0  0  0  0  0  0  0  0  0  0  0
    7.3086  -65.6059   12.6729 H   0  0  0  0  0  0  0  0  0  0  0  0
    6.0560  -66.4073   11.6409 H   0  0  0  0  0  0  0  0  0  0  0  0
    7.6940  -67.4534   11.2188 H   0  0  0  0  0  0  0  0  0  0  0  0
    7.2225  -67.6308    9.5265 H   0  0  0  0  0  0  0  0  0  0  0  0
    9.6098  -69.1015    8.0290 H   0  0  0  0  0  0  0  0  0  0  0  0
    8.3052  -68.0612    7.3638 H   0  0  0  0  0  0  0  0  0  0  0  0
   10.0051  -67.4805    7.3638 H   0  0  0  0  0  0  0  0  0  0  0  0
    9.6020  -68.3936   10.6179 H   0  0  0  0  0  0  0  0  0  0  0  0
   10.9342  -68.8234   10.7813 H   0  0  0  0  0  0  0  0  0  0  0  0
   12.5818  -69.0632    9.9190 H   0  0  0  0  0  0  0  0  0  0  0  0
   12.1799  -68.5229   12.0289 H   0  0  0  0  0  0  0  0  0  0  0  0
   11.5430  -65.9643   12.2583 H   0  0  0  0  0  0  0  0  0  0  0  0
    9.3567  -67.0070   13.2001 H   0  0  0  0  0  0  0  0  0  0  0  0
    8.9580  -67.7457   11.6772 H   0  0  0  0  0  0  0  0  0  0  0  0
   11.3706  -65.7529   13.9609 H   0  0  0  0  0  0  0  0  0  0  0  0
   10.2462  -66.5724   15.0822 H   0  0  0  0  0  0  0  0  0  0  0  0
   11.1065  -68.2452   14.8905 H   0  0  0  0  0  0  0  0  0  0  0  0
   12.1830  -68.0663   16.1610 H   0  0  0  0  0  0  0  0  0  0  0  0
   13.0415  -65.6676   16.9962 H   0  0  0  0  0  0  0  0  0  0  0  0
   13.6648  -67.4136   16.6573 H   0  0  0  0  0  0  0  0  0  0  0  0
   13.9929  -65.0728   15.3023 H   0  0  0  0  0  0  0  0  0  0  0  0
   14.5735  -66.8499   15.0902 H   0  0  0  0  0  0  0  0  0  0  0  0
   12.7074  -65.2276   14.0374 H   0  0  0  0  0  0  0  0  0  0  0  0
   14.0508  -63.8301   12.6038 H   0  0  0  0  0  0  0  0  0  0  0  0
   15.0618  -64.6819   13.7828 H   0  0  0  0  0  0  0  0  0  0  0  0
   16.6016  -65.2478   12.1572 H   0  0  0  0  0  0  0  0  0  0  0  0
   15.3101  -65.8642   11.0715 H   0  0  0  0  0  0  0  0  0  0  0  0
   15.7252  -64.1165   11.0715 H   0  0  0  0  0  0  0  0  0  0  0  0
    9.5464  -69.1217   17.9984 H   0  0  0  0  0  0  0  0  0  0  0  0
   11.5825  -68.0284   19.5747 H   0  0  0  0  0  0  0  0  0  0  0  0
   10.3773  -66.6795   20.5411 H   0  0  0  0  0  0  0  0  0  0  0  0
   11.4962  -65.5576   19.6713 H   0  0  0  0  0  0  0  0  0  0  0  0
    9.8358  -64.5110   21.3789 H   0  0  0  0  0  0  0  0  0  0  0  0
    9.9412  -63.7851   19.6967 H   0  0  0  0  0  0  0  0  0  0  0  0
    7.1443  -62.9011   20.1818 H   0  0  0  0  0  0  0  0  0  0  0  0
    8.2784  -63.1208   18.8062 H   0  0  0  0  0  0  0  0  0  0  0  0
    6.6925  -63.9643   18.8062 H   0  0  0  0  0  0  0  0  0  0  0  0
    7.4652  -66.7441   20.5134 H   0  0  0  0  0  0  0  0  0  0  0  0
    6.6300  -65.8496   19.1507 H   0  0  0  0  0  0  0  0  0  0  0  0
    8.0216  -66.6518   17.6004 H   0  0  0  0  0  0  0  0  0  0  0  0
    8.5312  -67.8498   18.9216 H   0  0  0  0  0  0  0  0  0  0  0  0
  -10.4952  -59.0708   45.2620 H   0  0  0  0  0  0  0  0  0  0  0  0
  -10.3005  -60.0976   43.8010 H   0  0  0  0  0  0  0  0  0  0  0  0
  -11.4906  -58.7522   43.8010 H   0  0  0  0  0  0  0  0  0  0  0  0
  -12.3096  -61.2558   44.1779 H   0  0  0  0  0  0  0  0  0  0  0  0
  -11.7306  -60.9561   45.8687 H   0  0  0  0  0  0  0  0  0  0  0  0
  -13.2670  -58.6729   45.0995 H   0  0  0  0  0  0  0  0  0  0  0  0
  -14.2178  -60.1010   44.6207 H   0  0  0  0  0  0  0  0  0  0  0  0
  -14.6789  -59.4935   46.5930 H   0  0  0  0  0  0  0  0  0  0  0  0
  -15.2777  -61.1413   46.6702 H   0  0  0  0  0  0  0  0  0  0  0  0
  -15.0485  -61.9724   50.2102 H   0  0  0  0  0  0  0  0  0  0  0  0
  -16.2386  -62.1905   48.8825 H   0  0  0  0  0  0  0  0  0  0  0  0
  -14.7101  -63.1340   48.8825 H   0  0  0  0  0  0  0  0  0  0  0  0
  -14.9228  -59.4553   48.7937 H   0  0  0  0  0  0  0  0  0  0  0  0
  -14.8287  -58.9962   50.1296 H   0  0  0  0  0  0  0  0  0  0  0  0
  -14.0309  -59.7497   52.0438 H   0  0  0  0  0  0  0  0  0  0  0  0
  -13.9027  -57.6663   50.9223 H   0  0  0  0  0  0  0  0  0  0  0  0
  -11.7567  -58.0660   49.4394 H   0  0  0  0  0  0  0  0  0  0  0  0
  -13.3561  -57.3626   47.5064 H   0  0  0  0  0  0  0  0  0  0  0  0
  -14.3909  -58.7193   47.7165 H   0  0  0  0  0  0  0  0  0  0  0  0
  -11.2067  -56.7354   48.9865 H   0  0  0  0  0  0  0  0  0  0  0  0
  -11.9288  -55.8268   47.6036 H   0  0  0  0  0  0  0  0  0  0  0  0
  -13.3224  -55.1234   48.6356 H   0  0  0  0  0  0  0  0  0  0  0  0
  -12.4722  -53.7643   49.2270 H   0  0  0  0  0  0  0  0  0  0  0  0
   -9.7920  -53.6582   49.4319 H   0  0  0  0  0  0  0  0  0  0  0  0
  -11.3341  -53.0974   50.3336 H   0  0  0  0  0  0  0  0  0  0  0  0
   -9.5560  -55.0850   50.8527 H   0  0  0  0  0  0  0  0  0  0  0  0
  -11.1166  -54.4372   51.6702 H   0  0  0  0  0  0  0  0  0  0  0  0
  -10.4068  -56.5042   50.0972 H   0  0  0  0  0  0  0  0  0  0  0  0
   -9.1114  -56.8424   52.1554 H   0  0  0  0  0  0  0  0  0  0  0  0
  -10.2877  -55.9120   53.1460 H   0  0  0  0  0  0  0  0  0  0  0  0
  -10.1268  -57.5789   54.6659 H   0  0  0  0  0  0  0  0  0  0  0  0
  -11.0620  -58.5842   53.5077 H   0  0  0  0  0  0  0  0  0  0  0  0
   -9.2669  -58.6493   53.5077 H   0  0  0  0  0  0  0  0  0  0  0  0
  -13.4319  -52.3907   48.5685 H   0  0  0  0  0  0  0  0  0  0  0  0
  -10.6757  -51.7745   48.7876 H   0  0  0  0  0  0  0  0  0  0  0  0
  -12.8518  -55.0803   46.3635 H   0  0  0  0  0  0  0  0  0  0  0  0
  -12.9874  -54.4697   44.6666 H   0  0  0  0  0  0  0  0  0  0  0  0
  -10.7003  -56.1227   45.8546 H   0  0  0  0  0  0  0  0  0  0  0  0
  -11.9426  -56.6395   44.6183 H   0  0  0  0  0  0  0  0  0  0  0  0
   -8.9121  -56.2316   45.1071 H   0  0  0  0  0  0  0  0  0  0  0  0
   -9.2249  -57.0853   43.5579 H   0  0  0  0  0  0  0  0  0  0  0  0
   -8.3524  -55.5151   43.5579 H   0  0  0  0  0  0  0  0  0  0  0  0
   -9.1803  -53.7318   43.5198 H   0  0  0  0  0  0  0  0  0  0  0  0
  -10.9071  -53.3614   43.4208 H   0  0  0  0  0  0  0  0  0  0  0  0
   -9.6193  -52.6490   45.6259 H   0  0  0  0  0  0  0  0  0  0  0  0
   -9.6317  -54.3707   46.0510 H   0  0  0  0  0  0  0  0  0  0  0  0
  1  2  1  0
  2  3  1  0
  3  4  1  0
  4  5  1  0
  5  6  1  0
  6  7  1  0
  6  8  1  0
  8  9  1  0
  9 10  1  0
  9 11  1  0
 11 12  1  0
 12 13  1  0
  4 14  1  0
  8 14  1  0
 13 14  1  0
 12 15  1  0
 15 16  1  0
 16 17  1  0
 17 18  1  0
 18 19  1  0
 15 20  1  0
 19 20  1  0
 20 21  1  0
 21 22  1  0
 22 23  1  0
 17 24  1  0
 24 25  1  6
 24 26  1  0
 24 27  1  0
 27 28  1  0
 28 29  1  0
 29 30  1  0
 30 31  1  0
 30 32  1  0
 27 33  1  0
 32 33  1  0
 34 35  1  0
 35 36  1  0
 36 37  1  0
 37 38  1  0
 38 39  1  0
 39 40  1  0
 39 41  1  0
 41 42  1  0
 42 43  1  0
 42 44  1  0
 44 45  1  0
 45 46  1  0
 37 47  1  0
 41 47  1  0
 46 47  1  0
 45 48  1  0
 48 49  1  0
 49 50  1  0
 50 51  1  0
 51 52  1  0
 48 53  1  0
 52 53  1  0
 53 54  1  0
 54 55  1  0
 55 56  1  0
 50 57  1  0
 57 58  1  6
 57 59  1  0
 57 60  1  0
 60 61  1  0
 61 62  1  0
 62 63  1  0
 63 64  1  0
 63 65  1  0
 60 66  1  0
 65 66  1  0
 67 68  1  0
 68 69  1  0
 69 70  1  0
 70 71  1  0
 71 72  1  0
 72 73  1  0
 72 74  1  0
 74 75  1  0
 75 76  1  0
 75 77  1  0
 77 78  1  0
 78 79  1  0
 70 80  1  0
 74 80  1  0
 79 80  1  0
 78 81  1  0
 81 82  1  0
 82 83  1  0
 83 84  1  0
 84 85  1  0
 81 86  1  0
 85 86  1  0
 86 87  1  0
 87 88  1  0
 88 89  1  0
 83 90  1  0
 90 91  1  6
 90 92  1  0
 90 93  1  0
 93 94  1  0
 94 95  1  0
 95 96  1  0
 96 97  1  0
 96 98  1  0
 93 99  1  0
 98 99  1  0
100101  1  0
101102  1  0
102103  1  0
103104  1  0
104105  1  0
105106  1  0
105107  1  0
107108  1  0
108109  1  0
108110  1  0
110111  1  0
111112  1  0
103113  1  0
107113  1  0
112113  1  0
111114  1  0
114115  1  0
115116  1  0
116117  1  0
117118  1  0
114119  1  0
118119  1  0
119120  1  0
120121  1  0
121122  1  0
116123  1  0
123124  1  6
123125  1  0
123126  1  0
126127  1  0
127128  1  0
128129  1  0
129130  1  0
129131  1  0
126132  1  0
131132  1  0
  1133  1  0
  1134  1  0
  1135  1  0
  2136  1  0
  2137  1  0
  3138  1  0
  3139  1  0
  4140  1  0
  5141  1  0
  7142  1  0
  7143  1  0
  7144  1  0
  8145  1  0
  9146  1  0
 10147  1  0
 11148  1  0
 12149  1  1
 13150  1  0
 14151  1  0
 15152  1  6
 16153  1  0
 16154  1  0
 17155  1  0
 18156  1  0
 18157  1  0
 19158  1  0
 19159  1  0
 20160  1  0
 22161  1  0
 22162  1  0
 23163  1  0
 23164  1  0
 23165  1  0
 25166  1  0
 26167  1  0
 28168  1  0
 28169  1  0
 29170  1  0
 29171  1  0
 31172  1  0
 31173  1  0
 31174  1  0
 32175  1  0
 32176  1  0
 33177  1  0
 33178  1  0
 34179  1  0
 34180  1  0
 34181  1  0
 35182  1  0
 35183  1  0
 36184  1  0
 36185  1  0
 37186  1  0
 38187  1  0
 40188  1  0
 40189  1  0
 40190  1  0
 41191  1  0
 42192  1  0
 43193  1  0
 44194  1  0
 45195  1  0
 46196  1  0
 47197  1  0
 48198  1  0
 49199  1  0
 49200  1  0
 50201  1  0
 51202  1  0
 51203  1  0
 52204  1  0
 52205  1  0
 53206  1  0
 55207  1  0
 55208  1  0
 56209  1  0
 56210  1  0
 56211  1  0
 58212  1  0
 59213  1  0
 61214  1  0
 61215  1  0
 62216  1  0
 62217  1  0
 64218  1  0
 64219  1  0
 64220  1  0
 65221  1  0
 65222  1  0
 66223  1  0
 66224  1  0
 67225  1  0
 67226  1  0
 67227  1  0
 68228  1  0
 68229  1  0
 69230  1  0
 69231  1  0
 70232  1  0
 71233  1  0
 73234  1  0
 73235  1  0
 73236  1  0
 74237  1  0
 75238  1  0
 76239  1  0
 77240  1  0
 78241  1  6
 79242  1  0
 80243  1  0
 81244  1  1
 82245  1  0
 82246  1  0
 83247  1  0
 84248  1  0
 84249  1  0
 85250  1  0
 85251  1  0
 86252  1  0
 88253  1  0
 88254  1  0
 89255  1  0
 89256  1  0
 89257  1  0
 91258  1  0
 92259  1  0
 94260  1  0
 94261  1  0
 95262  1  0
 95263  1  0
 97264  1  0
 97265  1  0
 97266  1  0
 98267  1  0
 98268  1  0
 99269  1  0
 99270  1  0
100271  1  0
100272  1  0
100273  1  0
101274  1  0
101275  1  0
102276  1  0
102277  1  0
103278  1  0
104279  1  0
106280  1  0
106281  1  0
106282  1  0
107283  1  0
108284  1  0
109285  1  0
110286  1  0
111287  1  0
112288  1  0
113289  1  0
114290  1  0
115291  1  0
115292  1  0
116293  1  0
117294  1  0
117295  1  0
118296  1  0
118297  1  0
119298  1  0
121299  1  0
121300  1  0
122301  1  0
122302  1  0
122303  1  0
124304  1  0
125305  1  0
127306  1  0
127307  1  0
128308  1  0
128309  1  0
130310  1  0
130311  1  0
130312  1  0
131313  1  0
131314  1  0
132315  1  0
132316  1  0
M  END
>  <PDBID>  (1) 
3JWQ

>  <PDB ID>  (1) 
3JWQ

>  <Generic Name>  (1) 
Sildenafil

>  <Brand Name>  (1) 
Act Sildenafil#Apo-sildenafil#Apo-sildenafil R#Auro-sildenafil#Dom-sildenafil#Gd-sildenafil#Ipg-sildenafil#Jamp-sildenafil#M-sildenafil#Mar-sildenafil#Mint-sildenafil#Myl-sildenafil#Mylan-sildenafil#PMS-sildenafil#PMS-sildenafil R#Pb-sildenafil#Priva-sildenafil#Ran-sildenafil#Ratio-sildenafil#Ratio-sildenafil R#Revatio#Riva-sildenafil#Sandoz Sildenafil#Sildenafil#Sildenafil Citrate#Sildenafil R#Sildenafil Tablets#Teva-sildenafil#Van-sildenafil#Viagra

>  <DrugBank ID>  (1) 
DB00203

>  <ATC Codes>  (1) 
G04BE03

>  <Ligand ID>  (1) 
VIA

>  <Target Name>  (1) 
cGMP-specific 3',5'-cyclic phosphodiesterase

>  <UniProt ID>  (1) 
O76074

>  <PDB ID.1>  (1) 
3JWQ

>  <Seq. Identity>  (1) 
87%

$$$$
