PDB_DB00570_97
     RDKit          3D

117125  0  0  0  0  0  0  0  0999 V2000
   94.5350   70.5200   -8.1990 C   0  0  0  0  0  0  0  0  0  0  0  0
   93.1840   70.0640   -7.6620 C   0  0  0  0  0  0  0  0  0  0  0  0
   92.1860   69.7000   -8.7540 C   0  0  1  0  0  0  0  0  0  0  0  0
   92.6970   68.5560   -9.4190 O   0  0  0  0  0  0  0  0  0  0  0  0
   90.8100   69.4440   -8.0870 C   0  0  0  0  0  0  0  0  0  0  0  0
   92.0490   70.8100   -9.7860 C   0  0  0  0  0  0  0  0  0  0  0  0
   90.9130   70.5330  -10.7560 C   0  0  1  0  0  0  0  0  0  0  0  0
   91.3910   69.5210  -11.8120 C   0  0  0  0  0  0  0  0  0  0  0  0
   89.6380   70.1930   -9.9770 C   0  0  0  0  0  0  0  0  0  0  0  0
   89.8180   69.0450   -9.0890 N   0  0  0  0  0  0  0  0  0  0  0  0
   90.3390   67.7600   -9.5970 C   0  0  0  0  0  0  0  0  0  0  0  0
   89.5650   66.9590  -10.6220 C   0  0  0  0  0  0  0  0  0  0  0  0
   88.9490   67.4680  -11.9110 C   0  0  0  0  0  0  0  0  0  0  0  0
   87.7400   66.9300  -12.2820 C   0  0  0  0  0  0  0  0  0  0  0  0
   86.9450   65.9690  -11.6740 C   0  0  0  0  0  0  0  0  0  0  0  0
   85.7470   65.6060  -12.2610 C   0  0  0  0  0  0  0  0  0  0  0  0
   85.3750   66.2020  -13.4560 C   0  0  0  0  0  0  0  0  0  0  0  0
   86.1730   67.1660  -14.0630 C   0  0  0  0  0  0  0  0  0  0  0  0
   87.3580   67.5250  -13.4650 C   0  0  0  0  0  0  0  0  0  0  0  0
   88.2900   68.3810  -13.8120 N   0  0  0  0  0  0  0  0  0  0  0  0
   89.2730   68.4100  -12.9000 C   0  0  0  0  0  0  0  0  0  0  0  0
   90.5010   69.3110  -13.0470 C   0  0  2  0  0  0  0  0  0  0  0  0
   91.1890   68.5510  -14.1680 C   0  0  0  0  0  0  0  0  0  0  0  0
   90.7070   68.5840  -15.3070 O   0  0  0  0  0  0  0  0  0  0  0  0
   92.3020   67.8130  -13.8930 O   0  0  0  0  0  0  0  0  0  0  0  0
   92.6980   67.0670  -15.0610 C   0  0  0  0  0  0  0  0  0  0  0  0
   90.1510   70.7410  -13.5700 C   0  0  0  0  0  0  0  0  0  0  0  0
   88.9500   71.3230  -13.1830 C   0  0  0  0  0  0  0  0  0  0  0  0
   88.5970   72.5930  -13.6000 C   0  0  0  0  0  0  0  0  0  0  0  0
   87.3710   73.4280  -13.3440 C   0  0  1  0  0  0  0  0  0  0  0  0
   86.2230   72.7720  -14.1220 C   0  0  1  0  0  0  0  0  0  0  0  0
   86.9340   73.3870  -11.8720 C   0  0  0  0  0  0  0  0  0  0  0  0
   85.5570   72.7280  -11.9390 C   0  0  0  0  0  0  0  0  0  0  0  0
   85.0830   73.0920  -13.2740 N   0  0  0  0  0  0  0  0  0  0  0  0
   83.9930   72.2450  -13.7050 C   0  0  0  0  0  0  0  0  0  0  0  0
   83.6550   72.7240  -14.9520 C   0  0  0  0  0  0  0  0  0  0  0  0
   84.6200   73.2310  -15.8250 C   0  0  0  0  0  0  0  0  0  0  0  0
   85.9840   73.3050  -15.5440 C   0  0  2  0  0  0  0  0  0  0  0  0
   86.7500   72.4580  -16.5530 C   0  0  0  0  0  0  0  0  0  0  0  0
   85.9230   71.2710  -17.0190 C   0  0  0  0  0  0  0  0  0  0  0  0
   86.4780   74.7560  -15.7740 C   0  0  1  0  0  0  0  0  0  0  0  0
   85.5910   75.4470  -16.5940 O   0  0  0  0  0  0  0  0  0  0  0  0
   86.1840   75.3800  -17.8010 C   0  0  0  0  0  0  0  0  0  0  0  0
   85.4010   75.3820  -18.9540 C   0  0  0  0  0  0  0  0  0  0  0  0
   87.4120   75.3000  -17.8460 O   0  0  0  0  0  0  0  0  0  0  0  0
   86.6910   75.5940  -14.5270 C   0  0  1  0  0  0  0  0  0  0  0  0
   87.0350   77.1300  -14.7670 C   0  0  0  0  0  0  0  0  0  0  0  0
   87.3290   77.8760  -13.8170 O   0  0  0  0  0  0  0  0  0  0  0  0
   87.0090   77.7070  -16.0210 O   0  0  0  0  0  0  0  0  0  0  0  0
   87.6480   79.0230  -16.0920 C   0  0  0  0  0  0  0  0  0  0  0  0
   85.4790   75.5310  -13.7800 O   0  0  0  0  0  0  0  0  0  0  0  0
   87.8090   74.8150  -13.7930 C   0  0  2  0  0  0  0  0  0  0  0  0
   88.9190   74.5030  -14.7200 N   0  0  0  0  0  0  0  0  0  0  0  0
   89.9960   75.4440  -14.4170 C   0  0  0  0  0  0  0  0  0  0  0  0
   89.4370   73.3120  -14.4300 C   0  0  0  0  0  0  0  0  0  0  0  0
   90.6400   72.7490  -14.8210 C   0  0  0  0  0  0  0  0  0  0  0  0
   91.0040   71.4830  -14.3980 C   0  0  0  0  0  0  0  0  0  0  0  0
   92.1900   70.9810  -14.8110 O   0  0  0  0  0  0  0  0  0  0  0  0
   92.7970   71.7550  -15.8420 C   0  0  0  0  0  0  0  0  0  0  0  0
   95.2064   70.7466   -7.3577 H   0  0  0  0  0  0  0  0  0  0  0  0
   94.9742   69.7203   -8.8135 H   0  0  0  0  0  0  0  0  0  0  0  0
   94.3997   71.4223   -8.8135 H   0  0  0  0  0  0  0  0  0  0  0  0
   93.3425   69.1800   -7.0268 H   0  0  0  0  0  0  0  0  0  0  0  0
   92.7567   70.9094   -7.1027 H   0  0  0  0  0  0  0  0  0  0  0  0
   92.9943   67.8903   -8.7493 H   0  0  0  0  0  0  0  0  0  0  0  0
   90.9133   68.6421   -7.3411 H   0  0  0  0  0  0  0  0  0  0  0  0
   90.4720   70.3722   -7.6031 H   0  0  0  0  0  0  0  0  0  0  0  0
   91.8512   71.7589   -9.2659 H   0  0  0  0  0  0  0  0  0  0  0  0
   92.9861   70.8649  -10.3594 H   0  0  0  0  0  0  0  0  0  0  0  0
   90.6254   71.4189  -11.3412 H   0  0  0  0  0  0  0  0  0  0  0  0
   92.3757   69.8573  -12.1688 H   0  0  0  0  0  0  0  0  0  0  0  0
   91.3847   68.5508  -11.2936 H   0  0  0  0  0  0  0  0  0  0  0  0
   89.3498   71.0657   -9.3725 H   0  0  0  0  0  0  0  0  0  0  0  0
   88.8573   69.9337  -10.7072 H   0  0  0  0  0  0  0  0  0  0  0  0
   91.3211   67.9746  -10.0435 H   0  0  0  0  0  0  0  0  0  0  0  0
   90.3044   67.1145   -8.7070 H   0  0  0  0  0  0  0  0  0  0  0  0
   90.2539   66.1605  -10.9347 H   0  0  0  0  0  0  0  0  0  0  0  0
   88.6440   66.7841  -10.0465 H   0  0  0  0  0  0  0  0  0  0  0  0
   87.2654   65.4996  -10.7322 H   0  0  0  0  0  0  0  0  0  0  0  0
   85.0983   64.8550  -11.7865 H   0  0  0  0  0  0  0  0  0  0  0  0
   84.4294   65.9065  -13.9340 H   0  0  0  0  0  0  0  0  0  0  0  0
   85.8606   67.6345  -15.0079 H   0  0  0  0  0  0  0  0  0  0  0  0
   88.2695   68.9529  -14.6684 H   0  0  0  0  0  0  0  0  0  0  0  0
   93.1928   66.1349  -14.7504 H   0  0  0  0  0  0  0  0  0  0  0  0
   91.8084   66.8273  -15.6620 H   0  0  0  0  0  0  0  0  0  0  0  0
   93.3950   67.6695  -15.6620 H   0  0  0  0  0  0  0  0  0  0  0  0
   88.2653   70.7611  -12.5307 H   0  0  0  0  0  0  0  0  0  0  0  0
   86.4267   71.7055  -14.2984 H   0  0  0  0  0  0  0  0  0  0  0  0
   87.6309   72.7858  -11.2696 H   0  0  0  0  0  0  0  0  0  0  0  0
   86.9164   74.3794  -11.3978 H   0  0  0  0  0  0  0  0  0  0  0  0
   85.6355   71.6361  -11.8314 H   0  0  0  0  0  0  0  0  0  0  0  0
   84.8807   73.0539  -11.1350 H   0  0  0  0  0  0  0  0  0  0  0  0
   84.3171   71.1956  -13.7665 H   0  0  0  0  0  0  0  0  0  0  0  0
   83.1448   72.2668  -13.0049 H   0  0  0  0  0  0  0  0  0  0  0  0
   82.6012   72.7067  -15.2670 H   0  0  0  0  0  0  0  0  0  0  0  0
   84.2798   73.5983  -16.8045 H   0  0  0  0  0  0  0  0  0  0  0  0
   87.0050   73.0807  -17.4232 H   0  0  0  0  0  0  0  0  0  0  0  0
   87.6602   72.0773  -16.0666 H   0  0  0  0  0  0  0  0  0  0  0  0
   85.5417   70.7237  -16.1443 H   0  0  0  0  0  0  0  0  0  0  0  0
   85.0774   71.6285  -17.6250 H   0  0  0  0  0  0  0  0  0  0  0  0
   86.5513   70.6017  -17.6250 H   0  0  0  0  0  0  0  0  0  0  0  0
   87.4670   74.6195  -16.2358 H   0  0  0  0  0  0  0  0  0  0  0  0
   84.3371   75.3847  -18.6747 H   0  0  0  0  0  0  0  0  0  0  0  0
   85.6263   76.2796  -19.5487 H   0  0  0  0  0  0  0  0  0  0  0  0
   85.6217   74.4833  -19.5487 H   0  0  0  0  0  0  0  0  0  0  0  0
   87.8299   79.3977  -15.0739 H   0  0  0  0  0  0  0  0  0  0  0  0
   88.6049   78.9375  -16.6277 H   0  0  0  0  0  0  0  0  0  0  0  0
   86.9891   79.7221  -16.6277 H   0  0  0  0  0  0  0  0  0  0  0  0
   85.6869   75.5418  -12.8121 H   0  0  0  0  0  0  0  0  0  0  0  0
   88.0815   75.4640  -12.9477 H   0  0  0  0  0  0  0  0  0  0  0  0
   90.1043   75.5386  -13.3264 H   0  0  0  0  0  0  0  0  0  0  0  0
   90.9380   75.0744  -14.8483 H   0  0  0  0  0  0  0  0  0  0  0  0
   89.7561   76.4271  -14.8483 H   0  0  0  0  0  0  0  0  0  0  0  0
   91.3161   73.3165  -15.4774 H   0  0  0  0  0  0  0  0  0  0  0  0
   93.4162   72.5446  -15.3914 H   0  0  0  0  0  0  0  0  0  0  0  0
   93.4284   71.1047  -16.4652 H   0  0  0  0  0  0  0  0  0  0  0  0
   92.0149   72.2132  -16.4652 H   0  0  0  0  0  0  0  0  0  0  0  0
  1  2  1  0
  2  3  1  0
  3  4  1  6
  3  5  1  0
  3  6  1  0
  6  7  1  0
  7  8  1  0
  7  9  1  0
  5 10  1  0
  9 10  1  0
 10 11  1  0
 11 12  1  0
 12 13  1  0
 13 14  1  0
 14 15  1  0
 15 16  2  0
 16 17  1  0
 17 18  2  0
 14 19  2  0
 18 19  1  0
 19 20  1  0
 13 21  2  0
 20 21  1  0
  8 22  1  0
 21 22  1  0
 22 23  1  6
 23 24  2  0
 23 25  1  0
 25 26  1  0
 22 27  1  0
 27 28  2  0
 28 29  1  0
 29 30  1  0
 30 31  1  0
 30 32  1  1
 32 33  1  0
 31 34  1  0
 33 34  1  0
 34 35  1  0
 35 36  1  0
 36 37  2  0
 31 38  1  0
 37 38  1  0
 38 39  1  6
 39 40  1  0
 38 41  1  0
 41 42  1  0
 42 43  1  0
 43 44  1  0
 43 45  2  0
 41 46  1  0
 46 47  1  0
 47 48  2  0
 47 49  1  0
 49 50  1  0
 46 51  1  1
 30 52  1  0
 46 52  1  0
 52 53  1  0
 53 54  1  0
 29 55  2  0
 53 55  1  0
 55 56  1  0
 27 57  1  0
 56 57  2  0
 57 58  1  0
 58 59  1  0
  1 60  1  0
  1 61  1  0
  1 62  1  0
  2 63  1  0
  2 64  1  0
  4 65  1  0
  5 66  1  0
  5 67  1  0
  6 68  1  0
  6 69  1  0
  7 70  1  6
  8 71  1  0
  8 72  1  0
  9 73  1  0
  9 74  1  0
 11 75  1  0
 11 76  1  0
 12 77  1  0
 12 78  1  0
 15 79  1  0
 16 80  1  0
 17 81  1  0
 18 82  1  0
 20 83  1  0
 26 84  1  0
 26 85  1  0
 26 86  1  0
 28 87  1  0
 31 88  1  6
 32 89  1  0
 32 90  1  0
 33 91  1  0
 33 92  1  0
 35 93  1  0
 35 94  1  0
 36 95  1  0
 37 96  1  0
 39 97  1  0
 39 98  1  0
 40 99  1  0
 40100  1  0
 40101  1  0
 41102  1  6
 44103  1  0
 44104  1  0
 44105  1  0
 50106  1  0
 50107  1  0
 50108  1  0
 51109  1  0
 52110  1  1
 54111  1  0
 54112  1  0
 54113  1  0
 56114  1  0
 59115  1  0
 59116  1  0
 59117  1  0
M  END
>  <PDBID>  (1) 
1Z2B

>  <PDB ID>  (1) 
1Z2B

>  <Generic Name>  (1) 
Vinblastine

>  <Brand Name>  (1) 
Velbe 1mg/ml#Vinblastine Sulfate#Vinblastine Sulfate Inj 1mg/ml#Vinblastine Sulfate Injection#Vinblastine Sulphate Injection#Blastivin#Cytoblastin#Lemblastine#Oncostin#Velban#Velbastin#Velbe#Vinblasin#Vinblastin#Vinko#Weibaoding#Xintoprost

>  <DrugBank ID>  (1) 
DB00570

>  <ATC Codes>  (1) 
L01CA01

>  <Ligand ID>  (1) 
VLB

>  <Target Name>  (1) 
Tubulin beta chain

>  <UniProt ID>  (1) 
P07437

>  <PDB ID.1>  (1) 
1Z2B

>  <Seq. Identity>  (1) 
93%

$$$$
