PDB_DB00238_97
     RDKit          3D

 34 37  0  0  0  0  0  0  0  0999 V2000
    2.0010  -37.6360   20.9490 N   0  0  0  0  0  0  0  0  0  0  0  0
    2.6330  -38.8350   20.3520 C   0  0  0  0  0  0  0  0  0  0  0  0
    3.1160  -39.8640   21.3140 C   0  0  0  0  0  0  0  0  0  0  0  0
    1.8970  -40.1160   20.4990 C   0  0  0  0  0  0  0  0  0  0  0  0
    4.2110  -36.7760   21.3030 N   0  0  0  0  0  0  0  0  0  0  0  0
    5.0780  -36.0800   22.0860 C   0  0  0  0  0  0  0  0  0  0  0  0
    4.6470  -35.3790   23.2500 C   0  0  0  0  0  0  0  0  0  0  0  0
    3.2940  -35.3980   23.5900 C   0  0  0  0  0  0  0  0  0  0  0  0
    2.8180  -34.6920   24.8320 C   0  0  0  0  0  0  0  0  0  0  0  0
    2.8920  -36.7940   21.6540 C   0  0  0  0  0  0  0  0  0  0  0  0
    2.3920  -36.1050   22.7750 C   0  0  0  0  0  0  0  0  0  0  0  0
    0.9820  -36.0650   23.0550 N   0  0  0  0  0  0  0  0  0  0  0  0
   -0.1160  -36.1190   22.2900 C   0  0  0  0  0  0  0  0  0  0  0  0
   -1.2410  -36.0180   22.8000 O   0  0  0  0  0  0  0  0  0  0  0  0
   -0.0090  -36.2490   20.7640 C   0  0  0  0  0  0  0  0  0  0  0  0
    1.0390  -36.9710   20.1330 C   0  0  0  0  0  0  0  0  0  0  0  0
   -1.0060  -35.6980   19.9630 C   0  0  0  0  0  0  0  0  0  0  0  0
   -0.9450  -35.8600   18.5770 C   0  0  0  0  0  0  0  0  0  0  0  0
    0.1370  -36.5820   18.0190 C   0  0  0  0  0  0  0  0  0  0  0  0
    1.1120  -37.1250   18.7860 N   0  0  0  0  0  0  0  0  0  0  0  0
    3.0736  -38.2868   19.5062 H   0  0  0  0  0  0  0  0  0  0  0  0
    4.0419  -40.4204   21.1061 H   0  0  0  0  0  0  0  0  0  0  0  0
    3.3507  -39.8763   22.3886 H   0  0  0  0  0  0  0  0  0  0  0  0
    0.9076  -40.1294   20.9796 H   0  0  0  0  0  0  0  0  0  0  0  0
    1.5735  -40.9099   19.8097 H   0  0  0  0  0  0  0  0  0  0  0  0
    6.1434  -36.0573   21.8131 H   0  0  0  0  0  0  0  0  0  0  0  0
    5.3707  -34.8310   23.8712 H   0  0  0  0  0  0  0  0  0  0  0  0
    3.1803  -35.2293   25.7208 H   0  0  0  0  0  0  0  0  0  0  0  0
    3.2077  -33.6634   24.8412 H   0  0  0  0  0  0  0  0  0  0  0  0
    1.7183  -34.6676   24.8412 H   0  0  0  0  0  0  0  0  0  0  0  0
    0.7714  -35.9757   24.0593 H   0  0  0  0  0  0  0  0  0  0  0  0
   -1.8363  -35.1387   20.4189 H   0  0  0  0  0  0  0  0  0  0  0  0
   -1.7253  -35.4333   17.9296 H   0  0  0  0  0  0  0  0  0  0  0  0
    0.1875  -36.7060   16.9272 H   0  0  0  0  0  0  0  0  0  0  0  0
  1  2  1  0
  2  3  1  0
  2  4  1  0
  3  4  1  0
  5  6  2  0
  6  7  1  0
  7  8  2  0
  8  9  1  0
  1 10  1  0
  5 10  1  0
  8 11  1  0
 10 11  2  0
 11 12  1  0
 12 13  1  0
 13 14  2  0
 13 15  1  0
  1 16  1  0
 15 16  2  0
 15 17  1  0
 17 18  2  0
 18 19  1  0
 16 20  1  0
 19 20  2  0
  2 21  1  0
  3 22  1  0
  3 23  1  0
  4 24  1  0
  4 25  1  0
  6 26  1  0
  7 27  1  0
  9 28  1  0
  9 29  1  0
  9 30  1  0
 12 31  1  0
 17 32  1  0
 18 33  1  0
 19 34  1  0
M  END
>  <PDBID>  (1) 
1LWC

>  <PDB ID>  (1) 
1LWC

>  <Generic Name>  (1) 
Nevirapine

>  <Brand Name>  (1) 
Apo-nevirapine#Apo-nevirapine XR#Apo-zidovudine-lamivudine-nevirapine#Auro-nevirapine#Mylan-nevirapine#Nevirapine#Nevirapine Extended Release#PMS-nevirapine#Teva-nevirapine#Viramune#Viramune XR

>  <DrugBank ID>  (1) 
DB00238

>  <ATC Codes>  (1) 
J05AR05#J05AG01#J05AR07

>  <Ligand ID>  (1) 
NVP

>  <Target Name>  (1) 
Reverse transcriptase/RNaseH

>  <UniProt ID>  (1) 
Q72547

>  <PDB ID.1>  (1) 
1LWC

>  <Seq. Identity>  (1) 
96%

$$$$
