PDB_DB00715_98
     RDKit          3D

 56 59  0  0  0  0  0  0  0  0999 V2000
   33.5330  179.3810  140.9510 F   0  0  0  0  0  0  0  0  0  0  0  0
   34.7070  181.3250  140.3510 C   0  0  0  0  0  0  0  0  0  0  0  0
   32.6090  181.4600  141.4900 C   0  0  0  0  0  0  0  0  0  0  0  0
   31.6100  186.2190  145.5940 C   0  0  0  0  0  0  0  0  0  0  0  0
   34.8070  182.6980  140.3260 C   0  0  0  0  0  0  0  0  0  0  0  0
   32.7030  182.8490  141.4650 C   0  0  0  0  0  0  0  0  0  0  0  0
   30.5490  185.8310  146.4440 C   0  0  0  0  0  0  0  0  0  0  0  0
   30.6820  184.8300  143.8340 C   0  0  0  0  0  0  0  0  0  0  0  0
   34.9920  186.8550  139.4150 C   0  0  0  0  0  0  0  0  0  0  0  0
   34.8150  185.3470  139.6030 C   0  0  0  0  0  0  0  0  0  0  0  0
   34.7670  187.1410  141.8640 C   0  0  0  0  0  0  0  0  0  0  0  0
   27.7960  183.5030  145.7040 C   0  0  0  0  0  0  0  0  0  0  0  0
   33.8530  185.3340  143.2950 C   0  0  0  0  0  0  0  0  0  0  0  0
   35.4740  187.5370  140.6370 N   0  0  0  0  0  0  0  0  0  0  0  0
   32.5370  185.8340  143.1130 O   0  0  0  0  0  0  0  0  0  0  0  0
   28.3920  184.3950  146.6180 O   0  0  0  0  0  0  0  0  0  0  0  0
   28.5020  183.5740  144.4750 O   0  0  0  0  0  0  0  0  0  0  0  0
   33.5990  180.7080  140.9400 C   0  0  0  0  0  0  0  0  0  0  0  0
   31.6720  185.7190  144.3030 C   0  0  0  0  0  0  0  0  0  0  0  0
   33.8030  183.4610  140.8940 C   0  0  0  0  0  0  0  0  0  0  0  0
   29.5670  184.9520  145.9810 C   0  0  0  0  0  0  0  0  0  0  0  0
   29.6330  184.4500  144.6760 C   0  0  0  0  0  0  0  0  0  0  0  0
   34.6540  185.6080  142.0120 C   0  0  1  0  0  0  0  0  0  0  0  0
   34.0000  185.0360  140.8080 C   0  0  1  0  0  0  0  0  0  0  0  0
   34.7377  180.9869  139.3047 H   0  0  0  0  0  0  0  0  0  0  0  0
   35.5369  181.0268  141.0085 H   0  0  0  0  0  0  0  0  0  0  0  0
   32.5335  181.1643  142.5468 H   0  0  0  0  0  0  0  0  0  0  0  0
   31.7411  181.2504  140.8475 H   0  0  0  0  0  0  0  0  0  0  0  0
   31.5674  187.3150  145.5102 H   0  0  0  0  0  0  0  0  0  0  0  0
   32.4983  185.7881  146.0791 H   0  0  0  0  0  0  0  0  0  0  0  0
   35.7414  182.9610  140.8434 H   0  0  0  0  0  0  0  0  0  0  0  0
   34.7464  182.9437  139.2555 H   0  0  0  0  0  0  0  0  0  0  0  0
   31.8192  183.2165  140.9229 H   0  0  0  0  0  0  0  0  0  0  0  0
   32.7930  183.1135  142.5289 H   0  0  0  0  0  0  0  0  0  0  0  0
   31.0058  185.3598  147.3268 H   0  0  0  0  0  0  0  0  0  0  0  0
   29.9950  186.7685  146.5998 H   0  0  0  0  0  0  0  0  0  0  0  0
   30.2262  185.2990  142.9495 H   0  0  0  0  0  0  0  0  0  0  0  0
   31.2354  183.8923  143.6777 H   0  0  0  0  0  0  0  0  0  0  0  0
   35.7204  187.0247  138.6083 H   0  0  0  0  0  0  0  0  0  0  0  0
   34.0048  187.2746  139.1714 H   0  0  0  0  0  0  0  0  0  0  0  0
   34.3126  184.9335  138.7161 H   0  0  0  0  0  0  0  0  0  0  0  0
   35.8104  184.8983  139.7364 H   0  0  0  0  0  0  0  0  0  0  0  0
   35.3142  187.5398  142.7309 H   0  0  0  0  0  0  0  0  0  0  0  0
   33.7465  187.5478  141.8082 H   0  0  0  0  0  0  0  0  0  0  0  0
   27.8452  182.4782  146.1008 H   0  0  0  0  0  0  0  0  0  0  0  0
   26.7416  183.7746  145.5475 H   0  0  0  0  0  0  0  0  0  0  0  0
   34.3295  185.8415  144.1467 H   0  0  0  0  0  0  0  0  0  0  0  0
   33.8234  184.2538  143.5004 H   0  0  0  0  0  0  0  0  0  0  0  0
   36.4739  187.3200  140.7555 H   0  0  0  0  0  0  0  0  0  0  0  0
   34.1231  180.6899  141.9070 H   0  0  0  0  0  0  0  0  0  0  0  0
   32.2675  184.8666  144.6617 H   0  0  0  0  0  0  0  0  0  0  0  0
   33.2815  183.4953  139.9261 H   0  0  0  0  0  0  0  0  0  0  0  0
   30.1637  184.0986  146.3355 H   0  0  0  0  0  0  0  0  0  0  0  0
   29.0367  185.3021  144.3177 H   0  0  0  0  0  0  0  0  0  0  0  0
   35.6418  185.1308  142.0921 H   0  0  0  0  0  0  0  0  0  0  0  0
   33.0018  185.4939  140.7445 H   0  0  0  0  0  0  0  0  0  0  0  0
  2  5  1  0
  3  6  1  0
  4  7  1  0
  9 10  1  0
  9 14  1  0
 11 14  1  0
 13 15  1  0
 12 16  1  0
 12 17  1  0
  1 18  1  0
  2 18  1  0
  3 18  1  0
  4 19  1  0
  8 19  1  0
 15 19  1  0
  5 20  1  0
  6 20  1  0
  7 21  1  0
 16 21  1  0
  8 22  1  0
 17 22  1  0
 21 22  1  0
 11 23  1  0
 13 23  1  0
 10 24  1  0
 20 24  1  0
 23 24  1  0
  2 25  1  0
  2 26  1  0
  3 27  1  0
  3 28  1  0
  4 29  1  0
  4 30  1  0
  5 31  1  0
  5 32  1  0
  6 33  1  0
  6 34  1  0
  7 35  1  0
  7 36  1  0
  8 37  1  0
  8 38  1  0
  9 39  1  0
  9 40  1  0
 10 41  1  0
 10 42  1  0
 11 43  1  0
 11 44  1  0
 12 45  1  0
 12 46  1  0
 13 47  1  0
 13 48  1  0
 14 49  1  0
 18 50  1  0
 19 51  1  0
 20 52  1  0
 21 53  1  0
 22 54  1  0
 23 55  1  1
 24 56  1  6
M  END
>  <PDBID>  (1) 
6AWN

>  <PDB ID>  (1) 
6AWN

>  <Generic Name>  (1) 
Paroxetine

>  <Brand Name>  (1) 
Act Paroxetine#Apo-paroxetine#Auro-paroxetine#Bio-paroxetine#Brisdelle#Dom-paroxetine#Ipg-paroxetine#Jamp-paroxetine#Mar-paroxetine#Mint-paroxetine#Mylan-paroxetine#Ntp-paroxetine#Nu-paroxetine#PMS-paroxetine#Paroxetine#Paroxetine Hydrochloride#Paroxetine Hydrochloride Anhydrous#Paroxetine-10#Paroxetine-20#Paroxetine-30#Paxil#Paxil CR#Paxil Tab 10mg#Paxil Tab 20mg#Paxil Tab 30mg#Paxilcr CR#Pexeva#Priva-paroxetine#Q-paroxetine#Ratio-paroxetine#Riva-paroxetine#Sandoz Paroxetine#Sandoz Paroxetine Tablets#Teva-paroxetine#Aropax#PAXILCR#Sereupin#Seroxat#Seroxat CR

>  <DrugBank ID>  (1) 
DB00715

>  <ATC Codes>  (1) 
N06AB05

>  <Ligand ID>  (1) 
8PR

>  <Target Name>  (1) 
Sodium-dependent serotonin transporter

>  <UniProt ID>  (1) 
P31645

>  <PDB ID.1>  (1) 
6AWN

>  <Seq. Identity>  (1) 
99%

$$$$
