PDB_DB00530_98
     RDKit          3D

 52 54  0  0  0  0  0  0  0  0999 V2000
   28.8170   13.9250   -4.6970 C   0  0  0  0  0  0  0  0  0  0  0  0
   28.0300   13.9580   -3.7760 C   0  0  0  0  0  0  0  0  0  0  0  0
   27.0440   14.0330   -2.6190 C   0  0  0  0  0  0  0  0  0  0  0  0
   26.5490   12.8650   -2.0880 C   0  0  0  0  0  0  0  0  0  0  0  0
   25.6430   12.8980   -1.0140 C   0  0  0  0  0  0  0  0  0  0  0  0
   25.1050   11.6290   -0.4490 N   0  0  0  0  0  0  0  0  0  0  0  0
   25.9670   10.4240   -0.2840 C   0  0  0  0  0  0  0  0  0  0  0  0
   25.4040    9.1370    0.0500 C   0  0  0  0  0  0  0  0  0  0  0  0
   24.0330    8.9340    0.2320 C   0  0  0  0  0  0  0  0  0  0  0  0
   23.5640    7.6590    0.5520 C   0  0  0  0  0  0  0  0  0  0  0  0
   22.2160    7.4350    0.7360 O   0  0  0  0  0  0  0  0  0  0  0  0
   21.2710    8.4350    0.5760 C   0  0  0  0  0  0  0  0  0  0  0  0
   20.2290    8.3600    1.6960 C   0  0  0  0  0  0  0  0  0  0  0  0
   19.9970    7.0090    2.0750 O   0  0  0  0  0  0  0  0  0  0  0  0
   20.0450    6.6450    3.4240 C   0  0  0  0  0  0  0  0  0  0  0  0
   24.4380    6.5920    0.6870 C   0  0  0  0  0  0  0  0  0  0  0  0
   23.9000    5.3280    1.0210 O   0  0  0  0  0  0  0  0  0  0  0  0
   24.5160    4.1220    0.7310 C   0  0  0  0  0  0  0  0  0  0  0  0
   23.6020    2.9880    1.2080 C   0  0  0  0  0  0  0  0  0  0  0  0
   23.2320    3.2050    2.5410 O   0  0  0  0  0  0  0  0  0  0  0  0
   21.8620    3.2770    2.8900 C   0  0  0  0  0  0  0  0  0  0  0  0
   25.8250    6.7670    0.5150 C   0  0  0  0  0  0  0  0  0  0  0  0
   26.3140    8.0350    0.1960 C   0  0  0  0  0  0  0  0  0  0  0  0
   27.6640    8.2470    0.0120 N   0  0  0  0  0  0  0  0  0  0  0  0
   28.1360    9.4610   -0.2900 C   0  0  0  0  0  0  0  0  0  0  0  0
   27.3380   10.5100   -0.4400 N   0  0  0  0  0  0  0  0  0  0  0  0
   25.2320   14.1450   -0.4830 C   0  0  0  0  0  0  0  0  0  0  0  0
   25.7320   15.3140   -1.0180 C   0  0  0  0  0  0  0  0  0  0  0  0
   26.6320   15.2870   -2.0800 C   0  0  0  0  0  0  0  0  0  0  0  0
   29.5313   13.8950   -5.5330 H   0  0  0  0  0  0  0  0  0  0  0  0
   26.8644   11.8980   -2.5068 H   0  0  0  0  0  0  0  0  0  0  0  0
   24.1157   11.5831   -0.1661 H   0  0  0  0  0  0  0  0  0  0  0  0
   23.3293    9.7725    0.1239 H   0  0  0  0  0  0  0  0  0  0  0  0
   21.7696    9.4150    0.6082 H   0  0  0  0  0  0  0  0  0  0  0  0
   20.7676    8.3023   -0.3930 H   0  0  0  0  0  0  0  0  0  0  0  0
   20.5945    8.9223    2.5679 H   0  0  0  0  0  0  0  0  0  0  0  0
   19.2856    8.7929    1.3319 H   0  0  0  0  0  0  0  0  0  0  0  0
   19.9268    7.5416    4.0501 H   0  0  0  0  0  0  0  0  0  0  0  0
   19.2326    5.9361    3.6416 H   0  0  0  0  0  0  0  0  0  0  0  0
   21.0134    6.1709    3.6416 H   0  0  0  0  0  0  0  0  0  0  0  0
   24.6775    4.0382   -0.3538 H   0  0  0  0  0  0  0  0  0  0  0  0
   25.4903    4.0624    1.2382 H   0  0  0  0  0  0  0  0  0  0  0  0
   22.7000    2.9571    0.5792 H   0  0  0  0  0  0  0  0  0  0  0  0
   24.1402    2.0317    1.1318 H   0  0  0  0  0  0  0  0  0  0  0  0
   21.7625    3.2822    3.9855 H   0  0  0  0  0  0  0  0  0  0  0  0
   21.4266    4.1993    2.4779 H   0  0  0  0  0  0  0  0  0  0  0  0
   21.3323    2.4055    2.4779 H   0  0  0  0  0  0  0  0  0  0  0  0
   26.5131    5.9166    0.6304 H   0  0  0  0  0  0  0  0  0  0  0  0
   29.2204    9.5941   -0.4181 H   0  0  0  0  0  0  0  0  0  0  0  0
   24.5172   14.1811    0.3523 H   0  0  0  0  0  0  0  0  0  0  0  0
   25.4153   16.2809   -0.5998 H   0  0  0  0  0  0  0  0  0  0  0  0
   27.0221   16.2259   -2.4999 H   0  0  0  0  0  0  0  0  0  0  0  0
  1  2  3  0
  2  3  1  0
  3  4  2  0
  4  5  1  0
  5  6  1  0
  6  7  1  0
  7  8  1  0
  8  9  2  0
  9 10  1  0
 10 11  1  0
 11 12  1  0
 12 13  1  0
 13 14  1  0
 14 15  1  0
 10 16  2  0
 16 17  1  0
 17 18  1  0
 18 19  1  0
 19 20  1  0
 20 21  1  0
 16 22  1  0
  8 23  1  0
 22 23  2  0
 23 24  1  0
 24 25  2  0
  7 26  2  0
 25 26  1  0
  5 27  2  0
 27 28  1  0
  3 29  1  0
 28 29  2  0
  1 30  1  0
  4 31  1  0
  6 32  1  0
  9 33  1  0
 12 34  1  0
 12 35  1  0
 13 36  1  0
 13 37  1  0
 15 38  1  0
 15 39  1  0
 15 40  1  0
 18 41  1  0
 18 42  1  0
 19 43  1  0
 19 44  1  0
 21 45  1  0
 21 46  1  0
 21 47  1  0
 22 48  1  0
 25 49  1  0
 27 50  1  0
 28 51  1  0
 29 52  1  0
M  END
>  <PDBID>  (1) 
4HJO

>  <PDB ID>  (1) 
4HJO

>  <Generic Name>  (1) 
Erlotinib

>  <Brand Name>  (1) 
PMS-erlotinib#Tarceva#Teva-erlotinib

>  <DrugBank ID>  (1) 
DB00530

>  <ATC Codes>  (1) 
L01XE03

>  <Ligand ID>  (1) 
AQ4

>  <Target Name>  (1) 
Epidermal growth factor receptor

>  <UniProt ID>  (1) 
P00533

>  <PDB ID.1>  (1) 
4HJO

>  <Seq. Identity>  (1) 
95%

$$$$
