PDB_DB01010_99
     RDKit          3D

 34 34  0  0  0  0  0  0  0  0999 V2000
    3.1720   66.2200   64.2330 C   0  0  0  0  0  0  0  0  0  0  0  0
    4.0770   66.8670   63.4140 C   0  0  0  0  0  0  0  0  0  0  0  0
    5.0360   66.0790   62.7640 C   0  0  0  0  0  0  0  0  0  0  0  0
    5.0650   64.7010   62.9540 C   0  0  1  0  0  0  0  0  0  0  0  0
    4.1630   64.0750   63.8130 C   0  0  0  0  0  0  0  0  0  0  0  0
    3.1950   64.8390   64.4540 C   0  0  0  0  0  0  0  0  0  0  0  0
    6.0280   63.9370   62.3740 O   0  0  0  0  0  0  0  0  0  0  0  0
    4.0930   68.3280   63.1220 N   0  0  1  0  0  4  0  0  0  0  0  0
    4.7710   68.6450   61.7580 C   0  0  0  0  0  0  0  0  0  0  0  0
    2.6100   68.7950   63.0170 C   0  0  0  0  0  0  0  0  0  0  0  0
    4.8490   69.0800   64.2330 C   0  0  0  0  0  0  0  0  0  0  0  0
    6.4090   69.0100   64.2590 C   0  0  0  0  0  0  0  0  0  0  0  0
    3.2726   66.6870   65.2239 H   0  0  0  0  0  0  0  0  0  0  0  0
    2.2384   66.3356   63.6629 H   0  0  0  0  0  0  0  0  0  0  0  0
    4.7592   66.9932   64.2676 H   0  0  0  0  0  0  0  0  0  0  0  0
    4.9017   66.2455   61.6850 H   0  0  0  0  0  0  0  0  0  0  0  0
    5.9798   66.4113   63.2210 H   0  0  0  0  0  0  0  0  0  0  0  0
    5.7697   64.8309   63.7886 H   0  0  0  0  0  0  0  0  0  0  0  0
    3.6324   63.3136   63.2224 H   0  0  0  0  0  0  0  0  0  0  0  0
    4.7955   63.7104   64.6358 H   0  0  0  0  0  0  0  0  0  0  0  0
    3.3265   64.6867   65.5354 H   0  0  0  0  0  0  0  0  0  0  0  0
    2.2472   64.4845   64.0227 H   0  0  0  0  0  0  0  0  0  0  0  0
    6.5738   63.5040   63.0773 H   0  0  0  0  0  0  0  0  0  0  0  0
    5.7544   69.1048   61.9354 H   0  0  0  0  0  0  0  0  0  0  0  0
    4.8994   67.7136   61.1871 H   0  0  0  0  0  0  0  0  0  0  0  0
    4.1386   69.3408   61.1871 H   0  0  0  0  0  0  0  0  0  0  0  0
    2.1944   68.9259   64.0270 H   0  0  0  0  0  0  0  0  0  0  0  0
    2.5642   69.7511   62.4749 H   0  0  0  0  0  0  0  0  0  0  0  0
    2.0246   68.0377   62.4749 H   0  0  0  0  0  0  0  0  0  0  0  0
    4.5740   70.1418   64.1501 H   0  0  0  0  0  0  0  0  0  0  0  0
    4.5434   68.5680   65.1574 H   0  0  0  0  0  0  0  0  0  0  0  0
    6.7580   68.9943   65.3021 H   0  0  0  0  0  0  0  0  0  0  0  0
    6.7436   68.0959   63.7466 H   0  0  0  0  0  0  0  0  0  0  0  0
    6.8241   69.8904   63.7466 H   0  0  0  0  0  0  0  0  0  0  0  0
  1  2  1  0
  2  3  1  0
  3  4  1  0
  4  5  1  0
  1  6  1  0
  5  6  1  0
  4  7  1  0
  2  8  1  0
  8  9  1  6
  8 10  1  0
  8 11  1  0
 11 12  1  0
  1 13  1  0
  1 14  1  0
  2 15  1  0
  3 16  1  0
  3 17  1  0
  4 18  1  6
  5 19  1  0
  5 20  1  0
  6 21  1  0
  6 22  1  0
  7 23  1  0
  9 24  1  0
  9 25  1  0
  9 26  1  0
 10 27  1  0
 10 28  1  0
 10 29  1  0
 11 30  1  0
 11 31  1  0
 12 32  1  0
 12 33  1  0
 12 34  1  0
M  CHG  1   8   1
M  END
>  <PDBID>  (1) 
2ACK

>  <PDB ID>  (1) 
2ACK

>  <Generic Name>  (1) 
Edrophonium

>  <Brand Name>  (1) 
Enlon#Enlon 10mg/ml#Enlon Liq IV 10mg/ml#Enlon Plus#Tensilon#Antirex#Reversol

>  <DrugBank ID>  (1) 
DB01010

>  <ATC Codes>  (1) 
nan

>  <Ligand ID>  (1) 
EDR

>  <Target Name>  (1) 
Acetylcholinesterase

>  <UniProt ID>  (1) 
P22303

>  <PDB ID.1>  (1) 
2ACK

>  <Seq. Identity>  (1) 
57%

$$$$
