PDB_DB01051_99
     RDKit          3D

 80 83  0  0  0  0  0  0  0  0999 V2000
   -0.7950   -7.0430  -12.1600 C   0  0  0  0  0  0  0  0  0  0  0  0
   -1.1130   -5.6570  -12.1620 O   0  0  0  0  0  0  0  0  0  0  0  0
   -0.6770   -5.7060   -7.4090 N   0  0  0  0  0  0  0  0  0  0  0  0
   -0.8760   -4.7700   -8.3230 C   0  0  0  0  0  0  0  0  0  0  0  0
   -1.4090   -3.7020   -8.1220 O   0  0  0  0  0  0  0  0  0  0  0  0
   -0.4000   -5.1630   -9.5240 O   0  0  0  0  0  0  0  0  0  0  0  0
   -0.0020   -4.8060  -11.9010 C   0  0  2  0  0  0  0  0  0  0  0  0
   -0.1170   -4.1500  -10.5220 C   0  0  2  0  0  0  0  0  0  0  0  0
    1.1330   -3.3100  -10.2560 C   0  0  1  0  0  0  0  0  0  0  0  0
    2.3320   -4.0730  -10.2660 O   0  0  0  0  0  0  0  0  0  0  0  0
    1.2360   -2.2190  -11.3160 C   0  0  1  0  0  0  0  0  0  0  0  0
    1.1710   -2.7180  -12.6630 O   0  0  0  0  0  0  0  0  0  0  0  0
    0.2110   -3.7340  -13.0640 C   0  0  0  0  0  0  0  0  0  0  0  0
   -1.0710   -3.0370  -13.4970 C   0  0  0  0  0  0  0  0  0  0  0  0
    0.8760   -4.3960  -14.2580 C   0  0  0  0  0  0  0  0  0  0  0  0
    0.1510   -1.3580  -11.0680 O   0  0  0  0  0  0  0  0  0  0  0  0
    0.0650   -0.1490  -11.7070 C   0  0  0  0  0  0  0  0  0  0  0  0
   -1.0560    0.5930  -11.3310 C   0  0  0  0  0  0  0  0  0  0  0  0
   -2.0090    0.0810  -10.2770 C   0  0  0  0  0  0  0  0  0  0  0  0
   -1.2140    1.8410  -11.9250 C   0  0  0  0  0  0  0  0  0  0  0  0
   -0.2800    2.3740  -12.8250 C   0  0  0  0  0  0  0  0  0  0  0  0
    0.8160    1.5890  -13.1860 C   0  0  0  0  0  0  0  0  0  0  0  0
    0.9910    0.3310  -12.6400 C   0  0  0  0  0  0  0  0  0  0  0  0
   -2.3490    2.5330  -11.5530 O   0  0  0  0  0  0  0  0  0  0  0  0
   -2.6330    3.7990  -12.0010 C   0  0  0  0  0  0  0  0  0  0  0  0
   -3.6850    4.2350  -11.6170 O   0  0  0  0  0  0  0  0  0  0  0  0
   -1.6040    4.4410  -12.9560 C   0  0  0  0  0  0  0  0  0  0  0  0
   -0.4980    3.7300  -13.3270 C   0  0  0  0  0  0  0  0  0  0  0  0
    0.4280    4.2120  -14.1790 O   0  0  0  0  0  0  0  0  0  0  0  0
   -2.0020    5.7150  -13.4380 N   0  0  0  0  0  0  0  0  0  0  0  0
   -3.2510    6.0520  -13.9140 C   0  0  0  0  0  0  0  0  0  0  0  0
   -3.9100    6.9730  -13.4350 O   0  0  0  0  0  0  0  0  0  0  0  0
   -3.7890    5.1980  -15.0190 C   0  0  0  0  0  0  0  0  0  0  0  0
   -2.9340    4.4000  -15.7770 C   0  0  0  0  0  0  0  0  0  0  0  0
   -3.4220    3.4780  -16.7030 C   0  0  0  0  0  0  0  0  0  0  0  0
   -4.8100    3.3690  -16.8610 C   0  0  0  0  0  0  0  0  0  0  0  0
   -5.3290    2.3700  -17.6210 O   0  0  0  0  0  0  0  0  0  0  0  0
   -5.6700    4.2060  -16.1470 C   0  0  0  0  0  0  0  0  0  0  0  0
   -5.1620    5.1090  -15.2310 C   0  0  0  0  0  0  0  0  0  0  0  0
   -2.4110    2.6580  -17.4830 C   0  0  0  0  0  0  0  0  0  0  0  0
   -2.6740    1.1910  -17.2930 C   0  0  0  0  0  0  0  0  0  0  0  0
   -1.8850    0.2820  -16.7440 C   0  0  0  0  0  0  0  0  0  0  0  0
   -0.4860    0.5530  -16.2760 C   0  0  0  0  0  0  0  0  0  0  0  0
   -2.3670   -1.1120  -16.4900 C   0  0  0  0  0  0  0  0  0  0  0  0
   -0.7133   -7.3990  -11.1224 H   0  0  0  0  0  0  0  0  0  0  0  0
   -1.5882   -7.6019  -12.6780 H   0  0  0  0  0  0  0  0  0  0  0  0
    0.1626   -7.2002  -12.6780 H   0  0  0  0  0  0  0  0  0  0  0  0
   -0.2136   -6.5886   -7.6681 H   0  0  0  0  0  0  0  0  0  0  0  0
   -0.9855   -5.5519   -6.4384 H   0  0  0  0  0  0  0  0  0  0  0  0
    0.9009   -5.4341  -11.8865 H   0  0  0  0  0  0  0  0  0  0  0  0
   -0.9632   -3.4488  -10.4756 H   0  0  0  0  0  0  0  0  0  0  0  0
    1.0250   -2.8836   -9.2478 H   0  0  0  0  0  0  0  0  0  0  0  0
    2.6159   -4.2537   -9.3350 H   0  0  0  0  0  0  0  0  0  0  0  0
    2.2138   -1.7203  -11.2438 H   0  0  0  0  0  0  0  0  0  0  0  0
   -1.6390   -2.7282  -12.6071 H   0  0  0  0  0  0  0  0  0  0  0  0
   -0.8212   -2.1505  -14.0984 H   0  0  0  0  0  0  0  0  0  0  0  0
   -1.6792   -3.7286  -14.0984 H   0  0  0  0  0  0  0  0  0  0  0  0
    1.6145   -5.1311  -13.9055 H   0  0  0  0  0  0  0  0  0  0  0  0
    0.1140   -4.9047  -14.8667 H   0  0  0  0  0  0  0  0  0  0  0  0
    1.3813   -3.6317  -14.8667 H   0  0  0  0  0  0  0  0  0  0  0  0
   -1.6028    0.2992   -9.2783 H   0  0  0  0  0  0  0  0  0  0  0  0
   -2.9842    0.5766  -10.3925 H   0  0  0  0  0  0  0  0  0  0  0  0
   -2.1341   -1.0057  -10.3925 H   0  0  0  0  0  0  0  0  0  0  0  0
    1.5473    1.9747  -13.9116 H   0  0  0  0  0  0  0  0  0  0  0  0
    1.8510   -0.2875  -12.9365 H   0  0  0  0  0  0  0  0  0  0  0  0
    0.3315    5.1246  -14.5505 H   0  0  0  0  0  0  0  0  0  0  0  0
   -1.2896    6.4589  -13.4316 H   0  0  0  0  0  0  0  0  0  0  0  0
   -1.8469    4.4998  -15.6416 H   0  0  0  0  0  0  0  0  0  0  0  0
   -6.3095    2.2919  -17.7334 H   0  0  0  0  0  0  0  0  0  0  0  0
   -6.7557    4.1469  -16.3138 H   0  0  0  0  0  0  0  0  0  0  0  0
   -5.8462    5.7601  -14.6672 H   0  0  0  0  0  0  0  0  0  0  0  0
   -2.4897    2.9056  -18.5519 H   0  0  0  0  0  0  0  0  0  0  0  0
   -1.4006    2.8915  -17.1163 H   0  0  0  0  0  0  0  0  0  0  0  0
   -3.6461    0.8265  -17.6566 H   0  0  0  0  0  0  0  0  0  0  0  0
   -0.4617    0.5577  -15.1763 H   0  0  0  0  0  0  0  0  0  0  0  0
    0.1857   -0.2317  -16.6542 H   0  0  0  0  0  0  0  0  0  0  0  0
   -0.1560    1.5318  -16.6542 H   0  0  0  0  0  0  0  0  0  0  0  0
   -2.4276   -1.2872  -15.4057 H   0  0  0  0  0  0  0  0  0  0  0  0
   -3.3627   -1.2432  -16.9388 H   0  0  0  0  0  0  0  0  0  0  0  0
   -1.6650   -1.8302  -16.9388 H   0  0  0  0  0  0  0  0  0  0  0  0
  1  2  1  0
  3  4  1  0
  4  5  2  0
  4  6  1  0
  2  7  1  0
  6  8  1  0
  7  8  1  0
  8  9  1  0
  9 10  1  0
  9 11  1  0
 11 12  1  0
  7 13  1  0
 12 13  1  0
 13 14  1  0
 13 15  1  0
 11 16  1  0
 16 17  1  0
 17 18  2  0
 18 19  1  0
 18 20  1  0
 20 21  2  0
 21 22  1  0
 17 23  1  0
 22 23  2  0
 20 24  1  0
 24 25  1  0
 25 26  2  0
 25 27  1  0
 21 28  1  0
 27 28  2  0
 28 29  1  0
 27 30  1  0
 30 31  1  0
 31 32  2  0
 31 33  1  0
 33 34  2  0
 34 35  1  0
 35 36  2  0
 36 37  1  0
 36 38  1  0
 33 39  1  0
 38 39  2  0
 35 40  1  0
 40 41  1  0
 41 42  2  3
 42 43  1  0
 42 44  1  0
  1 45  1  0
  1 46  1  0
  1 47  1  0
  3 48  1  0
  3 49  1  0
  7 50  1  1
  8 51  1  6
  9 52  1  1
 10 53  1  0
 11 54  1  6
 14 55  1  0
 14 56  1  0
 14 57  1  0
 15 58  1  0
 15 59  1  0
 15 60  1  0
 19 61  1  0
 19 62  1  0
 19 63  1  0
 22 64  1  0
 23 65  1  0
 29 66  1  0
 30 67  1  0
 34 68  1  0
 37 69  1  0
 38 70  1  0
 39 71  1  0
 40 72  1  0
 40 73  1  0
 41 74  1  0
 43 75  1  0
 43 76  1  0
 43 77  1  0
 44 78  1  0
 44 79  1  0
 44 80  1  0
M  END
$$$$
