PDB_DB09053_98
     RDKit          3D

 57 61  0  0  0  0  0  0  0  0999 V2000
    1.0820  -25.5390   51.4520 N   0  0  0  0  0  0  0  0  0  0  0  0
    0.8280  -24.6120   50.4530 C   0  0  0  0  0  0  0  0  0  0  0  0
   -0.4930  -24.2990   50.1720 N   0  0  0  0  0  0  0  0  0  0  0  0
   -1.4640  -24.8710   50.8840 C   0  0  0  0  0  0  0  0  0  0  0  0
   -1.1980  -25.7430   51.8450 C   0  0  0  0  0  0  0  0  0  0  0  0
    0.0630  -26.0750   52.1260 C   0  0  0  0  0  0  0  0  0  0  0  0
   -6.1490  -24.6570   45.5030 C   0  0  0  0  0  0  0  0  0  0  0  0
    0.2620  -26.9860   53.0700 N   0  0  0  0  0  0  0  0  0  0  0  0
   -6.6020  -22.3380   46.9530 O   0  0  0  0  0  0  0  0  0  0  0  0
   -6.1270  -24.6830   47.0240 C   0  0  0  0  0  0  0  0  0  0  0  0
   -5.1850  -33.0120   56.4460 C   0  0  0  0  0  0  0  0  0  0  0  0
   -6.0160  -31.9820   56.8380 C   0  0  0  0  0  0  0  0  0  0  0  0
   -3.8690  -32.7400   56.1290 C   0  0  0  0  0  0  0  0  0  0  0  0
   -5.5440  -30.6800   56.8930 C   0  0  0  0  0  0  0  0  0  0  0  0
   -3.3950  -31.4430   56.1830 C   0  0  0  0  0  0  0  0  0  0  0  0
   -3.9750  -28.7240   54.2500 C   0  0  0  0  0  0  0  0  0  0  0  0
   -2.6200  -27.3460   55.6460 C   0  0  0  0  0  0  0  0  0  0  0  0
   -3.6300  -27.9450   53.1440 C   0  0  0  0  0  0  0  0  0  0  0  0
   -2.2790  -26.5770   54.5500 C   0  0  0  0  0  0  0  0  0  0  0  0
   -3.8910  -21.3830   49.4880 C   0  0  0  0  0  0  0  0  0  0  0  0
   -3.2770  -22.4140   50.4130 C   0  0  0  0  0  0  0  0  0  0  0  0
   -5.3360  -21.7270   49.2510 C   0  0  0  0  0  0  0  0  0  0  0  0
   -4.7740  -24.1840   49.4470 C   0  0  0  0  0  0  0  0  0  0  0  0
   -3.2790  -25.3620   51.5700 N   0  0  0  0  0  0  0  0  0  0  0  0
   -3.7680  -29.1330   56.6360 O   0  0  0  0  0  0  0  0  0  0  0  0
   -6.0670  -23.2570   47.5580 C   0  0  0  0  0  0  0  0  0  0  0  0
   -4.2320  -30.4040   56.5560 C   0  0  0  0  0  0  0  0  0  0  0  0
   -3.4690  -28.4300   55.5110 C   0  0  0  0  0  0  0  0  0  0  0  0
   -2.7550  -26.8710   53.2820 C   0  0  0  0  0  0  0  0  0  0  0  0
   -2.4060  -26.0660   52.2740 C   0  0  0  0  0  0  0  0  0  0  0  0
   -3.3500  -23.8210   49.8340 C   0  0  2  0  0  0  0  0  0  0  0  0
   -2.7750  -24.7430   50.8160 N   0  0  0  0  0  0  0  0  0  0  0  0
   -5.4220  -23.0780   48.7110 N   0  0  0  0  0  0  0  0  0  0  0  0
    1.6516  -24.1381   49.8988 H   0  0  0  0  0  0  0  0  0  0  0  0
   -6.1919  -25.5995   44.9374 H   0  0  0  0  0  0  0  0  0  0  0  0
   -6.1220  -23.6957   44.9689 H   0  0  0  0  0  0  0  0  0  0  0  0
   -0.5404  -27.3858   53.5772 H   0  0  0  0  0  0  0  0  0  0  0  0
    1.2188  -27.2933   53.2956 H   0  0  0  0  0  0  0  0  0  0  0  0
   -6.1508  -25.5918   47.6433 H   0  0  0  0  0  0  0  0  0  0  0  0
   -5.5682  -34.0414   56.3866 H   0  0  0  0  0  0  0  0  0  0  0  0
   -7.0605  -32.1960   57.1087 H   0  0  0  0  0  0  0  0  0  0  0  0
   -3.1959  -33.5580   55.8326 H   0  0  0  0  0  0  0  0  0  0  0  0
   -6.2141  -29.8654   57.2051 H   0  0  0  0  0  0  0  0  0  0  0  0
   -2.3456  -31.2341   55.9280 H   0  0  0  0  0  0  0  0  0  0  0  0
   -4.6545  -29.5796   54.1223 H   0  0  0  0  0  0  0  0  0  0  0  0
   -2.2123  -27.0938   56.6360 H   0  0  0  0  0  0  0  0  0  0  0  0
   -4.0526  -28.1815   52.1564 H   0  0  0  0  0  0  0  0  0  0  0  0
   -1.6143  -25.7113   54.6870 H   0  0  0  0  0  0  0  0  0  0  0  0
   -3.8212  -20.3870   49.9496 H   0  0  0  0  0  0  0  0  0  0  0  0
   -3.3508  -21.3789   48.5298 H   0  0  0  0  0  0  0  0  0  0  0  0
   -2.2215  -22.1546   50.5820 H   0  0  0  0  0  0  0  0  0  0  0  0
   -3.8464  -22.4057   51.3541 H   0  0  0  0  0  0  0  0  0  0  0  0
   -5.8879  -21.6742   50.2011 H   0  0  0  0  0  0  0  0  0  0  0  0
   -5.7746  -21.0140   48.5374 H   0  0  0  0  0  0  0  0  0  0  0  0
   -4.7559  -25.0792   48.8080 H   0  0  0  0  0  0  0  0  0  0  0  0
   -5.3480  -24.3771   50.3653 H   0  0  0  0  0  0  0  0  0  0  0  0
   -2.7688  -23.8857   48.9023 H   0  0  0  0  0  0  0  0  0  0  0  0
  1  2  2  0
  2  3  1  0
  3  4  2  0
  4  5  1  0
  1  6  1  0
  5  6  2  0
  6  8  1  0
  7 10  2  3
 11 12  2  0
 11 13  1  0
 12 14  1  0
 13 15  2  0
 16 18  2  0
 17 19  1  0
 20 21  1  0
 20 22  1  0
  9 26  2  0
 10 26  1  0
 14 27  2  0
 15 27  1  0
 25 27  1  0
 16 28  1  0
 17 28  2  0
 25 28  1  0
 18 29  1  0
 19 29  2  0
  5 30  1  0
 24 30  2  0
 29 30  1  0
 21 31  1  0
 23 31  1  0
  4 32  1  0
 24 32  1  0
 31 32  1  0
 22 33  1  0
 23 33  1  0
 26 33  1  0
  2 34  1  0
  7 35  1  0
  7 36  1  0
  8 37  1  0
  8 38  1  0
 10 39  1  0
 11 40  1  0
 12 41  1  0
 13 42  1  0
 14 43  1  0
 15 44  1  0
 16 45  1  0
 17 46  1  0
 18 47  1  0
 19 48  1  0
 20 49  1  0
 20 50  1  0
 21 51  1  0
 21 52  1  0
 22 53  1  0
 22 54  1  0
 23 55  1  0
 23 56  1  0
 31 57  1  6
M  END
$$$$
