PDB_DB08910_97
     RDKit          3D

135141  0  0  0  0  0  0  0  0999 V2000
   29.6590   21.5170  -10.0600 C   0  0  0  0  0  0  0  0  0  0  0  0
   30.1790   21.5220   -8.7630 C   0  0  0  0  0  0  0  0  0  0  0  0
   29.4880   20.9160   -7.7260 C   0  0  0  0  0  0  0  0  0  0  0  0
   28.2570   20.3260   -8.0000 C   0  0  0  0  0  0  0  0  0  0  0  0
   27.7360   20.3280   -9.2630 C   0  0  0  0  0  0  0  0  0  0  0  0
   28.4310   20.9010  -10.3260 C   0  0  0  0  0  0  0  0  0  0  0  0
   27.3380   19.6930   -7.1970 C   0  0  1  0  0  0  0  0  0  0  0  0
   26.2660   19.2840   -7.8880 N   0  0  0  0  0  0  0  0  0  0  0  0
   26.5510   19.6350   -9.0960 C   0  0  1  0  0  0  0  0  0  0  0  0
   27.9540   20.9140  -11.6130 N   0  0  0  0  0  0  0  0  0  0  0  0
   25.6650   19.4120  -10.0990 O   0  0  0  0  0  0  0  0  0  0  0  0
   25.2150   18.4320   -7.3590 C   0  0  1  0  0  0  0  0  0  0  0  0
   27.4540   19.3930   -5.8330 O   0  0  0  0  0  0  0  0  0  0  0  0
   23.9380   19.2290   -7.3280 C   0  0  0  0  0  0  0  0  0  0  0  0
   24.9940   17.1640   -8.1450 C   0  0  1  0  0  0  0  0  0  0  0  0
   23.7980   16.5840   -8.2490 N   0  0  0  0  0  0  0  0  0  0  0  0
   22.7000   17.0070   -7.5920 C   0  0  0  0  0  0  0  0  0  0  0  0
   22.8350   18.3200   -6.8540 C   0  0  0  0  0  0  0  0  0  0  0  0
   26.0340   16.5720   -8.6980 O   0  0  0  0  0  0  0  0  0  0  0  0
   21.6810   16.3460   -7.5790 O   0  0  0  0  0  0  0  0  0  0  0  0
   22.4330   19.5500   30.7580 C   0  0  0  0  0  0  0  0  0  0  0  0
   23.7380   19.9790   30.4170 C   0  0  0  0  0  0  0  0  0  0  0  0
   24.5210   19.1960   29.5810 C   0  0  0  0  0  0  0  0  0  0  0  0
   24.0360   17.9250   29.1580 C   0  0  1  0  0  0  0  0  0  0  0  0
   22.7970   17.4870   29.5050 C   0  0  0  0  0  0  0  0  0  0  0  0
   21.9890   18.2740   30.3450 C   0  0  1  0  0  0  0  0  0  0  0  0
   24.5770   16.9650   28.2740 C   0  0  0  0  0  0  0  0  0  0  0  0
   23.7450   15.8930   28.1130 N   0  0  0  0  0  0  0  0  0  0  0  0
   22.7540   16.2140   28.8450 C   0  0  2  0  0  0  0  0  0  0  0  0
   20.8010   17.7870   30.6580 N   0  0  0  0  0  0  0  0  0  0  0  0
   21.6170   15.4700   28.8650 O   0  0  0  0  0  0  0  0  0  0  0  0
   23.8860   14.8260   27.2080 C   0  0  1  0  0  0  0  0  0  0  0  0
   25.7500   16.9770   27.6220 O   0  0  0  0  0  0  0  0  0  0  0  0
   24.0260   13.5260   27.9730 C   0  0  0  0  0  0  0  0  0  0  0  0
   22.7660   14.6010   26.2390 C   0  0  0  0  0  0  0  0  0  0  0  0
   22.3870   13.3990   25.7580 N   0  0  0  0  0  0  0  0  0  0  0  0
   23.1030   12.2830   26.0440 C   0  0  0  0  0  0  0  0  0  0  0  0
   24.2140   12.3290   26.9930 C   0  0  0  0  0  0  0  0  0  0  0  0
   22.1300   15.6350   25.8650 O   0  0  0  0  0  0  0  0  0  0  0  0
   22.7920   11.2620   25.4710 O   0  0  0  0  0  0  0  0  0  0  0  0
   25.8360  -13.2430    5.9050 C   0  0  0  0  0  0  0  0  0  0  0  0
   26.2230  -14.5780    5.8840 C   0  0  0  0  0  0  0  0  0  0  0  0
   26.1750  -15.3410    4.7060 C   0  0  0  0  0  0  0  0  0  0  0  0
   25.7460  -14.7250    3.5540 C   0  0  0  0  0  0  0  0  0  0  0  0
   25.3870  -13.3720    3.5780 C   0  0  0  0  0  0  0  0  0  0  0  0
   25.4100  -12.6130    4.7440 C   0  0  0  0  0  0  0  0  0  0  0  0
   25.5470  -15.1260    2.2230 C   0  0  0  0  0  0  0  0  0  0  0  0
   25.1060  -14.1460    1.4220 N   0  0  0  0  0  0  0  0  0  0  0  0
   25.0440  -13.0860    2.2770 C   0  0  1  0  0  0  0  0  0  0  0  0
   25.0400  -11.2910    4.7190 N   0  0  0  0  0  0  0  0  0  0  0  0
   24.5610  -11.7820    1.8460 O   0  0  0  0  0  0  0  0  0  0  0  0
   24.8260  -14.0700   -0.0280 C   0  0  1  0  0  0  0  0  0  0  0  0
   25.8040  -16.4370    1.6770 O   0  0  0  0  0  0  0  0  0  0  0  0
   26.0640  -14.4440   -0.8600 C   0  0  0  0  0  0  0  0  0  0  0  0
   23.6300  -14.9010   -0.3980 C   0  0  2  0  0  0  0  0  0  0  0  0
   23.4900  -15.2170   -1.6650 N   0  0  0  0  0  0  0  0  0  0  0  0
   24.3590  -14.8840   -2.6530 C   0  0  0  0  0  0  0  0  0  0  0  0
   25.6750  -14.2120   -2.3290 C   0  0  0  0  0  0  0  0  0  0  0  0
   22.7030  -15.1140    0.4630 O   0  0  0  0  0  0  0  0  0  0  0  0
   23.9630  -15.1310   -3.7990 O   0  0  0  0  0  0  0  0  0  0  0  0
   29.5571   22.5693  -10.3638 H   0  0  0  0  0  0  0  0  0  0  0  0
   30.3761   20.8934  -10.6139 H   0  0  0  0  0  0  0  0  0  0  0  0
   31.1621   21.0314   -8.8157 H   0  0  0  0  0  0  0  0  0  0  0  0
   30.1514   22.5871   -8.4895 H   0  0  0  0  0  0  0  0  0  0  0  0
   30.1403   20.1302   -7.3174 H   0  0  0  0  0  0  0  0  0  0  0  0
   29.2423   21.7457   -7.0468 H   0  0  0  0  0  0  0  0  0  0  0  0
   27.7527   21.2809   -7.7905 H   0  0  0  0  0  0  0  0  0  0  0  0
   27.2493   21.2935   -9.0607 H   0  0  0  0  0  0  0  0  0  0  0  0
   28.9481   19.9463  -10.5025 H   0  0  0  0  0  0  0  0  0  0  0  0
   26.8446   20.6566   -7.0020 H   0  0  0  0  0  0  0  0  0  0  0  0
   27.0853   18.6852   -9.2459 H   0  0  0  0  0  0  0  0  0  0  0  0
   26.9245   20.9421  -11.5973 H   0  0  0  0  0  0  0  0  0  0  0  0
   28.3127   21.7455  -12.1037 H   0  0  0  0  0  0  0  0  0  0  0  0
   24.7803   19.1893   -9.7144 H   0  0  0  0  0  0  0  0  0  0  0  0
   25.5300   18.1125   -6.3547 H   0  0  0  0  0  0  0  0  0  0  0  0
   27.1537   20.1697   -5.2976 H   0  0  0  0  0  0  0  0  0  0  0  0
   24.0446   20.0785   -6.6374 H   0  0  0  0  0  0  0  0  0  0  0  0
   23.7071   19.6208   -8.3296 H   0  0  0  0  0  0  0  0  0  0  0  0
   25.2043   16.5689   -7.2441 H   0  0  0  0  0  0  0  0  0  0  0  0
   23.5562   16.6181   -9.2496 H   0  0  0  0  0  0  0  0  0  0  0  0
   23.0305   16.4673   -6.6923 H   0  0  0  0  0  0  0  0  0  0  0  0
   23.0171   18.0934   -5.7931 H   0  0  0  0  0  0  0  0  0  0  0  0
   21.8981   18.8651   -7.0413 H   0  0  0  0  0  0  0  0  0  0  0  0
   26.6346   16.2301   -7.9891 H   0  0  0  0  0  0  0  0  0  0  0  0
   21.4125   16.1719   -6.6421 H   0  0  0  0  0  0  0  0  0  0  0  0
   22.3658   19.5721   31.8557 H   0  0  0  0  0  0  0  0  0  0  0  0
   21.7812   20.2416   30.2040 H   0  0  0  0  0  0  0  0  0  0  0  0
   23.6347   20.9604   29.9310 H   0  0  0  0  0  0  0  0  0  0  0  0
   24.2768   19.9495   31.3756 H   0  0  0  0  0  0  0  0  0  0  0  0
   24.7088   19.7862   28.6720 H   0  0  0  0  0  0  0  0  0  0  0  0
   25.3949   18.9474   30.2010 H   0  0  0  0  0  0  0  0  0  0  0  0
   24.4531   17.4638   30.0654 H   0  0  0  0  0  0  0  0  0  0  0  0
   23.2218   16.9831   30.3857 H   0  0  0  0  0  0  0  0  0  0  0  0
   21.5117   18.7256   29.4628 H   0  0  0  0  0  0  0  0  0  0  0  0
   25.0642   16.4597   29.1209 H   0  0  0  0  0  0  0  0  0  0  0  0
   22.9829   15.5049   29.6542 H   0  0  0  0  0  0  0  0  0  0  0  0
   20.7052   17.7477   31.6828 H   0  0  0  0  0  0  0  0  0  0  0  0
   20.0670   18.3950   30.2676 H   0  0  0  0  0  0  0  0  0  0  0  0
   21.3524   15.2969   29.8031 H   0  0  0  0  0  0  0  0  0  0  0  0
   24.7695   15.1179   26.6213 H   0  0  0  0  0  0  0  0  0  0  0  0
   26.4918   16.9846   28.2775 H   0  0  0  0  0  0  0  0  0  0  0  0
   24.9005   13.5900   28.6371 H   0  0  0  0  0  0  0  0  0  0  0  0
   23.1116   13.3614   28.5618 H   0  0  0  0  0  0  0  0  0  0  0  0
   23.4686   14.7150   25.4004 H   0  0  0  0  0  0  0  0  0  0  0  0
   21.4310   13.2319   26.1029 H   0  0  0  0  0  0  0  0  0  0  0  0
   23.7955   12.5166   25.2219 H   0  0  0  0  0  0  0  0  0  0  0  0
   25.1585   12.4530   26.4429 H   0  0  0  0  0  0  0  0  0  0  0  0
   24.2383   11.3913   27.5675 H   0  0  0  0  0  0  0  0  0  0  0  0
   21.8208   16.1377   26.6598 H   0  0  0  0  0  0  0  0  0  0  0  0
   22.5786   10.5615   26.1373 H   0  0  0  0  0  0  0  0  0  0  0  0
   25.0091  -13.1663    6.6263 H   0  0  0  0  0  0  0  0  0  0  0  0
   26.7737  -12.7182    6.1404 H   0  0  0  0  0  0  0  0  0  0  0  0
   27.2680  -14.6027    6.2264 H   0  0  0  0  0  0  0  0  0  0  0  0
   25.4508  -15.0559    6.5047 H   0  0  0  0  0  0  0  0  0  0  0  0
   27.1920  -15.7154    4.5173 H   0  0  0  0  0  0  0  0  0  0  0  0
   25.4128  -16.1082    4.9070 H   0  0  0  0  0  0  0  0  0  0  0  0
   24.7088  -15.0044    3.7908 H   0  0  0  0  0  0  0  0  0  0  0  0
   24.3430  -13.6526    3.7813 H   0  0  0  0  0  0  0  0  0  0  0  0
   26.4456  -12.3118    4.5275 H   0  0  0  0  0  0  0  0  0  0  0  0
   24.5083  -15.3992    2.4606 H   0  0  0  0  0  0  0  0  0  0  0  0
   26.0936  -12.8443    2.0534 H   0  0  0  0  0  0  0  0  0  0  0  0
   24.9427  -10.9434    5.6837 H   0  0  0  0  0  0  0  0  0  0  0  0
   25.7597  -10.7423    4.2273 H   0  0  0  0  0  0  0  0  0  0  0  0
   24.3555  -11.2273    2.6398 H   0  0  0  0  0  0  0  0  0  0  0  0
   24.5812  -13.0244   -0.2664 H   0  0  0  0  0  0  0  0  0  0  0  0
   25.9307  -17.0833    2.4162 H   0  0  0  0  0  0  0  0  0  0  0  0
   26.9162  -13.8051   -0.5851 H   0  0  0  0  0  0  0  0  0  0  0  0
   26.3671  -15.4867   -0.6839 H   0  0  0  0  0  0  0  0  0  0  0  0
   23.8620  -15.9239   -0.0667 H   0  0  0  0  0  0  0  0  0  0  0  0
   23.4316  -16.2451   -1.6863 H   0  0  0  0  0  0  0  0  0  0  0  0
   23.8783  -13.8988   -2.7438 H   0  0  0  0  0  0  0  0  0  0  0  0
   25.5813  -13.1311   -2.5101 H   0  0  0  0  0  0  0  0  0  0  0  0
   26.4568  -14.6435   -2.9713 H   0  0  0  0  0  0  0  0  0  0  0  0
   23.0750  -15.0285    1.3764 H   0  0  0  0  0  0  0  0  0  0  0  0
   23.1239  -15.6544   -3.7526 H   0  0  0  0  0  0  0  0  0  0  0  0
  1  2  1  0
  2  3  1  0
  3  4  1  0
  4  5  1  0
  1  6  1  0
  5  6  1  0
  4  7  1  0
  7  8  1  0
  5  9  1  0
  8  9  1  0
  6 10  1  0
  9 11  1  0
  8 12  1  0
  7 13  1  0
 12 14  1  0
 12 15  1  0
 15 16  1  0
 16 17  1  0
 14 18  1  0
 17 18  1  0
 15 19  1  0
 17 20  1  0
 21 22  1  0
 22 23  1  0
 23 24  1  0
 24 25  1  0
 21 26  1  0
 25 26  1  0
 24 27  1  0
 27 28  1  0
 25 29  1  0
 28 29  1  0
 26 30  1  0
 29 31  1  0
 28 32  1  0
 27 33  1  0
 32 34  1  0
 32 35  1  0
 35 36  1  0
 36 37  1  0
 34 38  1  0
 37 38  1  0
 35 39  1  0
 37 40  1  0
 41 42  1  0
 42 43  1  0
 43 44  1  0
 44 45  1  0
 41 46  1  0
 45 46  1  0
 44 47  1  0
 47 48  1  0
 45 49  1  0
 48 49  1  0
 46 50  1  0
 49 51  1  0
 48 52  1  0
 47 53  1  0
 52 54  1  0
 52 55  1  0
 55 56  1  0
 56 57  1  0
 54 58  1  0
 57 58  1  0
 55 59  1  0
 57 60  1  0
  1 61  1  0
  1 62  1  0
  2 63  1  0
  2 64  1  0
  3 65  1  0
  3 66  1  0
  4 67  1  0
  5 68  1  0
  6 69  1  0
  7 70  1  1
  9 71  1  6
 10 72  1  0
 10 73  1  0
 11 74  1  0
 12 75  1  1
 13 76  1  0
 14 77  1  0
 14 78  1  0
 15 79  1  6
 16 80  1  0
 17 81  1  0
 18 82  1  0
 18 83  1  0
 19 84  1  0
 20 85  1  0
 21 86  1  0
 21 87  1  0
 22 88  1  0
 22 89  1  0
 23 90  1  0
 23 91  1  0
 24 92  1  1
 25 93  1  0
 26 94  1  1
 27 95  1  0
 29 96  1  1
 30 97  1  0
 30 98  1  0
 31 99  1  0
 32100  1  6
 33101  1  0
 34102  1  0
 34103  1  0
 35104  1  0
 36105  1  0
 37106  1  0
 38107  1  0
 38108  1  0
 39109  1  0
 40110  1  0
 41111  1  0
 41112  1  0
 42113  1  0
 42114  1  0
 43115  1  0
 43116  1  0
 44117  1  0
 45118  1  0
 46119  1  0
 47120  1  0
 49121  1  6
 50122  1  0
 50123  1  0
 51124  1  0
 52125  1  6
 53126  1  0
 54127  1  0
 54128  1  0
 55129  1  1
 56130  1  0
 57131  1  0
 58132  1  0
 58133  1  0
 59134  1  0
 60135  1  0
M  END
>  <PDBID>  (1) 
4V2Z

>  <PDB ID>  (1) 
4V2Z

>  <Generic Name>  (1) 
Pomalidomide

>  <Brand Name>  (1) 
Pomalyst#Imnovid

>  <DrugBank ID>  (1) 
DB08910

>  <ATC Codes>  (1) 
L04AX06

>  <Ligand ID>  (1) 
Y70

>  <Target Name>  (1) 
Protein cereblon

>  <UniProt ID>  (1) 
Q96SW2

>  <PDB ID.1>  (1) 
4V2Z

>  <Seq. Identity>  (1) 
39%

$$$$
