PDB_DB00452_95
     RDKit          3D

 88 91  0  0  0  0  0  0  0  0999 V2000
  -53.4370   92.4540   93.9660 C   0  0  2  0  0  0  0  0  0  0  0  0
  -54.2480   93.0930   92.9870 O   0  0  0  0  0  0  0  0  0  0  0  0
  -53.1270   91.0430   93.4940 C   0  0  2  0  0  0  0  0  0  0  0  0
  -52.4730   91.1060   92.2040 N   0  0  0  0  0  0  0  0  0  0  0  0
  -54.4020   90.2300   93.3480 C   0  0  1  0  0  0  0  0  0  0  0  0
  -54.0580   88.8560   93.1510 O   0  0  0  0  0  0  0  0  0  0  0  0
  -55.2930   90.3500   94.5760 C   0  0  2  0  0  0  0  0  0  0  0  0
  -56.5920   89.8500   94.2470 O   0  0  0  0  0  0  0  0  0  0  0  0
  -55.4310   91.7930   95.0410 C   0  0  2  0  0  0  0  0  0  0  0  0
  -54.1440   92.3810   95.1990 O   0  0  0  0  0  0  0  0  0  0  0  0
  -56.1750   91.8610   96.3660 C   0  0  0  0  0  0  0  0  0  0  0  0
  -53.9420   96.9900   91.5460 C   0  0  1  0  0  0  0  0  0  0  0  0
  -53.8940   98.4300   91.4050 N   0  0  0  0  0  0  0  0  0  0  0  0
  -52.8400   96.5340   92.4850 C   0  0  1  0  0  0  0  0  0  0  0  0
  -52.8640   95.0200   92.6470 C   0  0  1  0  0  0  0  0  0  0  0  0
  -51.8840   94.6390   93.6060 O   0  0  0  0  0  0  0  0  0  0  0  0
  -54.2290   94.5120   93.0950 C   0  0  1  0  0  0  0  0  0  0  0  0
  -55.3600   95.0580   92.2320 C   0  0  1  0  0  0  0  0  0  0  0  0
  -56.6310   94.6880   92.8200 N   0  0  0  0  0  0  0  0  0  0  0  0
  -55.2940   96.5720   92.0980 C   0  0  0  0  0  0  0  0  0  0  0  0
  -50.5800   94.6850   93.0430 C   0  0  1  0  0  0  0  0  0  0  0  0
  -49.6520   95.5050   93.9140 C   0  0  1  0  0  0  0  0  0  0  0  0
  -48.3190   94.7990   93.8290 C   0  0  1  0  0  0  0  0  0  0  0  0
  -48.6530   93.3910   93.3620 C   0  0  2  0  0  0  0  0  0  0  0  0
  -50.0220   93.3780   92.9650 O   0  0  0  0  0  0  0  0  0  0  0  0
  -48.4720   92.3820   94.4830 C   0  0  0  0  0  0  0  0  0  0  0  0
  -44.2400   93.3470   91.4580 C   0  0  1  0  0  0  0  0  0  0  0  0
  -45.5260   92.5720   91.6700 C   0  0  1  0  0  0  0  0  0  0  0  0
  -46.4260   93.3620   92.6000 C   0  0  2  0  0  0  0  0  0  0  0  0
  -46.6610   94.7500   92.0290 C   0  0  1  0  0  0  0  0  0  0  0  0
  -47.5020   95.5160   92.8960 O   0  0  0  0  0  0  0  0  0  0  0  0
  -44.5270   94.7620   90.9740 C   0  0  1  0  0  0  0  0  0  0  0  0
  -45.4020   95.4090   91.8950 O   0  0  0  0  0  0  0  0  0  0  0  0
  -43.2240   95.5500   90.8380 C   0  0  0  0  0  0  0  0  0  0  0  0
  -57.3520   92.6900   96.2040 N   0  0  0  0  0  0  0  0  0  0  0  0
  -49.5450   96.8210   93.3740 O   0  0  0  0  0  0  0  0  0  0  0  0
  -46.1850   92.3840   90.4160 O   0  0  0  0  0  0  0  0  0  0  0  0
  -43.5520   93.4120   92.7090 O   0  0  0  0  0  0  0  0  0  0  0  0
  -49.6280   91.5380   94.5240 O   0  0  0  0  0  0  0  0  0  0  0  0
  -51.5790   96.9480   91.9510 O   0  0  0  0  0  0  0  0  0  0  0  0
  -43.4710   96.9780   90.7820 N   0  0  0  0  0  0  0  0  0  0  0  0
  -45.7750   93.4900   93.8850 N   0  0  0  0  0  0  0  0  0  0  0  0
  -52.5079   93.0254   94.1084 H   0  0  0  0  0  0  0  0  0  0  0  0
  -52.4759   90.5622   94.2389 H   0  0  0  0  0  0  0  0  0  0  0  0
  -51.4566   91.2039   92.3388 H   0  0  0  0  0  0  0  0  0  0  0  0
  -52.6679   90.2423   91.6777 H   0  0  0  0  0  0  0  0  0  0  0  0
  -54.9599   90.6213   92.4845 H   0  0  0  0  0  0  0  0  0  0  0  0
  -53.9474   88.4142   94.0300 H   0  0  0  0  0  0  0  0  0  0  0  0
  -54.8326   89.7716   95.3905 H   0  0  0  0  0  0  0  0  0  0  0  0
  -57.0921   89.6575   95.0794 H   0  0  0  0  0  0  0  0  0  0  0  0
  -56.0004   92.3452   94.2788 H   0  0  0  0  0  0  0  0  0  0  0  0
  -56.4764   90.8484   96.6721 H   0  0  0  0  0  0  0  0  0  0  0  0
  -55.5205   92.2917   97.1381 H   0  0  0  0  0  0  0  0  0  0  0  0
  -53.7962   96.5232   90.5607 H   0  0  0  0  0  0  0  0  0  0  0  0
  -53.8795   98.8660   92.3380 H   0  0  0  0  0  0  0  0  0  0  0  0
  -53.0437   98.6962   90.8883 H   0  0  0  0  0  0  0  0  0  0  0  0
  -52.9962   96.9863   93.4754 H   0  0  0  0  0  0  0  0  0  0  0  0
  -52.6461   94.5724   91.6661 H   0  0  0  0  0  0  0  0  0  0  0  0
  -54.3841   94.8497   94.1303 H   0  0  0  0  0  0  0  0  0  0  0  0
  -55.2555   94.6243   91.2265 H   0  0  0  0  0  0  0  0  0  0  0  0
  -56.5538   94.7105   93.8469 H   0  0  0  0  0  0  0  0  0  0  0  0
  -57.3566   95.3527   92.5156 H   0  0  0  0  0  0  0  0  0  0  0  0
  -56.0864   96.9114   91.4147 H   0  0  0  0  0  0  0  0  0  0  0  0
  -55.4337   97.0271   93.0897 H   0  0  0  0  0  0  0  0  0  0  0  0
  -50.6754   95.1316   92.0423 H   0  0  0  0  0  0  0  0  0  0  0  0
  -50.0058   95.5937   94.9518 H   0  0  0  0  0  0  0  0  0  0  0  0
  -47.7610   94.7551   94.7759 H   0  0  0  0  0  0  0  0  0  0  0  0
  -47.9818   93.1182   92.5343 H   0  0  0  0  0  0  0  0  0  0  0  0
  -47.5749   91.7741   94.2941 H   0  0  0  0  0  0  0  0  0  0  0  0
  -48.3510   92.9032   95.4441 H   0  0  0  0  0  0  0  0  0  0  0  0
  -43.6322   92.8394   90.6945 H   0  0  0  0  0  0  0  0  0  0  0  0
  -45.3006   91.5896   92.1107 H   0  0  0  0  0  0  0  0  0  0  0  0
  -47.3886   92.8410   92.7090 H   0  0  0  0  0  0  0  0  0  0  0  0
  -47.1553   94.6579   91.0507 H   0  0  0  0  0  0  0  0  0  0  0  0
  -45.0091   94.7168   89.9863 H   0  0  0  0  0  0  0  0  0  0  0  0
  -42.5820   95.3318   91.7042 H   0  0  0  0  0  0  0  0  0  0  0  0
  -42.7332   95.2472   89.9013 H   0  0  0  0  0  0  0  0  0  0  0  0
  -57.7197   92.9490   97.1306 H   0  0  0  0  0  0  0  0  0  0  0  0
  -57.1023   93.5428   95.6831 H   0  0  0  0  0  0  0  0  0  0  0  0
  -49.4916   97.4776   94.1130 H   0  0  0  0  0  0  0  0  0  0  0  0
  -47.1248   92.1159   90.5740 H   0  0  0  0  0  0  0  0  0  0  0  0
  -44.2065   93.3502   93.4492 H   0  0  0  0  0  0  0  0  0  0  0  0
  -49.8728   91.3593   95.4664 H   0  0  0  0  0  0  0  0  0  0  0  0
  -50.9571   97.1522   92.6937 H   0  0  0  0  0  0  0  0  0  0  0  0
  -43.5359   97.3530   91.7391 H   0  0  0  0  0  0  0  0  0  0  0  0
  -42.6976   97.4409   90.2836 H   0  0  0  0  0  0  0  0  0  0  0  0
  -46.4671   93.3539   94.6356 H   0  0  0  0  0  0  0  0  0  0  0  0
  -45.0349   92.7784   93.9673 H   0  0  0  0  0  0  0  0  0  0  0  0
  2  1  1  0
  3  1  1  0
  4  3  1  0
  5  3  1  0
  6  5  1  0
  7  5  1  0
  8  7  1  0
  9  7  1  0
 10  9  1  0
 10  1  1  0
 11  9  1  0
 13 12  1  0
 14 12  1  0
 15 14  1  0
 16 15  1  0
 17 15  1  0
 17  2  1  0
 18 17  1  0
 19 18  1  0
 20 18  1  0
 20 12  1  0
 21 16  1  0
 22 21  1  0
 23 22  1  0
 24 23  1  0
 25 21  1  0
 25 24  1  0
 26 24  1  0
 28 27  1  0
 29 28  1  0
 30 29  1  0
 31 30  1  0
 31 23  1  0
 32 27  1  0
 33 32  1  0
 33 30  1  0
 34 32  1  0
 35 11  1  0
 36 22  1  0
 37 28  1  0
 38 27  1  0
 39 26  1  0
 40 14  1  0
 41 34  1  0
 42 29  1  0
  1 43  1  1
  3 44  1  1
  4 45  1  0
  4 46  1  0
  5 47  1  6
  6 48  1  0
  7 49  1  1
  8 50  1  0
  9 51  1  6
 11 52  1  0
 11 53  1  0
 12 54  1  6
 13 55  1  0
 13 56  1  0
 14 57  1  1
 15 58  1  6
 17 59  1  1
 18 60  1  6
 19 61  1  0
 19 62  1  0
 20 63  1  0
 20 64  1  0
 21 65  1  6
 22 66  1  1
 23 67  1  1
 24 68  1  6
 26 69  1  0
 26 70  1  0
 27 71  1  6
 28 72  1  1
 29 73  1  1
 30 74  1  6
 32 75  1  6
 34 76  1  0
 34 77  1  0
 35 78  1  0
 35 79  1  0
 36 80  1  0
 37 81  1  0
 38 82  1  0
 39 83  1  0
 40 84  1  0
 41 85  1  0
 41 86  1  0
 42 87  1  0
 42 88  1  0
M  END
$$$$
