PDB_DB00783_91
     RDKit          3D

 44 47  0  0  0  0  0  0  0  0999 V2000
  -21.3300   33.5580  -47.5880 C   0  0  0  0  0  0  0  0  0  0  0  0
  -21.9910   32.5020  -48.2270 C   0  0  0  0  0  0  0  0  0  0  0  0
  -22.1370   31.2480  -47.6280 C   0  0  0  0  0  0  0  0  0  0  0  0
  -22.7710   30.2410  -48.3020 O   0  0  0  0  0  0  0  0  0  0  0  0
  -21.5990   31.0100  -46.3700 C   0  0  0  0  0  0  0  0  0  0  0  0
  -20.9320   32.0380  -45.6960 C   0  0  0  0  0  0  0  0  0  0  0  0
  -20.3820   31.7680  -44.3220 C   0  0  0  0  0  0  0  0  0  0  0  0
  -19.2930   32.7590  -43.9830 C   0  0  0  0  0  0  0  0  0  0  0  0
  -19.8560   34.1440  -44.1120 C   0  0  2  0  0  0  0  0  0  0  0  0
  -20.0370   34.4620  -45.6040 C   0  0  1  0  0  0  0  0  0  0  0  0
  -20.8010   33.3800  -46.3020 C   0  0  0  0  0  0  0  0  0  0  0  0
  -20.6180   35.8540  -45.7990 C   0  0  0  0  0  0  0  0  0  0  0  0
  -19.7950   36.9390  -45.0950 C   0  0  0  0  0  0  0  0  0  0  0  0
  -19.5450   36.5820  -43.6360 C   0  0  1  0  0  0  0  0  0  0  0  0
  -18.9330   35.2030  -43.5220 C   0  0  1  0  0  0  0  0  0  0  0  0
  -18.4720   35.1100  -42.0570 C   0  0  0  0  0  0  0  0  0  0  0  0
  -18.0770   36.5490  -41.6880 C   0  0  0  0  0  0  0  0  0  0  0  0
  -18.4600   37.3790  -42.9160 C   0  0  2  0  0  0  0  0  0  0  0  0
  -18.8850   38.6680  -42.4950 O   0  0  0  0  0  0  0  0  0  0  0  0
  -20.8850   36.6940  -42.8940 C   0  0  0  0  0  0  0  0  0  0  0  0
  -21.2257   34.5283  -48.0956 H   0  0  0  0  0  0  0  0  0  0  0  0
  -22.4083   32.6645  -49.2317 H   0  0  0  0  0  0  0  0  0  0  0  0
  -22.8755   29.3518  -47.8795 H   0  0  0  0  0  0  0  0  0  0  0  0
  -21.6970   30.0176  -45.9058 H   0  0  0  0  0  0  0  0  0  0  0  0
  -21.1930   31.8551  -43.5840 H   0  0  0  0  0  0  0  0  0  0  0  0
  -19.9579   30.7532  -44.3020 H   0  0  0  0  0  0  0  0  0  0  0  0
  -18.9475   32.5930  -42.9520 H   0  0  0  0  0  0  0  0  0  0  0  0
  -18.4406   32.6324  -44.6666 H   0  0  0  0  0  0  0  0  0  0  0  0
  -20.8086   34.1671  -43.5624 H   0  0  0  0  0  0  0  0  0  0  0  0
  -19.0480   34.4805  -46.0852 H   0  0  0  0  0  0  0  0  0  0  0  0
  -20.6466   36.0764  -46.8759 H   0  0  0  0  0  0  0  0  0  0  0  0
  -21.6254   35.8600  -45.3572 H   0  0  0  0  0  0  0  0  0  0  0  0
  -18.8283   37.0458  -45.6088 H   0  0  0  0  0  0  0  0  0  0  0  0
  -20.3599   37.8822  -45.1305 H   0  0  0  0  0  0  0  0  0  0  0  0
  -18.0416   35.0074  -44.1361 H   0  0  0  0  0  0  0  0  0  0  0  0
  -19.2899   34.7538  -41.4135 H   0  0  0  0  0  0  0  0  0  0  0  0
  -17.6424   34.4002  -41.9229 H   0  0  0  0  0  0  0  0  0  0  0  0
  -18.6313   36.8889  -40.8008 H   0  0  0  0  0  0  0  0  0  0  0  0
  -17.0093   36.6387  -41.4392 H   0  0  0  0  0  0  0  0  0  0  0  0
  -17.6222   37.5523  -43.6074 H   0  0  0  0  0  0  0  0  0  0  0  0
  -18.8971   38.7047  -41.5058 H   0  0  0  0  0  0  0  0  0  0  0  0
  -20.7056   36.6790  -41.8088 H   0  0  0  0  0  0  0  0  0  0  0  0
  -21.3798   37.6366  -43.1709 H   0  0  0  0  0  0  0  0  0  0  0  0
  -21.5294   35.8466  -43.1709 H   0  0  0  0  0  0  0  0  0  0  0  0
  1  2  2  0
  2  3  1  0
  3  4  1  0
  3  5  2  0
  5  6  1  0
  6  7  1  0
  7  8  1  0
  8  9  1  0
  9 10  1  0
  1 11  1  0
  6 11  2  0
 10 11  1  0
 10 12  1  0
 12 13  1  0
 13 14  1  0
  9 15  1  0
 14 15  1  0
 15 16  1  0
 16 17  1  0
 14 18  1  0
 17 18  1  0
 18 19  1  0
 14 20  1  1
  1 21  1  0
  2 22  1  0
  4 23  1  0
  5 24  1  0
  7 25  1  0
  7 26  1  0
  8 27  1  0
  8 28  1  0
  9 29  1  1
 10 30  1  6
 12 31  1  0
 12 32  1  0
 13 33  1  0
 13 34  1  0
 15 35  1  6
 16 36  1  0
 16 37  1  0
 17 38  1  0
 17 39  1  0
 18 40  1  6
 19 41  1  0
 20 42  1  0
 20 43  1  0
 20 44  1  0
M  END
$$$$
