PDB_DB00188_71
     RDKit          3D

 53 54  0  0  0  0  0  0  0  0999 V2000
   59.2160 -156.4570   17.1160 N   0  0  0  0  0  0  0  0  0  0  0  0
   58.8760 -157.5080   16.3520 C   0  0  0  0  0  0  0  0  0  0  0  0
   59.6300 -158.6780   16.3870 C   0  0  0  0  0  0  0  0  0  0  0  0
   60.7360 -158.7700   17.2420 N   0  0  0  0  0  0  0  0  0  0  0  0
   61.0820 -157.6780   18.0450 C   0  0  0  0  0  0  0  0  0  0  0  0
   60.3180 -156.5190   17.9800 C   0  0  0  0  0  0  0  0  0  0  0  0
   57.7910 -157.4080   15.4890 C   0  0  0  0  0  0  0  0  0  0  0  0
   57.2120 -158.4080   15.0660 O   0  0  0  0  0  0  0  0  0  0  0  0
   57.4900 -156.1500   15.1380 N   0  0  0  0  0  0  0  0  0  0  0  0
   56.4430 -155.8310   14.1710 C   0  0  1  0  0  0  0  0  0  0  0  0
   55.7460 -154.5870   14.6550 C   0  0  0  0  0  0  0  0  0  0  0  0
   54.9280 -154.0830   13.6320 C   0  0  0  0  0  0  0  0  0  0  0  0
   53.8250 -154.8110   13.1830 C   0  0  0  0  0  0  0  0  0  0  0  0
   53.0080 -154.3030   12.1760 C   0  0  0  0  0  0  0  0  0  0  0  0
   53.2800 -153.0590   11.6160 C   0  0  0  0  0  0  0  0  0  0  0  0
   54.3740 -152.3250   12.0670 C   0  0  0  0  0  0  0  0  0  0  0  0
   55.1900 -152.8340   13.0720 C   0  0  0  0  0  0  0  0  0  0  0  0
   57.1900 -155.5840   12.8630 C   0  0  0  0  0  0  0  0  0  0  0  0
   58.1180 -154.7800   12.8390 O   0  0  0  0  0  0  0  0  0  0  0  0
   56.7980 -156.3160   11.8080 N   0  0  0  0  0  0  0  0  0  0  0  0
   57.4520 -156.1690   10.4940 C   0  0  1  0  0  0  0  0  0  0  0  0
   57.6310 -157.5050    9.7950 C   0  0  0  0  0  0  0  0  0  0  0  0
   58.2060 -158.5530   10.7670 C   0  0  0  0  0  0  0  0  0  0  0  0
   58.4270 -159.8570    9.9810 C   0  0  0  0  0  0  0  0  0  0  0  0
   59.5300 -158.0870   11.4020 C   0  0  0  0  0  0  0  0  0  0  0  0
   56.6030 -155.2650    9.5840 B   0  0  0  0  0  0  0  0  0  0  0  0
   55.2470 -155.7370    9.5640 O   0  0  0  0  0  0  0  0  0  0  0  0
   56.6440 -153.9120   10.0520 O   0  0  0  0  0  0  0  0  0  0  0  0
   59.3578 -159.5284   15.7446 H   0  0  0  0  0  0  0  0  0  0  0  0
   61.9486 -157.7361   18.7199 H   0  0  0  0  0  0  0  0  0  0  0  0
   60.5775 -155.6520   18.6053 H   0  0  0  0  0  0  0  0  0  0  0  0
   58.0183 -155.3771   15.5675 H   0  0  0  0  0  0  0  0  0  0  0  0
   55.6840 -156.6166   14.0418 H   0  0  0  0  0  0  0  0  0  0  0  0
   55.1286 -154.8300   15.5324 H   0  0  0  0  0  0  0  0  0  0  0  0
   56.4949 -153.8307   14.9328 H   0  0  0  0  0  0  0  0  0  0  0  0
   53.5997 -155.7918   13.6272 H   0  0  0  0  0  0  0  0  0  0  0  0
   52.1454 -154.8870   11.8225 H   0  0  0  0  0  0  0  0  0  0  0  0
   52.6343 -152.6573   10.8212 H   0  0  0  0  0  0  0  0  0  0  0  0
   54.5934 -151.3407   11.6277 H   0  0  0  0  0  0  0  0  0  0  0  0
   56.0489 -152.2460   13.4276 H   0  0  0  0  0  0  0  0  0  0  0  0
   56.0280 -156.9912   11.9179 H   0  0  0  0  0  0  0  0  0  0  0  0
   58.4426 -155.7266   10.6759 H   0  0  0  0  0  0  0  0  0  0  0  0
   56.6554 -157.8526    9.4244 H   0  0  0  0  0  0  0  0  0  0  0  0
   58.3323 -157.3758    8.9574 H   0  0  0  0  0  0  0  0  0  0  0  0
   57.4941 -158.7057   11.5916 H   0  0  0  0  0  0  0  0  0  0  0  0
   58.5682 -160.6902   10.6852 H   0  0  0  0  0  0  0  0  0  0  0  0
   57.5499 -160.0567    9.3479 H   0  0  0  0  0  0  0  0  0  0  0  0
   59.3209 -159.7565    9.3479 H   0  0  0  0  0  0  0  0  0  0  0  0
   59.4419 -158.1180   12.4980 H   0  0  0  0  0  0  0  0  0  0  0  0
   60.3449 -158.7523   11.0807 H   0  0  0  0  0  0  0  0  0  0  0  0
   59.7486 -157.0579   11.0807 H   0  0  0  0  0  0  0  0  0  0  0  0
   54.9231 -155.8497   10.4927 H   0  0  0  0  0  0  0  0  0  0  0  0
   56.6442 -153.9051   11.0420 H   0  0  0  0  0  0  0  0  0  0  0  0
  1  2  2  0
  2  3  1  0
  3  4  2  0
  4  5  1  0
  1  6  1  0
  5  6  2  0
  2  7  1  0
  7  8  2  0
  7  9  1  0
  9 10  1  0
 10 11  1  0
 11 12  1  0
 12 13  2  0
 13 14  1  0
 14 15  2  0
 15 16  1  0
 12 17  1  0
 16 17  2  0
 10 18  1  0
 18 19  2  0
 18 20  1  0
 20 21  1  0
 21 22  1  0
 22 23  1  0
 23 24  1  0
 23 25  1  0
 21 26  1  0
 26 27  1  0
 26 28  1  0
  3 29  1  0
  5 30  1  0
  6 31  1  0
  9 32  1  0
 10 33  1  6
 11 34  1  0
 11 35  1  0
 13 36  1  0
 14 37  1  0
 15 38  1  0
 16 39  1  0
 17 40  1  0
 20 41  1  0
 21 42  1  1
 22 43  1  0
 22 44  1  0
 23 45  1  0
 24 46  1  0
 24 47  1  0
 24 48  1  0
 25 49  1  0
 25 50  1  0
 25 51  1  0
 27 52  1  0
 28 53  1  0
M  END
$$$$
