PDB_DB00159_96
     RDKit          3D

 52 51  0  0  0  0  0  0  0  0999 V2000
   35.2730   12.1360   61.7350 C   0  0  0  0  0  0  0  0  0  0  0  0
   34.4850   13.0750   61.9770 O   0  0  0  0  0  0  0  0  0  0  0  0
   36.2310   11.8620   62.5240 O   0  0  0  0  0  0  0  0  0  0  0  0
   35.0620   11.3240   60.4380 C   0  0  0  0  0  0  0  0  0  0  0  0
   35.2530    9.8000   60.6270 C   0  0  0  0  0  0  0  0  0  0  0  0
   35.0240    9.1900   59.2230 C   0  0  0  0  0  0  0  0  0  0  0  0
   35.2220    7.6510   59.1200 C   0  0  0  0  0  0  0  0  0  0  0  0
   34.2240    6.7670   59.2710 C   0  0  0  0  0  0  0  0  0  0  0  0
   32.8570    7.2170   59.5780 C   0  0  0  0  0  0  0  0  0  0  0  0
   31.8960    6.9060   58.4600 C   0  0  0  0  0  0  0  0  0  0  0  0
   30.5870    7.0900   58.6680 C   0  0  0  0  0  0  0  0  0  0  0  0
   30.0590    7.6010   59.9920 C   0  0  0  0  0  0  0  0  0  0  0  0
   29.1350    8.7640   59.7240 C   0  0  0  0  0  0  0  0  0  0  0  0
   27.8580    8.7800   60.1850 C   0  0  0  0  0  0  0  0  0  0  0  0
   27.2020    7.6620   60.9890 C   0  0  0  0  0  0  0  0  0  0  0  0
   26.4500    8.2610   62.1380 C   0  0  0  0  0  0  0  0  0  0  0  0
   25.1970    8.0900   62.5490 C   0  0  0  0  0  0  0  0  0  0  0  0
   24.0940    7.2290   61.9490 C   0  0  0  0  0  0  0  0  0  0  0  0
   22.7550    7.9330   61.8760 C   0  0  0  0  0  0  0  0  0  0  0  0
   22.4130    9.0390   61.1600 C   0  0  0  0  0  0  0  0  0  0  0  0
   23.2550    9.9010   60.2500 C   0  0  0  0  0  0  0  0  0  0  0  0
   22.9110    9.4190   58.8640 C   0  0  0  0  0  0  0  0  0  0  0  0
   36.8454   11.1142   62.3157 H   0  0  0  0  0  0  0  0  0  0  0  0
   34.0389   11.5047   60.0764 H   0  0  0  0  0  0  0  0  0  0  0  0
   35.8235   11.6592   59.7185 H   0  0  0  0  0  0  0  0  0  0  0  0
   36.2700    9.5791   60.9832 H   0  0  0  0  0  0  0  0  0  0  0  0
   34.5604    9.3866   61.3749 H   0  0  0  0  0  0  0  0  0  0  0  0
   33.9924    9.4199   58.9180 H   0  0  0  0  0  0  0  0  0  0  0  0
   35.7897    9.6367   58.5717 H   0  0  0  0  0  0  0  0  0  0  0  0
   36.2319    7.2675   58.9127 H   0  0  0  0  0  0  0  0  0  0  0  0
   34.4304    5.6918   59.1639 H   0  0  0  0  0  0  0  0  0  0  0  0
   32.5136    6.7113   60.4925 H   0  0  0  0  0  0  0  0  0  0  0  0
   32.8806    8.3086   59.7120 H   0  0  0  0  0  0  0  0  0  0  0  0
   32.2633    6.5350   57.4918 H   0  0  0  0  0  0  0  0  0  0  0  0
   29.8777    6.8647   57.8580 H   0  0  0  0  0  0  0  0  0  0  0  0
   29.5072    6.7997   60.5053 H   0  0  0  0  0  0  0  0  0  0  0  0
   30.8943    7.9235   60.6310 H   0  0  0  0  0  0  0  0  0  0  0  0
   29.5054    9.6199   59.1407 H   0  0  0  0  0  0  0  0  0  0  0  0
   27.2491    9.6684   59.9613 H   0  0  0  0  0  0  0  0  0  0  0  0
   26.5068    7.1039   60.3446 H   0  0  0  0  0  0  0  0  0  0  0  0
   27.9738    6.9762   61.3684 H   0  0  0  0  0  0  0  0  0  0  0  0
   27.0362    8.9645   62.7475 H   0  0  0  0  0  0  0  0  0  0  0  0
   24.9171    8.6514   63.4526 H   0  0  0  0  0  0  0  0  0  0  0  0
   24.3922    6.9400   60.9304 H   0  0  0  0  0  0  0  0  0  0  0  0
   23.9674    6.3572   62.6078 H   0  0  0  0  0  0  0  0  0  0  0  0
   21.9510    7.4913   62.4830 H   0  0  0  0  0  0  0  0  0  0  0  0
   21.3634    9.3526   61.2595 H   0  0  0  0  0  0  0  0  0  0  0  0
   22.9962   10.9635   60.3692 H   0  0  0  0  0  0  0  0  0  0  0  0
   24.3300    9.8218   60.4695 H   0  0  0  0  0  0  0  0  0  0  0  0
   22.2733    8.5255   58.9343 H   0  0  0  0  0  0  0  0  0  0  0  0
   22.3733   10.2116   58.3231 H   0  0  0  0  0  0  0  0  0  0  0  0
   23.8354    9.1681   58.3231 H   0  0  0  0  0  0  0  0  0  0  0  0
  1  2  2  0
  1  3  1  0
  1  4  1  0
  4  5  1  0
  5  6  1  0
  6  7  1  0
  7  8  2  0
  8  9  1  0
  9 10  1  0
 10 11  2  0
 11 12  1  0
 12 13  1  0
 13 14  2  0
 14 15  1  0
 15 16  1  0
 16 17  2  0
 17 18  1  0
 18 19  1  0
 19 20  2  0
 20 21  1  0
 21 22  1  0
  3 23  1  0
  4 24  1  0
  4 25  1  0
  5 26  1  0
  5 27  1  0
  6 28  1  0
  6 29  1  0
  7 30  1  0
  8 31  1  0
  9 32  1  0
  9 33  1  0
 10 34  1  0
 11 35  1  0
 12 36  1  0
 12 37  1  0
 13 38  1  0
 14 39  1  0
 15 40  1  0
 15 41  1  0
 16 42  1  0
 17 43  1  0
 18 44  1  0
 18 45  1  0
 19 46  1  0
 20 47  1  0
 21 48  1  0
 21 49  1  0
 22 50  1  0
 22 51  1  0
 22 52  1  0
M  END
$$$$
