PDB_DB00755_94
     RDKit          3D

248248  0  0  0  0  0  0  0  0999 V2000
   61.5170   65.2820  113.6760 C   0  0  2  0  0  0  0  0  0  0  0  0
   62.8660   66.0640  113.4520 C   0  0  0  0  0  0  0  0  0  0  0  0
   63.3000   67.0380  114.5180 C   0  0  0  0  0  0  0  0  0  0  0  0
   62.2000   67.9810  114.9200 C   0  0  0  0  0  0  0  0  0  0  0  0
   60.9060   67.2390  115.3200 C   0  0  0  0  0  0  0  0  0  0  0  0
   60.5730   65.9990  114.7730 C   0  0  0  0  0  0  0  0  0  0  0  0
   59.3410   65.2110  115.1160 C   0  0  0  0  0  0  0  0  0  0  0  0
   58.8880   64.8140  116.3190 C   0  0  0  0  0  0  0  0  0  0  0  0
   57.6720   64.0520  116.6140 C   0  0  0  0  0  0  0  0  0  0  0  0
   57.3680   63.7600  117.9270 C   0  0  0  0  0  0  0  0  0  0  0  0
   58.1660   64.1240  119.1020 C   0  0  0  0  0  0  0  0  0  0  0  0
   57.7020   63.8240  120.3290 C   0  0  0  0  0  0  0  0  0  0  0  0
   58.3950   64.1520  121.5740 C   0  0  0  0  0  0  0  0  0  0  0  0
   57.7640   63.8310  122.7450 C   0  0  0  0  0  0  0  0  0  0  0  0
   58.1560   64.0650  124.1650 C   0  0  0  0  0  0  0  0  0  0  0  0
   61.9020   63.8510  114.1070 C   0  0  0  0  0  0  0  0  0  0  0  0
   60.7570   65.2230  112.3140 C   0  0  0  0  0  0  0  0  0  0  0  0
   60.1300   68.0730  116.3560 C   0  0  0  0  0  0  0  0  0  0  0  0
   56.7330   63.6060  115.4680 C   0  0  0  0  0  0  0  0  0  0  0  0
   59.7650   64.8710  121.5170 C   0  0  0  0  0  0  0  0  0  0  0  0
   57.2330   64.1950  125.0150 O   0  0  0  0  0  0  0  0  0  0  0  0
   59.3680   64.1680  124.4950 O   0  0  0  0  0  0  0  0  0  0  0  0
   35.2250    8.5040   52.6380 C   0  0  2  0  0  0  0  0  0  0  0  0
   34.6050    7.5470   51.5580 C   0  0  0  0  0  0  0  0  0  0  0  0
   34.2330    6.1510   51.9770 C   0  0  0  0  0  0  0  0  0  0  0  0
   35.3050    5.4760   52.7770 C   0  0  0  0  0  0  0  0  0  0  0  0
   35.7810    6.3160   53.9570 C   0  0  0  0  0  0  0  0  0  0  0  0
   35.7500    7.7110   53.9240 C   0  0  0  0  0  0  0  0  0  0  0  0
   36.1970    8.6050   55.0380 C   0  0  0  0  0  0  0  0  0  0  0  0
   35.8070    8.5680   56.3220 C   0  0  0  0  0  0  0  0  0  0  0  0
   36.2190    9.3970   57.4460 C   0  0  0  0  0  0  0  0  0  0  0  0
   35.6750    9.1340   58.6710 C   0  0  0  0  0  0  0  0  0  0  0  0
   34.6800    8.1050   58.9690 C   0  0  0  0  0  0  0  0  0  0  0  0
   34.3020    7.9350   60.2490 C   0  0  0  0  0  0  0  0  0  0  0  0
   33.3170    6.9550   60.7260 C   0  0  0  0  0  0  0  0  0  0  0  0
   33.1120    6.8860   62.0800 C   0  0  0  0  0  0  0  0  0  0  0  0
   32.2430    5.9830   62.8630 C   0  0  0  0  0  0  0  0  0  0  0  0
   34.1280    9.5200   52.9990 C   0  0  0  0  0  0  0  0  0  0  0  0
   36.4290    9.2510   51.9950 C   0  0  0  0  0  0  0  0  0  0  0  0
   36.2540    5.3790   55.0790 C   0  0  0  0  0  0  0  0  0  0  0  0
   37.2570   10.5250   57.2580 C   0  0  0  0  0  0  0  0  0  0  0  0
   32.5950    6.0280   59.7150 C   0  0  0  0  0  0  0  0  0  0  0  0
   32.6250    5.6260   63.9970 O   0  0  0  0  0  0  0  0  0  0  0  0
   31.1790    5.5590   62.3760 O   0  0  0  0  0  0  0  0  0  0  0  0
   68.4000   59.7750  100.9560 C   0  0  2  0  0  0  0  0  0  0  0  0
   69.3740   59.4990  102.1500 C   0  0  0  0  0  0  0  0  0  0  0  0
   70.8130   59.2960  101.7900 C   0  0  0  0  0  0  0  0  0  0  0  0
   71.0010   58.1610  100.8280 C   0  0  0  0  0  0  0  0  0  0  0  0
   69.9830   58.1520   99.6680 C   0  0  0  0  0  0  0  0  0  0  0  0
   68.7880   58.8790   99.7040 C   0  0  0  0  0  0  0  0  0  0  0  0
   67.7650   58.9160   98.6150 C   0  0  0  0  0  0  0  0  0  0  0  0
   67.9610   59.1850   97.3260 C   0  0  0  0  0  0  0  0  0  0  0  0
   66.9950   59.2240   96.2500 C   0  0  0  0  0  0  0  0  0  0  0  0
   67.4380   59.5070   94.9890 C   0  0  0  0  0  0  0  0  0  0  0  0
   68.8190   59.7960   94.5910 C   0  0  0  0  0  0  0  0  0  0  0  0
   69.0770   59.9990   93.2790 C   0  0  0  0  0  0  0  0  0  0  0  0
   70.3980   60.2780   92.7140 C   0  0  0  0  0  0  0  0  0  0  0  0
   70.4780   60.4140   91.3590 C   0  0  0  0  0  0  0  0  0  0  0  0
   71.6420   60.6560   90.4820 C   0  0  0  0  0  0  0  0  0  0  0  0
   68.5180   61.2700  100.6040 C   0  0  0  0  0  0  0  0  0  0  0  0
   66.9300   59.4780  101.4020 C   0  0  0  0  0  0  0  0  0  0  0  0
   70.5160   57.2500   98.5500 C   0  0  0  0  0  0  0  0  0  0  0  0
   65.5080   58.9310   96.5170 C   0  0  0  0  0  0  0  0  0  0  0  0
   71.6290   60.3720   93.6480 C   0  0  0  0  0  0  0  0  0  0  0  0
   71.5880   60.2140   89.3210 O   0  0  0  0  0  0  0  0  0  0  0  0
   72.6600   61.2650   90.9070 O   0  0  0  0  0  0  0  0  0  0  0  0
   35.1460   17.7620   40.3220 C   0  0  2  0  0  0  0  0  0  0  0  0
   33.7280   17.2720   40.7670 C   0  0  0  0  0  0  0  0  0  0  0  0
   32.6600   17.2590   39.7050 C   0  0  0  0  0  0  0  0  0  0  0  0
   32.4830   18.5890   39.0470 C   0  0  0  0  0  0  0  0  0  0  0  0
   33.8020   19.3090   38.7120 C   0  0  0  0  0  0  0  0  0  0  0  0
   35.0250   18.9560   39.2750 C   0  0  0  0  0  0  0  0  0  0  0  0
   36.3440   19.6110   38.9890 C   0  0  0  0  0  0  0  0  0  0  0  0
   36.9180   19.7980   37.7990 C   0  0  0  0  0  0  0  0  0  0  0  0
   38.1890   20.4160   37.4750 C   0  0  0  0  0  0  0  0  0  0  0  0
   38.5460   20.4990   36.1610 C   0  0  0  0  0  0  0  0  0  0  0  0
   37.7650   20.0010   35.0270 C   0  0  0  0  0  0  0  0  0  0  0  0
   38.2270   20.2040   33.7820 C   0  0  0  0  0  0  0  0  0  0  0  0
   37.5430   19.7660   32.5730 C   0  0  0  0  0  0  0  0  0  0  0  0
   38.1180   20.0910   31.3810 C   0  0  0  0  0  0  0  0  0  0  0  0
   37.6770   19.8460   29.9860 C   0  0  0  0  0  0  0  0  0  0  0  0
   35.8760   16.5620   39.6780 C   0  0  0  0  0  0  0  0  0  0  0  0
   35.9380   18.2260   41.5860 C   0  0  0  0  0  0  0  0  0  0  0  0
   33.5100   20.4130   37.7080 C   0  0  0  0  0  0  0  0  0  0  0  0
   39.1050   20.9700   38.5830 C   0  0  0  0  0  0  0  0  0  0  0  0
   36.2030   18.9950   32.6950 C   0  0  0  0  0  0  0  0  0  0  0  0
   38.0570   20.6510   29.0990 O   0  0  0  0  0  0  0  0  0  0  0  0
   36.9220   18.8820   29.7060 O   0  0  0  0  0  0  0  0  0  0  0  0
   63.6653   65.3156  113.3465 H   0  0  0  0  0  0  0  0  0  0  0  0
   62.6800   66.6885  112.5657 H   0  0  0  0  0  0  0  0  0  0  0  0
   63.6198   66.4709  115.4046 H   0  0  0  0  0  0  0  0  0  0  0  0
   64.1220   67.6408  114.1047 H   0  0  0  0  0  0  0  0  0  0  0  0
   62.5433   68.5796  115.7766 H   0  0  0  0  0  0  0  0  0  0  0  0
   61.9682   68.6158  114.0520 H   0  0  0  0  0  0  0  0  0  0  0  0
   60.3651   67.7434  114.5058 H   0  0  0  0  0  0  0  0  0  0  0  0
   61.1266   65.4949  115.5789 H   0  0  0  0  0  0  0  0  0  0  0  0
   58.5145   65.8037  114.6970 H   0  0  0  0  0  0  0  0  0  0  0  0
   59.6828   64.2307  114.7525 H   0  0  0  0  0  0  0  0  0  0  0  0
   59.7053   64.2098  116.7398 H   0  0  0  0  0  0  0  0  0  0  0  0
   58.5726   65.7922  116.7110 H   0  0  0  0  0  0  0  0  0  0  0  0
   58.2412   63.1139  116.5372 H   0  0  0  0  0  0  0  0  0  0  0  0
   56.3795   64.2105  118.1002 H   0  0  0  0  0  0  0  0  0  0  0  0
   57.5355   62.6729  117.9187 H   0  0  0  0  0  0  0  0  0  0  0  0
   59.1405   63.6248  118.9959 H   0  0  0  0  0  0  0  0  0  0  0  0
   58.1698   65.2239  119.0853 H   0  0  0  0  0  0  0  0  0  0  0  0
   56.7172   64.3089  120.4007 H   0  0  0  0  0  0  0  0  0  0  0  0
   57.7964   62.7281  120.3230 H   0  0  0  0  0  0  0  0  0  0  0  0
   57.9104   65.1395  121.5836 H   0  0  0  0  0  0  0  0  0  0  0  0
   56.7833   64.3216  122.6585 H   0  0  0  0  0  0  0  0  0  0  0  0
   57.9798   62.7526  122.7223 H   0  0  0  0  0  0  0  0  0  0  0  0
   58.1466   65.1507  123.9887 H   0  0  0  0  0  0  0  0  0  0  0  0
   61.9182   63.7907  115.2052 H   0  0  0  0  0  0  0  0  0  0  0  0
   61.1638   63.1378  113.7115 H   0  0  0  0  0  0  0  0  0  0  0  0
   62.8984   63.6045  113.7115 H   0  0  0  0  0  0  0  0  0  0  0  0
   59.6762   65.1391  112.5005 H   0  0  0  0  0  0  0  0  0  0  0  0
   60.9601   66.1396  111.7408 H   0  0  0  0  0  0  0  0  0  0  0  0
   61.0991   64.3487  111.7408 H   0  0  0  0  0  0  0  0  0  0  0  0
   60.4205   67.7608  117.3700 H   0  0  0  0  0  0  0  0  0  0  0  0
   60.3651   69.1388  116.2191 H   0  0  0  0  0  0  0  0  0  0  0  0
   59.0500   67.9152  116.2191 H   0  0  0  0  0  0  0  0  0  0  0  0
   55.8166   63.1707  115.8932 H   0  0  0  0  0  0  0  0  0  0  0  0
   56.4721   64.4764  114.8480 H   0  0  0  0  0  0  0  0  0  0  0  0
   57.2427   62.8538  114.8480 H   0  0  0  0  0  0  0  0  0  0  0  0
   60.1233   65.0590  122.5399 H   0  0  0  0  0  0  0  0  0  0  0  0
   60.4899   64.2371  120.9853 H   0  0  0  0  0  0  0  0  0  0  0  0
   59.6552   65.8277  120.9853 H   0  0  0  0  0  0  0  0  0  0  0  0
   57.6143   64.1413  125.9270 H   0  0  0  0  0  0  0  0  0  0  0  0
   59.4418   64.1743  125.4822 H   0  0  0  0  0  0  0  0  0  0  0  0
   33.6911    8.0291   51.1808 H   0  0  0  0  0  0  0  0  0  0  0  0
   35.4110    7.4060   50.8229 H   0  0  0  0  0  0  0  0  0  0  0  0
   33.3186    6.1996   52.5864 H   0  0  0  0  0  0  0  0  0  0  0  0
   34.0842    5.5605   51.0609 H   0  0  0  0  0  0  0  0  0  0  0  0
   34.9100    4.5237   53.1605 H   0  0  0  0  0  0  0  0  0  0  0  0
   36.1672    5.3225   52.1113 H   0  0  0  0  0  0  0  0  0  0  0  0
   36.7979    6.3287   53.5378 H   0  0  0  0  0  0  0  0  0  0  0  0
   34.7289    7.6980   54.3328 H   0  0  0  0  0  0  0  0  0  0  0  0
   37.2899    8.4854   55.0728 H   0  0  0  0  0  0  0  0  0  0  0  0
   35.6871    9.5299   54.7306 H   0  0  0  0  0  0  0  0  0  0  0  0
   34.7159    8.6997   56.2759 H   0  0  0  0  0  0  0  0  0  0  0  0
   36.3421    7.6516   56.6116 H   0  0  0  0  0  0  0  0  0  0  0  0
   35.3975   10.0963   57.2313 H   0  0  0  0  0  0  0  0  0  0  0  0
   36.5309    8.9040   59.3226 H   0  0  0  0  0  0  0  0  0  0  0  0
   35.0554   10.0342   58.7968 H   0  0  0  0  0  0  0  0  0  0  0  0
   33.7759    8.3494   58.3921 H   0  0  0  0  0  0  0  0  0  0  0  0
   35.1788    7.1607   58.7055 H   0  0  0  0  0  0  0  0  0  0  0  0
   35.2278    7.7069   60.7974 H   0  0  0  0  0  0  0  0  0  0  0  0
   33.7391    8.8665   60.4085 H   0  0  0  0  0  0  0  0  0  0  0  0
   34.1103    6.1973   60.8075 H   0  0  0  0  0  0  0  0  0  0  0  0
   34.1167    6.7194   62.4958 H   0  0  0  0  0  0  0  0  0  0  0  0
   32.5045    7.7973   62.1819 H   0  0  0  0  0  0  0  0  0  0  0  0
   32.7476    5.1123   62.4189 H   0  0  0  0  0  0  0  0  0  0  0  0
   34.0451    9.5968   54.0932 H   0  0  0  0  0  0  0  0  0  0  0  0
   34.3875   10.5038   52.5810 H   0  0  0  0  0  0  0  0  0  0  0  0
   33.1669    9.1859   52.5810 H   0  0  0  0  0  0  0  0  0  0  0  0
   37.0769    9.6530   52.7879 H   0  0  0  0  0  0  0  0  0  0  0  0
   37.0041    8.5509   51.3713 H   0  0  0  0  0  0  0  0  0  0  0  0
   36.0571   10.0772   51.3713 H   0  0  0  0  0  0  0  0  0  0  0  0
   36.0256    5.8315   56.0553 H   0  0  0  0  0  0  0  0  0  0  0  0
   35.7358    4.4126   54.9925 H   0  0  0  0  0  0  0  0  0  0  0  0
   37.3393    5.2221   54.9925 H   0  0  0  0  0  0  0  0  0  0  0  0
   37.5889   10.8857   58.2427 H   0  0  0  0  0  0  0  0  0  0  0  0
   38.1216   10.1382   56.6987 H   0  0  0  0  0  0  0  0  0  0  0  0
   36.7998   11.3545   56.6987 H   0  0  0  0  0  0  0  0  0  0  0  0
   32.0086    5.2751   60.2620 H   0  0  0  0  0  0  0  0  0  0  0  0
   31.9234    6.6274   59.0828 H   0  0  0  0  0  0  0  0  0  0  0  0
   33.3406    5.5237   59.0828 H   0  0  0  0  0  0  0  0  0  0  0  0
   32.1067    6.1104   64.6875 H   0  0  0  0  0  0  0  0  0  0  0  0
   30.5576    5.3114   63.1058 H   0  0  0  0  0  0  0  0  0  0  0  0
   69.3166   60.3567  102.8363 H   0  0  0  0  0  0  0  0  0  0  0  0
   69.0414   58.5473  102.5900 H   0  0  0  0  0  0  0  0  0  0  0  0
   71.1965   60.2183  101.3292 H   0  0  0  0  0  0  0  0  0  0  0  0
   71.3608   59.0517  102.7121 H   0  0  0  0  0  0  0  0  0  0  0  0
   72.0123   58.2321  100.4012 H   0  0  0  0  0  0  0  0  0  0  0  0
   70.8478   57.2314  101.3957 H   0  0  0  0  0  0  0  0  0  0  0  0
   69.4725   57.2903  100.1227 H   0  0  0  0  0  0  0  0  0  0  0  0
   69.2977   59.7395   99.2461 H   0  0  0  0  0  0  0  0  0  0  0  0
   67.3068   57.9160   98.6264 H   0  0  0  0  0  0  0  0  0  0  0  0
   67.2413   59.8391   98.9042 H   0  0  0  0  0  0  0  0  0  0  0  0
   68.4173   60.1859   97.3211 H   0  0  0  0  0  0  0  0  0  0  0  0
   68.4698   58.2507   97.0463 H   0  0  0  0  0  0  0  0  0  0  0  0
   66.8334   60.2964   96.4339 H   0  0  0  0  0  0  0  0  0  0  0  0
   67.1418   58.6393   94.3813 H   0  0  0  0  0  0  0  0  0  0  0  0
   67.0010   60.5088   94.8648 H   0  0  0  0  0  0  0  0  0  0  0  0
   69.1302   60.7037   95.1288 H   0  0  0  0  0  0  0  0  0  0  0  0
   69.3717   58.8777   94.8385 H   0  0  0  0  0  0  0  0  0  0  0  0
   68.7259   59.0905   92.7677 H   0  0  0  0  0  0  0  0  0  0  0  0
   68.5896   60.9739   93.1310 H   0  0  0  0  0  0  0  0  0  0  0  0
   70.5844   59.1983   92.6166 H   0  0  0  0  0  0  0  0  0  0  0  0
   70.0454   59.4792   90.9730 H   0  0  0  0  0  0  0  0  0  0  0  0
   70.0462   61.4238   91.2963 H   0  0  0  0  0  0  0  0  0  0  0  0
   72.0934   59.7117   90.8205 H   0  0  0  0  0  0  0  0  0  0  0  0
   68.5647   61.8621  101.5299 H   0  0  0  0  0  0  0  0  0  0  0  0
   69.4321   61.4371  100.0154 H   0  0  0  0  0  0  0  0  0  0  0  0
   67.6414   61.5784  100.0154 H   0  0  0  0  0  0  0  0  0  0  0  0
   66.8753   59.4669  102.5006 H   0  0  0  0  0  0  0  0  0  0  0  0
   66.2628   60.2595  101.0095 H   0  0  0  0  0  0  0  0  0  0  0  0
   66.6185   58.4988  101.0095 H   0  0  0  0  0  0  0  0  0  0  0  0
   71.0285   56.3827   98.9916 H   0  0  0  0  0  0  0  0  0  0  0  0
   69.6778   56.9030   97.9279 H   0  0  0  0  0  0  0  0  0  0  0  0
   71.2243   57.8168   97.9279 H   0  0  0  0  0  0  0  0  0  0  0  0
   65.3302   58.8960   97.6020 H   0  0  0  0  0  0  0  0  0  0  0  0
   64.8918   59.7250   96.0699 H   0  0  0  0  0  0  0  0  0  0  0  0
   65.2391   57.9626   96.0699 H   0  0  0  0  0  0  0  0  0  0  0  0
   71.2967   60.3466   94.6963 H   0  0  0  0  0  0  0  0  0  0  0  0
   72.3009   59.5225   93.4557 H   0  0  0  0  0  0  0  0  0  0  0  0
   72.1641   61.3136   93.4557 H   0  0  0  0  0  0  0  0  0  0  0  0
   71.4680   59.2316   89.3471 H   0  0  0  0  0  0  0  0  0  0  0  0
   72.6564   61.2629   91.8970 H   0  0  0  0  0  0  0  0  0  0  0  0
   33.8331   16.2456   41.1485 H   0  0  0  0  0  0  0  0  0  0  0  0
   33.3875   18.0034   41.5148 H   0  0  0  0  0  0  0  0  0  0  0  0
   32.9362   16.5209   38.9375 H   0  0  0  0  0  0  0  0  0  0  0  0
   31.7089   17.0018   40.1942 H   0  0  0  0  0  0  0  0  0  0  0  0
   31.9247   18.4391   38.1111 H   0  0  0  0  0  0  0  0  0  0  0  0
   31.9482   19.2279   39.7653 H   0  0  0  0  0  0  0  0  0  0  0  0
   33.6261   20.0151   39.5369 H   0  0  0  0  0  0  0  0  0  0  0  0
   35.2012   18.2503   38.4498 H   0  0  0  0  0  0  0  0  0  0  0  0
   36.2559   20.6194   39.4196 H   0  0  0  0  0  0  0  0  0  0  0  0
   37.0115   18.8287   39.3796 H   0  0  0  0  0  0  0  0  0  0  0  0
   36.9917   18.7870   37.3719 H   0  0  0  0  0  0  0  0  0  0  0  0
   36.2627   20.6060   37.4415 H   0  0  0  0  0  0  0  0  0  0  0  0
   38.6839   19.4363   37.5476 H   0  0  0  0  0  0  0  0  0  0  0  0
   38.6855   21.5727   35.9666 H   0  0  0  0  0  0  0  0  0  0  0  0
   39.3797   19.7815   36.1460 H   0  0  0  0  0  0  0  0  0  0  0  0
   37.6605   18.9140   35.1594 H   0  0  0  0  0  0  0  0  0  0  0  0
   36.8371   20.5905   35.0649 H   0  0  0  0  0  0  0  0  0  0  0  0
   38.3403   21.2935   33.6811 H   0  0  0  0  0  0  0  0  0  0  0  0
   39.1036   19.5395   33.7759 H   0  0  0  0  0  0  0  0  0  0  0  0
   36.9731   20.7067   32.5546 H   0  0  0  0  0  0  0  0  0  0  0  0
   38.2304   21.1840   31.4329 H   0  0  0  0  0  0  0  0  0  0  0  0
   38.9128   19.3310   31.4049 H   0  0  0  0  0  0  0  0  0  0  0  0
   36.7820   20.4612   30.1609 H   0  0  0  0  0  0  0  0  0  0  0  0
   36.2739   15.9080   40.4679 H   0  0  0  0  0  0  0  0  0  0  0  0
   35.1696   15.9951   39.0538 H   0  0  0  0  0  0  0  0  0  0  0  0
   36.7042   16.9287   39.0538 H   0  0  0  0  0  0  0  0  0  0  0  0
   35.3998   17.9107   42.4921 H   0  0  0  0  0  0  0  0  0  0  0  0
   36.9399   17.7721   41.5780 H   0  0  0  0  0  0  0  0  0  0  0  0
   36.0319   19.3220   41.5780 H   0  0  0  0  0  0  0  0  0  0  0  0
   33.2645   21.3412   38.2448 H   0  0  0  0  0  0  0  0  0  0  0  0
   34.3954   20.5779   37.0765 H   0  0  0  0  0  0  0  0  0  0  0  0
   32.6588   20.1186   37.0765 H   0  0  0  0  0  0  0  0  0  0  0  0
   38.6848   20.7159   39.5673 H   0  0  0  0  0  0  0  0  0  0  0  0
   40.1069   20.5263   38.4864 H   0  0  0  0  0  0  0  0  0  0  0  0
   39.1773   22.0634   38.4864 H   0  0  0  0  0  0  0  0  0  0  0  0
   35.9569   18.8534   33.7577 H   0  0  0  0  0  0  0  0  0  0  0  0
   35.4029   19.5708   32.2069 H   0  0  0  0  0  0  0  0  0  0  0  0
   36.2987   18.0139   32.2069 H   0  0  0  0  0  0  0  0  0  0  0  0
   38.4380   21.4582   29.5273 H   0  0  0  0  0  0  0  0  0  0  0  0
   36.5954   18.4649   30.5423 H   0  0  0  0  0  0  0  0  0  0  0  0
  1  2  1  0
  2  3  1  0
  3  4  1  0
  4  5  1  0
  1  6  1  0
  5  6  1  0
  6  7  1  0
  7  8  1  0
  8  9  1  0
  9 10  1  0
 10 11  1  0
 11 12  1  0
 12 13  1  0
 13 14  1  0
 14 15  1  0
  1 16  1  1
  1 17  1  0
  5 18  1  0
  9 19  1  0
 13 20  1  0
 15 21  1  0
 15 22  1  0
 23 24  1  0
 24 25  1  0
 25 26  1  0
 26 27  1  0
 23 28  1  0
 27 28  1  0
 28 29  1  0
 29 30  1  0
 30 31  1  0
 31 32  1  0
 32 33  1  0
 33 34  1  0
 34 35  1  0
 35 36  1  0
 36 37  1  0
 23 38  1  1
 23 39  1  0
 27 40  1  0
 31 41  1  0
 35 42  1  0
 37 43  1  0
 37 44  1  0
 45 46  1  0
 46 47  1  0
 47 48  1  0
 48 49  1  0
 45 50  1  0
 49 50  1  0
 50 51  1  0
 51 52  1  0
 52 53  1  0
 53 54  1  0
 54 55  1  0
 55 56  1  0
 56 57  1  0
 57 58  1  0
 58 59  1  0
 45 60  1  6
 45 61  1  0
 49 62  1  0
 53 63  1  0
 57 64  1  0
 59 65  1  0
 59 66  1  0
 67 68  1  0
 68 69  1  0
 69 70  1  0
 70 71  1  0
 67 72  1  0
 71 72  1  0
 72 73  1  0
 73 74  1  0
 74 75  1  0
 75 76  1  0
 76 77  1  0
 77 78  1  0
 78 79  1  0
 79 80  1  0
 80 81  1  0
 67 82  1  6
 67 83  1  0
 71 84  1  0
 75 85  1  0
 79 86  1  0
 81 87  1  0
 81 88  1  0
  2 89  1  0
  2 90  1  0
  3 91  1  0
  3 92  1  0
  4 93  1  0
  4 94  1  0
  5 95  1  0
  6 96  1  0
  7 97  1  0
  7 98  1  0
  8 99  1  0
  8100  1  0
  9101  1  0
 10102  1  0
 10103  1  0
 11104  1  0
 11105  1  0
 12106  1  0
 12107  1  0
 13108  1  0
 14109  1  0
 14110  1  0
 15111  1  0
 16112  1  0
 16113  1  0
 16114  1  0
 17115  1  0
 17116  1  0
 17117  1  0
 18118  1  0
 18119  1  0
 18120  1  0
 19121  1  0
 19122  1  0
 19123  1  0
 20124  1  0
 20125  1  0
 20126  1  0
 21127  1  0
 22128  1  0
 24129  1  0
 24130  1  0
 25131  1  0
 25132  1  0
 26133  1  0
 26134  1  0
 27135  1  0
 28136  1  0
 29137  1  0
 29138  1  0
 30139  1  0
 30140  1  0
 31141  1  0
 32142  1  0
 32143  1  0
 33144  1  0
 33145  1  0
 34146  1  0
 34147  1  0
 35148  1  0
 36149  1  0
 36150  1  0
 37151  1  0
 38152  1  0
 38153  1  0
 38154  1  0
 39155  1  0
 39156  1  0
 39157  1  0
 40158  1  0
 40159  1  0
 40160  1  0
 41161  1  0
 41162  1  0
 41163  1  0
 42164  1  0
 42165  1  0
 42166  1  0
 43167  1  0
 44168  1  0
 46169  1  0
 46170  1  0
 47171  1  0
 47172  1  0
 48173  1  0
 48174  1  0
 49175  1  0
 50176  1  0
 51177  1  0
 51178  1  0
 52179  1  0
 52180  1  0
 53181  1  0
 54182  1  0
 54183  1  0
 55184  1  0
 55185  1  0
 56186  1  0
 56187  1  0
 57188  1  0
 58189  1  0
 58190  1  0
 59191  1  0
 60192  1  0
 60193  1  0
 60194  1  0
 61195  1  0
 61196  1  0
 61197  1  0
 62198  1  0
 62199  1  0
 62200  1  0
 63201  1  0
 63202  1  0
 63203  1  0
 64204  1  0
 64205  1  0
 64206  1  0
 65207  1  0
 66208  1  0
 68209  1  0
 68210  1  0
 69211  1  0
 69212  1  0
 70213  1  0
 70214  1  0
 71215  1  0
 72216  1  0
 73217  1  0
 73218  1  0
 74219  1  0
 74220  1  0
 75221  1  0
 76222  1  0
 76223  1  0
 77224  1  0
 77225  1  0
 78226  1  0
 78227  1  0
 79228  1  0
 80229  1  0
 80230  1  0
 81231  1  0
 82232  1  0
 82233  1  0
 82234  1  0
 83235  1  0
 83236  1  0
 83237  1  0
 84238  1  0
 84239  1  0
 84240  1  0
 85241  1  0
 85242  1  0
 85243  1  0
 86244  1  0
 86245  1  0
 86246  1  0
 87247  1  0
 88248  1  0
M  END
>  <PDBID>  (1) 
2ACL

>  <PDB ID>  (1) 
2ACL

>  <Generic Name>  (1) 
Tretinoin

>  <Brand Name>  (1) 
Atralin#Avita#Biacna Topical Gel#Clindamycin Phosphate and Tretinoin#Dr. Throwers Hydrotet#Dr. Throwers Pbc No. 1#Obagi#Refissa#Rejuva-A#Renova#Retin-A#Retin-A Micro#Retisol-A#Solagé#Stie Vaa Sol 0.05%#Stieva-A Cream#Stieva-A Gel#Stieva-A Solution#Stievaa Gel 0.01%#Stievamycin Forte#Stievamycin Mild#Stievamycin Regular#Tretin.x#Tretinoin#Tretinoin Cream#Tretinoin Gel#Tretinoin Gel Microsphere#Tretinx#Tri-luma#Veltin#Vesanoid#Vitamin A Acid 0.01% Cream#Vitamin A Acid 0.01% Gel#Vitamin A Acid 0.025% Cream#Vitamin A Acid 0.025% Gel#Vitamin A Acid 0.05% Cream#Vitamin A Acid 0.05% Gel#Vitamin A Acid 0.1% Cream#Vitinoin - Crm 0.025%#Vitinoin - Crm 0.05%#Vitinoin - Crm 0.1%#Vitinoin Gel - 0.025%#Ziana#Aberel#Aberela#Airol#Dermairol#Eudyna#Kétrel#Retisol-A#Sotret#Stieva-A#Vitinoin

>  <DrugBank ID>  (1) 
DB00755

>  <ATC Codes>  (1) 
L01XX14#D10AD01#D10AD51

>  <Ligand ID>  (1) 
3KV,REA

>  <Target Name>  (1) 
Retinoic acid receptor RXR-gamma

>  <UniProt ID>  (1) 
P48443

>  <PDB ID.1>  (1) 
2ACL

>  <Seq. Identity>  (1) 
87%

$$$$
