PDB_DB08828_98
     RDKit          3D

 41 43  0  0  0  0  0  0  0  0999 V2000
   -7.9120   15.1810  -70.3760 Cl  0  0  0  0  0  0  0  0  0  0  0  0
   -6.6270   15.3280  -71.5300 C   0  0  0  0  0  0  0  0  0  0  0  0
   -6.9000   15.0240  -72.8560 C   0  0  0  0  0  0  0  0  0  0  0  0
   -5.9070   15.1420  -73.8120 C   0  0  0  0  0  0  0  0  0  0  0  0
   -5.3490   15.7600  -71.1360 C   0  0  0  0  0  0  0  0  0  0  0  0
   -5.0300   16.1030  -69.7260 C   0  0  0  0  0  0  0  0  0  0  0  0
   -4.8790   17.4150  -69.4530 N   0  0  0  0  0  0  0  0  0  0  0  0
   -4.5240   17.7560  -68.2020 C   0  0  0  0  0  0  0  0  0  0  0  0
   -4.3150   16.8400  -67.1880 C   0  0  0  0  0  0  0  0  0  0  0  0
   -4.4810   15.5040  -67.4790 C   0  0  0  0  0  0  0  0  0  0  0  0
   -4.8420   15.1200  -68.7580 C   0  0  0  0  0  0  0  0  0  0  0  0
   -4.3610   15.8680  -72.1160 C   0  0  0  0  0  0  0  0  0  0  0  0
   -4.6300   15.5580  -73.4460 C   0  0  0  0  0  0  0  0  0  0  0  0
   -3.5880   15.6120  -74.3990 N   0  0  0  0  0  0  0  0  0  0  0  0
   -2.5780   14.7220  -74.5430 C   0  0  0  0  0  0  0  0  0  0  0  0
   -2.4100   13.7700  -73.7850 O   0  0  0  0  0  0  0  0  0  0  0  0
   -1.6860   14.9300  -75.7300 C   0  0  0  0  0  0  0  0  0  0  0  0
   -2.2560   15.3610  -76.9310 C   0  0  0  0  0  0  0  0  0  0  0  0
   -1.4990   15.4670  -78.0860 C   0  0  0  0  0  0  0  0  0  0  0  0
   -0.3220   14.6330  -75.7210 C   0  0  0  0  0  0  0  0  0  0  0  0
    0.4790   14.1550  -74.2590 Cl  0  0  0  0  0  0  0  0  0  0  0  0
    0.4470   14.7250  -76.8680 C   0  0  0  0  0  0  0  0  0  0  0  0
   -0.1540   15.1390  -78.0490 C   0  0  0  0  0  0  0  0  0  0  0  0
    0.8150   15.2340  -79.5240 S   0  0  0  0  0  0  0  0  0  0  0  0
    2.1930   15.0550  -79.1690 O   0  0  0  0  0  0  0  0  0  0  0  0
    0.4460   16.4280  -80.2260 O   0  0  0  0  0  0  0  0  0  0  0  0
    0.3010   13.8520  -80.4710 C   0  0  0  0  0  0  0  0  0  0  0  0
   -7.9065   14.6890  -73.1472 H   0  0  0  0  0  0  0  0  0  0  0  0
   -6.1270   14.9066  -74.8637 H   0  0  0  0  0  0  0  0  0  0  0  0
   -4.3925   18.8237  -67.9724 H   0  0  0  0  0  0  0  0  0  0  0  0
   -4.0248   17.1682  -66.1790 H   0  0  0  0  0  0  0  0  0  0  0  0
   -4.3271   14.7454  -66.6975 H   0  0  0  0  0  0  0  0  0  0  0  0
   -4.9781   14.0570  -69.0059 H   0  0  0  0  0  0  0  0  0  0  0  0
   -3.3526   16.2038  -71.8324 H   0  0  0  0  0  0  0  0  0  0  0  0
   -3.5979   16.4097  -75.0505 H   0  0  0  0  0  0  0  0  0  0  0  0
   -3.3245   15.6206  -76.9595 H   0  0  0  0  0  0  0  0  0  0  0  0
   -1.9617   15.8084  -79.0237 H   0  0  0  0  0  0  0  0  0  0  0  0
    1.5177   14.4740  -76.8443 H   0  0  0  0  0  0  0  0  0  0  0  0
   -0.0019   13.0375  -79.7965 H   0  0  0  0  0  0  0  0  0  0  0  0
   -0.5507   14.1386  -81.1055 H   0  0  0  0  0  0  0  0  0  0  0  0
    1.1329   13.5124  -81.1055 H   0  0  0  0  0  0  0  0  0  0  0  0
  1  2  1  0
  2  3  2  0
  3  4  1  0
  2  5  1  0
  5  6  1  0
  6  7  2  0
  7  8  1  0
  8  9  2  0
  9 10  1  0
  6 11  1  0
 10 11  2  0
  5 12  2  0
  4 13  2  0
 12 13  1  0
 13 14  1  0
 14 15  1  0
 15 16  2  0
 15 17  1  0
 17 18  2  0
 18 19  1  0
 17 20  1  0
 20 21  1  0
 20 22  2  0
 19 23  2  0
 22 23  1  0
 23 24  1  0
 24 25  2  0
 24 26  2  0
 24 27  1  0
  3 28  1  0
  4 29  1  0
  8 30  1  0
  9 31  1  0
 10 32  1  0
 11 33  1  0
 12 34  1  0
 14 35  1  0
 18 36  1  0
 19 37  1  0
 22 38  1  0
 27 39  1  0
 27 40  1  0
 27 41  1  0
M  END
$$$$
