PDB_DB00819_94
     RDKit          3D

108108  0  0  0  0  0  0  0  0999 V2000
   34.9710    9.6660   19.5770 C   0  0  0  0  0  0  0  0  0  0  0  0
   37.2980    9.9740   19.8630 C   0  0  2  0  0  0  0  0  0  0  0  0
   39.1520   11.5070   19.6960 C   0  0  0  0  0  0  0  0  0  0  0  0
   40.5240   11.2920   19.1000 C   0  0  0  0  0  0  0  0  0  0  0  0
   33.0780    8.6430   18.1390 N   0  0  0  0  0  0  0  0  0  0  0  0
   36.9060    8.7040   20.1830 N   0  0  0  0  0  0  0  0  0  0  0  0
   35.4800    8.4980   20.0030 N   0  0  0  0  0  0  0  0  0  0  0  0
   38.5760   10.4370   20.2570 N   0  0  0  0  0  0  0  0  0  0  0  0
   32.4880    9.4420   20.4120 O   0  0  0  0  0  0  0  0  0  0  0  0
   32.9630   11.1030   18.6740 O   0  0  0  0  0  0  0  0  0  0  0  0
   38.5880   12.6210   19.6630 O   0  0  0  0  0  0  0  0  0  0  0  0
   33.2750    9.8000   19.2460 S   0  0  1  0  0  4  0  0  0  0  0  0
   36.1000   10.9430   19.3760 S   0  0  0  0  0  0  0  0  0  0  0  0
   32.6260  -10.7080  -23.7930 C   0  0  0  0  0  0  0  0  0  0  0  0
   34.9160  -10.9350  -24.3240 C   0  0  2  0  0  0  0  0  0  0  0  0
   36.7700  -12.4230  -24.8200 C   0  0  0  0  0  0  0  0  0  0  0  0
   38.2310  -12.2360  -25.1570 C   0  0  0  0  0  0  0  0  0  0  0  0
   30.6480   -9.7520  -22.1960 N   0  0  0  0  0  0  0  0  0  0  0  0
   34.4130   -9.7190  -24.6890 N   0  0  0  0  0  0  0  0  0  0  0  0
   33.0130   -9.5640  -24.3760 N   0  0  0  0  0  0  0  0  0  0  0  0
   35.9430  -11.4290  -25.1610 N   0  0  0  0  0  0  0  0  0  0  0  0
   30.2210  -10.6210  -24.4910 O   0  0  0  0  0  0  0  0  0  0  0  0
   30.8050  -12.2030  -22.6740 O   0  0  0  0  0  0  0  0  0  0  0  0
   36.3520  -13.4610  -24.2750 O   0  0  0  0  0  0  0  0  0  0  0  0
   30.9820  -10.8990  -23.2900 S   0  0  1  0  0  4  0  0  0  0  0  0
   33.8330  -11.9120  -23.6230 S   0  0  0  0  0  0  0  0  0  0  0  0
    4.2240   17.8160  -16.5410 C   0  0  0  0  0  0  0  0  0  0  0  0
    3.9770   20.0920  -15.9470 C   0  0  1  0  0  0  0  0  0  0  0  0
    2.5530   21.9610  -15.3470 C   0  0  0  0  0  0  0  0  0  0  0  0
    2.6840   23.1590  -14.4420 C   0  0  0  0  0  0  0  0  0  0  0  0
    5.2380   15.9060  -18.1670 N   0  0  0  0  0  0  0  0  0  0  0  0
    5.1680   19.5770  -15.5250 N   0  0  0  0  0  0  0  0  0  0  0  0
    5.3340   18.1790  -15.8820 N   0  0  0  0  0  0  0  0  0  0  0  0
    3.7070   21.4730  -15.8410 N   0  0  0  0  0  0  0  0  0  0  0  0
    4.1400   15.3180  -15.9720 O   0  0  0  0  0  0  0  0  0  0  0  0
    2.7720   16.1180  -17.8570 O   0  0  0  0  0  0  0  0  0  0  0  0
    1.4430   21.4700  -15.6260 O   0  0  0  0  0  0  0  0  0  0  0  0
    4.0270   16.1930  -17.1230 S   0  0  1  0  0  4  0  0  0  0  0  0
    3.0390   19.0510  -16.7400 S   0  0  0  0  0  0  0  0  0  0  0  0
    3.6670  -18.3630   17.5620 C   0  0  0  0  0  0  0  0  0  0  0  0
    2.9590  -20.6110   17.2580 C   0  0  2  0  0  0  0  0  0  0  0  0
    0.9160  -21.8670   16.7960 C   0  0  0  0  0  0  0  0  0  0  0  0
    0.4160  -22.7440   15.6780 C   0  0  0  0  0  0  0  0  0  0  0  0
    5.1680  -16.4810   18.8290 N   0  0  0  0  0  0  0  0  0  0  0  0
    4.2050  -20.3900   16.7370 N   0  0  0  0  0  0  0  0  0  0  0  0
    4.6530  -19.0140   16.9150 N   0  0  0  0  0  0  0  0  0  0  0  0
    2.2550  -21.7940   16.9370 N   0  0  0  0  0  0  0  0  0  0  0  0
    3.9230  -15.9110   16.7350 O   0  0  0  0  0  0  0  0  0  0  0  0
    2.6380  -16.3780   18.7800 O   0  0  0  0  0  0  0  0  0  0  0  0
    0.1110  -21.2680   17.5410 O   0  0  0  0  0  0  0  0  0  0  0  0
    3.8030  -16.6770   17.9630 S   0  0  1  0  0  4  0  0  0  0  0  0
    2.2810  -19.3190   17.9490 S   0  0  0  0  0  0  0  0  0  0  0  0
   35.1506    9.3641   18.5346 H   0  0  0  0  0  0  0  0  0  0  0  0
   37.8586    9.9838   18.9166 H   0  0  0  0  0  0  0  0  0  0  0  0
   38.6922   11.2485   18.7307 H   0  0  0  0  0  0  0  0  0  0  0  0
   41.2610   11.1765   19.9084 H   0  0  0  0  0  0  0  0  0  0  0  0
   40.5158   10.3842   18.4789 H   0  0  0  0  0  0  0  0  0  0  0  0
   40.7939   12.1588   18.4789 H   0  0  0  0  0  0  0  0  0  0  0  0
   32.9242    7.7399   18.6099 H   0  0  0  0  0  0  0  0  0  0  0  0
   32.2629    8.8664   17.5502 H   0  0  0  0  0  0  0  0  0  0  0  0
   37.4138    8.0404   19.5808 H   0  0  0  0  0  0  0  0  0  0  0  0
   35.0452    8.2263   20.8963 H   0  0  0  0  0  0  0  0  0  0  0  0
   38.5094   10.6417   21.2642 H   0  0  0  0  0  0  0  0  0  0  0  0
   32.9915    9.6711   21.2330 H   0  0  0  0  0  0  0  0  0  0  0  0
   32.8070   11.7546   19.4029 H   0  0  0  0  0  0  0  0  0  0  0  0
   38.4279   12.9373   20.5873 H   0  0  0  0  0  0  0  0  0  0  0  0
   32.8792  -10.2912  -22.8070 H   0  0  0  0  0  0  0  0  0  0  0  0
   35.5604  -10.8053  -23.4420 H   0  0  0  0  0  0  0  0  0  0  0  0
   36.9353  -11.9496  -23.8409 H   0  0  0  0  0  0  0  0  0  0  0  0
   38.8150  -12.1613  -24.2278 H   0  0  0  0  0  0  0  0  0  0  0  0
   38.5849  -13.0962  -25.7443 H   0  0  0  0  0  0  0  0  0  0  0  0
   38.3568  -11.3144  -25.7443 H   0  0  0  0  0  0  0  0  0  0  0  0
   30.7606  -10.1386  -21.2480 H   0  0  0  0  0  0  0  0  0  0  0  0
   31.2930   -8.9589  -22.3222 H   0  0  0  0  0  0  0  0  0  0  0  0
   34.9415   -8.9851  -24.1961 H   0  0  0  0  0  0  0  0  0  0  0  0
   32.4714   -9.4021  -25.2370 H   0  0  0  0  0  0  0  0  0  0  0  0
   35.4751  -11.7385  -26.0248 H   0  0  0  0  0  0  0  0  0  0  0  0
   29.3209  -10.2922  -24.2426 H   0  0  0  0  0  0  0  0  0  0  0  0
   30.8180  -12.1070  -21.6887 H   0  0  0  0  0  0  0  0  0  0  0  0
   36.3938  -13.3571  -23.2914 H   0  0  0  0  0  0  0  0  0  0  0  0
    4.6963   18.1000  -17.4930 H   0  0  0  0  0  0  0  0  0  0  0  0
    3.2675   20.4171  -15.1718 H   0  0  0  0  0  0  0  0  0  0  0  0
    2.4627   22.6281  -16.2170 H   0  0  0  0  0  0  0  0  0  0  0  0
    2.6482   22.8314  -13.3925 H   0  0  0  0  0  0  0  0  0  0  0  0
    3.6425   23.6624  -14.6365 H   0  0  0  0  0  0  0  0  0  0  0  0
    1.8569   23.8576  -14.6365 H   0  0  0  0  0  0  0  0  0  0  0  0
    6.1012   15.7014  -17.6437 H   0  0  0  0  0  0  0  0  0  0  0  0
    4.9964   15.0990  -18.7596 H   0  0  0  0  0  0  0  0  0  0  0  0
    5.9316   20.1192  -15.9538 H   0  0  0  0  0  0  0  0  0  0  0  0
    5.4462   17.6066  -15.0331 H   0  0  0  0  0  0  0  0  0  0  0  0
    4.4554   21.8635  -15.2508 H   0  0  0  0  0  0  0  0  0  0  0  0
    4.0708   15.8536  -15.1423 H   0  0  0  0  0  0  0  0  0  0  0  0
    2.0178   16.0729  -17.2173 H   0  0  0  0  0  0  0  0  0  0  0  0
    0.9577   21.2553  -14.7903 H   0  0  0  0  0  0  0  0  0  0  0  0
    4.1241  -18.6293   18.5265 H   0  0  0  0  0  0  0  0  0  0  0  0
    2.9967  -21.2381   18.1609 H   0  0  0  0  0  0  0  0  0  0  0  0
    0.8907  -22.7267   17.4817 H   0  0  0  0  0  0  0  0  0  0  0  0
   -0.0869  -23.6262   16.1009 H   0  0  0  0  0  0  0  0  0  0  0  0
   -0.2953  -22.1783   15.0583 H   0  0  0  0  0  0  0  0  0  0  0  0
    1.2652  -23.0680   15.0583 H   0  0  0  0  0  0  0  0  0  0  0  0
    4.9446  -16.5131   19.8340 H   0  0  0  0  0  0  0  0  0  0  0  0
    5.8309  -17.2354   18.6004 H   0  0  0  0  0  0  0  0  0  0  0  0
    4.8741  -21.0176   17.2053 H   0  0  0  0  0  0  0  0  0  0  0  0
    4.8251  -18.5760   15.9988 H   0  0  0  0  0  0  0  0  0  0  0  0
    2.6467  -22.1157   16.0403 H   0  0  0  0  0  0  0  0  0  0  0  0
    4.0724  -14.9572   16.9543 H   0  0  0  0  0  0  0  0  0  0  0  0
    2.8816  -16.4405   19.7375 H   0  0  0  0  0  0  0  0  0  0  0  0
    0.3448  -21.4420   18.4871 H   0  0  0  0  0  0  0  0  0  0  0  0
  3  4  1  0
  2  6  1  0
  1  7  1  0
  6  7  1  0
  2  8  1  0
  3  8  1  0
  3 11  1  0
  1 12  1  0
  5 12  1  0
 12  9  1  1
 10 12  1  0
  1 13  1  0
  2 13  1  0
 16 17  1  0
 15 19  1  0
 14 20  1  0
 19 20  1  0
 15 21  1  0
 16 21  1  0
 16 24  1  0
 14 25  1  0
 18 25  1  0
 25 22  1  6
 23 25  1  0
 14 26  1  0
 15 26  1  0
 29 30  1  0
 28 32  1  0
 27 33  1  0
 32 33  1  0
 28 34  1  0
 29 34  1  0
 29 37  1  0
 27 38  1  0
 31 38  1  0
 38 35  1  1
 36 38  1  0
 27 39  1  0
 28 39  1  0
 42 43  1  0
 41 45  1  0
 40 46  1  0
 45 46  1  0
 41 47  1  0
 42 47  1  0
 42 50  1  0
 40 51  1  0
 44 51  1  0
 51 48  1  6
 49 51  1  0
 40 52  1  0
 41 52  1  0
  1 53  1  0
  2 54  1  6
  3 55  1  0
  4 56  1  0
  4 57  1  0
  4 58  1  0
  5 59  1  0
  5 60  1  0
  6 61  1  0
  7 62  1  0
  8 63  1  0
  9 64  1  0
 10 65  1  0
 11 66  1  0
 14 67  1  0
 15 68  1  1
 16 69  1  0
 17 70  1  0
 17 71  1  0
 17 72  1  0
 18 73  1  0
 18 74  1  0
 19 75  1  0
 20 76  1  0
 21 77  1  0
 22 78  1  0
 23 79  1  0
 24 80  1  0
 27 81  1  0
 28 82  1  1
 29 83  1  0
 30 84  1  0
 30 85  1  0
 30 86  1  0
 31 87  1  0
 31 88  1  0
 32 89  1  0
 33 90  1  0
 34 91  1  0
 35 92  1  0
 36 93  1  0
 37 94  1  0
 40 95  1  0
 41 96  1  1
 42 97  1  0
 43 98  1  0
 43 99  1  0
 43100  1  0
 44101  1  0
 44102  1  0
 45103  1  0
 46104  1  0
 47105  1  0
 48106  1  0
 49107  1  0
 50108  1  0
M  END
>  <PDBID>  (1) 
5JN8

>  <PDB ID>  (1) 
5JN8

>  <Generic Name>  (1) 
Acetazolamide

>  <Brand Name>  (1) 
Acetazolam#Acetazolamide#Acetazolamide for Injection, USP#Diamox IV 500mg#Diamox Pws 500mg/vial#Diamox Sequels#Diamox Src 500mg#Diamox Tab 250mg#Diamox Tablets 250mg#Novo-zolamide Tab 250mg#Acemit#Acemox#Acetak#Acetamide#Acetazolamax#Azm#Azol#Azomid#Carbinib#Defiltran#Diabo#Diacarb#Diamox#Diamox Depot#Diazomid#Diluran#Diuramid#Défiltran#Edemox#Glaumox#Glaupax#Glupax#Huma-Zolamide#Iopar-SR#Medene#Oculten#Uramox#Zolmide#Ödemin

>  <DrugBank ID>  (1) 
DB00819

>  <ATC Codes>  (1) 
S01EC01

>  <Ligand ID>  (1) 
AZM

>  <Target Name>  (1) 
Carbonic anhydrase 4

>  <UniProt ID>  (1) 
P22748

>  <PDB ID.1>  (1) 
5JN8

>  <Seq. Identity>  (1) 
100%

$$$$
