PDB_DB00755_95
     RDKit          3D

124124  0  0  0  0  0  0  0  0999 V2000
    9.0650   16.0370   23.6170 C   0  0  2  0  0  0  0  0  0  0  0  0
    7.9160   16.8210   22.8650 C   0  0  0  0  0  0  0  0  0  0  0  0
    7.8730   16.7130   21.3470 C   0  0  0  0  0  0  0  0  0  0  0  0
    7.9210   15.2970   20.8360 C   0  0  0  0  0  0  0  0  0  0  0  0
    9.0400   14.4520   21.4780 C   0  0  0  0  0  0  0  0  0  0  0  0
    9.5850   14.7620   22.7430 C   0  0  0  0  0  0  0  0  0  0  0  0
   10.6740   13.9810   23.4220 C   0  0  0  0  0  0  0  0  0  0  0  0
   11.8430   13.4590   22.9610 C   0  0  0  0  0  0  0  0  0  0  0  0
   12.7880   12.7130   23.7690 C   0  0  0  0  0  0  0  0  0  0  0  0
   13.9370   12.2220   23.2310 C   0  0  0  0  0  0  0  0  0  0  0  0
   14.4380   12.3200   21.8660 C   0  0  0  0  0  0  0  0  0  0  0  0
   15.6380   11.7250   21.6580 C   0  0  0  0  0  0  0  0  0  0  0  0
   16.4010   11.6770   20.4170 C   0  0  0  0  0  0  0  0  0  0  0  0
   17.5950   11.0200   20.4780 C   0  0  0  0  0  0  0  0  0  0  0  0
   18.6770   10.7550   19.4940 C   0  0  0  0  0  0  0  0  0  0  0  0
    8.4740   15.5740   24.9700 C   0  0  0  0  0  0  0  0  0  0  0  0
   10.2500   17.0370   23.8830 C   0  0  0  0  0  0  0  0  0  0  0  0
    9.4040   13.2980   20.5280 C   0  0  0  0  0  0  0  0  0  0  0  0
   12.4790   12.4780   25.2600 C   0  0  0  0  0  0  0  0  0  0  0  0
   15.8530   12.3580   19.1520 C   0  0  0  0  0  0  0  0  0  0  0  0
   19.6520   10.1060   19.8760 O   0  0  0  0  0  0  0  0  0  0  0  0
   18.6270   11.1690   18.3190 O   0  0  0  0  0  0  0  0  0  0  0  0
   -8.7800   13.0870   43.2700 C   0  0  2  0  0  0  0  0  0  0  0  0
   -8.9360   14.6460   43.0530 C   0  0  0  0  0  0  0  0  0  0  0  0
   -9.3030   15.4870   44.2660 C   0  0  0  0  0  0  0  0  0  0  0  0
   -8.4110   15.2430   45.4570 C   0  0  0  0  0  0  0  0  0  0  0  0
   -8.2100   13.7470   45.7800 C   0  0  0  0  0  0  0  0  0  0  0  0
   -8.3710   12.7340   44.8100 C   0  0  0  0  0  0  0  0  0  0  0  0
   -8.1880   11.2500   45.0590 C   0  0  0  0  0  0  0  0  0  0  0  0
   -8.5030   10.4400   46.1150 C   0  0  0  0  0  0  0  0  0  0  0  0
   -8.2290    9.0080   46.1790 C   0  0  0  0  0  0  0  0  0  0  0  0
   -8.5620    8.2620   47.2610 C   0  0  0  0  0  0  0  0  0  0  0  0
   -9.2200    8.6260   48.5000 C   0  0  0  0  0  0  0  0  0  0  0  0
   -9.3700    7.5910   49.3590 C   0  0  0  0  0  0  0  0  0  0  0  0
  -10.0390    7.6010   50.6510 C   0  0  0  0  0  0  0  0  0  0  0  0
  -10.0540    6.4150   51.3270 C   0  0  0  0  0  0  0  0  0  0  0  0
  -10.6430    5.9820   52.6210 C   0  0  0  0  0  0  0  0  0  0  0  0
   -7.6990   12.5940   42.2840 C   0  0  0  0  0  0  0  0  0  0  0  0
  -10.1570   12.4190   42.9160 C   0  0  0  0  0  0  0  0  0  0  0  0
   -7.8290   13.6120   47.2620 C   0  0  0  0  0  0  0  0  0  0  0  0
   -7.5410    8.3190   44.9950 C   0  0  0  0  0  0  0  0  0  0  0  0
  -10.6950    8.8940   51.1620 C   0  0  0  0  0  0  0  0  0  0  0  0
  -10.4640    4.8140   52.9710 O   0  0  0  0  0  0  0  0  0  0  0  0
  -11.3120    6.7510   53.3460 O   0  0  0  0  0  0  0  0  0  0  0  0
    6.9553   16.4481   23.2499 H   0  0  0  0  0  0  0  0  0  0  0  0
    8.1211   17.8828   23.0662 H   0  0  0  0  0  0  0  0  0  0  0  0
    6.9412   17.1780   20.9926 H   0  0  0  0  0  0  0  0  0  0  0  0
    8.7700   17.2219   20.9644 H   0  0  0  0  0  0  0  0  0  0  0  0
    6.9549   14.8163   21.0495 H   0  0  0  0  0  0  0  0  0  0  0  0
    8.1306   15.3479   19.7574 H   0  0  0  0  0  0  0  0  0  0  0  0
    9.7969   15.0882   20.9960 H   0  0  0  0  0  0  0  0  0  0  0  0
    8.8297   14.1237   23.2248 H   0  0  0  0  0  0  0  0  0  0  0  0
   10.9916   14.6407   24.2430 H   0  0  0  0  0  0  0  0  0  0  0  0
   10.1266   13.0286   23.4795 H   0  0  0  0  0  0  0  0  0  0  0  0
   11.5611   12.7848   22.1388 H   0  0  0  0  0  0  0  0  0  0  0  0
   12.4167   14.3794   22.7771 H   0  0  0  0  0  0  0  0  0  0  0  0
   12.2685   11.7778   23.5131 H   0  0  0  0  0  0  0  0  0  0  0  0
   14.7347   12.6660   23.8447 H   0  0  0  0  0  0  0  0  0  0  0  0
   13.6506   11.1601   23.2096 H   0  0  0  0  0  0  0  0  0  0  0  0
   13.7023   11.8503   21.1966 H   0  0  0  0  0  0  0  0  0  0  0  0
   14.5842   13.3916   21.6654 H   0  0  0  0  0  0  0  0  0  0  0  0
   16.3150   12.1958   22.3860 H   0  0  0  0  0  0  0  0  0  0  0  0
   15.3182   10.6735   21.7035 H   0  0  0  0  0  0  0  0  0  0  0  0
   16.9040   12.6164   20.6899 H   0  0  0  0  0  0  0  0  0  0  0  0
   18.1218   11.5368   21.2937 H   0  0  0  0  0  0  0  0  0  0  0  0
   17.1617   10.0099   20.4325 H   0  0  0  0  0  0  0  0  0  0  0  0
   19.1789   11.6863   19.7951 H   0  0  0  0  0  0  0  0  0  0  0  0
    9.0478   16.0235   25.7938 H   0  0  0  0  0  0  0  0  0  0  0  0
    7.4231   15.8917   25.0390 H   0  0  0  0  0  0  0  0  0  0  0  0
    8.5309   14.4776   25.0390 H   0  0  0  0  0  0  0  0  0  0  0  0
   10.3922   17.1570   24.9672 H   0  0  0  0  0  0  0  0  0  0  0  0
   11.1724   16.6402   23.4339 H   0  0  0  0  0  0  0  0  0  0  0  0
   10.0140   18.0130   23.4339 H   0  0  0  0  0  0  0  0  0  0  0  0
    9.6834   12.4122   21.1173 H   0  0  0  0  0  0  0  0  0  0  0  0
    8.5379   13.0582   19.8937 H   0  0  0  0  0  0  0  0  0  0  0  0
   10.2510   13.5985   19.8937 H   0  0  0  0  0  0  0  0  0  0  0  0
   13.2043   13.0296   25.8761 H   0  0  0  0  0  0  0  0  0  0  0  0
   11.4623   12.8332   25.4842 H   0  0  0  0  0  0  0  0  0  0  0  0
   12.5497   11.4034   25.4842 H   0  0  0  0  0  0  0  0  0  0  0  0
   15.1874   13.1851   19.4399 H   0  0  0  0  0  0  0  0  0  0  0  0
   16.6895   12.7511   18.5556 H   0  0  0  0  0  0  0  0  0  0  0  0
   15.2900   11.6250   18.5556 H   0  0  0  0  0  0  0  0  0  0  0  0
   19.6722   10.0925   20.8657 H   0  0  0  0  0  0  0  0  0  0  0  0
   18.5083   12.1519   18.3202 H   0  0  0  0  0  0  0  0  0  0  0  0
   -7.9773   15.0233   42.6675 H   0  0  0  0  0  0  0  0  0  0  0  0
   -9.7904   14.7512   42.3682 H   0  0  0  0  0  0  0  0  0  0  0  0
   -9.2311   16.5490   43.9885 H   0  0  0  0  0  0  0  0  0  0  0  0
  -10.3236   15.2022   44.5614 H   0  0  0  0  0  0  0  0  0  0  0  0
   -7.4271   15.6902   45.2524 H   0  0  0  0  0  0  0  0  0  0  0  0
   -8.9035   15.6987   46.3286 H   0  0  0  0  0  0  0  0  0  0  0  0
   -9.2739   13.6615   46.0459 H   0  0  0  0  0  0  0  0  0  0  0  0
   -7.3063   12.8173   44.5463 H   0  0  0  0  0  0  0  0  0  0  0  0
   -8.7154   10.7832   44.2140 H   0  0  0  0  0  0  0  0  0  0  0  0
   -7.1090   11.2988   45.2672 H   0  0  0  0  0  0  0  0  0  0  0  0
   -7.9889   10.8767   46.9839 H   0  0  0  0  0  0  0  0  0  0  0  0
   -9.6003   10.4301   46.0386 H   0  0  0  0  0  0  0  0  0  0  0  0
   -7.2454    9.2162   46.6252 H   0  0  0  0  0  0  0  0  0  0  0  0
   -9.2004    7.4676   46.8470 H   0  0  0  0  0  0  0  0  0  0  0  0
   -7.5469    8.1601   47.6722 H   0  0  0  0  0  0  0  0  0  0  0  0
   -8.6219    9.4050   48.9954 H   0  0  0  0  0  0  0  0  0  0  0  0
  -10.2293    8.9762   48.2380 H   0  0  0  0  0  0  0  0  0  0  0  0
   -9.8934    6.8175   48.7779 H   0  0  0  0  0  0  0  0  0  0  0  0
   -8.3297    7.5047   49.7059 H   0  0  0  0  0  0  0  0  0  0  0  0
  -10.9875    7.3342   50.1619 H   0  0  0  0  0  0  0  0  0  0  0  0
  -10.5021    5.7192   50.6024 H   0  0  0  0  0  0  0  0  0  0  0  0
   -9.0204    6.4870   51.6964 H   0  0  0  0  0  0  0  0  0  0  0  0
  -11.5659    5.6849   52.1015 H   0  0  0  0  0  0  0  0  0  0  0  0
   -6.8397   12.2021   42.8479 H   0  0  0  0  0  0  0  0  0  0  0  0
   -8.1163   11.7972   41.6508 H   0  0  0  0  0  0  0  0  0  0  0  0
   -7.3709   13.4315   41.6508 H   0  0  0  0  0  0  0  0  0  0  0  0
  -10.6887   12.1611   43.8438 H   0  0  0  0  0  0  0  0  0  0  0  0
  -10.7653   13.1222   42.3282 H   0  0  0  0  0  0  0  0  0  0  0  0
   -9.9813   11.5060   42.3282 H   0  0  0  0  0  0  0  0  0  0  0  0
   -8.6811   13.9139   47.8886 H   0  0  0  0  0  0  0  0  0  0  0  0
   -7.5665   12.5661   47.4793 H   0  0  0  0  0  0  0  0  0  0  0  0
   -6.9665   14.2593   47.4793 H   0  0  0  0  0  0  0  0  0  0  0  0
   -6.8104    7.5874   45.3705 H   0  0  0  0  0  0  0  0  0  0  0  0
   -8.2950    7.8030   44.3824 H   0  0  0  0  0  0  0  0  0  0  0  0
   -7.0239    9.0722   44.3824 H   0  0  0  0  0  0  0  0  0  0  0  0
  -10.6955    8.8950   52.2620 H   0  0  0  0  0  0  0  0  0  0  0  0
  -10.1285    9.7625   50.7948 H   0  0  0  0  0  0  0  0  0  0  0  0
  -11.7304    8.9497   50.7948 H   0  0  0  0  0  0  0  0  0  0  0  0
  -10.4562    4.7633   53.9597 H   0  0  0  0  0  0  0  0  0  0  0  0
  -11.1334    6.5457   54.2979 H   0  0  0  0  0  0  0  0  0  0  0  0
  1  2  1  0
  2  3  1  0
  3  4  1  0
  4  5  1  0
  1  6  1  0
  5  6  1  0
  6  7  1  0
  7  8  1  0
  8  9  1  0
  9 10  1  0
 10 11  1  0
 11 12  1  0
 12 13  1  0
 13 14  1  0
 14 15  1  0
  1 16  1  1
  1 17  1  0
  5 18  1  0
  9 19  1  0
 13 20  1  0
 15 21  1  0
 15 22  1  0
 23 24  1  0
 24 25  1  0
 25 26  1  0
 26 27  1  0
 23 28  1  0
 27 28  1  0
 28 29  1  0
 29 30  1  0
 30 31  1  0
 31 32  1  0
 32 33  1  0
 33 34  1  0
 34 35  1  0
 35 36  1  0
 36 37  1  0
 23 38  1  6
 23 39  1  0
 27 40  1  0
 31 41  1  0
 35 42  1  0
 37 43  1  0
 37 44  1  0
  2 45  1  0
  2 46  1  0
  3 47  1  0
  3 48  1  0
  4 49  1  0
  4 50  1  0
  5 51  1  0
  6 52  1  0
  7 53  1  0
  7 54  1  0
  8 55  1  0
  8 56  1  0
  9 57  1  0
 10 58  1  0
 10 59  1  0
 11 60  1  0
 11 61  1  0
 12 62  1  0
 12 63  1  0
 13 64  1  0
 14 65  1  0
 14 66  1  0
 15 67  1  0
 16 68  1  0
 16 69  1  0
 16 70  1  0
 17 71  1  0
 17 72  1  0
 17 73  1  0
 18 74  1  0
 18 75  1  0
 18 76  1  0
 19 77  1  0
 19 78  1  0
 19 79  1  0
 20 80  1  0
 20 81  1  0
 20 82  1  0
 21 83  1  0
 22 84  1  0
 24 85  1  0
 24 86  1  0
 25 87  1  0
 25 88  1  0
 26 89  1  0
 26 90  1  0
 27 91  1  0
 28 92  1  0
 29 93  1  0
 29 94  1  0
 30 95  1  0
 30 96  1  0
 31 97  1  0
 32 98  1  0
 32 99  1  0
 33100  1  0
 33101  1  0
 34102  1  0
 34103  1  0
 35104  1  0
 36105  1  0
 36106  1  0
 37107  1  0
 38108  1  0
 38109  1  0
 38110  1  0
 39111  1  0
 39112  1  0
 39113  1  0
 40114  1  0
 40115  1  0
 40116  1  0
 41117  1  0
 41118  1  0
 41119  1  0
 42120  1  0
 42121  1  0
 42122  1  0
 43123  1  0
 44124  1  0
M  END
>  <PDBID>  (1) 
4DM8

>  <PDB ID>  (1) 
4DM8

>  <Generic Name>  (1) 
Tretinoin

>  <Brand Name>  (1) 
Atralin#Avita#Biacna Topical Gel#Clindamycin Phosphate and Tretinoin#Dr. Throwers Hydrotet#Dr. Throwers Pbc No. 1#Obagi#Refissa#Rejuva-A#Renova#Retin-A#Retin-A Micro#Retisol-A#Solagé#Stie Vaa Sol 0.05%#Stieva-A Cream#Stieva-A Gel#Stieva-A Solution#Stievaa Gel 0.01%#Stievamycin Forte#Stievamycin Mild#Stievamycin Regular#Tretin.x#Tretinoin#Tretinoin Cream#Tretinoin Gel#Tretinoin Gel Microsphere#Tretinx#Tri-luma#Veltin#Vesanoid#Vitamin A Acid 0.01% Cream#Vitamin A Acid 0.01% Gel#Vitamin A Acid 0.025% Cream#Vitamin A Acid 0.025% Gel#Vitamin A Acid 0.05% Cream#Vitamin A Acid 0.05% Gel#Vitamin A Acid 0.1% Cream#Vitinoin - Crm 0.025%#Vitinoin - Crm 0.05%#Vitinoin - Crm 0.1%#Vitinoin Gel - 0.025%#Ziana#Aberel#Aberela#Airol#Dermairol#Eudyna#Kétrel#Retisol-A#Sotret#Stieva-A#Vitinoin

>  <DrugBank ID>  (1) 
DB00755

>  <ATC Codes>  (1) 
L01XX14#D10AD01#D10AD51

>  <Ligand ID>  (1) 
3KV,REA

>  <Target Name>  (1) 
Retinoic acid receptor gamma

>  <UniProt ID>  (1) 
P13631

>  <PDB ID.1>  (1) 
4DM8

>  <Seq. Identity>  (1) 
81%

$$$$
