PDB_DB01254_90
     RDKit          3D

 59 62  0  0  0  0  0  0  0  0999 V2000
    3.6880  -66.1270   32.4970 C   0  0  0  0  0  0  0  0  0  0  0  0
    4.6130  -67.1010   32.4670 C   0  0  0  0  0  0  0  0  0  0  0  0
    6.0190  -67.0590   33.0330 C   0  0  0  0  0  0  0  0  0  0  0  0
   -2.5880  -72.7740   26.5430 N   0  0  0  0  0  0  0  0  0  0  0  0
   10.0030  -65.7190   35.6650 C   0  0  0  0  0  0  0  0  0  0  0  0
    9.0050  -66.4570   36.2960 C   0  0  0  0  0  0  0  0  0  0  0  0
    7.7390  -66.5840   35.7050 C   0  0  0  0  0  0  0  0  0  0  0  0
    6.6490  -67.3960   36.4030 C   0  0  0  0  0  0  0  0  0  0  0  0
    1.5040  -69.3690   30.0480 C   0  0  0  0  0  0  0  0  0  0  0  0
    0.3420  -69.9380   29.5400 C   0  0  0  0  0  0  0  0  0  0  0  0
    0.4580  -71.1270   28.8080 C   0  0  0  0  0  0  0  0  0  0  0  0
    2.7850  -71.1160   29.1240 C   0  0  0  0  0  0  0  0  0  0  0  0
    4.1670  -71.7480   28.9220 C   0  0  0  0  0  0  0  0  0  0  0  0
   -0.3950  -73.0900   27.5670 C   0  0  0  0  0  0  0  0  0  0  0  0
   -2.0460  -71.3650   28.4800 C   0  0  0  0  0  0  0  0  0  0  0  0
   -3.3570  -73.0550   25.3010 C   0  0  0  0  0  0  0  0  0  0  0  0
   -4.3020  -71.9570   24.7760 C   0  0  0  0  0  0  0  0  0  0  0  0
    1.4610  -68.2360   30.7610 N   0  0  0  0  0  0  0  0  0  0  0  0
    2.5070  -67.7080   31.4040 C   0  0  0  0  0  0  0  0  0  0  0  0
    2.5180  -66.4550   31.9080 N   0  0  0  0  0  0  0  0  0  0  0  0
    4.0160  -68.4590   31.6940 S   0  0  0  0  0  0  0  0  0  0  0  0
    6.2550  -66.0730   33.8950 N   0  0  0  0  0  0  0  0  0  0  0  0
    7.4710  -65.9620   34.4690 C   0  0  0  0  0  0  0  0  0  0  0  0
    8.4710  -65.2290   33.8470 C   0  0  0  0  0  0  0  0  0  0  0  0
    9.7330  -65.0990   34.4340 C   0  0  0  0  0  0  0  0  0  0  0  0
    8.1100  -64.4880   32.3240 Cl  0  0  0  0  0  0  0  0  0  0  0  0
    6.8470  -67.8960   32.6700 O   0  0  0  0  0  0  0  0  0  0  0  0
    1.6760  -71.6880   28.6230 N   0  0  0  0  0  0  0  0  0  0  0  0
    2.6830  -69.9730   29.8210 N   0  0  0  0  0  0  0  0  0  0  0  0
   -0.6580  -71.8030   28.2660 N   0  0  0  0  0  0  0  0  0  0  0  0
   -1.1890  -73.1410   26.2810 C   0  0  0  0  0  0  0  0  0  0  0  0
   -2.8060  -71.4520   27.1630 C   0  0  0  0  0  0  0  0  0  0  0  0
   -3.7110  -70.6370   24.8480 O   0  0  0  0  0  0  0  0  0  0  0  0
    3.8683  -65.1464   32.9616 H   0  0  0  0  0  0  0  0  0  0  0  0
   10.9963  -65.6222   36.1276 H   0  0  0  0  0  0  0  0  0  0  0  0
    9.2100  -66.9423   37.2616 H   0  0  0  0  0  0  0  0  0  0  0  0
    6.7674  -67.3078   37.4931 H   0  0  0  0  0  0  0  0  0  0  0  0
    5.6609  -67.0121   36.1092 H   0  0  0  0  0  0  0  0  0  0  0  0
    6.7340  -68.4526   36.1092 H   0  0  0  0  0  0  0  0  0  0  0  0
   -0.6388  -69.4691   29.7076 H   0  0  0  0  0  0  0  0  0  0  0  0
    4.6218  -71.9560   29.9017 H   0  0  0  0  0  0  0  0  0  0  0  0
    4.0619  -72.6875   28.3597 H   0  0  0  0  0  0  0  0  0  0  0  0
    4.8089  -71.0540   28.3597 H   0  0  0  0  0  0  0  0  0  0  0  0
    0.6780  -73.1695   27.3380 H   0  0  0  0  0  0  0  0  0  0  0  0
   -0.6964  -73.9259   28.2155 H   0  0  0  0  0  0  0  0  0  0  0  0
   -2.5264  -72.0153   29.2259 H   0  0  0  0  0  0  0  0  0  0  0  0
   -2.0545  -70.3271   28.8443 H   0  0  0  0  0  0  0  0  0  0  0  0
   -2.6281  -73.2683   24.5052 H   0  0  0  0  0  0  0  0  0  0  0  0
   -4.0233  -73.8876   25.5707 H   0  0  0  0  0  0  0  0  0  0  0  0
   -4.5493  -72.1762   23.7268 H   0  0  0  0  0  0  0  0  0  0  0  0
   -5.2001  -71.9566   25.4111 H   0  0  0  0  0  0  0  0  0  0  0  0
    0.5612  -67.7380   30.8176 H   0  0  0  0  0  0  0  0  0  0  0  0
    5.5121  -65.3970   34.1232 H   0  0  0  0  0  0  0  0  0  0  0  0
   10.5150  -64.5108   33.9315 H   0  0  0  0  0  0  0  0  0  0  0  0
   -1.1502  -74.1599   25.8683 H   0  0  0  0  0  0  0  0  0  0  0  0
   -0.7570  -72.4315   25.5598 H   0  0  0  0  0  0  0  0  0  0  0  0
   -2.4469  -70.6662   26.4821 H   0  0  0  0  0  0  0  0  0  0  0  0
   -3.8804  -71.3151   27.3553 H   0  0  0  0  0  0  0  0  0  0  0  0
   -3.5953  -70.3785   25.7966 H   0  0  0  0  0  0  0  0  0  0  0  0
  1  2  2  0
  2  3  1  0
  5  6  2  0
  6  7  1  0
  7  8  1  0
  9 10  2  0
 10 11  1  0
 12 13  1  0
  4 16  1  0
 16 17  1  0
  9 18  1  0
 18 19  1  0
  1 20  1  0
 19 20  2  0
  2 21  1  0
 19 21  1  0
  3 22  1  0
  7 23  2  0
 22 23  1  0
 23 24  1  0
  5 25  1  0
 24 25  2  0
 24 26  1  0
  3 27  2  0
 11 28  2  0
 12 28  1  0
  9 29  1  0
 12 29  2  0
 11 30  1  0
 14 30  1  0
 15 30  1  0
  4 31  1  0
 14 31  1  0
  4 32  1  0
 15 32  1  0
 17 33  1  0
  1 34  1  0
  5 35  1  0
  6 36  1  0
  8 37  1  0
  8 38  1  0
  8 39  1  0
 10 40  1  0
 13 41  1  0
 13 42  1  0
 13 43  1  0
 14 44  1  0
 14 45  1  0
 15 46  1  0
 15 47  1  0
 16 48  1  0
 16 49  1  0
 17 50  1  0
 17 51  1  0
 18 52  1  0
 22 53  1  0
 25 54  1  0
 31 55  1  0
 31 56  1  0
 32 57  1  0
 32 58  1  0
 33 59  1  0
M  END
$$$$
