PDB_DB00205_98
     RDKit          3D

 30 31  0  0  0  0  0  0  0  0999 V2000
   -4.4670    7.1990   27.5920 N   0  0  0  0  0  0  0  0  0  0  0  0
   -5.4530    6.3900   27.0070 C   0  0  0  0  0  0  0  0  0  0  0  0
   -4.4830    8.5840   27.4140 C   0  0  0  0  0  0  0  0  0  0  0  0
   -5.5730    9.2610   26.5810 C   0  0  0  0  0  0  0  0  0  0  0  0
   -6.5890    8.2580   25.9870 C   0  0  0  0  0  0  0  0  0  0  0  0
   -6.4960    6.8930   26.2170 N   0  0  0  0  0  0  0  0  0  0  0  0
   -5.6770   10.6910   26.3530 C   0  0  0  0  0  0  0  0  0  0  0  0
   -5.0250   11.3870   25.2870 C   0  0  0  0  0  0  0  0  0  0  0  0
   -5.1720   12.8080   25.0980 C   0  0  0  0  0  0  0  0  0  0  0  0
   -6.0220   13.5820   26.0270 C   0  0  0  0  0  0  0  0  0  0  0  0
   -6.6990   12.9460   27.1110 C   0  0  0  0  0  0  0  0  0  0  0  0
   -6.5300   11.5180   27.2720 C   0  0  0  0  0  0  0  0  0  0  0  0
   -3.5170    9.3440   27.9900 N   0  0  0  0  0  0  0  0  0  0  0  0
   -5.4040    5.0040   27.2080 N   0  0  0  0  0  0  0  0  0  0  0  0
   -7.7370    8.7480   25.1210 C   0  0  0  0  0  0  0  0  0  0  0  0
   -9.1370    8.8060   25.7060 C   0  0  0  0  0  0  0  0  0  0  0  0
   -6.1150   15.1840   25.7000 Cl  0  0  0  0  0  0  0  0  0  0  0  0
   -4.3914   10.8196   24.5894 H   0  0  0  0  0  0  0  0  0  0  0  0
   -4.6554   13.3130   24.2684 H   0  0  0  0  0  0  0  0  0  0  0  0
   -7.3298   13.5238   27.8026 H   0  0  0  0  0  0  0  0  0  0  0  0
   -7.0483   11.0167   28.1028 H   0  0  0  0  0  0  0  0  0  0  0  0
   -3.5220   10.3662   27.8633 H   0  0  0  0  0  0  0  0  0  0  0  0
   -2.7790    8.8985   28.5537 H   0  0  0  0  0  0  0  0  0  0  0  0
   -6.1205    4.3967   26.7853 H   0  0  0  0  0  0  0  0  0  0  0  0
   -4.6515    4.5926   27.7785 H   0  0  0  0  0  0  0  0  0  0  0  0
   -7.4820    9.7679   24.7972 H   0  0  0  0  0  0  0  0  0  0  0  0
   -7.8149    7.9830   24.3344 H   0  0  0  0  0  0  0  0  0  0  0  0
   -9.0759    8.8035   26.8043 H   0  0  0  0  0  0  0  0  0  0  0  0
   -9.6375    9.7257   25.3688 H   0  0  0  0  0  0  0  0  0  0  0  0
   -9.7119    7.9309   25.3688 H   0  0  0  0  0  0  0  0  0  0  0  0
  1  2  2  0
  1  3  1  0
  3  4  2  0
  4  5  1  0
  2  6  1  0
  5  6  2  0
  4  7  1  0
  7  8  2  0
  8  9  1  0
  9 10  2  0
 10 11  1  0
  7 12  1  0
 11 12  2  0
  3 13  1  0
  2 14  1  0
  5 15  1  0
 15 16  1  0
 10 17  1  0
  8 18  1  0
  9 19  1  0
 11 20  1  0
 12 21  1  0
 13 22  1  0
 13 23  1  0
 14 24  1  0
 14 25  1  0
 15 26  1  0
 15 27  1  0
 16 28  1  0
 16 29  1  0
 16 30  1  0
M  END
$$$$
