PDB_DB00759_99
     RDKit          3D

 56 59  0  0  0  0  0  0  0  0999 V2000
 -122.5310   27.9100  -17.1520 C   0  0  0  0  0  0  0  0  0  0  0  0
 -121.8820   28.4100  -18.0560 O   0  0  0  0  0  0  0  0  0  0  0  0
 -122.1990   28.0220  -15.7230 C   0  0  0  0  0  0  0  0  0  0  0  0
 -121.4310   29.1710  -15.2030 C   0  0  0  0  0  0  0  0  0  0  0  0
 -121.0140   29.1880  -14.0270 O   0  0  0  0  0  0  0  0  0  0  0  0
 -121.1580   30.1660  -16.0340 N   0  0  0  0  0  0  0  0  0  0  0  0
 -122.5520   26.9190  -14.8940 C   0  0  0  0  0  0  0  0  0  0  0  0
 -122.4370   27.0470  -13.5530 O   0  0  0  0  0  0  0  0  0  0  0  0
 -123.0900   25.6040  -15.4530 C   0  0  1  0  0  0  0  0  0  0  0  0
 -124.0960   25.1450  -14.4770 N   0  0  0  0  0  0  0  0  0  0  0  0
 -125.5070   25.1170  -14.8860 C   0  0  0  0  0  0  0  0  0  0  0  0
 -123.7450   23.9210  -13.7540 C   0  0  0  0  0  0  0  0  0  0  0  0
 -123.5560   25.6020  -16.9330 C   0  0  2  0  0  0  0  0  0  0  0  0
 -122.4580   24.8870  -17.7340 C   0  0  0  0  0  0  0  0  0  0  0  0
 -122.8400   24.7140  -19.2240 C   0  0  2  0  0  0  0  0  0  0  0  0
 -121.6540   24.3260  -20.1330 C   0  0  2  0  0  0  0  0  0  0  0  0
 -120.9110   23.0960  -19.6140 C   0  0  0  0  0  0  0  0  0  0  0  0
 -120.7430   25.4340  -20.0690 O   0  0  0  0  0  0  0  0  0  0  0  0
 -122.0830   24.1520  -21.5960 C   0  0  0  0  0  0  0  0  0  0  0  0
 -121.4750   23.2270  -22.4420 C   0  0  0  0  0  0  0  0  0  0  0  0
 -121.9890   22.9740  -23.7040 C   0  0  0  0  0  0  0  0  0  0  0  0
 -123.1170   23.6430  -24.1490 C   0  0  0  0  0  0  0  0  0  0  0  0
 -123.7120   24.6180  -23.3510 C   0  0  0  0  0  0  0  0  0  0  0  0
 -124.7490   25.3250  -23.8760 O   0  0  0  0  0  0  0  0  0  0  0  0
 -123.1920   24.9030  -22.0600 C   0  0  0  0  0  0  0  0  0  0  0  0
 -123.7160   26.0150  -21.2580 C   0  0  0  0  0  0  0  0  0  0  0  0
 -124.2020   27.0080  -21.7990 O   0  0  0  0  0  0  0  0  0  0  0  0
 -123.5480   25.9370  -19.7800 C   0  0  0  0  0  0  0  0  0  0  0  0
 -123.9780   26.9600  -18.9940 C   0  0  0  0  0  0  0  0  0  0  0  0
 -124.6350   28.0020  -19.4500 O   0  0  0  0  0  0  0  0  0  0  0  0
 -123.7560   27.0180  -17.4870 C   0  0  2  0  0  0  0  0  0  0  0  0
 -124.8900   27.6220  -16.8780 O   0  0  0  0  0  0  0  0  0  0  0  0
 -120.6241   30.9821  -15.7025 H   0  0  0  0  0  0  0  0  0  0  0  0
 -121.4796   30.1235  -17.0116 H   0  0  0  0  0  0  0  0  0  0  0  0
 -122.6778   26.2908  -12.9611 H   0  0  0  0  0  0  0  0  0  0  0  0
 -122.2638   24.8843  -15.5501 H   0  0  0  0  0  0  0  0  0  0  0  0
 -126.1477   25.1043  -13.9920 H   0  0  0  0  0  0  0  0  0  0  0  0
 -125.7326   26.0108  -15.4861 H   0  0  0  0  0  0  0  0  0  0  0  0
 -125.6970   24.2149  -15.4861 H   0  0  0  0  0  0  0  0  0  0  0  0
 -123.7983   24.1067  -12.6711 H   0  0  0  0  0  0  0  0  0  0  0  0
 -124.4499   23.1208  -14.0239 H   0  0  0  0  0  0  0  0  0  0  0  0
 -122.7232   23.6160  -14.0239 H   0  0  0  0  0  0  0  0  0  0  0  0
 -124.5300   25.0968  -17.0112 H   0  0  0  0  0  0  0  0  0  0  0  0
 -121.5323   25.4780  -17.6719 H   0  0  0  0  0  0  0  0  0  0  0  0
 -122.3227   23.8847  -17.3014 H   0  0  0  0  0  0  0  0  0  0  0  0
 -123.5396   23.8652  -19.2338 H   0  0  0  0  0  0  0  0  0  0  0  0
 -120.9148   23.1024  -18.5140 H   0  0  0  0  0  0  0  0  0  0  0  0
 -121.4104   22.1857  -19.9772 H   0  0  0  0  0  0  0  0  0  0  0  0
 -119.8728   23.1144  -19.9772 H   0  0  0  0  0  0  0  0  0  0  0  0
 -120.5601   25.6565  -19.1218 H   0  0  0  0  0  0  0  0  0  0  0  0
 -120.5759   22.6908  -22.1042 H   0  0  0  0  0  0  0  0  0  0  0  0
 -121.4978   22.2370  -24.3564 H   0  0  0  0  0  0  0  0  0  0  0  0
 -123.5440   23.4042  -25.1342 H   0  0  0  0  0  0  0  0  0  0  0  0
 -125.1944   26.0251  -23.3361 H   0  0  0  0  0  0  0  0  0  0  0  0
 -124.9227   28.7167  -18.8282 H   0  0  0  0  0  0  0  0  0  0  0  0
 -124.8003   27.5742  -15.8932 H   0  0  0  0  0  0  0  0  0  0  0  0
  2  1  2  0
  3  1  1  0
  4  3  1  0
  5  4  2  0
  6  4  1  0
  7  3  2  0
  8  7  1  0
  9  7  1  0
 10  9  1  0
 11 10  1  0
 12 10  1  0
 13  9  1  0
 14 13  1  0
 15 14  1  0
 16 15  1  0
 17 16  1  0
 16 18  1  6
 19 16  1  0
 20 19  2  0
 21 20  1  0
 22 21  2  0
 23 22  1  0
 24 23  1  0
 25 23  2  0
 25 19  1  0
 26 25  1  0
 27 26  2  0
 28 26  1  0
 28 15  1  0
 29 28  2  0
 30 29  1  0
 31 29  1  0
 31 13  1  0
 31  1  1  0
 31 32  1  1
  6 33  1  0
  6 34  1  0
  8 35  1  0
  9 36  1  6
 11 37  1  0
 11 38  1  0
 11 39  1  0
 12 40  1  0
 12 41  1  0
 12 42  1  0
 13 43  1  1
 14 44  1  0
 14 45  1  0
 15 46  1  1
 17 47  1  0
 17 48  1  0
 17 49  1  0
 18 50  1  0
 20 51  1  0
 21 52  1  0
 22 53  1  0
 24 54  1  0
 30 55  1  0
 32 56  1  0
M  END
$$$$
