PDB_DB00741_99
     RDKit          3D

 56 59  0  0  0  0  0  0  0  0999 V2000
    3.7200   32.2140   -3.7650 C   0  0  0  0  0  0  0  0  0  0  0  0
    3.9320   32.6580   -2.3200 C   0  0  0  0  0  0  0  0  0  0  0  0
    5.0250   33.7010   -2.2190 C   0  0  0  0  0  0  0  0  0  0  0  0
    5.3930   34.5200   -3.3780 C   0  0  0  0  0  0  0  0  0  0  0  0
    4.8210   34.3510   -4.5760 C   0  0  0  0  0  0  0  0  0  0  0  0
    5.1970   35.3250   -5.6560 C   0  0  0  0  0  0  0  0  0  0  0  0
    5.5140   34.6160   -6.9530 C   0  0  0  0  0  0  0  0  0  0  0  0
    4.5070   33.5230   -7.2940 C   0  0  2  0  0  0  0  0  0  0  0  0
    4.2310   32.5540   -6.1390 C   0  0  1  0  0  0  0  0  0  0  0  0
    3.7760   33.2740   -4.8480 C   0  0  1  0  0  0  0  0  0  0  0  0
    3.9040   30.6620   -7.8200 C   0  0  0  0  0  0  0  0  0  0  0  0
    3.3700   31.3200   -6.5360 C   0  0  2  0  0  0  0  0  0  0  0  0
    4.1930   31.6290   -8.9690 C   0  0  1  0  0  0  0  0  0  0  0  0
    5.0990   32.7340   -8.4430 C   0  0  1  0  0  0  0  0  0  0  0  0
    5.4640   33.5060   -9.6810 C   0  0  0  0  0  0  0  0  0  0  0  0
    5.4920   32.4750  -10.8010 C   0  0  0  0  0  0  0  0  0  0  0  0
    5.0350   31.1780  -10.1900 C   0  0  2  0  0  0  0  0  0  0  0  0
    2.8700   32.1950   -9.4900 C   0  0  0  0  0  0  0  0  0  0  0  0
    2.4320   33.9920   -5.0180 C   0  0  0  0  0  0  0  0  0  0  0  0
    4.3440   30.3240  -11.2360 C   0  0  0  0  0  0  0  0  0  0  0  0
    3.9710   28.9290  -10.8580 C   0  0  0  0  0  0  0  0  0  0  0  0
    5.6260   33.8680   -1.1720 O   0  0  0  0  0  0  0  0  0  0  0  0
    1.9550   31.5780   -6.6700 O   0  0  0  0  0  0  0  0  0  0  0  0
    6.2270   30.4770   -9.7820 O   0  0  0  0  0  0  0  0  0  0  0  0
    4.0740   30.7530  -12.3530 O   0  0  0  0  0  0  0  0  0  0  0  0
    3.2460   28.3180  -11.9170 O   0  0  0  0  0  0  0  0  0  0  0  0
    4.4952   31.4685   -3.9958 H   0  0  0  0  0  0  0  0  0  0  0  0
    2.6835   31.8466   -3.7917 H   0  0  0  0  0  0  0  0  0  0  0  0
    2.9938   33.0839   -1.9348 H   0  0  0  0  0  0  0  0  0  0  0  0
    4.2335   31.7811   -1.7283 H   0  0  0  0  0  0  0  0  0  0  0  0
    6.1626   35.2969   -3.2593 H   0  0  0  0  0  0  0  0  0  0  0  0
    4.3579   36.0166   -5.8221 H   0  0  0  0  0  0  0  0  0  0  0  0
    6.0951   35.8713   -5.3319 H   0  0  0  0  0  0  0  0  0  0  0  0
    5.5167   35.3567   -7.7662 H   0  0  0  0  0  0  0  0  0  0  0  0
    6.4958   34.1345   -6.8342 H   0  0  0  0  0  0  0  0  0  0  0  0
    3.5473   34.0037   -7.5346 H   0  0  0  0  0  0  0  0  0  0  0  0
    5.2046   32.1094   -5.8852 H   0  0  0  0  0  0  0  0  0  0  0  0
    4.8387   30.1379   -7.5717 H   0  0  0  0  0  0  0  0  0  0  0  0
    3.1084   29.9907   -8.1755 H   0  0  0  0  0  0  0  0  0  0  0  0
    3.4703   30.6310   -5.6844 H   0  0  0  0  0  0  0  0  0  0  0  0
    6.0043   32.3581   -7.9438 H   0  0  0  0  0  0  0  0  0  0  0  0
    4.7110   34.2806   -9.8885 H   0  0  0  0  0  0  0  0  0  0  0  0
    6.4292   34.0225   -9.5736 H   0  0  0  0  0  0  0  0  0  0  0  0
    4.8121   32.7747  -11.6121 H   0  0  0  0  0  0  0  0  0  0  0  0
    6.4988   32.3811  -11.2339 H   0  0  0  0  0  0  0  0  0  0  0  0
    2.2284   32.4695   -8.6397 H   0  0  0  0  0  0  0  0  0  0  0  0
    3.0686   33.0869  -10.1024 H   0  0  0  0  0  0  0  0  0  0  0  0
    2.3621   31.4354  -10.1024 H   0  0  0  0  0  0  0  0  0  0  0  0
    2.0092   34.2179   -4.0280 H   0  0  0  0  0  0  0  0  0  0  0  0
    2.5845   34.9288   -5.5740 H   0  0  0  0  0  0  0  0  0  0  0  0
    1.7381   33.3444   -5.5740 H   0  0  0  0  0  0  0  0  0  0  0  0
    4.8840   28.3487  -10.6587 H   0  0  0  0  0  0  0  0  0  0  0  0
    3.3420   28.9542   -9.9560 H   0  0  0  0  0  0  0  0  0  0  0  0
    1.5466   31.6525   -5.7713 H   0  0  0  0  0  0  0  0  0  0  0  0
    6.2721   30.4504   -8.7934 H   0  0  0  0  0  0  0  0  0  0  0  0
    2.5459   27.7280  -11.5403 H   0  0  0  0  0  0  0  0  0  0  0  0
  1  2  1  0
  2  3  1  0
  3  4  1  0
  4  5  2  0
  5  6  1  0
  6  7  1  0
  7  8  1  0
  8  9  1  0
  1 10  1  0
  5 10  1  0
  9 10  1  0
  9 12  1  0
 11 12  1  0
 11 13  1  0
  8 14  1  0
 13 14  1  0
 14 15  1  0
 15 16  1  0
 13 17  1  0
 16 17  1  0
 13 18  1  6
 10 19  1  6
 17 20  1  0
 20 21  1  0
  3 22  2  0
 12 23  1  0
 17 24  1  1
 20 25  2  0
 21 26  1  0
  1 27  1  0
  1 28  1  0
  2 29  1  0
  2 30  1  0
  4 31  1  0
  6 32  1  0
  6 33  1  0
  7 34  1  0
  7 35  1  0
  8 36  1  6
  9 37  1  1
 11 38  1  0
 11 39  1  0
 12 40  1  1
 14 41  1  1
 15 42  1  0
 15 43  1  0
 16 44  1  0
 16 45  1  0
 18 46  1  0
 18 47  1  0
 18 48  1  0
 19 49  1  0
 19 50  1  0
 19 51  1  0
 21 52  1  0
 21 53  1  0
 23 54  1  0
 24 55  1  0
 26 56  1  0
M  END
$$$$
