PDB_DB08910_94
     RDKit          3D

 31 33  0  0  0  0  0  0  0  0999 V2000
   29.6590   21.5170  -10.0600 C   0  0  0  0  0  0  0  0  0  0  0  0
   30.1790   21.5220   -8.7630 C   0  0  0  0  0  0  0  0  0  0  0  0
   29.4880   20.9160   -7.7260 C   0  0  0  0  0  0  0  0  0  0  0  0
   28.2570   20.3260   -8.0000 C   0  0  0  0  0  0  0  0  0  0  0  0
   27.7360   20.3280   -9.2630 C   0  0  0  0  0  0  0  0  0  0  0  0
   28.4310   20.9010  -10.3260 C   0  0  0  0  0  0  0  0  0  0  0  0
   27.3380   19.6930   -7.1970 C   0  0  0  0  0  0  0  0  0  0  0  0
   26.2660   19.2840   -7.8880 N   0  0  0  0  0  0  0  0  0  0  0  0
   26.5510   19.6350   -9.0960 C   0  0  0  0  0  0  0  0  0  0  0  0
   27.9540   20.9140  -11.6130 N   0  0  0  0  0  0  0  0  0  0  0  0
   25.6650   19.4120  -10.0990 O   0  0  0  0  0  0  0  0  0  0  0  0
   25.2150   18.4320   -7.3590 C   0  0  1  0  0  0  0  0  0  0  0  0
   27.4540   19.3930   -5.8330 O   0  0  0  0  0  0  0  0  0  0  0  0
   23.9380   19.2290   -7.3280 C   0  0  0  0  0  0  0  0  0  0  0  0
   24.9940   17.1640   -8.1450 C   0  0  0  0  0  0  0  0  0  0  0  0
   23.7980   16.5840   -8.2490 N   0  0  0  0  0  0  0  0  0  0  0  0
   22.7000   17.0070   -7.5920 C   0  0  0  0  0  0  0  0  0  0  0  0
   22.8350   18.3200   -6.8540 C   0  0  0  0  0  0  0  0  0  0  0  0
   26.0340   16.5720   -8.6980 O   0  0  0  0  0  0  0  0  0  0  0  0
   21.6810   16.3460   -7.5790 O   0  0  0  0  0  0  0  0  0  0  0  0
   30.2175   21.9995  -10.8756 H   0  0  0  0  0  0  0  0  0  0  0  0
   31.1441   22.0107   -8.5637 H   0  0  0  0  0  0  0  0  0  0  0  0
   29.9034   20.9014   -6.7075 H   0  0  0  0  0  0  0  0  0  0  0  0
   27.0524   20.4669  -11.8326 H   0  0  0  0  0  0  0  0  0  0  0  0
   28.4976   21.3708  -12.3591 H   0  0  0  0  0  0  0  0  0  0  0  0
   25.5300   18.1125   -6.3547 H   0  0  0  0  0  0  0  0  0  0  0  0
   24.0446   20.0785   -6.6374 H   0  0  0  0  0  0  0  0  0  0  0  0
   23.7071   19.6208   -8.3296 H   0  0  0  0  0  0  0  0  0  0  0  0
   23.7080   15.7652   -8.8673 H   0  0  0  0  0  0  0  0  0  0  0  0
   23.0171   18.0934   -5.7931 H   0  0  0  0  0  0  0  0  0  0  0  0
   21.8981   18.8651   -7.0413 H   0  0  0  0  0  0  0  0  0  0  0  0
  1  2  2  0
  2  3  1  0
  3  4  2  0
  4  5  1  0
  1  6  1  0
  5  6  2  0
  4  7  1  0
  7  8  1  0
  5  9  1  0
  8  9  1  0
  6 10  1  0
  9 11  2  0
  8 12  1  0
  7 13  2  0
 12 14  1  0
 12 15  1  0
 15 16  1  0
 16 17  1  0
 14 18  1  0
 17 18  1  0
 15 19  2  0
 17 20  2  0
  1 21  1  0
  2 22  1  0
  3 23  1  0
 10 24  1  0
 10 25  1  0
 12 26  1  1
 14 27  1  0
 14 28  1  0
 16 29  1  0
 18 30  1  0
 18 31  1  0
M  END
$$$$
