PDB_DB01229_99
     RDKit          3D

290302  0  0  0  0  0  0  0  0999 V2000
   92.5770   50.6300   87.5350 O   0  0  0  0  0  0  0  0  0  0  0  0
   92.9900   50.1640   86.2440 C   0  0  1  0  0  0  0  0  0  0  0  0
   93.2850   48.5440   86.4350 C   0  0  1  0  0  0  0  0  0  0  0  0
   92.1430   48.1360   87.2230 O   0  0  0  0  0  0  0  0  0  0  0  0
   92.3500   47.6560   88.4610 C   0  0  0  0  0  0  0  0  0  0  0  0
   93.4390   47.5630   88.9680 O   0  0  0  0  0  0  0  0  0  0  0  0
   91.0770   47.2510   89.1130 C   0  0  0  0  0  0  0  0  0  0  0  0
   89.8650   47.3950   88.4430 C   0  0  0  0  0  0  0  0  0  0  0  0
   88.6820   46.9950   89.0410 C   0  0  0  0  0  0  0  0  0  0  0  0
   88.6930   46.4520   90.3100 C   0  0  0  0  0  0  0  0  0  0  0  0
   89.8880   46.3100   90.9850 C   0  0  0  0  0  0  0  0  0  0  0  0
   91.0760   46.7070   90.3930 C   0  0  0  0  0  0  0  0  0  0  0  0
   93.5320   47.6160   85.1510 C   0  0  2  0  0  0  0  0  0  0  0  0
   92.5220   46.3380   84.9930 C   0  0  2  0  0  0  0  0  0  0  0  0
   91.1350   46.7980   84.9320 O   0  0  0  0  0  0  0  0  0  0  0  0
   90.5870   47.4580   83.8800 C   0  0  0  0  0  0  0  0  0  0  0  0
   91.1750   47.7680   82.8840 O   0  0  0  0  0  0  0  0  0  0  0  0
   89.1530   47.7390   84.1640 C   0  0  0  0  0  0  0  0  0  0  0  0
   92.4900   45.1650   86.0000 C   0  0  0  0  0  0  0  0  0  0  0  0
   92.4540   44.2010   84.9410 O   0  0  0  0  0  0  0  0  0  0  0  0
   92.8980   45.2180   83.9980 C   0  0  2  0  0  0  0  0  0  0  0  0
   94.3450   45.0830   83.5920 C   0  0  0  0  0  0  0  0  0  0  0  0
   95.0280   46.4390   83.4580 C   0  0  2  0  0  0  0  0  0  0  0  0
   96.3560   46.2480   82.9640 O   0  0  0  0  0  0  0  0  0  0  0  0
   95.0630   47.2650   84.7740 C   0  0  2  0  0  0  0  0  0  0  0  0
   95.8540   46.5500   85.8800 C   0  0  0  0  0  0  0  0  0  0  0  0
   96.0640   48.3930   84.3290 C   0  0  0  0  0  0  0  0  0  0  0  0
   97.2210   48.0500   84.2600 O   0  0  0  0  0  0  0  0  0  0  0  0
   95.8020   50.0400   83.9090 C   0  0  2  0  0  0  0  0  0  0  0  0
   97.0560   50.7310   84.1830 O   0  0  0  0  0  0  0  0  0  0  0  0
   97.3520   51.8260   83.4550 C   0  0  0  0  0  0  0  0  0  0  0  0
   96.6560   52.2330   82.5710 O   0  0  0  0  0  0  0  0  0  0  0  0
   98.6370   52.4330   83.9040 C   0  0  0  0  0  0  0  0  0  0  0  0
   94.5300   50.8030   84.3340 C   0  0  1  0  0  0  0  0  0  0  0  0
   93.4880   50.8320   83.4720 C   0  0  0  0  0  0  0  0  0  0  0  0
   92.0750   51.0860   83.9650 C   0  0  1  0  0  0  0  0  0  0  0  0
   90.9890   50.7090   83.0660 O   0  0  0  0  0  0  0  0  0  0  0  0
   90.3220   51.7110   82.4710 C   0  0  0  0  0  0  0  0  0  0  0  0
   90.6140   52.8700   82.5640 O   0  0  0  0  0  0  0  0  0  0  0  0
   89.1350   51.2020   81.6710 C   0  0  2  0  0  0  0  0  0  0  0  0
   88.7600   52.1800   80.7180 O   0  0  0  0  0  0  0  0  0  0  0  0
   87.9700   50.9290   82.6080 C   0  0  1  0  0  0  0  0  0  0  0  0
   87.8270   52.0400   83.5390 N   0  0  0  0  0  0  0  0  0  0  0  0
   87.9290   51.8480   84.8600 C   0  0  0  0  0  0  0  0  0  0  0  0
   88.0410   50.7280   85.3510 O   0  0  0  0  0  0  0  0  0  0  0  0
   87.9180   53.0690   85.7230 C   0  0  0  0  0  0  0  0  0  0  0  0
   86.8270   53.9320   85.7270 C   0  0  0  0  0  0  0  0  0  0  0  0
   86.8140   55.0420   86.5530 C   0  0  0  0  0  0  0  0  0  0  0  0
   87.8870   55.3090   87.3770 C   0  0  0  0  0  0  0  0  0  0  0  0
   88.9780   54.4650   87.3760 C   0  0  0  0  0  0  0  0  0  0  0  0
   88.9980   53.3500   86.5560 C   0  0  0  0  0  0  0  0  0  0  0  0
   86.6900   50.6110   81.8640 C   0  0  0  0  0  0  0  0  0  0  0  0
   86.4640   49.3380   81.3580 C   0  0  0  0  0  0  0  0  0  0  0  0
   85.2960   49.0470   80.6740 C   0  0  0  0  0  0  0  0  0  0  0  0
   84.3410   50.0210   80.4880 C   0  0  0  0  0  0  0  0  0  0  0  0
   84.5520   51.2880   80.9860 C   0  0  0  0  0  0  0  0  0  0  0  0
   85.7180   51.5830   81.6700 C   0  0  0  0  0  0  0  0  0  0  0  0
   91.7920   50.4240   85.3090 C   0  0  0  0  0  0  0  0  0  0  0  0
   93.6290   50.6150   81.9950 C   0  0  0  0  0  0  0  0  0  0  0  0
   94.3320   50.9860   85.8880 C   0  0  1  0  0  0  0  0  0  0  0  0
   94.3840   52.4460   86.3630 C   0  0  0  0  0  0  0  0  0  0  0  0
   95.3650   50.5500   86.9360 C   0  0  0  0  0  0  0  0  0  0  0  0
   65.0160   85.8770   97.0810 O   0  0  0  0  0  0  0  0  0  0  0  0
   65.1570   85.2560   95.7970 C   0  0  1  0  0  0  0  0  0  0  0  0
   64.6410   83.7010   95.9910 C   0  0  1  0  0  0  0  0  0  0  0  0
   63.4530   83.8860   96.7950 O   0  0  0  0  0  0  0  0  0  0  0  0
   63.4280   83.3750   98.0380 C   0  0  0  0  0  0  0  0  0  0  0  0
   64.3600   82.8050   98.5450 O   0  0  0  0  0  0  0  0  0  0  0  0
   62.1120   83.5920   98.6930 C   0  0  0  0  0  0  0  0  0  0  0  0
   61.0900   84.2530   98.0180 C   0  0  0  0  0  0  0  0  0  0  0  0
   59.8580   84.4390   98.6220 C   0  0  0  0  0  0  0  0  0  0  0  0
   59.6320   83.9710   99.9000 C   0  0  0  0  0  0  0  0  0  0  0  0
   60.6390   83.3180  100.5800 C   0  0  0  0  0  0  0  0  0  0  0  0
   61.8740   83.1280   99.9830 C   0  0  0  0  0  0  0  0  0  0  0  0
   64.3880   82.7800   94.7040 C   0  0  2  0  0  0  0  0  0  0  0  0
   62.8860   82.1370   94.5790 C   0  0  2  0  0  0  0  0  0  0  0  0
   61.8810   83.2000   94.5300 O   0  0  0  0  0  0  0  0  0  0  0  0
   61.6890   84.0320   93.4740 C   0  0  0  0  0  0  0  0  0  0  0  0
   62.3510   84.0370   92.4760 O   0  0  0  0  0  0  0  0  0  0  0  0
   60.5370   84.9330   93.7530 C   0  0  0  0  0  0  0  0  0  0  0  0
   62.3280   81.1130   95.5970 C   0  0  0  0  0  0  0  0  0  0  0  0
   61.8080   80.2900   94.5470 O   0  0  0  0  0  0  0  0  0  0  0  0
   62.6570   80.9770   93.5850 C   0  0  2  0  0  0  0  0  0  0  0  0
   63.8520   80.1700   93.1420 C   0  0  0  0  0  0  0  0  0  0  0  0
   65.0900   81.0420   92.9740 C   0  0  2  0  0  0  0  0  0  0  0  0
   66.1500   80.2470   92.4360 O   0  0  0  0  0  0  0  0  0  0  0  0
   65.5550   81.7450   94.2800 C   0  0  2  0  0  0  0  0  0  0  0  0
   65.9440   80.7330   95.3680 C   0  0  0  0  0  0  0  0  0  0  0  0
   66.9580   82.2610   93.7950 C   0  0  0  0  0  0  0  0  0  0  0  0
   67.7960   81.4000   93.6670 O   0  0  0  0  0  0  0  0  0  0  0  0
   67.5250   83.8320   93.4010 C   0  0  2  0  0  0  0  0  0  0  0  0
   68.9630   83.8080   93.6550 O   0  0  0  0  0  0  0  0  0  0  0  0
   69.7610   84.6710   92.9950 C   0  0  0  0  0  0  0  0  0  0  0  0
   69.3570   85.4390   92.1710 O   0  0  0  0  0  0  0  0  0  0  0  0
   71.1780   84.5270   93.4310 C   0  0  0  0  0  0  0  0  0  0  0  0
   66.7980   85.1030   93.8760 C   0  0  1  0  0  0  0  0  0  0  0  0
   65.9430   85.7070   93.0220 C   0  0  0  0  0  0  0  0  0  0  0  0
   64.7880   86.5450   93.5390 C   0  0  1  0  0  0  0  0  0  0  0  0
   63.6650   86.7270   92.6290 O   0  0  0  0  0  0  0  0  0  0  0  0
   63.5100   87.9530   92.1040 C   0  0  0  0  0  0  0  0  0  0  0  0
   64.2740   88.8620   92.2670 O   0  0  0  0  0  0  0  0  0  0  0  0
   62.2340   88.0600   91.2940 C   0  0  2  0  0  0  0  0  0  0  0  0
   62.3420   89.1320   90.3750 O   0  0  0  0  0  0  0  0  0  0  0  0
   61.0680   88.3180   92.2280 C   0  0  1  0  0  0  0  0  0  0  0  0
   61.4230   89.3570   93.1860 N   0  0  0  0  0  0  0  0  0  0  0  0
   61.4630   89.1010   94.5000 C   0  0  0  0  0  0  0  0  0  0  0  0
   61.1200   88.0180   94.9660 O   0  0  0  0  0  0  0  0  0  0  0  0
   61.9640   90.1950   95.3860 C   0  0  0  0  0  0  0  0  0  0  0  0
   61.3150   91.4240   95.4370 C   0  0  0  0  0  0  0  0  0  0  0  0
   61.7630   92.4190   96.2880 C   0  0  0  0  0  0  0  0  0  0  0  0
   62.8660   92.2060   97.0880 C   0  0  0  0  0  0  0  0  0  0  0  0
   63.5240   90.9950   97.0390 C   0  0  0  0  0  0  0  0  0  0  0  0
   63.0790   89.9920   96.1950 C   0  0  0  0  0  0  0  0  0  0  0  0
   59.8010   88.6300   91.4600 C   0  0  0  0  0  0  0  0  0  0  0  0
   59.1200   87.6260   90.7840 C   0  0  0  0  0  0  0  0  0  0  0  0
   57.9630   87.9090   90.0790 C   0  0  0  0  0  0  0  0  0  0  0  0
   57.4720   89.1950   90.0410 C   0  0  0  0  0  0  0  0  0  0  0  0
   58.1380   90.2010   90.7070 C   0  0  0  0  0  0  0  0  0  0  0  0
   59.2950   89.9220   91.4130 C   0  0  0  0  0  0  0  0  0  0  0  0
   64.2160   86.0350   94.8570 C   0  0  0  0  0  0  0  0  0  0  0  0
   66.0480   85.5960   91.5300 C   0  0  0  0  0  0  0  0  0  0  0  0
   66.7260   85.3330   95.4330 C   0  0  1  0  0  0  0  0  0  0  0  0
   67.4740   86.5790   95.9310 C   0  0  0  0  0  0  0  0  0  0  0  0
   67.4400   84.4280   96.4450 C   0  0  0  0  0  0  0  0  0  0  0  0
   93.0395   50.1081   88.2377 H   0  0  0  0  0  0  0  0  0  0  0  0
   94.2774   48.4020   86.8878 H   0  0  0  0  0  0  0  0  0  0  0  0
   92.4547   46.6411   88.0500 H   0  0  0  0  0  0  0  0  0  0  0  0
   93.3459   47.5709   89.9536 H   0  0  0  0  0  0  0  0  0  0  0  0
   90.9676   48.2636   89.5285 H   0  0  0  0  0  0  0  0  0  0  0  0
   89.7565   48.4653   88.2135 H   0  0  0  0  0  0  0  0  0  0  0  0
   89.9641   46.6982   87.5977 H   0  0  0  0  0  0  0  0  0  0  0  0
   88.0327   47.8820   89.0821 H   0  0  0  0  0  0  0  0  0  0  0  0
   88.3558   46.1537   88.4119 H   0  0  0  0  0  0  0  0  0  0  0  0
   88.0483   47.0882   90.9342 H   0  0  0  0  0  0  0  0  0  0  0  0
   88.3680   45.4140   90.1459 H   0  0  0  0  0  0  0  0  0  0  0  0
   89.7934   46.8828   91.9194 H   0  0  0  0  0  0  0  0  0  0  0  0
   90.0014   45.2188   91.0654 H   0  0  0  0  0  0  0  0  0  0  0  0
   91.7240   45.8188   90.3590 H   0  0  0  0  0  0  0  0  0  0  0  0
   91.3973   47.5505   91.0218 H   0  0  0  0  0  0  0  0  0  0  0  0
   93.2354   48.3205   84.3600 H   0  0  0  0  0  0  0  0  0  0  0  0
   90.8603   48.4189   84.3404 H   0  0  0  0  0  0  0  0  0  0  0  0
   92.0238   48.2155   83.1276 H   0  0  0  0  0  0  0  0  0  0  0  0
   88.9940   47.7702   85.2520 H   0  0  0  0  0  0  0  0  0  0  0  0
   88.8754   48.7086   83.7249 H   0  0  0  0  0  0  0  0  0  0  0  0
   88.5300   46.9459   83.7249 H   0  0  0  0  0  0  0  0  0  0  0  0
   93.3897   45.0975   86.6293 H   0  0  0  0  0  0  0  0  0  0  0  0
   91.7147   45.1419   86.7800 H   0  0  0  0  0  0  0  0  0  0  0  0
   92.4888   45.2805   82.9789 H   0  0  0  0  0  0  0  0  0  0  0  0
   94.8743   44.4923   84.3541 H   0  0  0  0  0  0  0  0  0  0  0  0
   94.3783   44.5867   82.6109 H   0  0  0  0  0  0  0  0  0  0  0  0
   94.4248   47.0284   82.7518 H   0  0  0  0  0  0  0  0  0  0  0  0
   96.9817   46.1580   83.7259 H   0  0  0  0  0  0  0  0  0  0  0  0
   95.4889   46.8800   86.8638 H   0  0  0  0  0  0  0  0  0  0  0  0
   95.7175   45.4627   85.7841 H   0  0  0  0  0  0  0  0  0  0  0  0
   96.9220   46.7953   85.7841 H   0  0  0  0  0  0  0  0  0  0  0  0
   96.2111   48.6776   85.3813 H   0  0  0  0  0  0  0  0  0  0  0  0
   97.5880   47.9412   85.1730 H   0  0  0  0  0  0  0  0  0  0  0  0
   95.5193   50.0237   82.8461 H   0  0  0  0  0  0  0  0  0  0  0  0
   97.8996   51.1996   82.7355 H   0  0  0  0  0  0  0  0  0  0  0  0
   95.8687   52.6934   82.9562 H   0  0  0  0  0  0  0  0  0  0  0  0
   98.6706   52.4489   85.0034 H   0  0  0  0  0  0  0  0  0  0  0  0
   99.4780   51.8370   83.5200 H   0  0  0  0  0  0  0  0  0  0  0  0
   98.7108   53.4612   83.5200 H   0  0  0  0  0  0  0  0  0  0  0  0
   94.7418   51.8608   84.1190 H   0  0  0  0  0  0  0  0  0  0  0  0
   93.3424   49.7507   83.6117 H   0  0  0  0  0  0  0  0  0  0  0  0
   92.0736   52.1834   84.0407 H   0  0  0  0  0  0  0  0  0  0  0  0
   89.6731   51.8036   83.3544 H   0  0  0  0  0  0  0  0  0  0  0  0
   90.6767   53.1188   83.5202 H   0  0  0  0  0  0  0  0  0  0  0  0
   89.4101   50.2711   81.1537 H   0  0  0  0  0  0  0  0  0  0  0  0
   88.4477   52.9944   81.1863 H   0  0  0  0  0  0  0  0  0  0  0  0
   88.1893   50.0211   83.1890 H   0  0  0  0  0  0  0  0  0  0  0  0
   88.5495   52.7292   83.2862 H   0  0  0  0  0  0  0  0  0  0  0  0
   86.8342   51.7706   84.9333 H   0  0  0  0  0  0  0  0  0  0  0  0
   88.0340   50.7984   86.3385 H   0  0  0  0  0  0  0  0  0  0  0  0
   88.3742   53.6495   84.9075 H   0  0  0  0  0  0  0  0  0  0  0  0
   86.7149   54.3035   84.6977 H   0  0  0  0  0  0  0  0  0  0  0  0
   86.0190   53.3083   86.1371 H   0  0  0  0  0  0  0  0  0  0  0  0
   86.6899   55.9195   85.9013 H   0  0  0  0  0  0  0  0  0  0  0  0
   86.0048   54.8152   87.2628 H   0  0  0  0  0  0  0  0  0  0  0  0
   88.2570   56.3084   87.1045 H   0  0  0  0  0  0  0  0  0  0  0  0
   87.4699   55.1859   88.3874 H   0  0  0  0  0  0  0  0  0  0  0  0
   89.8500   55.0760   87.0999 H   0  0  0  0  0  0  0  0  0  0  0  0
   88.9585   54.0310   88.3866 H   0  0  0  0  0  0  0  0  0  0  0  0
   89.1254   52.4771   87.2131 H   0  0  0  0  0  0  0  0  0  0  0  0
   89.8069   53.5778   85.8462 H   0  0  0  0  0  0  0  0  0  0  0  0
   87.1679   50.9025   80.9171 H   0  0  0  0  0  0  0  0  0  0  0  0
   87.2939   49.1217   80.6692 H   0  0  0  0  0  0  0  0  0  0  0  0
   86.3755   48.7247   82.2669 H   0  0  0  0  0  0  0  0  0  0  0  0
   85.5933   48.7000   79.6734 H   0  0  0  0  0  0  0  0  0  0  0  0
   84.7924   48.3253   81.3340 H   0  0  0  0  0  0  0  0  0  0  0  0
   84.1985   50.1247   79.4022 H   0  0  0  0  0  0  0  0  0  0  0  0
   83.4847   49.6551   81.0735 H   0  0  0  0  0  0  0  0  0  0  0  0
   84.5050   51.9765   80.1294 H   0  0  0  0  0  0  0  0  0  0  0  0
   83.7766   51.3847   81.7603 H   0  0  0  0  0  0  0  0  0  0  0  0
   85.4170   51.9304   82.6693 H   0  0  0  0  0  0  0  0  0  0  0  0
   86.2184   52.3014   81.0041 H   0  0  0  0  0  0  0  0  0  0  0  0
   91.3180   49.4528   85.1039 H   0  0  0  0  0  0  0  0  0  0  0  0
   91.1674   51.1492   85.8511 H   0  0  0  0  0  0  0  0  0  0  0  0
   94.2201   49.7054   81.8128 H   0  0  0  0  0  0  0  0  0  0  0  0
   92.6321   50.5009   81.5443 H   0  0  0  0  0  0  0  0  0  0  0  0
   94.1383   51.4796   81.5443 H   0  0  0  0  0  0  0  0  0  0  0  0
   94.3850   52.4740   87.4626 H   0  0  0  0  0  0  0  0  0  0  0  0
   95.2997   52.9227   85.9832 H   0  0  0  0  0  0  0  0  0  0  0  0
   93.5045   52.9867   85.9832 H   0  0  0  0  0  0  0  0  0  0  0  0
   94.9594   50.7212   87.9440 H   0  0  0  0  0  0  0  0  0  0  0  0
   95.5888   49.4807   86.8075 H   0  0  0  0  0  0  0  0  0  0  0  0
   96.2873   51.1356   86.8075 H   0  0  0  0  0  0  0  0  0  0  0  0
   65.1687   85.2045   97.7913 H   0  0  0  0  0  0  0  0  0  0  0  0
   65.4491   83.0999   96.4333 H   0  0  0  0  0  0  0  0  0  0  0  0
   63.0610   82.4185   97.6374 H   0  0  0  0  0  0  0  0  0  0  0  0
   64.2802   82.8538   99.5306 H   0  0  0  0  0  0  0  0  0  0  0  0
   62.4693   84.5525   99.0926 H   0  0  0  0  0  0  0  0  0  0  0  0
   61.4728   85.2532   97.7669 H   0  0  0  0  0  0  0  0  0  0  0  0
   60.8590   83.5707   97.1867 H   0  0  0  0  0  0  0  0  0  0  0  0
   59.6783   85.5240   98.6462 H   0  0  0  0  0  0  0  0  0  0  0  0
   59.1835   83.8242   98.0080 H   0  0  0  0  0  0  0  0  0  0  0  0
   59.3466   84.8398  100.5113 H   0  0  0  0  0  0  0  0  0  0  0  0
   58.8739   83.1874   99.7538 H   0  0  0  0  0  0  0  0  0  0  0  0
   60.8183   83.8879  101.5036 H   0  0  0  0  0  0  0  0  0  0  0  0
   60.2497   82.2942  100.6811 H   0  0  0  0  0  0  0  0  0  0  0  0
   62.0525   82.0427   99.9659 H   0  0  0  0  0  0  0  0  0  0  0  0
   62.5444   83.7473  100.5971 H   0  0  0  0  0  0  0  0  0  0  0  0
   64.4500   83.5512   93.9221 H   0  0  0  0  0  0  0  0  0  0  0  0
   62.3695   84.7667   93.9291 H   0  0  0  0  0  0  0  0  0  0  0  0
   63.3112   84.0443   92.7170 H   0  0  0  0  0  0  0  0  0  0  0  0
   60.4064   85.0352   94.8404 H   0  0  0  0  0  0  0  0  0  0  0  0
   60.7301   85.9222   93.3124 H   0  0  0  0  0  0  0  0  0  0  0  0
   59.6234   84.5073   93.3124 H   0  0  0  0  0  0  0  0  0  0  0  0
   63.1047   80.6214   96.2012 H   0  0  0  0  0  0  0  0  0  0  0  0
   61.6578   81.4562   96.3989 H   0  0  0  0  0  0  0  0  0  0  0  0
   62.3006   81.2325   92.5762 H   0  0  0  0  0  0  0  0  0  0  0  0
   64.0600   79.3973   93.8968 H   0  0  0  0  0  0  0  0  0  0  0  0
   63.6173   79.7164   92.1677 H   0  0  0  0  0  0  0  0  0  0  0  0
   64.8164   81.8540   92.2842 H   0  0  0  0  0  0  0  0  0  0  0  0
   66.6755   79.8529   93.1767 H   0  0  0  0  0  0  0  0  0  0  0  0
   65.7733   81.1771   96.3598 H   0  0  0  0  0  0  0  0  0  0  0  0
   65.3303   79.8263   95.2617 H   0  0  0  0  0  0  0  0  0  0  0  0
   67.0070   80.4708   95.2617 H   0  0  0  0  0  0  0  0  0  0  0  0
   67.2664   82.4056   94.8409 H   0  0  0  0  0  0  0  0  0  0  0  0
   68.0938   81.0940   94.5602 H   0  0  0  0  0  0  0  0  0  0  0  0
   67.2555   83.9894   92.3462 H   0  0  0  0  0  0  0  0  0  0  0  0
   69.9275   83.9175   92.2111 H   0  0  0  0  0  0  0  0  0  0  0  0
   68.9464   86.2196   92.6206 H   0  0  0  0  0  0  0  0  0  0  0  0
   71.2248   84.5222   94.5300 H   0  0  0  0  0  0  0  0  0  0  0  0
   71.5870   83.5827   93.0425 H   0  0  0  0  0  0  0  0  0  0  0  0
   71.7686   85.3697   93.0425 H   0  0  0  0  0  0  0  0  0  0  0  0
   67.5195   85.9165   93.7098 H   0  0  0  0  0  0  0  0  0  0  0  0
   65.3005   84.8142   93.0338 H   0  0  0  0  0  0  0  0  0  0  0  0
   65.2808   87.5199   93.6680 H   0  0  0  0  0  0  0  0  0  0  0  0
   62.9487   88.2646   92.9973 H   0  0  0  0  0  0  0  0  0  0  0  0
   64.4027   89.0151   93.2366 H   0  0  0  0  0  0  0  0  0  0  0  0
   62.0704   87.1214   90.7442 H   0  0  0  0  0  0  0  0  0  0  0  0
   62.4279   89.9845   90.8710 H   0  0  0  0  0  0  0  0  0  0  0  0
   60.8528   87.4020   92.7978 H   0  0  0  0  0  0  0  0  0  0  0  0
   62.3624   89.6881   92.9237 H   0  0  0  0  0  0  0  0  0  0  0  0
   60.4326   89.4719   94.6036 H   0  0  0  0  0  0  0  0  0  0  0  0
   61.1348   88.0646   95.9548 H   0  0  0  0  0  0  0  0  0  0  0  0
   62.6007   90.5651   94.5689 H   0  0  0  0  0  0  0  0  0  0  0  0
   61.3483   91.8407   94.4195 H   0  0  0  0  0  0  0  0  0  0  0  0
   60.3298   91.1669   95.8532 H   0  0  0  0  0  0  0  0  0  0  0  0
   61.9920   93.2926   95.6600 H   0  0  0  0  0  0  0  0  0  0  0  0
   60.9425   92.5141   97.0145 H   0  0  0  0  0  0  0  0  0  0  0  0
   63.6030   92.9798   96.8272 H   0  0  0  0  0  0  0  0  0  0  0  0
   62.4511   92.2301   98.1065 H   0  0  0  0  0  0  0  0  0  0  0  0
   64.5636   91.2115   96.7521 H   0  0  0  0  0  0  0  0  0  0  0  0
   63.3483   90.5748   98.0403 H   0  0  0  0  0  0  0  0  0  0  0  0
   62.8544   89.1220   96.8296 H   0  0  0  0  0  0  0  0  0  0  0  0
   63.8992   89.8967   95.4683 H   0  0  0  0  0  0  0  0  0  0  0  0
   60.3975   88.8326   90.5582 H   0  0  0  0  0  0  0  0  0  0  0  0
   59.8301   87.1951   90.0628 H   0  0  0  0  0  0  0  0  0  0  0  0
   58.7593   86.9819   91.5995 H   0  0  0  0  0  0  0  0  0  0  0  0
   58.1461   87.6091   89.0366 H   0  0  0  0  0  0  0  0  0  0  0  0
   57.1892   87.3617   90.6372 H   0  0  0  0  0  0  0  0  0  0  0  0
   57.4284   89.4884   88.9818 H   0  0  0  0  0  0  0  0  0  0  0  0
   56.5165   89.1199   90.5808 H   0  0  0  0  0  0  0  0  0  0  0  0
   58.4016   90.9584   89.9541 H   0  0  0  0  0  0  0  0  0  0  0  0
   57.4280   90.4923   91.4950 H   0  0  0  0  0  0  0  0  0  0  0  0
   59.1090   90.2249   92.4540 H   0  0  0  0  0  0  0  0  0  0  0  0
   60.0653   90.4673   90.8480 H   0  0  0  0  0  0  0  0  0  0  0  0
   63.3730   85.3716   94.6136 H   0  0  0  0  0  0  0  0  0  0  0  0
   63.9579   86.9459   95.4171 H   0  0  0  0  0  0  0  0  0  0  0  0
   66.7827   84.8194   91.2709 H   0  0  0  0  0  0  0  0  0  0  0  0
   65.0667   85.3264   91.1124 H   0  0  0  0  0  0  0  0  0  0  0  0
   66.3717   86.5608   91.1124 H   0  0  0  0  0  0  0  0  0  0  0  0
   67.4795   86.5881   97.0309 H   0  0  0  0  0  0  0  0  0  0  0  0
   68.5091   86.5582   95.5593 H   0  0  0  0  0  0  0  0  0  0  0  0
   66.9690   87.4828   95.5593 H   0  0  0  0  0  0  0  0  0  0  0  0
   67.1869   84.7488   97.4663 H   0  0  0  0  0  0  0  0  0  0  0  0
   67.1175   83.3868   96.2972 H   0  0  0  0  0  0  0  0  0  0  0  0
   68.5277   84.4994   96.2972 H   0  0  0  0  0  0  0  0  0  0  0  0
  2  1  1  1
  2  3  1  0
  3  4  1  0
  4  5  1  0
  5  6  1  0
  5  7  1  0
  7  8  1  0
  8  9  1  0
  9 10  1  0
 10 11  1  0
  7 12  1  0
 11 12  1  0
  3 13  1  0
 13 14  1  0
 14 15  1  6
 15 16  1  0
 16 17  1  0
 16 18  1  0
 14 19  1  0
 19 20  1  0
 14 21  1  0
 20 21  1  0
 21 22  1  0
 22 23  1  0
 23 24  1  0
 13 25  1  0
 23 25  1  0
 25 26  1  1
 25 27  1  0
 27 28  1  0
 27 29  1  0
 29 30  1  0
 30 31  1  0
 31 32  1  0
 31 33  1  0
 29 34  1  0
 34 35  1  0
 35 36  1  0
 36 37  1  0
 37 38  1  0
 38 39  1  0
 38 40  1  0
 40 41  1  0
 40 42  1  0
 42 43  1  0
 43 44  1  0
 44 45  1  0
 44 46  1  0
 46 47  1  0
 47 48  1  0
 48 49  1  0
 49 50  1  0
 46 51  1  0
 50 51  1  0
 42 52  1  0
 52 53  1  0
 53 54  1  0
 54 55  1  0
 55 56  1  0
 52 57  1  0
 56 57  1  0
  2 58  1  0
 36 58  1  0
 35 59  1  0
  2 60  1  0
 34 60  1  0
 60 61  1  6
 60 62  1  0
 64 63  1  1
 64 65  1  0
 65 66  1  0
 66 67  1  0
 67 68  1  0
 67 69  1  0
 69 70  1  0
 70 71  1  0
 71 72  1  0
 72 73  1  0
 69 74  1  0
 73 74  1  0
 65 75  1  0
 75 76  1  0
 76 77  1  6
 77 78  1  0
 78 79  1  0
 78 80  1  0
 76 81  1  0
 81 82  1  0
 76 83  1  0
 82 83  1  0
 83 84  1  0
 84 85  1  0
 85 86  1  0
 75 87  1  0
 85 87  1  0
 87 88  1  1
 87 89  1  0
 89 90  1  0
 89 91  1  0
 91 92  1  0
 92 93  1  0
 93 94  1  0
 93 95  1  0
 91 96  1  0
 96 97  1  0
 97 98  1  0
 98 99  1  0
 99100  1  0
100101  1  0
100102  1  0
102103  1  0
102104  1  0
104105  1  0
105106  1  0
106107  1  0
106108  1  0
108109  1  0
109110  1  0
110111  1  0
111112  1  0
108113  1  0
112113  1  0
104114  1  0
114115  1  0
115116  1  0
116117  1  0
117118  1  0
114119  1  0
118119  1  0
 64120  1  0
 98120  1  0
 97121  1  0
 64122  1  0
 96122  1  0
122123  1  6
122124  1  0
  1125  1  0
  3126  1  1
  5127  1  0
  6128  1  0
  7129  1  0
  8130  1  0
  8131  1  0
  9132  1  0
  9133  1  0
 10134  1  0
 10135  1  0
 11136  1  0
 11137  1  0
 12138  1  0
 12139  1  0
 13140  1  6
 16141  1  0
 17142  1  0
 18143  1  0
 18144  1  0
 18145  1  0
 19146  1  0
 19147  1  0
 21148  1  6
 22149  1  0
 22150  1  0
 23151  1  6
 24152  1  0
 26153  1  0
 26154  1  0
 26155  1  0
 27156  1  0
 28157  1  0
 29158  1  6
 31159  1  0
 32160  1  0
 33161  1  0
 33162  1  0
 33163  1  0
 34164  1  6
 35165  1  0
 36166  1  1
 38167  1  0
 39168  1  0
 40169  1  6
 41170  1  0
 42171  1  1
 43172  1  0
 44173  1  0
 45174  1  0
 46175  1  0
 47176  1  0
 47177  1  0
 48178  1  0
 48179  1  0
 49180  1  0
 49181  1  0
 50182  1  0
 50183  1  0
 51184  1  0
 51185  1  0
 52186  1  0
 53187  1  0
 53188  1  0
 54189  1  0
 54190  1  0
 55191  1  0
 55192  1  0
 56193  1  0
 56194  1  0
 57195  1  0
 57196  1  0
 58197  1  0
 58198  1  0
 59199  1  0
 59200  1  0
 59201  1  0
 61202  1  0
 61203  1  0
 61204  1  0
 62205  1  0
 62206  1  0
 62207  1  0
 63208  1  0
 65209  1  1
 67210  1  0
 68211  1  0
 69212  1  0
 70213  1  0
 70214  1  0
 71215  1  0
 71216  1  0
 72217  1  0
 72218  1  0
 73219  1  0
 73220  1  0
 74221  1  0
 74222  1  0
 75223  1  6
 78224  1  0
 79225  1  0
 80226  1  0
 80227  1  0
 80228  1  0
 81229  1  0
 81230  1  0
 83231  1  6
 84232  1  0
 84233  1  0
 85234  1  6
 86235  1  0
 88236  1  0
 88237  1  0
 88238  1  0
 89239  1  0
 90240  1  0
 91241  1  6
 93242  1  0
 94243  1  0
 95244  1  0
 95245  1  0
 95246  1  0
 96247  1  6
 97248  1  0
 98249  1  1
100250  1  0
101251  1  0
102252  1  6
103253  1  0
104254  1  1
105255  1  0
106256  1  0
107257  1  0
108258  1  0
109259  1  0
109260  1  0
110261  1  0
110262  1  0
111263  1  0
111264  1  0
112265  1  0
112266  1  0
113267  1  0
113268  1  0
114269  1  0
115270  1  0
115271  1  0
116272  1  0
116273  1  0
117274  1  0
117275  1  0
118276  1  0
118277  1  0
119278  1  0
119279  1  0
120280  1  0
120281  1  0
121282  1  0
121283  1  0
121284  1  0
123285  1  0
123286  1  0
123287  1  0
124288  1  0
124289  1  0
124290  1  0
M  END
>  <PDBID>  (1) 
5M50

>  <PDB ID>  (1) 
5M50

>  <Generic Name>  (1) 
Paclitaxel

>  <Brand Name>  (1) 
Abraxane#Abraxane for Injectable Suspension#Aj-paclitaxel#Apo-paclitaxel Injectable#Paclitaxel#Paclitaxel Injection#Paclitaxel Injection USP#Paclitaxel Injection, USP#Paclitaxel Paclitaxel#Paclitaxel for Injection#Paclitaxel for Injection USP#Paxene#Taxol#Teva-paclitaxel for Injection#Onxol#Paxceed

>  <DrugBank ID>  (1) 
DB01229

>  <ATC Codes>  (1) 
L01CD01

>  <Ligand ID>  (1) 
TA1

>  <Target Name>  (1) 
Tubulin beta-1 chain

>  <UniProt ID>  (1) 
Q9H4B7

>  <PDB ID.1>  (1) 
5M50

>  <Seq. Identity>  (1) 
78%

$$$$
