PDB_DB00396_96
     RDKit          3D

118124  0  0  0  0  0  0  0  0999 V2000
   17.5650   50.4360   18.3850 C   0  0  0  0  0  0  0  0  0  0  0  0
   16.5600   50.3360   19.5960 C   0  0  0  0  0  0  0  0  0  0  0  0
   15.5210   49.2270   19.3690 C   0  0  0  0  0  0  0  0  0  0  0  0
   14.4240   49.3330   19.9230 O   0  0  0  0  0  0  0  0  0  0  0  0
   15.8220   48.0460   18.5310 C   0  0  0  0  0  0  0  0  0  0  0  0
   16.9710   47.9160   17.8890 C   0  0  0  0  0  0  0  0  0  0  0  0
   17.2490   46.6230   17.0850 C   0  0  0  0  0  0  0  0  0  0  0  0
   17.9090   46.9360   15.7290 C   0  0  0  0  0  0  0  0  0  0  0  0
   19.1520   47.9250   15.8060 C   0  0  2  0  0  0  0  0  0  0  0  0
   18.6580   49.2660   16.4440 C   0  0  1  0  0  0  0  0  0  0  0  0
   18.1160   49.0410   17.8990 C   0  0  1  0  0  0  0  0  0  0  0  0
   19.8190   50.3550   16.4740 C   0  0  0  0  0  0  0  0  0  0  0  0
   20.3530   50.5540   15.0120 C   0  0  0  0  0  0  0  0  0  0  0  0
   20.9100   49.2090   14.4040 C   0  0  1  0  0  0  0  0  0  0  0  0
   19.6960   48.2120   14.3940 C   0  0  1  0  0  0  0  0  0  0  0  0
   20.2260   47.0120   13.5640 C   0  0  0  0  0  0  0  0  0  0  0  0
   21.0600   47.7320   12.4050 C   0  0  0  0  0  0  0  0  0  0  0  0
   21.2040   49.2340   12.8600 C   0  0  2  0  0  0  0  0  0  0  0  0
   22.1590   48.6790   15.2260 C   0  0  0  0  0  0  0  0  0  0  0  0
   19.2400   48.5020   18.9180 C   0  0  0  0  0  0  0  0  0  0  0  0
   22.5740   49.8490   12.5190 C   0  0  0  0  0  0  0  0  0  0  0  0
   23.4690   49.1410   12.1170 O   0  0  0  0  0  0  0  0  0  0  0  0
   22.7740   51.3250   12.6770 C   0  0  0  0  0  0  0  0  0  0  0  0
    3.5300   -7.6320   14.4980 C   0  0  0  0  0  0  0  0  0  0  0  0
    4.4990   -7.6820   15.7290 C   0  0  0  0  0  0  0  0  0  0  0  0
    5.5780   -6.5550   15.6400 C   0  0  0  0  0  0  0  0  0  0  0  0
    6.6840   -6.7380   16.2080 O   0  0  0  0  0  0  0  0  0  0  0  0
    5.2890   -5.2840   14.9280 C   0  0  0  0  0  0  0  0  0  0  0  0
    4.1280   -5.0930   14.2910 C   0  0  0  0  0  0  0  0  0  0  0  0
    3.8520   -3.7350   13.6270 C   0  0  0  0  0  0  0  0  0  0  0  0
    3.2000   -3.8750   12.2200 C   0  0  0  0  0  0  0  0  0  0  0  0
    1.9290   -4.8510   12.1900 C   0  0  2  0  0  0  0  0  0  0  0  0
    2.4190   -6.2610   12.6820 C   0  0  1  0  0  0  0  0  0  0  0  0
    2.9810   -6.2090   14.1690 C   0  0  1  0  0  0  0  0  0  0  0  0
    1.2570   -7.3210   12.6070 C   0  0  0  0  0  0  0  0  0  0  0  0
    0.6630   -7.3690   11.1580 C   0  0  0  0  0  0  0  0  0  0  0  0
    0.1200   -5.9570   10.6850 C   0  0  1  0  0  0  0  0  0  0  0  0
    1.3730   -4.9660   10.7660 C   0  0  1  0  0  0  0  0  0  0  0  0
    0.8460   -3.6370   10.0900 C   0  0  0  0  0  0  0  0  0  0  0  0
   -0.0520   -4.1970    8.9180 C   0  0  0  0  0  0  0  0  0  0  0  0
   -0.1710   -5.7780    9.1580 C   0  0  2  0  0  0  0  0  0  0  0  0
   -1.1240   -5.5030   11.5800 C   0  0  0  0  0  0  0  0  0  0  0  0
    1.8530   -5.8070   15.2420 C   0  0  0  0  0  0  0  0  0  0  0  0
   -1.5430   -6.3770    8.7440 C   0  0  0  0  0  0  0  0  0  0  0  0
   -2.4420   -5.6350    8.3820 O   0  0  0  0  0  0  0  0  0  0  0  0
   -1.7690   -7.8710    8.8080 C   0  0  0  0  0  0  0  0  0  0  0  0
   17.0462   50.9167   17.5425 H   0  0  0  0  0  0  0  0  0  0  0  0
   18.4304   51.0185   18.7339 H   0  0  0  0  0  0  0  0  0  0  0  0
   17.1252   50.1151   20.5135 H   0  0  0  0  0  0  0  0  0  0  0  0
   16.0296   51.2954   19.6872 H   0  0  0  0  0  0  0  0  0  0  0  0
   15.9099   48.6838   20.2429 H   0  0  0  0  0  0  0  0  0  0  0  0
   14.5478   49.3210   20.9052 H   0  0  0  0  0  0  0  0  0  0  0  0
   15.7377   47.1704   19.1915 H   0  0  0  0  0  0  0  0  0  0  0  0
   15.1071   48.1624   17.7031 H   0  0  0  0  0  0  0  0  0  0  0  0
   17.4184   47.4565   18.7827 H   0  0  0  0  0  0  0  0  0  0  0  0
   17.9200   45.9757   17.6688 H   0  0  0  0  0  0  0  0  0  0  0  0
   16.2893   46.1200   16.8953 H   0  0  0  0  0  0  0  0  0  0  0  0
   18.2522   45.9883   15.2884 H   0  0  0  0  0  0  0  0  0  0  0  0
   17.1452   47.4445   15.1224 H   0  0  0  0  0  0  0  0  0  0  0  0
   19.9538   47.4710   16.4068 H   0  0  0  0  0  0  0  0  0  0  0  0
   17.8375   49.6370   15.8122 H   0  0  0  0  0  0  0  0  0  0  0  0
   19.4245   51.3074   16.8578 H   0  0  0  0  0  0  0  0  0  0  0  0
   20.6348   50.0182   17.1306 H   0  0  0  0  0  0  0  0  0  0  0  0
   19.5302   50.9173   14.3787 H   0  0  0  0  0  0  0  0  0  0  0  0
   21.1772   51.2817   15.0450 H   0  0  0  0  0  0  0  0  0  0  0  0
   18.7802   48.6028   13.9265 H   0  0  0  0  0  0  0  0  0  0  0  0
   20.8716   46.3621   14.1729 H   0  0  0  0  0  0  0  0  0  0  0  0
   19.4289   46.3548   13.1863 H   0  0  0  0  0  0  0  0  0  0  0  0
   22.0507   47.2661   12.2982 H   0  0  0  0  0  0  0  0  0  0  0  0
   20.5591   47.6476   11.4293 H   0  0  0  0  0  0  0  0  0  0  0  0
   20.5034   49.8869   12.3189 H   0  0  0  0  0  0  0  0  0  0  0  0
   21.9530   48.7664   16.3030 H   0  0  0  0  0  0  0  0  0  0  0  0
   22.3442   47.6248   14.9725 H   0  0  0  0  0  0  0  0  0  0  0  0
   23.0459   49.2783   14.9725 H   0  0  0  0  0  0  0  0  0  0  0  0
   18.9041   48.6631   19.9530 H   0  0  0  0  0  0  0  0  0  0  0  0
   19.4035   47.4275   18.7486 H   0  0  0  0  0  0  0  0  0  0  0  0
   20.1802   49.0472   18.7486 H   0  0  0  0  0  0  0  0  0  0  0  0
   22.9067   49.6818   13.5541 H   0  0  0  0  0  0  0  0  0  0  0  0
   23.9563   48.7555   12.8877 H   0  0  0  0  0  0  0  0  0  0  0  0
   22.8083   51.5779   13.7470 H   0  0  0  0  0  0  0  0  0  0  0  0
   23.7203   51.6199   12.2000 H   0  0  0  0  0  0  0  0  0  0  0  0
   21.9403   51.8611   12.2000 H   0  0  0  0  0  0  0  0  0  0  0  0
    4.0734   -8.0036   13.6168 H   0  0  0  0  0  0  0  0  0  0  0  0
    2.6597   -8.2527   14.7574 H   0  0  0  0  0  0  0  0  0  0  0  0
    3.9152   -7.5487   16.6517 H   0  0  0  0  0  0  0  0  0  0  0  0
    5.0099   -8.6561   15.7329 H   0  0  0  0  0  0  0  0  0  0  0  0
    5.1805   -6.1018   16.5601 H   0  0  0  0  0  0  0  0  0  0  0  0
    6.5582   -6.7172   17.1898 H   0  0  0  0  0  0  0  0  0  0  0  0
    5.3687   -4.4824   15.6771 H   0  0  0  0  0  0  0  0  0  0  0  0
    6.0146   -5.3030   14.1015 H   0  0  0  0  0  0  0  0  0  0  0  0
    3.6756   -4.7283   15.2250 H   0  0  0  0  0  0  0  0  0  0  0  0
    3.1736   -3.1587   14.2733 H   0  0  0  0  0  0  0  0  0  0  0  0
    4.8188   -3.2269   13.4959 H   0  0  0  0  0  0  0  0  0  0  0  0
    2.8791   -2.8774   11.8857 H   0  0  0  0  0  0  0  0  0  0  0  0
    3.9590   -4.3171   11.5578 H   0  0  0  0  0  0  0  0  0  0  0  0
    1.1282   -4.4591   12.8344 H   0  0  0  0  0  0  0  0  0  0  0  0
    3.2353   -6.5618   12.0088 H   0  0  0  0  0  0  0  0  0  0  0  0
    1.6522   -8.3130   12.8710 H   0  0  0  0  0  0  0  0  0  0  0  0
    0.4627   -7.0342   13.3118 H   0  0  0  0  0  0  0  0  0  0  0  0
    1.4505   -7.6963   10.4632 H   0  0  0  0  0  0  0  0  0  0  0  0
   -0.1838   -8.0711   11.1638 H   0  0  0  0  0  0  0  0  0  0  0  0
    2.2677   -5.3171   10.2310 H   0  0  0  0  0  0  0  0  0  0  0  0
    0.2528   -3.0376   10.7963 H   0  0  0  0  0  0  0  0  0  0  0  0
    1.6477   -2.9643    9.7512 H   0  0  0  0  0  0  0  0  0  0  0  0
   -1.0483   -3.7315    8.9458 H   0  0  0  0  0  0  0  0  0  0  0  0
    0.3887   -3.9739    7.9351 H   0  0  0  0  0  0  0  0  0  0  0  0
    0.5369   -6.3300    8.5222 H   0  0  0  0  0  0  0  0  0  0  0  0
   -0.8638   -5.5979   12.6446 H   0  0  0  0  0  0  0  0  0  0  0  0
   -1.3742   -4.4556   11.3557 H   0  0  0  0  0  0  0  0  0  0  0  0
   -1.9901   -6.1430   11.3557 H   0  0  0  0  0  0  0  0  0  0  0  0
    2.2477   -5.9477   16.2591 H   0  0  0  0  0  0  0  0  0  0  0  0
    1.5713   -4.7531   15.1005 H   0  0  0  0  0  0  0  0  0  0  0  0
    0.9683   -6.4452   15.1005 H   0  0  0  0  0  0  0  0  0  0  0  0
   -1.8930   -6.2939    9.7835 H   0  0  0  0  0  0  0  0  0  0  0  0
   -2.8986   -5.2582    9.1755 H   0  0  0  0  0  0  0  0  0  0  0  0
   -1.8172   -8.1898    9.8597 H   0  0  0  0  0  0  0  0  0  0  0  0
   -2.7151   -8.1206    8.3054 H   0  0  0  0  0  0  0  0  0  0  0  0
   -0.9390   -8.3893    8.3054 H   0  0  0  0  0  0  0  0  0  0  0  0
  1  2  1  0
  2  3  1  0
  3  4  1  0
  3  5  1  0
  5  6  1  0
  6  7  1  0
  7  8  1  0
  8  9  1  0
  9 10  1  0
  1 11  1  0
  6 11  1  0
 10 11  1  0
 10 12  1  0
 12 13  1  0
 13 14  1  0
  9 15  1  0
 14 15  1  0
 15 16  1  0
 16 17  1  0
 14 18  1  0
 17 18  1  0
 14 19  1  1
 11 20  1  1
 18 21  1  0
 21 22  1  0
 21 23  1  0
 24 25  1  0
 25 26  1  0
 26 27  1  0
 26 28  1  0
 28 29  1  0
 29 30  1  0
 30 31  1  0
 31 32  1  0
 32 33  1  0
 24 34  1  0
 29 34  1  0
 33 34  1  0
 33 35  1  0
 35 36  1  0
 36 37  1  0
 32 38  1  0
 37 38  1  0
 38 39  1  0
 39 40  1  0
 37 41  1  0
 40 41  1  0
 37 42  1  1
 34 43  1  1
 41 44  1  0
 44 45  1  0
 44 46  1  0
  1 47  1  0
  1 48  1  0
  2 49  1  0
  2 50  1  0
  3 51  1  0
  4 52  1  0
  5 53  1  0
  5 54  1  0
  6 55  1  0
  7 56  1  0
  7 57  1  0
  8 58  1  0
  8 59  1  0
  9 60  1  1
 10 61  1  6
 12 62  1  0
 12 63  1  0
 13 64  1  0
 13 65  1  0
 15 66  1  6
 16 67  1  0
 16 68  1  0
 17 69  1  0
 17 70  1  0
 18 71  1  6
 19 72  1  0
 19 73  1  0
 19 74  1  0
 20 75  1  0
 20 76  1  0
 20 77  1  0
 21 78  1  0
 22 79  1  0
 23 80  1  0
 23 81  1  0
 23 82  1  0
 24 83  1  0
 24 84  1  0
 25 85  1  0
 25 86  1  0
 26 87  1  0
 27 88  1  0
 28 89  1  0
 28 90  1  0
 29 91  1  0
 30 92  1  0
 30 93  1  0
 31 94  1  0
 31 95  1  0
 32 96  1  1
 33 97  1  6
 35 98  1  0
 35 99  1  0
 36100  1  0
 36101  1  0
 38102  1  6
 39103  1  0
 39104  1  0
 40105  1  0
 40106  1  0
 41107  1  6
 42108  1  0
 42109  1  0
 42110  1  0
 43111  1  0
 43112  1  0
 43113  1  0
 44114  1  0
 45115  1  0
 46116  1  0
 46117  1  0
 46118  1  0
M  END
>  <PDBID>  (1) 
2AA6

>  <PDB ID>  (1) 
2AA6

>  <Generic Name>  (1) 
Progesterone

>  <Brand Name>  (1) 
Act Progesterone Injection#Crinone#Endometrin#Estrogel Propak#Gesterol In Oil-liq Im 50mg/ml#PMS-progesterone Inj 50mg/ml USP#Prochieve#Progesterone#Progesterone Inj 50mg/ml USP#Progesterone Injection USP#Prometrium#Teva-progesterone#Agolutin#Cyclogest#Gesterol#Gestone#Progestasert#Progestogel#Qi Ning#Relantan#Susten#Utrogestan#Utrogestran#Utrovin#Vasclor

>  <DrugBank ID>  (1) 
DB00396

>  <ATC Codes>  (1) 
G03DA04#G03FA04

>  <Ligand ID>  (1) 
STR

>  <Target Name>  (1) 
Mineralocorticoid receptor

>  <UniProt ID>  (1) 
P08235

>  <PDB ID.1>  (1) 
2AA6

>  <Seq. Identity>  (1) 
99%

$$$$
