PDB_DB00712_91
     RDKit          3D

 31 32  0  0  0  0  0  0  0  0999 V2000
   58.4870   40.7660   69.5430 C   0  0  0  0  0  0  0  0  0  0  0  0
   58.2640   41.4290   70.7620 C   0  0  0  0  0  0  0  0  0  0  0  0
   58.7360   42.7240   70.9350 C   0  0  0  0  0  0  0  0  0  0  0  0
   59.4350   43.3510   69.8850 C   0  0  0  0  0  0  0  0  0  0  0  0
   59.6610   42.6960   68.6700 C   0  0  0  0  0  0  0  0  0  0  0  0
   59.1910   41.4090   68.4940 C   0  0  0  0  0  0  0  0  0  0  0  0
   58.5110   43.4550   72.2330 C   0  0  0  0  0  0  0  0  0  0  0  0
   57.2810   43.3870   72.9240 C   0  0  0  0  0  0  0  0  0  0  0  0
   57.1320   44.0920   74.1620 C   0  0  0  0  0  0  0  0  0  0  0  0
   58.2080   44.8370   74.6730 C   0  0  0  0  0  0  0  0  0  0  0  0
   59.4030   44.8870   73.9780 C   0  0  0  0  0  0  0  0  0  0  0  0
   59.5530   44.2080   72.7650 C   0  0  0  0  0  0  0  0  0  0  0  0
   58.0860   45.6390   75.9590 C   0  0  2  0  0  0  0  0  0  0  0  0
   56.9960   45.0610   76.8620 C   0  0  0  0  0  0  0  0  0  0  0  0
   57.7480   47.0740   75.6040 C   0  0  0  0  0  0  0  0  0  0  0  0
   56.6650   47.3380   75.1220 O   0  0  0  0  0  0  0  0  0  0  0  0
   58.6430   48.0370   75.7950 O   0  0  0  0  0  0  0  0  0  0  0  0
   60.7060   44.3050   72.0770 F   0  0  0  0  0  0  0  0  0  0  0  0
   58.1127   39.7413   69.4020 H   0  0  0  0  0  0  0  0  0  0  0  0
   57.7190   40.9255   71.5741 H   0  0  0  0  0  0  0  0  0  0  0  0
   59.8104   44.3757   70.0233 H   0  0  0  0  0  0  0  0  0  0  0  0
   60.2086   43.2017   67.8611 H   0  0  0  0  0  0  0  0  0  0  0  0
   59.3626   40.8845   67.5424 H   0  0  0  0  0  0  0  0  0  0  0  0
   56.4461   42.7987   72.5156 H   0  0  0  0  0  0  0  0  0  0  0  0
   56.1793   44.0503   74.7102 H   0  0  0  0  0  0  0  0  0  0  0  0
   60.2446   45.4674   74.3841 H   0  0  0  0  0  0  0  0  0  0  0  0
   59.0401   45.5935   76.5046 H   0  0  0  0  0  0  0  0  0  0  0  0
   57.2757   45.2093   77.9154 H   0  0  0  0  0  0  0  0  0  0  0  0
   56.0433   45.5724   76.6601 H   0  0  0  0  0  0  0  0  0  0  0  0
   56.8848   43.9854   76.6601 H   0  0  0  0  0  0  0  0  0  0  0  0
   56.4417   48.2740   74.8893 H   0  0  0  0  0  0  0  0  0  0  0  0
  1  2  2  0
  2  3  1  0
  3  4  2  0
  4  5  1  0
  1  6  1  0
  5  6  2  0
  3  7  1  0
  7  8  2  0
  8  9  1  0
  9 10  2  0
 10 11  1  0
  7 12  1  0
 11 12  2  0
 10 13  1  0
 13 14  1  0
 13 15  1  0
 15 16  1  0
 15 17  2  0
 12 18  1  0
  1 19  1  0
  2 20  1  0
  4 21  1  0
  5 22  1  0
  6 23  1  0
  8 24  1  0
  9 25  1  0
 11 26  1  0
 13 27  1  1
 14 28  1  0
 14 29  1  0
 14 30  1  0
 16 31  1  0
M  END
$$$$
