PDB_DB00215_98
     RDKit          3D

122126  0  0  0  0  0  0  0  0999 V2000
   30.9310  184.3630    2.9550 C   0  0  0  0  0  0  0  0  0  0  0  0
   33.6950  182.4300    3.0590 C   0  0  0  0  0  0  0  0  0  0  0  0
   29.7870  183.4150    2.5720 C   0  0  0  0  0  0  0  0  0  0  0  0
   34.3200  181.0850    2.7180 C   0  0  0  0  0  0  0  0  0  0  0  0
   29.6040  184.9910    5.1680 C   0  0  0  0  0  0  0  0  0  0  0  0
   28.4670  184.0410    4.7810 C   0  0  0  0  0  0  0  0  0  0  0  0
   36.1370  187.4980   -0.1420 C   0  0  0  0  0  0  0  0  0  0  0  0
   34.7840  179.1460    1.0460 C   0  0  0  0  0  0  0  0  0  0  0  0
   27.3950  183.9010    5.5810 F   0  0  0  0  0  0  0  0  0  0  0  0
   31.6990  184.8120    0.7390 O   0  0  0  0  0  0  0  0  0  0  0  0
   34.7460  187.0550   -0.4250 N   0  0  0  0  0  0  0  0  0  0  0  0
   35.2760  178.1160    0.8340 N   0  0  0  0  0  0  0  0  0  0  0  0
   32.1320  184.5170    2.0640 C   0  0  1  0  0  0  0  0  0  0  0  0
   33.0520  185.6280    2.6250 C   0  0  0  0  0  0  0  0  0  0  0  0
   32.8680  183.1990    2.0070 C   0  0  0  0  0  0  0  0  0  0  0  0
   32.6680  182.6200    0.6610 C   0  0  0  0  0  0  0  0  0  0  0  0
   34.2420  185.8800    1.6730 C   0  0  0  0  0  0  0  0  0  0  0  0
   31.8640  183.5850   -0.1000 C   0  0  0  0  0  0  0  0  0  0  0  0
   33.9340  187.0770    0.7730 C   0  0  0  0  0  0  0  0  0  0  0  0
   33.3070  181.2470    0.3140 C   0  0  0  0  0  0  0  0  0  0  0  0
   30.8310  185.1500    4.2510 C   0  0  0  0  0  0  0  0  0  0  0  0
   34.1410  180.5010    1.3530 C   0  0  0  0  0  0  0  0  0  0  0  0
   28.5570  183.2550    3.4860 C   0  0  0  0  0  0  0  0  0  0  0  0
   34.7280  185.7510   -1.0430 C   0  0  0  0  0  0  0  0  0  0  0  0
   42.2130  175.8320    0.4820 C   0  0  0  0  0  0  0  0  0  0  0  0
   43.7280  178.8500   -0.1270 C   0  0  0  0  0  0  0  0  0  0  0  0
   41.2130  174.7360    0.8690 C   0  0  0  0  0  0  0  0  0  0  0  0
   43.6410  180.3360   -0.4540 C   0  0  0  0  0  0  0  0  0  0  0  0
   42.2450  174.8840   -1.9970 C   0  0  0  0  0  0  0  0  0  0  0  0
   41.2460  173.7970   -1.6030 C   0  0  0  0  0  0  0  0  0  0  0  0
   47.5330  178.5270    3.3720 C   0  0  0  0  0  0  0  0  0  0  0  0
   42.5790  182.7060   -0.0340 C   0  0  0  0  0  0  0  0  0  0  0  0
   40.8230  172.9120   -2.5200 F   0  0  0  0  0  0  0  0  0  0  0  0
   41.6690  176.8500    2.5360 O   0  0  0  0  0  0  0  0  0  0  0  0
   47.2420  177.0710    3.3850 N   0  0  0  0  0  0  0  0  0  0  0  0
   42.5050  183.8420   -0.2770 N   0  0  0  0  0  0  0  0  0  0  0  0
   42.6730  176.8100    1.5250 C   0  0  1  0  0  0  0  0  0  0  0  0
   43.9860  176.2730    2.1450 C   0  0  0  0  0  0  0  0  0  0  0  0
   42.8270  178.2210    0.9710 C   0  0  0  0  0  0  0  0  0  0  0  0
   41.8750  179.0890    1.6970 C   0  0  0  0  0  0  0  0  0  0  0  0
   44.9100  177.3970    2.6690 C   0  0  0  0  0  0  0  0  0  0  0  0
   41.1630  178.2460    2.6650 C   0  0  0  0  0  0  0  0  0  0  0  0
   45.8580  176.8270    3.7270 C   0  0  0  0  0  0  0  0  0  0  0  0
   41.7840  180.6010    1.3680 C   0  0  0  0  0  0  0  0  0  0  0  0
   42.7270  175.8960   -0.9460 C   0  0  0  0  0  0  0  0  0  0  0  0
   42.6740  181.2100    0.2880 C   0  0  0  0  0  0  0  0  0  0  0  0
   40.7290  173.7190   -0.1780 C   0  0  0  0  0  0  0  0  0  0  0  0
   47.5680  176.4730    2.1120 C   0  0  0  0  0  0  0  0  0  0  0  0
   31.4323  183.5423    3.4889 H   0  0  0  0  0  0  0  0  0  0  0  0
   33.0307  182.2598    3.9191 H   0  0  0  0  0  0  0  0  0  0  0  0
   34.5706  183.0789    3.2077 H   0  0  0  0  0  0  0  0  0  0  0  0
   29.4107  183.7553    1.5960 H   0  0  0  0  0  0  0  0  0  0  0  0
   30.2620  182.4243    2.6255 H   0  0  0  0  0  0  0  0  0  0  0  0
   35.4032  181.1883    2.8795 H   0  0  0  0  0  0  0  0  0  0  0  0
   33.7763  180.3823    3.3665 H   0  0  0  0  0  0  0  0  0  0  0  0
   29.1578  185.9907    5.2748 H   0  0  0  0  0  0  0  0  0  0  0  0
   30.0255  184.5211    6.0689 H   0  0  0  0  0  0  0  0  0  0  0  0
   28.9712  183.2208    5.3131 H   0  0  0  0  0  0  0  0  0  0  0  0
   36.2919  187.5473    0.9459 H   0  0  0  0  0  0  0  0  0  0  0  0
   36.8466  186.7814   -0.5813 H   0  0  0  0  0  0  0  0  0  0  0  0
   36.3015  188.4930   -0.5813 H   0  0  0  0  0  0  0  0  0  0  0  0
   35.4476  179.6214    0.3087 H   0  0  0  0  0  0  0  0  0  0  0  0
   33.8123  178.6517    1.1927 H   0  0  0  0  0  0  0  0  0  0  0  0
   35.4979  177.6514    1.7261 H   0  0  0  0  0  0  0  0  0  0  0  0
   34.6244  177.5289    0.2939 H   0  0  0  0  0  0  0  0  0  0  0  0
   32.4726  186.5568    2.7334 H   0  0  0  0  0  0  0  0  0  0  0  0
   33.4413  185.3064    3.6023 H   0  0  0  0  0  0  0  0  0  0  0  0
   31.9589  182.6769    2.3400 H   0  0  0  0  0  0  0  0  0  0  0  0
   31.7479  182.1281    1.0093 H   0  0  0  0  0  0  0  0  0  0  0  0
   35.1458  186.0893    2.2641 H   0  0  0  0  0  0  0  0  0  0  0  0
   34.4074  184.9881    1.0508 H   0  0  0  0  0  0  0  0  0  0  0  0
   30.8783  183.1528   -0.3272 H   0  0  0  0  0  0  0  0  0  0  0  0
   32.3627  183.8345   -1.0482 H   0  0  0  0  0  0  0  0  0  0  0  0
   34.1383  188.0047    1.3277 H   0  0  0  0  0  0  0  0  0  0  0  0
   32.8758  187.0265    0.4770 H   0  0  0  0  0  0  0  0  0  0  0  0
   32.4820  180.5769    0.0305 H   0  0  0  0  0  0  0  0  0  0  0  0
   34.0446  181.5036   -0.4607 H   0  0  0  0  0  0  0  0  0  0  0  0
   31.7114  184.8801    4.8526 H   0  0  0  0  0  0  0  0  0  0  0  0
   30.7476  186.1903    3.9035 H   0  0  0  0  0  0  0  0  0  0  0  0
   35.0549  181.0113    1.0148 H   0  0  0  0  0  0  0  0  0  0  0  0
   27.6773  183.5301    2.8857 H   0  0  0  0  0  0  0  0  0  0  0  0
   28.6297  182.2119    3.8277 H   0  0  0  0  0  0  0  0  0  0  0  0
   34.7173  184.9756   -0.2628 H   0  0  0  0  0  0  0  0  0  0  0  0
   33.8284  185.6541   -1.6686 H   0  0  0  0  0  0  0  0  0  0  0  0
   35.6246  185.6293   -1.6686 H   0  0  0  0  0  0  0  0  0  0  0  0
   41.3793  176.5010    0.2224 H   0  0  0  0  0  0  0  0  0  0  0  0
   43.5078  178.3105   -1.0600 H   0  0  0  0  0  0  0  0  0  0  0  0
   44.7365  178.7540    0.3016 H   0  0  0  0  0  0  0  0  0  0  0  0
   41.6780  174.1567    1.6803 H   0  0  0  0  0  0  0  0  0  0  0  0
   40.3007  175.3039    1.1039 H   0  0  0  0  0  0  0  0  0  0  0  0
   44.6432  180.7575   -0.2870 H   0  0  0  0  0  0  0  0  0  0  0  0
   43.2542  180.3469   -1.4837 H   0  0  0  0  0  0  0  0  0  0  0  0
   43.1399  174.3708   -2.3788 H   0  0  0  0  0  0  0  0  0  0  0  0
   41.6793  175.5045   -2.7076 H   0  0  0  0  0  0  0  0  0  0  0  0
   40.4138  174.4667   -1.8655 H   0  0  0  0  0  0  0  0  0  0  0  0
   47.6066  178.8954    4.4058 H   0  0  0  0  0  0  0  0  0  0  0  0
   48.4847  178.7061    2.8503 H   0  0  0  0  0  0  0  0  0  0  0  0
   46.7232  179.0581    2.8503 H   0  0  0  0  0  0  0  0  0  0  0  0
   42.5219  182.4720   -1.1073 H   0  0  0  0  0  0  0  0  0  0  0  0
   43.2586  182.9290    0.8017 H   0  0  0  0  0  0  0  0  0  0  0  0
   42.4700  184.3793    0.6010 H   0  0  0  0  0  0  0  0  0  0  0  0
   43.3290  184.1306   -0.8235 H   0  0  0  0  0  0  0  0  0  0  0  0
   43.7316  175.6086    2.9839 H   0  0  0  0  0  0  0  0  0  0  0  0
   44.5316  175.7414    1.3515 H   0  0  0  0  0  0  0  0  0  0  0  0
   42.0554  178.0089    0.2163 H   0  0  0  0  0  0  0  0  0  0  0  0
   41.1038  178.8741    0.9426 H   0  0  0  0  0  0  0  0  0  0  0  0
   45.4968  177.8081    1.8343 H   0  0  0  0  0  0  0  0  0  0  0  0
   44.2991  178.1951    3.1161 H   0  0  0  0  0  0  0  0  0  0  0  0
   40.0834  178.2705    2.4554 H   0  0  0  0  0  0  0  0  0  0  0  0
   41.3341  178.6168    3.6864 H   0  0  0  0  0  0  0  0  0  0  0  0
   45.6951  175.7420    3.8055 H   0  0  0  0  0  0  0  0  0  0  0  0
   45.6461  177.3250    4.6846 H   0  0  0  0  0  0  0  0  0  0  0  0
   40.7440  180.7970    1.0679 H   0  0  0  0  0  0  0  0  0  0  0  0
   42.1482  181.0788    2.2895 H   0  0  0  0  0  0  0  0  0  0  0  0
   42.4688  176.8944   -1.3289 H   0  0  0  0  0  0  0  0  0  0  0  0
   43.7928  175.6474   -0.8354 H   0  0  0  0  0  0  0  0  0  0  0  0
   43.4450  181.4216    1.0435 H   0  0  0  0  0  0  0  0  0  0  0  0
   40.9929  172.7210    0.2020 H   0  0  0  0  0  0  0  0  0  0  0  0
   39.6590  173.9515   -0.2826 H   0  0  0  0  0  0  0  0  0  0  0  0
   48.0885  175.5182    2.2779 H   0  0  0  0  0  0  0  0  0  0  0  0
   46.6434  176.2927    1.5441 H   0  0  0  0  0  0  0  0  0  0  0  0
   48.2205  177.1525    1.5441 H   0  0  0  0  0  0  0  0  0  0  0  0
  1  3  1  0
  2  4  1  0
  5  6  1  0
  6  9  1  0
  7 11  1  0
  8 12  1  0
  1 13  1  0
 10 13  1  0
 13 14  1  1
  2 15  1  0
 13 15  1  0
 15 16  1  0
 14 17  1  0
 10 18  1  0
 16 18  1  0
 11 19  1  0
 17 19  1  0
 16 20  1  0
  1 21  1  0
  5 21  1  0
  4 22  1  0
  8 22  1  0
 20 22  1  0
  3 23  1  0
  6 23  1  0
 11 24  1  0
 25 27  1  0
 26 28  1  0
 29 30  1  0
 30 33  1  0
 31 35  1  0
 32 36  1  0
 25 37  1  0
 34 37  1  0
 37 38  1  1
 26 39  1  0
 37 39  1  0
 39 40  1  0
 38 41  1  0
 34 42  1  0
 40 42  1  0
 35 43  1  0
 41 43  1  0
 40 44  1  0
 25 45  1  0
 29 45  1  0
 28 46  1  0
 32 46  1  0
 44 46  1  0
 27 47  1  0
 30 47  1  0
 35 48  1  0
  1 49  1  0
  2 50  1  0
  2 51  1  0
  3 52  1  0
  3 53  1  0
  4 54  1  0
  4 55  1  0
  5 56  1  0
  5 57  1  0
  6 58  1  0
  7 59  1  0
  7 60  1  0
  7 61  1  0
  8 62  1  0
  8 63  1  0
 12 64  1  0
 12 65  1  0
 14 66  1  0
 14 67  1  0
 15 68  1  0
 16 69  1  0
 17 70  1  0
 17 71  1  0
 18 72  1  0
 18 73  1  0
 19 74  1  0
 19 75  1  0
 20 76  1  0
 20 77  1  0
 21 78  1  0
 21 79  1  0
 22 80  1  0
 23 81  1  0
 23 82  1  0
 24 83  1  0
 24 84  1  0
 24 85  1  0
 25 86  1  0
 26 87  1  0
 26 88  1  0
 27 89  1  0
 27 90  1  0
 28 91  1  0
 28 92  1  0
 29 93  1  0
 29 94  1  0
 30 95  1  0
 31 96  1  0
 31 97  1  0
 31 98  1  0
 32 99  1  0
 32100  1  0
 36101  1  0
 36102  1  0
 38103  1  0
 38104  1  0
 39105  1  0
 40106  1  0
 41107  1  0
 41108  1  0
 42109  1  0
 42110  1  0
 43111  1  0
 43112  1  0
 44113  1  0
 44114  1  0
 45115  1  0
 45116  1  0
 46117  1  0
 47118  1  0
 47119  1  0
 48120  1  0
 48121  1  0
 48122  1  0
M  END
>  <PDBID>  (1) 
5I73

>  <PDB ID>  (1) 
5I73

>  <Generic Name>  (1) 
Citalopram

>  <Brand Name>  (1) 
Abbott-citalopram#Accel-citalopram Tablets#Act Citalopram#Ag-citalopram#Apo-citalopram#Auro-citalopram#Ava-citalopram#Bio-citalopram#Celexa#Celexa 10 mg#Celexa 20 mg#Celexa 40 mg#Citalopram#Citalopram Hydrobromide#Citalopram Tablets#Citalopram Tablets USP#Citalopram-10#Citalopram-20#Citalopram-40#Citalopram-odan#Ctp 30#Dom-citalopram#Ecl-citalopram#Ipg-citalopram#Jamp-citalopram#Manda-citalopram#Mar-citalopram#Mint-citalopram#Mylan-citalopram#Nat-citalopram#Nat-citalopram Tablets#Ng Citalopram#Novo-citalopram#Ntp-citalopram#Nu-citalopram#PHL-citalopram#PMS-citalopram#Pendo-citalopram#Perrigo Citalopram#Priva-citalopram#Q-citalopram#Ran-citalo#Ran-citalopram#Ratio-citalopram#Riva-citalopram#Sandoz Citalopram#Sentralopram Am-10#Septa-citalopram#Teva-citalopram#Van-citalopram#Akarin#Celapram#Ciazil#Cilift#Cipram#Cipramil#Ciprapine#Citabax#Citalec#Citol#Citopam#Citox#Citrol#Dalsan#Elopram#Humorup#Oropram#Pramcit#Recital#Seropram#Talam#Talohexal#Temperax#Vodelax#Zentius#Zetalo

>  <DrugBank ID>  (1) 
DB00215

>  <ATC Codes>  (1) 
N06AB04

>  <Ligand ID>  (1) 
68P

>  <Target Name>  (1) 
Sodium-dependent serotonin transporter

>  <UniProt ID>  (1) 
P31645

>  <PDB ID.1>  (1) 
5I73

>  <Seq. Identity>  (1) 
99%

$$$$
