PDB_DB01229_92
     RDKit          3D

113119  0  0  0  0  0  0  0  0999 V2000
   59.8990  -43.8380  -93.7850 O   0  0  0  0  0  0  0  0  0  0  0  0
   60.2430  -43.8280  -92.3880 C   0  0  1  0  0  0  0  0  0  0  0  0
   61.8400  -43.5040  -92.3180 C   0  0  1  0  0  0  0  0  0  0  0  0
   61.9100  -42.1800  -92.9770 O   0  0  0  0  0  0  0  0  0  0  0  0
   62.4780  -42.1040  -94.2700 C   0  0  0  0  0  0  0  0  0  0  0  0
   62.9420  -43.0530  -94.8560 O   0  0  0  0  0  0  0  0  0  0  0  0
   62.4710  -40.7650  -94.8010 C   0  0  0  0  0  0  0  0  0  0  0  0
   62.8630  -39.5770  -94.1730 C   0  0  0  0  0  0  0  0  0  0  0  0
   62.7690  -38.3670  -94.9110 C   0  0  0  0  0  0  0  0  0  0  0  0
   62.3720  -38.2240  -96.0920 C   0  0  0  0  0  0  0  0  0  0  0  0
   61.9520  -39.3820  -96.8060 C   0  0  0  0  0  0  0  0  0  0  0  0
   61.9830  -40.7400  -96.1810 C   0  0  0  0  0  0  0  0  0  0  0  0
   62.5500  -43.3670  -90.8650 C   0  0  2  0  0  0  0  0  0  0  0  0
   63.5430  -42.1060  -90.7260 C   0  0  2  0  0  0  0  0  0  0  0  0
   62.8300  -40.8090  -90.8660 O   0  0  0  0  0  0  0  0  0  0  0  0
   61.9280  -40.3620  -89.9280 C   0  0  0  0  0  0  0  0  0  0  0  0
   61.6210  -40.9440  -88.9300 O   0  0  0  0  0  0  0  0  0  0  0  0
   61.3930  -39.0130  -90.3550 C   0  0  0  0  0  0  0  0  0  0  0  0
   64.7180  -41.9330  -91.7240 C   0  0  0  0  0  0  0  0  0  0  0  0
   65.7110  -41.9230  -90.6730 O   0  0  0  0  0  0  0  0  0  0  0  0
   64.6850  -42.0790  -89.6690 C   0  0  2  0  0  0  0  0  0  0  0  0
   64.9120  -43.3510  -88.7870 C   0  0  0  0  0  0  0  0  0  0  0  0
   63.7630  -44.3500  -88.8310 C   0  0  2  0  0  0  0  0  0  0  0  0
   64.0990  -45.5030  -88.0180 O   0  0  0  0  0  0  0  0  0  0  0  0
   63.3340  -44.7570  -90.3220 C   0  0  2  0  0  0  0  0  0  0  0  0
   64.6080  -45.1270  -91.1390 C   0  0  0  0  0  0  0  0  0  0  0  0
   62.4990  -46.1480  -90.2930 C   0  0  0  0  0  0  0  0  0  0  0  0
   62.9800  -47.1340  -90.8280 O   0  0  0  0  0  0  0  0  0  0  0  0
   61.1190  -46.2620  -89.6320 C   0  0  2  0  0  0  0  0  0  0  0  0
   60.6440  -47.6630  -89.8150 O   0  0  0  0  0  0  0  0  0  0  0  0
   60.5210  -48.5010  -88.7240 C   0  0  0  0  0  0  0  0  0  0  0  0
   60.7660  -48.2040  -87.5970 O   0  0  0  0  0  0  0  0  0  0  0  0
   60.0350  -49.8570  -89.1570 C   0  0  0  0  0  0  0  0  0  0  0  0
   60.1480  -45.2510  -90.2460 C   0  0  0  0  0  0  0  0  0  0  0  0
   59.6300  -44.2300  -89.4540 C   0  0  0  0  0  0  0  0  0  0  0  0
   58.7800  -43.1500  -90.1920 C   0  0  1  0  0  0  0  0  0  0  0  0
   58.5660  -41.9190  -89.4160 O   0  0  0  0  0  0  0  0  0  0  0  0
   57.4590  -41.8290  -88.6920 C   0  0  0  0  0  0  0  0  0  0  0  0
   56.5960  -42.6450  -88.5800 O   0  0  0  0  0  0  0  0  0  0  0  0
   57.3980  -40.4550  -87.9770 C   0  0  2  0  0  0  0  0  0  0  0  0
   56.1820  -40.3920  -87.2550 O   0  0  0  0  0  0  0  0  0  0  0  0
   57.5210  -39.3430  -89.0480 C   0  0  1  0  0  0  0  0  0  0  0  0
   56.5120  -39.6190  -90.0660 N   0  0  0  0  0  0  0  0  0  0  0  0
   56.6340  -39.2230  -91.3540 C   0  0  0  0  0  0  0  0  0  0  0  0
   57.5940  -38.5830  -91.7710 O   0  0  0  0  0  0  0  0  0  0  0  0
   55.5130  -39.6570  -92.2300 C   0  0  0  0  0  0  0  0  0  0  0  0
   54.1830  -39.2860  -92.0330 C   0  0  0  0  0  0  0  0  0  0  0  0
   53.1580  -39.7450  -92.9020 C   0  0  0  0  0  0  0  0  0  0  0  0
   53.4890  -40.6010  -93.9890 C   0  0  0  0  0  0  0  0  0  0  0  0
   54.8070  -40.9750  -94.1920 C   0  0  0  0  0  0  0  0  0  0  0  0
   55.8240  -40.5290  -93.3420 C   0  0  0  0  0  0  0  0  0  0  0  0
   57.4170  -37.9390  -88.4180 C   0  0  0  0  0  0  0  0  0  0  0  0
   58.6090  -37.3010  -88.0310 C   0  0  0  0  0  0  0  0  0  0  0  0
   58.5820  -36.0110  -87.4380 C   0  0  0  0  0  0  0  0  0  0  0  0
   57.3520  -35.3620  -87.2390 C   0  0  0  0  0  0  0  0  0  0  0  0
   56.1760  -35.9840  -87.6190 C   0  0  0  0  0  0  0  0  0  0  0  0
   56.1940  -37.2800  -88.2140 C   0  0  0  0  0  0  0  0  0  0  0  0
   59.4610  -42.7090  -91.5450 C   0  0  0  0  0  0  0  0  0  0  0  0
   59.8930  -44.0210  -87.9680 C   0  0  0  0  0  0  0  0  0  0  0  0
   59.8030  -45.3210  -91.8140 C   0  0  0  0  0  0  0  0  0  0  0  0
   58.2420  -45.6160  -91.9840 C   0  0  0  0  0  0  0  0  0  0  0  0
   60.4500  -46.4350  -92.6680 C   0  0  0  0  0  0  0  0  0  0  0  0
   58.9142  -43.8666  -93.8822 H   0  0  0  0  0  0  0  0  0  0  0  0
   62.3788  -44.3541  -92.7619 H   0  0  0  0  0  0  0  0  0  0  0  0
   63.2334  -39.5804  -93.1372 H   0  0  0  0  0  0  0  0  0  0  0  0
   63.0798  -37.4511  -94.3870 H   0  0  0  0  0  0  0  0  0  0  0  0
   62.3489  -37.2305  -96.5636 H   0  0  0  0  0  0  0  0  0  0  0  0
   61.5965  -39.2751  -97.8415 H   0  0  0  0  0  0  0  0  0  0  0  0
   61.6647  -41.6474  -96.7152 H   0  0  0  0  0  0  0  0  0  0  0  0
   61.6831  -43.1970  -90.2096 H   0  0  0  0  0  0  0  0  0  0  0  0
   61.1554  -38.4139  -89.4636 H   0  0  0  0  0  0  0  0  0  0  0  0
   62.1522  -38.4910  -90.9560 H   0  0  0  0  0  0  0  0  0  0  0  0
   60.4824  -39.1532  -90.9560 H   0  0  0  0  0  0  0  0  0  0  0  0
   64.8275  -42.7773  -92.4206 H   0  0  0  0  0  0  0  0  0  0  0  0
   64.6902  -41.0931  -92.4337 H   0  0  0  0  0  0  0  0  0  0  0  0
   64.5623  -41.3518  -88.8529 H   0  0  0  0  0  0  0  0  0  0  0  0
   65.8235  -43.8569  -89.1380 H   0  0  0  0  0  0  0  0  0  0  0  0
   64.9928  -43.0054  -87.7458 H   0  0  0  0  0  0  0  0  0  0  0  0
   62.8717  -43.8626  -88.4091 H   0  0  0  0  0  0  0  0  0  0  0  0
   64.0291  -45.2630  -87.0601 H   0  0  0  0  0  0  0  0  0  0  0  0
   65.4301  -45.3657  -90.4482 H   0  0  0  0  0  0  0  0  0  0  0  0
   64.3962  -46.0007  -91.7728 H   0  0  0  0  0  0  0  0  0  0  0  0
   64.8972  -44.2757  -91.7728 H   0  0  0  0  0  0  0  0  0  0  0  0
   61.1795  -46.0315  -88.5581 H   0  0  0  0  0  0  0  0  0  0  0  0
   59.8158  -50.4686  -88.2694 H   0  0  0  0  0  0  0  0  0  0  0  0
   59.1214  -49.7440  -89.7591 H   0  0  0  0  0  0  0  0  0  0  0  0
   60.8124  -50.3501  -89.7591 H   0  0  0  0  0  0  0  0  0  0  0  0
   57.8116  -43.6443  -90.3587 H   0  0  0  0  0  0  0  0  0  0  0  0
   58.2220  -40.3171  -87.2615 H   0  0  0  0  0  0  0  0  0  0  0  0
   56.3740  -40.4019  -86.2838 H   0  0  0  0  0  0  0  0  0  0  0  0
   58.5126  -39.3468  -89.5242 H   0  0  0  0  0  0  0  0  0  0  0  0
   55.6671  -40.1399  -89.7908 H   0  0  0  0  0  0  0  0  0  0  0  0
   53.9239  -38.6273  -91.1910 H   0  0  0  0  0  0  0  0  0  0  0  0
   52.1142  -39.4405  -92.7356 H   0  0  0  0  0  0  0  0  0  0  0  0
   52.7014  -40.9643  -94.6655 H   0  0  0  0  0  0  0  0  0  0  0  0
   55.0581  -41.6340  -95.0362 H   0  0  0  0  0  0  0  0  0  0  0  0
   56.8635  -40.8420  -93.5193 H   0  0  0  0  0  0  0  0  0  0  0  0
   59.5729  -37.8068  -88.1894 H   0  0  0  0  0  0  0  0  0  0  0  0
   59.5199  -35.5221  -87.1358 H   0  0  0  0  0  0  0  0  0  0  0  0
   57.3240  -34.3617  -86.7822 H   0  0  0  0  0  0  0  0  0  0  0  0
   55.2152  -35.4725  -87.4602 H   0  0  0  0  0  0  0  0  0  0  0  0
   55.2516  -37.7624  -88.5125 H   0  0  0  0  0  0  0  0  0  0  0  0
   60.1830  -41.9145  -91.3053 H   0  0  0  0  0  0  0  0  0  0  0  0
   58.6234  -42.4094  -92.1921 H   0  0  0  0  0  0  0  0  0  0  0  0
   59.1643  -44.6000  -87.3817 H   0  0  0  0  0  0  0  0  0  0  0  0
   60.9111  -44.3592  -87.7247 H   0  0  0  0  0  0  0  0  0  0  0  0
   59.7935  -42.9529  -87.7247 H   0  0  0  0  0  0  0  0  0  0  0  0
   57.7753  -45.7042  -90.9918 H   0  0  0  0  0  0  0  0  0  0  0  0
   57.7712  -44.7909  -92.5386 H   0  0  0  0  0  0  0  0  0  0  0  0
   58.1047  -46.5560  -92.5386 H   0  0  0  0  0  0  0  0  0  0  0  0
   60.8913  -47.1948  -92.0062 H   0  0  0  0  0  0  0  0  0  0  0  0
   59.6829  -46.9026  -93.3028 H   0  0  0  0  0  0  0  0  0  0  0  0
   61.2363  -46.0004  -93.3028 H   0  0  0  0  0  0  0  0  0  0  0  0
  2  1  1  6
  2  3  1  0
  3  4  1  0
  4  5  1  0
  5  6  2  0
  5  7  1  0
  7  8  2  0
  8  9  1  0
  9 10  2  0
 10 11  1  0
  7 12  1  0
 11 12  2  0
  3 13  1  0
 13 14  1  0
 14 15  1  1
 15 16  1  0
 16 17  2  0
 16 18  1  0
 14 19  1  0
 19 20  1  0
 14 21  1  0
 20 21  1  0
 21 22  1  0
 22 23  1  0
 23 24  1  0
 13 25  1  0
 23 25  1  0
 25 26  1  6
 25 27  1  0
 27 28  2  0
 27 29  1  0
 29 30  1  0
 30 31  1  0
 31 32  2  0
 31 33  1  0
 29 34  1  0
 34 35  2  0
 35 36  1  0
 36 37  1  0
 37 38  1  0
 38 39  2  0
 38 40  1  0
 40 41  1  0
 40 42  1  0
 42 43  1  0
 43 44  1  0
 44 45  2  0
 44 46  1  0
 46 47  2  0
 47 48  1  0
 48 49  2  0
 49 50  1  0
 46 51  1  0
 50 51  2  0
 42 52  1  0
 52 53  2  0
 53 54  1  0
 54 55  2  0
 55 56  1  0
 52 57  1  0
 56 57  2  0
  2 58  1  0
 36 58  1  0
 35 59  1  0
  2 60  1  0
 34 60  1  0
 60 61  1  0
 60 62  1  0
  1 63  1  0
  3 64  1  6
  8 65  1  0
  9 66  1  0
 10 67  1  0
 11 68  1  0
 12 69  1  0
 13 70  1  1
 18 71  1  0
 18 72  1  0
 18 73  1  0
 19 74  1  0
 19 75  1  0
 21 76  1  1
 22 77  1  0
 22 78  1  0
 23 79  1  1
 24 80  1  0
 26 81  1  0
 26 82  1  0
 26 83  1  0
 29 84  1  1
 33 85  1  0
 33 86  1  0
 33 87  1  0
 36 88  1  6
 40 89  1  1
 41 90  1  0
 42 91  1  6
 43 92  1  0
 47 93  1  0
 48 94  1  0
 49 95  1  0
 50 96  1  0
 51 97  1  0
 53 98  1  0
 54 99  1  0
 55100  1  0
 56101  1  0
 57102  1  0
 58103  1  0
 58104  1  0
 59105  1  0
 59106  1  0
 59107  1  0
 61108  1  0
 61109  1  0
 61110  1  0
 62111  1  0
 62112  1  0
 62113  1  0
M  END
$$$$
