PDB_DB00293_92
     RDKit          3D

 54 56  0  0  0  0  0  0  0  0999 V2000
   65.2120   39.0500    0.1230 N   0  0  0  0  0  0  0  0  0  0  0  0
   64.1040   38.4980    0.8310 C   0  0  0  0  0  0  0  0  0  0  0  0
   62.9890   37.8070    0.1970 C   0  0  0  0  0  0  0  0  0  0  0  0
   63.9550   38.5530    2.2000 N   0  0  0  0  0  0  0  0  0  0  0  0
   64.9020   39.1710    2.9300 C   0  0  0  0  0  0  0  0  0  0  0  0
   64.7810   39.2150    4.1050 O   0  0  0  0  0  0  0  0  0  0  0  0
   66.0560   39.7630    2.2740 C   0  0  0  0  0  0  0  0  0  0  0  0
   66.9790   40.3850    3.0930 C   0  0  0  0  0  0  0  0  0  0  0  0
   68.0600   40.9440    2.5090 C   0  0  0  0  0  0  0  0  0  0  0  0
   68.2220   40.8840    1.1360 C   0  0  0  0  0  0  0  0  0  0  0  0
   67.2960   40.2740    0.3190 C   0  0  0  0  0  0  0  0  0  0  0  0
   66.1990   39.7050    0.9250 C   0  0  0  0  0  0  0  0  0  0  0  0
   69.0590   41.6070    3.4090 C   0  0  0  0  0  0  0  0  0  0  0  0
   69.6990   42.5850    2.6040 N   0  0  0  0  0  0  0  0  0  0  0  0
   68.0290   45.4360    0.4780 C   0  0  0  0  0  0  0  0  0  0  0  0
   69.4390   44.5560    0.7070 S   0  0  0  0  0  0  0  0  0  0  0  0
   68.9170   43.5790    1.9550 C   0  0  0  0  0  0  0  0  0  0  0  0
   67.6190   43.9340    2.1950 C   0  0  0  0  0  0  0  0  0  0  0  0
   67.1520   44.9570    1.3990 C   0  0  0  0  0  0  0  0  0  0  0  0
   67.9180   46.5560   -0.5140 C   0  0  0  0  0  0  0  0  0  0  0  0
   68.8300   46.6830   -1.2730 O   0  0  0  0  0  0  0  0  0  0  0  0
   66.8480   47.5070   -0.5190 N   0  0  0  0  0  0  0  0  0  0  0  0
   66.9250   48.5690   -1.4880 C   0  0  1  0  0  0  0  0  0  0  0  0
   66.2540   48.2300   -2.7880 C   0  0  0  0  0  0  0  0  0  0  0  0
   64.7730   47.8980   -2.6100 C   0  0  0  0  0  0  0  0  0  0  0  0
   64.0590   47.7320   -3.9210 C   0  0  0  0  0  0  0  0  0  0  0  0
   62.8500   47.4240   -3.9210 O   0  0  0  0  0  0  0  0  0  0  0  0
   64.6660   47.8940   -5.0060 O   0  0  0  0  0  0  0  0  0  0  0  0
   66.3860   49.8000   -0.8860 C   0  0  0  0  0  0  0  0  0  0  0  0
   66.7800   50.1890    0.2170 O   0  0  0  0  0  0  0  0  0  0  0  0
   65.5270   50.4670   -1.4710 O   0  0  0  0  0  0  0  0  0  0  0  0
   71.1020   42.5700    2.4500 C   0  0  0  0  0  0  0  0  0  0  0  0
   65.2963   38.9814   -0.9012 H   0  0  0  0  0  0  0  0  0  0  0  0
   62.3248   37.3954    0.9712 H   0  0  0  0  0  0  0  0  0  0  0  0
   62.4271   38.5154   -0.4294 H   0  0  0  0  0  0  0  0  0  0  0  0
   63.3733   36.9885   -0.4294 H   0  0  0  0  0  0  0  0  0  0  0  0
   66.8377   40.4233    4.1832 H   0  0  0  0  0  0  0  0  0  0  0  0
   69.1167   41.3368    0.6838 H   0  0  0  0  0  0  0  0  0  0  0  0
   67.4277   40.2429   -0.7726 H   0  0  0  0  0  0  0  0  0  0  0  0
   68.5529   42.0819    4.2624 H   0  0  0  0  0  0  0  0  0  0  0  0
   69.7773   40.8855    3.8255 H   0  0  0  0  0  0  0  0  0  0  0  0
   66.9989   43.4437    2.9600 H   0  0  0  0  0  0  0  0  0  0  0  0
   66.1339   45.3604    1.5024 H   0  0  0  0  0  0  0  0  0  0  0  0
   66.0597   47.4348    0.1400 H   0  0  0  0  0  0  0  0  0  0  0  0
   67.9816   48.7244   -1.7517 H   0  0  0  0  0  0  0  0  0  0  0  0
   66.3439   49.0908   -3.4669 H   0  0  0  0  0  0  0  0  0  0  0  0
   66.7504   47.3387   -3.1992 H   0  0  0  0  0  0  0  0  0  0  0  0
   64.6876   46.9607   -2.0407 H   0  0  0  0  0  0  0  0  0  0  0  0
   64.3037   48.7386   -2.0780 H   0  0  0  0  0  0  0  0  0  0  0  0
   62.3678   47.3116   -4.7783 H   0  0  0  0  0  0  0  0  0  0  0  0
   66.4095   51.0184    0.6107 H   0  0  0  0  0  0  0  0  0  0  0  0
   71.5796   42.5649    3.4409 H   0  0  0  0  0  0  0  0  0  0  0  0
   71.4003   41.6686    1.8945 H   0  0  0  0  0  0  0  0  0  0  0  0
   71.4195   43.4648    1.8945 H   0  0  0  0  0  0  0  0  0  0  0  0
  1  2  1  0
  2  3  1  0
  2  4  2  0
  4  5  1  0
  5  6  2  0
  5  7  1  0
  7  8  1  0
  8  9  2  0
  9 10  1  0
 10 11  2  0
  1 12  1  0
  7 12  2  0
 11 12  1  0
  9 13  1  0
 13 14  1  0
 15 16  1  0
 14 17  1  0
 16 17  1  0
 17 18  2  0
 15 19  2  0
 18 19  1  0
 15 20  1  0
 20 21  2  0
 20 22  1  0
 22 23  1  0
 23 24  1  0
 24 25  1  0
 25 26  1  0
 26 27  1  0
 26 28  2  0
 23 29  1  0
 29 30  1  0
 29 31  2  0
 14 32  1  0
  1 33  1  0
  3 34  1  0
  3 35  1  0
  3 36  1  0
  8 37  1  0
 10 38  1  0
 11 39  1  0
 13 40  1  0
 13 41  1  0
 18 42  1  0
 19 43  1  0
 22 44  1  0
 23 45  1  6
 24 46  1  0
 24 47  1  0
 25 48  1  0
 25 49  1  0
 27 50  1  0
 30 51  1  0
 32 52  1  0
 32 53  1  0
 32 54  1  0
M  END
$$$$
