PDB_DB00869_99
     RDKit          3D

 43 44  0  0  0  0  0  0  0  0999 V2000
   -6.1860    3.6410   15.7000 S   0  0  0  0  0  0  0  0  0  0  0  0
   -5.2590    2.2490   15.9490 C   0  0  0  0  0  0  0  0  0  0  0  0
   -3.9920    2.3040   15.3640 C   0  0  0  0  0  0  0  0  0  0  0  0
   -3.8200    3.5480   14.6840 C   0  0  0  0  0  0  0  0  0  0  0  0
   -2.6000    3.9180   13.9220 C   0  0  2  0  0  0  0  0  0  0  0  0
   -2.5630    5.4380   13.6650 C   0  0  0  0  0  0  0  0  0  0  0  0
   -3.8020    6.0150   13.0230 C   0  0  1  0  0  0  0  0  0  0  0  0
   -5.0600    6.0120   14.2810 S   0  0  2  0  0  4  0  0  0  0  0  0
   -4.9690    4.3680   14.7880 C   0  0  2  0  0  0  0  0  0  0  0  0
   -5.8850    0.9410   16.8910 S   0  0  2  0  0  4  0  0  0  0  0  0
   -7.3100    0.9870   16.7290 O   0  0  0  0  0  0  0  0  0  0  0  0
   -5.3490    1.0410   18.2200 O   0  0  0  0  0  0  0  0  0  0  0  0
   -5.3270   -0.5200   16.1920 N   0  0  0  0  0  0  0  0  0  0  0  0
   -2.6210    3.1750   12.6490 N   0  0  0  0  0  0  0  0  0  0  0  0
   -3.5160    7.4560   12.5630 C   0  0  0  0  0  0  0  0  0  0  0  0
   -6.3310    6.2230   13.6410 O   0  0  0  0  0  0  0  0  0  0  0  0
   -4.6970    6.8100   15.4220 O   0  0  0  0  0  0  0  0  0  0  0  0
   -1.3550    3.2200   11.9060 C   0  0  0  0  0  0  0  0  0  0  0  0
   -1.4350    2.1450   10.8200 C   0  0  0  0  0  0  0  0  0  0  0  0
   -5.6665    1.8124   15.0253 H   0  0  0  0  0  0  0  0  0  0  0  0
   -3.2252    2.2080   16.1468 H   0  0  0  0  0  0  0  0  0  0  0  0
   -3.8929    1.4812   14.6407 H   0  0  0  0  0  0  0  0  0  0  0  0
   -3.3841    3.9853   15.5943 H   0  0  0  0  0  0  0  0  0  0  0  0
   -1.6983    3.6596   14.4966 H   0  0  0  0  0  0  0  0  0  0  0  0
   -2.4148    5.9424   14.6312 H   0  0  0  0  0  0  0  0  0  0  0  0
   -1.7442    5.6054   12.9498 H   0  0  0  0  0  0  0  0  0  0  0  0
   -4.1173    5.4329   12.1445 H   0  0  0  0  0  0  0  0  0  0  0  0
   -5.1877    4.7015   13.7628 H   0  0  0  0  0  0  0  0  0  0  0  0
   -7.7430    1.0010   17.6192 H   0  0  0  0  0  0  0  0  0  0  0  0
   -6.0748    0.9056   18.8796 H   0  0  0  0  0  0  0  0  0  0  0  0
   -5.0738   -1.1830   16.9385 H   0  0  0  0  0  0  0  0  0  0  0  0
   -6.0715   -0.9278   15.6086 H   0  0  0  0  0  0  0  0  0  0  0  0
   -2.8410    2.1897   12.8534 H   0  0  0  0  0  0  0  0  0  0  0  0
   -3.3876    8.1032   13.4431 H   0  0  0  0  0  0  0  0  0  0  0  0
   -2.5971    7.4724   11.9586 H   0  0  0  0  0  0  0  0  0  0  0  0
   -4.3590    7.8221   11.9586 H   0  0  0  0  0  0  0  0  0  0  0  0
   -7.0322    6.3394   14.3301 H   0  0  0  0  0  0  0  0  0  0  0  0
   -4.9202    6.3193   16.2524 H   0  0  0  0  0  0  0  0  0  0  0  0
   -1.2211    4.2109   11.4475 H   0  0  0  0  0  0  0  0  0  0  0  0
   -0.5007    3.0393   12.5749 H   0  0  0  0  0  0  0  0  0  0  0  0
   -1.5088    1.1534   11.2904 H   0  0  0  0  0  0  0  0  0  0  0  0
   -2.3225    2.3211   10.1945 H   0  0  0  0  0  0  0  0  0  0  0  0
   -0.5312    2.1878   10.1945 H   0  0  0  0  0  0  0  0  0  0  0  0
  1  2  1  0
  2  3  1  0
  3  4  1  0
  4  5  1  0
  5  6  1  0
  6  7  1  0
  7  8  1  0
  1  9  1  0
  4  9  1  0
  8  9  1  0
  2 10  1  0
 10 11  1  1
 10 12  1  0
 10 13  1  0
  5 14  1  0
  7 15  1  0
  8 16  1  6
  8 17  1  0
 14 18  1  0
 18 19  1  0
  2 20  1  0
  3 21  1  0
  3 22  1  0
  4 23  1  0
  5 24  1  1
  6 25  1  0
  6 26  1  0
  7 27  1  6
  9 28  1  6
 11 29  1  0
 12 30  1  0
 13 31  1  0
 13 32  1  0
 14 33  1  0
 15 34  1  0
 15 35  1  0
 15 36  1  0
 16 37  1  0
 17 38  1  0
 18 39  1  0
 18 40  1  0
 19 41  1  0
 19 42  1  0
 19 43  1  0
M  END
>  <PDBID>  (1) 
1CIL

>  <PDB ID>  (1) 
1CIL

>  <Generic Name>  (1) 
Dorzolamide

>  <Brand Name>  (1) 
Act Dorzotimolol#Apo-dorzo-timop#Apo-dorzolamide#Cosopt#Cosopt PF#Dorzolamide#Dorzolamide HCl#Dorzolamide HCl /timolol Maleate#Dorzolamide HCl and Timolol Maleate#Dorzolamide Hydrochloride#Dorzolamide Hydrochloride Ophthalmic Solution#Dorzolamide Hydrochloride Ophthalmic Solution 2%, 10ml Ophthalmic Solution 2%, 10ml#Dorzolamide Hydrochloride and Timolol Maleate#Dorzolamide Hydrochloride and Timolol Maleate Ophthalmic Solution#Dorzolamide Hydrochloride-timolol Maleate#Dorzolamide Hydrochloride-timolol Maleate Ophthalmic Solution Sterile Ophthalmic Solution#Jamp-dorzolamide#Jamp-dorzolamide/timolol#Med-dorzolamide#Med-dorzolamide-timolol#Mint-dorzolamide/timolol#Mylan-dorzolamide/timolol#PMS-dorzolamide-timolol#Riva-dorzolamide#Riva-dorzolamide/timolol#Sandoz Dorzolamide#Sandoz Dorzolamide/timolol#Teva-dorzotimol#Trusopt#Van-dorzolamide-timolol

>  <DrugBank ID>  (1) 
DB00869

>  <ATC Codes>  (1) 
S01EC03

>  <Ligand ID>  (1) 
ETS

>  <Target Name>  (1) 
Carbonic anhydrase 2

>  <UniProt ID>  (1) 
P00918

>  <PDB ID.1>  (1) 
1CIL

>  <Seq. Identity>  (1) 
100%

$$$$
