PDB_DB05812_95
     RDKit          3D

 57 61  0  0  0  0  0  0  0  0999 V2000
  -29.9380    0.5230  -35.9990 C   0  0  0  0  0  0  0  0  0  0  0  0
  -30.0670    1.9880  -35.5380 C   0  0  0  0  0  0  0  0  0  0  0  0
  -31.3870    1.9900  -34.7920 C   0  0  2  0  0  0  0  0  0  0  0  0
  -31.6880    3.3250  -34.3410 O   0  0  0  0  0  0  0  0  0  0  0  0
  -31.3150    1.0040  -33.6010 C   0  0  0  0  0  0  0  0  0  0  0  0
  -31.0720   -0.2870  -34.1050 C   0  0  0  0  0  0  0  0  0  0  0  0
  -31.9190   -1.3760  -33.8780 C   0  0  0  0  0  0  0  0  0  0  0  0
  -31.5000   -2.5990  -34.4390 C   0  0  0  0  0  0  0  0  0  0  0  0
  -30.0370   -2.8690  -34.6250 C   0  0  2  0  0  0  0  0  0  0  0  0
  -29.8090   -1.9040  -35.6150 C   0  0  1  0  0  0  0  0  0  0  0  0
  -29.9130   -0.5090  -34.8550 C   0  0  1  0  0  0  0  0  0  0  0  0
  -28.5110   -2.0130  -36.3510 C   0  0  0  0  0  0  0  0  0  0  0  0
  -28.5130   -3.4170  -36.9800 C   0  0  0  0  0  0  0  0  0  0  0  0
  -28.6370   -4.5070  -35.7970 C   0  0  1  0  0  0  0  0  0  0  0  0
  -30.0110   -4.2960  -35.3290 C   0  0  1  0  0  0  0  0  0  0  0  0
  -30.2060   -5.4070  -34.4580 C   0  0  0  0  0  0  0  0  0  0  0  0
  -29.9700   -6.3940  -35.4500 C   0  0  0  0  0  0  0  0  0  0  0  0
  -28.9470   -5.8610  -36.2260 C   0  0  0  0  0  0  0  0  0  0  0  0
  -27.5390   -4.5460  -34.7370 C   0  0  0  0  0  0  0  0  0  0  0  0
  -28.7020   -0.2350  -34.0000 C   0  0  0  0  0  0  0  0  0  0  0  0
  -28.4130   -6.4850  -37.2910 C   0  0  0  0  0  0  0  0  0  0  0  0
  -28.8530   -7.7490  -37.7020 C   0  0  0  0  0  0  0  0  0  0  0  0
  -28.2180   -8.4090  -38.7520 N   0  0  0  0  0  0  0  0  0  0  0  0
  -27.0810   -7.9030  -39.3610 C   0  0  0  0  0  0  0  0  0  0  0  0
  -26.6010   -6.6860  -38.9180 C   0  0  0  0  0  0  0  0  0  0  0  0
  -27.2360   -6.0200  -37.8690 C   0  0  0  0  0  0  0  0  0  0  0  0
  -30.7932    0.2918  -36.6511 H   0  0  0  0  0  0  0  0  0  0  0  0
  -28.9691    0.4420  -36.5135 H   0  0  0  0  0  0  0  0  0  0  0  0
  -29.2362    2.2692  -34.8741 H   0  0  0  0  0  0  0  0  0  0  0  0
  -30.0341    2.7101  -36.3671 H   0  0  0  0  0  0  0  0  0  0  0  0
  -32.1934    1.6619  -35.4643 H   0  0  0  0  0  0  0  0  0  0  0  0
  -31.6927    3.3457  -33.3512 H   0  0  0  0  0  0  0  0  0  0  0  0
  -30.4989    1.2980  -32.9245 H   0  0  0  0  0  0  0  0  0  0  0  0
  -32.2621    1.0184  -33.0417 H   0  0  0  0  0  0  0  0  0  0  0  0
  -32.8504   -1.2843  -33.3000 H   0  0  0  0  0  0  0  0  0  0  0  0
  -31.8919   -3.3975  -33.7919 H   0  0  0  0  0  0  0  0  0  0  0  0
  -31.8847   -2.5534  -35.4685 H   0  0  0  0  0  0  0  0  0  0  0  0
  -29.3620   -2.8454  -33.7568 H   0  0  0  0  0  0  0  0  0  0  0  0
  -30.5501   -2.0369  -36.4169 H   0  0  0  0  0  0  0  0  0  0  0  0
  -28.4460   -1.2416  -37.1324 H   0  0  0  0  0  0  0  0  0  0  0  0
  -27.6492   -1.8657  -35.6834 H   0  0  0  0  0  0  0  0  0  0  0  0
  -29.3672   -3.5151  -37.6661 H   0  0  0  0  0  0  0  0  0  0  0  0
  -27.5834   -3.5783  -37.5455 H   0  0  0  0  0  0  0  0  0  0  0  0
  -30.8133   -4.2686  -36.0810 H   0  0  0  0  0  0  0  0  0  0  0  0
  -29.4739   -5.4412  -33.6377 H   0  0  0  0  0  0  0  0  0  0  0  0
  -31.1553   -5.4589  -33.9048 H   0  0  0  0  0  0  0  0  0  0  0  0
  -30.4801   -7.3604  -35.5762 H   0  0  0  0  0  0  0  0  0  0  0  0
  -27.9949   -4.5298  -33.7361 H   0  0  0  0  0  0  0  0  0  0  0  0
  -26.9474   -5.4657  -34.8556 H   0  0  0  0  0  0  0  0  0  0  0  0
  -26.8836   -3.6706  -34.8556 H   0  0  0  0  0  0  0  0  0  0  0  0
  -28.9811   -0.2982  -32.9379 H   0  0  0  0  0  0  0  0  0  0  0  0
  -27.9224   -0.9795  -34.2191 H   0  0  0  0  0  0  0  0  0  0  0  0
  -28.3188    0.7725  -34.2191 H   0  0  0  0  0  0  0  0  0  0  0  0
  -29.7048   -8.2237  -37.1931 H   0  0  0  0  0  0  0  0  0  0  0  0
  -26.5774   -8.4521  -40.1702 H   0  0  0  0  0  0  0  0  0  0  0  0
  -25.7151   -6.2402  -39.3938 H   0  0  0  0  0  0  0  0  0  0  0  0
  -26.7888   -5.0916  -37.4843 H   0  0  0  0  0  0  0  0  0  0  0  0
  1  2  1  0
  2  3  1  0
  3  4  1  0
  3  5  1  0
  5  6  1  0
  6  7  2  0
  7  8  1  0
  8  9  1  0
  9 10  1  0
  1 11  1  0
  6 11  1  0
 10 11  1  0
 10 12  1  0
 12 13  1  0
 13 14  1  0
  9 15  1  0
 14 15  1  0
 15 16  1  0
 16 17  1  0
 14 18  1  0
 17 18  2  0
 14 19  1  1
 11 20  1  1
 18 21  1  0
 21 22  2  0
 22 23  1  0
 24 23  2  0
 24 25  1  0
 21 26  1  0
 25 26  2  0
  1 27  1  0
  1 28  1  0
  2 29  1  0
  2 30  1  0
  3 31  1  6
  4 32  1  0
  5 33  1  0
  5 34  1  0
  7 35  1  0
  8 36  1  0
  8 37  1  0
  9 38  1  1
 10 39  1  6
 12 40  1  0
 12 41  1  0
 13 42  1  0
 13 43  1  0
 15 44  1  6
 16 45  1  0
 16 46  1  0
 17 47  1  0
 19 48  1  0
 19 49  1  0
 19 50  1  0
 20 51  1  0
 20 52  1  0
 20 53  1  0
 22 54  1  0
 24 55  1  0
 25 56  1  0
 26 57  1  0
M  END
$$$$
