PDB_DB01199_99
     RDKit          3D

550580  0  0  0  0  0  0  0  0999 V2000
   37.1400  117.7530   52.1260 N   0  0  0  0  0  0  0  0  0  0  0  0
   36.8440  118.3230   50.8540 C   0  0  0  0  0  0  0  0  0  0  0  0
   37.9710  118.1530   49.8780 C   0  0  0  0  0  0  0  0  0  0  0  0
   38.8200  116.9350   50.1080 C   0  0  0  0  0  0  0  0  0  0  0  0
   38.5420  116.0150   51.1590 C   0  0  0  0  0  0  0  0  0  0  0  0
   37.3610  116.2610   52.0100 C   0  0  2  0  0  0  0  0  0  0  0  0
   39.9180  116.6730   49.2490 C   0  0  0  0  0  0  0  0  0  0  0  0
   40.7210  115.5200   49.4640 C   0  0  0  0  0  0  0  0  0  0  0  0
   40.4180  114.6170   50.5280 C   0  0  1  0  0  0  0  0  0  0  0  0
   39.3190  114.8520   51.3870 C   0  0  0  0  0  0  0  0  0  0  0  0
   41.2160  113.4540   50.6380 O   0  0  0  0  0  0  0  0  0  0  0  0
   41.1230  112.7220   51.8480 C   0  0  1  0  0  0  0  0  0  0  0  0
   42.2150  112.8570   52.7160 C   0  0  0  0  0  0  0  0  0  0  0  0
   42.2790  112.1030   53.8660 C   0  0  0  0  0  0  0  0  0  0  0  0
   41.2460  111.1790   54.1500 C   0  0  0  0  0  0  0  0  0  0  0  0
   40.1700  111.0120   53.2770 C   0  0  1  0  0  0  0  0  0  0  0  0
   40.0990  111.7890   52.1170 C   0  0  0  0  0  0  0  0  0  0  0  0
   39.0430  110.0090   53.6880 C   0  0  0  0  0  0  0  0  0  0  0  0
   38.8970  108.6740   52.8710 C   0  0  1  0  0  0  0  0  0  0  0  0
   39.6970  107.5350   53.3030 N   0  0  2  0  0  4  0  0  0  0  0  0
   39.1200  106.4860   54.1120 C   0  0  0  0  0  0  0  0  0  0  0  0
   37.8260  106.7800   54.7930 C   0  0  0  0  0  0  0  0  0  0  0  0
   36.8790  107.4720   53.8900 C   0  0  0  0  0  0  0  0  0  0  0  0
   37.3660  108.3910   52.9160 C   0  0  1  0  0  0  0  0  0  0  0  0
   35.5020  107.2100   54.0320 C   0  0  0  0  0  0  0  0  0  0  0  0
   34.6140  107.8630   53.2070 C   0  0  0  0  0  0  0  0  0  0  0  0
   35.0870  108.7990   52.2200 C   0  0  1  0  0  0  0  0  0  0  0  0
   36.4760  109.0740   52.0890 C   0  0  1  0  0  0  0  0  0  0  0  0
   36.9550  109.9360   51.0690 O   0  0  0  0  0  0  0  0  0  0  0  0
   36.7370  111.3110   51.2260 C   0  0  0  0  0  0  0  0  0  0  0  0
   36.8750  112.1320   50.0800 C   0  0  0  0  0  0  0  0  0  0  0  0
   36.6670  113.5090   50.1600 C   0  0  0  0  0  0  0  0  0  0  0  0
   36.3320  114.0900   51.3630 C   0  0  0  0  0  0  0  0  0  0  0  0
   36.2000  113.2720   52.5300 C   0  0  0  0  0  0  0  0  0  0  0  0
   36.3970  111.8960   52.4590 C   0  0  0  0  0  0  0  0  0  0  0  0
   36.1050  115.5870   51.4220 C   0  0  0  0  0  0  0  0  0  0  0  0
   41.8020  115.2530   48.5980 O   0  0  0  0  0  0  0  0  0  0  0  0
   42.5670  116.3090   48.0430 C   0  0  0  0  0  0  0  0  0  0  0  0
   43.1970  113.7730   52.3910 O   0  0  0  0  0  0  0  0  0  0  0  0
   33.2670  107.6020   53.3540 O   0  0  0  0  0  0  0  0  0  0  0  0
   32.8740  106.3610   53.7670 C   0  0  0  0  0  0  0  0  0  0  0  0
   34.1830  109.4830   51.4410 O   0  0  0  0  0  0  0  0  0  0  0  0
   36.4320  118.5700   53.1010 C   0  0  0  0  0  0  0  0  0  0  0  0
   40.9110  108.0110   53.9990 C   0  0  0  0  0  0  0  0  0  0  0  0
   40.1210  106.8000   52.0970 C   0  0  0  0  0  0  0  0  0  0  0  0
   23.4980  118.0930    4.6190 N   0  0  0  0  0  0  0  0  0  0  0  0
   24.8140  117.7740    4.1740 C   0  0  0  0  0  0  0  0  0  0  0  0
   24.8890  116.4330    3.5290 C   0  0  0  0  0  0  0  0  0  0  0  0
   23.6630  116.0700    2.7660 C   0  0  0  0  0  0  0  0  0  0  0  0
   22.5370  116.9420    2.7040 C   0  0  1  0  0  0  0  0  0  0  0  0
   22.5180  118.2320    3.4760 C   0  0  2  0  0  0  0  0  0  0  0  0
   23.6360  114.8430    2.0680 C   0  0  0  0  0  0  0  0  0  0  0  0
   22.4910  114.4800    1.3170 C   0  0  0  0  0  0  0  0  0  0  0  0
   21.3670  115.3480    1.2710 C   0  0  0  0  0  0  0  0  0  0  0  0
   21.3860  116.5790    1.9690 C   0  0  0  0  0  0  0  0  0  0  0  0
   20.2410  114.9910    0.4900 O   0  0  0  0  0  0  0  0  0  0  0  0
   19.0380  115.6080    0.9330 C   0  0  0  0  0  0  0  0  0  0  0  0
   18.2280  114.8950    1.8330 C   0  0  0  0  0  0  0  0  0  0  0  0
   17.0400  115.4330    2.2620 C   0  0  0  0  0  0  0  0  0  0  0  0
   16.6390  116.6970    1.7850 C   0  0  0  0  0  0  0  0  0  0  0  0
   17.4280  117.4060    0.8800 C   0  0  0  0  0  0  0  0  0  0  0  0
   18.6360  116.8670    0.4530 C   0  0  0  0  0  0  0  0  0  0  0  0
   16.9330  118.8140    0.4100 C   0  0  0  0  0  0  0  0  0  0  0  0
   16.6610  118.9810   -1.1240 C   0  0  1  0  0  0  0  0  0  0  0  0
   15.3730  118.5370   -1.5970 N   0  0  2  0  0  4  0  0  0  0  0  0
   14.2430  119.3480   -1.2130 C   0  0  0  0  0  0  0  0  0  0  0  0
   14.3790  120.8420   -1.3660 C   0  0  0  0  0  0  0  0  0  0  0  0
   15.7680  121.3720   -1.4970 C   0  0  0  0  0  0  0  0  0  0  0  0
   16.8890  120.4970   -1.4320 C   0  0  1  0  0  0  0  0  0  0  0  0
   15.9680  122.7610   -1.7200 C   0  0  0  0  0  0  0  0  0  0  0  0
   17.2440  123.2760   -1.8730 C   0  0  0  0  0  0  0  0  0  0  0  0
   18.3780  122.3960   -1.8070 C   0  0  0  0  0  0  0  0  0  0  0  0
   18.1740  121.0070   -1.5670 C   0  0  1  0  0  0  0  0  0  0  0  0
   19.2540  120.1080   -1.6210 O   0  0  0  0  0  0  0  0  0  0  0  0
   20.0810  120.0340   -0.5050 C   0  0  0  0  0  0  0  0  0  0  0  0
   21.2890  119.3260   -0.6860 C   0  0  0  0  0  0  0  0  0  0  0  0
   22.1730  119.1870    0.3760 C   0  0  0  0  0  0  0  0  0  0  0  0
   21.8570  119.7390    1.5970 C   0  0  0  0  0  0  0  0  0  0  0  0
   20.6360  120.4560    1.7900 C   0  0  0  0  0  0  0  0  0  0  0  0
   19.7500  120.6010    0.7340 C   0  0  0  0  0  0  0  0  0  0  0  0
   22.8410  119.5420    2.7170 C   0  0  0  0  0  0  0  0  0  0  0  0
   22.4790  113.2500    0.6350 O   0  0  0  0  0  0  0  0  0  0  0  0
   22.5440  112.0580    1.3900 C   0  0  0  0  0  0  0  0  0  0  0  0
   18.6470  113.6600    2.2870 O   0  0  0  0  0  0  0  0  0  0  0  0
   17.4070  124.6410   -2.0730 O   0  0  0  0  0  0  0  0  0  0  0  0
   16.9910  125.2240   -3.2400 C   0  0  0  0  0  0  0  0  0  0  0  0
   19.6670  122.8880   -1.9580 O   0  0  0  0  0  0  0  0  0  0  0  0
   23.3680  117.3120    5.8310 C   0  0  0  0  0  0  0  0  0  0  0  0
   15.1270  117.1470   -1.1490 C   0  0  0  0  0  0  0  0  0  0  0  0
   15.4320  118.4910   -3.0810 C   0  0  0  0  0  0  0  0  0  0  0  0
   32.1770  112.8200  100.4460 N   0  0  0  0  0  0  0  0  0  0  0  0
   31.5490  111.9240  101.3680 C   0  0  0  0  0  0  0  0  0  0  0  0
   31.8700  110.4720  101.1840 C   0  0  0  0  0  0  0  0  0  0  0  0
   33.1600  110.1620  100.4910 C   0  0  0  0  0  0  0  0  0  0  0  0
   34.0570  111.2090  100.1480 C   0  0  0  0  0  0  0  0  0  0  0  0
   33.6890  112.6340  100.4610 C   0  0  2  0  0  0  0  0  0  0  0  0
   33.4990  108.8170  100.1780 C   0  0  0  0  0  0  0  0  0  0  0  0
   34.7220  108.5180   99.5130 C   0  0  0  0  0  0  0  0  0  0  0  0
   35.6160  109.5720   99.1710 C   0  0  0  0  0  0  0  0  0  0  0  0
   35.2770  110.9180   99.4880 C   0  0  0  0  0  0  0  0  0  0  0  0
   36.8440  109.2620   98.5140 O   0  0  0  0  0  0  0  0  0  0  0  0
   37.3790  110.4190   97.8770 C   0  0  0  0  0  0  0  0  0  0  0  0
   37.0800  110.6680   96.5190 C   0  0  0  0  0  0  0  0  0  0  0  0
   37.5730  111.7900   95.8980 C   0  0  0  0  0  0  0  0  0  0  0  0
   38.3810  112.6860   96.6230 C   0  0  0  0  0  0  0  0  0  0  0  0
   38.6840  112.4370   97.9610 C   0  0  1  0  0  0  0  0  0  0  0  0
   38.1840  111.3120   98.5990 C   0  0  0  0  0  0  0  0  0  0  0  0
   39.5380  113.4920   98.7190 C   0  0  0  0  0  0  0  0  0  0  0  0
   40.7450  113.0130   99.5820 C   0  0  1  0  0  0  0  0  0  0  0  0
   41.8880  112.4500   98.9030 N   0  0  2  0  0  4  0  0  0  0  0  0
   42.7500  113.3700   98.1890 C   0  0  0  0  0  0  0  0  0  0  0  0
   42.4620  114.8520   98.2640 C   0  0  0  0  0  0  0  0  0  0  0  0
   41.9090  115.2790   99.5780 C   0  0  0  0  0  0  0  0  0  0  0  0
   41.1030  114.3530  100.2880 C   0  0  1  0  0  0  0  0  0  0  0  0
   42.1940  116.5620  100.1250 C   0  0  0  0  0  0  0  0  0  0  0  0
   41.6700  116.9100  101.3600 C   0  0  0  0  0  0  0  0  0  0  0  0
   40.8420  115.9750  102.0760 C   0  0  0  0  0  0  0  0  0  0  0  0
   40.5470  114.6980  101.5080 C   0  0  2  0  0  0  0  0  0  0  0  0
   39.8360  113.7200  102.2350 O   0  0  0  0  0  0  0  0  0  0  0  0
   38.4510  113.6380  102.0690 C   0  0  1  0  0  0  0  0  0  0  0  0
   37.8440  112.3780  102.2850 C   0  0  0  0  0  0  0  0  0  0  0  0
   36.4620  112.2400  102.1950 C   0  0  0  0  0  0  0  0  0  0  0  0
   35.6840  113.3370  101.8930 C   0  0  0  0  0  0  0  0  0  0  0  0
   36.2870  114.6160  101.6870 C   0  0  0  0  0  0  0  0  0  0  0  0
   37.6620  114.7610  101.7820 C   0  0  0  0  0  0  0  0  0  0  0  0
   34.1830  113.1740  101.8240 C   0  0  0  0  0  0  0  0  0  0  0  0
   35.0720  107.1850   99.2180 O   0  0  0  0  0  0  0  0  0  0  0  0
   34.0890  106.2130   98.9150 C   0  0  0  0  0  0  0  0  0  0  0  0
   36.2730  109.7980   95.8100 O   0  0  0  0  0  0  0  0  0  0  0  0
   41.9460  118.1590  101.9000 O   0  0  0  0  0  0  0  0  0  0  0  0
   41.9160  119.2770  101.1100 C   0  0  0  0  0  0  0  0  0  0  0  0
   40.3170  116.3250  103.3110 O   0  0  0  0  0  0  0  0  0  0  0  0
   31.3470  114.0250  100.5370 C   0  0  0  0  0  0  0  0  0  0  0  0
   41.4580  111.3820   97.9800 C   0  0  0  0  0  0  0  0  0  0  0  0
   42.7080  111.7720   99.9380 C   0  0  0  0  0  0  0  0  0  0  0  0
   47.0190  110.2030   70.4660 N   0  0  0  0  0  0  0  0  0  0  0  0
   45.9110  110.9250   71.0010 C   0  0  0  0  0  0  0  0  0  0  0  0
   45.7530  112.2810   70.3800 C   0  0  0  0  0  0  0  0  0  0  0  0
   46.1440  112.3530   68.9360 C   0  0  0  0  0  0  0  0  0  0  0  0
   46.6300  111.2050   68.2540 C   0  0  0  0  0  0  0  0  0  0  0  0
   46.8040  109.8880   68.9890 C   0  0  2  0  0  0  0  0  0  0  0  0
   45.9870  113.5810   68.2380 C   0  0  0  0  0  0  0  0  0  0  0  0
   46.3400  113.6570   66.8700 C   0  0  1  0  0  0  0  0  0  0  0  0
   46.8420  112.5230   66.2030 C   0  0  1  0  0  0  0  0  0  0  0  0
   46.9970  111.2850   66.8800 C   0  0  0  0  0  0  0  0  0  0  0  0
   47.1150  112.6750   64.8290 O   0  0  0  0  0  0  0  0  0  0  0  0
   48.1930  111.8870   64.3830 C   0  0  1  0  0  0  0  0  0  0  0  0
   49.4760  112.4450   64.4200 C   0  0  0  0  0  0  0  0  0  0  0  0
   50.5450  111.7190   63.9410 C   0  0  0  0  0  0  0  0  0  0  0  0
   50.3420  110.4250   63.4120 C   0  0  0  0  0  0  0  0  0  0  0  0
   49.0470  109.9000   63.3780 C   0  0  0  0  0  0  0  0  0  0  0  0
   47.9670  110.6200   63.8510 C   0  0  0  0  0  0  0  0  0  0  0  0
   48.8040  108.4800   62.8180 C   0  0  0  0  0  0  0  0  0  0  0  0
   47.8950  108.4800   61.5570 C   0  0  1  0  0  0  0  0  0  0  0  0
   48.5830  108.7040   60.3040 N   0  0  2  0  0  4  0  0  0  0  0  0
   49.5340  107.6670   60.0070 C   0  0  0  0  0  0  0  0  0  0  0  0
   48.9710  106.2680   59.9580 C   0  0  0  0  0  0  0  0  0  0  0  0
   47.8680  106.0010   60.9190 C   0  0  0  0  0  0  0  0  0  0  0  0
   47.2900  107.0530   61.6690 C   0  0  1  0  0  0  0  0  0  0  0  0
   47.3690  104.6850   61.0580 C   0  0  0  0  0  0  0  0  0  0  0  0
   46.3330  104.4190   61.9260 C   0  0  0  0  0  0  0  0  0  0  0  0
   45.7520  105.4810   62.6880 C   0  0  0  0  0  0  0  0  0  0  0  0
   46.2670  106.7910   62.5660 C   0  0  2  0  0  0  0  0  0  0  0  0
   45.6230  107.8610   63.2050 O   0  0  0  0  0  0  0  0  0  0  0  0
   45.6580  107.9730   64.6010 C   0  0  1  0  0  0  0  0  0  0  0  0
   44.7810  108.9310   65.1630 C   0  0  0  0  0  0  0  0  0  0  0  0
   44.7740  109.1690   66.5310 C   0  0  0  0  0  0  0  0  0  0  0  0
   45.6400  108.4690   67.3470 C   0  0  1  0  0  0  0  0  0  0  0  0
   46.5320  107.5000   66.8000 C   0  0  0  0  0  0  0  0  0  0  0  0
   46.5440  107.2610   65.4250 C   0  0  0  0  0  0  0  0  0  0  0  0
   45.6840  108.8360   68.8020 C   0  0  0  0  0  0  0  0  0  0  0  0
   46.1470  114.8270   66.1290 O   0  0  0  0  0  0  0  0  0  0  0  0
   45.9620  116.0680   66.7740 C   0  0  0  0  0  0  0  0  0  0  0  0
   49.6300  113.7240   64.9430 O   0  0  0  0  0  0  0  0  0  0  0  0
   45.8600  103.1200   62.0310 O   0  0  0  0  0  0  0  0  0  0  0  0
   45.4290  102.4710   60.9030 C   0  0  0  0  0  0  0  0  0  0  0  0
   44.7050  105.2410   63.5530 O   0  0  0  0  0  0  0  0  0  0  0  0
   48.1310  110.9440   71.0620 C   0  0  0  0  0  0  0  0  0  0  0  0
   49.2930  110.0060   60.3080 C   0  0  0  0  0  0  0  0  0  0  0  0
   47.5860  108.8040   59.1960 C   0  0  0  0  0  0  0  0  0  0  0  0
   75.6900  108.3970   65.8200 N   0  0  0  0  0  0  0  0  0  0  0  0
   74.8490  109.0250   64.8610 C   0  0  0  0  0  0  0  0  0  0  0  0
   75.3230  110.4030   64.5330 C   0  0  0  0  0  0  0  0  0  0  0  0
   76.8040  110.4650   64.3550 C   0  0  0  0  0  0  0  0  0  0  0  0
   77.6300  109.3580   64.7100 C   0  0  0  0  0  0  0  0  0  0  0  0
   77.0190  108.0750   65.1830 C   0  0  2  0  0  0  0  0  0  0  0  0
   77.4030  111.6470   63.8540 C   0  0  0  0  0  0  0  0  0  0  0  0
   78.8180  111.7070   63.7310 C   0  0  0  0  0  0  0  0  0  0  0  0
   79.6280  110.6130   64.1030 C   0  0  1  0  0  0  0  0  0  0  0  0
   79.0350  109.4260   64.5920 C   0  0  0  0  0  0  0  0  0  0  0  0
   81.0340  110.7200   63.9140 O   0  0  0  0  0  0  0  0  0  0  0  0
   81.8050  109.9800   64.8500 C   0  0  0  0  0  0  0  0  0  0  0  0
   82.1980  110.6130   66.0440 C   0  0  0  0  0  0  0  0  0  0  0  0
   82.9620  109.9460   66.9680 C   0  0  0  0  0  0  0  0  0  0  0  0
   83.3680  108.6250   66.6960 C   0  0  0  0  0  0  0  0  0  0  0  0
   82.9960  107.9950   65.5070 C   0  0  0  0  0  0  0  0  0  0  0  0
   82.2150  108.6690   64.5710 C   0  0  0  0  0  0  0  0  0  0  0  0
   83.4520  106.5260   65.2730 C   0  0  0  0  0  0  0  0  0  0  0  0
   84.3400  106.3500   64.0040 C   0  0  1  0  0  0  0  0  0  0  0  0
   85.7600  106.4540   64.2520 N   0  0  2  0  0  4  0  0  0  0  0  0
   86.2840  105.4050   65.0780 C   0  0  0  0  0  0  0  0  0  0  0  0
   86.0270  104.0200   64.5560 C   0  0  0  0  0  0  0  0  0  0  0  0
   84.7990  103.8460   63.7260 C   0  0  0  0  0  0  0  0  0  0  0  0
   83.9610  104.9560   63.4050 C   0  0  0  0  0  0  0  0  0  0  0  0
   84.4880  102.5510   63.2360 C   0  0  0  0  0  0  0  0  0  0  0  0
   83.3730  102.3500   62.4470 C   0  0  0  0  0  0  0  0  0  0  0  0
   82.5250  103.4570   62.1220 C   0  0  0  0  0  0  0  0  0  0  0  0
   82.8220  104.7560   62.6200 C   0  0  1  0  0  0  0  0  0  0  0  0
   82.0380  105.8420   62.1740 O   0  0  0  0  0  0  0  0  0  0  0  0
   80.7320  106.0170   62.6590 C   0  0  1  0  0  0  0  0  0  0  0  0
   79.9100  106.9270   61.9470 C   0  0  0  0  0  0  0  0  0  0  0  0
   78.6250  107.2280   62.4030 C   0  0  0  0  0  0  0  0  0  0  0  0
   78.1540  106.6270   63.5500 C   0  0  1  0  0  0  0  0  0  0  0  0
   78.9690  105.7070   64.2830 C   0  0  0  0  0  0  0  0  0  0  0  0
   80.2530  105.4100   63.8360 C   0  0  0  0  0  0  0  0  0  0  0  0
   76.7940  107.0240   64.0650 C   0  0  0  0  0  0  0  0  0  0  0  0
   79.4340  112.8480   63.2030 O   0  0  0  0  0  0  0  0  0  0  0  0
   78.7180  114.0690   63.1300 C   0  0  0  0  0  0  0  0  0  0  0  0
   81.7840  111.9010   66.2960 O   0  0  0  0  0  0  0  0  0  0  0  0
   83.0870  101.0790   61.9700 O   0  0  0  0  0  0  0  0  0  0  0  0
   84.0850  100.1440   61.9410 C   0  0  0  0  0  0  0  0  0  0  0  0
   81.4000  103.2620   61.3420 O   0  0  0  0  0  0  0  0  0  0  0  0
   75.4380  109.1450   67.0460 C   0  0  0  0  0  0  0  0  0  0  0  0
   86.0730  107.7480   64.9030 C   0  0  0  0  0  0  0  0  0  0  0  0
   86.4810  106.4310   62.9480 C   0  0  0  0  0  0  0  0  0  0  0  0
   35.9468  117.8336   50.4472 H   0  0  0  0  0  0  0  0  0  0  0  0
   36.6829  119.4016   50.9977 H   0  0  0  0  0  0  0  0  0  0  0  0
   37.5422  118.0863   48.8672 H   0  0  0  0  0  0  0  0  0  0  0  0
   38.6315  119.0226   50.0104 H   0  0  0  0  0  0  0  0  0  0  0  0
   39.4661  117.5132   50.7850 H   0  0  0  0  0  0  0  0  0  0  0  0
   39.1608  116.6119   51.8452 H   0  0  0  0  0  0  0  0  0  0  0  0
   37.5425  115.8289   53.0052 H   0  0  0  0  0  0  0  0  0  0  0  0
   39.5134  116.5943   48.2291 H   0  0  0  0  0  0  0  0  0  0  0  0
   40.6067  117.5063   49.4523 H   0  0  0  0  0  0  0  0  0  0  0  0
   41.3697  116.0976   50.1390 H   0  0  0  0  0  0  0  0  0  0  0  0
   41.0684  115.1934   51.2024 H   0  0  0  0  0  0  0  0  0  0  0  0
   39.7113  114.9148   52.4128 H   0  0  0  0  0  0  0  0  0  0  0  0
   38.6311  114.0156   51.1938 H   0  0  0  0  0  0  0  0  0  0  0  0
   41.6124  111.8629   51.3659 H   0  0  0  0  0  0  0  0  0  0  0  0
   41.6816  113.6476   53.2641 H   0  0  0  0  0  0  0  0  0  0  0  0
   43.2174  111.5307   53.8219 H   0  0  0  0  0  0  0  0  0  0  0  0
   42.1880  112.8484   54.6698 H   0  0  0  0  0  0  0  0  0  0  0  0
   41.7257  110.1939   54.2469 H   0  0  0  0  0  0  0  0  0  0  0  0
   40.7694  111.6156   55.0401 H   0  0  0  0  0  0  0  0  0  0  0  0
   39.6054  111.7800   53.8260 H   0  0  0  0  0  0  0  0  0  0  0  0
   39.1556  112.3527   52.1653 H   0  0  0  0  0  0  0  0  0  0  0  0
   40.1956  111.0540   51.3043 H   0  0  0  0  0  0  0  0  0  0  0  0
   39.2219  109.7306   54.7370 H   0  0  0  0  0  0  0  0  0  0  0  0
   38.1089  110.5536   53.4859 H   0  0  0  0  0  0  0  0  0  0  0  0
   39.3056  108.8105   51.8589 H   0  0  0  0  0  0  0  0  0  0  0  0
   38.9592  105.6157   53.4588 H   0  0  0  0  0  0  0  0  0  0  0  0
   39.8401  106.3314   54.9291 H   0  0  0  0  0  0  0  0  0  0  0  0
   37.3748  105.8336   55.1258 H   0  0  0  0  0  0  0  0  0  0  0  0
   38.0302  107.4406   55.6485 H   0  0  0  0  0  0  0  0  0  0  0  0
   36.7852  108.2922   54.6170 H   0  0  0  0  0  0  0  0  0  0  0  0
   37.4978  107.5646   52.2021 H   0  0  0  0  0  0  0  0  0  0  0  0
   35.3599  106.1312   53.8706 H   0  0  0  0  0  0  0  0  0  0  0  0
   35.2611  107.5899   55.0358 H   0  0  0  0  0  0  0  0  0  0  0  0
   34.5318  108.6783   53.9408 H   0  0  0  0  0  0  0  0  0  0  0  0
   34.9941  109.6162   52.9505 H   0  0  0  0  0  0  0  0  0  0  0  0
   36.5630  108.2763   51.3366 H   0  0  0  0  0  0  0  0  0  0  0  0
   37.8031  111.4537   51.4566 H   0  0  0  0  0  0  0  0  0  0  0  0
   37.9027  111.9904   49.7143 H   0  0  0  0  0  0  0  0  0  0  0  0
   36.0475  111.7965   49.4376 H   0  0  0  0  0  0  0  0  0  0  0  0
   37.5977  113.9899   49.8244 H   0  0  0  0  0  0  0  0  0  0  0  0
   35.7661  113.6626   49.5478 H   0  0  0  0  0  0  0  0  0  0  0  0
   35.2656  113.9411   51.1380 H   0  0  0  0  0  0  0  0  0  0  0  0
   36.9223  113.6553   53.2658 H   0  0  0  0  0  0  0  0  0  0  0  0
   35.1291  113.3545   52.7676 H   0  0  0  0  0  0  0  0  0  0  0  0
   35.4628  111.4207   52.7927 H   0  0  0  0  0  0  0  0  0  0  0  0
   37.2888  111.7286   53.0808 H   0  0  0  0  0  0  0  0  0  0  0  0
   35.2364  115.8036   52.0612 H   0  0  0  0  0  0  0  0  0  0  0  0
   35.9136  115.9746   50.4105 H   0  0  0  0  0  0  0  0  0  0  0  0
   43.0032  116.9111   48.8537 H   0  0  0  0  0  0  0  0  0  0  0  0
   43.3731  115.8909   47.4223 H   0  0  0  0  0  0  0  0  0  0  0  0
   41.9184  116.9447   47.4223 H   0  0  0  0  0  0  0  0  0  0  0  0
   43.5921  114.1415   53.2206 H   0  0  0  0  0  0  0  0  0  0  0  0
   32.8632  106.3268   54.8664 H   0  0  0  0  0  0  0  0  0  0  0  0
   31.8649  106.1495   53.3836 H   0  0  0  0  0  0  0  0  0  0  0  0
   33.5774  105.6072   53.3836 H   0  0  0  0  0  0  0  0  0  0  0  0
   33.5446  109.9661   52.0234 H   0  0  0  0  0  0  0  0  0  0  0  0
   36.7086  118.2509   54.1167 H   0  0  0  0  0  0  0  0  0  0  0  0
   36.7050  119.6264   52.9615 H   0  0  0  0  0  0  0  0  0  0  0  0
   35.3475  118.4500   52.9615 H   0  0  0  0  0  0  0  0  0  0  0  0
   40.7575  107.9508   55.0866 H   0  0  0  0  0  0  0  0  0  0  0  0
   41.7673  107.3820   53.7142 H   0  0  0  0  0  0  0  0  0  0  0  0
   41.1116  109.0544   53.7142 H   0  0  0  0  0  0  0  0  0  0  0  0
   40.6503  105.8825   52.3939 H   0  0  0  0  0  0  0  0  0  0  0  0
   39.2365  106.5358   51.4987 H   0  0  0  0  0  0  0  0  0  0  0  0
   40.7925  107.4334   51.4987 H   0  0  0  0  0  0  0  0  0  0  0  0
   25.1341  118.5340    3.4460 H   0  0  0  0  0  0  0  0  0  0  0  0
   25.4704  117.7575    5.0566 H   0  0  0  0  0  0  0  0  0  0  0  0
   25.7440  116.4272    2.8369 H   0  0  0  0  0  0  0  0  0  0  0  0
   24.9987  115.6926    4.3351 H   0  0  0  0  0  0  0  0  0  0  0  0
   23.2446  115.5936    3.6649 H   0  0  0  0  0  0  0  0  0  0  0  0
   22.0868  116.4217    3.5623 H   0  0  0  0  0  0  0  0  0  0  0  0
   21.4670  118.3574    3.7756 H   0  0  0  0  0  0  0  0  0  0  0  0
   24.4838  114.8577    1.3672 H   0  0  0  0  0  0  0  0  0  0  0  0
   23.6581  114.0938    2.8731 H   0  0  0  0  0  0  0  0  0  0  0  0
   22.0691  113.9806    2.2016 H   0  0  0  0  0  0  0  0  0  0  0  0
   20.9472  114.8514    2.1582 H   0  0  0  0  0  0  0  0  0  0  0  0
   20.5460  116.5578    2.6789 H   0  0  0  0  0  0  0  0  0  0  0  0
   21.3414  117.3319    1.1683 H   0  0  0  0  0  0  0  0  0  0  0  0
   18.4960  115.1576    0.0884 H   0  0  0  0  0  0  0  0  0  0  0  0
   18.7482  115.3702    2.6777 H   0  0  0  0  0  0  0  0  0  0  0  0
   16.2481  114.7209    1.9865 H   0  0  0  0  0  0  0  0  0  0  0  0
   17.2058  115.6025    3.3361 H   0  0  0  0  0  0  0  0  0  0  0  0
   15.6612  116.5533    1.3020 H   0  0  0  0  0  0  0  0  0  0  0  0
   16.6854  117.3226    2.6886 H   0  0  0  0  0  0  0  0  0  0  0  0
   17.9440  117.8997    1.7167 H   0  0  0  0  0  0  0  0  0  0  0  0
   19.4230  117.5828    0.7327 H   0  0  0  0  0  0  0  0  0  0  0  0
   18.4785  116.6966   -0.6222 H   0  0  0  0  0  0  0  0  0  0  0  0
   15.9956  119.0338    0.9419 H   0  0  0  0  0  0  0  0  0  0  0  0
   17.7586  119.5046    0.6371 H   0  0  0  0  0  0  0  0  0  0  0  0
   17.3482  118.3162   -1.6679 H   0  0  0  0  0  0  0  0  0  0  0  0
   13.3855  119.0301   -1.8242 H   0  0  0  0  0  0  0  0  0  0  0  0
   14.1331  119.1842   -0.1308 H   0  0  0  0  0  0  0  0  0  0  0  0
   13.8214  121.1383   -2.2667 H   0  0  0  0  0  0  0  0  0  0  0  0
   13.9908  121.2682   -0.4291 H   0  0  0  0  0  0  0  0  0  0  0  0
   15.8163  121.5148   -0.4074 H   0  0  0  0  0  0  0  0  0  0  0  0
   16.7921  120.2929   -2.5085 H   0  0  0  0  0  0  0  0  0  0  0  0
   15.4148  123.0149   -2.6363 H   0  0  0  0  0  0  0  0  0  0  0  0
   15.6336  123.2117   -0.7739 H   0  0  0  0  0  0  0  0  0  0  0  0
   17.3080  123.4399   -0.7872 H   0  0  0  0  0  0  0  0  0  0  0  0
   18.4518  122.5723   -0.7237 H   0  0  0  0  0  0  0  0  0  0  0  0
   18.1320  120.8258   -2.6512 H   0  0  0  0  0  0  0  0  0  0  0  0
   19.5818  119.1035   -0.1968 H   0  0  0  0  0  0  0  0  0  0  0  0
   21.0175  118.3103   -1.0096 H   0  0  0  0  0  0  0  0  0  0  0  0
   21.8455  119.9495   -1.4013 H   0  0  0  0  0  0  0  0  0  0  0  0
   22.3108  118.1078    0.5386 H   0  0  0  0  0  0  0  0  0  0  0  0
   23.0558  119.7590    0.0543 H   0  0  0  0  0  0  0  0  0  0  0  0
   22.3593  120.6730    1.3047 H   0  0  0  0  0  0  0  0  0  0  0  0
   20.0900  119.9447    2.5965 H   0  0  0  0  0  0  0  0  0  0  0  0
   20.9717  121.4851    1.9855 H   0  0  0  0  0  0  0  0  0  0  0  0
   19.6150  121.6804    0.5705 H   0  0  0  0  0  0  0  0  0  0  0  0
   18.8587  120.0416    1.0543 H   0  0  0  0  0  0  0  0  0  0  0  0
   22.7774  120.3919    3.4124 H   0  0  0  0  0  0  0  0  0  0  0  0
   23.8570  119.4786    2.3002 H   0  0  0  0  0  0  0  0  0  0  0  0
   22.5307  112.3021    2.4625 H   0  0  0  0  0  0  0  0  0  0  0  0
   21.6792  111.4229    1.1477 H   0  0  0  0  0  0  0  0  0  0  0  0
   23.4728  111.5207    1.1477 H   0  0  0  0  0  0  0  0  0  0  0  0
   18.6485  113.6555    3.2770 H   0  0  0  0  0  0  0  0  0  0  0  0
   16.3662  126.0996   -3.0100 H   0  0  0  0  0  0  0  0  0  0  0  0
   17.8674  125.5420   -3.8237 H   0  0  0  0  0  0  0  0  0  0  0  0
   16.4052  124.4987   -3.8237 H   0  0  0  0  0  0  0  0  0  0  0  0
   20.0683  123.0412   -1.0661 H   0  0  0  0  0  0  0  0  0  0  0  0
   23.4776  117.9707    6.7052 H   0  0  0  0  0  0  0  0  0  0  0  0
   22.3778  116.8334    5.8544 H   0  0  0  0  0  0  0  0  0  0  0  0
   24.1497  116.5385    5.8544 H   0  0  0  0  0  0  0  0  0  0  0  0
   15.1208  117.1118   -0.0496 H   0  0  0  0  0  0  0  0  0  0  0  0
   14.1544  116.8049   -1.5323 H   0  0  0  0  0  0  0  0  0  0  0  0
   15.9232  116.4919   -1.5323 H   0  0  0  0  0  0  0  0  0  0  0  0
   16.2634  117.8428   -3.3950 H   0  0  0  0  0  0  0  0  0  0  0  0
   14.4859  118.0898   -3.4733 H   0  0  0  0  0  0  0  0  0  0  0  0
   15.5904  119.5064   -3.4733 H   0  0  0  0  0  0  0  0  0  0  0  0
   31.8583  112.2124  102.3834 H   0  0  0  0  0  0  0  0  0  0  0  0
   30.4679  112.0173  101.1875 H   0  0  0  0  0  0  0  0  0  0  0  0
   31.9044  110.0072  102.1804 H   0  0  0  0  0  0  0  0  0  0  0  0
   31.0811  110.0776  100.5267 H   0  0  0  0  0  0  0  0  0  0  0  0
   32.6620  110.2692   99.5161 H   0  0  0  0  0  0  0  0  0  0  0  0
   33.5740  111.3004   99.1639 H   0  0  0  0  0  0  0  0  0  0  0  0
   34.2004  113.2018   99.6698 H   0  0  0  0  0  0  0  0  0  0  0  0
   33.5144  108.2658  101.1298 H   0  0  0  0  0  0  0  0  0  0  0  0
   32.7375  108.5352   99.4359 H   0  0  0  0  0  0  0  0  0  0  0  0
   34.2201  108.6281   98.5404 H   0  0  0  0  0  0  0  0  0  0  0  0
   35.1192  109.6767   98.1952 H   0  0  0  0  0  0  0  0  0  0  0  0
   35.2636  111.4732   98.5385 H   0  0  0  0  0  0  0  0  0  0  0  0
   36.0376  111.1999  100.2310 H   0  0  0  0  0  0  0  0  0  0  0  0
   38.2664  109.8429   97.5760 H   0  0  0  0  0  0  0  0  0  0  0  0
   36.1825  111.2286   96.8194 H   0  0  0  0  0  0  0  0  0  0  0  0
   38.1685  111.4449   95.0399 H   0  0  0  0  0  0  0  0  0  0  0  0
   36.6710  112.3787   95.6750 H   0  0  0  0  0  0  0  0  0  0  0  0
   39.3403  112.7496   96.0885 H   0  0  0  0  0  0  0  0  0  0  0  0
   37.7628  113.5945   96.6726 H   0  0  0  0  0  0  0  0  0  0  0  0
   37.7946  113.0066   98.2684 H   0  0  0  0  0  0  0  0  0  0  0  0
   37.5871  111.6650   99.4529 H   0  0  0  0  0  0  0  0  0  0  0  0
   39.0826  110.7231   98.8352 H   0  0  0  0  0  0  0  0  0  0  0  0
   39.9373  114.1853   97.9641 H   0  0  0  0  0  0  0  0  0  0  0  0
   38.8395  113.9145   99.4563 H   0  0  0  0  0  0  0  0  0  0  0  0
   40.4716  112.1535  100.2117 H   0  0  0  0  0  0  0  0  0  0  0  0
   43.7699  113.2200   98.5729 H   0  0  0  0  0  0  0  0  0  0  0  0
   42.5818  113.1218   97.1307 H   0  0  0  0  0  0  0  0  0  0  0  0
   43.3994  115.3992   98.0854 H   0  0  0  0  0  0  0  0  0  0  0  0
   41.7002  115.0746   97.5024 H   0  0  0  0  0  0  0  0  0  0  0  0
   41.0137  115.6716   99.0737 H   0  0  0  0  0  0  0  0  0  0  0  0
   42.0070  113.8894  100.7096 H   0  0  0  0  0  0  0  0  0  0  0  0
   43.2882  116.6379  100.2090 H   0  0  0  0  0  0  0  0  0  0  0  0
   41.6975  117.2549   99.4297 H   0  0  0  0  0  0  0  0  0  0  0  0
   40.7777  117.3215  100.8655 H   0  0  0  0  0  0  0  0  0  0  0  0
   39.9482  116.3964  101.5927 H   0  0  0  0  0  0  0  0  0  0  0  0
   39.5853  115.1448  101.2156 H   0  0  0  0  0  0  0  0  0  0  0  0
   38.5931  113.3876  101.0074 H   0  0  0  0  0  0  0  0  0  0  0  0
   38.2794  111.6868  101.5483 H   0  0  0  0  0  0  0  0  0  0  0  0
   38.0457  112.1827  103.3486 H   0  0  0  0  0  0  0  0  0  0  0  0
   36.2667  111.4868  101.4175 H   0  0  0  0  0  0  0  0  0  0  0  0
   36.1624  111.9890  103.2232 H   0  0  0  0  0  0  0  0  0  0  0  0
   35.5802  113.5586  102.9654 H   0  0  0  0  0  0  0  0  0  0  0  0
   36.0034  114.9406  100.6750 H   0  0  0  0  0  0  0  0  0  0  0  0
   35.9128  115.2094  102.5343 H   0  0  0  0  0  0  0  0  0  0  0  0
   37.8531  115.4989  102.5750 H   0  0  0  0  0  0  0  0  0  0  0  0
   37.9662  115.0402  100.7624 H   0  0  0  0  0  0  0  0  0  0  0  0
   33.7167  114.1544  102.0011 H   0  0  0  0  0  0  0  0  0  0  0  0
   33.8995  112.4364  102.5892 H   0  0  0  0  0  0  0  0  0  0  0  0
   33.6764  105.8051   99.8495 H   0  0  0  0  0  0  0  0  0  0  0  0
   33.2818  106.6779   98.3300 H   0  0  0  0  0  0  0  0  0  0  0  0
   34.5448  105.4006   98.3300 H   0  0  0  0  0  0  0  0  0  0  0  0
   35.7548  109.2393   96.4420 H   0  0  0  0  0  0  0  0  0  0  0  0
   41.8919  120.1745  101.7455 H   0  0  0  0  0  0  0  0  0  0  0  0
   42.8138  119.3014  100.4749 H   0  0  0  0  0  0  0  0  0  0  0  0
   41.0182  119.2532  100.4749 H   0  0  0  0  0  0  0  0  0  0  0  0
   40.8837  115.9472  104.0295 H   0  0  0  0  0  0  0  0  0  0  0  0
   31.1759  114.2734  101.5949 H   0  0  0  0  0  0  0  0  0  0  0  0
   31.8608  114.8624  100.0422 H   0  0  0  0  0  0  0  0  0  0  0  0
   30.3815  113.8434  100.0422 H   0  0  0  0  0  0  0  0  0  0  0  0
   41.1089  110.5149   98.5598 H   0  0  0  0  0  0  0  0  0  0  0  0
   40.6391  111.7529   97.3461 H   0  0  0  0  0  0  0  0  0  0  0  0
   42.3054  111.0821   97.3461 H   0  0  0  0  0  0  0  0  0  0  0  0
   42.3532  112.0653  100.9371 H   0  0  0  0  0  0  0  0  0  0  0  0
   42.6169  110.6819   99.8220 H   0  0  0  0  0  0  0  0  0  0  0  0
   43.7615  112.0663   99.8220 H   0  0  0  0  0  0  0  0  0  0  0  0
   44.9932  110.3460   70.8213 H   0  0  0  0  0  0  0  0  0  0  0  0
   46.0950  111.0698   72.0758 H   0  0  0  0  0  0  0  0  0  0  0  0
   44.6969  112.5767   70.4650 H   0  0  0  0  0  0  0  0  0  0  0  0
   46.4335  112.9542   70.9220 H   0  0  0  0  0  0  0  0  0  0  0  0
   47.1718  112.6150   69.2274 H   0  0  0  0  0  0  0  0  0  0  0  0
   47.6609  111.4866   68.5146 H   0  0  0  0  0  0  0  0  0  0  0  0
   47.6760  109.3948   68.5346 H   0  0  0  0  0  0  0  0  0  0  0  0
   44.9242  113.8556   68.3095 H   0  0  0  0  0  0  0  0  0  0  0  0
   46.7100  114.2498   68.7279 H   0  0  0  0  0  0  0  0  0  0  0  0
   47.3639  113.9454   67.1502 H   0  0  0  0  0  0  0  0  0  0  0  0
   47.8653  112.8076   66.4892 H   0  0  0  0  0  0  0  0  0  0  0  0
   48.0600  111.0102   66.8125 H   0  0  0  0  0  0  0  0  0  0  0  0
   46.2866  110.6141   66.3748 H   0  0  0  0  0  0  0  0  0  0  0  0
   48.0540  112.2742   63.3628 H   0  0  0  0  0  0  0  0  0  0  0  0
   49.6335  112.0166   65.4208 H   0  0  0  0  0  0  0  0  0  0  0  0
   51.0039  112.3199   63.1420 H   0  0  0  0  0  0  0  0  0  0  0  0
   51.1462  111.5310   64.8428 H   0  0  0  0  0  0  0  0  0  0  0  0
   50.7108  110.4394   62.3758 H   0  0  0  0  0  0  0  0  0  0  0  0
   50.8738  109.7673   64.1153 H   0  0  0  0  0  0  0  0  0  0  0  0
   49.1963  109.4670   64.3781 H   0  0  0  0  0  0  0  0  0  0  0  0
   47.4951  110.0162   64.6402 H   0  0  0  0  0  0  0  0  0  0  0  0
   47.3575  110.8097   62.9551 H   0  0  0  0  0  0  0  0  0  0  0  0
   49.7745  108.0357   62.5522 H   0  0  0  0  0  0  0  0  0  0  0  0
   48.2904  107.8986   63.5979 H   0  0  0  0  0  0  0  0  0  0  0  0
   47.1690  109.3062   61.5383 H   0  0  0  0  0  0  0  0  0  0  0  0
   49.9815  107.8874   59.0266 H   0  0  0  0  0  0  0  0  0  0  0  0
   50.2584  107.6736   60.8348 H   0  0  0  0  0  0  0  0  0  0  0  0
   48.5893  106.0891   58.9420 H   0  0  0  0  0  0  0  0  0  0  0  0
   49.7942  105.5950   60.2398 H   0  0  0  0  0  0  0  0  0  0  0  0
   48.6049  105.8357   61.7188 H   0  0  0  0  0  0  0  0  0  0  0  0
   46.6104  107.2755   60.8331 H   0  0  0  0  0  0  0  0  0  0  0  0
   47.0332  104.3680   60.0596 H   0  0  0  0  0  0  0  0  0  0  0  0
   48.2149  104.1456   61.5091 H   0  0  0  0  0  0  0  0  0  0  0  0
   47.0568  104.2355   62.7337 H   0  0  0  0  0  0  0  0  0  0  0  0
   46.4582  105.2797   63.5070 H   0  0  0  0  0  0  0  0  0  0  0  0
   46.9471  106.5944   63.4079 H   0  0  0  0  0  0  0  0  0  0  0  0
   46.4430  108.7393   64.5198 H   0  0  0  0  0  0  0  0  0  0  0  0
   45.0120  109.8910   64.6782 H   0  0  0  0  0  0  0  0  0  0  0  0
   43.7892  108.4894   64.9858 H   0  0  0  0  0  0  0  0  0  0  0  0
   44.9955  110.2373   66.6711 H   0  0  0  0  0  0  0  0  0  0  0  0
   43.7804  108.8201   66.8489 H   0  0  0  0  0  0  0  0  0  0  0  0
   44.8776  107.6884   67.4865 H   0  0  0  0  0  0  0  0  0  0  0  0
   47.5496  107.8128   67.0769 H   0  0  0  0  0  0  0  0  0  0  0  0
   46.1634  106.5519   67.2185 H   0  0  0  0  0  0  0  0  0  0  0  0
   46.3279  106.1919   65.2821 H   0  0  0  0  0  0  0  0  0  0  0  0
   47.5374  107.6097   65.1062 H   0  0  0  0  0  0  0  0  0  0  0  0
   45.9034  107.9438   69.4068 H   0  0  0  0  0  0  0  0  0  0  0  0
   44.7150  109.2436   69.1257 H   0  0  0  0  0  0  0  0  0  0  0  0
   45.9838  115.9216   67.8640 H   0  0  0  0  0  0  0  0  0  0  0  0
   46.7673  116.7574   66.4805 H   0  0  0  0  0  0  0  0  0  0  0  0
   44.9906  116.4926   66.4805 H   0  0  0  0  0  0  0  0  0  0  0  0
   49.6246  113.6790   65.9320 H   0  0  0  0  0  0  0  0  0  0  0  0
   44.8416  101.5866   61.1907 H   0  0  0  0  0  0  0  0  0  0  0  0
   44.8016  103.1497   60.3066 H   0  0  0  0  0  0  0  0  0  0  0  0
   46.2980  102.1560   60.3066 H   0  0  0  0  0  0  0  0  0  0  0  0
   45.0251  105.3144   64.4869 H   0  0  0  0  0  0  0  0  0  0  0  0
   48.0581  110.8954   72.1585 H   0  0  0  0  0  0  0  0  0  0  0  0
   49.0835  110.4994   70.7378 H   0  0  0  0  0  0  0  0  0  0  0  0
   48.0874  111.9942   70.7378 H   0  0  0  0  0  0  0  0  0  0  0  0
   49.4672  110.3255   61.3461 H   0  0  0  0  0  0  0  0  0  0  0  0
   50.2577  109.8991   59.7904 H   0  0  0  0  0  0  0  0  0  0  0  0
   48.6807  110.7591   59.7904 H   0  0  0  0  0  0  0  0  0  0  0  0
   46.5759  108.9053   59.6197 H   0  0  0  0  0  0  0  0  0  0  0  0
   47.8136  109.6838   58.5762 H   0  0  0  0  0  0  0  0  0  0  0  0
   47.6343  107.8965   58.5762 H   0  0  0  0  0  0  0  0  0  0  0  0
   74.8430  108.4212   63.9416 H   0  0  0  0  0  0  0  0  0  0  0  0
   73.8379  109.1012   65.2874 H   0  0  0  0  0  0  0  0  0  0  0  0
   74.8405  110.7305   63.6003 H   0  0  0  0  0  0  0  0  0  0  0  0
   75.0573  111.0596   65.3745 H   0  0  0  0  0  0  0  0  0  0  0  0
   76.9093  110.8698   65.3724 H   0  0  0  0  0  0  0  0  0  0  0  0
   77.6707  109.7211   65.7475 H   0  0  0  0  0  0  0  0  0  0  0  0
   77.7304  107.6234   65.8901 H   0  0  0  0  0  0  0  0  0  0  0  0
   76.9853  111.8192   62.8511 H   0  0  0  0  0  0  0  0  0  0  0  0
   77.1739  112.4024   64.6201 H   0  0  0  0  0  0  0  0  0  0  0  0
   78.8898  112.1077   64.7529 H   0  0  0  0  0  0  0  0  0  0  0  0
   79.6875  111.0058   65.1287 H   0  0  0  0  0  0  0  0  0  0  0  0
   79.4511  109.2479   65.5946 H   0  0  0  0  0  0  0  0  0  0  0  0
   79.2700  108.6781   63.8204 H   0  0  0  0  0  0  0  0  0  0  0  0
   82.7285  110.3258   64.3627 H   0  0  0  0  0  0  0  0  0  0  0  0
   81.2843  110.2498   66.5373 H   0  0  0  0  0  0  0  0  0  0  0  0
   83.8761  110.5392   67.1182 H   0  0  0  0  0  0  0  0  0  0  0  0
   82.2937  109.8420   67.8355 H   0  0  0  0  0  0  0  0  0  0  0  0
   84.4677  108.6228   66.7219 H   0  0  0  0  0  0  0  0  0  0  0  0
   82.8327  108.0420   67.4599 H   0  0  0  0  0  0  0  0  0  0  0  0
   82.0854  107.6150   65.9932 H   0  0  0  0  0  0  0  0  0  0  0  0
   81.3042  108.0710   64.4198 H   0  0  0  0  0  0  0  0  0  0  0  0
   82.8791  108.7783   63.7009 H   0  0  0  0  0  0  0  0  0  0  0  0
   84.0274  106.1952   66.1502 H   0  0  0  0  0  0  0  0  0  0  0  0
   82.5442  105.9237   65.1211 H   0  0  0  0  0  0  0  0  0  0  0  0
   84.1413  107.1731   63.3019 H   0  0  0  0  0  0  0  0  0  0  0  0
   87.3718  105.5446   65.1634 H   0  0  0  0  0  0  0  0  0  0  0  0
   85.7663  105.4779   66.0458 H   0  0  0  0  0  0  0  0  0  0  0  0
   86.8914  103.7270   63.9420 H   0  0  0  0  0  0  0  0  0  0  0  0
   85.8713  103.3938   65.4469 H   0  0  0  0  0  0  0  0  0  0  0  0
   84.2093  103.6641   64.6366 H   0  0  0  0  0  0  0  0  0  0  0  0
   84.5801  105.1677   62.5207 H   0  0  0  0  0  0  0  0  0  0  0  0
   85.3555  102.2205   62.6459 H   0  0  0  0  0  0  0  0  0  0  0  0
   84.2476  101.9909   64.1517 H   0  0  0  0  0  0  0  0  0  0  0  0
   82.7716  102.1535   63.3469 H   0  0  0  0  0  0  0  0  0  0  0  0
   81.9168  103.2535   63.0157 H   0  0  0  0  0  0  0  0  0  0  0  0
   83.4088  104.9691   61.7143 H   0  0  0  0  0  0  0  0  0  0  0  0
   81.0813  106.8370   63.3037 H   0  0  0  0  0  0  0  0  0  0  0  0
   80.4594  107.8789   61.9020 H   0  0  0  0  0  0  0  0  0  0  0  0
   79.7192  106.3995   61.0008 H   0  0  0  0  0  0  0  0  0  0  0  0
   78.5925  108.3141   62.5744 H   0  0  0  0  0  0  0  0  0  0  0  0
   77.9707  106.8280   61.6144 H   0  0  0  0  0  0  0  0  0  0  0  0
   77.7548  105.7956   62.9504 H   0  0  0  0  0  0  0  0  0  0  0  0
   79.0723  106.1137   65.2998 H   0  0  0  0  0  0  0  0  0  0  0  0
   78.4347  104.7517   64.1743 H   0  0  0  0  0  0  0  0  0  0  0  0
   80.2929  104.3226   63.6751 H   0  0  0  0  0  0  0  0  0  0  0  0
   80.9033  105.8197   64.6229 H   0  0  0  0  0  0  0  0  0  0  0  0
   76.2735  106.1449   64.4727 H   0  0  0  0  0  0  0  0  0  0  0  0
   76.1748  107.4391   63.2561 H   0  0  0  0  0  0  0  0  0  0  0  0
   78.5058  114.4309   64.1468 H   0  0  0  0  0  0  0  0  0  0  0  0
   79.3210  114.8162   62.5933 H   0  0  0  0  0  0  0  0  0  0  0  0
   77.7715  113.9075   62.5933 H   0  0  0  0  0  0  0  0  0  0  0  0
   81.7370  112.0471   67.2740 H   0  0  0  0  0  0  0  0  0  0  0  0
   84.3686   99.8783   62.9701 H   0  0  0  0  0  0  0  0  0  0  0  0
   83.7304   99.2454   61.4148 H   0  0  0  0  0  0  0  0  0  0  0  0
   84.9586  100.5563   61.4148 H   0  0  0  0  0  0  0  0  0  0  0  0
   80.6127  103.1255   61.9266 H   0  0  0  0  0  0  0  0  0  0  0  0
   75.6530  108.5067   67.9157 H   0  0  0  0  0  0  0  0  0  0  0  0
   76.0866  110.0330   67.0736 H   0  0  0  0  0  0  0  0  0  0  0  0
   74.3843  109.4595   67.0736 H   0  0  0  0  0  0  0  0  0  0  0  0
   86.0433  107.6254   65.9957 H   0  0  0  0  0  0  0  0  0  0  0  0
   87.0770  108.0784   64.5982 H   0  0  0  0  0  0  0  0  0  0  0  0
   85.3310  108.5007   64.5982 H   0  0  0  0  0  0  0  0  0  0  0  0
   87.5654  106.3964   63.1292 H   0  0  0  0  0  0  0  0  0  0  0  0
   86.1763  105.5421   62.3761 H   0  0  0  0  0  0  0  0  0  0  0  0
   86.2335  107.3375   62.3761 H   0  0  0  0  0  0  0  0  0  0  0  0
  1  2  1  0
  2  3  1  0
  3  4  1  0
  4  5  1  0
  1  6  1  0
  5  6  1  0
  4  7  1  0
  7  8  1  0
  8  9  1  0
  5 10  1  0
  9 10  1  0
  9 11  1  0
 11 12  1  0
 12 13  1  0
 13 14  1  0
 14 15  1  0
 15 16  1  0
 12 17  1  0
 16 17  1  0
 16 18  1  0
 18 19  1  0
 19 20  1  0
 20 21  1  0
 21 22  1  0
 22 23  1  0
 19 24  1  0
 23 24  1  0
 23 25  1  0
 25 26  1  0
 26 27  1  0
 24 28  1  0
 27 28  1  0
 28 29  1  0
 29 30  1  0
 30 31  1  0
 31 32  1  0
 32 33  1  0
 33 34  1  0
 30 35  1  0
 34 35  1  0
  6 36  1  0
 33 36  1  0
  8 37  1  0
 37 38  1  0
 13 39  1  0
 26 40  1  0
 40 41  1  0
 27 42  1  0
  1 43  1  0
 20 44  1  1
 20 45  1  0
 46 47  1  0
 47 48  1  0
 48 49  1  0
 49 50  1  0
 46 51  1  0
 50 51  1  0
 49 52  1  0
 52 53  1  0
 53 54  1  0
 50 55  1  0
 54 55  1  0
 54 56  1  0
 56 57  1  0
 57 58  1  0
 58 59  1  0
 59 60  1  0
 60 61  1  0
 57 62  1  0
 61 62  1  0
 61 63  1  0
 63 64  1  0
 64 65  1  0
 65 66  1  0
 66 67  1  0
 67 68  1  0
 64 69  1  0
 68 69  1  0
 68 70  1  0
 70 71  1  0
 71 72  1  0
 69 73  1  0
 72 73  1  0
 73 74  1  0
 74 75  1  0
 75 76  1  0
 76 77  1  0
 77 78  1  0
 78 79  1  0
 75 80  1  0
 79 80  1  0
 51 81  1  0
 78 81  1  0
 53 82  1  0
 82 83  1  0
 58 84  1  0
 71 85  1  0
 85 86  1  0
 72 87  1  0
 46 88  1  0
 65 89  1  1
 65 90  1  0
 91 92  1  0
 92 93  1  0
 93 94  1  0
 94 95  1  0
 91 96  1  0
 95 96  1  0
 94 97  1  0
 97 98  1  0
 98 99  1  0
 95100  1  0
 99100  1  0
 99101  1  0
101102  1  0
102103  1  0
103104  1  0
104105  1  0
105106  1  0
102107  1  0
106107  1  0
106108  1  0
108109  1  0
109110  1  0
110111  1  0
111112  1  0
112113  1  0
109114  1  0
113114  1  0
113115  1  0
115116  1  0
116117  1  0
114118  1  0
117118  1  0
118119  1  0
119120  1  0
120121  1  0
121122  1  0
122123  1  0
123124  1  0
120125  1  0
124125  1  0
 96126  1  0
123126  1  0
 98127  1  0
127128  1  0
103129  1  0
116130  1  0
130131  1  0
117132  1  0
 91133  1  0
110134  1  6
110135  1  0
136137  1  0
137138  1  0
138139  1  0
139140  1  0
136141  1  0
140141  1  0
139142  1  0
142143  1  0
143144  1  0
140145  1  0
144145  1  0
144146  1  0
146147  1  0
147148  1  0
148149  1  0
149150  1  0
150151  1  0
147152  1  0
151152  1  0
151153  1  0
153154  1  0
154155  1  0
155156  1  0
156157  1  0
157158  1  0
154159  1  0
158159  1  0
158160  1  0
160161  1  0
161162  1  0
159163  1  0
162163  1  0
163164  1  0
164165  1  0
165166  1  0
166167  1  0
167168  1  0
168169  1  0
165170  1  0
169170  1  0
141171  1  0
168171  1  0
143172  1  0
172173  1  0
148174  1  0
161175  1  0
175176  1  0
162177  1  0
136178  1  0
155179  1  1
155180  1  0
181182  1  0
182183  1  0
183184  1  0
184185  1  0
181186  1  0
185186  1  0
184187  1  0
187188  1  0
188189  1  0
185190  1  0
189190  1  0
189191  1  0
191192  1  0
192193  1  0
193194  1  0
194195  1  0
195196  1  0
192197  1  0
196197  1  0
196198  1  0
198199  1  0
199200  1  0
200201  1  0
201202  1  0
202203  1  0
199204  1  0
203204  1  0
203205  1  0
205206  1  0
206207  1  0
204208  1  0
207208  1  0
208209  1  0
209210  1  0
210211  1  0
211212  1  0
212213  1  0
213214  1  0
210215  1  0
214215  1  0
186216  1  0
213216  1  0
188217  1  0
217218  1  0
193219  1  0
206220  1  0
220221  1  0
207222  1  0
181223  1  0
200224  1  1
200225  1  0
  2226  1  0
  2227  1  0
  3228  1  0
  3229  1  0
  4230  1  0
  5231  1  0
  6232  1  1
  7233  1  0
  7234  1  0
  8235  1  0
  9236  1  1
 10237  1  0
 10238  1  0
 12239  1  1
 13240  1  0
 14241  1  0
 14242  1  0
 15243  1  0
 15244  1  0
 16245  1  6
 17246  1  0
 17247  1  0
 18248  1  0
 18249  1  0
 19250  1  6
 21251  1  0
 21252  1  0
 22253  1  0
 22254  1  0
 23255  1  0
 24256  1  6
 25257  1  0
 25258  1  0
 26259  1  0
 27260  1  6
 28261  1  1
 30262  1  0
 31263  1  0
 31264  1  0
 32265  1  0
 32266  1  0
 33267  1  0
 34268  1  0
 34269  1  0
 35270  1  0
 35271  1  0
 36272  1  0
 36273  1  0
 38274  1  0
 38275  1  0
 38276  1  0
 39277  1  0
 41278  1  0
 41279  1  0
 41280  1  0
 42281  1  0
 43282  1  0
 43283  1  0
 43284  1  0
 44285  1  0
 44286  1  0
 44287  1  0
 45288  1  0
 45289  1  0
 45290  1  0
 47291  1  0
 47292  1  0
 48293  1  0
 48294  1  0
 49295  1  0
 50296  1  6
 51297  1  1
 52298  1  0
 52299  1  0
 53300  1  0
 54301  1  0
 55302  1  0
 55303  1  0
 57304  1  0
 58305  1  0
 59306  1  0
 59307  1  0
 60308  1  0
 60309  1  0
 61310  1  0
 62311  1  0
 62312  1  0
 63313  1  0
 63314  1  0
 64315  1  6
 66316  1  0
 66317  1  0
 67318  1  0
 67319  1  0
 68320  1  0
 69321  1  6
 70322  1  0
 70323  1  0
 71324  1  0
 72325  1  0
 73326  1  1
 75327  1  0
 76328  1  0
 76329  1  0
 77330  1  0
 77331  1  0
 78332  1  0
 79333  1  0
 79334  1  0
 80335  1  0
 80336  1  0
 81337  1  0
 81338  1  0
 83339  1  0
 83340  1  0
 83341  1  0
 84342  1  0
 86343  1  0
 86344  1  0
 86345  1  0
 87346  1  0
 88347  1  0
 88348  1  0
 88349  1  0
 89350  1  0
 89351  1  0
 89352  1  0
 90353  1  0
 90354  1  0
 90355  1  0
 92356  1  0
 92357  1  0
 93358  1  0
 93359  1  0
 94360  1  0
 95361  1  0
 96362  1  6
 97363  1  0
 97364  1  0
 98365  1  0
 99366  1  0
100367  1  0
100368  1  0
102369  1  0
103370  1  0
104371  1  0
104372  1  0
105373  1  0
105374  1  0
106375  1  6
107376  1  0
107377  1  0
108378  1  0
108379  1  0
109380  1  1
111381  1  0
111382  1  0
112383  1  0
112384  1  0
113385  1  0
114386  1  1
115387  1  0
115388  1  0
116389  1  0
117390  1  0
118391  1  6
120392  1  6
121393  1  0
121394  1  0
122395  1  0
122396  1  0
123397  1  0
124398  1  0
124399  1  0
125400  1  0
125401  1  0
126402  1  0
126403  1  0
128404  1  0
128405  1  0
128406  1  0
129407  1  0
131408  1  0
131409  1  0
131410  1  0
132411  1  0
133412  1  0
133413  1  0
133414  1  0
134415  1  0
134416  1  0
134417  1  0
135418  1  0
135419  1  0
135420  1  0
137421  1  0
137422  1  0
138423  1  0
138424  1  0
139425  1  0
140426  1  0
141427  1  6
142428  1  0
142429  1  0
143430  1  1
144431  1  1
145432  1  0
145433  1  0
147434  1  1
148435  1  0
149436  1  0
149437  1  0
150438  1  0
150439  1  0
151440  1  0
152441  1  0
152442  1  0
153443  1  0
153444  1  0
154445  1  1
156446  1  0
156447  1  0
157448  1  0
157449  1  0
158450  1  0
159451  1  6
160452  1  0
160453  1  0
161454  1  0
162455  1  0
163456  1  1
165457  1  1
166458  1  0
166459  1  0
167460  1  0
167461  1  0
168462  1  1
169463  1  0
169464  1  0
170465  1  0
170466  1  0
171467  1  0
171468  1  0
173469  1  0
173470  1  0
173471  1  0
174472  1  0
176473  1  0
176474  1  0
176475  1  0
177476  1  0
178477  1  0
178478  1  0
178479  1  0
179480  1  0
179481  1  0
179482  1  0
180483  1  0
180484  1  0
180485  1  0
182486  1  0
182487  1  0
183488  1  0
183489  1  0
184490  1  0
185491  1  0
186492  1  1
187493  1  0
187494  1  0
188495  1  0
189496  1  1
190497  1  0
190498  1  0
192499  1  0
193500  1  0
194501  1  0
194502  1  0
195503  1  0
195504  1  0
196505  1  0
197506  1  0
197507  1  0
198508  1  0
198509  1  0
199510  1  6
201511  1  0
201512  1  0
202513  1  0
202514  1  0
203515  1  0
204516  1  0
205517  1  0
205518  1  0
206519  1  0
207520  1  0
208521  1  1
210522  1  6
211523  1  0
211524  1  0
212525  1  0
212526  1  0
213527  1  6
214528  1  0
214529  1  0
215530  1  0
215531  1  0
216532  1  0
216533  1  0
218534  1  0
218535  1  0
218536  1  0
219537  1  0
221538  1  0
221539  1  0
221540  1  0
222541  1  0
223542  1  0
223543  1  0
223544  1  0
224545  1  0
224546  1  0
224547  1  0
225548  1  0
225549  1  0
225550  1  0
M  CHG  5  20   1  65   1 110   1 155   1 200   1
M  END
>  <PDBID>  (1) 
2XYT

>  <PDB ID>  (1) 
2XYT

>  <Generic Name>  (1) 
Tubocurarine

>  <Brand Name>  (1) 
Tubocurarine Chloride Inj 3mg/ml#Tubocurarine Chloride Inj 3mg/ml USP#Tubarine

>  <DrugBank ID>  (1) 
DB01199

>  <ATC Codes>  (1) 
M03AA02

>  <Ligand ID>  (1) 
TC9,TUB

>  <Target Name>  (1) 
Neuronal acetylcholine receptor subunit alpha-2

>  <UniProt ID>  (1) 
Q15822

>  <PDB ID.1>  (1) 
2XYT

>  <Seq. Identity>  (1) 
31%

$$$$
