PDB_DB00819_99
     RDKit          3D

 27 27  0  0  0  0  0  0  0  0999 V2000
   34.7630   17.1930  -17.9380 C   0  0  1  0  0  0  0  0  0  0  0  0
   34.4370   16.4480  -20.1450 C   0  0  2  0  0  0  0  0  0  0  0  0
   32.9390   14.7710  -20.9940 C   0  0  0  0  0  0  0  0  0  0  0  0
   32.4510   14.0020  -22.1390 C   0  0  0  0  0  0  0  0  0  0  0  0
   36.4910   17.6300  -15.9610 N   0  0  0  0  0  0  0  0  0  0  0  0
   35.0660   17.6270  -20.0430 N   0  0  0  0  0  0  0  0  0  0  0  0
   35.1880   18.0710  -18.7670 N   0  0  0  0  0  0  0  0  0  0  0  0
   33.7590   15.8350  -21.2140 N   0  0  0  0  0  0  0  0  0  0  0  0
   34.6720   16.0100  -15.7230 O   0  0  0  0  0  0  0  0  0  0  0  0
   34.1710   18.4170  -15.6930 O   0  0  0  0  0  0  0  0  0  0  0  0
   32.5820   14.4290  -19.8630 O   0  0  0  0  0  0  0  0  0  0  0  0
   34.9540   17.3730  -16.1930 S   0  0  2  0  0  4  0  0  0  0  0  0
   34.0480   15.8110  -18.6090 S   0  0  0  0  0  0  0  0  0  0  0  0
   35.7317   16.6745  -17.9905 H   0  0  0  0  0  0  0  0  0  0  0  0
   35.2372   16.2121  -20.8620 H   0  0  0  0  0  0  0  0  0  0  0  0
   33.8155   14.1101  -20.9237 H   0  0  0  0  0  0  0  0  0  0  0  0
   31.8938   13.1240  -21.7804 H   0  0  0  0  0  0  0  0  0  0  0  0
   31.7878   14.6332  -22.7488 H   0  0  0  0  0  0  0  0  0  0  0  0
   33.3045   13.6707  -22.7488 H   0  0  0  0  0  0  0  0  0  0  0  0
   36.6849   17.6624  -14.9499 H   0  0  0  0  0  0  0  0  0  0  0  0
   37.0352   16.8683  -16.3907 H   0  0  0  0  0  0  0  0  0  0  0  0
   36.0093   17.5282  -20.4446 H   0  0  0  0  0  0  0  0  0  0  0  0
   34.6379   18.9347  -18.6559 H   0  0  0  0  0  0  0  0  0  0  0  0
   33.1822   16.5655  -21.6551 H   0  0  0  0  0  0  0  0  0  0  0  0
   34.6692   15.9963  -14.7331 H   0  0  0  0  0  0  0  0  0  0  0  0
   34.1865   18.3964  -14.7033 H   0  0  0  0  0  0  0  0  0  0  0  0
   33.1041   14.9292  -19.1868 H   0  0  0  0  0  0  0  0  0  0  0  0
  3  4  1  0
  2  6  1  0
  1  7  1  0
  6  7  1  0
  2  8  1  0
  3  8  1  0
  3 11  1  0
  1 12  1  0
  5 12  1  0
 12  9  1  1
 10 12  1  0
  1 13  1  0
  2 13  1  0
  1 14  1  1
  2 15  1  6
  3 16  1  0
  4 17  1  0
  4 18  1  0
  4 19  1  0
  5 20  1  0
  5 21  1  0
  6 22  1  0
  7 23  1  0
  8 24  1  0
  9 25  1  0
 10 26  1  0
 11 27  1  0
M  END
>  <PDBID>  (1) 
1AZM

>  <PDB ID>  (1) 
1AZM

>  <Generic Name>  (1) 
Acetazolamide

>  <Brand Name>  (1) 
Acetazolam#Acetazolamide#Acetazolamide for Injection, USP#Diamox IV 500mg#Diamox Pws 500mg/vial#Diamox Sequels#Diamox Src 500mg#Diamox Tab 250mg#Diamox Tablets 250mg#Novo-zolamide Tab 250mg#Acemit#Acemox#Acetak#Acetamide#Acetazolamax#Azm#Azol#Azomid#Carbinib#Defiltran#Diabo#Diacarb#Diamox#Diamox Depot#Diazomid#Diluran#Diuramid#Défiltran#Edemox#Glaumox#Glaupax#Glupax#Huma-Zolamide#Iopar-SR#Medene#Oculten#Uramox#Zolmide#Ödemin

>  <DrugBank ID>  (1) 
DB00819

>  <ATC Codes>  (1) 
S01EC01

>  <Ligand ID>  (1) 
AZM

>  <Target Name>  (1) 
Carbonic anhydrase 1

>  <UniProt ID>  (1) 
P00915

>  <PDB ID.1>  (1) 
1AZM

>  <Seq. Identity>  (1) 
100%

$$$$
