PDB_DB00218_91
     RDKit          3D

 53 57  0  0  0  0  0  0  0  0999 V2000
   39.6710    3.2840   18.6540 F   0  0  0  0  0  0  0  0  0  0  0  0
   39.9880    2.9310   23.4710 O   0  0  0  0  0  0  0  0  0  0  0  0
   34.8860    3.2920   20.1640 O   0  0  0  0  0  0  0  0  0  0  0  0
   32.7630    3.4190   23.6520 O   0  0  0  0  0  0  0  0  0  0  0  0
   32.6040    2.9540   21.5150 O   0  0  0  0  0  0  0  0  0  0  0  0
   41.3760    3.0730   21.1060 N   0  0  0  0  0  0  0  0  0  0  0  0
   44.0320    4.1310   20.8480 N   0  0  0  0  0  0  0  0  0  0  0  0
   37.0470    2.9770   23.6970 N   0  0  0  0  0  0  0  0  0  0  0  0
   43.5300    1.7870   21.2750 C   0  0  2  0  0  0  0  0  0  0  0  0
   43.6020    2.7730   20.3250 C   0  0  1  0  0  0  0  0  0  0  0  0
   42.0480    1.8290   21.8290 C   0  0  0  0  0  0  0  0  0  0  0  0
   42.0510    3.1390   19.9320 C   0  0  0  0  0  0  0  0  0  0  0  0
   44.6610    1.7840   22.2980 C   0  0  0  0  0  0  0  0  0  0  0  0
   37.6970    2.8400   24.9770 C   0  0  0  0  0  0  0  0  0  0  0  0
   45.0600    3.1040   22.7520 C   0  0  0  0  0  0  0  0  0  0  0  0
   38.5660    1.7770   25.6370 C   0  0  0  0  0  0  0  0  0  0  0  0
   37.1250    1.9320   26.0610 C   0  0  0  0  0  0  0  0  0  0  0  0
   45.1990    4.0510   21.6950 C   0  0  0  0  0  0  0  0  0  0  0  0
   39.8940    3.0890   21.0610 C   0  0  0  0  0  0  0  0  0  0  0  0
   37.7910    3.0560   22.3670 C   0  0  0  0  0  0  0  0  0  0  0  0
   39.2070    3.0240   22.2930 C   0  0  0  0  0  0  0  0  0  0  0  0
   37.0450    3.1640   21.1700 C   0  0  0  0  0  0  0  0  0  0  0  0
   39.1180    3.2100   19.8740 C   0  0  0  0  0  0  0  0  0  0  0  0
   35.5990    3.0090   23.7170 C   0  0  0  0  0  0  0  0  0  0  0  0
   37.7150    3.2400   19.9390 C   0  0  0  0  0  0  0  0  0  0  0  0
   34.8270    3.1200   22.4650 C   0  0  0  0  0  0  0  0  0  0  0  0
   35.5270    3.1990   21.1960 C   0  0  0  0  0  0  0  0  0  0  0  0
   33.3080    3.1600   22.5420 C   0  0  0  0  0  0  0  0  0  0  0  0
   40.3770    4.2120   23.9770 C   0  0  0  0  0  0  0  0  0  0  0  0
   31.7761    3.4499   23.7236 H   0  0  0  0  0  0  0  0  0  0  0  0
   44.2464    4.7413   20.0465 H   0  0  0  0  0  0  0  0  0  0  0  0
   43.7196    0.7956   20.8378 H   0  0  0  0  0  0  0  0  0  0  0  0
   44.2894    2.3891   19.5568 H   0  0  0  0  0  0  0  0  0  0  0  0
   42.0466    1.9685   22.9201 H   0  0  0  0  0  0  0  0  0  0  0  0
   41.5055    0.8927   21.6313 H   0  0  0  0  0  0  0  0  0  0  0  0
   41.6504    2.4100   19.2122 H   0  0  0  0  0  0  0  0  0  0  0  0
   41.9634    4.1265   19.4554 H   0  0  0  0  0  0  0  0  0  0  0  0
   44.3326    1.2036   23.1728 H   0  0  0  0  0  0  0  0  0  0  0  0
   45.5368    1.3451   21.7977 H   0  0  0  0  0  0  0  0  0  0  0  0
   37.9214    3.8930   24.7517 H   0  0  0  0  0  0  0  0  0  0  0  0
   44.2992    3.4753   23.4544 H   0  0  0  0  0  0  0  0  0  0  0  0
   46.0479    2.9989   23.2243 H   0  0  0  0  0  0  0  0  0  0  0  0
   38.8777    0.8903   25.0655 H   0  0  0  0  0  0  0  0  0  0  0  0
   39.5333    1.7814   26.1607 H   0  0  0  0  0  0  0  0  0  0  0  0
   36.8854    2.3438   27.0525 H   0  0  0  0  0  0  0  0  0  0  0  0
   36.2594    1.2568   26.1312 H   0  0  0  0  0  0  0  0  0  0  0  0
   46.0611    3.7610   21.0764 H   0  0  0  0  0  0  0  0  0  0  0  0
   45.3370    5.0397   22.1569 H   0  0  0  0  0  0  0  0  0  0  0  0
   35.0681    2.9497   24.6786 H   0  0  0  0  0  0  0  0  0  0  0  0
   37.1320    3.3244   19.0100 H   0  0  0  0  0  0  0  0  0  0  0  0
   40.3701    4.1893   25.0767 H   0  0  0  0  0  0  0  0  0  0  0  0
   41.3893    4.4546   23.6216 H   0  0  0  0  0  0  0  0  0  0  0  0
   39.6705    4.9766   23.6216 H   0  0  0  0  0  0  0  0  0  0  0  0
  7 10  1  0
  9 10  1  0
  6 11  1  0
  9 11  1  0
  6 12  1  0
 10 12  1  0
  9 13  1  0
  8 14  1  0
 13 15  1  0
 14 16  1  0
 14 17  1  0
 16 17  1  0
  7 18  1  0
 15 18  1  0
  6 19  1  0
  8 20  1  0
  2 21  1  0
 19 21  2  0
 20 21  1  0
 20 22  2  0
  1 23  1  0
 19 23  1  0
  8 24  1  0
 22 25  1  0
 23 25  2  0
 24 26  2  0
 22 27  1  0
 26 27  1  0
 27  3  2  0
  4 28  1  0
 26 28  1  0
 28  5  2  0
  2 29  1  0
  4 30  1  0
  7 31  1  0
  9 32  1  6
 10 33  1  6
 11 34  1  0
 11 35  1  0
 12 36  1  0
 12 37  1  0
 13 38  1  0
 13 39  1  0
 14 40  1  0
 15 41  1  0
 15 42  1  0
 16 43  1  0
 16 44  1  0
 17 45  1  0
 17 46  1  0
 18 47  1  0
 18 48  1  0
 24 49  1  0
 25 50  1  0
 29 51  1  0
 29 52  1  0
 29 53  1  0
M  END
$$$$
