PDB_DB00550_99
     RDKit          3D

 21 21  0  0  0  0  0  0  0  0999 V2000
    3.5320   29.9520   11.5430 C   0  0  0  0  0  0  0  0  0  0  0  0
    2.5940   28.9170   12.1620 C   0  0  0  0  0  0  0  0  0  0  0  0
    2.2230   27.7830   11.2070 C   0  0  0  0  0  0  0  0  0  0  0  0
    0.7690   27.4310   10.9610 C   0  0  0  0  0  0  0  0  0  0  0  0
   -0.2940   27.6510   11.8430 C   0  0  0  0  0  0  0  0  0  0  0  0
    0.4980   26.8320    9.7750 N   0  0  0  0  0  0  0  0  0  0  0  0
   -0.7580   26.4730    9.4190 C   0  0  0  0  0  0  0  0  0  0  0  0
   -1.0080   25.7270    7.8910 S   0  0  0  0  0  0  0  0  0  0  0  0
   -1.7940   26.6670   10.2550 N   0  0  0  0  0  0  0  0  0  0  0  0
   -1.5780   27.2520   11.4540 C   0  0  0  0  0  0  0  0  0  0  0  0
   -2.6380   27.4390   12.2760 O   0  0  0  0  0  0  0  0  0  0  0  0
    4.0393   30.5117   12.3426 H   0  0  0  0  0  0  0  0  0  0  0  0
    4.2815   29.4416   10.9204 H   0  0  0  0  0  0  0  0  0  0  0  0
    2.9505   30.6479   10.9204 H   0  0  0  0  0  0  0  0  0  0  0  0
    3.0880   28.4824   13.0435 H   0  0  0  0  0  0  0  0  0  0  0  0
    1.6616   29.4395   12.4219 H   0  0  0  0  0  0  0  0  0  0  0  0
    2.6552   28.0403   10.2287 H   0  0  0  0  0  0  0  0  0  0  0  0
    2.6112   26.8903   11.7192 H   0  0  0  0  0  0  0  0  0  0  0  0
   -0.1248   28.1268   12.8202 H   0  0  0  0  0  0  0  0  0  0  0  0
    1.2733   26.6439    9.1235 H   0  0  0  0  0  0  0  0  0  0  0  0
   -2.7430   26.3724    9.9838 H   0  0  0  0  0  0  0  0  0  0  0  0
  1  2  1  0
  2  3  1  0
  3  4  1  0
  4  5  2  0
  4  6  1  0
  6  7  1  0
  7  8  2  0
  7  9  1  0
  5 10  1  0
  9 10  1  0
 10 11  2  0
  1 12  1  0
  1 13  1  0
  1 14  1  0
  2 15  1  0
  2 16  1  0
  3 17  1  0
  3 18  1  0
  5 19  1  0
  6 20  1  0
  9 21  1  0
M  END
$$$$
