PDB_DB00773_99
     RDKit          3D

176188  0  0  0  0  0  0  0  0999 V2000
   32.3120  -23.2600  -63.8360 C   0  0  0  0  0  0  0  0  0  0  0  0
   32.9210  -23.9950  -62.8240 O   0  0  0  0  0  0  0  0  0  0  0  0
   31.8560  -22.2840  -61.9200 C   0  0  0  0  0  0  0  0  0  0  0  0
   31.9330  -22.0550  -63.2680 O   0  0  0  0  0  0  0  0  0  0  0  0
   31.2460  -21.4630  -60.7830 C   0  0  0  0  0  0  0  0  0  0  0  0
   30.2660  -22.1280  -54.5440 O   0  0  0  0  0  0  0  0  0  0  0  0
   31.3060  -21.9650  -59.3730 C   0  0  0  0  0  0  0  0  0  0  0  0
   30.2120  -19.8470  -55.2190 O   0  0  0  0  0  0  0  0  0  0  0  0
   30.6550  -21.1030  -58.1710 C   0  0  2  0  0  0  0  0  0  0  0  0
   26.1810  -22.5560  -60.3490 O   0  0  0  0  0  0  0  0  0  0  0  0
   30.9780  -21.5720  -56.7810 C   0  0  1  0  0  0  0  0  0  0  0  0
   24.8030  -20.2870  -59.1510 O   0  0  0  0  0  0  0  0  0  0  0  0
   30.3820  -21.0180  -55.4850 C   0  0  1  0  0  0  0  0  0  0  0  0
   26.2790  -18.4150  -57.4720 O   0  0  0  0  0  0  0  0  0  0  0  0
   30.8050  -23.3250  -55.1920 C   0  0  0  0  0  0  0  0  0  0  0  0
   33.2950  -23.7400  -56.9760 O   0  0  0  0  0  0  0  0  0  0  0  0
   30.9730  -23.0210  -56.6580 C   0  0  2  0  0  0  0  0  0  0  0  0
   33.1350  -25.6320  -56.2100 O   0  0  0  0  0  0  0  0  0  0  0  0
   31.9840  -23.7020  -57.5940 C   0  0  1  0  0  0  0  0  0  0  0  0
   33.5000  -27.8020  -53.4720 O   0  0  0  0  0  0  0  0  0  0  0  0
   31.9420  -23.2140  -59.0750 C   0  0  0  0  0  0  0  0  0  0  0  0
   35.7230  -27.2240  -54.1580 O   0  0  0  0  0  0  0  0  0  0  0  0
   32.5370  -24.0070  -60.1910 C   0  0  0  0  0  0  0  0  0  0  0  0
   37.0740  -25.1950  -55.9420 O   0  0  0  0  0  0  0  0  0  0  0  0
   32.4650  -23.4820  -61.6440 C   0  0  0  0  0  0  0  0  0  0  0  0
   35.7070  -24.9650  -58.3190 O   0  0  0  0  0  0  0  0  0  0  0  0
   29.1370  -20.8990  -58.4240 C   0  0  0  0  0  0  0  0  0  0  0  0
   28.3660  -21.8640  -59.3040 C   0  0  0  0  0  0  0  0  0  0  0  0
   26.8840  -21.6640  -59.5550 C   0  0  0  0  0  0  0  0  0  0  0  0
   26.1730  -20.4830  -58.9250 C   0  0  0  0  0  0  0  0  0  0  0  0
   26.9390  -19.5150  -58.0560 C   0  0  0  0  0  0  0  0  0  0  0  0
   28.4170  -19.7180  -57.8080 C   0  0  0  0  0  0  0  0  0  0  0  0
   25.8920  -22.2530  -61.6730 C   0  0  0  0  0  0  0  0  0  0  0  0
   26.9890  -17.5560  -56.6230 C   0  0  0  0  0  0  0  0  0  0  0  0
   33.9130  -25.1440  -57.1790 C   0  0  2  0  0  0  0  0  0  0  0  0
   33.8010  -26.5980  -55.4140 C   0  0  2  0  0  0  0  0  0  0  0  0
   32.9790  -26.8350  -54.3330 C   0  0  0  0  0  0  0  0  0  0  0  0
   34.8870  -27.6130  -53.0950 C   0  0  2  0  0  0  0  0  0  0  0  0
   35.1970  -26.2110  -54.9000 C   0  0  2  0  0  0  0  0  0  0  0  0
   35.8390  -25.7440  -56.2250 C   0  0  1  0  0  0  0  0  0  0  0  0
   35.0670  -24.7780  -57.0150 C   0  0  1  0  0  0  0  0  0  0  0  0
   35.3940  -28.8710  -52.4630 C   0  0  0  0  0  0  0  0  0  0  0  0
   23.1090  -38.2420  -65.7580 C   0  0  0  0  0  0  0  0  0  0  0  0
   22.4240  -37.5110  -64.7930 O   0  0  0  0  0  0  0  0  0  0  0  0
   23.3170  -39.2900  -63.8330 C   0  0  0  0  0  0  0  0  0  0  0  0
   23.3890  -39.4740  -65.1900 O   0  0  0  0  0  0  0  0  0  0  0  0
   23.7590  -40.1690  -62.6600 C   0  0  0  0  0  0  0  0  0  0  0  0
   24.0400  -39.7180  -56.3250 O   0  0  0  0  0  0  0  0  0  0  0  0
   23.5550  -39.7110  -61.2470 C   0  0  0  0  0  0  0  0  0  0  0  0
   24.1320  -41.9760  -57.0680 O   0  0  0  0  0  0  0  0  0  0  0  0
   24.0300  -40.6310  -60.0030 C   0  0  2  0  0  0  0  0  0  0  0  0
   28.7120  -39.2610  -61.6640 O   0  0  0  0  0  0  0  0  0  0  0  0
   23.5780  -40.1870  -58.6430 C   0  0  1  0  0  0  0  0  0  0  0  0
   29.9240  -41.5930  -60.4140 O   0  0  0  0  0  0  0  0  0  0  0  0
   24.0220  -40.7930  -57.3120 C   0  0  1  0  0  0  0  0  0  0  0  0
   28.2470  -43.4850  -58.9460 O   0  0  0  0  0  0  0  0  0  0  0  0
   23.6120  -38.4880  -56.9930 C   0  0  0  0  0  0  0  0  0  0  0  0
   21.3660  -37.9700  -59.0220 O   0  0  0  0  0  0  0  0  0  0  0  0
   23.6150  -38.7430  -58.4780 C   0  0  2  0  0  0  0  0  0  0  0  0
   21.3520  -36.1280  -58.0780 O   0  0  0  0  0  0  0  0  0  0  0  0
   22.7360  -38.0070  -59.4990 C   0  0  1  0  0  0  0  0  0  0  0  0
   20.4050  -34.9600  -55.0660 O   0  0  0  0  0  0  0  0  0  0  0  0
   22.9330  -38.4480  -60.9830 C   0  0  0  0  0  0  0  0  0  0  0  0
   18.4040  -34.7970  -56.3710 O   0  0  0  0  0  0  0  0  0  0  0  0
   22.5010  -37.6000  -62.1330 C   0  0  0  0  0  0  0  0  0  0  0  0
   17.4750  -36.7800  -58.4620 O   0  0  0  0  0  0  0  0  0  0  0  0
   22.7220  -38.0790  -63.5870 C   0  0  0  0  0  0  0  0  0  0  0  0
   19.2150  -36.5410  -60.6500 O   0  0  0  0  0  0  0  0  0  0  0  0
   25.5560  -40.8890  -60.0950 C   0  0  0  0  0  0  0  0  0  0  0  0
   26.4350  -39.9190  -60.8560 C   0  0  0  0  0  0  0  0  0  0  0  0
   27.9250  -40.1580  -60.9660 C   0  0  0  0  0  0  0  0  0  0  0  0
   28.5430  -41.3760  -60.3120 C   0  0  0  0  0  0  0  0  0  0  0  0
   27.6710  -42.3500  -59.5550 C   0  0  0  0  0  0  0  0  0  0  0  0
   26.1790  -42.1100  -59.4490 C   0  0  0  0  0  0  0  0  0  0  0  0
   28.6400  -37.9090  -61.3600 C   0  0  0  0  0  0  0  0  0  0  0  0
   27.4340  -44.3980  -58.2640 C   0  0  0  0  0  0  0  0  0  0  0  0
   20.7810  -36.5510  -59.2110 C   0  0  2  0  0  0  0  0  0  0  0  0
   20.5180  -35.2110  -57.3880 C   0  0  2  0  0  0  0  0  0  0  0  0
   21.1800  -34.8570  -56.2260 C   0  0  0  0  0  0  0  0  0  0  0  0
   19.0430  -34.4680  -55.1620 C   0  0  2  0  0  0  0  0  0  0  0  0
   19.0980  -35.7190  -57.0910 C   0  0  2  0  0  0  0  0  0  0  0  0
   18.6830  -36.1130  -58.5260 C   0  0  1  0  0  0  0  0  0  0  0  0
   19.6230  -36.9360  -59.3010 C   0  0  1  0  0  0  0  0  0  0  0  0
   19.0160  -32.9910  -54.9220 C   0  0  0  0  0  0  0  0  0  0  0  0
   33.0202  -23.0866  -64.6597 H   0  0  0  0  0  0  0  0  0  0  0  0
   31.4460  -23.7952  -64.2527 H   0  0  0  0  0  0  0  0  0  0  0  0
   32.8168  -21.7676  -61.7774 H   0  0  0  0  0  0  0  0  0  0  0  0
   31.7507  -20.4857  -60.7925 H   0  0  0  0  0  0  0  0  0  0  0  0
   30.1698  -21.4828  -61.0098 H   0  0  0  0  0  0  0  0  0  0  0  0
   32.2637  -21.4437  -59.2282 H   0  0  0  0  0  0  0  0  0  0  0  0
   30.1952  -19.7310  -54.2360 H   0  0  0  0  0  0  0  0  0  0  0  0
   31.1500  -20.1210  -58.1966 H   0  0  0  0  0  0  0  0  0  0  0  0
   31.9499  -21.0570  -56.7908 H   0  0  0  0  0  0  0  0  0  0  0  0
   24.3317  -20.2196  -58.2830 H   0  0  0  0  0  0  0  0  0  0  0  0
   29.5761  -20.2737  -55.5658 H   0  0  0  0  0  0  0  0  0  0  0  0
   31.7785  -23.5833  -54.7498 H   0  0  0  0  0  0  0  0  0  0  0  0
   30.1229  -24.1767  -55.0526 H   0  0  0  0  0  0  0  0  0  0  0  0
   30.1211  -23.5657  -57.0910 H   0  0  0  0  0  0  0  0  0  0  0  0
   31.6692  -24.7488  -57.7172 H   0  0  0  0  0  0  0  0  0  0  0  0
   32.8993  -22.6920  -58.9301 H   0  0  0  0  0  0  0  0  0  0  0  0
   33.6033  -24.1365  -59.9538 H   0  0  0  0  0  0  0  0  0  0  0  0
   31.9087  -24.9095  -60.2195 H   0  0  0  0  0  0  0  0  0  0  0  0
   37.1943  -25.1415  -54.9608 H   0  0  0  0  0  0  0  0  0  0  0  0
   33.4234  -22.9616  -61.4999 H   0  0  0  0  0  0  0  0  0  0  0  0
   36.6489  -25.2402  -58.1879 H   0  0  0  0  0  0  0  0  0  0  0  0
   29.3668  -20.2802  -59.3039 H   0  0  0  0  0  0  0  0  0  0  0  0
   28.8563  -21.8524  -60.2886 H   0  0  0  0  0  0  0  0  0  0  0  0
   28.3939  -22.7999  -58.7267 H   0  0  0  0  0  0  0  0  0  0  0  0
   26.6518  -22.2710  -58.6675 H   0  0  0  0  0  0  0  0  0  0  0  0
   25.9397  -21.0949  -58.0412 H   0  0  0  0  0  0  0  0  0  0  0  0
   26.7056  -20.1250  -57.1708 H   0  0  0  0  0  0  0  0  0  0  0  0
   28.5469  -19.8009  -56.7188 H   0  0  0  0  0  0  0  0  0  0  0  0
   28.8767  -18.8541  -58.3104 H   0  0  0  0  0  0  0  0  0  0  0  0
   25.1332  -21.4575  -61.7099 H   0  0  0  0  0  0  0  0  0  0  0  0
   26.8068  -21.9109  -62.1790 H   0  0  0  0  0  0  0  0  0  0  0  0
   25.5070  -23.1507  -62.1790 H   0  0  0  0  0  0  0  0  0  0  0  0
   26.7744  -17.8156  -55.5758 H   0  0  0  0  0  0  0  0  0  0  0  0
   28.0673  -17.6612  -56.8133 H   0  0  0  0  0  0  0  0  0  0  0  0
   26.6827  -16.5168  -56.8133 H   0  0  0  0  0  0  0  0  0  0  0  0
   33.9448  -25.8556  -58.0173 H   0  0  0  0  0  0  0  0  0  0  0  0
   33.9825  -27.4735  -56.0548 H   0  0  0  0  0  0  0  0  0  0  0  0
   32.0013  -27.1793  -54.7011 H   0  0  0  0  0  0  0  0  0  0  0  0
   32.8881  -25.8957  -53.7677 H   0  0  0  0  0  0  0  0  0  0  0  0
   34.9157  -26.7767  -52.3810 H   0  0  0  0  0  0  0  0  0  0  0  0
   35.3194  -25.4118  -54.1542 H   0  0  0  0  0  0  0  0  0  0  0  0
   35.8957  -26.6457  -56.8525 H   0  0  0  0  0  0  0  0  0  0  0  0
   35.0499  -23.7742  -56.5654 H   0  0  0  0  0  0  0  0  0  0  0  0
   35.3545  -28.7730  -51.3681 H   0  0  0  0  0  0  0  0  0  0  0  0
   34.7671  -29.7181  -52.7782 H   0  0  0  0  0  0  0  0  0  0  0  0
   36.4331  -29.0467  -52.7782 H   0  0  0  0  0  0  0  0  0  0  0  0
   22.4835  -38.3695  -66.6538 H   0  0  0  0  0  0  0  0  0  0  0  0
   24.0303  -37.7275  -66.0684 H   0  0  0  0  0  0  0  0  0  0  0  0
   22.3276  -39.7706  -63.8203 H   0  0  0  0  0  0  0  0  0  0  0  0
   23.2229  -41.1240  -62.7623 H   0  0  0  0  0  0  0  0  0  0  0  0
   24.8544  -40.1827  -62.7600 H   0  0  0  0  0  0  0  0  0  0  0  0
   22.5692  -40.1987  -61.2313 H   0  0  0  0  0  0  0  0  0  0  0  0
   24.1445  -42.1109  -56.0873 H   0  0  0  0  0  0  0  0  0  0  0  0
   23.4965  -41.5869  -60.1105 H   0  0  0  0  0  0  0  0  0  0  0  0
   22.5955  -40.6658  -58.7670 H   0  0  0  0  0  0  0  0  0  0  0  0
   30.3162  -41.6546  -59.5071 H   0  0  0  0  0  0  0  0  0  0  0  0
   24.8635  -41.5008  -57.3415 H   0  0  0  0  0  0  0  0  0  0  0  0
   22.5987  -38.2162  -56.6624 H   0  0  0  0  0  0  0  0  0  0  0  0
   24.2925  -37.6602  -56.7448 H   0  0  0  0  0  0  0  0  0  0  0  0
   24.5289  -38.2182  -58.7933 H   0  0  0  0  0  0  0  0  0  0  0  0
   23.0830  -36.9649  -59.5597 H   0  0  0  0  0  0  0  0  0  0  0  0
   21.9474  -38.9363  -60.9687 H   0  0  0  0  0  0  0  0  0  0  0  0
   21.4195  -37.4368  -62.0157 H   0  0  0  0  0  0  0  0  0  0  0  0
   23.1624  -36.7243  -62.0574 H   0  0  0  0  0  0  0  0  0  0  0  0
   17.2243  -36.9184  -57.5143 H   0  0  0  0  0  0  0  0  0  0  0  0
   21.7359  -38.5663  -63.5729 H   0  0  0  0  0  0  0  0  0  0  0  0
   18.5049  -35.8536  -60.5920 H   0  0  0  0  0  0  0  0  0  0  0  0
   25.4020  -41.4715  -61.0153 H   0  0  0  0  0  0  0  0  0  0  0  0
   26.0452  -39.8800  -61.8839 H   0  0  0  0  0  0  0  0  0  0  0  0
   26.3751  -39.0028  -60.2502 H   0  0  0  0  0  0  0  0  0  0  0  0
   28.0857  -39.5810  -60.0434 H   0  0  0  0  0  0  0  0  0  0  0  0
   28.7018  -40.7996  -59.3886 H   0  0  0  0  0  0  0  0  0  0  0  0
   27.8294  -41.7740  -58.6314 H   0  0  0  0  0  0  0  0  0  0  0  0
   25.9424  -42.0561  -58.3761 H   0  0  0  0  0  0  0  0  0  0  0  0
   25.7493  -42.9442  -60.0230 H   0  0  0  0  0  0  0  0  0  0  0  0
   28.6331  -37.7786  -60.2678 H   0  0  0  0  0  0  0  0  0  0  0  0
   29.5118  -37.3905  -61.7856 H   0  0  0  0  0  0  0  0  0  0  0  0
   27.7181  -37.4861  -61.7856 H   0  0  0  0  0  0  0  0  0  0  0  0
   27.5571  -44.2598  -57.1797 H   0  0  0  0  0  0  0  0  0  0  0  0
   26.3823  -44.2285  -58.5382 H   0  0  0  0  0  0  0  0  0  0  0  0
   27.7238  -45.4231  -58.5382 H   0  0  0  0  0  0  0  0  0  0  0  0
   20.9014  -35.7693  -59.9755 H   0  0  0  0  0  0  0  0  0  0  0  0
   20.3468  -34.3452  -58.0446 H   0  0  0  0  0  0  0  0  0  0  0  0
   21.5148  -33.8139  -56.3248 H   0  0  0  0  0  0  0  0  0  0  0  0
   22.0136  -35.5654  -56.1109 H   0  0  0  0  0  0  0  0  0  0  0  0
   18.4659  -34.9805  -54.3782 H   0  0  0  0  0  0  0  0  0  0  0  0
   18.9335  -36.5737  -56.4184 H   0  0  0  0  0  0  0  0  0  0  0  0
   18.6424  -35.1575  -59.0696 H   0  0  0  0  0  0  0  0  0  0  0  0
   19.5969  -37.9948  -59.0040 H   0  0  0  0  0  0  0  0  0  0  0  0
   19.0124  -32.7954  -53.8395 H   0  0  0  0  0  0  0  0  0  0  0  0
   19.9059  -32.5296  -55.3750 H   0  0  0  0  0  0  0  0  0  0  0  0
   18.1099  -32.5624  -55.3750 H   0  0  0  0  0  0  0  0  0  0  0  0
  1  2  1  0
  1  4  1  0
  3  4  1  0
  3  5  1  0
  5  7  1  0
  7  9  1  0
  9 11  1  0
  6 13  1  0
  8 13  1  0
 11 13  1  0
  6 15  1  0
 11 17  1  0
 15 17  1  0
 16 19  1  0
 17 19  1  0
  7 21  1  0
 19 21  1  0
 21 23  1  0
  2 25  1  0
  3 25  1  0
 23 25  1  0
  9 27  1  0
 27 28  1  0
 10 29  1  0
 28 29  1  0
 12 30  1  0
 29 30  1  0
 14 31  1  0
 30 31  1  0
 27 32  1  0
 31 32  1  0
 10 33  1  0
 14 34  1  0
 16 35  1  0
 18 35  1  0
 18 36  1  0
 20 37  1  0
 36 37  1  0
 20 38  1  0
 22 38  1  0
 22 39  1  0
 36 39  1  0
 24 40  1  0
 39 40  1  0
 26 41  1  0
 35 41  1  0
 40 41  1  0
 38 42  1  0
 43 44  1  0
 43 46  1  0
 45 46  1  0
 45 47  1  0
 47 49  1  0
 49 51  1  0
 51 53  1  0
 48 55  1  0
 50 55  1  0
 53 55  1  0
 48 57  1  0
 53 59  1  0
 57 59  1  0
 58 61  1  0
 59 61  1  0
 49 63  1  0
 61 63  1  0
 63 65  1  0
 44 67  1  0
 45 67  1  0
 65 67  1  0
 51 69  1  0
 69 70  1  0
 52 71  1  0
 70 71  1  0
 54 72  1  0
 71 72  1  0
 56 73  1  0
 72 73  1  0
 69 74  1  0
 73 74  1  0
 52 75  1  0
 56 76  1  0
 58 77  1  0
 60 77  1  0
 60 78  1  0
 62 79  1  0
 78 79  1  0
 62 80  1  0
 64 80  1  0
 64 81  1  0
 78 81  1  0
 66 82  1  0
 81 82  1  0
 68 83  1  0
 77 83  1  0
 82 83  1  0
 80 84  1  0
  1 85  1  0
  1 86  1  0
  3 87  1  0
  5 88  1  0
  5 89  1  0
  7 90  1  0
  8 91  1  0
  9 92  1  1
 11 93  1  1
 12 94  1  0
 13 95  1  6
 15 96  1  0
 15 97  1  0
 17 98  1  6
 19 99  1  6
 21100  1  0
 23101  1  0
 23102  1  0
 24103  1  0
 25104  1  0
 26105  1  0
 27106  1  0
 28107  1  0
 28108  1  0
 29109  1  0
 30110  1  0
 31111  1  0
 32112  1  0
 32113  1  0
 33114  1  0
 33115  1  0
 33116  1  0
 34117  1  0
 34118  1  0
 34119  1  0
 35120  1  6
 36121  1  6
 37122  1  0
 37123  1  0
 38124  1  1
 39125  1  1
 40126  1  6
 41127  1  1
 42128  1  0
 42129  1  0
 42130  1  0
 43131  1  0
 43132  1  0
 45133  1  0
 47134  1  0
 47135  1  0
 49136  1  0
 50137  1  0
 51138  1  6
 53139  1  6
 54140  1  0
 55141  1  6
 57142  1  0
 57143  1  0
 59144  1  6
 61145  1  6
 63146  1  0
 65147  1  0
 65148  1  0
 66149  1  0
 67150  1  0
 68151  1  0
 69152  1  0
 70153  1  0
 70154  1  0
 71155  1  0
 72156  1  0
 73157  1  0
 74158  1  0
 74159  1  0
 75160  1  0
 75161  1  0
 75162  1  0
 76163  1  0
 76164  1  0
 76165  1  0
 77166  1  6
 78167  1  6
 79168  1  0
 79169  1  0
 80170  1  1
 81171  1  1
 82172  1  6
 83173  1  6
 84174  1  0
 84175  1  0
 84176  1  0
M  END
>  <PDBID>  (1) 
5GWK

>  <PDB ID>  (1) 
5GWK

>  <Generic Name>  (1) 
Etoposide

>  <Brand Name>  (1) 
Dom-etoposide#Eposin#Etopophos#Etoposide#Etoposide - Liq IV 20mg/ml#Etoposide Injection#Etoposide Injection USP#Etoposide Injection, USP#PMS-etoposide#Toposar#Vepesid#Vepesid Inj 20mg/ml#Etopofos#Lastet#Nexvep#Vepesid K#Vépéside

>  <DrugBank ID>  (1) 
DB00773

>  <ATC Codes>  (1) 
L01CB01

>  <Ligand ID>  (1) 
EVP

>  <Target Name>  (1) 
DNA topoisomerase 2-alpha

>  <UniProt ID>  (1) 
P11388

>  <PDB ID.1>  (1) 
5GWK

>  <Seq. Identity>  (1) 
96%

$$$$
