PDB_DB00273_98
     RDKit          3D

 43 45  0  0  0  0  0  0  0  0999 V2000
  -19.9080   36.8120   44.8220 C   0  0  0  0  0  0  0  0  0  0  0  0
  -18.7750   36.7690   43.8230 C   0  0  0  0  0  0  0  0  0  0  0  0
  -19.1420   37.4720   42.5230 C   0  0  0  0  0  0  0  0  0  0  0  0
  -18.4590   35.3750   43.5640 O   0  0  0  0  0  0  0  0  0  0  0  0
  -17.5480   37.2210   44.4390 O   0  0  0  0  0  0  0  0  0  0  0  0
  -16.4530   36.5000   43.8620 C   0  0  1  0  0  0  0  0  0  0  0  0
  -15.2490   36.5550   44.8130 C   0  0  2  0  0  0  0  0  0  0  0  0
  -14.1100   36.2060   44.0390 O   0  0  0  0  0  0  0  0  0  0  0  0
  -13.1970   35.3780   44.7740 C   0  0  0  0  0  0  0  0  0  0  0  0
  -11.9740   36.1530   45.2700 C   0  0  0  0  0  0  0  0  0  0  0  0
  -12.8890   34.1700   43.9370 C   0  0  0  0  0  0  0  0  0  0  0  0
  -13.9620   34.9420   45.9070 O   0  0  0  0  0  0  0  0  0  0  0  0
  -15.2210   35.5930   46.0320 C   0  0  2  0  0  0  0  0  0  0  0  0
  -16.2800   34.5000   46.0330 C   0  0  0  0  0  0  0  0  0  0  0  0
  -16.7340   34.1490   44.7020 O   0  0  0  0  0  0  0  0  0  0  0  0
  -17.0710   35.0810   43.6810 C   0  0  1  0  0  0  0  0  0  0  0  0
  -16.5960   34.2960   42.4820 C   0  0  0  0  0  0  0  0  0  0  0  0
  -16.7790   35.0520   41.2480 O   0  0  0  0  0  0  0  0  0  0  0  0
  -16.3050   34.4690   39.8670 S   0  0  0  0  0  0  0  0  0  0  0  0
  -17.3240   33.5430   39.5350 O   0  0  0  0  0  0  0  0  0  0  0  0
  -16.1080   35.6540   39.1060 O   0  0  0  0  0  0  0  0  0  0  0  0
  -14.9310   33.7020   40.0820 N   0  0  0  0  0  0  0  0  0  0  0  0
  -19.4978   36.7964   45.8425 H   0  0  0  0  0  0  0  0  0  0  0  0
  -20.4914   37.7329   44.6753 H   0  0  0  0  0  0  0  0  0  0  0  0
  -20.5595   35.9379   44.6753 H   0  0  0  0  0  0  0  0  0  0  0  0
  -19.6401   38.4261   42.7501 H   0  0  0  0  0  0  0  0  0  0  0  0
  -18.2293   37.6645   41.9399 H   0  0  0  0  0  0  0  0  0  0  0  0
  -19.8217   36.8332   41.9399 H   0  0  0  0  0  0  0  0  0  0  0  0
  -16.0580   36.8894   42.9121 H   0  0  0  0  0  0  0  0  0  0  0  0
  -15.2890   37.5681   45.2397 H   0  0  0  0  0  0  0  0  0  0  0  0
  -11.9649   36.1588   46.3699 H   0  0  0  0  0  0  0  0  0  0  0  0
  -11.0583   35.6700   44.8983 H   0  0  0  0  0  0  0  0  0  0  0  0
  -12.0198   37.1873   44.8983 H   0  0  0  0  0  0  0  0  0  0  0  0
  -12.6710   33.3148   44.5936 H   0  0  0  0  0  0  0  0  0  0  0  0
  -13.7555   33.9332   43.3021 H   0  0  0  0  0  0  0  0  0  0  0  0
  -12.0149   34.3770   43.3021 H   0  0  0  0  0  0  0  0  0  0  0  0
  -15.4004   36.1767   46.9470 H   0  0  0  0  0  0  0  0  0  0  0  0
  -15.8564   33.6022   46.5068 H   0  0  0  0  0  0  0  0  0  0  0  0
  -17.1494   34.8853   46.5859 H   0  0  0  0  0  0  0  0  0  0  0  0
  -15.5278   34.0644   42.6054 H   0  0  0  0  0  0  0  0  0  0  0  0
  -17.1889   33.3719   42.4146 H   0  0  0  0  0  0  0  0  0  0  0  0
  -14.7488   33.6003   41.0906 H   0  0  0  0  0  0  0  0  0  0  0  0
  -14.9865   32.7698   39.6474 H   0  0  0  0  0  0  0  0  0  0  0  0
  1  2  1  0
  2  3  1  0
  2  4  1  0
  2  5  1  0
  5  6  1  0
  6  7  1  0
  7  8  1  0
  8  9  1  0
  9 10  1  0
  9 11  1  0
  9 12  1  0
  7 13  1  0
 12 13  1  0
 13 14  1  0
 14 15  1  0
  4 16  1  0
  6 16  1  0
 15 16  1  0
 16 17  1  6
 17 18  1  0
 18 19  1  0
 19 20  2  0
 19 21  2  0
 19 22  1  0
  1 23  1  0
  1 24  1  0
  1 25  1  0
  3 26  1  0
  3 27  1  0
  3 28  1  0
  6 29  1  6
  7 30  1  1
 10 31  1  0
 10 32  1  0
 10 33  1  0
 11 34  1  0
 11 35  1  0
 11 36  1  0
 13 37  1  1
 14 38  1  0
 14 39  1  0
 17 40  1  0
 17 41  1  0
 22 42  1  0
 22 43  1  0
M  END
$$$$
