PDB_DB00255_96
     RDKit          3D

 40 41  0  0  0  0  0  0  0  0999 V2000
   -4.5960   -6.0540   21.9670 C   0  0  0  0  0  0  0  0  0  0  0  0
   -3.2130   -6.3360   21.5040 C   0  0  0  0  0  0  0  0  0  0  0  0
   -2.8860   -7.8290   21.3880 C   0  0  0  0  0  0  0  0  0  0  0  0
   -3.7260   -8.5450   20.3530 C   0  0  0  0  0  0  0  0  0  0  0  0
   -3.3940   -8.4960   18.9940 C   0  0  0  0  0  0  0  0  0  0  0  0
   -4.2130   -9.1070   18.0390 C   0  0  0  0  0  0  0  0  0  0  0  0
   -5.3670   -9.7750   18.4430 C   0  0  0  0  0  0  0  0  0  0  0  0
   -6.2310  -10.3610   17.5270 O   0  0  0  0  0  0  0  0  0  0  0  0
   -5.7120   -9.8410   19.7840 C   0  0  0  0  0  0  0  0  0  0  0  0
   -4.8820   -9.2250   20.7290 C   0  0  0  0  0  0  0  0  0  0  0  0
   -1.9930   -8.4600   22.1250 C   0  0  0  0  0  0  0  0  0  0  0  0
   -1.3350   -7.8320   23.3230 C   0  0  0  0  0  0  0  0  0  0  0  0
   -2.0520   -7.6440   24.5100 C   0  0  0  0  0  0  0  0  0  0  0  0
   -1.4470   -7.0800   25.6380 C   0  0  0  0  0  0  0  0  0  0  0  0
   -0.1090   -6.6840   25.5820 C   0  0  0  0  0  0  0  0  0  0  0  0
    0.5280   -6.1110   26.6790 O   0  0  0  0  0  0  0  0  0  0  0  0
    0.6400   -6.8600   24.4020 C   0  0  0  0  0  0  0  0  0  0  0  0
    0.0100   -7.4290   23.2790 C   0  0  0  0  0  0  0  0  0  0  0  0
   -1.5670   -9.8990   21.8960 C   0  0  0  0  0  0  0  0  0  0  0  0
   -0.3930  -10.0290   20.9740 C   0  0  0  0  0  0  0  0  0  0  0  0
   -4.6206   -6.0490   23.0667 H   0  0  0  0  0  0  0  0  0  0  0  0
   -4.9163   -5.0721   21.5886 H   0  0  0  0  0  0  0  0  0  0  0  0
   -5.2752   -6.8321   21.5886 H   0  0  0  0  0  0  0  0  0  0  0  0
   -3.0788   -5.8747   20.5144 H   0  0  0  0  0  0  0  0  0  0  0  0
   -2.5329   -5.9194   22.2616 H   0  0  0  0  0  0  0  0  0  0  0  0
   -2.4810   -7.9724   18.6744 H   0  0  0  0  0  0  0  0  0  0  0  0
   -3.9470   -9.0603   16.9727 H   0  0  0  0  0  0  0  0  0  0  0  0
   -7.0440  -10.8294   17.8429 H   0  0  0  0  0  0  0  0  0  0  0  0
   -6.6235  -10.3690   20.1009 H   0  0  0  0  0  0  0  0  0  0  0  0
   -5.1496   -9.2795   21.7945 H   0  0  0  0  0  0  0  0  0  0  0  0
   -3.1090   -7.9448   24.5567 H   0  0  0  0  0  0  0  0  0  0  0  0
   -2.0231   -6.9489   26.5659 H   0  0  0  0  0  0  0  0  0  0  0  0
    1.4776   -5.8388   26.6135 H   0  0  0  0  0  0  0  0  0  0  0  0
    1.6970   -6.5586   24.3589 H   0  0  0  0  0  0  0  0  0  0  0  0
    0.5822   -7.5606   22.3488 H   0  0  0  0  0  0  0  0  0  0  0  0
   -1.2999  -10.3429   22.8664 H   0  0  0  0  0  0  0  0  0  0  0  0
   -2.4131  -10.4182   21.4221 H   0  0  0  0  0  0  0  0  0  0  0  0
    0.5285  -10.1310   21.5659 H   0  0  0  0  0  0  0  0  0  0  0  0
   -0.5217  -10.9184   20.3396 H   0  0  0  0  0  0  0  0  0  0  0  0
   -0.3240   -9.1330   20.3396 H   0  0  0  0  0  0  0  0  0  0  0  0
  1  2  1  0
  2  3  1  0
  3  4  1  0
  4  5  2  0
  5  6  1  0
  6  7  2  0
  7  8  1  0
  7  9  1  0
  4 10  1  0
  9 10  2  0
  3 11  2  0
 11 12  1  0
 12 13  2  0
 13 14  1  0
 14 15  2  0
 15 16  1  0
 15 17  1  0
 12 18  1  0
 17 18  2  0
 11 19  1  0
 19 20  1  0
  1 21  1  0
  1 22  1  0
  1 23  1  0
  2 24  1  0
  2 25  1  0
  5 26  1  0
  6 27  1  0
  8 28  1  0
  9 29  1  0
 10 30  1  0
 13 31  1  0
 14 32  1  0
 16 33  1  0
 17 34  1  0
 18 35  1  0
 19 36  1  0
 19 37  1  0
 20 38  1  0
 20 39  1  0
 20 40  1  0
M  END
$$$$
