PDB_DB01072_98
     RDKit          3D

129131  0  0  0  0  0  0  0  0999 V2000
   19.9960   24.6420   15.9400 C   0  0  0  0  0  0  0  0  0  0  0  0
   18.6010   24.7680   16.2440 O   0  0  0  0  0  0  0  0  0  0  0  0
   18.0660   23.9900   17.3300 C   0  0  0  0  0  0  0  0  0  0  0  0
   18.8570   23.4040   18.0640 O   0  0  0  0  0  0  0  0  0  0  0  0
   16.7420   23.9590   17.4700 N   0  0  0  0  0  0  0  0  0  0  0  0
   16.0550   23.2110   18.5180 C   0  0  1  0  0  0  0  0  0  0  0  0
   15.6220   24.1410   19.6690 C   0  0  1  0  0  0  0  0  0  0  0  0
   14.8510   25.3620   19.1550 C   0  0  0  0  0  0  0  0  0  0  0  0
   14.7800   23.3760   20.6930 C   0  0  0  0  0  0  0  0  0  0  0  0
   16.8360   24.6950   20.4060 C   0  0  0  0  0  0  0  0  0  0  0  0
   14.9460   22.4340   17.8320 C   0  0  0  0  0  0  0  0  0  0  0  0
   13.8950   22.9880   17.5010 O   0  0  0  0  0  0  0  0  0  0  0  0
   15.2360   21.1330   17.5810 N   0  0  0  0  0  0  0  0  0  0  0  0
   14.3530   20.1860   16.8830 C   0  0  1  0  0  0  0  0  0  0  0  0
   15.0910   19.7310   15.6190 C   0  0  0  0  0  0  0  0  0  0  0  0
   15.5160   20.9260   14.7900 C   0  0  0  0  0  0  0  0  0  0  0  0
   14.5530   21.6110   14.0390 C   0  0  0  0  0  0  0  0  0  0  0  0
   14.9390   22.7120   13.2720 C   0  0  0  0  0  0  0  0  0  0  0  0
   16.2720   23.1330   13.2480 C   0  0  0  0  0  0  0  0  0  0  0  0
   17.2340   22.4490   13.9910 C   0  0  0  0  0  0  0  0  0  0  0  0
   16.8530   21.3450   14.7570 C   0  0  0  0  0  0  0  0  0  0  0  0
   14.1300   18.9750   17.7880 C   0  0  1  0  0  0  0  0  0  0  0  0
   15.3430   18.3350   18.2380 O   0  0  0  0  0  0  0  0  0  0  0  0
   13.4270   19.5100   18.9990 C   0  0  0  0  0  0  0  0  0  0  0  0
   12.0240   19.1580   19.0510 N   0  0  0  0  0  0  0  0  0  0  0  0
   11.2680   18.3190   18.1710 N   0  0  0  0  0  0  0  0  0  0  0  0
   10.5070   18.6270   17.1130 C   0  0  0  0  0  0  0  0  0  0  0  0
   10.3380   19.7450   16.6320 O   0  0  0  0  0  0  0  0  0  0  0  0
    9.7910   17.4260   16.5440 C   0  0  2  0  0  0  0  0  0  0  0  0
    9.8220   17.2830   15.0160 C   0  0  1  0  0  0  0  0  0  0  0  0
   11.2620   17.4200   14.5270 C   0  0  0  0  0  0  0  0  0  0  0  0
    9.3190   15.8950   14.6260 C   0  0  0  0  0  0  0  0  0  0  0  0
    8.9460   18.3060   14.2990 C   0  0  0  0  0  0  0  0  0  0  0  0
    8.4160   17.4600   17.0610 N   0  0  0  0  0  0  0  0  0  0  0  0
    7.8660   16.4210   17.6960 C   0  0  0  0  0  0  0  0  0  0  0  0
    8.4370   15.3410   17.9260 O   0  0  0  0  0  0  0  0  0  0  0  0
    6.5120   16.6080   18.1490 O   0  0  0  0  0  0  0  0  0  0  0  0
    5.9140   15.6250   18.9930 C   0  0  0  0  0  0  0  0  0  0  0  0
   11.4270   19.6170   20.3090 C   0  0  0  0  0  0  0  0  0  0  0  0
    9.9240   19.7340   20.2450 C   0  0  0  0  0  0  0  0  0  0  0  0
    9.3950   20.9700   19.9050 C   0  0  0  0  0  0  0  0  0  0  0  0
    8.0150   21.1300   19.8370 C   0  0  0  0  0  0  0  0  0  0  0  0
    9.0890   18.6560   20.5260 C   0  0  0  0  0  0  0  0  0  0  0  0
    7.7010   18.8210   20.4470 C   0  0  0  0  0  0  0  0  0  0  0  0
    7.1570   20.0630   20.1090 C   0  0  0  0  0  0  0  0  0  0  0  0
    5.6730   20.2450   20.0080 C   0  0  0  0  0  0  0  0  0  0  0  0
    5.1410   21.1270   19.0610 C   0  0  0  0  0  0  0  0  0  0  0  0
    3.7590   21.2810   18.9690 C   0  0  0  0  0  0  0  0  0  0  0  0
    2.9350   20.5490   19.8220 C   0  0  0  0  0  0  0  0  0  0  0  0
    3.5030   19.6770   20.7510 C   0  0  0  0  0  0  0  0  0  0  0  0
    4.8380   19.5490   20.8240 N   0  0  0  0  0  0  0  0  0  0  0  0
   20.5719   24.5900   16.8757 H   0  0  0  0  0  0  0  0  0  0  0  0
   20.1625   23.7252   15.3555 H   0  0  0  0  0  0  0  0  0  0  0  0
   20.3241   25.5142   15.3555 H   0  0  0  0  0  0  0  0  0  0  0  0
   18.0199   23.1074   16.6750 H   0  0  0  0  0  0  0  0  0  0  0  0
   18.6213   23.5786   19.0095 H   0  0  0  0  0  0  0  0  0  0  0  0
   16.4495   24.9396   17.5877 H   0  0  0  0  0  0  0  0  0  0  0  0
   16.7053   22.4847   19.0274 H   0  0  0  0  0  0  0  0  0  0  0  0
   14.4809   25.9481   20.0091 H   0  0  0  0  0  0  0  0  0  0  0  0
   15.5188   25.9866   18.5435 H   0  0  0  0  0  0  0  0  0  0  0  0
   14.0000   25.0275   18.5435 H   0  0  0  0  0  0  0  0  0  0  0  0
   15.0918   23.6593   21.7091 H   0  0  0  0  0  0  0  0  0  0  0  0
   13.7176   23.6242   20.5529 H   0  0  0  0  0  0  0  0  0  0  0  0
   14.9255   22.2947   20.5529 H   0  0  0  0  0  0  0  0  0  0  0  0
   16.6719   24.6201   21.4911 H   0  0  0  0  0  0  0  0  0  0  0  0
   17.7289   24.1152   20.1294 H   0  0  0  0  0  0  0  0  0  0  0  0
   16.9832   25.7494   20.1294 H   0  0  0  0  0  0  0  0  0  0  0  0
   14.5095   22.1916   18.8122 H   0  0  0  0  0  0  0  0  0  0  0  0
   13.3922   23.2530   18.3116 H   0  0  0  0  0  0  0  0  0  0  0  0
   16.1083   21.1479   17.0335 H   0  0  0  0  0  0  0  0  0  0  0  0
   13.3858   20.6464   16.6328 H   0  0  0  0  0  0  0  0  0  0  0  0
   15.9831   19.1562   15.9084 H   0  0  0  0  0  0  0  0  0  0  0  0
   14.4137   19.1059   15.0186 H   0  0  0  0  0  0  0  0  0  0  0  0
   15.7116   20.2629   13.9344 H   0  0  0  0  0  0  0  0  0  0  0  0
   14.1054   20.8806   13.3489 H   0  0  0  0  0  0  0  0  0  0  0  0
   13.8895   22.0452   14.8014 H   0  0  0  0  0  0  0  0  0  0  0  0
   14.6631   22.4828   12.2321 H   0  0  0  0  0  0  0  0  0  0  0  0
   14.4264   23.5489   13.7689 H   0  0  0  0  0  0  0  0  0  0  0  0
   16.5973   23.0968   12.1978 H   0  0  0  0  0  0  0  0  0  0  0  0
   16.2337   24.1198   13.7325 H   0  0  0  0  0  0  0  0  0  0  0  0
   17.9971   22.0979   13.2808 H   0  0  0  0  0  0  0  0  0  0  0  0
   17.5542   23.1867   14.7415 H   0  0  0  0  0  0  0  0  0  0  0  0
   17.1381   21.5693   15.7955 H   0  0  0  0  0  0  0  0  0  0  0  0
   17.3603   20.5091   14.2531 H   0  0  0  0  0  0  0  0  0  0  0  0
   13.5731   18.2150   17.2202 H   0  0  0  0  0  0  0  0  0  0  0  0
   15.3630   18.3245   19.2277 H   0  0  0  0  0  0  0  0  0  0  0  0
   13.9211   19.1072   19.8955 H   0  0  0  0  0  0  0  0  0  0  0  0
   13.4851   20.6074   18.9501 H   0  0  0  0  0  0  0  0  0  0  0  0
   11.9661   17.6631   17.7924 H   0  0  0  0  0  0  0  0  0  0  0  0
    9.6451   18.7830   17.7784 H   0  0  0  0  0  0  0  0  0  0  0  0
   10.2380   20.4065   17.3617 H   0  0  0  0  0  0  0  0  0  0  0  0
   10.3363   16.5293   16.8736 H   0  0  0  0  0  0  0  0  0  0  0  0
   11.9384   17.4844   15.3920 H   0  0  0  0  0  0  0  0  0  0  0  0
   11.5275   16.5431   13.9183 H   0  0  0  0  0  0  0  0  0  0  0  0
   11.3574   18.3313   13.9183 H   0  0  0  0  0  0  0  0  0  0  0  0
    9.1080   15.3127   15.5350 H   0  0  0  0  0  0  0  0  0  0  0  0
    8.3989   15.9922   14.0310 H   0  0  0  0  0  0  0  0  0  0  0  0
   10.0877   15.3802   14.0310 H   0  0  0  0  0  0  0  0  0  0  0  0
    8.4185   18.9220   15.0421 H   0  0  0  0  0  0  0  0  0  0  0  0
    9.5762   18.9509   13.6690 H   0  0  0  0  0  0  0  0  0  0  0  0
    8.2118   17.7826   13.6690 H   0  0  0  0  0  0  0  0  0  0  0  0
    8.3762   18.2519   17.7185 H   0  0  0  0  0  0  0  0  0  0  0  0
    7.5045   16.0253   16.7354 H   0  0  0  0  0  0  0  0  0  0  0  0
    8.5079   15.2070   18.9043 H   0  0  0  0  0  0  0  0  0  0  0  0
    6.0791   15.8965   20.0461 H   0  0  0  0  0  0  0  0  0  0  0  0
    4.8336   15.5772   18.7918 H   0  0  0  0  0  0  0  0  0  0  0  0
    6.3683   14.6436   18.7918 H   0  0  0  0  0  0  0  0  0  0  0  0
   11.6886   18.9010   21.1020 H   0  0  0  0  0  0  0  0  0  0  0  0
   11.8251   20.6221   20.5125 H   0  0  0  0  0  0  0  0  0  0  0  0
    9.9007   20.0164   21.3079 H   0  0  0  0  0  0  0  0  0  0  0  0
    9.7643   21.6914   20.6488 H   0  0  0  0  0  0  0  0  0  0  0  0
    9.7228   21.1136   18.8649 H   0  0  0  0  0  0  0  0  0  0  0  0
    7.7566   21.9291   20.5473 H   0  0  0  0  0  0  0  0  0  0  0  0
    7.8433   21.3141   18.7662 H   0  0  0  0  0  0  0  0  0  0  0  0
    9.3563   17.8525   19.8239 H   0  0  0  0  0  0  0  0  0  0  0  0
    9.2662   18.4633   21.5944 H   0  0  0  0  0  0  0  0  0  0  0  0
    7.3394   18.1027   19.6965 H   0  0  0  0  0  0  0  0  0  0  0  0
    7.3731   18.6796   21.4874 H   0  0  0  0  0  0  0  0  0  0  0  0
    7.1717   19.7802   19.0461 H   0  0  0  0  0  0  0  0  0  0  0  0
    5.7234   21.0631   20.7416 H   0  0  0  0  0  0  0  0  0  0  0  0
    5.5602   22.1206   19.2777 H   0  0  0  0  0  0  0  0  0  0  0  0
    5.4154   20.6702   18.0987 H   0  0  0  0  0  0  0  0  0  0  0  0
    3.5416   22.3446   19.1466 H   0  0  0  0  0  0  0  0  0  0  0  0
    3.5178   20.8872   17.9706 H   0  0  0  0  0  0  0  0  0  0  0  0
    2.3379   21.2768   20.3911 H   0  0  0  0  0  0  0  0  0  0  0  0
    2.3913   19.8785   19.1402 H   0  0  0  0  0  0  0  0  0  0  0  0
    3.1607   20.0041   21.7439 H   0  0  0  0  0  0  0  0  0  0  0  0
    3.1731   18.6871   20.4027 H   0  0  0  0  0  0  0  0  0  0  0  0
    5.0415   18.5523   20.6627 H   0  0  0  0  0  0  0  0  0  0  0  0
  1  2  1  0
  2  3  1  0
  3  4  1  0
  3  5  1  0
  5  6  1  0
  6  7  1  0
  7  8  1  6
  7  9  1  0
  7 10  1  0
  6 11  1  0
 11 12  1  0
 11 13  1  0
 13 14  1  0
 14 15  1  0
 15 16  1  0
 16 17  1  0
 17 18  1  0
 18 19  1  0
 19 20  1  0
 16 21  1  0
 20 21  1  0
 14 22  1  0
 22 23  1  0
 22 24  1  0
 24 25  1  0
 25 26  1  0
 26 27  1  0
 27 28  1  0
 27 29  1  0
 29 30  1  0
 30 31  1  6
 30 32  1  0
 30 33  1  0
 29 34  1  0
 34 35  1  0
 35 36  1  0
 35 37  1  0
 37 38  1  0
 25 39  1  0
 39 40  1  0
 40 41  1  0
 41 42  1  0
 40 43  1  0
 43 44  1  0
 42 45  1  0
 44 45  1  0
 45 46  1  0
 46 47  1  0
 47 48  1  0
 48 49  1  0
 49 50  1  0
 46 51  1  0
 50 51  1  0
  1 52  1  0
  1 53  1  0
  1 54  1  0
  3 55  1  0
  4 56  1  0
  5 57  1  0
  6 58  1  1
  8 59  1  0
  8 60  1  0
  8 61  1  0
  9 62  1  0
  9 63  1  0
  9 64  1  0
 10 65  1  0
 10 66  1  0
 10 67  1  0
 11 68  1  0
 12 69  1  0
 13 70  1  0
 14 71  1  6
 15 72  1  0
 15 73  1  0
 16 74  1  0
 17 75  1  0
 17 76  1  0
 18 77  1  0
 18 78  1  0
 19 79  1  0
 19 80  1  0
 20 81  1  0
 20 82  1  0
 21 83  1  0
 21 84  1  0
 22 85  1  6
 23 86  1  0
 24 87  1  0
 24 88  1  0
 26 89  1  0
 27 90  1  0
 28 91  1  0
 29 92  1  1
 31 93  1  0
 31 94  1  0
 31 95  1  0
 32 96  1  0
 32 97  1  0
 32 98  1  0
 33 99  1  0
 33100  1  0
 33101  1  0
 34102  1  0
 35103  1  0
 36104  1  0
 38105  1  0
 38106  1  0
 38107  1  0
 39108  1  0
 39109  1  0
 40110  1  0
 41111  1  0
 41112  1  0
 42113  1  0
 42114  1  0
 43115  1  0
 43116  1  0
 44117  1  0
 44118  1  0
 45119  1  0
 46120  1  0
 47121  1  0
 47122  1  0
 48123  1  0
 48124  1  0
 49125  1  0
 49126  1  0
 50127  1  0
 50128  1  0
 51129  1  0
M  END
>  <PDBID>  (1) 
2O4K

>  <PDB ID>  (1) 
2O4K

>  <Generic Name>  (1) 
Atazanavir

>  <Brand Name>  (1) 
Evotaz#Reyataz#Latazanavir#Zrivada

>  <DrugBank ID>  (1) 
DB01072

>  <ATC Codes>  (1) 
J05AE08#J05AR15

>  <Ligand ID>  (1) 
DR7

>  <Target Name>  (1) 
Pol polyprotein

>  <UniProt ID>  (1) 
Q72874

>  <PDB ID.1>  (1) 
2O4K

>  <Seq. Identity>  (1) 
98%

$$$$
