PDB_DB00509_99
     RDKit          3D

 35 36  0  0  0  0  0  0  0  0999 V2000
   27.7140   38.6950   92.6870 C   0  0  0  0  0  0  0  0  0  0  0  0
   28.7500   39.3010   91.9840 C   0  0  0  0  0  0  0  0  0  0  0  0
   29.5620   40.2880   92.5300 C   0  0  0  0  0  0  0  0  0  0  0  0
   29.2880   40.7450   93.8780 C   0  0  0  0  0  0  0  0  0  0  0  0
   28.2040   40.0940   94.6350 C   0  0  0  0  0  0  0  0  0  0  0  0
   27.4940   39.0850   94.0110 C   0  0  0  0  0  0  0  0  0  0  0  0
   26.8310   37.5580   92.1120 C   0  0  0  0  0  0  0  0  0  0  0  0
   26.1690   37.7340   90.7230 C   0  0  1  0  0  0  0  0  0  0  0  0
   25.1590   36.6510   90.4880 C   0  0  0  0  0  0  0  0  0  0  0  0
   31.0610   41.2960   95.2340 C   0  0  0  0  0  0  0  0  0  0  0  0
   31.4830   42.2130   96.1320 C   0  0  0  0  0  0  0  0  0  0  0  0
   32.5130   41.9480   97.0040 C   0  0  0  0  0  0  0  0  0  0  0  0
   33.2220   40.7340   97.0790 C   0  0  0  0  0  0  0  0  0  0  0  0
   32.7390   39.7500   96.1110 C   0  0  0  0  0  0  0  0  0  0  0  0
   31.6840   40.0560   95.2310 C   0  0  0  0  0  0  0  0  0  0  0  0
   25.5750   39.0350   90.4710 N   0  0  0  0  0  0  0  0  0  0  0  0
   30.0460   41.7120   94.4220 O   0  0  0  0  0  0  0  0  0  0  0  0
   34.1340   40.7580   98.0320 O   0  0  0  0  0  0  0  0  0  0  0  0
   25.3840   35.4320   90.7890 O   0  0  0  0  0  0  0  0  0  0  0  0
   24.1440   37.0300   89.8770 O   0  0  0  0  0  0  0  0  0  0  0  0
   31.0050   41.2660   91.4000 I   0  0  0  0  0  0  0  0  0  0  0  0
   33.0810   43.3760   98.3360 I   0  0  0  0  0  0  0  0  0  0  0  0
   27.7300   40.6430   96.5950 I   0  0  0  0  0  0  0  0  0  0  0  0
   33.5010   37.8300   95.8510 I   0  0  0  0  0  0  0  0  0  0  0  0
   28.9354   38.9841   90.9471 H   0  0  0  0  0  0  0  0  0  0  0  0
   26.7158   38.5622   94.5863 H   0  0  0  0  0  0  0  0  0  0  0  0
   27.4639   36.6602   92.0532 H   0  0  0  0  0  0  0  0  0  0  0  0
   25.9757   37.5211   92.8027 H   0  0  0  0  0  0  0  0  0  0  0  0
   26.9990   37.6581   90.0052 H   0  0  0  0  0  0  0  0  0  0  0  0
   30.9905   43.1960   96.1665 H   0  0  0  0  0  0  0  0  0  0  0  0
   31.3431   39.2893   94.5196 H   0  0  0  0  0  0  0  0  0  0  0  0
   25.3646   39.4959   91.3678 H   0  0  0  0  0  0  0  0  0  0  0  0
   26.2346   39.6152   89.9332 H   0  0  0  0  0  0  0  0  0  0  0  0
   34.7044   39.9647   98.1914 H   0  0  0  0  0  0  0  0  0  0  0  0
   23.4193   36.3868   89.6742 H   0  0  0  0  0  0  0  0  0  0  0  0
  1  2  2  0
  2  3  1  0
  3  4  2  0
  4  5  1  0
  1  6  1  0
  5  6  2  0
  1  7  1  0
  7  8  1  0
  8  9  1  0
 10 11  2  0
 11 12  1  0
 12 13  2  0
 13 14  1  0
 10 15  1  0
 14 15  2  0
  8 16  1  0
  4 17  1  0
 10 17  1  0
 13 18  1  0
  9 19  2  0
  9 20  1  0
  3 21  1  0
 12 22  1  0
  5 23  1  0
 14 24  1  0
  2 25  1  0
  6 26  1  0
  7 27  1  0
  7 28  1  0
  8 29  1  6
 11 30  1  0
 15 31  1  0
 16 32  1  0
 16 33  1  0
 18 34  1  0
 20 35  1  0
M  END
>  <PDBID>  (1) 
1Y0X

>  <PDB ID>  (1) 
1Y0X

>  <Generic Name>  (1) 
Dextrothyroxine

>  <Brand Name>  (1) 
Choloxin - Tab 4mg#Choloxin Tab 2mg#Choloxin Tablet 4mg#Choloxin#Dynothel#Eulipos#Lisolipin

>  <DrugBank ID>  (1) 
DB00509

>  <ATC Codes>  (1) 
C10AX01

>  <Ligand ID>  (1) 
T44

>  <Target Name>  (1) 
Thyroid hormone receptor beta

>  <UniProt ID>  (1) 
P10828

>  <PDB ID.1>  (1) 
1Y0X

>  <Seq. Identity>  (1) 
100%

$$$$
