PDB_DB00196_99
     RDKit          3D

 48 50  0  0  0  0  0  0  0  0999 V2000
   23.6020    9.8400   16.9960 O   0  0  0  0  0  0  0  0  0  0  0  0
   23.2430   10.8970   16.0970 C   0  0  1  0  0  0  0  0  0  0  0  0
   21.8320   10.5870   15.5500 C   0  0  0  0  0  0  0  0  0  0  0  0
   23.2690   12.2000   16.9260 C   0  0  0  0  0  0  0  0  0  0  0  0
   24.2700   11.0010   14.9700 C   0  0  0  0  0  0  0  0  0  0  0  0
   20.7930   10.7040   16.5620 N   0  0  0  0  0  0  0  0  0  0  0  0
   20.3200    9.7840   17.3950 C   0  0  0  0  0  0  0  0  0  0  0  0
   20.1260   11.8700   16.7510 N   0  0  0  0  0  0  0  0  0  0  0  0
   19.3560   10.2730   18.1390 N   0  0  0  0  0  0  0  0  0  0  0  0
   19.2810   11.5480   17.7040 C   0  0  0  0  0  0  0  0  0  0  0  0
   24.6180   12.5810   17.3080 N   0  0  0  0  0  0  0  0  0  0  0  0
   25.4700   11.9650   18.1190 C   0  0  0  0  0  0  0  0  0  0  0  0
   25.2110   13.6810   16.7850 N   0  0  0  0  0  0  0  0  0  0  0  0
   26.6200   12.5930   18.1620 N   0  0  0  0  0  0  0  0  0  0  0  0
   26.4050   13.6330   17.3290 C   0  0  0  0  0  0  0  0  0  0  0  0
   25.3560   10.1360   14.9270 C   0  0  0  0  0  0  0  0  0  0  0  0
   24.2080   11.9630   13.9720 C   0  0  0  0  0  0  0  0  0  0  0  0
   26.3240   10.2330   13.9440 C   0  0  0  0  0  0  0  0  0  0  0  0
   26.1880   11.2100   12.9970 C   0  0  0  0  0  0  0  0  0  0  0  0
   27.1230   11.2980   12.0120 F   0  0  0  0  0  0  0  0  0  0  0  0
   25.1440   12.0970   12.9820 C   0  0  0  0  0  0  0  0  0  0  0  0
   23.1610   12.8190   13.9700 F   0  0  0  0  0  0  0  0  0  0  0  0
   23.4964   10.1510   17.9299 H   0  0  0  0  0  0  0  0  0  0  0  0
   21.6090   11.2916   14.7352 H   0  0  0  0  0  0  0  0  0  0  0  0
   21.8358    9.5440   15.2004 H   0  0  0  0  0  0  0  0  0  0  0  0
   22.8285   13.0102   16.3263 H   0  0  0  0  0  0  0  0  0  0  0  0
   22.6939   12.0255   17.8473 H   0  0  0  0  0  0  0  0  0  0  0  0
   24.8583   11.7097   15.5715 H   0  0  0  0  0  0  0  0  0  0  0  0
   19.9295    8.9373   16.8114 H   0  0  0  0  0  0  0  0  0  0  0  0
   21.1374    9.4546   18.0533 H   0  0  0  0  0  0  0  0  0  0  0  0
   20.7628   12.6211   17.0531 H   0  0  0  0  0  0  0  0  0  0  0  0
   18.4705    9.7714   17.9805 H   0  0  0  0  0  0  0  0  0  0  0  0
   19.4687   12.2106   18.5618 H   0  0  0  0  0  0  0  0  0  0  0  0
   18.2770   11.6606   17.2689 H   0  0  0  0  0  0  0  0  0  0  0  0
   25.0413   11.9311   19.1315 H   0  0  0  0  0  0  0  0  0  0  0  0
   25.6419   10.9478   17.7371 H   0  0  0  0  0  0  0  0  0  0  0  0
   25.2652   13.6242   15.7580 H   0  0  0  0  0  0  0  0  0  0  0  0
   26.8341   12.9163   19.1162 H   0  0  0  0  0  0  0  0  0  0  0  0
   27.1456   13.5767   16.5176 H   0  0  0  0  0  0  0  0  0  0  0  0
   26.4936   14.5392   17.9462 H   0  0  0  0  0  0  0  0  0  0  0  0
   25.8790   10.2481   15.8882 H   0  0  0  0  0  0  0  0  0  0  0  0
   24.8792    9.1730   14.6919 H   0  0  0  0  0  0  0  0  0  0  0  0
   24.7790   12.6574   14.6059 H   0  0  0  0  0  0  0  0  0  0  0  0
   27.2865   10.4006   14.4495 H   0  0  0  0  0  0  0  0  0  0  0  0
   26.2348    9.2927   13.3801 H   0  0  0  0  0  0  0  0  0  0  0  0
   26.7799   11.8965   13.6202 H   0  0  0  0  0  0  0  0  0  0  0  0
   24.6269   11.9865   12.0175 H   0  0  0  0  0  0  0  0  0  0  0  0
   25.6011   13.0836   13.1485 H   0  0  0  0  0  0  0  0  0  0  0  0
  2  1  1  1
  2  3  1  0
  2  4  1  0
  2  5  1  0
  3  6  1  0
  6  7  1  0
  6  8  1  0
  7  9  1  0
  8 10  1  0
  9 10  1  0
  4 11  1  0
 11 12  1  0
 11 13  1  0
 12 14  1  0
 13 15  1  0
 15 14  1  0
  5 16  1  0
  5 17  1  0
 16 18  1  0
 18 19  1  0
 19 20  1  0
 17 21  1  0
 19 21  1  0
 17 22  1  0
  1 23  1  0
  3 24  1  0
  3 25  1  0
  4 26  1  0
  4 27  1  0
  5 28  1  0
  7 29  1  0
  7 30  1  0
  8 31  1  0
  9 32  1  0
 10 33  1  0
 10 34  1  0
 12 35  1  0
 12 36  1  0
 13 37  1  0
 14 38  1  6
 15 39  1  0
 15 40  1  0
 16 41  1  0
 16 42  1  0
 17 43  1  0
 18 44  1  0
 18 45  1  0
 19 46  1  0
 21 47  1  0
 21 48  1  0
M  END
>  <PDBID>  (1) 
5ESM

>  <PDB ID>  (1) 
5ESM

>  <Generic Name>  (1) 
Fluconazole

>  <Brand Name>  (1) 
Act Fluconazole#Apo-fluconazole#Apo-fluconazole-150#Canesoral#Canesoral Combi-pak#Clotrimaderm-fluconazole Combi-pack#Clotrimazole-fluconazole Combi-pack#Co Fluconazole-150#Diflucan#Diflucan Inj 2mg/ml#Diflucan One#Diflucan Pws 50mg/5ml#Diflucan Tab 100mg#Diflucan Tab 50mg#Dom-fluconazole#Fluconazole#Fluconazole 150#Fluconazole In Sodium Chloride Injection USP#Fluconazole Injection#Fluconazole Injection Sdz#Fluconazole Omega#Fluconazole-150#Jamp-fluconazole#Mar-fluconazole-150#Monicure#Monicure Combo#Mylan-fluconazole#Novo-fluconazole#Novo-fluconazole-150#Nu-fluconazole-150#PHL-fluconazole#PMS-fluconazole#PMS-fluconazole-150#Priva-fluconazole#Pro-fluconazole#Riva-fluconazole#Taro-fluconazole#Teva-fluconazole#Elazor#Flucazol#Flucostat#Flunizol#Pritenzol#Trican#Triflucan

>  <DrugBank ID>  (1) 
DB00196

>  <ATC Codes>  (1) 
D01AC15#J02AC01#J01RA07

>  <Ligand ID>  (1) 
TPF

>  <Target Name>  (1) 
Lanosterol 14-alpha demethylase

>  <UniProt ID>  (1) 
P10613

>  <PDB ID.1>  (1) 
5ESM

>  <Seq. Identity>  (1) 
65%

$$$$
