PDB_DB08865_95
     RDKit          3D

 68 71  0  0  0  0  0  0  0  0999 V2000
   41.4600   21.4450    3.2060 Cl  0  0  0  0  0  0  0  0  0  0  0  0
   40.3420   20.1510    3.4690 C   0  0  0  0  0  0  0  0  0  0  0  0
   40.0390   19.3390    2.3330 C   0  0  0  0  0  0  0  0  0  0  0  0
   39.1350   18.2580    2.4320 C   0  0  0  0  0  0  0  0  0  0  0  0
   38.5080   17.9570    3.6690 C   0  0  0  0  0  0  0  0  0  0  0  0
   37.6510   16.9220    3.7270 F   0  0  0  0  0  0  0  0  0  0  0  0
   39.7230   19.8750    4.7590 C   0  0  0  0  0  0  0  0  0  0  0  0
   38.7880   18.7480    4.8360 C   0  0  0  0  0  0  0  0  0  0  0  0
   37.9600   18.2860    6.3050 Cl  0  0  0  0  0  0  0  0  0  0  0  0
   40.0620   20.7830    6.0110 C   0  0  1  0  0  0  0  0  0  0  0  0
   38.7710   21.3840    6.6080 C   0  0  0  0  0  0  0  0  0  0  0  0
   40.7530   20.0750    7.1250 O   0  0  0  0  0  0  0  0  0  0  0  0
   42.0160   19.4720    7.0310 C   0  0  0  0  0  0  0  0  0  0  0  0
   42.9670   19.7760    6.0040 C   0  0  0  0  0  0  0  0  0  0  0  0
   42.4430   18.5050    8.0060 C   0  0  0  0  0  0  0  0  0  0  0  0
   41.5780   18.1490    9.0610 N   0  0  0  0  0  0  0  0  0  0  0  0
   43.6680   17.8940    7.9860 N   0  0  0  0  0  0  0  0  0  0  0  0
   44.5480   18.2140    6.9790 C   0  0  0  0  0  0  0  0  0  0  0  0
   44.2460   19.1580    5.9510 C   0  0  0  0  0  0  0  0  0  0  0  0
   45.1930   19.5290    4.8290 C   0  0  0  0  0  0  0  0  0  0  0  0
   46.6310   19.2940    4.6930 C   0  0  0  0  0  0  0  0  0  0  0  0
   44.8370   20.1960    3.6750 C   0  0  0  0  0  0  0  0  0  0  0  0
   46.0030   20.3180    2.9540 N   0  0  0  0  0  0  0  0  0  0  0  0
   47.0190   19.7900    3.5610 N   0  0  0  0  0  0  0  0  0  0  0  0
   46.0420   20.9830    1.6340 C   0  0  2  0  0  0  0  0  0  0  0  0
   45.7700   19.9380    0.5180 C   0  0  0  0  0  0  0  0  0  0  0  0
   45.8050   20.6330   -0.8630 C   0  0  0  0  0  0  0  0  0  0  0  0
   47.0630   21.4040   -1.0880 N   0  0  0  0  0  0  0  0  0  0  0  0
   47.3610   22.3760    0.0080 C   0  0  0  0  0  0  0  0  0  0  0  0
   47.3910   21.6990    1.3990 C   0  0  0  0  0  0  0  0  0  0  0  0
   39.5073   20.8202    3.2133 H   0  0  0  0  0  0  0  0  0  0  0  0
   39.6358   20.0146    1.5642 H   0  0  0  0  0  0  0  0  0  0  0  0
   40.9966   18.8361    2.1326 H   0  0  0  0  0  0  0  0  0  0  0  0
   38.3293   18.4532    1.7090 H   0  0  0  0  0  0  0  0  0  0  0  0
   39.7763   17.3812    2.2588 H   0  0  0  0  0  0  0  0  0  0  0  0
   37.6772   18.6305    3.4118 H   0  0  0  0  0  0  0  0  0  0  0  0
   38.8910   20.5478    4.5037 H   0  0  0  0  0  0  0  0  0  0  0  0
   39.6198   18.0754    5.0923 H   0  0  0  0  0  0  0  0  0  0  0  0
   40.7431   21.5490    5.6119 H   0  0  0  0  0  0  0  0  0  0  0  0
   38.8280   21.3575    7.7062 H   0  0  0  0  0  0  0  0  0  0  0  0
   38.6617   22.4256    6.2715 H   0  0  0  0  0  0  0  0  0  0  0  0
   37.9036   20.7971    6.2715 H   0  0  0  0  0  0  0  0  0  0  0  0
   41.5897   18.6774    6.4011 H   0  0  0  0  0  0  0  0  0  0  0  0
   42.4732   19.5427    5.0492 H   0  0  0  0  0  0  0  0  0  0  0  0
   43.2260   20.8203    6.2329 H   0  0  0  0  0  0  0  0  0  0  0  0
   42.8632   19.3128    8.6231 H   0  0  0  0  0  0  0  0  0  0  0  0
   42.0393   18.3389    9.9621 H   0  0  0  0  0  0  0  0  0  0  0  0
   40.7113   18.7017    8.9958 H   0  0  0  0  0  0  0  0  0  0  0  0
   44.1330   18.1173    8.8775 H   0  0  0  0  0  0  0  0  0  0  0  0
   45.4546   18.5884    7.4769 H   0  0  0  0  0  0  0  0  0  0  0  0
   44.5814   17.2733    6.4099 H   0  0  0  0  0  0  0  0  0  0  0  0
   44.6621   19.9660    6.5707 H   0  0  0  0  0  0  0  0  0  0  0  0
   45.3968   20.4922    5.3195 H   0  0  0  0  0  0  0  0  0  0  0  0
   47.1678   19.7853    5.5179 H   0  0  0  0  0  0  0  0  0  0  0  0
   46.8436   18.2153    4.7268 H   0  0  0  0  0  0  0  0  0  0  0  0
   44.0924   19.6171    3.1090 H   0  0  0  0  0  0  0  0  0  0  0  0
   44.3821   21.1743    3.8895 H   0  0  0  0  0  0  0  0  0  0  0  0
   47.7333   20.5129    3.7288 H   0  0  0  0  0  0  0  0  0  0  0  0
   45.2573   21.7535    1.6083 H   0  0  0  0  0  0  0  0  0  0  0  0
   46.5419   19.1551    0.5535 H   0  0  0  0  0  0  0  0  0  0  0  0
   44.7795   19.4858    0.6744 H   0  0  0  0  0  0  0  0  0  0  0  0
   45.7181   19.8651   -1.6458 H   0  0  0  0  0  0  0  0  0  0  0  0
   44.9678   21.3457   -0.8977 H   0  0  0  0  0  0  0  0  0  0  0  0
   47.8465   20.7391   -1.1581 H   0  0  0  0  0  0  0  0  0  0  0  0
   48.3419   22.8355   -0.1833 H   0  0  0  0  0  0  0  0  0  0  0  0
   46.5600   23.1299    0.0171 H   0  0  0  0  0  0  0  0  0  0  0  0
   47.5458   22.4606    2.1775 H   0  0  0  0  0  0  0  0  0  0  0  0
   48.2134   20.9698    1.4419 H   0  0  0  0  0  0  0  0  0  0  0  0
  1  2  1  0
  2  3  1  0
  3  4  1  0
  4  5  1  0
  5  6  1  0
  2  7  1  0
  5  8  1  0
  7  8  1  0
  8  9  1  0
  7 10  1  0
 10 11  1  0
 10 12  1  0
 12 13  1  0
 13 14  1  0
 13 15  1  0
 15 16  1  0
 15 17  1  0
 17 18  1  0
 14 19  1  0
 18 19  1  0
 19 20  1  0
 20 21  1  0
 20 22  1  0
 22 23  1  0
 21 24  1  0
 23 24  1  0
 23 25  1  0
 25 26  1  0
 26 27  1  0
 27 28  1  0
 28 29  1  0
 25 30  1  0
 29 30  1  0
  2 31  1  0
  3 32  1  0
  3 33  1  0
  4 34  1  0
  4 35  1  0
  5 36  1  0
  7 37  1  0
  8 38  1  0
 10 39  1  6
 11 40  1  0
 11 41  1  0
 11 42  1  0
 13 43  1  0
 14 44  1  0
 14 45  1  0
 15 46  1  0
 16 47  1  0
 16 48  1  0
 17 49  1  0
 18 50  1  0
 18 51  1  0
 19 52  1  0
 20 53  1  0
 21 54  1  0
 21 55  1  0
 22 56  1  0
 22 57  1  0
 24 58  1  0
 25 59  1  1
 26 60  1  0
 26 61  1  0
 27 62  1  0
 27 63  1  0
 28 64  1  0
 29 65  1  0
 29 66  1  0
 30 67  1  0
 30 68  1  0
M  END
>  <PDBID>  (1) 
3ZBF

>  <PDB ID>  (1) 
3ZBF

>  <Generic Name>  (1) 
Crizotinib

>  <Brand Name>  (1) 
Xalkori

>  <DrugBank ID>  (1) 
DB08865

>  <ATC Codes>  (1) 
L01XE16

>  <Ligand ID>  (1) 
VGH

>  <Target Name>  (1) 
Hepatocyte growth factor receptor

>  <UniProt ID>  (1) 
P08581

>  <PDB ID.1>  (1) 
3ZBF

>  <Seq. Identity>  (1) 
39%

$$$$
