PDB_DB01254_99
     RDKit          3D

154160  0  0  0  0  0  0  0  0999 V2000
   46.6110   82.6200   38.8410 C   0  0  0  0  0  0  0  0  0  0  0  0
   46.7750   82.0670   40.0440 C   0  0  0  0  0  0  0  0  0  0  0  0
   47.6870   82.4940   41.1480 C   0  0  0  0  0  0  0  0  0  0  0  0
   39.1540   74.8480   36.4620 N   0  0  0  0  0  0  0  0  0  0  0  0
   51.3280   84.7110   43.8460 C   0  0  0  0  0  0  0  0  0  0  0  0
   51.6490   83.9220   42.7330 C   0  0  0  0  0  0  0  0  0  0  0  0
   50.6600   83.5350   41.8220 C   0  0  0  0  0  0  0  0  0  0  0  0
   51.0540   82.7460   40.6060 C   0  0  0  0  0  0  0  0  0  0  0  0
   43.3450   79.0450   38.8240 C   0  0  0  0  0  0  0  0  0  0  0  0
   42.2600   78.4660   38.1410 C   0  0  0  0  0  0  0  0  0  0  0  0
   41.6410   77.3640   38.7640 C   0  0  0  0  0  0  0  0  0  0  0  0
   43.1380   77.5250   40.5610 C   0  0  0  0  0  0  0  0  0  0  0  0
   43.6000   77.0970   41.9190 C   0  0  0  0  0  0  0  0  0  0  0  0
   39.8200   75.5660   38.8090 C   0  0  0  0  0  0  0  0  0  0  0  0
   39.9050   77.1490   36.8840 C   0  0  0  0  0  0  0  0  0  0  0  0
   39.2210   73.7370   35.5030 C   0  0  0  0  0  0  0  0  0  0  0  0
   38.3550   73.8890   34.2270 C   0  0  0  0  0  0  0  0  0  0  0  0
   43.9770   80.1180   38.2570 N   0  0  0  0  0  0  0  0  0  0  0  0
   45.0120   80.8680   38.7420 C   0  0  1  0  0  0  0  0  0  0  0  0
   45.5400   81.9390   38.1020 N   0  0  0  0  0  0  0  0  0  0  0  0
   45.8120   80.6770   40.2960 S   0  0  0  0  0  0  0  0  0  0  0  0
   48.3930   83.6260   41.1040 N   0  0  0  0  0  0  0  0  0  0  0  0
   49.3330   83.9150   42.0370 C   0  0  1  0  0  0  0  0  0  0  0  0
   49.0210   84.6530   43.2010 C   0  0  0  0  0  0  0  0  0  0  0  0
   50.0050   85.0710   44.1070 C   0  0  0  0  0  0  0  0  0  0  0  0
   47.3940   85.0560   43.5890 Cl  0  0  0  0  0  0  0  0  0  0  0  0
   47.7260   81.7050   42.0920 O   0  0  0  0  0  0  0  0  0  0  0  0
   42.0970   76.9050   39.9750 N   0  0  0  0  0  0  0  0  0  0  0  0
   43.7640   78.5580   40.0120 N   0  0  0  0  0  0  0  0  0  0  0  0
   40.4900   76.7170   38.1650 N   0  0  0  0  0  0  0  0  0  0  0  0
   39.6220   74.4100   37.7990 C   0  0  0  0  0  0  0  0  0  0  0  0
   39.9110   75.9790   35.8960 C   0  0  0  0  0  0  0  0  0  0  0  0
   37.4960   75.0150   34.2610 O   0  0  0  0  0  0  0  0  0  0  0  0
   45.0920   21.1980   44.0220 C   0  0  0  0  0  0  0  0  0  0  0  0
   45.2320   21.7900   42.8220 C   0  0  0  0  0  0  0  0  0  0  0  0
   46.1380   21.4040   41.6930 C   0  0  0  0  0  0  0  0  0  0  0  0
   37.8580   29.3200   46.7410 N   0  0  0  0  0  0  0  0  0  0  0  0
   49.5720   19.2410   38.6830 C   0  0  0  0  0  0  0  0  0  0  0  0
   49.9920   20.0530   39.7340 C   0  0  0  0  0  0  0  0  0  0  0  0
   49.1070   20.4520   40.7440 C   0  0  0  0  0  0  0  0  0  0  0  0
   49.6460   21.3380   41.8210 C   0  0  0  0  0  0  0  0  0  0  0  0
   41.9280   24.8430   44.3640 C   0  0  0  0  0  0  0  0  0  0  0  0
   40.9280   25.4650   45.1470 C   0  0  0  0  0  0  0  0  0  0  0  0
   40.3420   26.6350   44.6060 C   0  0  1  0  0  0  0  0  0  0  0  0
   41.7070   26.4480   42.7130 C   0  0  0  0  0  0  0  0  0  0  0  0
   42.2170   26.9640   41.3950 C   0  0  0  0  0  0  0  0  0  0  0  0
   38.4330   28.2200   44.5120 C   0  0  0  0  0  0  0  0  0  0  0  0
   38.7370   26.8970   46.5690 C   0  0  0  0  0  0  0  0  0  0  0  0
   38.6540   30.3560   47.4350 C   0  0  0  0  0  0  0  0  0  0  0  0
   38.5070   30.5380   48.9590 C   0  0  0  0  0  0  0  0  0  0  0  0
   42.5570   23.7240   44.8230 N   0  0  0  0  0  0  0  0  0  0  0  0
   43.4580   22.9160   44.1980 C   0  0  1  0  0  0  0  0  0  0  0  0
   43.9610   21.8100   44.7770 N   0  0  0  0  0  0  0  0  0  0  0  0
   44.2160   23.1540   42.6110 S   0  0  0  0  0  0  0  0  0  0  0  0
   46.8710   20.2910   41.6870 N   0  0  0  0  0  0  0  0  0  0  0  0
   47.7490   20.0250   40.6910 C   0  0  0  0  0  0  0  0  0  0  0  0
   47.3460   19.2730   39.5890 C   0  0  0  0  0  0  0  0  0  0  0  0
   48.2370   18.8860   38.5970 C   0  0  0  0  0  0  0  0  0  0  0  0
   45.7120   18.7580   39.4040 Cl  0  0  0  0  0  0  0  0  0  0  0  0
   46.1400   22.2090   40.7620 O   0  0  0  0  0  0  0  0  0  0  0  0
   40.7480   27.1060   43.3800 N   0  0  0  0  0  0  0  0  0  0  0  0
   42.2870   25.3460   43.1770 N   0  0  0  0  0  0  0  0  0  0  0  0
   39.3580   27.4000   45.3300 N   0  0  0  0  0  0  0  0  0  0  0  0
   38.0180   29.4710   45.2700 C   0  0  0  0  0  0  0  0  0  0  0  0
   37.9240   27.9510   47.3220 C   0  0  0  0  0  0  0  0  0  0  0  0
   39.7210   30.9530   49.5710 O   0  0  0  0  0  0  0  0  0  0  0  0
   46.3479   83.6810   38.9634 H   0  0  0  0  0  0  0  0  0  0  0  0
   47.5494   82.5241   38.2751 H   0  0  0  0  0  0  0  0  0  0  0  0
   47.5678   81.4210   39.6389 H   0  0  0  0  0  0  0  0  0  0  0  0
   48.5187   81.9567   40.6688 H   0  0  0  0  0  0  0  0  0  0  0  0
   51.6855   84.1652   44.7316 H   0  0  0  0  0  0  0  0  0  0  0  0
   51.8017   85.6748   43.6079 H   0  0  0  0  0  0  0  0  0  0  0  0
   52.4034   84.4803   42.1593 H   0  0  0  0  0  0  0  0  0  0  0  0
   51.9498   82.9669   43.1884 H   0  0  0  0  0  0  0  0  0  0  0  0
   50.8087   84.4707   41.2631 H   0  0  0  0  0  0  0  0  0  0  0  0
   51.5252   81.8023   40.9181 H   0  0  0  0  0  0  0  0  0  0  0  0
   50.1591   82.5277   40.0047 H   0  0  0  0  0  0  0  0  0  0  0  0
   51.7662   83.3302   40.0047 H   0  0  0  0  0  0  0  0  0  0  0  0
   44.0353   78.3640   38.3047 H   0  0  0  0  0  0  0  0  0  0  0  0
   41.4961   79.2457   38.0052 H   0  0  0  0  0  0  0  0  0  0  0  0
   42.6821   78.0720   37.2047 H   0  0  0  0  0  0  0  0  0  0  0  0
   42.3319   76.6829   38.2457 H   0  0  0  0  0  0  0  0  0  0  0  0
   43.8278   76.8035   40.0989 H   0  0  0  0  0  0  0  0  0  0  0  0
   43.0230   77.6316   42.6880 H   0  0  0  0  0  0  0  0  0  0  0  0
   43.4479   76.0136   42.0335 H   0  0  0  0  0  0  0  0  0  0  0  0
   44.6686   77.3313   42.0335 H   0  0  0  0  0  0  0  0  0  0  0  0
   40.4384   75.2111   39.6466 H   0  0  0  0  0  0  0  0  0  0  0  0
   38.8335   75.8901   39.1719 H   0  0  0  0  0  0  0  0  0  0  0  0
   38.8702   77.4839   37.0485 H   0  0  0  0  0  0  0  0  0  0  0  0
   40.4992   77.9780   36.4721 H   0  0  0  0  0  0  0  0  0  0  0  0
   40.2691   73.6273   35.1875 H   0  0  0  0  0  0  0  0  0  0  0  0
   38.8171   72.8621   36.0335 H   0  0  0  0  0  0  0  0  0  0  0  0
   39.0253   73.9878   33.3604 H   0  0  0  0  0  0  0  0  0  0  0  0
   37.7168   72.9956   34.1593 H   0  0  0  0  0  0  0  0  0  0  0  0
   44.3213   79.7627   37.3536 H   0  0  0  0  0  0  0  0  0  0  0  0
   45.7291   80.2090   38.2308 H   0  0  0  0  0  0  0  0  0  0  0  0
   44.7840   82.6176   37.9320 H   0  0  0  0  0  0  0  0  0  0  0  0
   48.8763   83.6310   40.1944 H   0  0  0  0  0  0  0  0  0  0  0  0
   49.5284   84.8776   41.5419 H   0  0  0  0  0  0  0  0  0  0  0  0
   48.9014   83.7153   43.7635 H   0  0  0  0  0  0  0  0  0  0  0  0
   49.7410   84.6572   45.0914 H   0  0  0  0  0  0  0  0  0  0  0  0
   49.9983   86.1686   44.0347 H   0  0  0  0  0  0  0  0  0  0  0  0
   47.7011   82.2084   42.9441 H   0  0  0  0  0  0  0  0  0  0  0  0
   41.3066   76.9559   40.6334 H   0  0  0  0  0  0  0  0  0  0  0  0
   44.7479   78.2791   39.8892 H   0  0  0  0  0  0  0  0  0  0  0  0
   38.8793   73.7124   38.2136 H   0  0  0  0  0  0  0  0  0  0  0  0
   40.6076   73.9438   37.6531 H   0  0  0  0  0  0  0  0  0  0  0  0
   40.9483   75.6662   35.7057 H   0  0  0  0  0  0  0  0  0  0  0  0
   39.4422   76.2959   34.9527 H   0  0  0  0  0  0  0  0  0  0  0  0
   37.3095   75.2595   35.2020 H   0  0  0  0  0  0  0  0  0  0  0  0
   44.8919   20.1263   43.8759 H   0  0  0  0  0  0  0  0  0  0  0  0
   46.0196   21.3354   44.5971 H   0  0  0  0  0  0  0  0  0  0  0  0
   46.0204   22.4374   43.2334 H   0  0  0  0  0  0  0  0  0  0  0  0
   46.9662   21.9468   42.1720 H   0  0  0  0  0  0  0  0  0  0  0  0
   49.8260   19.7655   37.7501 H   0  0  0  0  0  0  0  0  0  0  0  0
   50.0857   18.2861   38.8682 H   0  0  0  0  0  0  0  0  0  0  0  0
   50.8125   19.5166   40.2331 H   0  0  0  0  0  0  0  0  0  0  0  0
   50.2183   21.0023   39.2264 H   0  0  0  0  0  0  0  0  0  0  0  0
   49.3822   19.5661   41.3351 H   0  0  0  0  0  0  0  0  0  0  0  0
   49.3899   20.9171   42.8045 H   0  0  0  0  0  0  0  0  0  0  0  0
   50.7396   21.4076   41.7254 H   0  0  0  0  0  0  0  0  0  0  0  0
   49.2050   22.3412   41.7254 H   0  0  0  0  0  0  0  0  0  0  0  0
   42.6938   25.4702   44.8437 H   0  0  0  0  0  0  0  0  0  0  0  0
   40.1241   24.7315   45.3075 H   0  0  0  0  0  0  0  0  0  0  0  0
   41.4371   25.7912   46.0659 H   0  0  0  0  0  0  0  0  0  0  0  0
   41.1126   27.2478   45.0966 H   0  0  0  0  0  0  0  0  0  0  0  0
   42.4750   27.0337   43.2395 H   0  0  0  0  0  0  0  0  0  0  0  0
   42.9800   27.7359   41.5739 H   0  0  0  0  0  0  0  0  0  0  0  0
   42.6607   26.1353   40.8237 H   0  0  0  0  0  0  0  0  0  0  0  0
   41.3832   27.3980   40.8237 H   0  0  0  0  0  0  0  0  0  0  0  0
   38.9373   28.5126   43.5792 H   0  0  0  0  0  0  0  0  0  0  0  0
   37.5349   27.6258   44.2875 H   0  0  0  0  0  0  0  0  0  0  0  0
   38.0681   26.0635   46.3084 H   0  0  0  0  0  0  0  0  0  0  0  0
   39.5554   26.5864   47.2352 H   0  0  0  0  0  0  0  0  0  0  0  0
   39.7126   30.1280   47.2415 H   0  0  0  0  0  0  0  0  0  0  0  0
   38.2614   31.2983   47.0252 H   0  0  0  0  0  0  0  0  0  0  0  0
   37.7354   31.2979   49.1520 H   0  0  0  0  0  0  0  0  0  0  0  0
   38.2280   29.5649   49.3894 H   0  0  0  0  0  0  0  0  0  0  0  0
   43.0465   24.0393   45.6727 H   0  0  0  0  0  0  0  0  0  0  0  0
   44.2826   23.5108   44.6178 H   0  0  0  0  0  0  0  0  0  0  0  0
   43.2071   21.1125   44.8549 H   0  0  0  0  0  0  0  0  0  0  0  0
   47.4167   20.2983   42.5605 H   0  0  0  0  0  0  0  0  0  0  0  0
   48.0259   19.0829   41.1867 H   0  0  0  0  0  0  0  0  0  0  0  0
   47.1318   20.1991   39.0354 H   0  0  0  0  0  0  0  0  0  0  0  0
   47.8589   19.3027   37.6518 H   0  0  0  0  0  0  0  0  0  0  0  0
   48.2621   17.7908   38.6961 H   0  0  0  0  0  0  0  0  0  0  0  0
   46.1423   23.1309   41.1229 H   0  0  0  0  0  0  0  0  0  0  0  0
   39.9160   27.1225   42.7730 H   0  0  0  0  0  0  0  0  0  0  0  0
   43.2964   25.5435   43.2322 H   0  0  0  0  0  0  0  0  0  0  0  0
   37.0549   29.8089   44.8598 H   0  0  0  0  0  0  0  0  0  0  0  0
   38.8419   30.1869   45.1336 H   0  0  0  0  0  0  0  0  0  0  0  0
   38.3571   28.0421   48.3290 H   0  0  0  0  0  0  0  0  0  0  0  0
   36.8882   27.5827   47.2834 H   0  0  0  0  0  0  0  0  0  0  0  0
   39.6226   30.9194   50.5555 H   0  0  0  0  0  0  0  0  0  0  0  0
  1  2  1  0
  2  3  1  0
  5  6  1  0
  6  7  1  0
  7  8  1  0
  9 10  1  0
 10 11  1  0
 12 13  1  0
  4 16  1  0
 16 17  1  0
  9 18  1  0
 18 19  1  0
  1 20  1  0
 19 20  1  0
  2 21  1  0
 19 21  1  0
  3 22  1  0
  7 23  1  0
 22 23  1  0
 23 24  1  0
  5 25  1  0
 24 25  1  0
 24 26  1  0
  3 27  1  0
 11 28  1  0
 12 28  1  0
  9 29  1  0
 12 29  1  0
 11 30  1  0
 14 30  1  0
 15 30  1  0
  4 31  1  0
 14 31  1  0
  4 32  1  0
 15 32  1  0
 17 33  1  0
 34 35  1  0
 35 36  1  0
 38 39  1  0
 39 40  1  0
 40 41  1  0
 42 43  1  0
 43 44  1  0
 45 46  1  0
 37 49  1  0
 49 50  1  0
 42 51  1  0
 51 52  1  0
 34 53  1  0
 52 53  1  0
 35 54  1  0
 52 54  1  0
 36 55  1  0
 40 56  1  0
 55 56  1  0
 56 57  1  0
 38 58  1  0
 57 58  1  0
 57 59  1  0
 36 60  1  0
 44 61  1  0
 45 61  1  0
 42 62  1  0
 45 62  1  0
 44 63  1  0
 47 63  1  0
 48 63  1  0
 37 64  1  0
 47 64  1  0
 37 65  1  0
 48 65  1  0
 50 66  1  0
  1 67  1  0
  1 68  1  0
  2 69  1  0
  3 70  1  0
  5 71  1  0
  5 72  1  0
  6 73  1  0
  6 74  1  0
  7 75  1  0
  8 76  1  0
  8 77  1  0
  8 78  1  0
  9 79  1  0
 10 80  1  0
 10 81  1  0
 11 82  1  0
 12 83  1  0
 13 84  1  0
 13 85  1  0
 13 86  1  0
 14 87  1  0
 14 88  1  0
 15 89  1  0
 15 90  1  0
 16 91  1  0
 16 92  1  0
 17 93  1  0
 17 94  1  0
 18 95  1  0
 19 96  1  6
 20 97  1  0
 22 98  1  0
 23 99  1  1
 24100  1  0
 25101  1  0
 25102  1  0
 27103  1  0
 28104  1  0
 29105  1  0
 31106  1  0
 31107  1  0
 32108  1  0
 32109  1  0
 33110  1  0
 34111  1  0
 34112  1  0
 35113  1  0
 36114  1  0
 38115  1  0
 38116  1  0
 39117  1  0
 39118  1  0
 40119  1  0
 41120  1  0
 41121  1  0
 41122  1  0
 42123  1  0
 43124  1  0
 43125  1  0
 44126  1  6
 45127  1  0
 46128  1  0
 46129  1  0
 46130  1  0
 47131  1  0
 47132  1  0
 48133  1  0
 48134  1  0
 49135  1  0
 49136  1  0
 50137  1  0
 50138  1  0
 51139  1  0
 52140  1  6
 53141  1  0
 55142  1  0
 56143  1  0
 57144  1  0
 58145  1  0
 58146  1  0
 60147  1  0
 61148  1  0
 62149  1  0
 64150  1  0
 64151  1  0
 65152  1  0
 65153  1  0
 66154  1  0
M  END
>  <PDBID>  (1) 
2GQG

>  <PDB ID>  (1) 
2GQG

>  <Generic Name>  (1) 
Dasatinib

>  <Brand Name>  (1) 
Sprycel

>  <DrugBank ID>  (1) 
DB01254

>  <ATC Codes>  (1) 
L01XE06

>  <Ligand ID>  (1) 
1N1

>  <Target Name>  (1) 
Tyrosine-protein kinase ABL1

>  <UniProt ID>  (1) 
P00519

>  <PDB ID.1>  (1) 
2GQG

>  <Seq. Identity>  (1) 
96%

$$$$
