PDB_DB00255_97
     RDKit          3D

 40 41  0  0  0  0  0  0  0  0999 V2000
    5.3970   -3.0840   -6.1700 C   0  0  0  0  0  0  0  0  0  0  0  0
    5.8180   -2.0660   -5.1530 C   0  0  0  0  0  0  0  0  0  0  0  0
    5.0590   -0.7450   -5.2310 C   0  0  0  0  0  0  0  0  0  0  0  0
    3.5590   -0.8980   -5.0640 C   0  0  0  0  0  0  0  0  0  0  0  0
    2.9720   -0.9970   -3.7920 C   0  0  0  0  0  0  0  0  0  0  0  0
    1.5760   -1.1710   -3.6570 C   0  0  0  0  0  0  0  0  0  0  0  0
    0.7810   -1.2440   -4.8000 C   0  0  0  0  0  0  0  0  0  0  0  0
   -0.5870   -1.4440   -4.7290 O   0  0  0  0  0  0  0  0  0  0  0  0
    1.3510   -1.1440   -6.0710 C   0  0  0  0  0  0  0  0  0  0  0  0
    2.7290   -0.9730   -6.1850 C   0  0  0  0  0  0  0  0  0  0  0  0
    5.6330    0.4260   -5.4430 C   0  0  0  0  0  0  0  0  0  0  0  0
    7.1080    0.5490   -5.8150 C   0  0  0  0  0  0  0  0  0  0  0  0
    7.5360    0.3040   -7.1250 C   0  0  0  0  0  0  0  0  0  0  0  0
    8.8860    0.4380   -7.4820 C   0  0  0  0  0  0  0  0  0  0  0  0
    9.8190    0.8170   -6.5220 C   0  0  0  0  0  0  0  0  0  0  0  0
   11.1610    0.9440   -6.8290 O   0  0  0  0  0  0  0  0  0  0  0  0
    9.4220    1.0690   -5.2040 C   0  0  0  0  0  0  0  0  0  0  0  0
    8.0630    0.9280   -4.8680 C   0  0  0  0  0  0  0  0  0  0  0  0
    4.8990    1.7680   -5.4010 C   0  0  0  0  0  0  0  0  0  0  0  0
    4.9700    2.4780   -4.0720 C   0  0  0  0  0  0  0  0  0  0  0  0
    5.0252   -3.9830   -5.6567 H   0  0  0  0  0  0  0  0  0  0  0  0
    4.5985   -2.6647   -6.7997 H   0  0  0  0  0  0  0  0  0  0  0  0
    6.2584   -3.3512   -6.7997 H   0  0  0  0  0  0  0  0  0  0  0  0
    5.6608   -2.4944   -4.1521 H   0  0  0  0  0  0  0  0  0  0  0  0
    6.8732   -1.8341   -5.3597 H   0  0  0  0  0  0  0  0  0  0  0  0
    3.6039   -0.9386   -2.8935 H   0  0  0  0  0  0  0  0  0  0  0  0
    1.1206   -1.2482   -2.6587 H   0  0  0  0  0  0  0  0  0  0  0  0
   -1.1241   -1.4912   -5.5593 H   0  0  0  0  0  0  0  0  0  0  0  0
    0.7202   -1.1995   -6.9704 H   0  0  0  0  0  0  0  0  0  0  0  0
    3.1763   -0.8948   -7.1869 H   0  0  0  0  0  0  0  0  0  0  0  0
    6.8021    0.0016   -7.8866 H   0  0  0  0  0  0  0  0  0  0  0  0
    9.2056    0.2442   -8.5166 H   0  0  0  0  0  0  0  0  0  0  0  0
   11.8056    1.2151   -6.1282 H   0  0  0  0  0  0  0  0  0  0  0  0
   10.1585    1.3716   -4.4450 H   0  0  0  0  0  0  0  0  0  0  0  0
    7.7441    1.1211   -3.8331 H   0  0  0  0  0  0  0  0  0  0  0  0
    5.3397    2.4248   -6.1655 H   0  0  0  0  0  0  0  0  0  0  0  0
    3.8364    1.5494   -5.5828 H   0  0  0  0  0  0  0  0  0  0  0  0
    4.8963    1.7414   -3.2584 H   0  0  0  0  0  0  0  0  0  0  0  0
    5.9264    3.0158   -3.9942 H   0  0  0  0  0  0  0  0  0  0  0  0
    4.1390    3.1945   -3.9942 H   0  0  0  0  0  0  0  0  0  0  0  0
  1  2  1  0
  2  3  1  0
  3  4  1  0
  4  5  2  0
  5  6  1  0
  6  7  2  0
  7  8  1  0
  7  9  1  0
  4 10  1  0
  9 10  2  0
  3 11  2  0
 11 12  1  0
 12 13  2  0
 13 14  1  0
 14 15  2  0
 15 16  1  0
 15 17  1  0
 12 18  1  0
 17 18  2  0
 11 19  1  0
 19 20  1  0
  1 21  1  0
  1 22  1  0
  1 23  1  0
  2 24  1  0
  2 25  1  0
  5 26  1  0
  6 27  1  0
  8 28  1  0
  9 29  1  0
 10 30  1  0
 13 31  1  0
 14 32  1  0
 16 33  1  0
 17 34  1  0
 18 35  1  0
 19 36  1  0
 19 37  1  0
 20 38  1  0
 20 39  1  0
 20 40  1  0
M  END
$$$$
