PDB_DB01045_96
     RDKit          3D

117121  0  0  0  0  0  0  0  0999 V2000
 -113.9000  -26.7340   -8.4290 C   0  0  0  0  0  0  0  0  0  0  0  0
 -112.7270  -26.2310   -7.8400 C   0  0  0  0  0  0  0  0  0  0  0  0
 -111.4950  -26.3410   -8.4660 C   0  0  0  0  0  0  0  0  0  0  0  0
 -111.3920  -26.9270   -9.7180 C   0  0  0  0  0  0  0  0  0  0  0  0
 -112.5660  -28.0540  -11.6360 C   0  0  0  0  0  0  0  0  0  0  0  0
 -113.7990  -28.5030  -12.1420 C   0  0  0  0  0  0  0  0  0  0  0  0
 -115.0130  -28.4310  -11.5590 C   0  0  0  0  0  0  0  0  0  0  0  0
 -115.0410  -27.8320  -10.2990 C   0  0  0  0  0  0  0  0  0  0  0  0
 -113.8080  -27.3420   -9.7070 C   0  0  0  0  0  0  0  0  0  0  0  0
 -112.5230  -27.4360  -10.3610 C   0  0  0  0  0  0  0  0  0  0  0  0
 -111.6700  -28.3960  -12.6620 C   0  0  0  0  0  0  0  0  0  0  0  0
 -112.1550  -29.1960  -13.6450 C   0  0  2  0  0  0  0  0  0  0  0  0
 -111.6960  -28.6470  -14.9610 C   0  0  0  0  0  0  0  0  0  0  0  0
 -116.2410  -28.9560  -12.2160 C   0  0  0  0  0  0  0  0  0  0  0  0
 -113.8380  -25.4940   -5.5810 C   0  0  0  0  0  0  0  0  0  0  0  0
 -113.5990  -24.8640   -4.2130 C   0  0  0  0  0  0  0  0  0  0  0  0
 -113.2450  -25.8050   -3.2260 C   0  0  0  0  0  0  0  0  0  0  0  0
 -112.9960  -27.2660   -3.6680 C   0  0  0  0  0  0  0  0  0  0  0  0
 -113.1910  -28.3580   -2.8090 C   0  0  0  0  0  0  0  0  0  0  0  0
 -112.1720  -29.4680   -2.8100 C   0  0  1  0  0  0  0  0  0  0  0  0
 -112.3900  -30.3410   -4.0130 C   0  0  1  0  0  0  0  0  0  0  0  0
 -111.4190  -31.4860   -4.0250 C   0  0  2  0  0  0  0  0  0  0  0  0
 -111.7090  -32.4150   -5.1730 C   0  0  2  0  0  0  0  0  0  0  0  0
 -110.9710  -31.9290   -6.3710 C   0  0  2  0  0  0  0  0  0  0  0  0
 -111.5120  -32.5180   -7.6580 C   0  0  1  0  0  0  0  0  0  0  0  0
 -111.3940  -31.5690   -8.7980 C   0  0  1  0  0  0  0  0  0  0  0  0
 -111.5700  -32.3460  -10.0710 C   0  0  2  0  0  0  0  0  0  0  0  0
 -111.2650  -31.4900  -11.2700 C   0  0  0  0  0  0  0  0  0  0  0  0
 -112.1490  -31.2630  -12.3280 C   0  0  0  0  0  0  0  0  0  0  0  0
 -113.0790  -23.4370   -4.1910 C   0  0  0  0  0  0  0  0  0  0  0  0
 -110.8130  -28.8750   -2.8250 C   0  0  0  0  0  0  0  0  0  0  0  0
 -111.4300  -32.2840   -2.7520 C   0  0  0  0  0  0  0  0  0  0  0  0
 -109.5310  -32.3080   -6.1970 C   0  0  0  0  0  0  0  0  0  0  0  0
 -112.4310  -30.4910   -8.7480 C   0  0  0  0  0  0  0  0  0  0  0  0
 -111.0540  -34.8620   -7.6400 C   0  0  0  0  0  0  0  0  0  0  0  0
 -110.4180  -35.9960   -8.3560 C   0  0  0  0  0  0  0  0  0  0  0  0
 -113.1140  -34.0890  -10.5120 C   0  0  0  0  0  0  0  0  0  0  0  0
 -105.0860  -26.4290   -3.6170 C   0  0  0  0  0  0  0  0  0  0  0  0
 -106.6490  -27.4650   -5.2720 C   0  0  0  0  0  0  0  0  0  0  0  0
 -107.5510  -27.1960   -6.4450 C   0  0  0  0  0  0  0  0  0  0  0  0
 -108.1700  -25.0030   -5.4300 C   0  0  0  0  0  0  0  0  0  0  0  0
 -107.2600  -25.3490   -4.2560 C   0  0  0  0  0  0  0  0  0  0  0  0
 -110.2410  -25.8370   -7.7380 C   0  0  0  0  0  0  0  0  0  0  0  0
 -112.6790  -25.6080   -6.5100 N   0  0  0  0  0  0  0  0  0  0  0  0
 -109.5930  -26.6870   -6.9380 N   0  0  0  0  0  0  0  0  0  0  0  0
 -108.5440  -26.2120   -6.1340 N   0  0  0  0  0  0  0  0  0  0  0  0
 -106.1950  -26.2730   -4.5940 N   0  0  0  0  0  0  0  0  0  0  0  0
 -115.1130  -26.6630   -7.8590 O   0  0  0  0  0  0  0  0  0  0  0  0
 -116.2410  -27.7130   -9.6200 O   0  0  0  0  0  0  0  0  0  0  0  0
 -113.5610  -29.1390  -13.5470 O   0  0  0  0  0  0  0  0  0  0  0  0
 -110.5120  -28.0040  -12.6740 O   0  0  0  0  0  0  0  0  0  0  0  0
 -111.7130  -30.5170  -13.4350 O   0  0  0  0  0  0  0  0  0  0  0  0
 -112.8660  -32.7830  -10.1120 O   0  0  0  0  0  0  0  0  0  0  0  0
 -110.7080  -33.5720   -8.0020 O   0  0  0  0  0  0  0  0  0  0  0  0
 -112.0400  -35.0280   -6.9460 O   0  0  0  0  0  0  0  0  0  0  0  0
 -113.0750  -32.4980   -5.3890 O   0  0  0  0  0  0  0  0  0  0  0  0
 -113.7030  -30.7840   -4.0570 O   0  0  0  0  0  0  0  0  0  0  0  0
 -114.9550  -25.9130   -5.8640 O   0  0  0  0  0  0  0  0  0  0  0  0
 -110.1740  -27.0010  -10.3070 O   0  0  0  0  0  0  0  0  0  0  0  0
 -110.9992  -27.8136  -14.7877 H   0  0  0  0  0  0  0  0  0  0  0  0
 -111.1868  -29.4382  -15.5308 H   0  0  0  0  0  0  0  0  0  0  0  0
 -112.5649  -28.2860  -15.5308 H   0  0  0  0  0  0  0  0  0  0  0  0
 -116.9645  -29.2653  -11.4473 H   0  0  0  0  0  0  0  0  0  0  0  0
 -116.6861  -28.1695  -12.8431 H   0  0  0  0  0  0  0  0  0  0  0  0
 -115.9800  -29.8212  -12.8431 H   0  0  0  0  0  0  0  0  0  0  0  0
 -113.1485  -25.5090   -2.1710 H   0  0  0  0  0  0  0  0  0  0  0  0
 -112.6527  -27.4563   -4.6956 H   0  0  0  0  0  0  0  0  0  0  0  0
 -114.0695  -28.4029   -2.1485 H   0  0  0  0  0  0  0  0  0  0  0  0
 -112.2780  -30.0871   -1.9070 H   0  0  0  0  0  0  0  0  0  0  0  0
 -112.2053  -29.7447   -4.9187 H   0  0  0  0  0  0  0  0  0  0  0  0
 -110.4229  -31.0322   -4.1338 H   0  0  0  0  0  0  0  0  0  0  0  0
 -111.3657  -33.4348   -4.9447 H   0  0  0  0  0  0  0  0  0  0  0  0
 -111.0924  -30.8387   -6.4515 H   0  0  0  0  0  0  0  0  0  0  0  0
 -112.5656  -32.7825   -7.4851 H   0  0  0  0  0  0  0  0  0  0  0  0
 -110.4070  -31.0864   -8.7446 H   0  0  0  0  0  0  0  0  0  0  0  0
 -110.8738  -33.1973  -10.0940 H   0  0  0  0  0  0  0  0  0  0  0  0
 -110.2768  -31.0091  -11.3171 H   0  0  0  0  0  0  0  0  0  0  0  0
 -113.1730  -31.6634  -12.2942 H   0  0  0  0  0  0  0  0  0  0  0  0
 -112.9586  -23.1066   -3.1487 H   0  0  0  0  0  0  0  0  0  0  0  0
 -112.1070  -23.3930   -4.7042 H   0  0  0  0  0  0  0  0  0  0  0  0
 -113.7948  -22.7780   -4.7042 H   0  0  0  0  0  0  0  0  0  0  0  0
 -110.4673  -28.7242   -1.7917 H   0  0  0  0  0  0  0  0  0  0  0  0
 -110.1226  -29.5537   -3.3472 H   0  0  0  0  0  0  0  0  0  0  0  0
 -110.8410  -27.9073   -3.3472 H   0  0  0  0  0  0  0  0  0  0  0  0
 -111.4206  -31.6001   -1.8905 H   0  0  0  0  0  0  0  0  0  0  0  0
 -112.3368  -32.9057   -2.7168 H   0  0  0  0  0  0  0  0  0  0  0  0
 -110.5407  -32.9304   -2.7168 H   0  0  0  0  0  0  0  0  0  0  0  0
 -109.2952  -32.3701   -5.1244 H   0  0  0  0  0  0  0  0  0  0  0  0
 -109.3492  -33.2846   -6.6695 H   0  0  0  0  0  0  0  0  0  0  0  0
 -108.8920  -31.5474   -6.6695 H   0  0  0  0  0  0  0  0  0  0  0  0
 -112.6610  -30.2519   -7.6992 H   0  0  0  0  0  0  0  0  0  0  0  0
 -112.0498  -29.5918   -9.2540 H   0  0  0  0  0  0  0  0  0  0  0  0
 -113.3443  -30.8371   -9.2540 H   0  0  0  0  0  0  0  0  0  0  0  0
 -110.0162  -36.7125   -7.6244 H   0  0  0  0  0  0  0  0  0  0  0  0
 -111.1666  -36.4973   -8.9871 H   0  0  0  0  0  0  0  0  0  0  0  0
 -109.5999  -35.6186   -8.9871 H   0  0  0  0  0  0  0  0  0  0  0  0
 -113.2353  -34.7275   -9.6245 H   0  0  0  0  0  0  0  0  0  0  0  0
 -114.0340  -34.1196  -11.1142 H   0  0  0  0  0  0  0  0  0  0  0  0
 -112.2693  -34.4547  -11.1142 H   0  0  0  0  0  0  0  0  0  0  0  0
 -105.4875  -26.3725   -2.5945 H   0  0  0  0  0  0  0  0  0  0  0  0
 -104.5999  -27.4044   -3.7667 H   0  0  0  0  0  0  0  0  0  0  0  0
 -104.3497  -25.6256   -3.7667 H   0  0  0  0  0  0  0  0  0  0  0  0
 -107.1979  -28.0863   -4.5490 H   0  0  0  0  0  0  0  0  0  0  0  0
 -105.7535  -27.9664   -5.6678 H   0  0  0  0  0  0  0  0  0  0  0  0
 -106.9426  -26.8349   -7.2873 H   0  0  0  0  0  0  0  0  0  0  0  0
 -108.0657  -28.1330   -6.7042 H   0  0  0  0  0  0  0  0  0  0  0  0
 -109.0757  -24.5037   -5.0552 H   0  0  0  0  0  0  0  0  0  0  0  0
 -107.6351  -24.3325   -6.1187 H   0  0  0  0  0  0  0  0  0  0  0  0
 -106.8067  -24.4189   -3.8826 H   0  0  0  0  0  0  0  0  0  0  0  0
 -107.8866  -25.8448   -3.5000 H   0  0  0  0  0  0  0  0  0  0  0  0
 -109.8863  -24.8044   -7.8717 H   0  0  0  0  0  0  0  0  0  0  0  0
 -111.7771  -25.2215   -6.1968 H   0  0  0  0  0  0  0  0  0  0  0  0
 -115.9020  -27.0368   -8.3259 H   0  0  0  0  0  0  0  0  0  0  0  0
 -116.2639  -27.2885   -8.7259 H   0  0  0  0  0  0  0  0  0  0  0  0
 -113.5456  -32.5266   -4.5185 H   0  0  0  0  0  0  0  0  0  0  0  0
 -114.0436  -30.8989   -3.1346 H   0  0  0  0  0  0  0  0  0  0  0  0
 -110.0809  -27.4160  -11.2010 H   0  0  0  0  0  0  0  0  0  0  0  0
  1  2  1  0
  2  3  2  0
  3  4  1  0
  5  6  2  0
  6  7  1  0
  7  8  2  0
  1  9  2  0
  8  9  1  0
  4 10  2  0
  5 10  1  0
  9 10  1  0
  5 11  1  0
 11 12  1  0
 12 13  1  6
  7 14  1  0
 15 16  1  0
 16 17  2  0
 17 18  1  0
 18 19  2  0
 19 20  1  0
 20 21  1  0
 21 22  1  0
 22 23  1  0
 23 24  1  0
 24 25  1  0
 25 26  1  0
 26 27  1  0
 27 28  1  0
 28 29  2  0
 16 30  1  0
 20 31  1  0
 22 32  1  0
 24 33  1  0
 26 34  1  0
 35 36  1  0
 39 40  1  0
 41 42  1  0
  3 43  1  0
  2 44  1  0
 15 44  1  0
 43 45  2  0
 40 46  1  0
 41 46  1  0
 45 46  1  0
 38 47  1  0
 39 47  1  0
 42 47  1  0
  1 48  1  0
  8 49  1  0
  6 50  1  0
 12 50  1  0
 11 51  2  0
 12 52  1  0
 29 52  1  0
 27 53  1  0
 37 53  1  0
 25 54  1  0
 35 54  1  0
 35 55  2  0
 23 56  1  0
 21 57  1  0
 15 58  2  0
  4 59  1  0
 13 60  1  0
 13 61  1  0
 13 62  1  0
 14 63  1  0
 14 64  1  0
 14 65  1  0
 17 66  1  0
 18 67  1  0
 19 68  1  0
 20 69  1  1
 21 70  1  6
 22 71  1  6
 23 72  1  1
 24 73  1  6
 25 74  1  1
 26 75  1  6
 27 76  1  1
 28 77  1  0
 29 78  1  0
 30 79  1  0
 30 80  1  0
 30 81  1  0
 31 82  1  0
 31 83  1  0
 31 84  1  0
 32 85  1  0
 32 86  1  0
 32 87  1  0
 33 88  1  0
 33 89  1  0
 33 90  1  0
 34 91  1  0
 34 92  1  0
 34 93  1  0
 36 94  1  0
 36 95  1  0
 36 96  1  0
 37 97  1  0
 37 98  1  0
 37 99  1  0
 38100  1  0
 38101  1  0
 38102  1  0
 39103  1  0
 39104  1  0
 40105  1  0
 40106  1  0
 41107  1  0
 41108  1  0
 42109  1  0
 42110  1  0
 43111  1  0
 44112  1  0
 48113  1  0
 49114  1  0
 56115  1  0
 57116  1  0
 59117  1  0
M  END
>  <PDBID>  (1) 
5UAL

>  <PDB ID>  (1) 
5UAL

>  <Generic Name>  (1) 
Rifampicin

>  <Brand Name>  (1) 
Isonarif#Rifadin#Rifadin Cap 300mg#Rifadin IV#Rifadin IV Novaplus#Rifamate#Rifampin#Rifater#Rofact 150mg#Rofact 300mg#Rifadine#Rifaldin#Rifoldin#Rimactan#Rimactane#Rofact#Tubocin

>  <DrugBank ID>  (1) 
DB01045

>  <ATC Codes>  (1) 
J04AM02#J04AB02#J04AM06#J04AM05

>  <Ligand ID>  (1) 
RFP

>  <Target Name>  (1) 
DNA-directed RNA polymerase subunit beta

>  <UniProt ID>  (1) 
P0A8V2

>  <PDB ID.1>  (1) 
5UAL

>  <Seq. Identity>  (1) 
100%

$$$$
