PDB_DB00939_99
     RDKit          3D

 30 31  0  0  0  0  0  0  0  0999 V2000
   24.4690   51.2050   19.4480 O   0  0  0  0  0  0  0  0  0  0  0  0
   24.6620   50.2090   18.7060 C   0  0  0  0  0  0  0  0  0  0  0  0
   25.7640   49.6090   18.7460 O   0  0  0  0  0  0  0  0  0  0  0  0
   23.5580   49.7270   17.7890 C   0  0  0  0  0  0  0  0  0  0  0  0
   23.5870   48.4180   17.3250 C   0  0  0  0  0  0  0  0  0  0  0  0
   22.5810   47.9590   16.4950 C   0  0  0  0  0  0  0  0  0  0  0  0
   21.5460   48.8070   16.1330 C   0  0  0  0  0  0  0  0  0  0  0  0
   21.5110   50.1100   16.6080 C   0  0  0  0  0  0  0  0  0  0  0  0
   22.5200   50.5840   17.4320 C   0  0  0  0  0  0  0  0  0  0  0  0
   22.5320   51.9220   17.9300 N   0  0  0  0  0  0  0  0  0  0  0  0
   21.5270   52.8970   17.6430 C   0  0  0  0  0  0  0  0  0  0  0  0
   20.9090   53.4980   18.7310 C   0  0  0  0  0  0  0  0  0  0  0  0
   21.3570   53.0340   20.3470 Cl  0  0  0  0  0  0  0  0  0  0  0  0
   19.9340   54.4630   18.5550 C   0  0  0  0  0  0  0  0  0  0  0  0
   19.2710   55.0890   19.7640 C   0  0  0  0  0  0  0  0  0  0  0  0
   19.5690   54.8470   17.2770 C   0  0  0  0  0  0  0  0  0  0  0  0
   20.1840   54.2640   16.1820 C   0  0  0  0  0  0  0  0  0  0  0  0
   21.1640   53.2990   16.3540 C   0  0  0  0  0  0  0  0  0  0  0  0
   21.8940   52.6170   14.9230 Cl  0  0  0  0  0  0  0  0  0  0  0  0
   23.6019   51.6820   19.4207 H   0  0  0  0  0  0  0  0  0  0  0  0
   24.4088   47.7478   17.6174 H   0  0  0  0  0  0  0  0  0  0  0  0
   22.6019   46.9240   16.1231 H   0  0  0  0  0  0  0  0  0  0  0  0
   20.7492   48.4454   15.4664 H   0  0  0  0  0  0  0  0  0  0  0  0
   20.6773   50.7712   16.3290 H   0  0  0  0  0  0  0  0  0  0  0  0
   23.3162   52.2031   18.5357 H   0  0  0  0  0  0  0  0  0  0  0  0
   19.7125   54.6721   20.6812 H   0  0  0  0  0  0  0  0  0  0  0  0
   19.4260   56.1778   19.7445 H   0  0  0  0  0  0  0  0  0  0  0  0
   18.1928   54.8718   19.7445 H   0  0  0  0  0  0  0  0  0  0  0  0
   18.7929   55.6128   17.1313 H   0  0  0  0  0  0  0  0  0  0  0  0
   19.8922   54.5694   15.1663 H   0  0  0  0  0  0  0  0  0  0  0  0
  1  2  1  0
  2  3  2  0
  2  4  1  0
  4  5  2  0
  5  6  1  0
  6  7  2  0
  7  8  1  0
  4  9  1  0
  8  9  2  0
  9 10  1  0
 10 11  1  0
 11 12  2  0
 12 13  1  0
 12 14  1  0
 14 15  1  0
 14 16  2  0
 16 17  1  0
 11 18  1  0
 17 18  2  0
 18 19  1  0
  1 20  1  0
  5 21  1  0
  6 22  1  0
  7 23  1  0
  8 24  1  0
 10 25  1  0
 15 26  1  0
 15 27  1  0
 15 28  1  0
 16 29  1  0
 17 30  1  0
M  END
$$$$
