PDB_DB01254_95
     RDKit          3D

154160  0  0  0  0  0  0  0  0999 V2000
    9.9110  -34.5910   -7.6500 C   0  0  0  0  0  0  0  0  0  0  0  0
    8.9290  -35.4990   -7.5180 C   0  0  0  0  0  0  0  0  0  0  0  0
    7.5370  -35.4460   -8.1130 C   0  0  0  0  0  0  0  0  0  0  0  0
   16.0090  -40.9680   -1.1720 N   0  0  0  0  0  0  0  0  0  0  0  0
    3.6930  -33.9750  -10.9020 C   0  0  0  0  0  0  0  0  0  0  0  0
    4.7380  -34.6550  -11.5210 C   0  0  0  0  0  0  0  0  0  0  0  0
    5.9650  -34.8150  -10.8620 C   0  0  0  0  0  0  0  0  0  0  0  0
    7.1090  -35.5640  -11.5460 C   0  0  0  0  0  0  0  0  0  0  0  0
   11.9270  -37.7550   -4.9170 C   0  0  0  0  0  0  0  0  0  0  0  0
   13.0770  -38.2590   -4.3130 C   0  0  0  0  0  0  0  0  0  0  0  0
   12.9830  -39.4650   -3.6100 C   0  0  0  0  0  0  0  0  0  0  0  0
   10.6870  -39.5920   -4.1380 C   0  0  0  0  0  0  0  0  0  0  0  0
    9.3330  -40.3100   -4.0690 C   0  0  0  0  0  0  0  0  0  0  0  0
   13.9150  -41.4000   -2.3550 C   0  0  0  0  0  0  0  0  0  0  0  0
   15.4460  -39.4700   -3.0310 C   0  0  0  0  0  0  0  0  0  0  0  0
   16.6880  -41.1420    0.1340 C   0  0  0  0  0  0  0  0  0  0  0  0
   17.8060  -40.1020    0.3260 C   0  0  0  0  0  0  0  0  0  0  0  0
   11.9790  -36.6150   -5.6180 N   0  0  0  0  0  0  0  0  0  0  0  0
   10.9800  -36.0970   -6.3430 C   0  0  0  0  0  0  0  0  0  0  0  0
   11.0500  -34.9160   -7.0010 N   0  0  0  0  0  0  0  0  0  0  0  0
    9.4330  -36.7750   -6.5720 S   0  0  0  0  0  0  0  0  0  0  0  0
    7.3370  -34.4350   -8.9510 N   0  0  0  0  0  0  0  0  0  0  0  0
    6.1460  -34.2900   -9.5680 C   0  0  0  0  0  0  0  0  0  0  0  0
    5.0940  -33.6140   -8.9560 C   0  0  0  0  0  0  0  0  0  0  0  0
    3.8720  -33.4530   -9.6120 C   0  0  0  0  0  0  0  0  0  0  0  0
    5.3110  -32.9740   -7.3620 Cl  0  0  0  0  0  0  0  0  0  0  0  0
    6.6830  -36.2660   -7.7790 O   0  0  0  0  0  0  0  0  0  0  0  0
   11.7900  -40.1060   -3.5480 N   0  0  0  0  0  0  0  0  0  0  0  0
   10.7680  -38.4320   -4.8090 N   0  0  0  0  0  0  0  0  0  0  0  0
   14.0990  -40.0550   -2.9710 N   0  0  0  0  0  0  0  0  0  0  0  0
   14.6460  -41.4910   -1.0330 C   0  0  0  0  0  0  0  0  0  0  0  0
   16.0950  -39.5780   -1.6590 C   0  0  0  0  0  0  0  0  0  0  0  0
   18.4360  -40.3220    1.6100 O   0  0  0  0  0  0  0  0  0  0  0  0
    3.6880  -66.1270   32.4970 C   0  0  0  0  0  0  0  0  0  0  0  0
    4.6130  -67.1010   32.4670 C   0  0  0  0  0  0  0  0  0  0  0  0
    6.0190  -67.0590   33.0330 C   0  0  0  0  0  0  0  0  0  0  0  0
   -2.5880  -72.7740   26.5430 N   0  0  0  0  0  0  0  0  0  0  0  0
   10.0030  -65.7190   35.6650 C   0  0  0  0  0  0  0  0  0  0  0  0
    9.0050  -66.4570   36.2960 C   0  0  0  0  0  0  0  0  0  0  0  0
    7.7390  -66.5840   35.7050 C   0  0  0  0  0  0  0  0  0  0  0  0
    6.6490  -67.3960   36.4030 C   0  0  0  0  0  0  0  0  0  0  0  0
    1.5040  -69.3690   30.0480 C   0  0  0  0  0  0  0  0  0  0  0  0
    0.3420  -69.9380   29.5400 C   0  0  0  0  0  0  0  0  0  0  0  0
    0.4580  -71.1270   28.8080 C   0  0  0  0  0  0  0  0  0  0  0  0
    2.7850  -71.1160   29.1240 C   0  0  0  0  0  0  0  0  0  0  0  0
    4.1670  -71.7480   28.9220 C   0  0  0  0  0  0  0  0  0  0  0  0
   -0.3950  -73.0900   27.5670 C   0  0  0  0  0  0  0  0  0  0  0  0
   -2.0460  -71.3650   28.4800 C   0  0  0  0  0  0  0  0  0  0  0  0
   -3.3570  -73.0550   25.3010 C   0  0  0  0  0  0  0  0  0  0  0  0
   -4.3020  -71.9570   24.7760 C   0  0  0  0  0  0  0  0  0  0  0  0
    1.4610  -68.2360   30.7610 N   0  0  0  0  0  0  0  0  0  0  0  0
    2.5070  -67.7080   31.4040 C   0  0  0  0  0  0  0  0  0  0  0  0
    2.5180  -66.4550   31.9080 N   0  0  0  0  0  0  0  0  0  0  0  0
    4.0160  -68.4590   31.6940 S   0  0  0  0  0  0  0  0  0  0  0  0
    6.2550  -66.0730   33.8950 N   0  0  0  0  0  0  0  0  0  0  0  0
    7.4710  -65.9620   34.4690 C   0  0  0  0  0  0  0  0  0  0  0  0
    8.4710  -65.2290   33.8470 C   0  0  0  0  0  0  0  0  0  0  0  0
    9.7330  -65.0990   34.4340 C   0  0  0  0  0  0  0  0  0  0  0  0
    8.1100  -64.4880   32.3240 Cl  0  0  0  0  0  0  0  0  0  0  0  0
    6.8470  -67.8960   32.6700 O   0  0  0  0  0  0  0  0  0  0  0  0
    1.6760  -71.6880   28.6230 N   0  0  0  0  0  0  0  0  0  0  0  0
    2.6830  -69.9730   29.8210 N   0  0  0  0  0  0  0  0  0  0  0  0
   -0.6580  -71.8030   28.2660 N   0  0  0  0  0  0  0  0  0  0  0  0
   -1.1890  -73.1410   26.2810 C   0  0  0  0  0  0  0  0  0  0  0  0
   -2.8060  -71.4520   27.1630 C   0  0  0  0  0  0  0  0  0  0  0  0
   -3.7110  -70.6370   24.8480 O   0  0  0  0  0  0  0  0  0  0  0  0
   10.1412  -34.4835   -8.7202 H   0  0  0  0  0  0  0  0  0  0  0  0
    9.5436  -33.6569   -7.2001 H   0  0  0  0  0  0  0  0  0  0  0  0
    8.5656  -34.9757   -6.6213 H   0  0  0  0  0  0  0  0  0  0  0  0
    7.2026  -34.8173   -7.2746 H   0  0  0  0  0  0  0  0  0  0  0  0
    3.4313  -33.1294  -11.5550 H   0  0  0  0  0  0  0  0  0  0  0  0
    2.9288  -34.7534  -10.7601 H   0  0  0  0  0  0  0  0  0  0  0  0
    4.3671  -35.6652  -11.7487 H   0  0  0  0  0  0  0  0  0  0  0  0
    4.9929  -34.0029  -12.3694 H   0  0  0  0  0  0  0  0  0  0  0  0
    5.6075  -35.7594  -10.4257 H   0  0  0  0  0  0  0  0  0  0  0  0
    7.7715  -35.9978  -10.7825 H   0  0  0  0  0  0  0  0  0  0  0  0
    6.6973  -36.3680  -12.1738 H   0  0  0  0  0  0  0  0  0  0  0  0
    7.6812  -34.8651  -12.1738 H   0  0  0  0  0  0  0  0  0  0  0  0
   11.6984  -37.1838   -4.0051 H   0  0  0  0  0  0  0  0  0  0  0  0
   13.8255  -38.4020   -5.1063 H   0  0  0  0  0  0  0  0  0  0  0  0
   13.3275  -37.5147   -3.5428 H   0  0  0  0  0  0  0  0  0  0  0  0
   12.7330  -38.9111   -2.6931 H   0  0  0  0  0  0  0  0  0  0  0  0
   10.4457  -39.0480   -3.2129 H   0  0  0  0  0  0  0  0  0  0  0  0
    9.0506  -40.4598   -3.0165 H   0  0  0  0  0  0  0  0  0  0  0  0
    8.5680  -39.6990   -4.5705 H   0  0  0  0  0  0  0  0  0  0  0  0
    9.4096  -41.2860   -4.5705 H   0  0  0  0  0  0  0  0  0  0  0  0
   12.8423  -41.5757   -2.1866 H   0  0  0  0  0  0  0  0  0  0  0  0
   14.3252  -42.1591   -3.0373 H   0  0  0  0  0  0  0  0  0  0  0  0
   16.0522  -40.0151   -3.7696 H   0  0  0  0  0  0  0  0  0  0  0  0
   15.3790  -38.4130   -3.3281 H   0  0  0  0  0  0  0  0  0  0  0  0
   15.9488  -41.0264    0.9404 H   0  0  0  0  0  0  0  0  0  0  0  0
   17.1387  -42.1451    0.1600 H   0  0  0  0  0  0  0  0  0  0  0  0
   18.5524  -40.2102   -0.4748 H   0  0  0  0  0  0  0  0  0  0  0  0
   17.3818  -39.0878    0.2881 H   0  0  0  0  0  0  0  0  0  0  0  0
   12.2230  -35.8860   -4.9325 H   0  0  0  0  0  0  0  0  0  0  0  0
   10.6017  -35.5773   -5.4504 H   0  0  0  0  0  0  0  0  0  0  0  0
   11.8132  -34.9720   -7.6905 H   0  0  0  0  0  0  0  0  0  0  0  0
    7.5011  -33.5700   -8.4164 H   0  0  0  0  0  0  0  0  0  0  0  0
    5.8054  -35.2417   -9.1342 H   0  0  0  0  0  0  0  0  0  0  0  0
    5.4507  -32.6675   -9.3883 H   0  0  0  0  0  0  0  0  0  0  0  0
    3.6882  -32.3706   -9.6794 H   0  0  0  0  0  0  0  0  0  0  0  0
    3.1772  -34.0475   -9.0006 H   0  0  0  0  0  0  0  0  0  0  0  0
    6.6367  -36.3104   -6.7911 H   0  0  0  0  0  0  0  0  0  0  0  0
   11.9367  -41.0367   -3.9640 H   0  0  0  0  0  0  0  0  0  0  0  0
   10.0989  -37.7905   -4.3598 H   0  0  0  0  0  0  0  0  0  0  0  0
   14.6910  -42.5428   -0.7141 H   0  0  0  0  0  0  0  0  0  0  0  0
   14.1069  -40.8943   -0.2825 H   0  0  0  0  0  0  0  0  0  0  0  0
   15.5741  -38.9119   -0.9554 H   0  0  0  0  0  0  0  0  0  0  0  0
   17.1526  -39.2849   -1.7340 H   0  0  0  0  0  0  0  0  0  0  0  0
   17.7978  -40.0991    2.3332 H   0  0  0  0  0  0  0  0  0  0  0  0
    3.4860  -65.8757   33.5487 H   0  0  0  0  0  0  0  0  0  0  0  0
    4.1016  -65.2814   31.9279 H   0  0  0  0  0  0  0  0  0  0  0  0
    4.9878  -66.7155   31.5074 H   0  0  0  0  0  0  0  0  0  0  0  0
    6.3336  -66.4089   32.2033 H   0  0  0  0  0  0  0  0  0  0  0  0
   10.3034  -64.9245   36.3640 H   0  0  0  0  0  0  0  0  0  0  0  0
   10.7613  -66.4746   35.4120 H   0  0  0  0  0  0  0  0  0  0  0  0
    9.3982  -67.4764   36.4237 H   0  0  0  0  0  0  0  0  0  0  0  0
    8.7991  -65.8730   37.2051 H   0  0  0  0  0  0  0  0  0  0  0  0
    8.0758  -67.4890   35.1781 H   0  0  0  0  0  0  0  0  0  0  0  0
    6.7674  -67.3078   37.4931 H   0  0  0  0  0  0  0  0  0  0  0  0
    5.6609  -67.0121   36.1092 H   0  0  0  0  0  0  0  0  0  0  0  0
    6.7340  -68.4526   36.1092 H   0  0  0  0  0  0  0  0  0  0  0  0
    1.6210  -68.7833   29.1243 H   0  0  0  0  0  0  0  0  0  0  0  0
   -0.3222  -70.1422   30.3927 H   0  0  0  0  0  0  0  0  0  0  0  0
   -0.0290  -69.2018   28.8117 H   0  0  0  0  0  0  0  0  0  0  0  0
    0.5855  -70.5452   27.8832 H   0  0  0  0  0  0  0  0  0  0  0  0
    2.9105  -70.5439   28.1929 H   0  0  0  0  0  0  0  0  0  0  0  0
    4.6218  -71.9560   29.9017 H   0  0  0  0  0  0  0  0  0  0  0  0
    4.0619  -72.6875   28.3597 H   0  0  0  0  0  0  0  0  0  0  0  0
    4.8089  -71.0540   28.3597 H   0  0  0  0  0  0  0  0  0  0  0  0
    0.6780  -73.1695   27.3380 H   0  0  0  0  0  0  0  0  0  0  0  0
   -0.6964  -73.9259   28.2155 H   0  0  0  0  0  0  0  0  0  0  0  0
   -2.5264  -72.0153   29.2259 H   0  0  0  0  0  0  0  0  0  0  0  0
   -2.0545  -70.3271   28.8443 H   0  0  0  0  0  0  0  0  0  0  0  0
   -2.6281  -73.2683   24.5052 H   0  0  0  0  0  0  0  0  0  0  0  0
   -4.0233  -73.8876   25.5707 H   0  0  0  0  0  0  0  0  0  0  0  0
   -4.5493  -72.1762   23.7268 H   0  0  0  0  0  0  0  0  0  0  0  0
   -5.2001  -71.9566   25.4111 H   0  0  0  0  0  0  0  0  0  0  0  0
    1.1420  -67.5080   30.1059 H   0  0  0  0  0  0  0  0  0  0  0  0
    2.9014  -67.3278   30.4501 H   0  0  0  0  0  0  0  0  0  0  0  0
    1.7664  -66.3775   32.6080 H   0  0  0  0  0  0  0  0  0  0  0  0
    6.0798  -65.1903   33.3940 H   0  0  0  0  0  0  0  0  0  0  0  0
    7.8029  -66.8681   33.9410 H   0  0  0  0  0  0  0  0  0  0  0  0
    8.1335  -64.3232   34.3719 H   0  0  0  0  0  0  0  0  0  0  0  0
    9.9076  -64.0223   34.5759 H   0  0  0  0  0  0  0  0  0  0  0  0
   10.3934  -65.6309   33.7333 H   0  0  0  0  0  0  0  0  0  0  0  0
    7.2622  -68.3157   33.4647 H   0  0  0  0  0  0  0  0  0  0  0  0
    1.6268  -72.6345   29.0263 H   0  0  0  0  0  0  0  0  0  0  0  0
    3.2673  -69.2835   29.3270 H   0  0  0  0  0  0  0  0  0  0  0  0
   -1.1502  -74.1599   25.8683 H   0  0  0  0  0  0  0  0  0  0  0  0
   -0.7570  -72.4315   25.5598 H   0  0  0  0  0  0  0  0  0  0  0  0
   -2.4469  -70.6662   26.4821 H   0  0  0  0  0  0  0  0  0  0  0  0
   -3.8804  -71.3151   27.3553 H   0  0  0  0  0  0  0  0  0  0  0  0
   -3.5953  -70.3785   25.7966 H   0  0  0  0  0  0  0  0  0  0  0  0
  1  2  1  0
  2  3  1  0
  5  6  1  0
  6  7  1  0
  7  8  1  0
  9 10  1  0
 10 11  1  0
 12 13  1  0
  4 16  1  0
 16 17  1  0
  9 18  1  0
 18 19  1  0
  1 20  1  0
 19 20  1  0
  2 21  1  0
 19 21  1  0
  3 22  1  0
  7 23  1  0
 22 23  1  0
 23 24  1  0
  5 25  1  0
 24 25  1  0
 24 26  1  0
  3 27  1  0
 11 28  1  0
 12 28  1  0
  9 29  1  0
 12 29  1  0
 11 30  1  0
 14 30  1  0
 15 30  1  0
  4 31  1  0
 14 31  1  0
  4 32  1  0
 15 32  1  0
 17 33  1  0
 34 35  1  0
 35 36  1  0
 38 39  1  0
 39 40  1  0
 40 41  1  0
 42 43  1  0
 43 44  1  0
 45 46  1  0
 37 49  1  0
 49 50  1  0
 42 51  1  0
 51 52  1  0
 34 53  1  0
 52 53  1  0
 35 54  1  0
 52 54  1  0
 36 55  1  0
 40 56  1  0
 55 56  1  0
 56 57  1  0
 38 58  1  0
 57 58  1  0
 57 59  1  0
 36 60  1  0
 44 61  1  0
 45 61  1  0
 42 62  1  0
 45 62  1  0
 44 63  1  0
 47 63  1  0
 48 63  1  0
 37 64  1  0
 47 64  1  0
 37 65  1  0
 48 65  1  0
 50 66  1  0
  1 67  1  0
  1 68  1  0
  2 69  1  0
  3 70  1  0
  5 71  1  0
  5 72  1  0
  6 73  1  0
  6 74  1  0
  7 75  1  0
  8 76  1  0
  8 77  1  0
  8 78  1  0
  9 79  1  0
 10 80  1  0
 10 81  1  0
 11 82  1  0
 12 83  1  0
 13 84  1  0
 13 85  1  0
 13 86  1  0
 14 87  1  0
 14 88  1  0
 15 89  1  0
 15 90  1  0
 16 91  1  0
 16 92  1  0
 17 93  1  0
 17 94  1  0
 18 95  1  0
 19 96  1  0
 20 97  1  0
 22 98  1  0
 23 99  1  0
 24100  1  0
 25101  1  0
 25102  1  0
 27103  1  0
 28104  1  0
 29105  1  0
 31106  1  0
 31107  1  0
 32108  1  0
 32109  1  0
 33110  1  0
 34111  1  0
 34112  1  0
 35113  1  0
 36114  1  0
 38115  1  0
 38116  1  0
 39117  1  0
 39118  1  0
 40119  1  0
 41120  1  0
 41121  1  0
 41122  1  0
 42123  1  0
 43124  1  0
 43125  1  0
 44126  1  0
 45127  1  0
 46128  1  0
 46129  1  0
 46130  1  0
 47131  1  0
 47132  1  0
 48133  1  0
 48134  1  0
 49135  1  0
 49136  1  0
 50137  1  0
 50138  1  0
 51139  1  0
 52140  1  0
 53141  1  0
 55142  1  0
 56143  1  0
 57144  1  0
 58145  1  0
 58146  1  0
 60147  1  0
 61148  1  0
 62149  1  0
 64150  1  0
 64151  1  0
 65152  1  0
 65153  1  0
 66154  1  0
M  END
>  <PDBID>  (1) 
3QLG

>  <PDB ID>  (1) 
3QLG

>  <Generic Name>  (1) 
Dasatinib

>  <Brand Name>  (1) 
Sprycel

>  <DrugBank ID>  (1) 
DB01254

>  <ATC Codes>  (1) 
L01XE06

>  <Ligand ID>  (1) 
1N1

>  <Target Name>  (1) 
Proto-oncogene tyrosine-protein kinase Src

>  <UniProt ID>  (1) 
P12931

>  <PDB ID.1>  (1) 
3QLG

>  <Seq. Identity>  (1) 
99%

$$$$
