PDB_DB04854_99
     RDKit          3D

108110  0  0  0  0  0  0  0  0999 V2000
   95.1310   53.2300   37.2650 S   0  0  0  0  0  0  0  0  0  0  0  0
   96.5130   54.1640   37.6660 C   0  0  0  0  0  0  0  0  0  0  0  0
   97.3280   54.2960   36.6080 N   0  0  0  0  0  0  0  0  0  0  0  0
   96.8960   53.6620   35.4320 C   0  0  0  0  0  0  0  0  0  0  0  0
   95.6840   53.0200   35.6330 C   0  0  0  0  0  0  0  0  0  0  0  0
   96.7180   54.7310   39.0410 C   0  0  0  0  0  0  0  0  0  0  0  0
   97.5480   55.8750   39.1820 C   0  0  0  0  0  0  0  0  0  0  0  0
   97.7550   56.4230   40.4630 C   0  0  0  0  0  0  0  0  0  0  0  0
   97.1330   55.8360   41.6260 C   0  0  0  0  0  0  0  0  0  0  0  0
   96.2080   54.5770   41.5250 C   0  0  0  0  0  0  0  0  0  0  0  0
   95.9890   54.0250   40.3080 C   0  0  0  0  0  0  0  0  0  0  0  0
   98.6370   57.6530   40.6750 C   0  0  0  0  0  0  0  0  0  0  0  0
   99.3000   58.5780   40.8690 N   0  0  0  0  0  0  0  0  0  0  0  0
   97.4030   56.4620   42.8840 O   0  0  0  0  0  0  0  0  0  0  0  0
   96.7730   55.8680   44.0470 C   0  0  0  0  0  0  0  0  0  0  0  0
   97.0280   56.7240   45.3450 C   0  0  1  0  0  0  0  0  0  0  0  0
   96.6120   58.1770   45.1640 C   0  0  0  0  0  0  0  0  0  0  0  0
   96.2640   56.1480   46.5160 C   0  0  0  0  0  0  0  0  0  0  0  0
   97.7260   53.7410   34.1910 C   0  0  0  0  0  0  0  0  0  0  0  0
   94.8710   52.2080   34.6070 C   0  0  0  0  0  0  0  0  0  0  0  0
   95.2600   52.0480   33.4450 O   0  0  0  0  0  0  0  0  0  0  0  0
   93.8190   51.7400   35.0430 O   0  0  0  0  0  0  0  0  0  0  0  0
   96.2200  106.1920   34.4030 S   0  0  0  0  0  0  0  0  0  0  0  0
   97.5930  105.2080   34.1030 C   0  0  0  0  0  0  0  0  0  0  0  0
   98.3240  105.0480   35.2170 N   0  0  0  0  0  0  0  0  0  0  0  0
   97.8310  105.7000   36.3590 C   0  0  0  0  0  0  0  0  0  0  0  0
   96.6610  106.3850   36.0710 C   0  0  0  0  0  0  0  0  0  0  0  0
   97.8770  104.6310   32.7460 C   0  0  0  0  0  0  0  0  0  0  0  0
   98.6730  103.4580   32.6650 C   0  0  0  0  0  0  0  0  0  0  0  0
   98.9530  102.9000   31.4020 C   0  0  0  0  0  0  0  0  0  0  0  0
   98.4390  103.5070   30.1970 C   0  0  0  0  0  0  0  0  0  0  0  0
   97.5550  104.7990   30.2320 C   0  0  0  0  0  0  0  0  0  0  0  0
   97.2680  105.3610   31.4300 C   0  0  0  0  0  0  0  0  0  0  0  0
   99.8030  101.6390   31.2540 C   0  0  0  0  0  0  0  0  0  0  0  0
  100.4440  100.6900   31.1080 N   0  0  0  0  0  0  0  0  0  0  0  0
   98.7770  102.8700   28.9620 O   0  0  0  0  0  0  0  0  0  0  0  0
   98.2550  103.4840   27.7570 C   0  0  0  0  0  0  0  0  0  0  0  0
   98.5720  102.6170   26.4800 C   0  0  1  0  0  0  0  0  0  0  0  0
   98.0920  101.1800   26.6290 C   0  0  0  0  0  0  0  0  0  0  0  0
   97.9170  103.2180   25.2570 C   0  0  0  0  0  0  0  0  0  0  0  0
   98.5650  105.5930   37.6570 C   0  0  0  0  0  0  0  0  0  0  0  0
   95.8050  107.2270   37.0360 C   0  0  0  0  0  0  0  0  0  0  0  0
   96.1140  107.3750   38.2230 O   0  0  0  0  0  0  0  0  0  0  0  0
   94.8050  107.7320   36.5250 O   0  0  0  0  0  0  0  0  0  0  0  0
   97.0458   53.2484   37.9622 H   0  0  0  0  0  0  0  0  0  0  0  0
   97.4290   55.3014   36.4082 H   0  0  0  0  0  0  0  0  0  0  0  0
   97.4298   52.7472   35.7291 H   0  0  0  0  0  0  0  0  0  0  0  0
   95.1502   53.9343   35.3345 H   0  0  0  0  0  0  0  0  0  0  0  0
   97.5931   54.0790   39.1794 H   0  0  0  0  0  0  0  0  0  0  0  0
   98.5375   55.6044   38.7850 H   0  0  0  0  0  0  0  0  0  0  0  0
   96.9979   56.6633   38.6473 H   0  0  0  0  0  0  0  0  0  0  0  0
   96.8806   57.0760   40.3249 H   0  0  0  0  0  0  0  0  0  0  0  0
   96.2588   56.4893   41.4882 H   0  0  0  0  0  0  0  0  0  0  0  0
   96.6540   53.7963   42.1587 H   0  0  0  0  0  0  0  0  0  0  0  0
   95.2187   54.9482   41.8309 H   0  0  0  0  0  0  0  0  0  0  0  0
   94.9049   54.0474   40.1229 H   0  0  0  0  0  0  0  0  0  0  0  0
   96.4265   53.0175   40.3665 H   0  0  0  0  0  0  0  0  0  0  0  0
   99.4267   57.2055   40.0536 H   0  0  0  0  0  0  0  0  0  0  0  0
   97.7437   58.2949   40.6674 H   0  0  0  0  0  0  0  0  0  0  0  0
   99.4021   58.7205   41.8840 H   0  0  0  0  0  0  0  0  0  0  0  0
  100.2282   58.4295   40.4481 H   0  0  0  0  0  0  0  0  0  0  0  0
   95.6893   55.8009   43.8708 H   0  0  0  0  0  0  0  0  0  0  0  0
   97.2082   54.8697   44.2020 H   0  0  0  0  0  0  0  0  0  0  0  0
   98.1102   56.6890   45.5387 H   0  0  0  0  0  0  0  0  0  0  0  0
   96.4779   58.6456   46.1501 H   0  0  0  0  0  0  0  0  0  0  0  0
   97.3922   58.7149   44.6055 H   0  0  0  0  0  0  0  0  0  0  0  0
   95.6653   58.2205   44.6055 H   0  0  0  0  0  0  0  0  0  0  0  0
   96.7200   56.4918   47.4561 H   0  0  0  0  0  0  0  0  0  0  0  0
   95.2174   56.4838   46.4718 H   0  0  0  0  0  0  0  0  0  0  0  0
   96.2988   55.0494   46.4718 H   0  0  0  0  0  0  0  0  0  0  0  0
   98.7865   53.8419   34.4650 H   0  0  0  0  0  0  0  0  0  0  0  0
   97.5862   52.8255   33.5975 H   0  0  0  0  0  0  0  0  0  0  0  0
   97.4160   54.6137   33.5975 H   0  0  0  0  0  0  0  0  0  0  0  0
   94.3406   53.1226   34.3035 H   0  0  0  0  0  0  0  0  0  0  0  0
   96.1756   51.6714   33.4524 H   0  0  0  0  0  0  0  0  0  0  0  0
   93.8390   51.7489   36.0328 H   0  0  0  0  0  0  0  0  0  0  0  0
   98.1787  106.1033   33.8472 H   0  0  0  0  0  0  0  0  0  0  0  0
   98.3733  104.0400   35.4228 H   0  0  0  0  0  0  0  0  0  0  0  0
   98.4178  106.5942   36.1018 H   0  0  0  0  0  0  0  0  0  0  0  0
   96.0741  105.4913   36.3296 H   0  0  0  0  0  0  0  0  0  0  0  0
   98.7828  105.2508   32.6720 H   0  0  0  0  0  0  0  0  0  0  0  0
   99.6401  103.6937   33.1331 H   0  0  0  0  0  0  0  0  0  0  0  0
   98.0572  102.6911   33.1576 H   0  0  0  0  0  0  0  0  0  0  0  0
   98.0478  102.2794   31.4755 H   0  0  0  0  0  0  0  0  0  0  0  0
   97.5341  102.8859   30.2701 H   0  0  0  0  0  0  0  0  0  0  0  0
   98.0738  105.5619   29.6330 H   0  0  0  0  0  0  0  0  0  0  0  0
   96.5778  104.4628   29.8551 H   0  0  0  0  0  0  0  0  0  0  0  0
   96.1732  105.3782   31.5357 H   0  0  0  0  0  0  0  0  0  0  0  0
   97.7445  106.3521   31.4044 H   0  0  0  0  0  0  0  0  0  0  0  0
  100.5719  102.0685   31.9130 H   0  0  0  0  0  0  0  0  0  0  0  0
   98.8894  101.0273   31.2194 H   0  0  0  0  0  0  0  0  0  0  0  0
  100.7034  100.3060   32.0279 H   0  0  0  0  0  0  0  0  0  0  0  0
   99.9034   99.9879   30.5829 H   0  0  0  0  0  0  0  0  0  0  0  0
   97.1645  103.5907   27.8543 H   0  0  0  0  0  0  0  0  0  0  0  0
   98.7364  104.4655   27.6347 H   0  0  0  0  0  0  0  0  0  0  0  0
   99.6660  102.6126   26.3655 H   0  0  0  0  0  0  0  0  0  0  0  0
   98.0085  100.9302   27.6970 H   0  0  0  0  0  0  0  0  0  0  0  0
   97.1084  101.0703   26.1488 H   0  0  0  0  0  0  0  0  0  0  0  0
   98.8122  100.5012   26.1488 H   0  0  0  0  0  0  0  0  0  0  0  0
   97.1400  103.9309   25.5702 H   0  0  0  0  0  0  0  0  0  0  0  0
   98.6744  103.7419   24.6555 H   0  0  0  0  0  0  0  0  0  0  0  0
   97.4600  102.4184   24.6555 H   0  0  0  0  0  0  0  0  0  0  0  0
   97.8540  105.6966   38.4899 H   0  0  0  0  0  0  0  0  0  0  0  0
   99.0610  104.6131   37.7181 H   0  0  0  0  0  0  0  0  0  0  0  0
   99.3201  106.3906   37.7181 H   0  0  0  0  0  0  0  0  0  0  0  0
   95.2218  106.3323   37.2994 H   0  0  0  0  0  0  0  0  0  0  0  0
   95.3877  107.0272   38.7989 H   0  0  0  0  0  0  0  0  0  0  0  0
   94.1912  108.0420   37.2373 H   0  0  0  0  0  0  0  0  0  0  0  0
  1  2  1  0
  2  3  1  0
  3  4  1  0
  1  5  1  0
  4  5  1  0
  2  6  1  0
  6  7  1  0
  7  8  1  0
  8  9  1  0
  9 10  1  0
  6 11  1  0
 10 11  1  0
  8 12  1  0
 12 13  1  0
  9 14  1  0
 14 15  1  0
 15 16  1  0
 16 17  1  0
 16 18  1  0
  4 19  1  0
  5 20  1  0
 20 21  1  0
 20 22  1  0
 23 24  1  0
 24 25  1  0
 25 26  1  0
 23 27  1  0
 26 27  1  0
 24 28  1  0
 28 29  1  0
 29 30  1  0
 30 31  1  0
 31 32  1  0
 28 33  1  0
 32 33  1  0
 30 34  1  0
 34 35  1  0
 31 36  1  0
 36 37  1  0
 37 38  1  0
 38 39  1  0
 38 40  1  0
 26 41  1  0
 27 42  1  0
 42 43  1  0
 42 44  1  0
  2 45  1  0
  3 46  1  0
  4 47  1  0
  5 48  1  0
  6 49  1  0
  7 50  1  0
  7 51  1  0
  8 52  1  0
  9 53  1  0
 10 54  1  0
 10 55  1  0
 11 56  1  0
 11 57  1  0
 12 58  1  0
 12 59  1  0
 13 60  1  0
 13 61  1  0
 15 62  1  0
 15 63  1  0
 16 64  1  1
 17 65  1  0
 17 66  1  0
 17 67  1  0
 18 68  1  0
 18 69  1  0
 18 70  1  0
 19 71  1  0
 19 72  1  0
 19 73  1  0
 20 74  1  0
 21 75  1  0
 22 76  1  0
 24 77  1  0
 25 78  1  0
 26 79  1  0
 27 80  1  0
 28 81  1  0
 29 82  1  0
 29 83  1  0
 30 84  1  0
 31 85  1  0
 32 86  1  0
 32 87  1  0
 33 88  1  0
 33 89  1  0
 34 90  1  0
 34 91  1  0
 35 92  1  0
 35 93  1  0
 37 94  1  0
 37 95  1  0
 38 96  1  6
 39 97  1  0
 39 98  1  0
 39 99  1  0
 40100  1  0
 40101  1  0
 40102  1  0
 41103  1  0
 41104  1  0
 41105  1  0
 42106  1  0
 43107  1  0
 44108  1  0
M  END
>  <PDBID>  (1) 
1N5X

>  <PDB ID>  (1) 
1N5X

>  <Generic Name>  (1) 
Febuxostat

>  <Brand Name>  (1) 
Febuxostat#Uloric#Adenuric#Atenurix#Barif#Feburic

>  <DrugBank ID>  (1) 
DB04854

>  <ATC Codes>  (1) 
M04AA03

>  <Ligand ID>  (1) 
TEI

>  <Target Name>  (1) 
Xanthine dehydrogenase/oxidase

>  <UniProt ID>  (1) 
P47989

>  <PDB ID.1>  (1) 
1N5X

>  <Seq. Identity>  (1) 
85%

$$$$
