PDB_DB00819_98
     RDKit          3D

 54 54  0  0  0  0  0  0  0  0999 V2000
   34.0420   -2.3670    7.1390 C   0  0  0  0  0  0  0  0  0  0  0  0
   33.3280   -1.8050    9.4410 C   0  0  0  0  0  0  0  0  0  0  0  0
   33.0210    0.2330   10.8510 C   0  0  0  0  0  0  0  0  0  0  0  0
   32.6680    0.8550   12.1500 C   0  0  0  0  0  0  0  0  0  0  0  0
   36.1400   -2.9850    5.4370 N   0  0  0  0  0  0  0  0  0  0  0  0
   33.2190   -3.1640    9.1940 N   0  0  0  0  0  0  0  0  0  0  0  0
   33.6500   -3.4970    7.8320 N   0  0  0  0  0  0  0  0  0  0  0  0
   32.9820   -1.1890   10.7000 N   0  0  0  0  0  0  0  0  0  0  0  0
   33.5560   -2.1560    4.4950 O   0  0  0  0  0  0  0  0  0  0  0  0
   35.2050   -1.0940    5.0580 O   0  0  0  0  0  0  0  0  0  0  0  0
   33.3490    0.9550    9.9210 O   0  0  0  0  0  0  0  0  0  0  0  0
   34.6300   -2.3980    5.4590 S   0  0  1  0  0  4  0  0  0  0  0  0
   33.9120   -1.0270    8.0820 S   0  0  0  0  0  0  0  0  0  0  0  0
   17.4420   -0.1720   21.3570 C   0  0  0  0  0  0  0  0  0  0  0  0
   17.8780    1.2550   19.3900 C   0  0  0  0  0  0  0  0  0  0  0  0
   18.5030    2.1480   17.1140 C   0  0  0  0  0  0  0  0  0  0  0  0
   18.5980    3.3480   16.2270 C   0  0  0  0  0  0  0  0  0  0  0  0
   15.6300   -1.7150   22.8660 N   0  0  0  0  0  0  0  0  0  0  0  0
   18.2200   -0.0780   19.1570 N   0  0  0  0  0  0  0  0  0  0  0  0
   17.9580   -0.9380   20.3180 N   0  0  0  0  0  0  0  0  0  0  0  0
   18.0090    2.3450   18.4520 N   0  0  0  0  0  0  0  0  0  0  0  0
   17.8700   -0.3420   24.0030 O   0  0  0  0  0  0  0  0  0  0  0  0
   16.0720    0.2740   23.5490 O   0  0  0  0  0  0  0  0  0  0  0  0
   18.8400    1.0330   16.6860 O   0  0  0  0  0  0  0  0  0  0  0  0
   16.9520   -0.7630   22.9540 S   0  0  1  0  0  4  0  0  0  0  0  0
   17.2770    1.4170   20.9220 S   0  0  0  0  0  0  0  0  0  0  0  0
   35.0717   -2.5017    7.5019 H   0  0  0  0  0  0  0  0  0  0  0  0
   32.2974   -1.6578    9.0857 H   0  0  0  0  0  0  0  0  0  0  0  0
   34.0729    0.1706   11.1667 H   0  0  0  0  0  0  0  0  0  0  0  0
   33.0291    0.2187   12.9714 H   0  0  0  0  0  0  0  0  0  0  0  0
   33.1376    1.8472   12.2211 H   0  0  0  0  0  0  0  0  0  0  0  0
   31.5754    0.9606   12.2211 H   0  0  0  0  0  0  0  0  0  0  0  0
   36.4723   -3.1142    6.4033 H   0  0  0  0  0  0  0  0  0  0  0  0
   36.1491   -3.8908    4.9468 H   0  0  0  0  0  0  0  0  0  0  0  0
   33.8086   -3.6751    9.8664 H   0  0  0  0  0  0  0  0  0  0  0  0
   32.8675   -3.9427    7.3320 H   0  0  0  0  0  0  0  0  0  0  0  0
   32.0184   -1.4817   10.9161 H   0  0  0  0  0  0  0  0  0  0  0  0
   32.7140   -1.9663    4.9798 H   0  0  0  0  0  0  0  0  0  0  0  0
   35.4352   -0.5720    5.8671 H   0  0  0  0  0  0  0  0  0  0  0  0
   33.7313    1.7966   10.2755 H   0  0  0  0  0  0  0  0  0  0  0  0
   16.4235   -0.3466   20.9799 H   0  0  0  0  0  0  0  0  0  0  0  0
   18.8951    1.4513   19.7601 H   0  0  0  0  0  0  0  0  0  0  0  0
   19.5294    2.3273   17.4666 H   0  0  0  0  0  0  0  0  0  0  0  0
   18.6698    4.2556   16.8444 H   0  0  0  0  0  0  0  0  0  0  0  0
   19.4924    3.2647   15.5920 H   0  0  0  0  0  0  0  0  0  0  0  0
   17.7017    3.4065   15.5920 H   0  0  0  0  0  0  0  0  0  0  0  0
   15.3093   -1.9459   23.8172 H   0  0  0  0  0  0  0  0  0  0  0  0
   14.8816   -1.2176   22.3626 H   0  0  0  0  0  0  0  0  0  0  0  0
   17.6701   -0.4251   18.3582 H   0  0  0  0  0  0  0  0  0  0  0  0
   18.8368   -1.3810   20.6220 H   0  0  0  0  0  0  0  0  0  0  0  0
   17.0693    2.7552   18.3544 H   0  0  0  0  0  0  0  0  0  0  0  0
   17.4668   -0.5269   24.8881 H   0  0  0  0  0  0  0  0  0  0  0  0
   16.1184    0.2193   24.5364 H   0  0  0  0  0  0  0  0  0  0  0  0
   19.0228    0.4283   17.4483 H   0  0  0  0  0  0  0  0  0  0  0  0
  3  4  1  0
  2  6  1  0
  1  7  1  0
  6  7  1  0
  2  8  1  0
  3  8  1  0
  3 11  1  0
  1 12  1  0
  5 12  1  0
 12  9  1  6
 12 10  1  0
  1 13  1  0
  2 13  1  0
 16 17  1  0
 15 19  1  0
 14 20  1  0
 19 20  1  0
 15 21  1  0
 16 21  1  0
 16 24  1  0
 14 25  1  0
 18 25  1  0
 25 22  1  1
 25 23  1  0
 14 26  1  0
 15 26  1  0
  1 27  1  0
  2 28  1  0
  3 29  1  0
  4 30  1  0
  4 31  1  0
  4 32  1  0
  5 33  1  0
  5 34  1  0
  6 35  1  0
  7 36  1  0
  8 37  1  0
  9 38  1  0
 10 39  1  0
 11 40  1  0
 14 41  1  0
 15 42  1  0
 16 43  1  0
 17 44  1  0
 17 45  1  0
 17 46  1  0
 18 47  1  0
 18 48  1  0
 19 49  1  0
 20 50  1  0
 21 51  1  0
 22 52  1  0
 23 53  1  0
 24 54  1  0
M  END
>  <PDBID>  (1) 
3W6H

>  <PDB ID>  (1) 
3W6H

>  <Generic Name>  (1) 
Acetazolamide

>  <Brand Name>  (1) 
Acetazolam#Acetazolamide#Acetazolamide for Injection, USP#Diamox IV 500mg#Diamox Pws 500mg/vial#Diamox Sequels#Diamox Src 500mg#Diamox Tab 250mg#Diamox Tablets 250mg#Novo-zolamide Tab 250mg#Acemit#Acemox#Acetak#Acetamide#Acetazolamax#Azm#Azol#Azomid#Carbinib#Defiltran#Diabo#Diacarb#Diamox#Diamox Depot#Diazomid#Diluran#Diuramid#Défiltran#Edemox#Glaumox#Glaupax#Glupax#Huma-Zolamide#Iopar-SR#Medene#Oculten#Uramox#Zolmide#Ödemin

>  <DrugBank ID>  (1) 
DB00819

>  <ATC Codes>  (1) 
S01EC01

>  <Ligand ID>  (1) 
AZM

>  <Target Name>  (1) 
Carbonic anhydrase 1

>  <UniProt ID>  (1) 
P00915

>  <PDB ID.1>  (1) 
3W6H

>  <Seq. Identity>  (1) 
100%

$$$$
