PDB_DB00215_98
     RDKit          3D

 45 47  0  0  0  0  0  0  0  0999 V2000
   30.9310  184.3630    2.9550 C   0  0  0  0  0  0  0  0  0  0  0  0
   33.6950  182.4300    3.0590 C   0  0  0  0  0  0  0  0  0  0  0  0
   29.7870  183.4150    2.5720 C   0  0  0  0  0  0  0  0  0  0  0  0
   34.3200  181.0850    2.7180 C   0  0  0  0  0  0  0  0  0  0  0  0
   29.6040  184.9910    5.1680 C   0  0  0  0  0  0  0  0  0  0  0  0
   28.4670  184.0410    4.7810 C   0  0  0  0  0  0  0  0  0  0  0  0
   36.1370  187.4980   -0.1420 C   0  0  0  0  0  0  0  0  0  0  0  0
   34.7840  179.1460    1.0460 C   0  0  0  0  0  0  0  0  0  0  0  0
   27.3950  183.9010    5.5810 F   0  0  0  0  0  0  0  0  0  0  0  0
   31.6990  184.8120    0.7390 O   0  0  0  0  0  0  0  0  0  0  0  0
   34.7460  187.0550   -0.4250 N   0  0  0  0  0  0  0  0  0  0  0  0
   35.2760  178.1160    0.8340 N   0  0  0  0  0  0  0  0  0  0  0  0
   32.1320  184.5170    2.0640 C   0  0  1  0  0  0  0  0  0  0  0  0
   33.0520  185.6280    2.6250 C   0  0  0  0  0  0  0  0  0  0  0  0
   32.8680  183.1990    2.0070 C   0  0  0  0  0  0  0  0  0  0  0  0
   32.6680  182.6200    0.6610 C   0  0  0  0  0  0  0  0  0  0  0  0
   34.2420  185.8800    1.6730 C   0  0  0  0  0  0  0  0  0  0  0  0
   31.8640  183.5850   -0.1000 C   0  0  0  0  0  0  0  0  0  0  0  0
   33.9340  187.0770    0.7730 C   0  0  0  0  0  0  0  0  0  0  0  0
   33.3070  181.2470    0.3140 C   0  0  0  0  0  0  0  0  0  0  0  0
   30.8310  185.1500    4.2510 C   0  0  0  0  0  0  0  0  0  0  0  0
   34.1410  180.5010    1.3530 C   0  0  0  0  0  0  0  0  0  0  0  0
   28.5570  183.2550    3.4860 C   0  0  0  0  0  0  0  0  0  0  0  0
   34.7280  185.7510   -1.0430 C   0  0  0  0  0  0  0  0  0  0  0  0
   33.8337  182.8574    4.0630 H   0  0  0  0  0  0  0  0  0  0  0  0
   29.8456  182.8431    1.6342 H   0  0  0  0  0  0  0  0  0  0  0  0
   34.9037  180.5421    3.4760 H   0  0  0  0  0  0  0  0  0  0  0  0
   29.5440  185.5628    6.1058 H   0  0  0  0  0  0  0  0  0  0  0  0
   36.2919  187.5473    0.9459 H   0  0  0  0  0  0  0  0  0  0  0  0
   36.8466  186.7814   -0.5813 H   0  0  0  0  0  0  0  0  0  0  0  0
   36.3015  188.4930   -0.5813 H   0  0  0  0  0  0  0  0  0  0  0  0
   32.4726  186.5568    2.7334 H   0  0  0  0  0  0  0  0  0  0  0  0
   33.4413  185.3064    3.6023 H   0  0  0  0  0  0  0  0  0  0  0  0
   35.1458  186.0893    2.2641 H   0  0  0  0  0  0  0  0  0  0  0  0
   34.4074  184.9881    1.0508 H   0  0  0  0  0  0  0  0  0  0  0  0
   30.8783  183.1528   -0.3272 H   0  0  0  0  0  0  0  0  0  0  0  0
   32.3627  183.8345   -1.0482 H   0  0  0  0  0  0  0  0  0  0  0  0
   34.1383  188.0047    1.3277 H   0  0  0  0  0  0  0  0  0  0  0  0
   32.8758  187.0265    0.4770 H   0  0  0  0  0  0  0  0  0  0  0  0
   33.1580  180.8104   -0.6846 H   0  0  0  0  0  0  0  0  0  0  0  0
   31.6406  185.8380    4.5361 H   0  0  0  0  0  0  0  0  0  0  0  0
   27.7443  182.5712    3.1999 H   0  0  0  0  0  0  0  0  0  0  0  0
   34.7173  184.9756   -0.2628 H   0  0  0  0  0  0  0  0  0  0  0  0
   33.8284  185.6541   -1.6686 H   0  0  0  0  0  0  0  0  0  0  0  0
   35.6246  185.6293   -1.6686 H   0  0  0  0  0  0  0  0  0  0  0  0
  1  3  2  0
  2  4  2  0
  5  6  1  0
  6  9  1  0
  7 11  1  0
  8 12  3  0
  1 13  1  0
 10 13  1  0
 13 14  1  1
  2 15  1  0
 13 15  1  0
 15 16  2  0
 14 17  1  0
 10 18  1  0
 16 18  1  0
 11 19  1  0
 17 19  1  0
 16 20  1  0
  1 21  1  0
  5 21  2  0
  4 22  1  0
  8 22  1  0
 20 22  2  0
  3 23  1  0
  6 23  2  0
 11 24  1  0
  2 25  1  0
  3 26  1  0
  4 27  1  0
  5 28  1  0
  7 29  1  0
  7 30  1  0
  7 31  1  0
 14 32  1  0
 14 33  1  0
 17 34  1  0
 17 35  1  0
 18 36  1  0
 18 37  1  0
 19 38  1  0
 19 39  1  0
 20 40  1  0
 21 41  1  0
 23 42  1  0
 24 43  1  0
 24 44  1  0
 24 45  1  0
M  END
$$$$
