PDB_DB01004_99
     RDKit          3D

 78 80  0  0  0  0  0  0  0  0999 V2000
   43.5520   86.1360   55.2210 N   0  0  0  0  0  0  0  0  0  0  0  0
   44.1730   85.2210   54.3940 C   0  0  0  0  0  0  0  0  0  0  0  0
   46.0050   85.4310   55.6270 C   0  0  0  0  0  0  0  0  0  0  0  0
   47.3710   85.9510   57.1860 C   0  0  0  0  0  0  0  0  0  0  0  0
   51.4780   85.4650   56.0310 C   0  0  0  0  0  0  0  0  0  0  0  0
   50.9550   85.9970   57.2640 O   0  0  0  0  0  0  0  0  0  0  0  0
   50.9220   84.4700   53.8870 C   0  0  0  0  0  0  0  0  0  0  0  0
   51.0560   83.0710   54.0850 O   0  0  0  0  0  0  0  0  0  0  0  0
   50.3380   85.0880   55.1750 C   0  0  1  0  0  0  0  0  0  0  0  0
   49.4090   84.2890   55.9910 O   0  0  0  0  0  0  0  0  0  0  0  0
   48.1510   84.2650   55.3580 C   0  0  0  0  0  0  0  0  0  0  0  0
   47.2590   85.1930   56.0440 N   0  0  0  0  0  0  0  0  0  0  0  0
   45.4350   84.8280   54.5360 N   0  0  0  0  0  0  0  0  0  0  0  0
   43.5100   84.7070   53.3850 N   0  0  0  0  0  0  0  0  0  0  0  0
   44.1260   86.7310   56.3110 C   0  0  0  0  0  0  0  0  0  0  0  0
   43.4750   87.5100   56.9750 O   0  0  0  0  0  0  0  0  0  0  0  0
   45.4490   86.3130   56.5150 C   0  0  0  0  0  0  0  0  0  0  0  0
   46.3450   86.6370   57.5350 N   0  0  0  0  0  0  0  0  0  0  0  0
   24.6380   96.7010   45.2310 N   0  0  0  0  0  0  0  0  0  0  0  0
   23.6290   95.7040   45.2200 C   0  0  0  0  0  0  0  0  0  0  0  0
   22.0880   97.2730   44.9740 C   0  0  0  0  0  0  0  0  0  0  0  0
   20.9760   99.0980   44.7070 C   0  0  0  0  0  0  0  0  0  0  0  0
   17.0170   96.5820   46.0130 C   0  0  0  0  0  0  0  0  0  0  0  0
   17.6660   95.4480   45.3820 O   0  0  0  0  0  0  0  0  0  0  0  0
   17.4010   99.2220   46.0760 C   0  0  0  0  0  0  0  0  0  0  0  0
   18.0210  100.2480   45.2350 O   0  0  0  0  0  0  0  0  0  0  0  0
   17.9830   97.7380   45.9320 C   0  0  2  0  0  0  0  0  0  0  0  0
   18.6490   97.7370   44.6890 O   0  0  0  0  0  0  0  0  0  0  0  0
   19.6970   96.8180   44.8160 C   0  0  0  0  0  0  0  0  0  0  0  0
   20.8420   97.7210   44.8270 N   0  0  0  0  0  0  0  0  0  0  0  0
   22.3420   95.9540   45.0740 N   0  0  0  0  0  0  0  0  0  0  0  0
   23.8800   94.4090   45.3640 N   0  0  0  0  0  0  0  0  0  0  0  0
   24.3920   98.1370   45.0880 C   0  0  0  0  0  0  0  0  0  0  0  0
   25.3030   99.0200   45.0990 O   0  0  0  0  0  0  0  0  0  0  0  0
   22.9480   98.3520   44.9460 C   0  0  0  0  0  0  0  0  0  0  0  0
   22.2080   99.5590   44.7620 N   0  0  0  0  0  0  0  0  0  0  0  0
   43.2655   86.9107   54.6056 H   0  0  0  0  0  0  0  0  0  0  0  0
   44.5017   86.0389   53.7360 H   0  0  0  0  0  0  0  0  0  0  0  0
   46.3730   86.2448   54.9849 H   0  0  0  0  0  0  0  0  0  0  0  0
   47.6106   85.2684   58.0146 H   0  0  0  0  0  0  0  0  0  0  0  0
   48.1473   86.6962   56.9579 H   0  0  0  0  0  0  0  0  0  0  0  0
   52.0882   86.2276   55.5249 H   0  0  0  0  0  0  0  0  0  0  0  0
   52.1102   84.5876   56.2322 H   0  0  0  0  0  0  0  0  0  0  0  0
   51.3951   85.5493   58.0295 H   0  0  0  0  0  0  0  0  0  0  0  0
   51.9070   84.9118   53.6760 H   0  0  0  0  0  0  0  0  0  0  0  0
   50.2558   84.6701   53.0348 H   0  0  0  0  0  0  0  0  0  0  0  0
   51.0747   82.8753   55.0553 H   0  0  0  0  0  0  0  0  0  0  0  0
   49.7110   85.9163   54.8133 H   0  0  0  0  0  0  0  0  0  0  0  0
   48.2610   84.5679   54.3063 H   0  0  0  0  0  0  0  0  0  0  0  0
   47.7331   83.2482   55.3978 H   0  0  0  0  0  0  0  0  0  0  0  0
   45.4598   83.8060   54.6619 H   0  0  0  0  0  0  0  0  0  0  0  0
   42.7464   84.1150   53.7418 H   0  0  0  0  0  0  0  0  0  0  0  0
   43.1163   85.4659   52.8106 H   0  0  0  0  0  0  0  0  0  0  0  0
   44.4713   87.5605   55.6764 H   0  0  0  0  0  0  0  0  0  0  0  0
   43.6255   87.3299   57.9368 H   0  0  0  0  0  0  0  0  0  0  0  0
   45.8089   87.1544   55.9047 H   0  0  0  0  0  0  0  0  0  0  0  0
   45.9904   86.3450   58.4569 H   0  0  0  0  0  0  0  0  0  0  0  0
   25.1233   96.5926   46.1330 H   0  0  0  0  0  0  0  0  0  0  0  0
   23.5236   95.7986   46.3108 H   0  0  0  0  0  0  0  0  0  0  0  0
   21.9815   97.3354   46.0671 H   0  0  0  0  0  0  0  0  0  0  0  0
   20.5465   99.3962   43.7392 H   0  0  0  0  0  0  0  0  0  0  0  0
   20.4566   99.5265   45.5768 H   0  0  0  0  0  0  0  0  0  0  0  0
   16.0857   96.8289   45.4822 H   0  0  0  0  0  0  0  0  0  0  0  0
   16.7577   96.3570   47.0580 H   0  0  0  0  0  0  0  0  0  0  0  0
   18.0152   94.8378   46.0790 H   0  0  0  0  0  0  0  0  0  0  0  0
   17.5240   99.5296   47.1249 H   0  0  0  0  0  0  0  0  0  0  0  0
   16.3556   99.1603   45.7395 H   0  0  0  0  0  0  0  0  0  0  0  0
   18.4380  100.9380   45.8096 H   0  0  0  0  0  0  0  0  0  0  0  0
   18.6163   97.5471   46.8109 H   0  0  0  0  0  0  0  0  0  0  0  0
   19.6231   96.2444   45.7517 H   0  0  0  0  0  0  0  0  0  0  0  0
   19.7285   96.0472   44.0319 H   0  0  0  0  0  0  0  0  0  0  0  0
   22.0081   95.4862   44.2193 H   0  0  0  0  0  0  0  0  0  0  0  0
   23.9249   94.1774   46.3666 H   0  0  0  0  0  0  0  0  0  0  0  0
   23.1293   93.8622   44.9186 H   0  0  0  0  0  0  0  0  0  0  0  0
   24.2903   98.2283   46.1795 H   0  0  0  0  0  0  0  0  0  0  0  0
   25.5341   99.2440   46.0352 H   0  0  0  0  0  0  0  0  0  0  0  0
   22.8558   98.4538   46.0374 H   0  0  0  0  0  0  0  0  0  0  0  0
   22.4725  100.0343   43.8873 H   0  0  0  0  0  0  0  0  0  0  0  0
  1  2  1  0
  5  6  1  0
  7  8  1  0
  5  9  1  0
  7  9  1  0
  9 10  1  0
 10 11  1  0
  3 12  1  0
  4 12  1  0
 11 12  1  0
  2 13  1  0
  3 13  1  0
  2 14  1  0
  1 15  1  0
 15 16  1  0
  3 17  1  0
 15 17  1  0
  4 18  1  0
 17 18  1  0
 19 20  1  0
 23 24  1  0
 25 26  1  0
 23 27  1  0
 25 27  1  0
 27 28  1  0
 28 29  1  0
 21 30  1  0
 22 30  1  0
 29 30  1  0
 20 31  1  0
 21 31  1  0
 20 32  1  0
 19 33  1  0
 33 34  1  0
 21 35  1  0
 33 35  1  0
 22 36  1  0
 35 36  1  0
  1 37  1  0
  2 38  1  0
  3 39  1  0
  4 40  1  0
  4 41  1  0
  5 42  1  0
  5 43  1  0
  6 44  1  0
  7 45  1  0
  7 46  1  0
  8 47  1  0
  9 48  1  6
 11 49  1  0
 11 50  1  0
 13 51  1  0
 14 52  1  0
 14 53  1  0
 15 54  1  0
 16 55  1  0
 17 56  1  0
 18 57  1  0
 19 58  1  0
 20 59  1  0
 21 60  1  0
 22 61  1  0
 22 62  1  0
 23 63  1  0
 23 64  1  0
 24 65  1  0
 25 66  1  0
 25 67  1  0
 26 68  1  0
 27 69  1  1
 29 70  1  0
 29 71  1  0
 31 72  1  0
 32 73  1  0
 32 74  1  0
 33 75  1  0
 34 76  1  0
 35 77  1  0
 36 78  1  0
M  END
>  <PDBID>  (1) 
1KI2

>  <PDB ID>  (1) 
1KI2

>  <Generic Name>  (1) 
Ganciclovir

>  <Brand Name>  (1) 
Cytovene - Cap 250mg#Cytovene - Pws 500mg/10m/-vial IV#Cytovene IV#Cytovene Inj 500mg/vial#Cytovene, 500 mg#Ganciclovir#Ganciclovir for Injection#Vitrasert, Intravitreal Implant#Zirgan#Cytovene#Vitrasert

>  <DrugBank ID>  (1) 
DB01004

>  <ATC Codes>  (1) 
J05AB06#S01AD09

>  <Ligand ID>  (1) 
GA2

>  <Target Name>  (1) 
Thymidine kinase

>  <UniProt ID>  (1) 
P03176

>  <PDB ID.1>  (1) 
1KI2

>  <Seq. Identity>  (1) 
100%

$$$$
