PDB_DB08912_99
     RDKit          3D

316328  0  0  0  0  0  0  0  0999 V2000
  -44.7220   -4.2950   76.0440 C   0  0  0  0  0  0  0  0  0  0  0  0
  -46.1860   -3.6970   74.3470 C   0  0  1  0  0  0  0  0  0  0  0  0
  -45.9640   -4.1210   75.6000 N   0  0  0  0  0  0  0  0  0  0  0  0
  -45.0820   -3.3480   73.5370 C   0  0  0  0  0  0  0  0  0  0  0  0
  -43.6710   -4.0000   75.2760 N   0  0  0  0  0  0  0  0  0  0  0  0
  -43.8100   -3.5400   74.0360 C   0  0  0  0  0  0  0  0  0  0  0  0
  -44.5120   -4.7780   77.3270 N   0  0  0  0  0  0  0  0  0  0  0  0
  -47.5830   -3.5000   73.9230 C   0  0  0  0  0  0  0  0  0  0  0  0
  -48.8990   -3.6130   75.0700 S   0  0  0  0  0  0  0  0  0  0  0  0
  -50.0640   -3.1860   73.8910 C   0  0  1  0  0  0  0  0  0  0  0  0
  -49.4670   -3.0500   72.7550 N   0  0  0  0  0  0  0  0  0  0  0  0
  -48.1490   -3.2110   72.6920 C   0  0  0  0  0  0  0  0  0  0  0  0
  -51.5650   -3.0650   74.1370 C   0  0  1  0  0  0  0  0  0  0  0  0
  -51.8860   -2.4000   75.4740 C   0  0  0  0  0  0  0  0  0  0  0  0
  -52.2600   -2.2360   73.0620 C   0  0  0  0  0  0  0  0  0  0  0  0
  -52.1880   -4.4530   74.1470 C   0  0  0  0  0  0  0  0  0  0  0  0
  -47.4670   -3.0560   71.3740 C   0  0  1  0  0  0  0  0  0  0  0  0
  -47.0390   -1.6600   69.4230 C   0  0  1  0  0  0  0  0  0  0  0  0
  -47.5520   -1.8160   70.7190 C   0  0  0  0  0  0  0  0  0  0  0  0
  -46.3850   -2.7430   68.8060 C   0  0  0  0  0  0  0  0  0  0  0  0
  -46.8670   -4.1480   70.7070 C   0  0  0  0  0  0  0  0  0  0  0  0
  -46.3300   -3.9850   69.4330 C   0  0  0  0  0  0  0  0  0  0  0  0
  -48.1600   -0.7850   71.3490 F   0  0  0  0  0  0  0  0  0  0  0  0
  -47.1350   -0.3860   68.8310 N   0  0  0  0  0  0  0  0  0  0  0  0
  -47.1570   -0.0770   67.1980 S   0  0  1  0  0  4  0  0  0  0  0  0
  -45.4410    0.0910   66.7740 C   0  0  1  0  0  0  0  0  0  0  0  0
  -43.3500    1.2430   67.1450 C   0  0  0  0  0  0  0  0  0  0  0  0
  -44.6960    1.0750   67.4310 C   0  0  0  0  0  0  0  0  0  0  0  0
  -42.7170    0.4210   66.2280 C   0  0  0  0  0  0  0  0  0  0  0  0
  -44.7910   -0.7490   65.8500 C   0  0  0  0  0  0  0  0  0  0  0  0
  -43.4360   -0.5760   65.5890 C   0  0  0  0  0  0  0  0  0  0  0  0
  -45.4340   -1.7390   65.1940 F   0  0  0  0  0  0  0  0  0  0  0  0
  -45.2620    1.8750   68.3590 F   0  0  0  0  0  0  0  0  0  0  0  0
  -47.6750   -1.2110   66.5310 O   0  0  0  0  0  0  0  0  0  0  0  0
  -47.7490    1.2050   67.0460 O   0  0  0  0  0  0  0  0  0  0  0  0
  -88.0110    7.4840   75.7450 C   0  0  0  0  0  0  0  0  0  0  0  0
  -86.7110    6.6450   74.0000 C   0  0  0  0  0  0  0  0  0  0  0  0
  -86.8290    7.1980   75.2210 N   0  0  0  0  0  0  0  0  0  0  0  0
  -87.8940    6.3390   73.2920 C   0  0  0  0  0  0  0  0  0  0  0  0
  -89.1330    7.2210   75.0730 N   0  0  0  0  0  0  0  0  0  0  0  0
  -89.1160    6.6630   73.8630 C   0  0  0  0  0  0  0  0  0  0  0  0
  -88.0700    8.0620   77.0020 N   0  0  0  0  0  0  0  0  0  0  0  0
  -85.3390    6.3580   73.5030 C   0  0  0  0  0  0  0  0  0  0  0  0
  -83.9250    6.6270   74.5260 S   0  0  0  0  0  0  0  0  0  0  0  0
  -82.8600    6.0530   73.3340 C   0  0  1  0  0  0  0  0  0  0  0  0
  -83.5310    5.7710   72.2760 N   0  0  0  0  0  0  0  0  0  0  0  0
  -84.8520    5.8840   72.2890 C   0  0  1  0  0  0  0  0  0  0  0  0
  -81.3560    5.9620   73.4820 C   0  0  1  0  0  0  0  0  0  0  0  0
  -80.9230    5.7860   74.9420 C   0  0  0  0  0  0  0  0  0  0  0  0
  -80.8190    4.7840   72.6720 C   0  0  0  0  0  0  0  0  0  0  0  0
  -80.7320    7.2470   72.9500 C   0  0  0  0  0  0  0  0  0  0  0  0
  -85.5600    5.5950   71.0100 C   0  0  2  0  0  0  0  0  0  0  0  0
  -85.8160    4.1390   69.0700 C   0  0  0  0  0  0  0  0  0  0  0  0
  -85.3010    4.3840   70.3480 C   0  0  0  0  0  0  0  0  0  0  0  0
  -86.5670    5.1400   68.4410 C   0  0  0  0  0  0  0  0  0  0  0  0
  -86.2380    6.6130   70.3190 C   0  0  0  0  0  0  0  0  0  0  0  0
  -86.7680    6.3690   69.0620 C   0  0  0  0  0  0  0  0  0  0  0  0
  -84.5650    3.4370   70.9770 F   0  0  0  0  0  0  0  0  0  0  0  0
  -85.5790    2.8730   68.4970 N   0  0  0  0  0  0  0  0  0  0  0  0
  -85.7040    2.4240   66.8950 S   0  0  1  0  0  4  0  0  0  0  0  0
  -87.4590    2.2710   66.6450 C   0  0  1  0  0  0  0  0  0  0  0  0
  -89.5220    1.1710   67.2830 C   0  0  0  0  0  0  0  0  0  0  0  0
  -88.1460    1.3220   67.4050 C   0  0  0  0  0  0  0  0  0  0  0  0
  -90.2440    2.0050   66.4470 C   0  0  0  0  0  0  0  0  0  0  0  0
  -88.2000    3.1220   65.8090 C   0  0  0  0  0  0  0  0  0  0  0  0
  -89.5820    2.9710   65.7030 C   0  0  0  0  0  0  0  0  0  0  0  0
  -87.6010    4.0770   65.0720 F   0  0  0  0  0  0  0  0  0  0  0  0
  -87.4670    0.5430   68.2750 F   0  0  0  0  0  0  0  0  0  0  0  0
  -85.2050    3.4800   66.0850 O   0  0  0  0  0  0  0  0  0  0  0  0
  -85.1510    1.1050   66.8610 O   0  0  0  0  0  0  0  0  0  0  0  0
  -54.1340  -33.9500  109.9220 C   0  0  0  0  0  0  0  0  0  0  0  0
  -52.4000  -33.1870  108.5520 C   0  0  1  0  0  0  0  0  0  0  0  0
  -53.6420  -33.6930  108.7110 N   0  0  0  0  0  0  0  0  0  0  0  0
  -51.6580  -32.8690  109.7050 C   0  0  0  0  0  0  0  0  0  0  0  0
  -53.4160  -33.6990  111.0080 N   0  0  0  0  0  0  0  0  0  0  0  0
  -52.1960  -33.1800  110.9390 C   0  0  0  0  0  0  0  0  0  0  0  0
  -55.3980  -34.4990  110.0700 N   0  0  0  0  0  0  0  0  0  0  0  0
  -51.9370  -32.8360  107.1880 C   0  0  1  0  0  0  0  0  0  0  0  0
  -53.0380  -32.8560  105.8110 S   0  0  0  0  0  0  0  0  0  0  0  0
  -51.8390  -32.2520  104.7590 C   0  0  0  0  0  0  0  0  0  0  0  0
  -50.7460  -32.0930  105.4170 N   0  0  0  0  0  0  0  0  0  0  0  0
  -50.7220  -32.3590  106.7110 C   0  0  0  0  0  0  0  0  0  0  0  0
  -52.0110  -31.9860  103.2750 C   0  0  1  0  0  0  0  0  0  0  0  0
  -53.4460  -31.5420  102.9590 C   0  0  0  0  0  0  0  0  0  0  0  0
  -51.0760  -30.8650  102.8160 C   0  0  0  0  0  0  0  0  0  0  0  0
  -51.6550  -33.2570  102.4970 C   0  0  0  0  0  0  0  0  0  0  0  0
  -49.4260  -32.1550  107.4030 C   0  0  2  0  0  0  0  0  0  0  0  0
  -47.4960  -30.7040  107.7000 C   0  0  1  0  0  0  0  0  0  0  0  0
  -48.7780  -30.9290  107.2140 C   0  0  0  0  0  0  0  0  0  0  0  0
  -46.8370  -31.7390  108.3690 C   0  0  0  0  0  0  0  0  0  0  0  0
  -48.7250  -33.2080  108.0080 C   0  0  0  0  0  0  0  0  0  0  0  0
  -47.4520  -32.9800  108.5110 C   0  0  0  0  0  0  0  0  0  0  0  0
  -49.4130  -29.9390  106.5600 F   0  0  0  0  0  0  0  0  0  0  0  0
  -46.9820  -29.4130  107.5380 N   0  0  0  0  0  0  0  0  0  0  0  0
  -45.4030  -28.9740  107.7190 S   0  0  1  0  0  4  0  0  0  0  0  0
  -45.1060  -28.9330  109.4710 C   0  0  0  0  0  0  0  0  0  0  0  0
  -45.5130  -27.9010  111.6280 C   0  0  0  0  0  0  0  0  0  0  0  0
  -45.7360  -27.9590  110.2590 C   0  0  0  0  0  0  0  0  0  0  0  0
  -44.6770  -28.8170  112.2410 C   0  0  0  0  0  0  0  0  0  0  0  0
  -44.2520  -29.8530  110.1030 C   0  0  0  0  0  0  0  0  0  0  0  0
  -44.0270  -29.7700  111.4760 C   0  0  0  0  0  0  0  0  0  0  0  0
  -43.6090  -30.8250  109.4150 F   0  0  0  0  0  0  0  0  0  0  0  0
  -46.5710  -27.0480  109.7230 F   0  0  0  0  0  0  0  0  0  0  0  0
  -44.6210  -29.9980  107.1310 O   0  0  0  0  0  0  0  0  0  0  0  0
  -45.2700  -27.6380  107.2550 O   0  0  0  0  0  0  0  0  0  0  0  0
  -80.0330   39.4230  106.4600 C   0  0  0  0  0  0  0  0  0  0  0  0
  -81.7130   38.4860  105.1400 C   0  0  2  0  0  0  0  0  0  0  0  0
  -80.4970   39.0370  105.2790 N   0  0  0  0  0  0  0  0  0  0  0  0
  -82.4420   38.2100  106.3130 C   0  0  0  0  0  0  0  0  0  0  0  0
  -80.7400   39.2250  107.5630 N   0  0  0  0  0  0  0  0  0  0  0  0
  -81.9330   38.6400  107.5260 C   0  0  0  0  0  0  0  0  0  0  0  0
  -78.7810   40.0080  106.5400 N   0  0  0  0  0  0  0  0  0  0  0  0
  -82.1190   38.0150  103.7960 C   0  0  1  0  0  0  0  0  0  0  0  0
  -81.0280   38.0650  102.4060 S   0  0  0  0  0  0  0  0  0  0  0  0
  -82.1540   37.2260  101.4230 C   0  0  1  0  0  0  0  0  0  0  0  0
  -83.2320   37.0050  102.1010 N   0  0  0  0  0  0  0  0  0  0  0  0
  -83.2810   37.3830  103.3750 C   0  0  1  0  0  0  0  0  0  0  0  0
  -81.9560   36.8500   99.9640 C   0  0  1  0  0  0  0  0  0  0  0  0
  -82.5270   37.9550   99.0850 C   0  0  0  0  0  0  0  0  0  0  0  0
  -80.4850   36.5800   99.6350 C   0  0  0  0  0  0  0  0  0  0  0  0
  -82.6900   35.5650   99.6100 C   0  0  0  0  0  0  0  0  0  0  0  0
  -84.5490   37.1980  104.1350 C   0  0  2  0  0  0  0  0  0  0  0  0
  -86.4070   35.7490  104.7030 C   0  0  1  0  0  0  0  0  0  0  0  0
  -85.1500   35.9380  104.1230 C   0  0  0  0  0  0  0  0  0  0  0  0
  -87.0710   36.8420  105.2930 C   0  0  0  0  0  0  0  0  0  0  0  0
  -85.2630   38.2950  104.6640 C   0  0  0  0  0  0  0  0  0  0  0  0
  -86.4970   38.1090  105.2700 C   0  0  0  0  0  0  0  0  0  0  0  0
  -84.4880   34.9130  103.5530 F   0  0  0  0  0  0  0  0  0  0  0  0
  -86.8900   34.4350  104.7730 N   0  0  0  0  0  0  0  0  0  0  0  0
  -88.4820   33.9810  104.8130 S   0  0  1  0  0  4  0  0  0  0  0  0
  -89.0040   34.1500  106.5050 C   0  0  0  0  0  0  0  0  0  0  0  0
  -88.7460   33.4040  108.7870 C   0  0  0  0  0  0  0  0  0  0  0  0
  -88.3920   33.3110  107.4430 C   0  0  0  0  0  0  0  0  0  0  0  0
  -89.7040   34.3200  109.2030 C   0  0  0  0  0  0  0  0  0  0  0  0
  -89.9700   35.0890  106.9380 C   0  0  1  0  0  0  0  0  0  0  0  0
  -90.3310   35.1490  108.2840 C   0  0  0  0  0  0  0  0  0  0  0  0
  -90.6120   35.9090  106.0710 F   0  0  0  0  0  0  0  0  0  0  0  0
  -87.4210   32.4450  107.0500 F   0  0  0  0  0  0  0  0  0  0  0  0
  -89.2550   34.8460  103.9830 O   0  0  0  0  0  0  0  0  0  0  0  0
  -88.4230   32.5840  104.5830 O   0  0  0  0  0  0  0  0  0  0  0  0
  -44.7239   -5.3210   75.6473 H   0  0  0  0  0  0  0  0  0  0  0  0
  -46.2483   -2.6601   74.7089 H   0  0  0  0  0  0  0  0  0  0  0  0
  -46.4405   -5.0294   75.6929 H   0  0  0  0  0  0  0  0  0  0  0  0
  -45.1597   -3.9374   72.6115 H   0  0  0  0  0  0  0  0  0  0  0  0
  -45.1648   -2.2567   73.4263 H   0  0  0  0  0  0  0  0  0  0  0  0
  -43.1305   -3.2885   75.7883 H   0  0  0  0  0  0  0  0  0  0  0  0
  -43.3049   -4.2533   73.3681 H   0  0  0  0  0  0  0  0  0  0  0  0
  -43.3854   -2.5262   74.0792 H   0  0  0  0  0  0  0  0  0  0  0  0
  -44.8182   -4.0737   78.0134 H   0  0  0  0  0  0  0  0  0  0  0  0
  -45.0522   -5.6448   77.4602 H   0  0  0  0  0  0  0  0  0  0  0  0
  -47.6717   -4.5765   73.7151 H   0  0  0  0  0  0  0  0  0  0  0  0
  -49.8934   -2.1212   74.1081 H   0  0  0  0  0  0  0  0  0  0  0  0
  -49.8852   -3.7366   72.1111 H   0  0  0  0  0  0  0  0  0  0  0  0
  -48.2893   -4.2857   72.5042 H   0  0  0  0  0  0  0  0  0  0  0  0
  -51.5684   -3.0579   76.2964 H   0  0  0  0  0  0  0  0  0  0  0  0
  -51.3515   -1.4411   75.5443 H   0  0  0  0  0  0  0  0  0  0  0  0
  -52.9692   -2.2220   75.5443 H   0  0  0  0  0  0  0  0  0  0  0  0
  -52.8967   -1.4765   73.5392 H   0  0  0  0  0  0  0  0  0  0  0  0
  -51.5040   -1.7398   72.4357 H   0  0  0  0  0  0  0  0  0  0  0  0
  -52.8805   -2.8938   72.4357 H   0  0  0  0  0  0  0  0  0  0  0  0
  -52.3354   -4.7813   75.1865 H   0  0  0  0  0  0  0  0  0  0  0  0
  -53.1589   -4.4228   73.6309 H   0  0  0  0  0  0  0  0  0  0  0  0
  -51.5201   -5.1584   73.6309 H   0  0  0  0  0  0  0  0  0  0  0  0
  -48.3815   -3.3894   70.8616 H   0  0  0  0  0  0  0  0  0  0  0  0
  -46.0807   -1.3207   69.8432 H   0  0  0  0  0  0  0  0  0  0  0  0
  -46.5775   -1.5271   71.1395 H   0  0  0  0  0  0  0  0  0  0  0  0
  -46.8816   -2.9007   67.8372 H   0  0  0  0  0  0  0  0  0  0  0  0
  -45.3324   -2.4237   68.7965 H   0  0  0  0  0  0  0  0  0  0  0  0
  -46.0488   -4.5012   71.3519 H   0  0  0  0  0  0  0  0  0  0  0  0
  -47.7127   -4.8302   70.5354 H   0  0  0  0  0  0  0  0  0  0  0  0
  -46.8522   -4.6956   68.7754 H   0  0  0  0  0  0  0  0  0  0  0  0
  -45.2526   -4.1393   69.5922 H   0  0  0  0  0  0  0  0  0  0  0  0
  -48.0093    0.0181   69.1959 H   0  0  0  0  0  0  0  0  0  0  0  0
  -45.7057    0.8152   65.9895 H   0  0  0  0  0  0  0  0  0  0  0  0
  -43.2323    2.2733   66.7780 H   0  0  0  0  0  0  0  0  0  0  0  0
  -42.8612    0.9765   68.0937 H   0  0  0  0  0  0  0  0  0  0  0  0
  -44.4383    0.3531   68.2199 H   0  0  0  0  0  0  0  0  0  0  0  0
  -42.3095    1.0741   65.4422 H   0  0  0  0  0  0  0  0  0  0  0  0
  -41.9939   -0.1373   66.8408 H   0  0  0  0  0  0  0  0  0  0  0  0
  -45.0367   -0.0474   65.0393 H   0  0  0  0  0  0  0  0  0  0  0  0
  -43.3450   -0.3869   64.5092 H   0  0  0  0  0  0  0  0  0  0  0  0
  -42.9882   -1.4978   65.9888 H   0  0  0  0  0  0  0  0  0  0  0  0
  -47.9788   -1.8762   67.1983 H   0  0  0  0  0  0  0  0  0  0  0  0
  -47.9284    1.5936   67.9387 H   0  0  0  0  0  0  0  0  0  0  0  0
  -87.9717    8.4838   75.2880 H   0  0  0  0  0  0  0  0  0  0  0  0
  -86.7227    5.6426   74.4529 H   0  0  0  0  0  0  0  0  0  0  0  0
  -86.3043    8.0838   75.1895 H   0  0  0  0  0  0  0  0  0  0  0  0
  -87.8385    6.8640   72.3270 H   0  0  0  0  0  0  0  0  0  0  0  0
  -87.9026    5.2398   73.2498 H   0  0  0  0  0  0  0  0  0  0  0  0
  -89.6879    6.5935   75.6723 H   0  0  0  0  0  0  0  0  0  0  0  0
  -89.6174    7.3623   73.1778 H   0  0  0  0  0  0  0  0  0  0  0  0
  -89.6051    5.6892   74.0131 H   0  0  0  0  0  0  0  0  0  0  0  0
  -87.9951    7.3284   77.7211 H   0  0  0  0  0  0  0  0  0  0  0  0
  -87.2927    8.7292   77.1099 H   0  0  0  0  0  0  0  0  0  0  0  0
  -85.2608    7.3877   73.1242 H   0  0  0  0  0  0  0  0  0  0  0  0
  -83.0046    5.0256   73.6995 H   0  0  0  0  0  0  0  0  0  0  0  0
  -83.1852    6.3896   71.5286 H   0  0  0  0  0  0  0  0  0  0  0  0
  -84.7673    6.9167   71.9198 H   0  0  0  0  0  0  0  0  0  0  0  0
  -81.7344    6.1158   75.6074 H   0  0  0  0  0  0  0  0  0  0  0  0
  -80.7001    4.7259   75.1331 H   0  0  0  0  0  0  0  0  0  0  0  0
  -80.0237    6.3900   75.1331 H   0  0  0  0  0  0  0  0  0  0  0  0
  -80.4619    4.0006   73.3567 H   0  0  0  0  0  0  0  0  0  0  0  0
  -81.6214    4.3789   72.0379 H   0  0  0  0  0  0  0  0  0  0  0  0
  -79.9869    5.1240   72.0379 H   0  0  0  0  0  0  0  0  0  0  0  0
  -80.4238    7.8817   73.7939 H   0  0  0  0  0  0  0  0  0  0  0  0
  -79.8530    7.0010   72.3361 H   0  0  0  0  0  0  0  0  0  0  0  0
  -81.4689    7.7856   72.3361 H   0  0  0  0  0  0  0  0  0  0  0  0
  -86.4725    5.3052   71.5517 H   0  0  0  0  0  0  0  0  0  0  0  0
  -86.7343    3.7317   69.5181 H   0  0  0  0  0  0  0  0  0  0  0  0
  -86.2048    3.9457   70.7963 H   0  0  0  0  0  0  0  0  0  0  0  0
  -86.0716    5.3493   67.4814 H   0  0  0  0  0  0  0  0  0  0  0  0
  -87.5787    4.7090   68.4134 H   0  0  0  0  0  0  0  0  0  0  0  0
  -87.0749    6.9274   70.9598 H   0  0  0  0  0  0  0  0  0  0  0  0
  -85.4463    7.3499   70.1184 H   0  0  0  0  0  0  0  0  0  0  0  0
  -86.3525    7.1343   68.3899 H   0  0  0  0  0  0  0  0  0  0  0  0
  -87.8531    6.3827   69.2421 H   0  0  0  0  0  0  0  0  0  0  0  0
  -84.6068    2.6499   68.7539 H   0  0  0  0  0  0  0  0  0  0  0  0
  -87.2820    1.5172   65.8637 H   0  0  0  0  0  0  0  0  0  0  0  0
  -89.6975    0.1431   66.9328 H   0  0  0  0  0  0  0  0  0  0  0  0
  -89.8924    1.4386   68.2836 H   0  0  0  0  0  0  0  0  0  0  0  0
  -88.2983    2.0680   68.1989 H   0  0  0  0  0  0  0  0  0  0  0  0
  -90.7742    1.3590   65.7318 H   0  0  0  0  0  0  0  0  0  0  0  0
  -90.8606    2.5940   67.1419 H   0  0  0  0  0  0  0  0  0  0  0  0
  -88.0593    2.4222   64.9720 H   0  0  0  0  0  0  0  0  0  0  0  0
  -89.7953    2.7554   64.6456 H   0  0  0  0  0  0  0  0  0  0  0  0
  -89.9665    3.9125   66.1221 H   0  0  0  0  0  0  0  0  0  0  0  0
  -84.8619    4.2061   66.6639 H   0  0  0  0  0  0  0  0  0  0  0  0
  -85.0149    0.7803   67.7863 H   0  0  0  0  0  0  0  0  0  0  0  0
  -53.7124  -34.9650  109.8779 H   0  0  0  0  0  0  0  0  0  0  0  0
  -52.8164  -32.1689  108.5392 H   0  0  0  0  0  0  0  0  0  0  0  0
  -53.6629  -34.5829  108.1928 H   0  0  0  0  0  0  0  0  0  0  0  0
  -50.6954  -33.3957  109.6278 H   0  0  0  0  0  0  0  0  0  0  0  0
  -51.6090  -31.7701  109.7005 H   0  0  0  0  0  0  0  0  0  0  0  0
  -53.9744  -33.0487  111.5791 H   0  0  0  0  0  0  0  0  0  0  0  0
  -51.5141  -33.9015  111.4128 H   0  0  0  0  0  0  0  0  0  0  0  0
  -52.3037  -32.2007  111.4282 H   0  0  0  0  0  0  0  0  0  0  0  0
  -55.6160  -34.5937  111.0722 H   0  0  0  0  0  0  0  0  0  0  0  0
  -56.0937  -33.8843  109.6239 H   0  0  0  0  0  0  0  0  0  0  0  0
  -51.6853  -33.8906  107.0021 H   0  0  0  0  0  0  0  0  0  0  0  0
  -52.1386  -31.2233  105.0081 H   0  0  0  0  0  0  0  0  0  0  0  0
  -50.0388  -32.6965  104.9737 H   0  0  0  0  0  0  0  0  0  0  0  0
  -50.4031  -33.3890  106.4934 H   0  0  0  0  0  0  0  0  0  0  0  0
  -53.9927  -31.3728  103.8984 H   0  0  0  0  0  0  0  0  0  0  0  0
  -53.4213  -30.6095  102.3761 H   0  0  0  0  0  0  0  0  0  0  0  0
  -53.9523  -32.3255  102.3761 H   0  0  0  0  0  0  0  0  0  0  0  0
  -50.6527  -30.3575  103.6954 H   0  0  0  0  0  0  0  0  0  0  0  0
  -50.2619  -31.2911  102.2113 H   0  0  0  0  0  0  0  0  0  0  0  0
  -51.6413  -30.1406  102.2113 H   0  0  0  0  0  0  0  0  0  0  0  0
  -51.4278  -34.0683  103.2043 H   0  0  0  0  0  0  0  0  0  0  0  0
  -52.5057  -33.5499  101.8641 H   0  0  0  0  0  0  0  0  0  0  0  0
  -50.7760  -33.0654  101.8641 H   0  0  0  0  0  0  0  0  0  0  0  0
  -49.9357  -32.0837  108.3752 H   0  0  0  0  0  0  0  0  0  0  0  0
  -47.9187  -30.3564  108.6542 H   0  0  0  0  0  0  0  0  0  0  0  0
  -49.2013  -30.5595  108.1596 H   0  0  0  0  0  0  0  0  0  0  0  0
  -45.8923  -31.9125  107.8329 H   0  0  0  0  0  0  0  0  0  0  0  0
  -46.7719  -31.3698  109.4031 H   0  0  0  0  0  0  0  0  0  0  0  0
  -49.3418  -33.5631  108.8467 H   0  0  0  0  0  0  0  0  0  0  0  0
  -48.5543  -33.9138  107.1818 H   0  0  0  0  0  0  0  0  0  0  0  0
  -46.7893  -33.7144  108.0299 H   0  0  0  0  0  0  0  0  0  0  0  0
  -47.6048  -33.0516  109.5980 H   0  0  0  0  0  0  0  0  0  0  0  0
  -47.2302  -29.1413  106.5760 H   0  0  0  0  0  0  0  0  0  0  0  0
  -44.2558  -28.2536  109.3110 H   0  0  0  0  0  0  0  0  0  0  0  0
  -45.0972  -26.9045  111.8380 H   0  0  0  0  0  0  0  0  0  0  0  0
  -46.4992  -28.1434  112.0506 H   0  0  0  0  0  0  0  0  0  0  0  0
  -46.5824  -28.6414  110.4258 H   0  0  0  0  0  0  0  0  0  0  0  0
  -43.8984  -28.2401  112.7615 H   0  0  0  0  0  0  0  0  0  0  0  0
  -45.3609  -29.4114  112.8647 H   0  0  0  0  0  0  0  0  0  0  0  0
  -43.3977  -29.1840  109.9226 H   0  0  0  0  0  0  0  0  0  0  0  0
  -42.9487  -29.5973  111.6081 H   0  0  0  0  0  0  0  0  0  0  0  0
  -44.4469  -30.7148  111.8515 H   0  0  0  0  0  0  0  0  0  0  0  0
  -44.2036  -30.5446  107.8431 H   0  0  0  0  0  0  0  0  0  0  0  0
  -45.2089  -27.0243  108.0294 H   0  0  0  0  0  0  0  0  0  0  0  0
  -80.5133   40.4038  106.3282 H   0  0  0  0  0  0  0  0  0  0  0  0
  -82.5140   39.2122  104.9375 H   0  0  0  0  0  0  0  0  0  0  0  0
  -80.4887   39.8735  104.6781 H   0  0  0  0  0  0  0  0  0  0  0  0
  -83.4331   38.6723  106.1951 H   0  0  0  0  0  0  0  0  0  0  0  0
  -82.4235   37.1127  106.3883 H   0  0  0  0  0  0  0  0  0  0  0  0
  -80.1536   38.6507  108.1852 H   0  0  0  0  0  0  0  0  0  0  0  0
  -82.6553   39.3591  107.9397 H   0  0  0  0  0  0  0  0  0  0  0  0
  -81.7818   37.7071  108.0889 H   0  0  0  0  0  0  0  0  0  0  0  0
  -78.5213   40.1293  107.5293 H   0  0  0  0  0  0  0  0  0  0  0  0
  -78.0890   39.4031  106.0751 H   0  0  0  0  0  0  0  0  0  0  0  0
  -82.4782   39.0253  103.5504 H   0  0  0  0  0  0  0  0  0  0  0  0
  -81.7404   36.2668  101.7679 H   0  0  0  0  0  0  0  0  0  0  0  0
  -83.9998   37.4880  101.6131 H   0  0  0  0  0  0  0  0  0  0  0  0
  -83.6989   38.3540  103.0708 H   0  0  0  0  0  0  0  0  0  0  0  0
  -82.9392   38.7528   99.7203 H   0  0  0  0  0  0  0  0  0  0  0  0
  -81.7292   38.3675   98.4499 H   0  0  0  0  0  0  0  0  0  0  0  0
  -83.3250   37.5428   98.4499 H   0  0  0  0  0  0  0  0  0  0  0  0
  -79.9136   36.4751  100.5691 H   0  0  0  0  0  0  0  0  0  0  0  0
  -80.4045   35.6521   99.0498 H   0  0  0  0  0  0  0  0  0  0  0  0
  -80.0802   37.4189   99.0498 H   0  0  0  0  0  0  0  0  0  0  0  0
  -82.9865   35.0458  100.5333 H   0  0  0  0  0  0  0  0  0  0  0  0
  -83.5869   35.8056   99.0204 H   0  0  0  0  0  0  0  0  0  0  0  0
  -82.0272   34.9146   99.0204 H   0  0  0  0  0  0  0  0  0  0  0  0
  -83.9891   37.2067  105.0818 H   0  0  0  0  0  0  0  0  0  0  0  0
  -85.9280   35.5199  105.6664 H   0  0  0  0  0  0  0  0  0  0  0  0
  -84.6708   35.7003  105.0842 H   0  0  0  0  0  0  0  0  0  0  0  0
  -88.0459   36.9278  104.7909 H   0  0  0  0  0  0  0  0  0  0  0  0
  -87.0683   36.5869  106.3630 H   0  0  0  0  0  0  0  0  0  0  0  0
  -84.6103   38.7618  105.4163 H   0  0  0  0  0  0  0  0  0  0  0  0
  -85.5150   38.8801  103.7672 H   0  0  0  0  0  0  0  0  0  0  0  0
  -87.2081   38.7717  104.7550 H   0  0  0  0  0  0  0  0  0  0  0  0
  -86.2945   38.3170  106.3310 H   0  0  0  0  0  0  0  0  0  0  0  0
  -86.4945   33.9584  103.9500 H   0  0  0  0  0  0  0  0  0  0  0  0
  -89.7859   33.3943  106.3392 H   0  0  0  0  0  0  0  0  0  0  0  0
  -89.1098   32.4100  109.0864 H   0  0  0  0  0  0  0  0  0  0  0  0
  -87.8256   33.7777  109.2594 H   0  0  0  0  0  0  0  0  0  0  0  0
  -87.6027   34.0611  107.5990 H   0  0  0  0  0  0  0  0  0  0  0  0
  -90.4977   33.7425  109.6995 H   0  0  0  0  0  0  0  0  0  0  0  0
  -89.1230   35.0247  109.8160 H   0  0  0  0  0  0  0  0  0  0  0  0
  -90.7669   34.3526  106.7571 H   0  0  0  0  0  0  0  0  0  0  0  0
  -91.4069   34.9258  108.3356 H   0  0  0  0  0  0  0  0  0  0  0  0
  -90.0117   36.1564  108.5894 H   0  0  0  0  0  0  0  0  0  0  0  0
  -89.7957   35.4511  104.5501 H   0  0  0  0  0  0  0  0  0  0  0  0
  -88.4029   32.1073  105.4504 H   0  0  0  0  0  0  0  0  0  0  0  0
  1  3  1  0
  2  3  1  0
  2  4  1  0
  1  5  1  0
  4  6  1  0
  5  6  1  0
  1  7  1  0
  2  8  1  0
  8  9  1  0
  9 10  1  0
 10 11  1  0
  8 12  1  0
 11 12  1  0
 10 13  1  0
 13 14  1  1
 13 15  1  0
 13 16  1  0
 12 17  1  0
 17 19  1  0
 18 19  1  0
 18 20  1  0
 17 21  1  0
 20 22  1  0
 21 22  1  0
 19 23  1  0
 18 24  1  0
 24 25  1  0
 25 26  1  0
 26 28  1  0
 27 28  1  0
 27 29  1  0
 26 30  1  0
 29 31  1  0
 30 31  1  0
 30 32  1  0
 28 33  1  0
 25 34  1  6
 25 35  1  0
 36 38  1  0
 37 38  1  0
 37 39  1  0
 36 40  1  0
 39 41  1  0
 40 41  1  0
 36 42  1  0
 37 43  1  0
 43 44  1  0
 44 45  1  0
 45 46  1  0
 43 47  1  0
 46 47  1  0
 45 48  1  0
 48 49  1  1
 48 50  1  0
 48 51  1  0
 47 52  1  0
 52 54  1  0
 53 54  1  0
 53 55  1  0
 52 56  1  0
 55 57  1  0
 56 57  1  0
 54 58  1  0
 53 59  1  0
 59 60  1  0
 60 61  1  0
 61 63  1  0
 62 63  1  0
 62 64  1  0
 61 65  1  0
 64 66  1  0
 65 66  1  0
 65 67  1  0
 63 68  1  0
 60 69  1  6
 60 70  1  0
 71 73  1  0
 72 73  1  0
 72 74  1  0
 71 75  1  0
 74 76  1  0
 75 76  1  0
 71 77  1  0
 72 78  1  0
 78 79  1  0
 79 80  1  0
 80 81  1  0
 78 82  1  0
 81 82  1  0
 80 83  1  0
 83 84  1  1
 83 85  1  0
 83 86  1  0
 82 87  1  0
 87 89  1  0
 88 89  1  0
 88 90  1  0
 87 91  1  0
 90 92  1  0
 91 92  1  0
 89 93  1  0
 88 94  1  0
 94 95  1  0
 95 96  1  0
 96 98  1  0
 97 98  1  0
 97 99  1  0
 96100  1  0
 99101  1  0
100101  1  0
100102  1  0
 98103  1  0
 95104  1  6
 95105  1  0
106108  1  0
107108  1  0
107109  1  0
106110  1  0
109111  1  0
110111  1  0
106112  1  0
107113  1  0
113114  1  0
114115  1  0
115116  1  0
113117  1  0
116117  1  0
115118  1  0
118119  1  6
118120  1  0
118121  1  0
117122  1  0
122124  1  0
123124  1  0
123125  1  0
122126  1  0
125127  1  0
126127  1  0
124128  1  0
123129  1  0
129130  1  0
130131  1  0
131133  1  0
132133  1  0
132134  1  0
131135  1  0
134136  1  0
135136  1  0
135137  1  0
133138  1  0
130139  1  6
130140  1  0
  1141  1  0
  2142  1  6
  3143  1  0
  4144  1  0
  4145  1  0
  5146  1  0
  6147  1  0
  6148  1  0
  7149  1  0
  7150  1  0
  8151  1  0
 10152  1  1
 11153  1  0
 12154  1  0
 14155  1  0
 14156  1  0
 14157  1  0
 15158  1  0
 15159  1  0
 15160  1  0
 16161  1  0
 16162  1  0
 16163  1  0
 17164  1  1
 18165  1  6
 19166  1  0
 20167  1  0
 20168  1  0
 21169  1  0
 21170  1  0
 22171  1  0
 22172  1  0
 24173  1  0
 26174  1  6
 27175  1  0
 27176  1  0
 28177  1  0
 29178  1  0
 29179  1  0
 30180  1  0
 31181  1  0
 31182  1  0
 34183  1  0
 35184  1  0
 36185  1  0
 37186  1  0
 38187  1  0
 39188  1  0
 39189  1  0
 40190  1  0
 41191  1  0
 41192  1  0
 42193  1  0
 42194  1  0
 43195  1  0
 45196  1  1
 46197  1  0
 47198  1  1
 49199  1  0
 49200  1  0
 49201  1  0
 50202  1  0
 50203  1  0
 50204  1  0
 51205  1  0
 51206  1  0
 51207  1  0
 52208  1  1
 53209  1  0
 54210  1  0
 55211  1  0
 55212  1  0
 56213  1  0
 56214  1  0
 57215  1  0
 57216  1  0
 59217  1  0
 61218  1  6
 62219  1  0
 62220  1  0
 63221  1  0
 64222  1  0
 64223  1  0
 65224  1  0
 66225  1  0
 66226  1  0
 69227  1  0
 70228  1  0
 71229  1  0
 72230  1  6
 73231  1  0
 74232  1  0
 74233  1  0
 75234  1  0
 76235  1  0
 76236  1  0
 77237  1  0
 77238  1  0
 78239  1  6
 80240  1  0
 81241  1  0
 82242  1  0
 84243  1  0
 84244  1  0
 84245  1  0
 85246  1  0
 85247  1  0
 85248  1  0
 86249  1  0
 86250  1  0
 86251  1  0
 87252  1  1
 88253  1  6
 89254  1  0
 90255  1  0
 90256  1  0
 91257  1  0
 91258  1  0
 92259  1  0
 92260  1  0
 94261  1  0
 96262  1  0
 97263  1  0
 97264  1  0
 98265  1  0
 99266  1  0
 99267  1  0
100268  1  0
101269  1  0
101270  1  0
104271  1  0
105272  1  0
106273  1  0
107274  1  6
108275  1  0
109276  1  0
109277  1  0
110278  1  0
111279  1  0
111280  1  0
112281  1  0
112282  1  0
113283  1  6
115284  1  1
116285  1  0
117286  1  1
119287  1  0
119288  1  0
119289  1  0
120290  1  0
120291  1  0
120292  1  0
121293  1  0
121294  1  0
121295  1  0
122296  1  1
123297  1  6
124298  1  0
125299  1  0
125300  1  0
126301  1  0
126302  1  0
127303  1  0
127304  1  0
129305  1  0
131306  1  0
132307  1  0
132308  1  0
133309  1  0
134310  1  0
134311  1  0
135312  1  1
136313  1  0
136314  1  0
139315  1  0
140316  1  0
M  END
>  <PDBID>  (1) 
5HIE

>  <PDB ID>  (1) 
5HIE

>  <Generic Name>  (1) 
Dabrafenib

>  <Brand Name>  (1) 
Tafinlar

>  <DrugBank ID>  (1) 
DB08912

>  <ATC Codes>  (1) 
L01XE23

>  <Ligand ID>  (1) 
P06

>  <Target Name>  (1) 
RAF proto-oncogene serine/threonine-protein kinase

>  <UniProt ID>  (1) 
P04049

>  <PDB ID.1>  (1) 
5HIE

>  <Seq. Identity>  (1) 
77%

$$$$
