PDB_DB08895_97
     RDKit          3D

 57 59  0  0  0  0  0  0  0  0999 V2000
   11.4000   14.0760  -15.3490 C   0  0  1  0  0  0  0  0  0  0  0  0
   11.1110   14.1980  -16.8320 C   0  0  0  0  0  0  0  0  0  0  0  0
   10.0430   11.9040  -16.9620 C   0  0  0  0  0  0  0  0  0  0  0  0
   10.5440   11.6320  -15.5380 C   0  0  0  0  0  0  0  0  0  0  0  0
   11.7130   12.5520  -15.1220 C   0  0  1  0  0  0  0  0  0  0  0  0
    9.9090   13.3800  -17.0700 N   0  0  0  0  0  0  0  0  0  0  0  0
    8.6640   15.1600  -17.5640 O   0  0  0  0  0  0  0  0  0  0  0  0
    8.7790   13.9460  -17.4370 C   0  0  0  0  0  0  0  0  0  0  0  0
    7.5860   13.0420  -17.6590 C   0  0  0  0  0  0  0  0  0  0  0  0
    6.4020   13.8860  -17.8860 C   0  0  0  0  0  0  0  0  0  0  0  0
    5.4400   14.5060  -18.0770 N   0  0  0  0  0  0  0  0  0  0  0  0
   13.0070   11.9550  -15.7290 C   0  0  0  0  0  0  0  0  0  0  0  0
   12.6080   14.8790  -14.9290 N   0  0  0  0  0  0  0  0  0  0  0  0
   13.6000   15.3730  -15.8880 C   0  0  0  0  0  0  0  0  0  0  0  0
   12.8720   15.1980  -13.6120 C   0  0  0  0  0  0  0  0  0  0  0  0
   12.0370   14.7960  -12.5530 C   0  0  0  0  0  0  0  0  0  0  0  0
   10.7790   14.0680  -12.4890 C   0  0  0  0  0  0  0  0  0  0  0  0
   10.5020   14.0170  -11.1370 C   0  0  0  0  0  0  0  0  0  0  0  0
   11.4780   14.6740  -10.4210 N   0  0  0  0  0  0  0  0  0  0  0  0
   12.4150   15.1380  -11.2680 C   0  0  0  0  0  0  0  0  0  0  0  0
   13.5300   15.8160  -10.9460 N   0  0  0  0  0  0  0  0  0  0  0  0
   14.3090   16.1740  -12.0020 C   0  0  0  0  0  0  0  0  0  0  0  0
   14.0160   15.9020  -13.3080 N   0  0  0  0  0  0  0  0  0  0  0  0
   10.5483   14.4522  -14.7633 H   0  0  0  0  0  0  0  0  0  0  0  0
   10.9207   15.2475  -17.1011 H   0  0  0  0  0  0  0  0  0  0  0  0
   11.9614   13.8588  -17.4417 H   0  0  0  0  0  0  0  0  0  0  0  0
   10.7673   11.5302  -17.7007 H   0  0  0  0  0  0  0  0  0  0  0  0
    9.0875   11.3956  -17.1586 H   0  0  0  0  0  0  0  0  0  0  0  0
    9.7100   11.7869  -14.8377 H   0  0  0  0  0  0  0  0  0  0  0  0
   10.9155   10.5970  -15.5126 H   0  0  0  0  0  0  0  0  0  0  0  0
   11.8757   12.5678  -14.0342 H   0  0  0  0  0  0  0  0  0  0  0  0
    8.6239   15.5830  -16.6698 H   0  0  0  0  0  0  0  0  0  0  0  0
    8.4774   14.0278  -16.3823 H   0  0  0  0  0  0  0  0  0  0  0  0
    7.7615   12.4036  -18.5374 H   0  0  0  0  0  0  0  0  0  0  0  0
    7.4297   12.3985  -16.7807 H   0  0  0  0  0  0  0  0  0  0  0  0
    6.5037   14.3249  -16.8825 H   0  0  0  0  0  0  0  0  0  0  0  0
    6.6804   13.9917  -18.9449 H   0  0  0  0  0  0  0  0  0  0  0  0
    5.0210   14.7761  -17.1757 H   0  0  0  0  0  0  0  0  0  0  0  0
    5.6781   15.3531  -18.6124 H   0  0  0  0  0  0  0  0  0  0  0  0
   13.6823   11.6434  -14.9185 H   0  0  0  0  0  0  0  0  0  0  0  0
   12.7525   11.0833  -16.3498 H   0  0  0  0  0  0  0  0  0  0  0  0
   13.5051   12.7143  -16.3498 H   0  0  0  0  0  0  0  0  0  0  0  0
   14.4557   15.7991  -15.3437 H   0  0  0  0  0  0  0  0  0  0  0  0
   13.9448   14.5414  -16.5200 H   0  0  0  0  0  0  0  0  0  0  0  0
   13.1441   16.1493  -16.5200 H   0  0  0  0  0  0  0  0  0  0  0  0
   12.2893   16.1247  -13.7197 H   0  0  0  0  0  0  0  0  0  0  0  0
   11.4845   15.7441  -12.6287 H   0  0  0  0  0  0  0  0  0  0  0  0
    9.9869   14.6041  -13.0323 H   0  0  0  0  0  0  0  0  0  0  0  0
   10.8377   13.0716  -12.9513 H   0  0  0  0  0  0  0  0  0  0  0  0
    9.5299   14.4958  -10.9481 H   0  0  0  0  0  0  0  0  0  0  0  0
   10.4738   12.9645  -10.8184 H   0  0  0  0  0  0  0  0  0  0  0  0
   11.0570   15.4620   -9.9085 H   0  0  0  0  0  0  0  0  0  0  0  0
   11.8641   16.0858  -11.3582 H   0  0  0  0  0  0  0  0  0  0  0  0
   13.2503   16.6741  -10.4496 H   0  0  0  0  0  0  0  0  0  0  0  0
   14.4033   17.2683  -11.9421 H   0  0  0  0  0  0  0  0  0  0  0  0
   15.1764   15.5156  -11.8470 H   0  0  0  0  0  0  0  0  0  0  0  0
   14.8086   15.3648  -13.6877 H   0  0  0  0  0  0  0  0  0  0  0  0
  1  2  1  0
  3  4  1  0
  1  5  1  0
  4  5  1  0
  2  6  1  0
  3  6  1  0
  6  8  1  0
  7  8  1  0
  8  9  1  0
  9 10  1  0
 10 11  1  0
  5 12  1  0
  1 13  1  0
 13 14  1  0
 13 15  1  0
 15 16  1  0
 16 17  1  0
 17 18  1  0
 18 19  1  0
 16 20  1  0
 19 20  1  0
 20 21  1  0
 21 22  1  0
 15 23  1  0
 22 23  1  0
  1 24  1  1
  2 25  1  0
  2 26  1  0
  3 27  1  0
  3 28  1  0
  4 29  1  0
  4 30  1  0
  5 31  1  1
  7 32  1  0
  8 33  1  0
  9 34  1  0
  9 35  1  0
 10 36  1  0
 10 37  1  0
 11 38  1  0
 11 39  1  0
 12 40  1  0
 12 41  1  0
 12 42  1  0
 14 43  1  0
 14 44  1  0
 14 45  1  0
 15 46  1  0
 16 47  1  0
 17 48  1  0
 17 49  1  0
 18 50  1  0
 18 51  1  0
 19 52  1  0
 20 53  1  0
 21 54  1  0
 22 55  1  0
 22 56  1  0
 23 57  1  0
M  END
>  <PDBID>  (1) 
3EYG

>  <PDB ID>  (1) 
3EYG

>  <Generic Name>  (1) 
Tofacitinib

>  <Brand Name>  (1) 
Xeljanz#Xeljanz XR

>  <DrugBank ID>  (1) 
DB08895

>  <ATC Codes>  (1) 
L04AA29

>  <Ligand ID>  (1) 
MI1

>  <Target Name>  (1) 
Tyrosine-protein kinase JAK2

>  <UniProt ID>  (1) 
O60674

>  <PDB ID.1>  (1) 
3EYG

>  <Seq. Identity>  (1) 
57%

$$$$
