PDB_DB00533_98
     RDKit          3D

 36 38  0  0  0  0  0  0  0  0999 V2000
   23.4420   38.8480    5.7770 C   0  0  0  0  0  0  0  0  0  0  0  0
   22.4810   39.2190    4.7650 C   0  0  0  0  0  0  0  0  0  0  0  0
   21.2840   38.5890    5.1420 C   0  0  0  0  0  0  0  0  0  0  0  0
   22.7340   38.0310    6.6730 C   0  0  0  0  0  0  0  0  0  0  0  0
   21.4790   37.9080    6.2610 O   0  0  0  0  0  0  0  0  0  0  0  0
   23.2740   37.4430    7.8230 O   0  0  0  0  0  0  0  0  0  0  0  0
   24.9370   39.2420    5.9070 C   0  0  0  0  0  0  0  0  0  0  0  0
   25.8510   38.9130    4.9100 C   0  0  0  0  0  0  0  0  0  0  0  0
   27.1990   39.2760    5.0550 C   0  0  0  0  0  0  0  0  0  0  0  0
   27.6270   39.9560    6.1940 C   0  0  0  0  0  0  0  0  0  0  0  0
   26.7140   40.2790    7.1930 C   0  0  0  0  0  0  0  0  0  0  0  0
   25.3660   39.9200    7.0470 C   0  0  0  0  0  0  0  0  0  0  0  0
   22.6540   40.0840    3.5360 C   0  0  0  0  0  0  0  0  0  0  0  0
   23.2170   41.3540    3.6120 C   0  0  0  0  0  0  0  0  0  0  0  0
   23.3460   42.1150    2.4570 C   0  0  0  0  0  0  0  0  0  0  0  0
   22.9100   41.6190    1.2400 C   0  0  0  0  0  0  0  0  0  0  0  0
   22.3410   40.3510    1.1710 C   0  0  0  0  0  0  0  0  0  0  0  0
   22.2130   39.5920    2.3220 C   0  0  0  0  0  0  0  0  0  0  0  0
   23.0620   42.5880   -0.2400 S   0  0  0  0  0  0  0  0  0  0  0  0
   21.9670   43.6240   -0.2690 O   0  0  0  0  0  0  0  0  0  0  0  0
   22.9530   41.6840   -1.4550 O   0  0  0  0  0  0  0  0  0  0  0  0
   24.6260   43.4350   -0.2550 C   0  0  0  0  0  0  0  0  0  0  0  0
   20.5052   39.3485    5.3055 H   0  0  0  0  0  0  0  0  0  0  0  0
   20.9633   37.9021    4.3449 H   0  0  0  0  0  0  0  0  0  0  0  0
   25.5183   38.3709    4.0125 H   0  0  0  0  0  0  0  0  0  0  0  0
   27.9217   39.0225    4.2654 H   0  0  0  0  0  0  0  0  0  0  0  0
   28.6850   40.2368    6.3029 H   0  0  0  0  0  0  0  0  0  0  0  0
   27.0482   40.8140    8.0941 H   0  0  0  0  0  0  0  0  0  0  0  0
   24.6434   40.1748    7.8363 H   0  0  0  0  0  0  0  0  0  0  0  0
   23.5573   41.7524    4.5792 H   0  0  0  0  0  0  0  0  0  0  0  0
   23.7969   43.1170    2.5095 H   0  0  0  0  0  0  0  0  0  0  0  0
   21.9943   39.9532    0.2059 H   0  0  0  0  0  0  0  0  0  0  0  0
   21.7578   38.5919    2.2699 H   0  0  0  0  0  0  0  0  0  0  0  0
   24.9561   43.6138    0.7790 H   0  0  0  0  0  0  0  0  0  0  0  0
   25.3723   42.8178   -0.7766 H   0  0  0  0  0  0  0  0  0  0  0  0
   24.5169   44.3973   -0.7766 H   0  0  0  0  0  0  0  0  0  0  0  0
  1  2  2  0
  2  3  1  0
  1  4  1  0
  3  5  1  0
  4  5  1  0
  4  6  2  0
  1  7  1  0
  7  8  2  0
  8  9  1  0
  9 10  2  0
 10 11  1  0
  7 12  1  0
 11 12  2  0
  2 13  1  0
 13 14  2  0
 14 15  1  0
 15 16  2  0
 16 17  1  0
 13 18  1  0
 17 18  2  0
 16 19  1  0
 19 20  2  0
 19 21  2  0
 19 22  1  0
  3 23  1  0
  3 24  1  0
  8 25  1  0
  9 26  1  0
 10 27  1  0
 11 28  1  0
 12 29  1  0
 14 30  1  0
 15 31  1  0
 17 32  1  0
 18 33  1  0
 22 34  1  0
 22 35  1  0
 22 36  1  0
M  END
$$$$
