PDB_DB00255_98
     RDKit          3D

 40 41  0  0  0  0  0  0  0  0999 V2000
    5.3340    1.1460   -6.3990 C   0  0  0  0  0  0  0  0  0  0  0  0
    5.9720    2.1840   -5.5040 C   0  0  0  0  0  0  0  0  0  0  0  0
    5.1040    3.4280   -5.4450 C   0  0  0  0  0  0  0  0  0  0  0  0
    3.6190    3.2420   -5.2090 C   0  0  0  0  0  0  0  0  0  0  0  0
    3.1160    3.0570   -3.9290 C   0  0  0  0  0  0  0  0  0  0  0  0
    1.7500    2.8740   -3.7550 C   0  0  0  0  0  0  0  0  0  0  0  0
    0.8960    2.8720   -4.8520 C   0  0  0  0  0  0  0  0  0  0  0  0
   -0.4880    2.6920   -4.6790 O   0  0  0  0  0  0  0  0  0  0  0  0
    1.4000    3.0560   -6.1290 C   0  0  0  0  0  0  0  0  0  0  0  0
    2.7600    3.2370   -6.3070 C   0  0  0  0  0  0  0  0  0  0  0  0
    5.6290    4.6720   -5.5920 C   0  0  0  0  0  0  0  0  0  0  0  0
    7.1100    4.8860   -5.8730 C   0  0  0  0  0  0  0  0  0  0  0  0
    7.5640    4.5720   -7.1480 C   0  0  0  0  0  0  0  0  0  0  0  0
    8.8910    4.7450   -7.4990 C   0  0  0  0  0  0  0  0  0  0  0  0
    9.7790    5.2590   -6.5740 C   0  0  0  0  0  0  0  0  0  0  0  0
   11.1290    5.4340   -6.9360 O   0  0  0  0  0  0  0  0  0  0  0  0
    9.3360    5.5880   -5.2920 C   0  0  0  0  0  0  0  0  0  0  0  0
    8.0010    5.4090   -4.9430 C   0  0  0  0  0  0  0  0  0  0  0  0
    4.7030    5.8710   -5.5230 C   0  0  0  0  0  0  0  0  0  0  0  0
    4.8470    6.5820   -4.1950 C   0  0  0  0  0  0  0  0  0  0  0  0
    4.8578    0.3712   -5.7802 H   0  0  0  0  0  0  0  0  0  0  0  0
    4.5748    1.6261   -7.0340 H   0  0  0  0  0  0  0  0  0  0  0  0
    6.1052    0.6855   -7.0340 H   0  0  0  0  0  0  0  0  0  0  0  0
    6.0846    1.7708   -4.4908 H   0  0  0  0  0  0  0  0  0  0  0  0
    6.9580    2.4525   -5.9110 H   0  0  0  0  0  0  0  0  0  0  0  0
    3.7919    3.0553   -3.0612 H   0  0  0  0  0  0  0  0  0  0  0  0
    1.3418    2.7299   -2.7437 H   0  0  0  0  0  0  0  0  0  0  0  0
   -1.0893    2.6919   -5.4655 H   0  0  0  0  0  0  0  0  0  0  0  0
    0.7232    3.0582   -6.9961 H   0  0  0  0  0  0  0  0  0  0  0  0
    3.1655    3.3776   -7.3198 H   0  0  0  0  0  0  0  0  0  0  0  0
    6.8555    4.1787   -7.8919 H   0  0  0  0  0  0  0  0  0  0  0  0
    9.2367    4.4751   -8.5078 H   0  0  0  0  0  0  0  0  0  0  0  0
   11.7736    5.8016   -6.2806 H   0  0  0  0  0  0  0  0  0  0  0  0
   10.0455    5.9907   -4.5541 H   0  0  0  0  0  0  0  0  0  0  0  0
    7.6522    5.6802   -3.9356 H   0  0  0  0  0  0  0  0  0  0  0  0
    4.9545    6.5687   -6.3353 H   0  0  0  0  0  0  0  0  0  0  0  0
    3.6648    5.5226   -5.6270 H   0  0  0  0  0  0  0  0  0  0  0  0
    4.7012    5.8622   -3.3760 H   0  0  0  0  0  0  0  0  0  0  0  0
    5.8525    7.0220   -4.1218 H   0  0  0  0  0  0  0  0  0  0  0  0
    4.0920    7.3786   -4.1218 H   0  0  0  0  0  0  0  0  0  0  0  0
  1  2  1  0
  2  3  1  0
  3  4  1  0
  4  5  2  0
  5  6  1  0
  6  7  2  0
  7  8  1  0
  7  9  1  0
  4 10  1  0
  9 10  2  0
  3 11  2  0
 11 12  1  0
 12 13  2  0
 13 14  1  0
 14 15  2  0
 15 16  1  0
 15 17  1  0
 12 18  1  0
 17 18  2  0
 11 19  1  0
 19 20  1  0
  1 21  1  0
  1 22  1  0
  1 23  1  0
  2 24  1  0
  2 25  1  0
  5 26  1  0
  6 27  1  0
  8 28  1  0
  9 29  1  0
 10 30  1  0
 13 31  1  0
 14 32  1  0
 16 33  1  0
 17 34  1  0
 18 35  1  0
 19 36  1  0
 19 37  1  0
 20 38  1  0
 20 39  1  0
 20 40  1  0
M  END
$$$$
