PDB_DB00307_99
     RDKit          3D

 70 72  0  0  0  0  0  0  0  0999 V2000
   57.0810    7.4250   40.5310 O   0  0  0  0  0  0  0  0  0  0  0  0
   58.0500    8.2040   40.4470 C   0  0  0  0  0  0  0  0  0  0  0  0
   58.1550    9.1540   41.2350 O   0  0  0  0  0  0  0  0  0  0  0  0
   59.0970    8.0240   39.3810 C   0  0  0  0  0  0  0  0  0  0  0  0
   59.9040    9.1060   39.0310 C   0  0  0  0  0  0  0  0  0  0  0  0
   59.2580    6.7940   38.7300 C   0  0  0  0  0  0  0  0  0  0  0  0
   60.2220    6.6360   37.7340 C   0  0  0  0  0  0  0  0  0  0  0  0
   61.0260    7.7180   37.3990 C   0  0  0  0  0  0  0  0  0  0  0  0
   60.8620    8.9460   38.0410 C   0  0  0  0  0  0  0  0  0  0  0  0
   62.0530    7.5640   36.3160 C   0  0  0  0  0  0  0  0  0  0  0  0
   62.0740    6.4320   35.6440 C   0  0  0  0  0  0  0  0  0  0  0  0
   63.0070    8.6860   35.9780 C   0  0  1  0  0  0  0  0  0  0  0  0
   64.4510    8.5300   36.2680 C   0  0  0  0  0  0  0  0  0  0  0  0
   64.9360    7.2790   36.9530 C   0  0  0  0  0  0  0  0  0  0  0  0
   65.3410    9.5390   35.9060 C   0  0  0  0  0  0  0  0  0  0  0  0
   62.5600    9.8480   35.3410 C   0  0  0  0  0  0  0  0  0  0  0  0
   63.4400   10.8670   34.9740 C   0  0  0  0  0  0  0  0  0  0  0  0
   62.9280   12.1270   34.2980 C   0  0  2  0  0  0  0  0  0  0  0  0
   61.9750   12.8400   35.2590 C   0  0  0  0  0  0  0  0  0  0  0  0
   62.2250   11.7790   32.9850 C   0  0  0  0  0  0  0  0  0  0  0  0
   64.0560   13.0850   33.9810 C   0  0  0  0  0  0  0  0  0  0  0  0
   65.2130   13.1420   34.9420 C   0  0  0  0  0  0  0  0  0  0  0  0
   65.8730   11.7720   34.8970 C   0  0  1  0  0  0  0  0  0  0  0  0
   64.8890   10.7000   35.2810 C   0  0  0  0  0  0  0  0  0  0  0  0
   66.3000   11.5120   33.4590 C   0  0  0  0  0  0  0  0  0  0  0  0
   67.0690   11.7170   35.8430 C   0  0  0  0  0  0  0  0  0  0  0  0
   56.8734    7.2581   41.4845 H   0  0  0  0  0  0  0  0  0  0  0  0
   57.4783    8.8406   39.7557 H   0  0  0  0  0  0  0  0  0  0  0  0
   58.1177    8.8169   42.1651 H   0  0  0  0  0  0  0  0  0  0  0  0
   58.3667    8.3205   38.6137 H   0  0  0  0  0  0  0  0  0  0  0  0
   59.2333    9.9131   38.7011 H   0  0  0  0  0  0  0  0  0  0  0  0
   60.4963    9.2936   39.9387 H   0  0  0  0  0  0  0  0  0  0  0  0
   59.4880    6.0534   39.5101 H   0  0  0  0  0  0  0  0  0  0  0  0
   58.3136    6.6840   38.1768 H   0  0  0  0  0  0  0  0  0  0  0  0
   60.8909    5.8252   38.0582 H   0  0  0  0  0  0  0  0  0  0  0  0
   59.6334    6.4519   36.8231 H   0  0  0  0  0  0  0  0  0  0  0  0
   60.2980    8.0216   36.6323 H   0  0  0  0  0  0  0  0  0  0  0  0
   60.6292    9.6816   37.2570 H   0  0  0  0  0  0  0  0  0  0  0  0
   61.8063    9.0615   38.5933 H   0  0  0  0  0  0  0  0  0  0  0  0
   62.7601    7.1436   37.0463 H   0  0  0  0  0  0  0  0  0  0  0  0
   62.0897    5.5875   36.3487 H   0  0  0  0  0  0  0  0  0  0  0  0
   61.1769    6.3647   35.0109 H   0  0  0  0  0  0  0  0  0  0  0  0
   62.9729    6.3980   35.0109 H   0  0  0  0  0  0  0  0  0  0  0  0
   62.8529    9.1182   36.9777 H   0  0  0  0  0  0  0  0  0  0  0  0
   64.3062    9.0100   37.2471 H   0  0  0  0  0  0  0  0  0  0  0  0
   64.8836    7.4142   38.0434 H   0  0  0  0  0  0  0  0  0  0  0  0
   64.3019    6.4300   36.6579 H   0  0  0  0  0  0  0  0  0  0  0  0
   65.9767    7.0793   36.6579 H   0  0  0  0  0  0  0  0  0  0  0  0
   65.8472    9.8568   36.8295 H   0  0  0  0  0  0  0  0  0  0  0  0
   65.9465    9.0603   35.1223 H   0  0  0  0  0  0  0  0  0  0  0  0
   62.0613    9.5218   34.4164 H   0  0  0  0  0  0  0  0  0  0  0  0
   61.9582   10.3292   36.1260 H   0  0  0  0  0  0  0  0  0  0  0  0
   63.5766   10.3946   33.9900 H   0  0  0  0  0  0  0  0  0  0  0  0
   62.2682   12.6206   36.2962 H   0  0  0  0  0  0  0  0  0  0  0  0
   62.0238   13.9252   35.0859 H   0  0  0  0  0  0  0  0  0  0  0  0
   60.9477   12.4869   35.0859 H   0  0  0  0  0  0  0  0  0  0  0  0
   61.2586   11.3006   33.2021 H   0  0  0  0  0  0  0  0  0  0  0  0
   62.0570   12.6980   32.4043 H   0  0  0  0  0  0  0  0  0  0  0  0
   62.8539   11.0881   32.4043 H   0  0  0  0  0  0  0  0  0  0  0  0
   64.4592   12.8043   32.9968 H   0  0  0  0  0  0  0  0  0  0  0  0
   63.5980   14.0836   34.0359 H   0  0  0  0  0  0  0  0  0  0  0  0
   65.9272   13.9193   34.6326 H   0  0  0  0  0  0  0  0  0  0  0  0
   64.8761   13.3904   35.9593 H   0  0  0  0  0  0  0  0  0  0  0  0
   65.0432   10.2309   34.2981 H   0  0  0  0  0  0  0  0  0  0  0  0
   67.2395   10.9399   33.4532 H   0  0  0  0  0  0  0  0  0  0  0  0
   65.5174   10.9370   32.9424 H   0  0  0  0  0  0  0  0  0  0  0  0
   66.4516   12.4712   32.9424 H   0  0  0  0  0  0  0  0  0  0  0  0
   66.7141   11.7333   36.8841 H   0  0  0  0  0  0  0  0  0  0  0  0
   67.6363   10.7918   35.6635 H   0  0  0  0  0  0  0  0  0  0  0  0
   67.7188   12.5862   35.6635 H   0  0  0  0  0  0  0  0  0  0  0  0
  1  2  1  0
  2  3  1  0
  2  4  1  0
  4  5  1  0
  4  6  1  0
  6  7  1  0
  7  8  1  0
  5  9  1  0
  8  9  1  0
  8 10  1  0
 10 11  1  0
 10 12  1  0
 12 13  1  0
 13 14  1  0
 13 15  1  0
 12 16  1  0
 16 17  1  0
 17 18  1  0
 18 19  1  1
 18 20  1  0
 18 21  1  0
 21 22  1  0
 22 23  1  0
 15 24  1  0
 17 24  1  0
 23 24  1  0
 23 25  1  6
 23 26  1  0
  1 27  1  0
  2 28  1  0
  3 29  1  0
  4 30  1  0
  5 31  1  0
  5 32  1  0
  6 33  1  0
  6 34  1  0
  7 35  1  0
  7 36  1  0
  8 37  1  0
  9 38  1  0
  9 39  1  0
 10 40  1  0
 11 41  1  0
 11 42  1  0
 11 43  1  0
 12 44  1  1
 13 45  1  0
 14 46  1  0
 14 47  1  0
 14 48  1  0
 15 49  1  0
 15 50  1  0
 16 51  1  0
 16 52  1  0
 17 53  1  0
 19 54  1  0
 19 55  1  0
 19 56  1  0
 20 57  1  0
 20 58  1  0
 20 59  1  0
 21 60  1  0
 21 61  1  0
 22 62  1  0
 22 63  1  0
 24 64  1  0
 25 65  1  0
 25 66  1  0
 25 67  1  0
 26 68  1  0
 26 69  1  0
 26 70  1  0
M  END
>  <PDBID>  (1) 
3H0A

>  <PDB ID>  (1) 
3H0A

>  <Generic Name>  (1) 
Bexarotene

>  <Brand Name>  (1) 
Bexarotene#Targretin

>  <DrugBank ID>  (1) 
DB00307

>  <ATC Codes>  (1) 
L01XX25

>  <Ligand ID>  (1) 
9RA

>  <Target Name>  (1) 
Retinoic acid receptor RXR-beta

>  <UniProt ID>  (1) 
P28702

>  <PDB ID.1>  (1) 
3H0A

>  <Seq. Identity>  (1) 
87%

$$$$
