PDB_DB08809_99
     RDKit          3D

  8  7  0  0  0  0  0  0  0  0999 V2000
    0.5640   38.7870   -9.6890 C   0  0  0  0  0  0  0  0  0  0  0  0
    1.9860   38.4800   -9.2930 C   0  0  0  0  0  0  0  0  0  0  0  0
    2.8260   39.3890   -9.2660 O   0  0  0  0  0  0  0  0  0  0  0  0
    0.0510   37.5060  -10.8710 Cl  0  0  0  0  0  0  0  0  0  0  0  0
    0.4830   40.5390  -10.1650 Cl  0  0  0  0  0  0  0  0  0  0  0  0
    2.2950   37.3190   -8.9940 O   0  0  0  0  0  0  0  0  0  0  0  0
   -0.1915   38.7191   -8.8924 H   0  0  0  0  0  0  0  0  0  0  0  0
    3.7608   39.1916   -9.0065 H   0  0  0  0  0  0  0  0  0  0  0  0
  1  2  1  0
  2  3  1  0
  1  4  1  0
  1  5  1  0
  2  6  2  0
  1  7  1  0
  3  8  1  0
M  END
>  <PDBID>  (1) 
2Q8H

>  <PDB ID>  (1) 
2Q8H

>  <Generic Name>  (1) 
Dichloroacetic Acid

>  <Brand Name>  (1) 
Bichloracetic Acid 100%

>  <DrugBank ID>  (1) 
DB08809

>  <ATC Codes>  (1) 
nan

>  <Ligand ID>  (1) 
TF4

>  <Target Name>  (1) 
[Pyruvate dehydrogenase (acetyl-transferring)] kinase isozyme 1, mitochondrial

>  <UniProt ID>  (1) 
Q15118

>  <PDB ID.1>  (1) 
2Q8H

>  <Seq. Identity>  (1) 
100%

$$$$
