PDB_DB00203_95
     RDKit          3D

 63 66  0  0  0  0  0  0  0  0999 V2000
    6.5700  -63.3120   12.0720 C   0  0  0  0  0  0  0  0  0  0  0  0
    6.5950  -64.4260   11.0190 C   0  0  0  0  0  0  0  0  0  0  0  0
    6.9540  -65.7720   11.6450 C   0  0  0  0  0  0  0  0  0  0  0  0
    8.0520  -66.4820   10.8470 C   0  0  0  0  0  0  0  0  0  0  0  0
    7.9790  -66.9350    9.5930 N   0  0  0  0  0  0  0  0  0  0  0  0
    9.0500  -67.4630    9.2640 N   0  0  0  0  0  0  0  0  0  0  0  0
    9.2560  -68.0660    7.9170 C   0  0  0  0  0  0  0  0  0  0  0  0
    9.9610  -67.4230   10.2450 C   0  0  0  0  0  0  0  0  0  0  0  0
   11.2930  -67.8580   10.3950 C   0  0  0  0  0  0  0  0  0  0  0  0
   11.9250  -68.4490    9.5050 O   0  0  0  0  0  0  0  0  0  0  0  0
   11.9090  -67.6080   11.6410 N   0  0  0  0  0  0  0  0  0  0  0  0
   11.1920  -66.9280   12.6560 C   0  0  0  0  0  0  0  0  0  0  0  0
    9.9190  -66.5390   12.4750 N   0  0  0  0  0  0  0  0  0  0  0  0
    9.3180  -66.7760   11.3030 C   0  0  0  0  0  0  0  0  0  0  0  0
   11.8280  -66.7490   13.8680 C   0  0  0  0  0  0  0  0  0  0  0  0
   11.1770  -67.1560   15.0270 C   0  0  0  0  0  0  0  0  0  0  0  0
   11.7810  -67.0480   16.2680 C   0  0  0  0  0  0  0  0  0  0  0  0
   13.0770  -66.5430   16.3310 C   0  0  0  0  0  0  0  0  0  0  0  0
   13.7410  -66.1350   15.1670 C   0  0  0  0  0  0  0  0  0  0  0  0
   13.1120  -66.2440   13.9220 C   0  0  0  0  0  0  0  0  0  0  0  0
   13.6850  -65.8840   12.7390 O   0  0  0  0  0  0  0  0  0  0  0  0
   14.5900  -64.7700   12.7930 C   0  0  0  0  0  0  0  0  0  0  0  0
   15.6300  -65.0170   11.6960 C   0  0  0  0  0  0  0  0  0  0  0  0
   10.8860  -67.5960   17.7000 S   0  0  0  0  0  0  0  0  0  0  0  0
    9.9500  -68.6620   17.2200 O   0  0  0  0  0  0  0  0  0  0  0  0
   11.8670  -68.2050   18.6430 O   0  0  0  0  0  0  0  0  0  0  0  0
    9.9290  -66.3560   18.4880 N   0  0  0  0  0  0  0  0  0  0  0  0
   10.4490  -65.8680   19.8020 C   0  0  0  0  0  0  0  0  0  0  0  0
    9.6280  -64.6450   20.3070 C   0  0  0  0  0  0  0  0  0  0  0  0
    8.1410  -64.7750   20.1300 N   0  0  0  0  0  0  0  0  0  0  0  0
    7.5240  -63.6150   19.4360 C   0  0  0  0  0  0  0  0  0  0  0  0
    7.5850  -66.0770   19.6470 C   0  0  0  0  0  0  0  0  0  0  0  0
    8.4840  -66.8030   18.5870 C   0  0  0  0  0  0  0  0  0  0  0  0
    6.5800  -63.7577   13.0776 H   0  0  0  0  0  0  0  0  0  0  0  0
    7.4539  -62.6694   11.9470 H   0  0  0  0  0  0  0  0  0  0  0  0
    5.6581  -62.7097   11.9470 H   0  0  0  0  0  0  0  0  0  0  0  0
    5.6015  -64.5010   10.5528 H   0  0  0  0  0  0  0  0  0  0  0  0
    7.3590  -64.1772   10.2678 H   0  0  0  0  0  0  0  0  0  0  0  0
    7.3086  -65.6059   12.6729 H   0  0  0  0  0  0  0  0  0  0  0  0
    6.0560  -66.4073   11.6409 H   0  0  0  0  0  0  0  0  0  0  0  0
    9.6098  -69.1015    8.0290 H   0  0  0  0  0  0  0  0  0  0  0  0
    8.3052  -68.0612    7.3638 H   0  0  0  0  0  0  0  0  0  0  0  0
   10.0051  -67.4805    7.3638 H   0  0  0  0  0  0  0  0  0  0  0  0
   12.8761  -67.9190   11.8111 H   0  0  0  0  0  0  0  0  0  0  0  0
   10.1613  -67.5723   14.9565 H   0  0  0  0  0  0  0  0  0  0  0  0
   13.5842  -66.4637   17.3039 H   0  0  0  0  0  0  0  0  0  0  0  0
   14.7606  -65.7274   15.2320 H   0  0  0  0  0  0  0  0  0  0  0  0
   14.0508  -63.8301   12.6038 H   0  0  0  0  0  0  0  0  0  0  0  0
   15.0618  -64.6819   13.7828 H   0  0  0  0  0  0  0  0  0  0  0  0
   16.6016  -65.2478   12.1572 H   0  0  0  0  0  0  0  0  0  0  0  0
   15.3101  -65.8642   11.0715 H   0  0  0  0  0  0  0  0  0  0  0  0
   15.7252  -64.1165   11.0715 H   0  0  0  0  0  0  0  0  0  0  0  0
   10.3773  -66.6795   20.5411 H   0  0  0  0  0  0  0  0  0  0  0  0
   11.4962  -65.5576   19.6713 H   0  0  0  0  0  0  0  0  0  0  0  0
    9.8358  -64.5110   21.3789 H   0  0  0  0  0  0  0  0  0  0  0  0
    9.9412  -63.7851   19.6967 H   0  0  0  0  0  0  0  0  0  0  0  0
    7.1443  -62.9011   20.1818 H   0  0  0  0  0  0  0  0  0  0  0  0
    8.2784  -63.1208   18.8062 H   0  0  0  0  0  0  0  0  0  0  0  0
    6.6925  -63.9643   18.8062 H   0  0  0  0  0  0  0  0  0  0  0  0
    7.4652  -66.7441   20.5134 H   0  0  0  0  0  0  0  0  0  0  0  0
    6.6300  -65.8496   19.1507 H   0  0  0  0  0  0  0  0  0  0  0  0
    8.0216  -66.6518   17.6004 H   0  0  0  0  0  0  0  0  0  0  0  0
    8.5312  -67.8498   18.9216 H   0  0  0  0  0  0  0  0  0  0  0  0
  1  2  1  0
  2  3  1  0
  3  4  1  0
  4  5  2  0
  5  6  1  0
  6  7  1  0
  6  8  1  0
  8  9  1  0
  9 10  2  0
  9 11  1  0
 11 12  1  0
 12 13  2  0
  4 14  1  0
  8 14  2  0
 13 14  1  0
 12 15  1  0
 15 16  2  0
 16 17  1  0
 17 18  2  0
 18 19  1  0
 15 20  1  0
 19 20  2  0
 20 21  1  0
 21 22  1  0
 22 23  1  0
 17 24  1  0
 24 25  2  0
 24 26  2  0
 24 27  1  0
 27 28  1  0
 28 29  1  0
 29 30  1  0
 30 31  1  0
 30 32  1  0
 27 33  1  0
 32 33  1  0
  1 34  1  0
  1 35  1  0
  1 36  1  0
  2 37  1  0
  2 38  1  0
  3 39  1  0
  3 40  1  0
  7 41  1  0
  7 42  1  0
  7 43  1  0
 11 44  1  0
 16 45  1  0
 18 46  1  0
 19 47  1  0
 22 48  1  0
 22 49  1  0
 23 50  1  0
 23 51  1  0
 23 52  1  0
 28 53  1  0
 28 54  1  0
 29 55  1  0
 29 56  1  0
 31 57  1  0
 31 58  1  0
 31 59  1  0
 32 60  1  0
 32 61  1  0
 33 62  1  0
 33 63  1  0
M  END
$$$$
