PDB_DB00819_85
     RDKit          3D

 54 54  0  0  0  0  0  0  0  0999 V2000
   16.6360   -1.0040   10.2100 C   0  0  0  0  0  0  0  0  0  0  0  0
   16.0890   -2.6880   11.6600 C   0  0  0  0  0  0  0  0  0  0  0  0
   16.6750   -4.5910   13.1670 C   0  0  0  0  0  0  0  0  0  0  0  0
   16.0380   -5.6050   14.0930 C   0  0  0  0  0  0  0  0  0  0  0  0
   16.5190    0.1700    7.8050 N   0  0  0  0  0  0  0  0  0  0  0  0
   15.0250   -2.0420   11.2670 N   0  0  0  0  0  0  0  0  0  0  0  0
   15.3470   -1.0280   10.3950 N   0  0  0  0  0  0  0  0  0  0  0  0
   15.8030   -3.7090   12.5420 N   0  0  0  0  0  0  0  0  0  0  0  0
   18.7530   -0.2270    8.8590 O   0  0  0  0  0  0  0  0  0  0  0  0
   17.4280    1.4710    9.8580 O   0  0  0  0  0  0  0  0  0  0  0  0
   17.8940   -4.6180   13.0490 O   0  0  0  0  0  0  0  0  0  0  0  0
   17.3890    0.2050    9.1320 S   0  0  2  0  0  4  0  0  0  0  0  0
   17.5780   -2.1730   11.0420 S   0  0  0  0  0  0  0  0  0  0  0  0
   10.9930   16.5180  -20.7630 C   0  0  0  0  0  0  0  0  0  0  0  0
   12.1960   14.8590  -19.7560 C   0  0  0  0  0  0  0  0  0  0  0  0
   13.6630   12.8280  -19.8090 C   0  0  0  0  0  0  0  0  0  0  0  0
   14.3860   11.8770  -18.8700 C   0  0  0  0  0  0  0  0  0  0  0  0
    8.7010   17.8150  -21.2240 N   0  0  0  0  0  0  0  0  0  0  0  0
   11.6570   15.6440  -18.8760 N   0  0  0  0  0  0  0  0  0  0  0  0
   10.9320   16.6450  -19.4720 N   0  0  0  0  0  0  0  0  0  0  0  0
   12.9390   13.8470  -19.1870 N   0  0  0  0  0  0  0  0  0  0  0  0
   10.1000   17.0860  -23.1760 O   0  0  0  0  0  0  0  0  0  0  0  0
   10.9800   18.8760  -21.8930 O   0  0  0  0  0  0  0  0  0  0  0  0
   13.7680   12.6380  -21.0150 O   0  0  0  0  0  0  0  0  0  0  0  0
   10.1600   17.6710  -21.8370 S   0  0  2  0  0  4  0  0  0  0  0  0
   11.9050   15.2080  -21.3850 S   0  0  0  0  0  0  0  0  0  0  0  0
   16.5269   -1.6938    9.3601 H   0  0  0  0  0  0  0  0  0  0  0  0
   16.2008   -1.9907   12.5034 H   0  0  0  0  0  0  0  0  0  0  0  0
   16.5686   -5.2921   12.3261 H   0  0  0  0  0  0  0  0  0  0  0  0
   16.2212   -5.3134   15.1377 H   0  0  0  0  0  0  0  0  0  0  0  0
   14.9544   -5.6415   13.9071 H   0  0  0  0  0  0  0  0  0  0  0  0
   16.4755   -6.5970   13.9071 H   0  0  0  0  0  0  0  0  0  0  0  0
   15.5195    0.1298    8.0507 H   0  0  0  0  0  0  0  0  0  0  0  0
   16.7026    1.0191    7.2516 H   0  0  0  0  0  0  0  0  0  0  0  0
   14.3885   -2.7002   10.7952 H   0  0  0  0  0  0  0  0  0  0  0  0
   15.0403   -0.1270   10.7887 H   0  0  0  0  0  0  0  0  0  0  0  0
   15.3062   -3.2469   13.3170 H   0  0  0  0  0  0  0  0  0  0  0  0
   19.2288   -0.3777    9.7140 H   0  0  0  0  0  0  0  0  0  0  0  0
   17.4225    1.2932   10.8319 H   0  0  0  0  0  0  0  0  0  0  0  0
   18.3123   -4.6273   13.9463 H   0  0  0  0  0  0  0  0  0  0  0  0
   10.0929   15.8860  -20.7434 H   0  0  0  0  0  0  0  0  0  0  0  0
   13.0892   15.5006  -19.7812 H   0  0  0  0  0  0  0  0  0  0  0  0
   12.7746   12.1799  -19.7813 H   0  0  0  0  0  0  0  0  0  0  0  0
   14.1726   12.1577  -17.8281 H   0  0  0  0  0  0  0  0  0  0  0  0
   14.0394   10.8489  -19.0511 H   0  0  0  0  0  0  0  0  0  0  0  0
   15.4694   11.9360  -19.0511 H   0  0  0  0  0  0  0  0  0  0  0  0
    8.7586   17.8093  -20.1956 H   0  0  0  0  0  0  0  0  0  0  0  0
    8.2820   18.7014  -21.5395 H   0  0  0  0  0  0  0  0  0  0  0  0
   11.0313   15.0911  -18.2729 H   0  0  0  0  0  0  0  0  0  0  0  0
   11.3206   17.5589  -19.1988 H   0  0  0  0  0  0  0  0  0  0  0  0
   13.6347   14.3366  -18.6063 H   0  0  0  0  0  0  0  0  0  0  0  0
    9.9993   16.1039  -23.1028 H   0  0  0  0  0  0  0  0  0  0  0  0
   11.1857   19.1782  -20.9730 H   0  0  0  0  0  0  0  0  0  0  0  0
   14.2406   11.7828  -21.1744 H   0  0  0  0  0  0  0  0  0  0  0  0
  3  4  1  0
  2  6  1  0
  1  7  1  0
  6  7  1  0
  2  8  1  0
  3  8  1  0
  3 11  1  0
  1 12  1  0
  5 12  1  0
 12  9  1  6
 10 12  1  0
  1 13  1  0
  2 13  1  0
 16 17  1  0
 15 19  1  0
 14 20  1  0
 19 20  1  0
 15 21  1  0
 16 21  1  0
 16 24  1  0
 14 25  1  0
 18 25  1  0
 25 22  1  6
 23 25  1  0
 14 26  1  0
 15 26  1  0
  1 27  1  0
  2 28  1  0
  3 29  1  0
  4 30  1  0
  4 31  1  0
  4 32  1  0
  5 33  1  0
  5 34  1  0
  6 35  1  0
  7 36  1  0
  8 37  1  0
  9 38  1  0
 10 39  1  0
 11 40  1  0
 14 41  1  0
 15 42  1  0
 16 43  1  0
 17 44  1  0
 17 45  1  0
 17 46  1  0
 18 47  1  0
 18 48  1  0
 19 49  1  0
 20 50  1  0
 21 51  1  0
 22 52  1  0
 23 53  1  0
 24 54  1  0
M  END
>  <PDBID>  (1) 
1RJ6

>  <PDB ID>  (1) 
1RJ6

>  <Generic Name>  (1) 
Acetazolamide

>  <Brand Name>  (1) 
Acetazolam#Acetazolamide#Acetazolamide for Injection, USP#Diamox IV 500mg#Diamox Pws 500mg/vial#Diamox Sequels#Diamox Src 500mg#Diamox Tab 250mg#Diamox Tablets 250mg#Novo-zolamide Tab 250mg#Acemit#Acemox#Acetak#Acetamide#Acetazolamax#Azm#Azol#Azomid#Carbinib#Defiltran#Diabo#Diacarb#Diamox#Diamox Depot#Diazomid#Diluran#Diuramid#Défiltran#Edemox#Glaumox#Glaupax#Glupax#Huma-Zolamide#Iopar-SR#Medene#Oculten#Uramox#Zolmide#Ödemin

>  <DrugBank ID>  (1) 
DB00819

>  <ATC Codes>  (1) 
S01EC01

>  <Ligand ID>  (1) 
AZM

>  <Target Name>  (1) 
Carbonic anhydrase 14

>  <UniProt ID>  (1) 
Q9ULX7

>  <PDB ID.1>  (1) 
1RJ6

>  <Seq. Identity>  (1) 
83%

$$$$
