PDB_DB00509_98
     RDKit          3D

 35 36  0  0  0  0  0  0  0  0999 V2000
   33.3920   15.2350   33.8800 C   0  0  0  0  0  0  0  0  0  0  0  0
   33.6360   14.0230   33.2240 C   0  0  0  0  0  0  0  0  0  0  0  0
   32.8270   13.5910   32.1720 C   0  0  0  0  0  0  0  0  0  0  0  0
   31.7660   14.4010   31.7670 C   0  0  0  0  0  0  0  0  0  0  0  0
   31.5220   15.5920   32.4310 C   0  0  0  0  0  0  0  0  0  0  0  0
   32.3170   16.0300   33.4840 C   0  0  0  0  0  0  0  0  0  0  0  0
   34.2740   15.6760   35.0090 C   0  0  0  0  0  0  0  0  0  0  0  0
   35.4800   16.4280   34.5210 C   0  0  1  0  0  0  0  0  0  0  0  0
   35.1580   17.8330   34.1030 C   0  0  0  0  0  0  0  0  0  0  0  0
   31.2250   14.3990   29.4680 C   0  0  0  0  0  0  0  0  0  0  0  0
   32.4300   15.0190   29.1510 C   0  0  0  0  0  0  0  0  0  0  0  0
   32.6820   15.3000   27.8090 C   0  0  0  0  0  0  0  0  0  0  0  0
   31.7900   14.9830   26.8170 C   0  0  0  0  0  0  0  0  0  0  0  0
   30.6090   14.3720   27.1320 C   0  0  0  0  0  0  0  0  0  0  0  0
   30.3190   14.0830   28.4600 C   0  0  0  0  0  0  0  0  0  0  0  0
   36.4580   16.4650   35.5760 N   0  0  0  0  0  0  0  0  0  0  0  0
   30.8740   14.0660   30.7560 O   0  0  0  0  0  0  0  0  0  0  0  0
   32.0840   15.2760   25.5050 O   0  0  0  0  0  0  0  0  0  0  0  0
   35.3440   18.8230   34.8850 O   0  0  0  0  0  0  0  0  0  0  0  0
   34.7080   18.0450   32.9450 O   0  0  0  0  0  0  0  0  0  0  0  0
   33.2500   11.7360   31.2220 I   0  0  0  0  0  0  0  0  0  0  0  0
   34.4240   16.2150   27.1080 I   0  0  0  0  0  0  0  0  0  0  0  0
   29.8840   16.7080   31.7410 I   0  0  0  0  0  0  0  0  0  0  0  0
   29.3300   13.9340   25.5160 I   0  0  0  0  0  0  0  0  0  0  0  0
   34.4828   13.3981   33.5441 H   0  0  0  0  0  0  0  0  0  0  0  0
   32.1030   16.9814   33.9929 H   0  0  0  0  0  0  0  0  0  0  0  0
   33.6947   16.3296   35.6777 H   0  0  0  0  0  0  0  0  0  0  0  0
   34.6250   14.7770   35.5369 H   0  0  0  0  0  0  0  0  0  0  0  0
   35.8641   15.9029   33.6340 H   0  0  0  0  0  0  0  0  0  0  0  0
   33.1589   15.2785   29.9329 H   0  0  0  0  0  0  0  0  0  0  0  0
   29.3646   13.6001   28.7168 H   0  0  0  0  0  0  0  0  0  0  0  0
   35.9799   16.4469   36.4881 H   0  0  0  0  0  0  0  0  0  0  0  0
   37.0788   15.6469   35.4975 H   0  0  0  0  0  0  0  0  0  0  0  0
   31.4389   15.0465   24.7900 H   0  0  0  0  0  0  0  0  0  0  0  0
   34.4923   18.9679   32.6590 H   0  0  0  0  0  0  0  0  0  0  0  0
  1  2  2  0
  2  3  1  0
  3  4  2  0
  4  5  1  0
  1  6  1  0
  5  6  2  0
  1  7  1  0
  7  8  1  0
  8  9  1  0
 10 11  2  0
 11 12  1  0
 12 13  2  0
 13 14  1  0
 10 15  1  0
 14 15  2  0
  8 16  1  0
  4 17  1  0
 10 17  1  0
 13 18  1  0
  9 19  2  0
  9 20  1  0
  3 21  1  0
 12 22  1  0
  5 23  1  0
 14 24  1  0
  2 25  1  0
  6 26  1  0
  7 27  1  0
  7 28  1  0
  8 29  1  6
 11 30  1  0
 15 31  1  0
 16 32  1  0
 16 33  1  0
 18 34  1  0
 20 35  1  0
M  END
>  <PDBID>  (1) 
4LNX

>  <PDB ID>  (1) 
4LNX

>  <Generic Name>  (1) 
Dextrothyroxine

>  <Brand Name>  (1) 
Choloxin - Tab 4mg#Choloxin Tab 2mg#Choloxin Tablet 4mg#Choloxin#Dynothel#Eulipos#Lisolipin

>  <DrugBank ID>  (1) 
DB00509

>  <ATC Codes>  (1) 
C10AX01

>  <Ligand ID>  (1) 
T44

>  <Target Name>  (1) 
Thyroid hormone receptor beta

>  <UniProt ID>  (1) 
P10828

>  <PDB ID.1>  (1) 
4LNX

>  <Seq. Identity>  (1) 
84%

$$$$
