PDB_DB00712_98
     RDKit          3D

 31 32  0  0  0  0  0  0  0  0999 V2000
  136.8650  158.1500   24.8880 C   0  0  0  0  0  0  0  0  0  0  0  0
  135.6340  157.5380   25.0650 C   0  0  0  0  0  0  0  0  0  0  0  0
  135.3740  156.3080   24.4790 C   0  0  0  0  0  0  0  0  0  0  0  0
  136.3480  155.6930   23.7090 C   0  0  0  0  0  0  0  0  0  0  0  0
  137.5790  156.3030   23.5290 C   0  0  0  0  0  0  0  0  0  0  0  0
  137.8380  157.5300   24.1190 C   0  0  0  0  0  0  0  0  0  0  0  0
  134.1460  155.6830   24.6470 C   0  0  0  0  0  0  0  0  0  0  0  0
  133.4970  155.1460   23.5460 C   0  0  0  0  0  0  0  0  0  0  0  0
  132.2710  154.5150   23.6930 C   0  0  0  0  0  0  0  0  0  0  0  0
  131.6940  154.4180   24.9470 C   0  0  0  0  0  0  0  0  0  0  0  0
  132.3420  154.9510   26.0470 C   0  0  0  0  0  0  0  0  0  0  0  0
  133.5630  155.5830   25.9000 C   0  0  0  0  0  0  0  0  0  0  0  0
  130.3590  153.7340   25.1320 C   0  0  2  0  0  0  0  0  0  0  0  0
  129.4980  154.5810   26.0430 C   0  0  0  0  0  0  0  0  0  0  0  0
  130.5770  152.3810   25.7710 C   0  0  0  0  0  0  0  0  0  0  0  0
  131.1260  151.4550   25.1210 O   0  0  0  0  0  0  0  0  0  0  0  0
  130.2070  152.1790   26.9550 O   0  0  0  0  0  0  0  0  0  0  0  0
  134.1690  156.0890   26.9790 F   0  0  0  0  0  0  0  0  0  0  0  0
  137.0693  159.1243   25.3560 H   0  0  0  0  0  0  0  0  0  0  0  0
  134.8601  158.0298   25.6727 H   0  0  0  0  0  0  0  0  0  0  0  0
  136.1437  154.7192   23.2400 H   0  0  0  0  0  0  0  0  0  0  0  0
  138.3511  155.8131   22.9175 H   0  0  0  0  0  0  0  0  0  0  0  0
  138.8163  158.0124   23.9771 H   0  0  0  0  0  0  0  0  0  0  0  0
  133.9573  155.2209   22.5498 H   0  0  0  0  0  0  0  0  0  0  0  0
  131.7588  154.0930   22.8157 H   0  0  0  0  0  0  0  0  0  0  0  0
  131.8835  154.8716   27.0437 H   0  0  0  0  0  0  0  0  0  0  0  0
  129.8642  153.6070   24.1578 H   0  0  0  0  0  0  0  0  0  0  0  0
  129.7345  154.3483   27.0918 H   0  0  0  0  0  0  0  0  0  0  0  0
  129.6966  155.6455   25.8498 H   0  0  0  0  0  0  0  0  0  0  0  0
  128.4369  154.3650   25.8498 H   0  0  0  0  0  0  0  0  0  0  0  0
  131.2671  150.5705   25.5426 H   0  0  0  0  0  0  0  0  0  0  0  0
  1  2  2  0
  2  3  1  0
  3  4  2  0
  4  5  1  0
  1  6  1  0
  5  6  2  0
  3  7  1  0
  7  8  2  0
  8  9  1  0
  9 10  2  0
 10 11  1  0
  7 12  1  0
 11 12  2  0
 10 13  1  0
 13 14  1  0
 13 15  1  0
 15 16  1  0
 15 17  2  0
 12 18  1  0
  1 19  1  0
  2 20  1  0
  4 21  1  0
  5 22  1  0
  6 23  1  0
  8 24  1  0
  9 25  1  0
 11 26  1  0
 13 27  1  6
 14 28  1  0
 14 29  1  0
 14 30  1  0
 16 31  1  0
M  END
$$$$
