PDB_DB01283_97
     RDKit          3D

 33 34  0  0  0  0  0  0  0  0999 V2000
   26.7440  -37.2070  -17.4740 O   0  0  0  0  0  0  0  0  0  0  0  0
   26.5050  -38.1630  -16.5830 C   0  0  0  0  0  0  0  0  0  0  0  0
   27.4440  -38.7270  -16.0510 O   0  0  0  0  0  0  0  0  0  0  0  0
   25.0920  -38.5510  -16.2330 C   0  0  0  0  0  0  0  0  0  0  0  0
   24.7630  -39.8800  -16.8640 C   0  0  0  0  0  0  0  0  0  0  0  0
   24.4520  -39.9540  -18.2130 C   0  0  0  0  0  0  0  0  0  0  0  0
   24.1480  -41.1830  -18.7820 C   0  0  0  0  0  0  0  0  0  0  0  0
   23.8120  -41.2510  -20.2460 C   0  0  0  0  0  0  0  0  0  0  0  0
   24.1470  -42.3470  -18.0180 C   0  0  0  0  0  0  0  0  0  0  0  0
   24.4530  -42.3240  -16.6610 C   0  0  0  0  0  0  0  0  0  0  0  0
   24.7610  -41.1180  -16.0480 C   0  0  0  0  0  0  0  0  0  0  0  0
   25.0620  -41.0470  -14.7330 N   0  0  0  0  0  0  0  0  0  0  0  0
   24.9130  -42.0990  -13.8980 C   0  0  0  0  0  0  0  0  0  0  0  0
   26.0960  -42.7460  -13.2830 C   0  0  0  0  0  0  0  0  0  0  0  0
   27.7480  -42.1480  -13.6480 Cl  0  0  0  0  0  0  0  0  0  0  0  0
   25.9080  -43.8210  -12.4230 C   0  0  0  0  0  0  0  0  0  0  0  0
   24.6290  -44.2920  -12.1320 C   0  0  0  0  0  0  0  0  0  0  0  0
   23.4850  -43.7160  -12.6820 C   0  0  0  0  0  0  0  0  0  0  0  0
   23.5730  -42.6360  -13.5520 C   0  0  0  0  0  0  0  0  0  0  0  0
   22.4600  -42.0950  -14.0770 F   0  0  0  0  0  0  0  0  0  0  0  0
   27.2798  -39.4412  -15.3853 H   0  0  0  0  0  0  0  0  0  0  0  0
   24.9938  -38.6300  -15.1402 H   0  0  0  0  0  0  0  0  0  0  0  0
   24.3982  -37.7852  -16.6100 H   0  0  0  0  0  0  0  0  0  0  0  0
   24.4462  -39.0430  -18.8295 H   0  0  0  0  0  0  0  0  0  0  0  0
   22.7404  -41.4679  -20.3666 H   0  0  0  0  0  0  0  0  0  0  0  0
   24.0468  -40.2871  -20.7212 H   0  0  0  0  0  0  0  0  0  0  0  0
   24.4031  -42.0477  -20.7212 H   0  0  0  0  0  0  0  0  0  0  0  0
   23.8989  -43.3054  -18.4976 H   0  0  0  0  0  0  0  0  0  0  0  0
   24.4508  -43.2565  -16.0775 H   0  0  0  0  0  0  0  0  0  0  0  0
   25.4181  -40.1584  -14.3529 H   0  0  0  0  0  0  0  0  0  0  0  0
   26.7817  -44.3076  -11.9650 H   0  0  0  0  0  0  0  0  0  0  0  0
   24.5188  -45.1453  -11.4466 H   0  0  0  0  0  0  0  0  0  0  0  0
   22.4964  -44.1230  -12.4231 H   0  0  0  0  0  0  0  0  0  0  0  0
  1  2  2  0
  2  3  1  0
  2  4  1  0
  4  5  1  0
  5  6  2  0
  6  7  1  0
  7  8  1  0
  7  9  2  0
  9 10  1  0
  5 11  1  0
 10 11  2  0
 11 12  1  0
 12 13  1  0
 13 14  2  0
 14 15  1  0
 14 16  1  0
 16 17  2  0
 17 18  1  0
 13 19  1  0
 18 19  2  0
 19 20  1  0
  3 21  1  0
  4 22  1  0
  4 23  1  0
  6 24  1  0
  8 25  1  0
  8 26  1  0
  8 27  1  0
  9 28  1  0
 10 29  1  0
 12 30  1  0
 16 31  1  0
 17 32  1  0
 18 33  1  0
M  END
$$$$
