PDB_DB00188_85
     RDKit          3D

 53 54  0  0  0  0  0  0  0  0999 V2000
   49.1580 -136.4330   55.6540 N   0  0  0  0  0  0  0  0  0  0  0  0
   48.7230 -137.6780   55.9110 C   0  0  0  0  0  0  0  0  0  0  0  0
   49.5770 -138.7590   55.7000 C   0  0  0  0  0  0  0  0  0  0  0  0
   50.8800 -138.5630   55.2340 N   0  0  0  0  0  0  0  0  0  0  0  0
   51.3230 -137.2670   54.9720 C   0  0  0  0  0  0  0  0  0  0  0  0
   50.4610 -136.2020   55.1830 C   0  0  0  0  0  0  0  0  0  0  0  0
   47.4200 -137.8670   56.3790 C   0  0  0  0  0  0  0  0  0  0  0  0
   46.5880 -136.9670   56.2780 O   0  0  0  0  0  0  0  0  0  0  0  0
   47.1590 -139.0630   56.9370 N   0  0  0  0  0  0  0  0  0  0  0  0
   45.8410 -139.4240   57.4740 C   0  0  1  0  0  0  0  0  0  0  0  0
   45.3820 -140.6400   56.6890 C   0  0  0  0  0  0  0  0  0  0  0  0
   44.3250 -141.2880   57.3610 C   0  0  0  0  0  0  0  0  0  0  0  0
   43.0420 -140.7250   57.3560 C   0  0  0  0  0  0  0  0  0  0  0  0
   41.9870 -141.3650   58.0100 C   0  0  0  0  0  0  0  0  0  0  0  0
   42.2040 -142.5760   58.6690 C   0  0  0  0  0  0  0  0  0  0  0  0
   43.4770 -143.1480   58.6710 C   0  0  0  0  0  0  0  0  0  0  0  0
   44.5320 -142.5080   58.0160 C   0  0  0  0  0  0  0  0  0  0  0  0
   46.0540 -139.6790   58.9740 C   0  0  0  0  0  0  0  0  0  0  0  0
   47.0180 -140.3440   59.3550 O   0  0  0  0  0  0  0  0  0  0  0  0
   45.1690 -139.0870   59.8000 N   0  0  0  0  0  0  0  0  0  0  0  0
   45.2630 -139.2330   61.2680 C   0  0  1  0  0  0  0  0  0  0  0  0
   44.9900 -137.9310   62.0020 C   0  0  0  0  0  0  0  0  0  0  0  0
   45.7290 -136.7400   61.3330 C   0  0  0  0  0  0  0  0  0  0  0  0
   44.9870 -135.4300   61.6610 C   0  0  0  0  0  0  0  0  0  0  0  0
   47.1930 -136.6450   61.7900 C   0  0  0  0  0  0  0  0  0  0  0  0
   44.2440 -140.3000   61.7600 B   0  0  0  0  0  0  0  0  0  0  0  0
   44.5390 -141.5780   61.1800 O   0  0  0  0  0  0  0  0  0  0  0  0
   42.9160 -139.9000   61.3840 O   0  0  0  0  0  0  0  0  0  0  0  0
   49.2209 -139.7798   55.9029 H   0  0  0  0  0  0  0  0  0  0  0  0
   52.3441 -137.0918   54.6024 H   0  0  0  0  0  0  0  0  0  0  0  0
   50.7979 -135.1745   54.9813 H   0  0  0  0  0  0  0  0  0  0  0  0
   47.9183 -139.7570   56.9899 H   0  0  0  0  0  0  0  0  0  0  0  0
   45.0595 -138.6564   57.3743 H   0  0  0  0  0  0  0  0  0  0  0  0
   45.0375 -140.3206   55.6944 H   0  0  0  0  0  0  0  0  0  0  0  0
   46.2247 -141.3401   56.5901 H   0  0  0  0  0  0  0  0  0  0  0  0
   42.8646 -139.7732   56.8338 H   0  0  0  0  0  0  0  0  0  0  0  0
   40.9837 -140.9141   58.0057 H   0  0  0  0  0  0  0  0  0  0  0  0
   41.3732 -143.0787   59.1858 H   0  0  0  0  0  0  0  0  0  0  0  0
   43.6497 -144.1032   59.1885 H   0  0  0  0  0  0  0  0  0  0  0  0
   45.5322 -142.9657   58.0149 H   0  0  0  0  0  0  0  0  0  0  0  0
   44.4089 -138.5192   59.3989 H   0  0  0  0  0  0  0  0  0  0  0  0
   46.2948 -139.5427   61.4904 H   0  0  0  0  0  0  0  0  0  0  0  0
   43.9080 -137.7333   61.9905 H   0  0  0  0  0  0  0  0  0  0  0  0
   45.3565 -138.0311   63.0343 H   0  0  0  0  0  0  0  0  0  0  0  0
   45.7343 -136.9077   60.2459 H   0  0  0  0  0  0  0  0  0  0  0  0
   44.9192 -135.3104   62.7524 H   0  0  0  0  0  0  0  0  0  0  0  0
   45.5375 -134.5796   61.2324 H   0  0  0  0  0  0  0  0  0  0  0  0
   43.9745 -135.4649   61.2324 H   0  0  0  0  0  0  0  0  0  0  0  0
   47.2345 -136.6423   62.8892 H   0  0  0  0  0  0  0  0  0  0  0  0
   47.7544 -137.5086   61.4040 H   0  0  0  0  0  0  0  0  0  0  0  0
   47.6381 -135.7161   61.4040 H   0  0  0  0  0  0  0  0  0  0  0  0
   44.6918 -142.2399   61.9002 H   0  0  0  0  0  0  0  0  0  0  0  0
   42.3772 -139.7377   62.1985 H   0  0  0  0  0  0  0  0  0  0  0  0
  1  2  2  0
  2  3  1  0
  3  4  2  0
  4  5  1  0
  1  6  1  0
  5  6  2  0
  2  7  1  0
  7  8  2  0
  7  9  1  0
  9 10  1  0
 10 11  1  0
 11 12  1  0
 12 13  2  0
 13 14  1  0
 14 15  2  0
 15 16  1  0
 12 17  1  0
 16 17  2  0
 10 18  1  0
 18 19  2  0
 18 20  1  0
 20 21  1  0
 21 22  1  0
 22 23  1  0
 23 24  1  0
 23 25  1  0
 21 26  1  0
 26 27  1  0
 26 28  1  0
  3 29  1  0
  5 30  1  0
  6 31  1  0
  9 32  1  0
 10 33  1  1
 11 34  1  0
 11 35  1  0
 13 36  1  0
 14 37  1  0
 15 38  1  0
 16 39  1  0
 17 40  1  0
 20 41  1  0
 21 42  1  6
 22 43  1  0
 22 44  1  0
 23 45  1  0
 24 46  1  0
 24 47  1  0
 24 48  1  0
 25 49  1  0
 25 50  1  0
 25 51  1  0
 27 52  1  0
 28 53  1  0
M  END
$$$$
