PDB_DB00741_98
     RDKit          3D

 56 59  0  0  0  0  0  0  0  0999 V2000
   -3.8370   95.1810  -41.0750 C   0  0  0  0  0  0  0  0  0  0  0  0
   -4.1690   94.7580  -39.6490 C   0  0  0  0  0  0  0  0  0  0  0  0
   -5.2230   93.6700  -39.6250 C   0  0  0  0  0  0  0  0  0  0  0  0
   -5.4660   92.8250  -40.8030 C   0  0  0  0  0  0  0  0  0  0  0  0
   -4.7980   92.9970  -41.9480 C   0  0  0  0  0  0  0  0  0  0  0  0
   -5.0470   92.0020  -43.0460 C   0  0  0  0  0  0  0  0  0  0  0  0
   -5.2980   92.6900  -44.3680 C   0  0  0  0  0  0  0  0  0  0  0  0
   -4.3020   93.8120  -44.6420 C   0  0  2  0  0  0  0  0  0  0  0  0
   -4.1450   94.7990  -43.4790 C   0  0  1  0  0  0  0  0  0  0  0  0
   -3.7710   94.1070  -42.1430 C   0  0  1  0  0  0  0  0  0  0  0  0
   -3.7410   96.6890  -45.1610 C   0  0  0  0  0  0  0  0  0  0  0  0
   -3.3060   96.0640  -43.8250 C   0  0  2  0  0  0  0  0  0  0  0  0
   -3.9180   95.6980  -46.3120 C   0  0  1  0  0  0  0  0  0  0  0  0
   -4.8260   94.5700  -45.8430 C   0  0  1  0  0  0  0  0  0  0  0  0
   -5.0600   93.7720  -47.0950 C   0  0  0  0  0  0  0  0  0  0  0  0
   -5.0490   94.7930  -48.2250 C   0  0  0  0  0  0  0  0  0  0  0  0
   -4.6770   96.1090  -47.5980 C   0  0  2  0  0  0  0  0  0  0  0  0
   -2.5460   95.1670  -46.7250 C   0  0  0  0  0  0  0  0  0  0  0  0
   -2.4010   93.4210  -42.1780 C   0  0  0  0  0  0  0  0  0  0  0  0
   -3.9330   96.9780  -48.5970 C   0  0  0  0  0  0  0  0  0  0  0  0
   -3.6370   98.3940  -48.2090 C   0  0  0  0  0  0  0  0  0  0  0  0
   -5.8880   93.4770  -38.6210 O   0  0  0  0  0  0  0  0  0  0  0  0
   -1.8830   95.8610  -43.8430 O   0  0  0  0  0  0  0  0  0  0  0  0
   -5.9180   96.7680  -47.2910 O   0  0  0  0  0  0  0  0  0  0  0  0
   -3.5620   96.5420  -49.6830 O   0  0  0  0  0  0  0  0  0  0  0  0
   -2.8720   99.0430  -49.2170 O   0  0  0  0  0  0  0  0  0  0  0  0
   -4.6038   95.9052  -41.3874 H   0  0  0  0  0  0  0  0  0  0  0  0
   -2.8090   95.5675  -41.0127 H   0  0  0  0  0  0  0  0  0  0  0  0
   -3.2554   94.3816  -39.1657 H   0  0  0  0  0  0  0  0  0  0  0  0
   -4.5633   95.6332  -39.1118 H   0  0  0  0  0  0  0  0  0  0  0  0
   -6.2204   92.0269  -40.7404 H   0  0  0  0  0  0  0  0  0  0  0  0
   -4.1669   91.3494  -43.1437 H   0  0  0  0  0  0  0  0  0  0  0  0
   -5.9409   91.4161  -42.7857 H   0  0  0  0  0  0  0  0  0  0  0  0
   -5.2202   91.9450  -45.1735 H   0  0  0  0  0  0  0  0  0  0  0  0
   -6.3019   93.1377  -44.3260 H   0  0  0  0  0  0  0  0  0  0  0  0
   -3.3117   93.3607  -44.8018 H   0  0  0  0  0  0  0  0  0  0  0  0
   -5.1498   95.2104  -43.3027 H   0  0  0  0  0  0  0  0  0  0  0  0
   -4.7013   97.2012  -45.0013 H   0  0  0  0  0  0  0  0  0  0  0  0
   -2.9285   97.3668  -45.4618 H   0  0  0  0  0  0  0  0  0  0  0  0
   -3.5178   96.7536  -42.9946 H   0  0  0  0  0  0  0  0  0  0  0  0
   -5.7793   94.9220  -45.4218 H   0  0  0  0  0  0  0  0  0  0  0  0
   -4.2590   93.0314  -47.2361 H   0  0  0  0  0  0  0  0  0  0  0  0
   -6.0057   93.2116  -47.0555 H   0  0  0  0  0  0  0  0  0  0  0  0
   -4.3076   94.5105  -48.9869 H   0  0  0  0  0  0  0  0  0  0  0  0
   -6.0277   94.8492  -48.7240 H   0  0  0  0  0  0  0  0  0  0  0  0
   -1.9554   94.9384  -45.8256 H   0  0  0  0  0  0  0  0  0  0  0  0
   -2.6717   94.2526  -47.3233 H   0  0  0  0  0  0  0  0  0  0  0  0
   -2.0233   95.9278  -47.3233 H   0  0  0  0  0  0  0  0  0  0  0  0
   -2.0521   93.2463  -41.1496 H   0  0  0  0  0  0  0  0  0  0  0  0
   -2.4859   92.4591  -42.7048 H   0  0  0  0  0  0  0  0  0  0  0  0
   -1.6817   94.0653  -42.7048 H   0  0  0  0  0  0  0  0  0  0  0  0
   -4.5843   98.9357  -48.0700 H   0  0  0  0  0  0  0  0  0  0  0  0
   -3.0581   98.3903  -47.2737 H   0  0  0  0  0  0  0  0  0  0  0  0
   -1.5448   95.8127  -42.9138 H   0  0  0  0  0  0  0  0  0  0  0  0
   -6.0268   96.8258  -46.3087 H   0  0  0  0  0  0  0  0  0  0  0  0
   -2.1900   99.6216  -48.7925 H   0  0  0  0  0  0  0  0  0  0  0  0
  1  2  1  0
  2  3  1  0
  3  4  1  0
  4  5  2  0
  5  6  1  0
  6  7  1  0
  7  8  1  0
  8  9  1  0
  1 10  1  0
  5 10  1  0
  9 10  1  0
  9 12  1  0
 11 12  1  0
 11 13  1  0
  8 14  1  0
 13 14  1  0
 14 15  1  0
 15 16  1  0
 13 17  1  0
 16 17  1  0
 13 18  1  6
 10 19  1  6
 17 20  1  0
 20 21  1  0
  3 22  2  0
 12 23  1  0
 17 24  1  1
 20 25  2  0
 21 26  1  0
  1 27  1  0
  1 28  1  0
  2 29  1  0
  2 30  1  0
  4 31  1  0
  6 32  1  0
  6 33  1  0
  7 34  1  0
  7 35  1  0
  8 36  1  6
  9 37  1  1
 11 38  1  0
 11 39  1  0
 12 40  1  1
 14 41  1  1
 15 42  1  0
 15 43  1  0
 16 44  1  0
 16 45  1  0
 18 46  1  0
 18 47  1  0
 18 48  1  0
 19 49  1  0
 19 50  1  0
 19 51  1  0
 21 52  1  0
 21 53  1  0
 23 54  1  0
 24 55  1  0
 26 56  1  0
M  END
$$$$
