PDB_DB00234_99
     RDKit          3D

 58 60  0  0  0  0  0  0  0  0999 V2000
  -13.5470   -2.7840   29.1240 C   0  0  0  0  0  0  0  0  0  0  0  0
  -12.7770   -3.9620   28.5510 C   0  0  0  0  0  0  0  0  0  0  0  0
  -11.4830   -3.5510   28.1060 O   0  0  0  0  0  0  0  0  0  0  0  0
  -11.1520   -3.6420   26.7810 C   0  0  0  0  0  0  0  0  0  0  0  0
  -12.1490   -3.8990   25.8480 C   0  0  0  0  0  0  0  0  0  0  0  0
  -11.8380   -3.9960   24.4890 C   0  0  0  0  0  0  0  0  0  0  0  0
  -10.5170   -3.8320   24.0560 C   0  0  0  0  0  0  0  0  0  0  0  0
   -9.5260   -3.5700   25.0020 C   0  0  0  0  0  0  0  0  0  0  0  0
   -9.8400   -3.4700   26.3580 C   0  0  0  0  0  0  0  0  0  0  0  0
   -8.8140   -3.2180   27.2400 O   0  0  0  0  0  0  0  0  0  0  0  0
   -8.9100   -2.3210   28.3540 C   0  0  2  0  0  0  0  0  0  0  0  0
   -9.2590   -0.9510   27.9060 C   0  0  0  0  0  0  0  0  0  0  0  0
   -8.4620   -0.3140   26.9560 C   0  0  0  0  0  0  0  0  0  0  0  0
   -8.8110    0.9670   26.5310 C   0  0  0  0  0  0  0  0  0  0  0  0
   -9.9440    1.6100   27.0460 C   0  0  0  0  0  0  0  0  0  0  0  0
  -10.7430    0.9640   27.9980 C   0  0  0  0  0  0  0  0  0  0  0  0
  -10.4030   -0.3230   28.4280 C   0  0  0  0  0  0  0  0  0  0  0  0
   -7.6070   -2.4130   29.1480 C   0  0  2  0  0  0  0  0  0  0  0  0
   -7.5830   -1.5530   30.2760 O   0  0  0  0  0  0  0  0  0  0  0  0
   -6.6770   -2.1610   31.2070 C   0  0  0  0  0  0  0  0  0  0  0  0
   -5.2720   -2.2630   30.5820 C   0  0  0  0  0  0  0  0  0  0  0  0
   -5.2760   -2.7920   29.1900 N   0  0  0  0  0  0  0  0  0  0  0  0
   -6.3290   -2.1610   28.3630 C   0  0  0  0  0  0  0  0  0  0  0  0
  -13.5188   -2.8271   30.2228 H   0  0  0  0  0  0  0  0  0  0  0  0
  -13.0880   -1.8447   28.7820 H   0  0  0  0  0  0  0  0  0  0  0  0
  -14.5916   -2.8275   28.7820 H   0  0  0  0  0  0  0  0  0  0  0  0
  -12.6638   -4.7320   29.3284 H   0  0  0  0  0  0  0  0  0  0  0  0
  -13.3346   -4.3653   27.6928 H   0  0  0  0  0  0  0  0  0  0  0  0
  -10.9825   -4.7226   26.8976 H   0  0  0  0  0  0  0  0  0  0  0  0
  -12.6110   -4.8551   26.1351 H   0  0  0  0  0  0  0  0  0  0  0  0
  -12.7732   -2.9945   25.8960 H   0  0  0  0  0  0  0  0  0  0  0  0
  -12.1566   -4.9968   24.1619 H   0  0  0  0  0  0  0  0  0  0  0  0
  -12.3550   -3.1296   24.0508 H   0  0  0  0  0  0  0  0  0  0  0  0
  -10.2303   -4.7579   23.5358 H   0  0  0  0  0  0  0  0  0  0  0  0
  -10.5495   -2.9175   23.4456 H   0  0  0  0  0  0  0  0  0  0  0  0
   -8.7842   -4.3771   24.9107 H   0  0  0  0  0  0  0  0  0  0  0  0
   -9.2117   -2.5468   24.7486 H   0  0  0  0  0  0  0  0  0  0  0  0
   -9.6595   -4.5483   26.4793 H   0  0  0  0  0  0  0  0  0  0  0  0
   -9.7320   -2.6068   29.0267 H   0  0  0  0  0  0  0  0  0  0  0  0
   -8.6374   -0.5298   28.7099 H   0  0  0  0  0  0  0  0  0  0  0  0
   -7.4480   -0.2488   27.3773 H   0  0  0  0  0  0  0  0  0  0  0  0
   -8.5805   -0.9328   26.0543 H   0  0  0  0  0  0  0  0  0  0  0  0
   -7.9523    1.6168   26.7556 H   0  0  0  0  0  0  0  0  0  0  0  0
   -9.0784    0.8095   25.4757 H   0  0  0  0  0  0  0  0  0  0  0  0
   -9.5961    2.5466   27.5061 H   0  0  0  0  0  0  0  0  0  0  0  0
  -10.6074    1.6922   26.1725 H   0  0  0  0  0  0  0  0  0  0  0  0
  -10.7572    1.6057   28.8913 H   0  0  0  0  0  0  0  0  0  0  0  0
  -11.6982    0.8154   27.4732 H   0  0  0  0  0  0  0  0  0  0  0  0
  -11.2587   -0.9738   28.1952 H   0  0  0  0  0  0  0  0  0  0  0  0
  -10.1559   -0.1817   29.4905 H   0  0  0  0  0  0  0  0  0  0  0  0
   -7.6131   -3.4697   29.4534 H   0  0  0  0  0  0  0  0  0  0  0  0
   -6.6266   -1.5488   32.1195 H   0  0  0  0  0  0  0  0  0  0  0  0
   -7.0367   -3.1704   31.4555 H   0  0  0  0  0  0  0  0  0  0  0  0
   -4.8224   -1.2591   30.5713 H   0  0  0  0  0  0  0  0  0  0  0  0
   -4.6968   -2.9724   31.1951 H   0  0  0  0  0  0  0  0  0  0  0  0
   -4.3587   -2.6056   28.7603 H   0  0  0  0  0  0  0  0  0  0  0  0
   -6.3805   -2.6302   27.3694 H   0  0  0  0  0  0  0  0  0  0  0  0
   -6.1445   -1.0917   28.1828 H   0  0  0  0  0  0  0  0  0  0  0  0
  1  2  1  0
  2  3  1  0
  3  4  1  0
  4  5  1  0
  5  6  1  0
  6  7  1  0
  7  8  1  0
  4  9  1  0
  8  9  1  0
  9 10  1  0
 10 11  1  0
 11 12  1  0
 12 13  1  0
 13 14  1  0
 14 15  1  0
 15 16  1  0
 12 17  1  0
 16 17  1  0
 11 18  1  0
 18 19  1  0
 19 20  1  0
 20 21  1  0
 21 22  1  0
 18 23  1  0
 22 23  1  0
  1 24  1  0
  1 25  1  0
  1 26  1  0
  2 27  1  0
  2 28  1  0
  4 29  1  0
  5 30  1  0
  5 31  1  0
  6 32  1  0
  6 33  1  0
  7 34  1  0
  7 35  1  0
  8 36  1  0
  8 37  1  0
  9 38  1  0
 11 39  1  1
 12 40  1  0
 13 41  1  0
 13 42  1  0
 14 43  1  0
 14 44  1  0
 15 45  1  0
 15 46  1  0
 16 47  1  0
 16 48  1  0
 17 49  1  0
 17 50  1  0
 18 51  1  1
 20 52  1  0
 20 53  1  0
 21 54  1  0
 21 55  1  0
 22 56  1  0
 23 57  1  0
 23 58  1  0
M  END
>  <PDBID>  (1) 
4XNX

>  <PDB ID>  (1) 
4XNX

>  <Generic Name>  (1) 
Reboxetine

>  <Brand Name>  (1) 
Davedax#Edronax#Norebox#Prolift#Solvex#Vestra

>  <DrugBank ID>  (1) 
DB00234

>  <ATC Codes>  (1) 
N06AX18

>  <Ligand ID>  (1) 
41X

>  <Target Name>  (1) 
Sodium-dependent noradrenaline transporter

>  <UniProt ID>  (1) 
P23975

>  <PDB ID.1>  (1) 
4XNX

>  <Seq. Identity>  (1) 
58%

$$$$
