PDB_DB00582_99
     RDKit          3D

 55 57  0  0  0  0  0  0  0  0999 V2000
  100.5620   12.5190   14.4620 F   0  0  0  0  0  0  0  0  0  0  0  0
   98.5590    8.2040   18.1230 F   0  0  0  0  0  0  0  0  0  0  0  0
  104.4360   10.8420   12.4690 F   0  0  0  0  0  0  0  0  0  0  0  0
  101.0460    9.5420   17.5100 O   0  0  0  0  0  0  0  0  0  0  0  0
  102.1360   12.2000   17.7550 N   0  0  0  0  0  0  0  0  0  0  0  0
   97.5560   11.6300   17.5310 N   0  0  0  0  0  0  0  0  0  0  0  0
  102.7610   13.2680   17.2010 N   0  0  0  0  0  0  0  0  0  0  0  0
  104.1750   12.0960   18.4920 N   0  0  0  0  0  0  0  0  0  0  0  0
   96.3340   10.7170   19.3770 N   0  0  0  0  0  0  0  0  0  0  0  0
  100.6300   10.5920   16.6290 C   0  0  1  0  0  0  0  0  0  0  0  0
   99.1610   10.4210   16.1680 C   0  0  1  0  0  0  0  0  0  0  0  0
  100.7520   11.8910   17.4430 C   0  0  0  0  0  0  0  0  0  0  0  0
  101.6100   10.6610   15.4580 C   0  0  0  0  0  0  0  0  0  0  0  0
   98.9630    9.1470   15.3340 C   0  0  0  0  0  0  0  0  0  0  0  0
   98.2090   10.4770   17.3340 C   0  0  0  0  0  0  0  0  0  0  0  0
  101.5680   11.6200   14.4530 C   0  0  0  0  0  0  0  0  0  0  0  0
  102.6530    9.7440   15.3990 C   0  0  0  0  0  0  0  0  0  0  0  0
   97.9320    9.3980   18.1980 C   0  0  0  0  0  0  0  0  0  0  0  0
  102.4900   11.7080   13.4450 C   0  0  0  0  0  0  0  0  0  0  0  0
  103.5990    9.7900   14.3900 C   0  0  0  0  0  0  0  0  0  0  0  0
  102.9960   11.5300   18.5130 C   0  0  0  0  0  0  0  0  0  0  0  0
  103.4900   10.7720   13.4430 C   0  0  0  0  0  0  0  0  0  0  0  0
   96.9770    9.5640   19.2150 C   0  0  0  0  0  0  0  0  0  0  0  0
   96.6670   11.6820   18.5250 C   0  0  0  0  0  0  0  0  0  0  0  0
  103.9750   13.1550   17.6790 C   0  0  0  0  0  0  0  0  0  0  0  0
  100.9304    9.8338   18.4489 H   0  0  0  0  0  0  0  0  0  0  0  0
   98.2635   12.3559   17.7139 H   0  0  0  0  0  0  0  0  0  0  0  0
  102.7575   13.2110   16.1726 H   0  0  0  0  0  0  0  0  0  0  0  0
  104.4597   12.3986   19.4345 H   0  0  0  0  0  0  0  0  0  0  0  0
   95.3255   10.5355   19.2727 H   0  0  0  0  0  0  0  0  0  0  0  0
   98.9276   11.2707   15.5096 H   0  0  0  0  0  0  0  0  0  0  0  0
  100.1914   11.7772   18.3826 H   0  0  0  0  0  0  0  0  0  0  0  0
  100.3441   12.7146   16.8386 H   0  0  0  0  0  0  0  0  0  0  0  0
  100.9483   10.0116   14.8660 H   0  0  0  0  0  0  0  0  0  0  0  0
   98.8292    8.2862   16.0056 H   0  0  0  0  0  0  0  0  0  0  0  0
   98.0715    9.2590   14.6995 H   0  0  0  0  0  0  0  0  0  0  0  0
   99.8465    8.9832   14.6995 H   0  0  0  0  0  0  0  0  0  0  0  0
   97.3933   10.1259   16.6849 H   0  0  0  0  0  0  0  0  0  0  0  0
  102.1770   12.2953   15.0719 H   0  0  0  0  0  0  0  0  0  0  0  0
  103.2043    9.8394   16.3461 H   0  0  0  0  0  0  0  0  0  0  0  0
  102.1275    8.8009   15.1882 H   0  0  0  0  0  0  0  0  0  0  0  0
   98.7023    9.7587   18.8955 H   0  0  0  0  0  0  0  0  0  0  0  0
  101.9499   11.6209   12.4907 H   0  0  0  0  0  0  0  0  0  0  0  0
  102.9965   12.6721   13.5997 H   0  0  0  0  0  0  0  0  0  0  0  0
  104.5817    9.9080   14.8700 H   0  0  0  0  0  0  0  0  0  0  0  0
  103.4453    8.8553   13.8309 H   0  0  0  0  0  0  0  0  0  0  0  0
  102.6243   11.5100   19.5481 H   0  0  0  0  0  0  0  0  0  0  0  0
  103.0897   10.5073   18.1190 H   0  0  0  0  0  0  0  0  0  0  0  0
  104.1016   11.4241   14.0839 H   0  0  0  0  0  0  0  0  0  0  0  0
   97.4942    9.3598   20.1641 H   0  0  0  0  0  0  0  0  0  0  0  0
   96.1720    8.8838   18.9000 H   0  0  0  0  0  0  0  0  0  0  0  0
   97.0105   12.5100   19.1626 H   0  0  0  0  0  0  0  0  0  0  0  0
   95.7462   11.6972   17.9234 H   0  0  0  0  0  0  0  0  0  0  0  0
  104.6687   13.0682   16.8297 H   0  0  0  0  0  0  0  0  0  0  0  0
  104.1457   14.0502   18.2951 H   0  0  0  0  0  0  0  0  0  0  0  0
  5  7  1  0
 10  4  1  1
 10 11  1  0
  5 12  1  0
 10 12  1  0
 10 13  1  0
 11 14  1  0
  6 15  1  0
 11 15  1  0
  1 16  1  0
 13 16  1  0
 13 17  1  0
  2 18  1  0
 15 18  1  0
 16 19  1  0
 17 20  1  0
  5 21  1  0
 21  8  1  0
  3 22  1  0
 19 22  1  0
 20 22  1  0
  9 23  1  0
 18 23  1  0
  6 24  1  0
  9 24  1  0
  7 25  1  0
 25  8  1  0
  4 26  1  0
  6 27  1  0
  7 28  1  0
  8 29  1  6
  9 30  1  0
 11 31  1  6
 12 32  1  0
 12 33  1  0
 13 34  1  0
 14 35  1  0
 14 36  1  0
 14 37  1  0
 15 38  1  0
 16 39  1  0
 17 40  1  0
 17 41  1  0
 18 42  1  0
 19 43  1  0
 19 44  1  0
 20 45  1  0
 20 46  1  0
 21 47  1  0
 21 48  1  0
 22 49  1  0
 23 50  1  0
 23 51  1  0
 24 52  1  0
 24 53  1  0
 25 54  1  0
 25 55  1  0
M  END
>  <PDBID>  (1) 
5HS1

>  <PDB ID>  (1) 
5HS1

>  <Generic Name>  (1) 
Voriconazole

>  <Brand Name>  (1) 
Ach-voriconazole#Apo-voriconazole#Auro-voriconazole#Mylan-voriconazole#Sandoz Voriconazole#Teva-voriconazole#Vfend#Vfend for Injection#Voriconazole#Voriconazole for Injection

>  <DrugBank ID>  (1) 
DB00582

>  <ATC Codes>  (1) 
J02AC03

>  <Ligand ID>  (1) 
VOR

>  <Target Name>  (1) 
Lanosterol 14-alpha demethylase

>  <UniProt ID>  (1) 
P10613

>  <PDB ID.1>  (1) 
5HS1

>  <Seq. Identity>  (1) 
65%

$$$$
