PDB_DB01197_97
     RDKit          3D

 66 66  0  0  0  0  0  0  0  0999 V2000
   11.8780   -2.6990   17.1680 O   0  0  0  0  0  0  0  0  0  0  0  0
   11.9240   -3.5900   18.0660 C   0  0  0  0  0  0  0  0  0  0  0  0
   10.8730   -4.6980   18.1030 C   0  0  1  0  0  0  0  0  0  0  0  0
    9.5000   -4.0100   18.1130 C   0  0  0  0  0  0  0  0  0  0  0  0
    8.1180   -5.1660   18.1620 S   0  0  0  0  0  0  0  0  0  0  0  0
   11.0970   -5.6510   16.9240 C   0  0  0  0  0  0  0  0  0  0  0  0
   12.8860   -3.5530   18.9960 N   0  0  0  0  0  0  0  0  0  0  0  0
   13.9290   -2.4840   19.0320 C   0  0  2  0  0  0  0  0  0  0  0  0
   14.7460   -2.4090   17.7410 C   0  0  0  0  0  0  0  0  0  0  0  0
   14.8540   -3.3400   16.9830 O   0  0  0  0  0  0  0  0  0  0  0  0
   15.3030   -1.2610   17.5100 O   0  0  0  0  0  0  0  0  0  0  0  0
   13.0810   -4.5230   20.1270 C   0  0  0  0  0  0  0  0  0  0  0  0
   14.2390   -4.0250   20.9000 C   0  0  0  0  0  0  0  0  0  0  0  0
   14.7850   -2.7970   20.2280 C   0  0  0  0  0  0  0  0  0  0  0  0
   38.6210    7.5690   74.9730 O   0  0  0  0  0  0  0  0  0  0  0  0
   39.5070    8.4620   75.1580 C   0  0  0  0  0  0  0  0  0  0  0  0
   39.7100    9.5630   74.1240 C   0  0  1  0  0  0  0  0  0  0  0  0
   39.9330    8.8600   72.7810 C   0  0  0  0  0  0  0  0  0  0  0  0
   40.1940    9.9940   71.4170 S   0  0  0  0  0  0  0  0  0  0  0  0
   38.5130   10.5180   74.1490 C   0  0  0  0  0  0  0  0  0  0  0  0
   40.2710    8.4250   76.2570 N   0  0  0  0  0  0  0  0  0  0  0  0
   40.1250    7.3500   77.2970 C   0  0  2  0  0  0  0  0  0  0  0  0
   38.7020    7.2820   77.8910 C   0  0  0  0  0  0  0  0  0  0  0  0
   37.9300    8.2150   77.8630 O   0  0  0  0  0  0  0  0  0  0  0  0
   38.3750    6.1490   78.4090 O   0  0  0  0  0  0  0  0  0  0  0  0
   41.3630    9.3900   76.6340 C   0  0  0  0  0  0  0  0  0  0  0  0
   41.9160    8.8950   77.9170 C   0  0  0  0  0  0  0  0  0  0  0  0
   41.1650    7.6640   78.3410 C   0  0  0  0  0  0  0  0  0  0  0  0
   11.8319   -1.8055   17.5918 H   0  0  0  0  0  0  0  0  0  0  0  0
   11.2910   -2.9678   18.7157 H   0  0  0  0  0  0  0  0  0  0  0  0
   10.9414   -5.3280   19.0022 H   0  0  0  0  0  0  0  0  0  0  0  0
    9.4423   -3.3604   18.9988 H   0  0  0  0  0  0  0  0  0  0  0  0
    9.4149   -3.4431   17.1742 H   0  0  0  0  0  0  0  0  0  0  0  0
    7.7948   -5.4364   19.4656 H   0  0  0  0  0  0  0  0  0  0  0  0
   11.3332   -6.6557   17.3044 H   0  0  0  0  0  0  0  0  0  0  0  0
   10.1850   -5.6962   16.3106 H   0  0  0  0  0  0  0  0  0  0  0  0
   11.9336   -5.2852   16.3106 H   0  0  0  0  0  0  0  0  0  0  0  0
   13.4679   -1.4887   19.1147 H   0  0  0  0  0  0  0  0  0  0  0  0
   15.6387   -2.7493   18.2862 H   0  0  0  0  0  0  0  0  0  0  0  0
   14.9512   -4.1779   17.5012 H   0  0  0  0  0  0  0  0  0  0  0  0
   15.5173   -0.8193   18.3697 H   0  0  0  0  0  0  0  0  0  0  0  0
   12.1833   -4.5544   20.7619 H   0  0  0  0  0  0  0  0  0  0  0  0
   13.2551   -5.5436   19.7553 H   0  0  0  0  0  0  0  0  0  0  0  0
   13.9196   -3.7746   21.9224 H   0  0  0  0  0  0  0  0  0  0  0  0
   15.0173   -4.8011   20.9444 H   0  0  0  0  0  0  0  0  0  0  0  0
   15.8203   -2.9807   19.9049 H   0  0  0  0  0  0  0  0  0  0  0  0
   14.7757   -1.9494   20.9290 H   0  0  0  0  0  0  0  0  0  0  0  0
   38.2954    7.2408   75.8484 H   0  0  0  0  0  0  0  0  0  0  0  0
   40.2465    7.8362   74.6369 H   0  0  0  0  0  0  0  0  0  0  0  0
   40.5847   10.1972   74.3306 H   0  0  0  0  0  0  0  0  0  0  0  0
   40.8174    8.2119   72.8695 H   0  0  0  0  0  0  0  0  0  0  0  0
   39.0194    8.2894   72.5580 H   0  0  0  0  0  0  0  0  0  0  0  0
   40.4809   11.2404   71.9079 H   0  0  0  0  0  0  0  0  0  0  0  0
   38.2397   10.7361   75.1919 H   0  0  0  0  0  0  0  0  0  0  0  0
   38.7799   11.4540   73.6365 H   0  0  0  0  0  0  0  0  0  0  0  0
   37.6597   10.0498   73.6365 H   0  0  0  0  0  0  0  0  0  0  0  0
   40.2776    6.3523   76.8595 H   0  0  0  0  0  0  0  0  0  0  0  0
   39.0895    7.6317   78.8593 H   0  0  0  0  0  0  0  0  0  0  0  0
   37.7059    8.4858   78.7885 H   0  0  0  0  0  0  0  0  0  0  0  0
   38.3953    6.2194   79.3963 H   0  0  0  0  0  0  0  0  0  0  0  0
   42.1449    9.4046   75.8604 H   0  0  0  0  0  0  0  0  0  0  0  0
   40.9803   10.4170   76.7281 H   0  0  0  0  0  0  0  0  0  0  0  0
   42.9804    8.6495   77.7877 H   0  0  0  0  0  0  0  0  0  0  0  0
   41.8117    9.6733   78.6873 H   0  0  0  0  0  0  0  0  0  0  0  0
   40.6751    7.8443   79.3092 H   0  0  0  0  0  0  0  0  0  0  0  0
   41.8600    6.8177   78.4446 H   0  0  0  0  0  0  0  0  0  0  0  0
  1  2  1  0
  2  3  1  0
  3  4  1  0
  4  5  1  0
  3  6  1  0
  2  7  1  0
  7  8  1  0
  8  9  1  0
  9 10  1  0
  9 11  1  0
  7 12  1  0
 12 13  1  0
  8 14  1  0
 13 14  1  0
 15 16  1  0
 16 17  1  0
 17 18  1  0
 18 19  1  0
 17 20  1  0
 16 21  1  0
 21 22  1  0
 22 23  1  0
 23 24  1  0
 23 25  1  0
 21 26  1  0
 26 27  1  0
 22 28  1  0
 27 28  1  0
  1 29  1  0
  2 30  1  0
  3 31  1  1
  4 32  1  0
  4 33  1  0
  5 34  1  0
  6 35  1  0
  6 36  1  0
  6 37  1  0
  8 38  1  1
  9 39  1  0
 10 40  1  0
 11 41  1  0
 12 42  1  0
 12 43  1  0
 13 44  1  0
 13 45  1  0
 14 46  1  0
 14 47  1  0
 15 48  1  0
 16 49  1  0
 17 50  1  1
 18 51  1  0
 18 52  1  0
 19 53  1  0
 20 54  1  0
 20 55  1  0
 20 56  1  0
 22 57  1  6
 23 58  1  0
 24 59  1  0
 25 60  1  0
 26 61  1  0
 26 62  1  0
 27 63  1  0
 27 64  1  0
 28 65  1  0
 28 66  1  0
M  END
>  <PDBID>  (1) 
1J37

>  <PDB ID>  (1) 
1J37

>  <Generic Name>  (1) 
Captopril

>  <Brand Name>  (1) 
Apo-capto Tab 100mg#Apo-capto Tab 12.5mg#Apo-capto Tab 25mg#Apo-capto Tab 50mg#Apo-capto Tab 6.25mg#Bci Captopril Tablets#Capoten Tab 100mg#Capoten Tab 12.5mg#Capoten Tab 25mg#Capoten Tab 50mg#Captopril#Captopril Tablets#Captopril and Hydrochlorothiazide#Captopril-100 Tab 100mg#Captopril-12.5 Tab 12.5mg#Captopril-25 Tab 25mg#Captopril-50 Tab 50mg#Captril#Dom-captopril#Ftp-captopril#Med Captopril - Tab  12.5mg#Med Captopril - Tab 100mg#Med Captopril - Tab 25mg#Med Captopril - Tab 50mg#Mylan-captopril#Novo-captoril#Nu-capto Tab 100mg#Nu-capto Tab 12.5mg#Nu-capto Tab 25mg#Nu-capto Tab 50mg#Orb-captopril#PMS-captopril - Tab  12.5mg#PMS-captopril - Tab  25mg#PMS-captopril - Tab  50mg#PMS-captopril - Tab 100mg#Penta-captopril Tablets#Ratio-captopril Tab 100mg#Ratio-captopril Tab 12.5mg#Ratio-captopril Tab 25mg#Ratio-captopril Tab 50mg#Teva-captopril#Tria-captopril 100mg Tablet#Tria-captopril 12.5mg Tablet#Tria-captopril 25mg Tablet#Tria-captopril 50mg Tablet#Acepress#Acepril#Alopresin#Apopril#Capoten#Captolane#Captoril#Cesplon#Dilabar#Garranil#Hipertil#Hypertil#Lopirin#Lopril#Tenosbon#Tensoprel

>  <DrugBank ID>  (1) 
DB01197

>  <ATC Codes>  (1) 
C09AA01#C09BA01

>  <Ligand ID>  (1) 
X8Z

>  <Target Name>  (1) 
Angiotensin-converting enzyme

>  <UniProt ID>  (1) 
P12821

>  <PDB ID.1>  (1) 
1J37

>  <Seq. Identity>  (1) 
44%

$$$$
