PDB_DB00558_99
     RDKit          3D

204204  0  0  0  0  0  0  0  0999 V2000
   13.8540  -29.1530   49.8070 C   0  0  2  0  0  0  0  0  0  0  0  0
   13.6200  -30.2020   50.2090 O   0  0  0  0  0  0  0  0  0  0  0  0
   15.0610  -28.7400   49.3930 O   0  0  0  0  0  0  0  0  0  0  0  0
   12.7930  -28.0930   49.9100 C   0  0  1  0  0  0  0  0  0  0  0  0
   13.0170  -26.7640   49.1270 C   0  0  0  0  0  0  0  0  0  0  0  0
   11.8780  -25.7830   49.1020 C   0  0  1  0  0  0  0  0  0  0  0  0
   10.6100  -26.2220   49.7770 C   0  0  1  0  0  0  0  0  0  0  0  0
    9.4490  -25.4420   49.6310 N   0  0  0  0  0  0  0  0  0  0  0  0
    9.1020  -24.2530   50.2530 C   0  0  0  0  0  0  0  0  0  0  0  0
    9.6850  -23.7680   51.1120 O   0  0  0  0  0  0  0  0  0  0  0  0
    7.8780  -23.6110   49.6690 C   0  0  0  0  0  0  0  0  0  0  0  0
   10.3910  -27.6860   50.1150 C   0  0  1  0  0  0  0  0  0  0  0  0
   11.4340  -28.5830   50.0200 O   0  0  0  0  0  0  0  0  0  0  0  0
    9.3310  -28.1210   51.1180 C   0  0  2  0  0  0  0  0  0  0  0  0
    9.7350  -27.8390   52.3520 O   0  0  0  0  0  0  0  0  0  0  0  0
    8.9220  -29.5600   50.9640 C   0  0  2  0  0  0  0  0  0  0  0  0
    8.7140  -29.9360   49.7230 O   0  0  0  0  0  0  0  0  0  0  0  0
    7.8680  -29.9990   51.9340 C   0  0  0  0  0  0  0  0  0  0  0  0
    6.7540  -29.3200   51.8070 O   0  0  0  0  0  0  0  0  0  0  0  0
   12.2010  -24.4090   49.0650 N   0  0  0  0  0  0  0  0  0  0  0  0
   11.5470  -23.4410   48.2690 C   0  0  0  0  0  0  0  0  0  0  0  0
   10.6250  -23.7260   47.3880 N   0  0  0  0  0  0  0  0  0  0  0  0
   11.9530  -22.2250   48.4580 N   0  0  0  0  0  0  0  0  0  0  0  0
   47.6690  -27.3240   22.3130 C   0  0  1  0  0  0  0  0  0  0  0  0
   48.4830  -27.6890   21.5790 O   0  0  0  0  0  0  0  0  0  0  0  0
   47.6260  -26.0650   22.7840 O   0  0  0  0  0  0  0  0  0  0  0  0
   46.4210  -28.1620   22.4670 C   0  0  1  0  0  0  0  0  0  0  0  0
   45.1240  -27.4810   22.9880 C   0  0  0  0  0  0  0  0  0  0  0  0
   43.8310  -28.2810   22.8890 C   0  0  1  0  0  0  0  0  0  0  0  0
   43.9690  -29.7330   22.4610 C   0  0  1  0  0  0  0  0  0  0  0  0
   42.8150  -30.5240   22.2760 N   0  0  0  0  0  0  0  0  0  0  0  0
   42.1800  -31.2480   23.2880 C   0  0  1  0  0  0  0  0  0  0  0  0
   42.5610  -31.2610   24.4040 O   0  0  0  0  0  0  0  0  0  0  0  0
   40.8550  -31.7560   22.8320 C   0  0  0  0  0  0  0  0  0  0  0  0
   45.1800  -30.1400   21.6410 C   0  0  1  0  0  0  0  0  0  0  0  0
   46.2840  -29.2940   21.5610 O   0  0  0  0  0  0  0  0  0  0  0  0
   45.6160  -31.6160   21.5510 C   0  0  2  0  0  0  0  0  0  0  0  0
   46.1720  -31.9420   22.7220 O   0  0  0  0  0  0  0  0  0  0  0  0
   46.5270  -31.8710   20.3530 C   0  0  2  0  0  0  0  0  0  0  0  0
   46.1520  -31.2290   19.2270 O   0  0  0  0  0  0  0  0  0  0  0  0
   46.8770  -33.3190   20.2100 C   0  0  0  0  0  0  0  0  0  0  0  0
   45.8690  -33.9940   19.7020 O   0  0  0  0  0  0  0  0  0  0  0  0
   42.9830  -27.9990   23.9790 N   0  0  0  0  0  0  0  0  0  0  0  0
   41.5780  -28.0450   23.9160 C   0  0  0  0  0  0  0  0  0  0  0  0
   41.0600  -28.1440   22.7530 N   0  0  0  0  0  0  0  0  0  0  0  0
   40.8340  -27.9770   24.9830 N   0  0  0  0  0  0  0  0  0  0  0  0
   46.0370   16.4080   23.3930 C   0  0  1  0  0  0  0  0  0  0  0  0
   46.4990   17.4570   23.2330 O   0  0  0  0  0  0  0  0  0  0  0  0
   45.4220   16.0320   24.5280 O   0  0  0  0  0  0  0  0  0  0  0  0
   46.2220   15.3440   22.3290 C   0  0  1  0  0  0  0  0  0  0  0  0
   45.5770   13.9320   22.4220 C   0  0  0  0  0  0  0  0  0  0  0  0
   45.7240   12.9910   21.2630 C   0  0  1  0  0  0  0  0  0  0  0  0
   46.6160   13.4160   20.1260 C   0  0  1  0  0  0  0  0  0  0  0  0
   46.7820   12.6160   18.9770 N   0  0  0  0  0  0  0  0  0  0  0  0
   47.4440   11.4130   18.8420 C   0  0  1  0  0  0  0  0  0  0  0  0
   48.2350   11.0790   19.5840 O   0  0  0  0  0  0  0  0  0  0  0  0
   47.1210   10.7140   17.5470 C   0  0  0  0  0  0  0  0  0  0  0  0
   46.9700   14.8810   19.9890 C   0  0  1  0  0  0  0  0  0  0  0  0
   46.8070   15.7230   21.0840 O   0  0  0  0  0  0  0  0  0  0  0  0
   48.2480   15.2900   19.2250 C   0  0  2  0  0  0  0  0  0  0  0  0
   49.3470   14.9880   19.9290 O   0  0  0  0  0  0  0  0  0  0  0  0
   48.2090   16.7530   18.7820 C   0  0  2  0  0  0  0  0  0  0  0  0
   47.0200   17.0970   18.3030 O   0  0  0  0  0  0  0  0  0  0  0  0
   49.3760   17.0890   17.9010 C   0  0  0  0  0  0  0  0  0  0  0  0
   49.3180   16.6720   16.6420 O   0  0  0  0  0  0  0  0  0  0  0  0
   45.6830   11.6280   21.5910 N   0  0  0  0  0  0  0  0  0  0  0  0
   45.0540   10.6200   20.8460 C   0  0  0  0  0  0  0  0  0  0  0  0
   44.4060   10.8840   19.7470 N   0  0  0  0  0  0  0  0  0  0  0  0
   45.1870    9.4210   21.3330 N   0  0  0  0  0  0  0  0  0  0  0  0
   12.5250   14.4590   51.1570 C   0  0  1  0  0  0  0  0  0  0  0  0
   11.6530   14.9360   51.7800 O   0  0  0  0  0  0  0  0  0  0  0  0
   12.9180   13.1790   51.1680 O   0  0  0  0  0  0  0  0  0  0  0  0
   12.9640   15.2250   49.9440 C   0  0  1  0  0  0  0  0  0  0  0  0
   13.6530   14.5660   48.7240 C   0  0  0  0  0  0  0  0  0  0  0  0
   13.8460   15.4150   47.4820 C   0  0  1  0  0  0  0  0  0  0  0  0
   13.3740   16.8410   47.5810 C   0  0  1  0  0  0  0  0  0  0  0  0
   13.4080   17.6870   46.4670 N   0  0  0  0  0  0  0  0  0  0  0  0
   14.5200   18.3910   45.9570 C   0  0  0  0  0  0  0  0  0  0  0  0
   15.5390   18.5730   46.5440 O   0  0  0  0  0  0  0  0  0  0  0  0
   14.2820   18.9230   44.5760 C   0  0  0  0  0  0  0  0  0  0  0  0
   12.3530   17.2240   48.6490 C   0  0  1  0  0  0  0  0  0  0  0  0
   12.1800   16.3950   49.7410 O   0  0  0  0  0  0  0  0  0  0  0  0
   12.1030   18.7000   49.0260 C   0  0  2  0  0  0  0  0  0  0  0  0
   13.1420   19.1730   49.7460 O   0  0  0  0  0  0  0  0  0  0  0  0
   10.7180   18.9690   49.6350 C   0  0  2  0  0  0  0  0  0  0  0  0
    9.6780   18.3900   49.0130 O   0  0  0  0  0  0  0  0  0  0  0  0
   10.5030   20.4400   49.9200 C   0  0  0  0  0  0  0  0  0  0  0  0
   10.2570   21.2440   48.8920 O   0  0  0  0  0  0  0  0  0  0  0  0
   15.0710   15.1260   46.8360 N   0  0  0  0  0  0  0  0  0  0  0  0
   15.2840   15.1850   45.4660 C   0  0  0  0  0  0  0  0  0  0  0  0
   14.2380   15.3650   44.7590 N   0  0  0  0  0  0  0  0  0  0  0  0
   16.4700   15.0970   44.9290 N   0  0  0  0  0  0  0  0  0  0  0  0
   13.9263  -29.8862   48.9902 H   0  0  0  0  0  0  0  0  0  0  0  0
   13.6239  -30.1845   51.1988 H   0  0  0  0  0  0  0  0  0  0  0  0
   15.6306  -28.5451   50.1789 H   0  0  0  0  0  0  0  0  0  0  0  0
   12.9741  -27.7029   50.9225 H   0  0  0  0  0  0  0  0  0  0  0  0
   13.8821  -26.2557   49.5778 H   0  0  0  0  0  0  0  0  0  0  0  0
   13.1514  -27.0705   48.0791 H   0  0  0  0  0  0  0  0  0  0  0  0
   11.5403  -25.8504   48.0573 H   0  0  0  0  0  0  0  0  0  0  0  0
   10.9809  -25.8758   50.7530 H   0  0  0  0  0  0  0  0  0  0  0  0
    9.4164  -25.2212   48.6255 H   0  0  0  0  0  0  0  0  0  0  0  0
    8.4942  -24.8110   50.9805 H   0  0  0  0  0  0  0  0  0  0  0  0
    9.3150  -24.0758   51.9771 H   0  0  0  0  0  0  0  0  0  0  0  0
    7.2214  -23.2666   50.4816 H   0  0  0  0  0  0  0  0  0  0  0  0
    8.1748  -22.7525   49.0486 H   0  0  0  0  0  0  0  0  0  0  0  0
    7.3404  -24.3432   49.0486 H   0  0  0  0  0  0  0  0  0  0  0  0
    9.8569  -27.7592   49.1561 H   0  0  0  0  0  0  0  0  0  0  0  0
    8.4176  -27.5453   50.9077 H   0  0  0  0  0  0  0  0  0  0  0  0
    9.1245  -28.2651   53.0046 H   0  0  0  0  0  0  0  0  0  0  0  0
    9.8145  -30.1312   51.2592 H   0  0  0  0  0  0  0  0  0  0  0  0
    8.2348  -30.8023   49.7166 H   0  0  0  0  0  0  0  0  0  0  0  0
    7.6532  -31.0642   51.7631 H   0  0  0  0  0  0  0  0  0  0  0  0
    8.2534  -29.8215   52.9489 H   0  0  0  0  0  0  0  0  0  0  0  0
    6.3963  -29.1020   52.7040 H   0  0  0  0  0  0  0  0  0  0  0  0
   12.1022  -24.0780   50.0354 H   0  0  0  0  0  0  0  0  0  0  0  0
   12.3210  -23.5541   47.4956 H   0  0  0  0  0  0  0  0  0  0  0  0
    9.7572  -23.9942   47.8737 H   0  0  0  0  0  0  0  0  0  0  0  0
   10.4471  -22.9007   46.7979 H   0  0  0  0  0  0  0  0  0  0  0  0
   12.0157  -22.0372   49.4688 H   0  0  0  0  0  0  0  0  0  0  0  0
   12.8807  -22.1020   48.0277 H   0  0  0  0  0  0  0  0  0  0  0  0
   48.3494  -27.6154   23.1267 H   0  0  0  0  0  0  0  0  0  0  0  0
   49.2566  -28.0359   22.0901 H   0  0  0  0  0  0  0  0  0  0  0  0
   47.6266  -26.0828   23.7738 H   0  0  0  0  0  0  0  0  0  0  0  0
   46.6679  -28.6811   23.4048 H   0  0  0  0  0  0  0  0  0  0  0  0
   45.2816  -27.2363   24.0488 H   0  0  0  0  0  0  0  0  0  0  0  0
   44.9732  -26.6143   22.3276 H   0  0  0  0  0  0  0  0  0  0  0  0
   43.2930  -27.9145   22.0023 H   0  0  0  0  0  0  0  0  0  0  0  0
   44.2561  -30.0612   23.4709 H   0  0  0  0  0  0  0  0  0  0  0  0
   42.0989  -29.8852   21.9018 H   0  0  0  0  0  0  0  0  0  0  0  0
   42.7440  -32.0910   23.7137 H   0  0  0  0  0  0  0  0  0  0  0  0
   41.7849  -31.2345   25.0180 H   0  0  0  0  0  0  0  0  0  0  0  0
   40.2328  -31.9946   23.7072 H   0  0  0  0  0  0  0  0  0  0  0  0
   40.3557  -30.9856   22.2261 H   0  0  0  0  0  0  0  0  0  0  0  0
   40.9987  -32.6628   22.2261 H   0  0  0  0  0  0  0  0  0  0  0  0
   44.5857  -29.9643   20.7322 H   0  0  0  0  0  0  0  0  0  0  0  0
   44.7470  -32.2665   21.3729 H   0  0  0  0  0  0  0  0  0  0  0  0
   45.6039  -31.6089   23.4612 H   0  0  0  0  0  0  0  0  0  0  0  0
   47.4888  -31.3837   20.5710 H   0  0  0  0  0  0  0  0  0  0  0  0
   45.6674  -30.3994   19.4659 H   0  0  0  0  0  0  0  0  0  0  0  0
   47.7478  -33.4158   19.5450 H   0  0  0  0  0  0  0  0  0  0  0  0
   47.1089  -33.7262   21.2052 H   0  0  0  0  0  0  0  0  0  0  0  0
   45.3165  -34.3640   20.4355 H   0  0  0  0  0  0  0  0  0  0  0  0
   43.2510  -28.6623   24.7200 H   0  0  0  0  0  0  0  0  0  0  0  0
   41.5456  -26.9483   23.8371 H   0  0  0  0  0  0  0  0  0  0  0  0
   40.0520  -28.3366   22.8414 H   0  0  0  0  0  0  0  0  0  0  0  0
   41.1972  -27.2616   22.2398 H   0  0  0  0  0  0  0  0  0  0  0  0
   41.4301  -28.0315   25.8212 H   0  0  0  0  0  0  0  0  0  0  0  0
   40.3183  -27.0854   24.9858 H   0  0  0  0  0  0  0  0  0  0  0  0
   46.9959   16.0467   23.7929 H   0  0  0  0  0  0  0  0  0  0  0  0
   46.6827   17.8742   24.1118 H   0  0  0  0  0  0  0  0  0  0  0  0
   45.9433   16.3507   25.3070 H   0  0  0  0  0  0  0  0  0  0  0  0
   47.0026   14.9778   23.0120 H   0  0  0  0  0  0  0  0  0  0  0  0
   46.0147   13.4341   23.2998 H   0  0  0  0  0  0  0  0  0  0  0  0
   44.4968   14.1359   22.4628 H   0  0  0  0  0  0  0  0  0  0  0  0
   44.7633   13.1200   20.7430 H   0  0  0  0  0  0  0  0  0  0  0  0
   47.4762   12.9923   20.6649 H   0  0  0  0  0  0  0  0  0  0  0  0
   45.8213   12.4154   18.6645 H   0  0  0  0  0  0  0  0  0  0  0  0
   48.2192   11.9074   18.2381 H   0  0  0  0  0  0  0  0  0  0  0  0
   47.9028   11.2193   20.5060 H   0  0  0  0  0  0  0  0  0  0  0  0
   46.6685    9.7347   17.7619 H   0  0  0  0  0  0  0  0  0  0  0  0
   46.4140   11.3252   16.9668 H   0  0  0  0  0  0  0  0  0  0  0  0
   48.0447   10.5717   16.9668 H   0  0  0  0  0  0  0  0  0  0  0  0
   46.1234   15.0547   19.3086 H   0  0  0  0  0  0  0  0  0  0  0  0
   48.2896   14.6985   18.2985 H   0  0  0  0  0  0  0  0  0  0  0  0
   49.1447   15.0436   20.8965 H   0  0  0  0  0  0  0  0  0  0  0  0
   48.3337   17.3912   19.6692 H   0  0  0  0  0  0  0  0  0  0  0  0
   46.4008   17.2762   19.0544 H   0  0  0  0  0  0  0  0  0  0  0  0
   49.4749   18.1844   17.8840 H   0  0  0  0  0  0  0  0  0  0  0  0
   50.2307   16.5542   18.3410 H   0  0  0  0  0  0  0  0  0  0  0  0
   49.1816   15.6916   16.6251 H   0  0  0  0  0  0  0  0  0  0  0  0
   46.6686   11.3372   21.6607 H   0  0  0  0  0  0  0  0  0  0  0  0
   44.1309   10.7676   21.4257 H   0  0  0  0  0  0  0  0  0  0  0  0
   43.4766   11.2626   19.9789 H   0  0  0  0  0  0  0  0  0  0  0  0
   44.9318   11.5779   19.1966 H   0  0  0  0  0  0  0  0  0  0  0  0
   45.1820    9.4659   22.3620 H   0  0  0  0  0  0  0  0  0  0  0  0
   44.4063    8.8312   21.0113 H   0  0  0  0  0  0  0  0  0  0  0  0
   13.0756   14.5946   52.0996 H   0  0  0  0  0  0  0  0  0  0  0  0
   11.8426   14.8323   52.7461 H   0  0  0  0  0  0  0  0  0  0  0  0
   13.0126   12.8709   52.1041 H   0  0  0  0  0  0  0  0  0  0  0  0
   13.9786   15.5150   50.2547 H   0  0  0  0  0  0  0  0  0  0  0  0
   14.6481   14.2296   49.0503 H   0  0  0  0  0  0  0  0  0  0  0  0
   12.9635   13.7678   48.4118 H   0  0  0  0  0  0  0  0  0  0  0  0
   13.1043   15.0952   46.7353 H   0  0  0  0  0  0  0  0  0  0  0  0
   14.3326   17.1067   48.0507 H   0  0  0  0  0  0  0  0  0  0  0  0
   13.0842   17.1028   45.6829 H   0  0  0  0  0  0  0  0  0  0  0  0
   14.1157   19.3276   46.3684 H   0  0  0  0  0  0  0  0  0  0  0  0
   15.3683   18.5425   47.5187 H   0  0  0  0  0  0  0  0  0  0  0  0
   13.8336   19.9253   44.6414 H   0  0  0  0  0  0  0  0  0  0  0  0
   15.2387   18.9838   44.0366 H   0  0  0  0  0  0  0  0  0  0  0  0
   13.5990   18.2503   44.0366 H   0  0  0  0  0  0  0  0  0  0  0  0
   11.5431   17.0007   47.9389 H   0  0  0  0  0  0  0  0  0  0  0  0
   12.0616   19.2847   48.0952 H   0  0  0  0  0  0  0  0  0  0  0  0
   12.9429   19.0823   50.7115 H   0  0  0  0  0  0  0  0  0  0  0  0
   10.7398   18.4429   50.6008 H   0  0  0  0  0  0  0  0  0  0  0  0
    9.0448   18.0375   49.6874 H   0  0  0  0  0  0  0  0  0  0  0  0
    9.6488   20.5185   50.6086 H   0  0  0  0  0  0  0  0  0  0  0  0
   11.4686   20.7875   50.3162 H   0  0  0  0  0  0  0  0  0  0  0  0
    9.9845   22.1347   49.2275 H   0  0  0  0  0  0  0  0  0  0  0  0
   15.7578   15.7735   47.2483 H   0  0  0  0  0  0  0  0  0  0  0  0
   15.1431   14.0962   45.3972 H   0  0  0  0  0  0  0  0  0  0  0  0
   13.4258   15.5048   45.3769 H   0  0  0  0  0  0  0  0  0  0  0  0
   14.3643   16.1966   44.1646 H   0  0  0  0  0  0  0  0  0  0  0  0
   17.1806   15.0443   45.6728 H   0  0  0  0  0  0  0  0  0  0  0  0
   16.5206   14.2499   44.3452 H   0  0  0  0  0  0  0  0  0  0  0  0
  1  2  1  0
  1  3  1  0
  1  4  1  0
  4  5  1  0
  5  6  1  0
  6  7  1  0
  7  8  1  0
  8  9  1  0
  9 10  1  0
  9 11  1  0
  7 12  1  0
  4 13  1  0
 12 13  1  0
 12 14  1  0
 14 15  1  0
 14 16  1  0
 16 17  1  0
 16 18  1  0
 18 19  1  0
  6 20  1  0
 20 21  1  0
 21 22  1  0
 21 23  1  0
 24 25  1  0
 24 26  1  0
 24 27  1  0
 27 28  1  0
 28 29  1  0
 29 30  1  0
 30 31  1  0
 31 32  1  0
 32 33  1  0
 32 34  1  0
 30 35  1  0
 27 36  1  0
 35 36  1  0
 35 37  1  0
 37 38  1  0
 37 39  1  0
 39 40  1  0
 39 41  1  0
 41 42  1  0
 29 43  1  0
 43 44  1  0
 44 45  1  0
 44 46  1  0
 47 48  1  0
 47 49  1  0
 47 50  1  0
 50 51  1  0
 51 52  1  0
 52 53  1  0
 53 54  1  0
 54 55  1  0
 55 56  1  0
 55 57  1  0
 53 58  1  0
 50 59  1  0
 58 59  1  0
 58 60  1  0
 60 61  1  0
 60 62  1  0
 62 63  1  0
 62 64  1  0
 64 65  1  0
 52 66  1  0
 66 67  1  0
 67 68  1  0
 67 69  1  0
 70 71  1  0
 70 72  1  0
 70 73  1  0
 73 74  1  0
 74 75  1  0
 75 76  1  0
 76 77  1  0
 77 78  1  0
 78 79  1  0
 78 80  1  0
 76 81  1  0
 73 82  1  0
 81 82  1  0
 81 83  1  0
 83 84  1  0
 83 85  1  0
 85 86  1  0
 85 87  1  0
 87 88  1  0
 75 89  1  0
 89 90  1  0
 90 91  1  0
 90 92  1  0
  1 93  1  6
  2 94  1  0
  3 95  1  0
  4 96  1  1
  5 97  1  0
  5 98  1  0
  6 99  1  6
  7100  1  1
  8101  1  0
  9102  1  0
 10103  1  0
 11104  1  0
 11105  1  0
 11106  1  0
 12107  1  6
 14108  1  6
 15109  1  0
 16110  1  1
 17111  1  0
 18112  1  0
 18113  1  0
 19114  1  0
 20115  1  0
 21116  1  0
 22117  1  0
 22118  1  0
 23119  1  0
 23120  1  0
 24121  1  1
 25122  1  0
 26123  1  0
 27124  1  1
 28125  1  0
 28126  1  0
 29127  1  6
 30128  1  1
 31129  1  0
 32130  1  6
 33131  1  0
 34132  1  0
 34133  1  0
 34134  1  0
 35135  1  6
 37136  1  6
 38137  1  0
 39138  1  1
 40139  1  0
 41140  1  0
 41141  1  0
 42142  1  0
 43143  1  0
 44144  1  0
 45145  1  0
 45146  1  0
 46147  1  0
 46148  1  0
 47149  1  6
 48150  1  0
 49151  1  0
 50152  1  1
 51153  1  0
 51154  1  0
 52155  1  6
 53156  1  1
 54157  1  0
 55158  1  1
 56159  1  0
 57160  1  0
 57161  1  0
 57162  1  0
 58163  1  6
 60164  1  6
 61165  1  0
 62166  1  1
 63167  1  0
 64168  1  0
 64169  1  0
 65170  1  0
 66171  1  0
 67172  1  0
 68173  1  0
 68174  1  0
 69175  1  0
 69176  1  0
 70177  1  1
 71178  1  0
 72179  1  0
 73180  1  1
 74181  1  0
 74182  1  0
 75183  1  6
 76184  1  1
 77185  1  0
 78186  1  0
 79187  1  0
 80188  1  0
 80189  1  0
 80190  1  0
 81191  1  6
 83192  1  6
 84193  1  0
 85194  1  1
 86195  1  0
 87196  1  0
 87197  1  0
 88198  1  0
 89199  1  0
 90200  1  0
 91201  1  0
 91202  1  0
 92203  1  0
 92204  1  0
M  END
>  <PDBID>  (1) 
3TIC

>  <PDB ID>  (1) 
3TIC

>  <Generic Name>  (1) 
Zanamivir

>  <Brand Name>  (1) 
Relenza

>  <DrugBank ID>  (1) 
DB00558

>  <ATC Codes>  (1) 
J05AH01

>  <Ligand ID>  (1) 
ZMR

>  <Target Name>  (1) 
Neuraminidase

>  <UniProt ID>  (1) 
P06818

>  <PDB ID.1>  (1) 
3TIC

>  <Seq. Identity>  (1) 
91%

$$$$
