PDB_DB01044_99
     RDKit          3D

 49 52  0  0  0  0  0  0  0  0999 V2000
  146.8900   21.3670   11.9930 C   0  0  0  0  0  0  0  0  0  0  0  0
  147.2620   20.3960   13.1250 C   0  0  1  0  0  0  0  0  0  0  0  0
  146.0340   20.1410   13.9840 C   0  0  0  0  0  0  0  0  0  0  0  0
  146.3290   19.1800   15.0030 N   0  0  0  0  0  0  0  0  0  0  0  0
  146.8750   17.9520   14.5280 C   0  0  0  0  0  0  0  0  0  0  0  0
  148.0600   18.2040   13.5970 C   0  0  0  0  0  0  0  0  0  0  0  0
  147.7670   19.1730   12.5830 N   0  0  0  0  0  0  0  0  0  0  0  0
  145.3840   19.0800   16.1230 C   0  0  0  0  0  0  0  0  0  0  0  0
  145.9260   18.9630   17.4010 C   0  0  0  0  0  0  0  0  0  0  0  0
  145.0960   18.8730   18.5150 C   0  0  0  0  0  0  0  0  0  0  0  0
  143.6920   18.9030   18.3670 C   0  0  0  0  0  0  0  0  0  0  0  0
  143.1230   19.0230   17.1090 C   0  0  0  0  0  0  0  0  0  0  0  0
  143.9880   19.1180   15.9680 C   0  0  0  0  0  0  0  0  0  0  0  0
  143.4600   19.2280   14.6590 O   0  0  0  0  0  0  0  0  0  0  0  0
  143.2570   17.9450   14.0590 C   0  0  0  0  0  0  0  0  0  0  0  0
  141.7330   19.0470   17.0430 N   0  0  0  0  0  0  0  0  0  0  0  0
  140.9710   18.9590   18.1500 C   0  0  0  0  0  0  0  0  0  0  0  0
  141.5200   18.8350   19.4170 C   0  0  0  0  0  0  0  0  0  0  0  0
  142.9090   18.8100   19.5450 C   0  0  0  0  0  0  0  0  0  0  0  0
  143.4400   18.7090   20.6380 O   0  0  0  0  0  0  0  0  0  0  0  0
  140.5640   18.7550   20.5930 C   0  0  0  0  0  0  0  0  0  0  0  0
  139.3380   18.5750   20.3570 O   0  0  0  0  0  0  0  0  0  0  0  0
  140.9720   18.8960   21.7800 O   0  0  0  0  0  0  0  0  0  0  0  0
  141.0020   19.1830   15.8070 C   0  0  0  0  0  0  0  0  0  0  0  0
  140.7210   20.2780   14.7880 C   0  0  0  0  0  0  0  0  0  0  0  0
  139.6790   19.9370   15.8300 C   0  0  0  0  0  0  0  0  0  0  0  0
  147.2570   18.9310   17.5560 F   0  0  0  0  0  0  0  0  0  0  0  0
  146.5280   22.3118   12.4245 H   0  0  0  0  0  0  0  0  0  0  0  0
  147.7766   21.5633   11.3722 H   0  0  0  0  0  0  0  0  0  0  0  0
  146.0992   20.9207   11.3722 H   0  0  0  0  0  0  0  0  0  0  0  0
  148.0518   20.8397   13.7490 H   0  0  0  0  0  0  0  0  0  0  0  0
  145.7190   21.0838   14.4551 H   0  0  0  0  0  0  0  0  0  0  0  0
  145.2276   19.7493   13.3466 H   0  0  0  0  0  0  0  0  0  0  0  0
  147.2128   17.3526   15.3862 H   0  0  0  0  0  0  0  0  0  0  0  0
  146.0958   17.4157   13.9665 H   0  0  0  0  0  0  0  0  0  0  0  0
  148.9082   18.5665   14.1963 H   0  0  0  0  0  0  0  0  0  0  0  0
  148.2959   17.2550   13.0932 H   0  0  0  0  0  0  0  0  0  0  0  0
  147.0623   18.7792   11.9433 H   0  0  0  0  0  0  0  0  0  0  0  0
  145.5372   18.7778   19.5181 H   0  0  0  0  0  0  0  0  0  0  0  0
  143.1370   17.1867   14.8468 H   0  0  0  0  0  0  0  0  0  0  0  0
  142.3519   17.9714   13.4345 H   0  0  0  0  0  0  0  0  0  0  0  0
  144.1261   17.6906   13.4345 H   0  0  0  0  0  0  0  0  0  0  0  0
  139.8763   18.9864   18.0454 H   0  0  0  0  0  0  0  0  0  0  0  0
  138.6928   18.5190   21.1058 H   0  0  0  0  0  0  0  0  0  0  0  0
  141.4781   18.2072   15.6306 H   0  0  0  0  0  0  0  0  0  0  0  0
  141.2627   21.2337   14.8451 H   0  0  0  0  0  0  0  0  0  0  0  0
  140.7302   20.3373   13.6896 H   0  0  0  0  0  0  0  0  0  0  0  0
  138.7508   19.4272   15.5326 H   0  0  0  0  0  0  0  0  0  0  0  0
  139.1233   20.5077   16.5886 H   0  0  0  0  0  0  0  0  0  0  0  0
  1  2  1  0
  2  3  1  0
  3  4  1  0
  4  5  1  0
  5  6  1  0
  2  7  1  0
  6  7  1  0
  4  8  1  0
  8  9  2  0
  9 10  1  0
 10 11  2  0
 11 12  1  0
  8 13  1  0
 12 13  2  0
 13 14  1  0
 14 15  1  0
 12 16  1  0
 16 17  1  0
 17 18  2  0
 11 19  1  0
 18 19  1  0
 19 20  2  0
 18 21  1  0
 21 22  1  0
 21 23  2  0
 16 24  1  0
 24 25  1  0
 24 26  1  0
 25 26  1  0
  9 27  1  0
  1 28  1  0
  1 29  1  0
  1 30  1  0
  2 31  1  1
  3 32  1  0
  3 33  1  0
  5 34  1  0
  5 35  1  0
  6 36  1  0
  6 37  1  0
  7 38  1  0
 10 39  1  0
 15 40  1  0
 15 41  1  0
 15 42  1  0
 17 43  1  0
 22 44  1  0
 24 45  1  0
 25 46  1  0
 25 47  1  0
 26 48  1  0
 26 49  1  0
M  END
$$$$
