PDB_DB00582_97
     RDKit          3D

110114  0  0  0  0  0  0  0  0999 V2000
  135.1690  196.9980    6.4980 F   0  0  0  0  0  0  0  0  0  0  0  0
  136.5640  200.2430    4.3560 F   0  0  0  0  0  0  0  0  0  0  0  0
  133.9470  192.4400    6.8870 F   0  0  0  0  0  0  0  0  0  0  0  0
  136.1930  196.1750    2.3690 O   0  0  0  0  0  0  0  0  0  0  0  0
  133.4870  196.8740    3.2030 N   0  0  0  0  0  0  0  0  0  0  0  0
  138.4770  197.8770    2.3180 N   0  0  0  0  0  0  0  0  0  0  0  0
  132.2690  197.4060    3.6440 N   0  0  0  0  0  0  0  0  0  0  0  0
  131.9570  195.4710    2.6470 N   0  0  0  0  0  0  0  0  0  0  0  0
  138.7500  200.0620    1.5160 N   0  0  0  0  0  0  0  0  0  0  0  0
  135.8630  196.6660    3.6730 C   0  0  1  0  0  0  0  0  0  0  0  0
  137.0770  197.3560    4.2840 C   0  0  1  0  0  0  0  0  0  0  0  0
  134.6850  197.6270    3.5720 C   0  0  0  0  0  0  0  0  0  0  0  0
  135.4230  195.5260    4.5420 C   0  0  1  0  0  0  0  0  0  0  0  0
  138.1360  196.3480    4.7150 C   0  0  0  0  0  0  0  0  0  0  0  0
  137.6600  198.3020    3.3050 C   0  0  0  0  0  0  0  0  0  0  0  0
  135.0260  195.7770    5.9520 C   0  0  0  0  0  0  0  0  0  0  0  0
  135.2230  194.2610    4.0040 C   0  0  0  0  0  0  0  0  0  0  0  0
  137.3710  199.7560    3.3970 C   0  0  0  0  0  0  0  0  0  0  0  0
  134.5500  194.7160    6.7120 C   0  0  0  0  0  0  0  0  0  0  0  0
  134.7380  193.2350    4.8060 C   0  0  0  0  0  0  0  0  0  0  0  0
  133.2930  195.6710    2.6570 C   0  0  0  0  0  0  0  0  0  0  0  0
  134.4090  193.4580    6.1390 C   0  0  0  0  0  0  0  0  0  0  0  0
  137.9600  200.5900    2.4560 C   0  0  0  0  0  0  0  0  0  0  0  0
  139.0000  198.7490    1.4480 C   0  0  0  0  0  0  0  0  0  0  0  0
  131.3370  196.5150    3.2420 C   0  0  0  0  0  0  0  0  0  0  0  0
  138.9250  247.0780    6.8610 F   0  0  0  0  0  0  0  0  0  0  0  0
  140.1630  243.3520    8.9940 F   0  0  0  0  0  0  0  0  0  0  0  0
  138.3010  251.6930    6.6620 F   0  0  0  0  0  0  0  0  0  0  0  0
  140.6570  247.5990   10.7370 O   0  0  0  0  0  0  0  0  0  0  0  0
  137.7450  247.4740   10.2670 N   0  0  0  0  0  0  0  0  0  0  0  0
  142.4460  245.6410   10.5960 N   0  0  0  0  0  0  0  0  0  0  0  0
  136.4470  247.2110    9.9280 N   0  0  0  0  0  0  0  0  0  0  0  0
  136.5780  249.0330   11.0460 N   0  0  0  0  0  0  0  0  0  0  0  0
  142.6270  243.5040   11.5130 N   0  0  0  0  0  0  0  0  0  0  0  0
  140.0470  247.1990    9.5220 C   0  0  1  0  0  0  0  0  0  0  0  0
  140.9190  246.2010    8.8000 C   0  0  1  0  0  0  0  0  0  0  0  0
  138.7290  246.5180    9.7950 C   0  0  0  0  0  0  0  0  0  0  0  0
  139.6070  248.3870    8.7400 C   0  0  1  0  0  0  0  0  0  0  0  0
  142.0780  246.9080    8.1390 C   0  0  0  0  0  0  0  0  0  0  0  0
  141.4990  245.2350    9.7540 C   0  0  0  0  0  0  0  0  0  0  0  0
  139.0250  248.2620    7.4140 C   0  0  0  0  0  0  0  0  0  0  0  0
  139.6700  249.6420    9.2770 C   0  0  0  0  0  0  0  0  0  0  0  0
  141.0960  243.8240    9.8120 C   0  0  0  0  0  0  0  0  0  0  0  0
  138.6050  249.3680    6.7310 C   0  0  0  0  0  0  0  0  0  0  0  0
  139.2360  250.7360    8.5690 C   0  0  0  0  0  0  0  0  0  0  0  0
  137.8260  248.5930   10.9250 C   0  0  0  0  0  0  0  0  0  0  0  0
  138.7090  250.6060    7.3120 C   0  0  0  0  0  0  0  0  0  0  0  0
  141.6950  242.9960   10.7220 C   0  0  0  0  0  0  0  0  0  0  0  0
  142.9930  244.7840   11.4460 C   0  0  0  0  0  0  0  0  0  0  0  0
  135.7360  248.2010   10.4390 C   0  0  0  0  0  0  0  0  0  0  0  0
  136.7432  195.3564    2.4541 H   0  0  0  0  0  0  0  0  0  0  0  0
  139.2698  197.4035    2.7742 H   0  0  0  0  0  0  0  0  0  0  0  0
  132.2638  197.4985    4.6698 H   0  0  0  0  0  0  0  0  0  0  0  0
  131.6302  195.3878    1.6738 H   0  0  0  0  0  0  0  0  0  0  0  0
  138.3327  200.3221    0.6109 H   0  0  0  0  0  0  0  0  0  0  0  0
  136.7418  197.9016    5.1784 H   0  0  0  0  0  0  0  0  0  0  0  0
  134.8938  198.3871    2.8048 H   0  0  0  0  0  0  0  0  0  0  0  0
  134.5275  198.1251    4.5400 H   0  0  0  0  0  0  0  0  0  0  0  0
  136.4973  195.3569    4.7072 H   0  0  0  0  0  0  0  0  0  0  0  0
  138.1783  196.3077    5.8134 H   0  0  0  0  0  0  0  0  0  0  0  0
  137.8777  195.3539    4.3213 H   0  0  0  0  0  0  0  0  0  0  0  0
  139.1162  196.6550    4.3213 H   0  0  0  0  0  0  0  0  0  0  0  0
  136.7902  198.1574    2.6473 H   0  0  0  0  0  0  0  0  0  0  0  0
  134.0124  196.0446    5.6190 H   0  0  0  0  0  0  0  0  0  0  0  0
  134.5120  194.3779    3.1728 H   0  0  0  0  0  0  0  0  0  0  0  0
  136.2412  193.9279    3.7543 H   0  0  0  0  0  0  0  0  0  0  0  0
  138.2384  199.8864    4.0607 H   0  0  0  0  0  0  0  0  0  0  0  0
  135.2374  194.6018    7.5632 H   0  0  0  0  0  0  0  0  0  0  0  0
  133.5135  195.0097    6.9342 H   0  0  0  0  0  0  0  0  0  0  0  0
  133.8257  192.8619    4.3176 H   0  0  0  0  0  0  0  0  0  0  0  0
  135.6031  192.5598    4.8818 H   0  0  0  0  0  0  0  0  0  0  0  0
  133.6891  195.6499    1.6310 H   0  0  0  0  0  0  0  0  0  0  0  0
  133.8110  194.8850    3.2261 H   0  0  0  0  0  0  0  0  0  0  0  0
  133.3794  193.7081    5.8434 H   0  0  0  0  0  0  0  0  0  0  0  0
  138.5662  201.3215    3.0105 H   0  0  0  0  0  0  0  0  0  0  0  0
  137.1053  200.9837    1.8863 H   0  0  0  0  0  0  0  0  0  0  0  0
  140.0920  198.6403    1.5236 H   0  0  0  0  0  0  0  0  0  0  0  0
  138.4951  198.4685    0.5119 H   0  0  0  0  0  0  0  0  0  0  0  0
  130.7671  196.1586    4.1127 H   0  0  0  0  0  0  0  0  0  0  0  0
  130.6467  196.9928    2.5312 H   0  0  0  0  0  0  0  0  0  0  0  0
  140.1298  247.2533   11.5004 H   0  0  0  0  0  0  0  0  0  0  0  0
  143.2125  246.0184   10.0207 H   0  0  0  0  0  0  0  0  0  0  0  0
  136.3417  247.1847    8.9037 H   0  0  0  0  0  0  0  0  0  0  0  0
  136.3344  249.0945   12.0449 H   0  0  0  0  0  0  0  0  0  0  0  0
  142.3020  243.3478   12.4778 H   0  0  0  0  0  0  0  0  0  0  0  0
  140.2896  245.6877    8.0581 H   0  0  0  0  0  0  0  0  0  0  0  0
  138.8753  245.7425   10.5613 H   0  0  0  0  0  0  0  0  0  0  0  0
  138.3638  246.0674    8.8603 H   0  0  0  0  0  0  0  0  0  0  0  0
  140.6091  248.4639    8.2929 H   0  0  0  0  0  0  0  0  0  0  0  0
  142.7470  247.3161    8.9109 H   0  0  0  0  0  0  0  0  0  0  0  0
  142.6334  246.1947    7.5123 H   0  0  0  0  0  0  0  0  0  0  0  0
  141.6979  247.7282    7.5123 H   0  0  0  0  0  0  0  0  0  0  0  0
  140.7283  245.5014   10.4923 H   0  0  0  0  0  0  0  0  0  0  0  0
  138.0287  248.1364    7.8631 H   0  0  0  0  0  0  0  0  0  0  0  0
  139.0797  249.6154   10.2048 H   0  0  0  0  0  0  0  0  0  0  0  0
  140.7530  249.8180    9.3553 H   0  0  0  0  0  0  0  0  0  0  0  0
  141.8711  243.5723    9.0732 H   0  0  0  0  0  0  0  0  0  0  0  0
  139.1840  249.4047    5.7964 H   0  0  0  0  0  0  0  0  0  0  0  0
  137.5190  249.2172    6.6426 H   0  0  0  0  0  0  0  0  0  0  0  0
  138.4607  251.2170    9.1835 H   0  0  0  0  0  0  0  0  0  0  0  0
  140.1706  251.2846    8.3805 H   0  0  0  0  0  0  0  0  0  0  0  0
  138.2700  248.4228   11.9169 H   0  0  0  0  0  0  0  0  0  0  0  0
  138.4640  249.3230   10.4053 H   0  0  0  0  0  0  0  0  0  0  0  0
  137.7045  250.4875    7.7443 H   0  0  0  0  0  0  0  0  0  0  0  0
  142.1591  242.1734   10.1581 H   0  0  0  0  0  0  0  0  0  0  0  0
  140.8826  242.7115   11.4068 H   0  0  0  0  0  0  0  0  0  0  0  0
  144.0706  244.7815   11.2250 H   0  0  0  0  0  0  0  0  0  0  0  0
  142.6363  245.1694   12.4126 H   0  0  0  0  0  0  0  0  0  0  0  0
  135.1998  248.7298    9.6372 H   0  0  0  0  0  0  0  0  0  0  0  0
  134.9949  247.8138   11.1538 H   0  0  0  0  0  0  0  0  0  0  0  0
  5  7  1  0
 10  4  1  6
 10 11  1  0
  5 12  1  0
 10 12  1  0
 10 13  1  0
 11 14  1  0
  6 15  1  0
 11 15  1  0
  1 16  1  0
 13 16  1  0
 13 17  1  0
  2 18  1  0
 15 18  1  0
 16 19  1  0
 17 20  1  0
  5 21  1  0
 21  8  1  0
  3 22  1  0
 19 22  1  0
 20 22  1  0
  9 23  1  0
 18 23  1  0
  6 24  1  0
  9 24  1  0
  7 25  1  0
 25  8  1  0
 30 32  1  0
 35 29  1  1
 35 36  1  0
 30 37  1  0
 35 37  1  0
 35 38  1  0
 36 39  1  0
 31 40  1  0
 36 40  1  0
 26 41  1  0
 38 41  1  0
 38 42  1  0
 27 43  1  0
 40 43  1  0
 41 44  1  0
 42 45  1  0
 30 46  1  0
 46 33  1  0
 28 47  1  0
 44 47  1  0
 45 47  1  0
 34 48  1  0
 43 48  1  0
 31 49  1  0
 34 49  1  0
 32 50  1  0
 50 33  1  0
  4 51  1  0
  6 52  1  0
  7 53  1  0
  8 54  1  6
  9 55  1  0
 11 56  1  1
 12 57  1  0
 12 58  1  0
 13 59  1  1
 14 60  1  0
 14 61  1  0
 14 62  1  0
 15 63  1  0
 16 64  1  0
 17 65  1  0
 17 66  1  0
 18 67  1  0
 19 68  1  0
 19 69  1  0
 20 70  1  0
 20 71  1  0
 21 72  1  0
 21 73  1  0
 22 74  1  0
 23 75  1  0
 23 76  1  0
 24 77  1  0
 24 78  1  0
 25 79  1  0
 25 80  1  0
 29 81  1  0
 31 82  1  0
 32 83  1  0
 33 84  1  1
 34 85  1  0
 36 86  1  6
 37 87  1  0
 37 88  1  0
 38 89  1  6
 39 90  1  0
 39 91  1  0
 39 92  1  0
 40 93  1  0
 41 94  1  0
 42 95  1  0
 42 96  1  0
 43 97  1  0
 44 98  1  0
 44 99  1  0
 45100  1  0
 45101  1  0
 46102  1  0
 46103  1  0
 47104  1  0
 48105  1  0
 48106  1  0
 49107  1  0
 49108  1  0
 50109  1  0
 50110  1  0
M  END
>  <PDBID>  (1) 
4UYM

>  <PDB ID>  (1) 
4UYM

>  <Generic Name>  (1) 
Voriconazole

>  <Brand Name>  (1) 
Ach-voriconazole#Apo-voriconazole#Auro-voriconazole#Mylan-voriconazole#Sandoz Voriconazole#Teva-voriconazole#Vfend#Vfend for Injection#Voriconazole#Voriconazole for Injection

>  <DrugBank ID>  (1) 
DB00582

>  <ATC Codes>  (1) 
J02AC03

>  <Ligand ID>  (1) 
VOR

>  <Target Name>  (1) 
Lanosterol 14-alpha demethylase

>  <UniProt ID>  (1) 
P10613

>  <PDB ID.1>  (1) 
4UYM

>  <Seq. Identity>  (1) 
50%

$$$$
