PDB_DB00834_93
     RDKit          3D

 67 71  0  0  0  0  0  0  0  0999 V2000
  126.3640   43.7660   59.2150 O   0  0  0  0  0  0  0  0  0  0  0  0
  125.7940   44.8530   59.2450 C   0  0  0  0  0  0  0  0  0  0  0  0
  124.4060   45.0530   58.6600 C   0  0  0  0  0  0  0  0  0  0  0  0
  126.4400   46.0540   59.7700 C   0  0  0  0  0  0  0  0  0  0  0  0
  125.9910   47.3180   59.5890 C   0  0  0  0  0  0  0  0  0  0  0  0
  126.7760   48.4900   60.1340 C   0  0  0  0  0  0  0  0  0  0  0  0
  124.7770   47.6090   58.8210 C   0  0  0  0  0  0  0  0  0  0  0  0
  124.1920   46.4400   58.0440 C   0  0  0  0  0  0  0  0  0  0  0  0
  124.2620   48.8560   58.7670 C   0  0  0  0  0  0  0  0  0  0  0  0
  123.0530   49.1910   57.9010 C   0  0  1  0  0  0  0  0  0  0  0  0
  121.7520   49.3250   58.7140 C   0  0  0  0  0  0  0  0  0  0  0  0
  120.6370   49.9650   58.1540 C   0  0  0  0  0  0  0  0  0  0  0  0
  119.4420   50.1140   58.8500 C   0  0  0  0  0  0  0  0  0  0  0  0
  119.2810   49.6030   60.1600 C   0  0  0  0  0  0  0  0  0  0  0  0
  118.0870   49.7540   60.8550 N   0  0  0  0  0  0  0  0  0  0  0  0
  117.5170   51.0910   60.8260 C   0  0  0  0  0  0  0  0  0  0  0  0
  117.8030   48.9670   62.0450 C   0  0  0  0  0  0  0  0  0  0  0  0
  120.4020   48.9570   60.7270 C   0  0  0  0  0  0  0  0  0  0  0  0
  121.5900   48.8240   60.0100 C   0  0  0  0  0  0  0  0  0  0  0  0
  123.3960   50.3880   56.9440 C   0  0  0  0  0  0  0  0  0  0  0  0
  124.1390   51.5670   57.6020 C   0  0  2  0  0  0  0  0  0  0  0  0
  123.1500   52.4340   58.4000 C   0  0  0  0  0  0  0  0  0  0  0  0
  124.9360   52.5510   56.6600 C   0  0  1  0  0  0  0  0  0  0  0  0
  125.7120   51.9110   55.5860 C   0  0  0  0  0  0  0  0  0  0  0  0
  126.3880   51.4200   54.7100 C   0  0  0  0  0  0  0  0  0  0  0  0
  127.2180   50.8410   53.6570 C   0  0  0  0  0  0  0  0  0  0  0  0
  124.0280   53.4990   56.0770 O   0  0  0  0  0  0  0  0  0  0  0  0
  125.9250   53.2590   57.6650 C   0  0  0  0  0  0  0  0  0  0  0  0
  126.0600   52.3210   58.9000 C   0  0  0  0  0  0  0  0  0  0  0  0
  125.3100   51.0450   58.4690 C   0  0  1  0  0  0  0  0  0  0  0  0
  124.8430   50.0420   59.5290 C   0  0  2  0  0  0  0  0  0  0  0  0
  125.9030   49.6610   60.5730 C   0  0  0  0  0  0  0  0  0  0  0  0
  124.2466   44.2968   57.8772 H   0  0  0  0  0  0  0  0  0  0  0  0
  123.6900   44.9552   59.4893 H   0  0  0  0  0  0  0  0  0  0  0  0
  127.3609   45.9207   60.3567 H   0  0  0  0  0  0  0  0  0  0  0  0
  127.3571   48.1453   61.0021 H   0  0  0  0  0  0  0  0  0  0  0  0
  127.4173   48.8549   59.3182 H   0  0  0  0  0  0  0  0  0  0  0  0
  124.6484   46.4384   57.0431 H   0  0  0  0  0  0  0  0  0  0  0  0
  123.1036   46.5996   58.0405 H   0  0  0  0  0  0  0  0  0  0  0  0
  122.8275   48.3392   57.2425 H   0  0  0  0  0  0  0  0  0  0  0  0
  120.7098   50.3622   57.1308 H   0  0  0  0  0  0  0  0  0  0  0  0
  118.6032   50.6408   58.3715 H   0  0  0  0  0  0  0  0  0  0  0  0
  117.3651   51.4473   61.8556 H   0  0  0  0  0  0  0  0  0  0  0  0
  118.2035   51.7709   60.3002 H   0  0  0  0  0  0  0  0  0  0  0  0
  116.5511   51.0665   60.3002 H   0  0  0  0  0  0  0  0  0  0  0  0
  118.0194   49.5666   62.9414 H   0  0  0  0  0  0  0  0  0  0  0  0
  116.7426   48.6745   62.0467 H   0  0  0  0  0  0  0  0  0  0  0  0
  118.4322   48.0648   62.0467 H   0  0  0  0  0  0  0  0  0  0  0  0
  120.3366   48.5534   61.7482 H   0  0  0  0  0  0  0  0  0  0  0  0
  122.4355   48.3032   60.4831 H   0  0  0  0  0  0  0  0  0  0  0  0
  124.0262   50.0016   56.1294 H   0  0  0  0  0  0  0  0  0  0  0  0
  122.4307   50.7900   56.6027 H   0  0  0  0  0  0  0  0  0  0  0  0
  123.3188   52.2860   59.4768 H   0  0  0  0  0  0  0  0  0  0  0  0
  123.3041   53.4933   58.1469 H   0  0  0  0  0  0  0  0  0  0  0  0
  122.1199   52.1426   58.1469 H   0  0  0  0  0  0  0  0  0  0  0  0
  128.0397   50.2678   54.1113 H   0  0  0  0  0  0  0  0  0  0  0  0
  126.6059   50.1729   53.0333 H   0  0  0  0  0  0  0  0  0  0  0  0
  127.6336   51.6462   53.0333 H   0  0  0  0  0  0  0  0  0  0  0  0
  123.5573   53.9904   56.7961 H   0  0  0  0  0  0  0  0  0  0  0  0
  126.9069   53.4043   57.1908 H   0  0  0  0  0  0  0  0  0  0  0  0
  125.5457   54.2483   57.9606 H   0  0  0  0  0  0  0  0  0  0  0  0
  127.1167   52.1024   59.1136 H   0  0  0  0  0  0  0  0  0  0  0  0
  125.6541   52.7652   59.8208 H   0  0  0  0  0  0  0  0  0  0  0  0
  126.0353   50.4010   57.9502 H   0  0  0  0  0  0  0  0  0  0  0  0
  124.0767   50.5055   60.1678 H   0  0  0  0  0  0  0  0  0  0  0  0
  125.3920   49.3865   61.5077 H   0  0  0  0  0  0  0  0  0  0  0  0
  126.5620   50.5316   60.7065 H   0  0  0  0  0  0  0  0  0  0  0  0
  1  2  2  0
  2  3  1  0
  2  4  1  0
  4  5  2  0
  5  6  1  0
  5  7  1  0
  3  8  1  0
  7  8  1  0
  7  9  2  0
  9 10  1  0
 10 11  1  0
 11 12  2  0
 12 13  1  0
 13 14  2  0
 14 15  1  0
 15 16  1  0
 15 17  1  0
 14 18  1  0
 11 19  1  0
 18 19  2  0
 10 20  1  0
 20 21  1  0
 21 22  1  1
 21 23  1  0
 23 24  1  6
 24 25  3  0
 25 26  1  0
 23 27  1  0
 23 28  1  0
 28 29  1  0
 21 30  1  0
 29 30  1  0
  9 31  1  0
 30 31  1  0
  6 32  1  0
 31 32  1  0
  3 33  1  0
  3 34  1  0
  4 35  1  0
  6 36  1  0
  6 37  1  0
  8 38  1  0
  8 39  1  0
 10 40  1  6
 12 41  1  0
 13 42  1  0
 16 43  1  0
 16 44  1  0
 16 45  1  0
 17 46  1  0
 17 47  1  0
 17 48  1  0
 18 49  1  0
 19 50  1  0
 20 51  1  0
 20 52  1  0
 22 53  1  0
 22 54  1  0
 22 55  1  0
 26 56  1  0
 26 57  1  0
 26 58  1  0
 27 59  1  0
 28 60  1  0
 28 61  1  0
 29 62  1  0
 29 63  1  0
 30 64  1  6
 31 65  1  1
 32 66  1  0
 32 67  1  0
M  END
$$$$
