PDB_DB06616_97
     RDKit          3D

170176  0  0  0  0  0  0  0  0999 V2000
   10.9590  -40.4850   -5.0740 C   0  0  0  0  0  0  0  0  0  0  0  0
    6.1670  -35.0660  -11.0910 O   0  0  0  0  0  0  0  0  0  0  0  0
   16.5580  -39.7590   -3.6310 C   0  0  0  0  0  0  0  0  0  0  0  0
    8.6790  -33.0220   -8.9500 N   0  0  0  0  0  0  0  0  0  0  0  0
    3.8810  -33.6760   -9.3940 Cl  0  0  0  0  0  0  0  0  0  0  0  0
    6.8270  -35.2340   -5.0320 Cl  0  0  0  0  0  0  0  0  0  0  0  0
    9.4950  -33.7530   -8.6480 C   0  0  0  0  0  0  0  0  0  0  0  0
   11.9990  -34.2900   -8.4650 C   0  0  0  0  0  0  0  0  0  0  0  0
    5.4970  -34.5420   -7.3350 C   0  0  0  0  0  0  0  0  0  0  0  0
    7.5170  -35.7880   -9.1720 C   0  0  0  0  0  0  0  0  0  0  0  0
   14.0860  -37.0120   -6.6610 C   0  0  0  0  0  0  0  0  0  0  0  0
   11.2790  -38.0170   -6.1460 C   0  0  0  0  0  0  0  0  0  0  0  0
   17.2150  -38.7720   -4.5870 C   0  0  0  0  0  0  0  0  0  0  0  0
   16.2580  -38.4840   -5.7420 C   0  0  0  0  0  0  0  0  0  0  0  0
   20.5500  -40.8800    0.4190 C   0  0  0  0  0  0  0  0  0  0  0  0
   17.2040  -39.9490   -1.1030 C   0  0  0  0  0  0  0  0  0  0  0  0
   18.9100  -39.7610   -2.7710 C   0  0  0  0  0  0  0  0  0  0  0  0
   18.1740  -40.7830   -0.2370 C   0  0  0  0  0  0  0  0  0  0  0  0
   19.8010  -40.6730   -1.9810 C   0  0  0  0  0  0  0  0  0  0  0  0
   13.1050  -35.0320   -7.9540 N   0  0  0  0  0  0  0  0  0  0  0  0
    8.9140  -36.5110   -7.1880 N   0  0  0  0  0  0  0  0  0  0  0  0
   12.2150  -39.9120   -4.9170 O   0  0  0  0  0  0  0  0  0  0  0  0
   14.9810  -38.9540   -5.3970 O   0  0  0  0  0  0  0  0  0  0  0  0
    6.3100  -35.1030   -9.7260 C   0  0  0  0  0  0  0  0  0  0  0  0
    5.2960  -34.4780   -8.8040 C   0  0  0  0  0  0  0  0  0  0  0  0
    6.6960  -35.2160   -6.7650 C   0  0  0  0  0  0  0  0  0  0  0  0
   10.5750  -34.7170   -8.2600 C   0  0  1  0  0  0  0  0  0  0  0  0
    7.7200  -35.8440   -7.6830 C   0  0  0  0  0  0  0  0  0  0  0  0
   12.4690  -38.7630   -5.6250 C   0  0  0  0  0  0  0  0  0  0  0  0
   13.8580  -38.2700   -5.8810 C   0  0  0  0  0  0  0  0  0  0  0  0
   10.2720  -35.9900   -7.4730 C   0  0  0  0  0  0  0  0  0  0  0  0
   12.8970  -36.2380   -7.2000 C   0  0  0  0  0  0  0  0  0  0  0  0
   11.4900  -36.7550   -6.9360 C   0  0  0  0  0  0  0  0  0  0  0  0
   17.5250  -40.1050   -2.5300 N   0  0  0  0  0  0  0  0  0  0  0  0
   19.5520  -40.4990   -0.5760 N   0  0  0  0  0  0  0  0  0  0  0  0
    7.3100  -34.9370  -11.8780 C   0  0  0  0  0  0  0  0  0  0  0  0
    7.0890   -9.3370   28.4150 C   0  0  0  0  0  0  0  0  0  0  0  0
   10.8280   -4.4850   35.1590 O   0  0  0  0  0  0  0  0  0  0  0  0
    1.2990   -9.0870   26.6290 C   0  0  0  0  0  0  0  0  0  0  0  0
    9.1600   -1.6960   32.3270 N   0  0  0  0  0  0  0  0  0  0  0  0
   13.5520   -3.1590   34.3220 Cl  0  0  0  0  0  0  0  0  0  0  0  0
   11.6190   -3.7990   29.1500 Cl  0  0  0  0  0  0  0  0  0  0  0  0
    8.3240   -2.3330   31.8820 C   0  0  0  0  0  0  0  0  0  0  0  0
    5.8220   -2.7250   31.2490 C   0  0  0  0  0  0  0  0  0  0  0  0
   12.4380   -3.5440   31.7810 C   0  0  0  0  0  0  0  0  0  0  0  0
    9.9410   -4.7920   32.9090 C   0  0  0  0  0  0  0  0  0  0  0  0
    3.9740   -5.5370   29.2280 C   0  0  0  0  0  0  0  0  0  0  0  0
    6.7910   -6.6140   29.2630 C   0  0  0  0  0  0  0  0  0  0  0  0
    0.9590   -8.2470   27.8530 C   0  0  0  0  0  0  0  0  0  0  0  0
    1.9690   -7.1000   27.9860 C   0  0  0  0  0  0  0  0  0  0  0  0
   -3.4720   -9.2310   23.3770 C   0  0  0  0  0  0  0  0  0  0  0  0
   -0.0290   -8.2030   24.5700 C   0  0  0  0  0  0  0  0  0  0  0  0
   -1.1720   -9.2980   26.3610 C   0  0  0  0  0  0  0  0  0  0  0  0
   -1.0540   -8.7950   23.5790 C   0  0  0  0  0  0  0  0  0  0  0  0
   -2.1340   -9.9280   25.4000 C   0  0  0  0  0  0  0  0  0  0  0  0
    4.7820   -3.4840   30.5900 N   0  0  0  0  0  0  0  0  0  0  0  0
    8.9800   -5.1200   30.6050 N   0  0  0  0  0  0  0  0  0  0  0  0
    6.0060   -8.5830   27.9620 O   0  0  0  0  0  0  0  0  0  0  0  0
    3.2900   -7.5720   27.9090 O   0  0  0  0  0  0  0  0  0  0  0  0
   11.0340   -4.3240   33.8150 C   0  0  0  0  0  0  0  0  0  0  0  0
   12.2870   -3.6960   33.2630 C   0  0  0  0  0  0  0  0  0  0  0  0
   11.3530   -4.0080   30.8560 C   0  0  0  0  0  0  0  0  0  0  0  0
    7.2530   -3.2040   31.3010 C   0  0  1  0  0  0  0  0  0  0  0  0
   10.0880   -4.6370   31.4220 C   0  0  0  0  0  0  0  0  0  0  0  0
    5.6980   -7.3760   28.5740 C   0  0  0  0  0  0  0  0  0  0  0  0
    4.3040   -6.8480   28.5570 C   0  0  0  0  0  0  0  0  0  0  0  0
    7.6190   -4.5390   30.6410 C   0  0  0  0  0  0  0  0  0  0  0  0
    5.0640   -4.7440   29.9370 C   0  0  0  0  0  0  0  0  0  0  0  0
    6.4810   -5.3090   29.9430 C   0  0  0  0  0  0  0  0  0  0  0  0
    0.1100   -9.1160   25.7130 N   0  0  0  0  0  0  0  0  0  0  0  0
   -2.3060   -9.0900   24.2430 N   0  0  0  0  0  0  0  0  0  0  0  0
    9.5130   -4.3830   35.6180 C   0  0  0  0  0  0  0  0  0  0  0  0
   10.5209  -40.6849   -4.0850 H   0  0  0  0  0  0  0  0  0  0  0  0
   10.3081  -39.7948   -5.6307 H   0  0  0  0  0  0  0  0  0  0  0  0
   11.0536  -41.4290   -5.6307 H   0  0  0  0  0  0  0  0  0  0  0  0
   15.6549  -39.3047   -3.1974 H   0  0  0  0  0  0  0  0  0  0  0  0
   16.2805  -40.6722   -4.1778 H   0  0  0  0  0  0  0  0  0  0  0  0
    8.2403  -32.6290   -8.1051 H   0  0  0  0  0  0  0  0  0  0  0  0
    9.0897  -32.2608   -9.5093 H   0  0  0  0  0  0  0  0  0  0  0  0
    9.8139  -33.0698   -7.8470 H   0  0  0  0  0  0  0  0  0  0  0  0
    8.8337  -34.5952   -8.8998 H   0  0  0  0  0  0  0  0  0  0  0  0
   12.0809  -33.2826   -8.0308 H   0  0  0  0  0  0  0  0  0  0  0  0
   12.1199  -34.4255   -9.5499 H   0  0  0  0  0  0  0  0  0  0  0  0
    5.5182  -33.5030   -6.9743 H   0  0  0  0  0  0  0  0  0  0  0  0
    4.6694  -35.1844   -6.9999 H   0  0  0  0  0  0  0  0  0  0  0  0
    7.4870  -36.8277   -9.5299 H   0  0  0  0  0  0  0  0  0  0  0  0
    8.3517  -35.1632   -9.5226 H   0  0  0  0  0  0  0  0  0  0  0  0
   14.6430  -36.3263   -6.0056 H   0  0  0  0  0  0  0  0  0  0  0  0
   14.5982  -37.3620   -7.5694 H   0  0  0  0  0  0  0  0  0  0  0  0
   10.7229  -38.7114   -6.7929 H   0  0  0  0  0  0  0  0  0  0  0  0
   10.7684  -37.6719   -5.2349 H   0  0  0  0  0  0  0  0  0  0  0  0
   17.4407  -37.8369   -4.0535 H   0  0  0  0  0  0  0  0  0  0  0  0
   18.1498  -39.2003   -4.9778 H   0  0  0  0  0  0  0  0  0  0  0  0
   16.2161  -37.4004   -5.9264 H   0  0  0  0  0  0  0  0  0  0  0  0
   16.6091  -38.9888   -6.6541 H   0  0  0  0  0  0  0  0  0  0  0  0
   20.1403  -40.7236    1.4278 H   0  0  0  0  0  0  0  0  0  0  0  0
   20.8105  -41.9408    0.2895 H   0  0  0  0  0  0  0  0  0  0  0  0
   21.4512  -40.2627    0.2895 H   0  0  0  0  0  0  0  0  0  0  0  0
   16.1738  -40.2906   -0.9241 H   0  0  0  0  0  0  0  0  0  0  0  0
   17.3043  -38.8883   -0.8292 H   0  0  0  0  0  0  0  0  0  0  0  0
   19.0872  -38.7198   -2.4635 H   0  0  0  0  0  0  0  0  0  0  0  0
   19.1323  -39.8720   -3.8426 H   0  0  0  0  0  0  0  0  0  0  0  0
   18.0077  -40.5408    0.8230 H   0  0  0  0  0  0  0  0  0  0  0  0
   17.9810  -41.8494   -0.4253 H   0  0  0  0  0  0  0  0  0  0  0  0
   19.5965  -41.7167   -2.2617 H   0  0  0  0  0  0  0  0  0  0  0  0
   20.8521  -40.4307   -2.1966 H   0  0  0  0  0  0  0  0  0  0  0  0
   13.6860  -35.2890   -8.7647 H   0  0  0  0  0  0  0  0  0  0  0  0
    8.8247  -36.5413   -6.1623 H   0  0  0  0  0  0  0  0  0  0  0  0
    5.7561  -36.0528   -9.6937 H   0  0  0  0  0  0  0  0  0  0  0  0
    5.8489  -33.5277   -8.8383 H   0  0  0  0  0  0  0  0  0  0  0  0
    6.1458  -36.1680   -6.7333 H   0  0  0  0  0  0  0  0  0  0  0  0
   10.3636  -35.3833   -9.1093 H   0  0  0  0  0  0  0  0  0  0  0  0
    7.1716  -36.7968   -7.6441 H   0  0  0  0  0  0  0  0  0  0  0  0
   12.4268  -38.1796   -4.6934 H   0  0  0  0  0  0  0  0  0  0  0  0
   13.9027  -38.8550   -6.8115 H   0  0  0  0  0  0  0  0  0  0  0  0
   10.3000  -36.5731   -8.4053 H   0  0  0  0  0  0  0  0  0  0  0  0
   12.8583  -35.6504   -6.2709 H   0  0  0  0  0  0  0  0  0  0  0  0
   11.5301  -37.3431   -7.8647 H   0  0  0  0  0  0  0  0  0  0  0  0
    8.1926  -34.8374  -11.2291 H   0  0  0  0  0  0  0  0  0  0  0  0
    7.4205  -35.8284  -12.5130 H   0  0  0  0  0  0  0  0  0  0  0  0
    7.2190  -34.0434  -12.5130 H   0  0  0  0  0  0  0  0  0  0  0  0
    7.0973   -9.3428   29.5150 H   0  0  0  0  0  0  0  0  0  0  0  0
    6.9986  -10.3685   28.0436 H   0  0  0  0  0  0  0  0  0  0  0  0
    8.0250   -8.8943   28.0436 H   0  0  0  0  0  0  0  0  0  0  0  0
    2.1584   -8.6441   26.1044 H   0  0  0  0  0  0  0  0  0  0  0  0
    1.5552  -10.1108   26.9393 H   0  0  0  0  0  0  0  0  0  0  0  0
    9.1103   -1.7339   33.3551 H   0  0  0  0  0  0  0  0  0  0  0  0
   10.0718   -2.0586   32.0137 H   0  0  0  0  0  0  0  0  0  0  0  0
    7.6320   -1.9880   32.6644 H   0  0  0  0  0  0  0  0  0  0  0  0
    8.7090   -2.1323   30.8713 H   0  0  0  0  0  0  0  0  0  0  0  0
    5.8444   -1.7417   30.7564 H   0  0  0  0  0  0  0  0  0  0  0  0
    5.5195   -2.7880   32.3047 H   0  0  0  0  0  0  0  0  0  0  0  0
   12.5807   -2.4707   31.5868 H   0  0  0  0  0  0  0  0  0  0  0  0
   13.2718   -4.2218   31.5455 H   0  0  0  0  0  0  0  0  0  0  0  0
    9.8018   -5.8653   33.1054 H   0  0  0  0  0  0  0  0  0  0  0  0
    9.1022   -4.1239   33.1540 H   0  0  0  0  0  0  0  0  0  0  0  0
    3.5586   -4.8791   28.4505 H   0  0  0  0  0  0  0  0  0  0  0  0
    3.3070   -5.8367   30.0498 H   0  0  0  0  0  0  0  0  0  0  0  0
    7.2087   -7.2815   30.0311 H   0  0  0  0  0  0  0  0  0  0  0  0
    7.4545   -6.3187   28.4369 H   0  0  0  0  0  0  0  0  0  0  0  0
   -0.0538   -7.8322   27.7426 H   0  0  0  0  0  0  0  0  0  0  0  0
    1.0020   -8.8781   28.7529 H   0  0  0  0  0  0  0  0  0  0  0  0
    1.7989   -6.3769   27.1747 H   0  0  0  0  0  0  0  0  0  0  0  0
    1.8269   -6.6241   28.9675 H   0  0  0  0  0  0  0  0  0  0  0  0
   -4.3760   -9.3403   23.9941 H   0  0  0  0  0  0  0  0  0  0  0  0
   -3.5673   -8.3378   22.7420 H   0  0  0  0  0  0  0  0  0  0  0  0
   -3.3517  -10.1211   22.7420 H   0  0  0  0  0  0  0  0  0  0  0  0
    0.9438   -8.0869   24.0697 H   0  0  0  0  0  0  0  0  0  0  0  0
   -0.3738   -7.2185   24.9191 H   0  0  0  0  0  0  0  0  0  0  0  0
   -1.5621   -8.3210   26.6824 H   0  0  0  0  0  0  0  0  0  0  0  0
   -1.0497   -9.9511   27.2376 H   0  0  0  0  0  0  0  0  0  0  0  0
   -1.2364   -8.0687   22.7733 H   0  0  0  0  0  0  0  0  0  0  0  0
   -0.6455   -9.7304   23.1690 H   0  0  0  0  0  0  0  0  0  0  0  0
   -1.7429  -10.9065   25.0843 H   0  0  0  0  0  0  0  0  0  0  0  0
   -3.1066  -10.0535   25.8983 H   0  0  0  0  0  0  0  0  0  0  0  0
    4.0681   -3.6811   31.3058 H   0  0  0  0  0  0  0  0  0  0  0  0
    9.2948   -5.0369   29.6278 H   0  0  0  0  0  0  0  0  0  0  0  0
   11.4998   -5.3193   33.7672 H   0  0  0  0  0  0  0  0  0  0  0  0
   11.8195   -2.7018   33.3173 H   0  0  0  0  0  0  0  0  0  0  0  0
   11.8202   -5.0027   30.8070 H   0  0  0  0  0  0  0  0  0  0  0  0
    7.0704   -3.6416   32.2936 H   0  0  0  0  0  0  0  0  0  0  0  0
   10.5617   -5.6282   31.3655 H   0  0  0  0  0  0  0  0  0  0  0  0
    5.9184   -6.8444   27.6365 H   0  0  0  0  0  0  0  0  0  0  0  0
    4.0867   -7.3821   29.4937 H   0  0  0  0  0  0  0  0  0  0  0  0
    7.4209   -5.0617   31.5884 H   0  0  0  0  0  0  0  0  0  0  0  0
    5.2841   -4.2097   29.0010 H   0  0  0  0  0  0  0  0  0  0  0  0
    6.2707   -5.8468   30.8792 H   0  0  0  0  0  0  0  0  0  0  0  0
    9.5076   -4.3826   36.7180 H   0  0  0  0  0  0  0  0  0  0  0  0
    9.0673   -3.4476   35.2488 H   0  0  0  0  0  0  0  0  0  0  0  0
    8.9284   -5.2385   35.2488 H   0  0  0  0  0  0  0  0  0  0  0  0
  4  7  1  0
  3 13  1  0
 13 14  1  0
 16 18  1  0
 17 19  1  0
  8 20  1  0
  1 22  1  0
 14 23  1  0
  2 24  1  0
 10 24  1  0
  5 25  1  0
  9 25  1  0
 24 25  1  0
  6 26  1  0
  9 26  1  0
  7 27  1  0
  8 27  1  0
 10 28  1  0
 21 28  1  0
 26 28  1  0
 12 29  1  0
 22 29  1  0
 11 30  1  0
 23 30  1  0
 29 30  1  0
 21 31  1  0
 27 31  1  0
 11 32  1  0
 20 32  1  0
 12 33  1  0
 31 33  1  0
 32 33  1  0
  3 34  1  0
 16 34  1  0
 17 34  1  0
 15 35  1  0
 18 35  1  0
 19 35  1  0
  2 36  1  0
 40 43  1  0
 39 49  1  0
 49 50  1  0
 52 54  1  0
 53 55  1  0
 44 56  1  0
 37 58  1  0
 50 59  1  0
 38 60  1  0
 46 60  1  0
 41 61  1  0
 45 61  1  0
 60 61  1  0
 42 62  1  0
 45 62  1  0
 43 63  1  0
 44 63  1  0
 46 64  1  0
 57 64  1  0
 62 64  1  0
 48 65  1  0
 58 65  1  0
 47 66  1  0
 59 66  1  0
 65 66  1  0
 57 67  1  0
 63 67  1  0
 47 68  1  0
 56 68  1  0
 48 69  1  0
 67 69  1  0
 68 69  1  0
 39 70  1  0
 52 70  1  0
 53 70  1  0
 51 71  1  0
 54 71  1  0
 55 71  1  0
 38 72  1  0
  1 73  1  0
  1 74  1  0
  1 75  1  0
  3 76  1  0
  3 77  1  0
  4 78  1  0
  4 79  1  0
  7 80  1  0
  7 81  1  0
  8 82  1  0
  8 83  1  0
  9 84  1  0
  9 85  1  0
 10 86  1  0
 10 87  1  0
 11 88  1  0
 11 89  1  0
 12 90  1  0
 12 91  1  0
 13 92  1  0
 13 93  1  0
 14 94  1  0
 14 95  1  0
 15 96  1  0
 15 97  1  0
 15 98  1  0
 16 99  1  0
 16100  1  0
 17101  1  0
 17102  1  0
 18103  1  0
 18104  1  0
 19105  1  0
 19106  1  0
 20107  1  0
 21108  1  0
 24109  1  0
 25110  1  0
 26111  1  0
 27112  1  6
 28113  1  0
 29114  1  0
 30115  1  0
 31116  1  0
 32117  1  0
 33118  1  0
 36119  1  0
 36120  1  0
 36121  1  0
 37122  1  0
 37123  1  0
 37124  1  0
 39125  1  0
 39126  1  0
 40127  1  0
 40128  1  0
 43129  1  0
 43130  1  0
 44131  1  0
 44132  1  0
 45133  1  0
 45134  1  0
 46135  1  0
 46136  1  0
 47137  1  0
 47138  1  0
 48139  1  0
 48140  1  0
 49141  1  0
 49142  1  0
 50143  1  0
 50144  1  0
 51145  1  0
 51146  1  0
 51147  1  0
 52148  1  0
 52149  1  0
 53150  1  0
 53151  1  0
 54152  1  0
 54153  1  0
 55154  1  0
 55155  1  0
 56156  1  0
 57157  1  0
 60158  1  0
 61159  1  0
 62160  1  0
 63161  1  1
 64162  1  0
 65163  1  0
 66164  1  0
 67165  1  0
 68166  1  0
 69167  1  0
 72168  1  0
 72169  1  0
 72170  1  0
M  END
>  <PDBID>  (1) 
4MXY

>  <PDB ID>  (1) 
4MXY

>  <Generic Name>  (1) 
Bosutinib

>  <Brand Name>  (1) 
Bosulif

>  <DrugBank ID>  (1) 
DB06616

>  <ATC Codes>  (1) 
L01XE14

>  <Ligand ID>  (1) 
DB8

>  <Target Name>  (1) 
Tyrosine-protein kinase ABL1

>  <UniProt ID>  (1) 
P00519

>  <PDB ID.1>  (1) 
4MXY

>  <Seq. Identity>  (1) 
46%

$$$$
