PDB_DB00951_97
     RDKit          3D

 50 50  0  0  0  0  0  0  0  0999 V2000
  -23.6190  -57.9140  -15.3410 C   0  0  2  0  0  0  0  0  0  0  0  0
  -24.8890  -57.2270  -15.4030 C   0  0  1  0  0  0  0  0  0  0  0  0
  -27.2060  -55.8710  -15.3770 N   0  0  0  0  0  0  0  0  0  0  0  0
  -23.6740  -58.7760  -14.5470 O   0  0  0  0  0  0  0  0  0  0  0  0
  -25.1020  -56.2700  -16.3690 C   0  0  0  0  0  0  0  0  0  0  0  0
  -22.5340  -57.4300  -15.9870 N   0  0  0  0  0  0  0  0  0  0  0  0
  -26.3370  -55.6030  -16.3340 C   0  0  0  0  0  0  0  0  0  0  0  0
  -21.2840  -57.7780  -15.8320 N   0  0  0  0  0  0  0  0  0  0  0  0
  -27.0130  -56.8910  -14.4030 C   0  0  0  0  0  0  0  0  0  0  0  0
  -25.8280  -57.5550  -14.3980 C   0  0  0  0  0  0  0  0  0  0  0  0
  -12.6360  -36.3980    0.0330 C   0  0  2  0  0  0  0  0  0  0  0  0
  -13.8840  -35.6110    0.0440 C   0  0  2  0  0  0  0  0  0  0  0  0
  -16.3100  -34.3310   -0.1800 N   0  0  0  0  0  0  0  0  0  0  0  0
  -11.8380  -36.0460   -0.7970 O   0  0  0  0  0  0  0  0  0  0  0  0
  -14.9080  -35.9800    0.9260 C   0  0  0  0  0  0  0  0  0  0  0  0
  -12.4810  -37.5380    0.7470 N   0  0  0  0  0  0  0  0  0  0  0  0
  -16.1180  -35.2330    0.7920 C   0  0  0  0  0  0  0  0  0  0  0  0
  -11.4980  -38.4060    0.6190 N   0  0  0  0  0  0  0  0  0  0  0  0
  -15.2680  -33.9180   -1.1130 C   0  0  0  0  0  0  0  0  0  0  0  0
  -14.1020  -34.6180   -1.0010 C   0  0  0  0  0  0  0  0  0  0  0  0
  -23.0081  -58.4022  -16.1146 H   0  0  0  0  0  0  0  0  0  0  0  0
  -24.5040  -56.4538  -14.7219 H   0  0  0  0  0  0  0  0  0  0  0  0
  -27.3210  -54.9948  -14.8479 H   0  0  0  0  0  0  0  0  0  0  0  0
  -23.6492  -58.3881  -13.6365 H   0  0  0  0  0  0  0  0  0  0  0  0
  -24.3110  -55.5124  -16.2678 H   0  0  0  0  0  0  0  0  0  0  0  0
  -25.0953  -56.8163  -17.3237 H   0  0  0  0  0  0  0  0  0  0  0  0
  -22.7290  -57.5958  -16.9847 H   0  0  0  0  0  0  0  0  0  0  0  0
  -26.8402  -55.8166  -17.2885 H   0  0  0  0  0  0  0  0  0  0  0  0
  -26.0544  -54.5591  -16.1332 H   0  0  0  0  0  0  0  0  0  0  0  0
  -21.0665  -57.8385  -14.8270 H   0  0  0  0  0  0  0  0  0  0  0  0
  -21.1256  -58.6951  -16.2734 H   0  0  0  0  0  0  0  0  0  0  0  0
  -27.1301  -56.4244  -13.4138 H   0  0  0  0  0  0  0  0  0  0  0  0
  -27.7563  -57.6598  -14.6609 H   0  0  0  0  0  0  0  0  0  0  0  0
  -26.0516  -58.6277  -14.4941 H   0  0  0  0  0  0  0  0  0  0  0  0
  -25.3446  -57.2562  -13.4562 H   0  0  0  0  0  0  0  0  0  0  0  0
  -12.1920  -36.2933    1.0340 H   0  0  0  0  0  0  0  0  0  0  0  0
  -13.6358  -34.7816    0.7226 H   0  0  0  0  0  0  0  0  0  0  0  0
  -17.0764  -34.7013   -0.7601 H   0  0  0  0  0  0  0  0  0  0  0  0
  -11.0306  -35.6898   -0.3483 H   0  0  0  0  0  0  0  0  0  0  0  0
  -15.1411  -37.0411    0.7536 H   0  0  0  0  0  0  0  0  0  0  0  0
  -14.5305  -35.7749    1.9386 H   0  0  0  0  0  0  0  0  0  0  0  0
  -12.4486  -37.2372    1.7316 H   0  0  0  0  0  0  0  0  0  0  0  0
  -16.2470  -34.6904    1.7401 H   0  0  0  0  0  0  0  0  0  0  0  0
  -16.8344  -36.0189    0.5107 H   0  0  0  0  0  0  0  0  0  0  0  0
  -11.1711  -38.6946    1.5521 H   0  0  0  0  0  0  0  0  0  0  0  0
  -11.8339  -39.2314    0.1024 H   0  0  0  0  0  0  0  0  0  0  0  0
  -15.6507  -34.0483   -2.1360 H   0  0  0  0  0  0  0  0  0  0  0  0
  -15.0299  -32.8709   -0.8747 H   0  0  0  0  0  0  0  0  0  0  0  0
  -13.3056  -33.8687   -0.8819 H   0  0  0  0  0  0  0  0  0  0  0  0
  -14.1252  -35.2429   -1.9059 H   0  0  0  0  0  0  0  0  0  0  0  0
  1  2  1  0
  1  4  1  0
  2  5  1  0
  1  6  1  0
  3  7  1  0
  5  7  1  0
  6  8  1  0
  3  9  1  0
  2 10  1  0
  9 10  1  0
 11 12  1  0
 11 14  1  0
 12 15  1  0
 11 16  1  0
 13 17  1  0
 15 17  1  0
 16 18  1  0
 13 19  1  0
 12 20  1  0
 19 20  1  0
  1 21  1  6
  2 22  1  6
  3 23  1  0
  4 24  1  0
  5 25  1  0
  5 26  1  0
  6 27  1  0
  7 28  1  0
  7 29  1  0
  8 30  1  0
  8 31  1  0
  9 32  1  0
  9 33  1  0
 10 34  1  0
 10 35  1  0
 11 36  1  1
 12 37  1  1
 13 38  1  0
 14 39  1  0
 15 40  1  0
 15 41  1  0
 16 42  1  0
 17 43  1  0
 17 44  1  0
 18 45  1  0
 18 46  1  0
 19 47  1  0
 19 48  1  0
 20 49  1  0
 20 50  1  0
M  END
>  <PDBID>  (1) 
5KSN

>  <PDB ID>  (1) 
5KSN

>  <Generic Name>  (1) 
Isoniazid

>  <Brand Name>  (1) 
Dom-isoniazid 300mg Tablets#Isonarif#Isoniazid#Isoniazid Syrup 50mg/5ml#Isoniazid Tab 100mg#Isoniazid Tab 300mg#Isoniazid Tab 50mg#Isoniazide 100mg Tablets#Isotamine B 300#Isotamine Powder#Isotamine Syr Pediatric 50mg/5ml#Isotamine-100#Isotamine-300#Pdp-isoniazid#Rifamate#Rifater#Nicozid#Nidrazid#Nydrazid#Rimicid#Rimifon#Servizid#Tibinide

>  <DrugBank ID>  (1) 
DB00951

>  <ATC Codes>  (1) 
J04AM04#J04AM02#J04AM06#J04AM03#J04AM05#J04AM01#J04AC51#J04AC01

>  <Ligand ID>  (1) 
NIZ

>  <Target Name>  (1) 
Catalase-peroxidase

>  <UniProt ID>  (1) 
Q08129

>  <PDB ID.1>  (1) 
5KSN

>  <Seq. Identity>  (1) 
66%

$$$$
