PDB_DB00188_98
     RDKit          3D

 53 54  0  0  0  0  0  0  0  0999 V2000
    7.6850  198.7150   38.3940 N   0  0  0  0  0  0  0  0  0  0  0  0
    7.9000  197.7800   37.4490 C   0  0  0  0  0  0  0  0  0  0  0  0
    7.2340  197.8130   36.2310 C   0  0  0  0  0  0  0  0  0  0  0  0
    6.4470  198.8490   35.9800 N   0  0  0  0  0  0  0  0  0  0  0  0
    6.2250  199.7880   36.8980 C   0  0  0  0  0  0  0  0  0  0  0  0
    6.8710  199.7380   38.1130 C   0  0  0  0  0  0  0  0  0  0  0  0
    8.7200  196.5900   37.7220 C   0  0  0  0  0  0  0  0  0  0  0  0
    9.2350  195.9920   36.8130 O   0  0  0  0  0  0  0  0  0  0  0  0
    8.7210  196.1690   38.9710 N   0  0  0  0  0  0  0  0  0  0  0  0
    9.3530  194.9760   39.4080 C   0  0  1  0  0  0  0  0  0  0  0  0
    9.7880  195.1150   40.8760 C   0  0  0  0  0  0  0  0  0  0  0  0
   10.3080  193.8460   41.5090 C   0  0  0  0  0  0  0  0  0  0  0  0
   11.4900  193.2290   41.0630 C   0  0  0  0  0  0  0  0  0  0  0  0
   11.9820  192.0660   41.6590 C   0  0  0  0  0  0  0  0  0  0  0  0
   11.3310  191.5320   42.7680 C   0  0  0  0  0  0  0  0  0  0  0  0
   10.1680  192.1360   43.2520 C   0  0  0  0  0  0  0  0  0  0  0  0
    9.6670  193.2870   42.6140 C   0  0  0  0  0  0  0  0  0  0  0  0
    8.3400  193.8530   39.3110 C   0  0  0  0  0  0  0  0  0  0  0  0
    7.2610  193.9600   39.8830 O   0  0  0  0  0  0  0  0  0  0  0  0
    8.6590  192.7340   38.6350 N   0  0  0  0  0  0  0  0  0  0  0  0
    7.7710  191.5820   38.5220 C   0  0  1  0  0  0  0  0  0  0  0  0
    7.8650  191.0360   37.0880 C   0  0  0  0  0  0  0  0  0  0  0  0
    7.5520  192.0620   36.0250 C   0  0  0  0  0  0  0  0  0  0  0  0
    6.2780  192.8670   36.3110 C   0  0  0  0  0  0  0  0  0  0  0  0
    7.4460  191.3700   34.6600 C   0  0  0  0  0  0  0  0  0  0  0  0
    8.1570  190.4170   39.5890 B   0  0  0  0  0  0  0  0  0  0  0  0
    7.9310  190.8410   41.0340 O   0  0  0  0  0  0  0  0  0  0  0  0
    9.6490  190.1110   39.5060 O   0  0  0  0  0  0  0  0  0  0  0  0
    7.3561  197.0033   35.4965 H   0  0  0  0  0  0  0  0  0  0  0  0
    5.5225  200.6071   36.6847 H   0  0  0  0  0  0  0  0  0  0  0  0
    6.7176  200.5386   38.8516 H   0  0  0  0  0  0  0  0  0  0  0  0
    8.2324  196.7418   39.6739 H   0  0  0  0  0  0  0  0  0  0  0  0
   10.2381  194.7735   38.7870 H   0  0  0  0  0  0  0  0  0  0  0  0
   10.5839  195.8726   40.9261 H   0  0  0  0  0  0  0  0  0  0  0  0
    8.8853  195.3931   41.4398 H   0  0  0  0  0  0  0  0  0  0  0  0
   12.0419  193.6743   40.2221 H   0  0  0  0  0  0  0  0  0  0  0  0
   12.8791  191.5743   41.2546 H   0  0  0  0  0  0  0  0  0  0  0  0
   11.7322  190.6351   43.2627 H   0  0  0  0  0  0  0  0  0  0  0  0
    9.6475  191.7155   44.1251 H   0  0  0  0  0  0  0  0  0  0  0  0
    8.7484  193.7562   42.9963 H   0  0  0  0  0  0  0  0  0  0  0  0
    9.5785  192.6884   38.1731 H   0  0  0  0  0  0  0  0  0  0  0  0
    6.7429  191.9015   38.7478 H   0  0  0  0  0  0  0  0  0  0  0  0
    8.8881  190.6668   36.9235 H   0  0  0  0  0  0  0  0  0  0  0  0
    7.1113  190.2399   36.9976 H   0  0  0  0  0  0  0  0  0  0  0  0
    8.3799  192.7862   36.0243 H   0  0  0  0  0  0  0  0  0  0  0  0
    6.1369  192.9561   37.3983 H   0  0  0  0  0  0  0  0  0  0  0  0
    6.3715  193.8703   35.8699 H   0  0  0  0  0  0  0  0  0  0  0  0
    5.4120  192.3518   35.8699 H   0  0  0  0  0  0  0  0  0  0  0  0
    7.2809  190.2924   34.8070 H   0  0  0  0  0  0  0  0  0  0  0  0
    6.6027  191.7967   34.0971 H   0  0  0  0  0  0  0  0  0  0  0  0
    8.3783  191.5247   34.0971 H   0  0  0  0  0  0  0  0  0  0  0  0
    8.2986  190.1513   41.6416 H   0  0  0  0  0  0  0  0  0  0  0  0
   10.0215  190.0346   40.4200 H   0  0  0  0  0  0  0  0  0  0  0  0
  1  2  2  0
  2  3  1  0
  3  4  2  0
  4  5  1  0
  1  6  1  0
  5  6  2  0
  2  7  1  0
  7  8  2  0
  7  9  1  0
  9 10  1  0
 10 11  1  0
 11 12  1  0
 12 13  2  0
 13 14  1  0
 14 15  2  0
 15 16  1  0
 12 17  1  0
 16 17  2  0
 10 18  1  0
 18 19  2  0
 18 20  1  0
 20 21  1  0
 21 22  1  0
 22 23  1  0
 23 24  1  0
 23 25  1  0
 21 26  1  0
 26 27  1  0
 26 28  1  0
  3 29  1  0
  5 30  1  0
  6 31  1  0
  9 32  1  0
 10 33  1  6
 11 34  1  0
 11 35  1  0
 13 36  1  0
 14 37  1  0
 15 38  1  0
 16 39  1  0
 17 40  1  0
 20 41  1  0
 21 42  1  1
 22 43  1  0
 22 44  1  0
 23 45  1  0
 24 46  1  0
 24 47  1  0
 24 48  1  0
 25 49  1  0
 25 50  1  0
 25 51  1  0
 27 52  1  0
 28 53  1  0
M  END
$$$$
