PDB_DB00443_94
     RDKit          3D

 57 60  0  0  0  0  0  0  0  0999 V2000
   31.8260   30.2790   19.6120 C   0  0  0  0  0  0  0  0  0  0  0  0
   31.3450   29.4740   18.5510 C   0  0  0  0  0  0  0  0  0  0  0  0
   30.0540   28.6950   18.7430 C   0  0  0  0  0  0  0  0  0  0  0  0
   29.3400   28.8290   20.1010 C   0  0  0  0  0  0  0  0  0  0  0  0
   29.7980   29.6080   21.1400 C   0  0  0  0  0  0  0  0  0  0  0  0
   28.9820   29.7010   22.5460 C   0  0  0  0  0  0  0  0  0  0  0  0
   29.9500   29.5200   23.7470 C   0  0  0  0  0  0  0  0  0  0  0  0
   31.2920   30.4560   23.7090 C   0  0  2  0  0  0  0  0  0  0  0  0
   32.1400   30.2670   22.3530 C   0  0  1  0  0  0  0  0  0  0  0  0
   31.1550   30.4850   21.0510 C   0  0  1  0  0  0  0  0  0  0  0  0
   33.5000   31.1410   22.3380 C   0  0  2  0  0  0  0  0  0  0  0  0
   34.3320   30.8870   23.6230 C   0  0  0  0  0  0  0  0  0  0  0  0
   33.5670   31.0370   25.0390 C   0  0  1  0  0  0  0  0  0  0  0  0
   32.2430   30.1870   24.9790 C   0  0  1  0  0  0  0  0  0  0  0  0
   31.6360   30.3810   26.4370 C   0  0  0  0  0  0  0  0  0  0  0  0
   32.8270   30.0270   27.2940 C   0  0  2  0  0  0  0  0  0  0  0  0
   34.0970   30.4040   26.4200 C   0  0  2  0  0  0  0  0  0  0  0  0
   33.3490   32.6420   25.2220 C   0  0  0  0  0  0  0  0  0  0  0  0
   30.6320   32.0000   21.0290 C   0  0  0  0  0  0  0  0  0  0  0  0
   35.2340   31.1260   27.1930 C   0  0  0  0  0  0  0  0  0  0  0  0
   36.4840   31.5220   26.4380 C   0  0  0  0  0  0  0  0  0  0  0  0
   32.8030   28.5020   27.7010 C   0  0  0  0  0  0  0  0  0  0  0  0
   32.5210   28.9740   22.2660 F   0  0  0  0  0  0  0  0  0  0  0  0
   29.5280   27.9430   17.8560 O   0  0  0  0  0  0  0  0  0  0  0  0
   33.3740   32.4760   22.2080 O   0  0  0  0  0  0  0  0  0  0  0  0
   34.8880   29.2710   26.2220 O   0  0  0  0  0  0  0  0  0  0  0  0
   35.0680   31.3590   28.4440 O   0  0  0  0  0  0  0  0  0  0  0  0
   37.3530   32.1370   27.2860 O   0  0  0  0  0  0  0  0  0  0  0  0
   32.7641   30.8228   19.4272 H   0  0  0  0  0  0  0  0  0  0  0  0
   31.8975   29.4133   17.6018 H   0  0  0  0  0  0  0  0  0  0  0  0
   28.4060   28.2674   20.2502 H   0  0  0  0  0  0  0  0  0  0  0  0
   28.4951   30.6847   22.6180 H   0  0  0  0  0  0  0  0  0  0  0  0
   28.2263   28.9022   22.5734 H   0  0  0  0  0  0  0  0  0  0  0  0
   29.3969   29.7558   24.6681 H   0  0  0  0  0  0  0  0  0  0  0  0
   30.3029   28.4792   23.6999 H   0  0  0  0  0  0  0  0  0  0  0  0
   30.9312   31.4945   23.7449 H   0  0  0  0  0  0  0  0  0  0  0  0
   33.9933   30.7862   21.4211 H   0  0  0  0  0  0  0  0  0  0  0  0
   34.7246   29.8610   23.5658 H   0  0  0  0  0  0  0  0  0  0  0  0
   35.0958   31.6785   23.6277 H   0  0  0  0  0  0  0  0  0  0  0  0
   32.4122   29.1211   24.7665 H   0  0  0  0  0  0  0  0  0  0  0  0
   31.3117   31.4186   26.6048 H   0  0  0  0  0  0  0  0  0  0  0  0
   30.7376   29.7789   26.6380 H   0  0  0  0  0  0  0  0  0  0  0  0
   32.8315   30.5746   28.2480 H   0  0  0  0  0  0  0  0  0  0  0  0
   33.3156   32.8877   26.2937 H   0  0  0  0  0  0  0  0  0  0  0  0
   34.1821   33.1816   24.7479 H   0  0  0  0  0  0  0  0  0  0  0  0
   32.4022   32.9398   24.7479 H   0  0  0  0  0  0  0  0  0  0  0  0
   30.5077   32.3600   22.0610 H   0  0  0  0  0  0  0  0  0  0  0  0
   31.3637   32.6329   20.5055 H   0  0  0  0  0  0  0  0  0  0  0  0
   29.6657   32.0468   20.5055 H   0  0  0  0  0  0  0  0  0  0  0  0
   36.9577   30.6230   26.0167 H   0  0  0  0  0  0  0  0  0  0  0  0
   36.2166   32.2124   25.6244 H   0  0  0  0  0  0  0  0  0  0  0  0
   32.8016   28.4151   28.7976 H   0  0  0  0  0  0  0  0  0  0  0  0
   31.8973   28.0282   27.2945 H   0  0  0  0  0  0  0  0  0  0  0  0
   33.6934   28.0000   27.2945 H   0  0  0  0  0  0  0  0  0  0  0  0
   33.3347   32.8927   23.1052 H   0  0  0  0  0  0  0  0  0  0  0  0
   35.1508   28.8946   27.0991 H   0  0  0  0  0  0  0  0  0  0  0  0
   37.0890   31.9502   28.2217 H   0  0  0  0  0  0  0  0  0  0  0  0
  1  2  2  0
  2  3  1  0
  3  4  1  0
  4  5  2  0
  5  6  1  0
  6  7  1  0
  7  8  1  0
  8  9  1  0
  1 10  1  0
  5 10  1  0
  9 10  1  0
  9 11  1  0
 11 12  1  0
 12 13  1  0
  8 14  1  0
 13 14  1  0
 14 15  1  0
 15 16  1  0
 13 17  1  0
 16 17  1  0
 13 18  1  1
 10 19  1  6
 17 20  1  0
 20 21  1  0
 16 22  1  0
  9 23  1  1
  3 24  2  0
 11 25  1  0
 17 26  1  6
 20 27  2  0
 21 28  1  0
  1 29  1  0
  2 30  1  0
  4 31  1  0
  6 32  1  0
  6 33  1  0
  7 34  1  0
  7 35  1  0
  8 36  1  1
 11 37  1  6
 12 38  1  0
 12 39  1  0
 14 40  1  1
 15 41  1  0
 15 42  1  0
 16 43  1  1
 18 44  1  0
 18 45  1  0
 18 46  1  0
 19 47  1  0
 19 48  1  0
 19 49  1  0
 21 50  1  0
 21 51  1  0
 22 52  1  0
 22 53  1  0
 22 54  1  0
 25 55  1  0
 26 56  1  0
 28 57  1  0
M  END
$$$$
