PDB_DB00259_99
     RDKit          3D

 27 27  0  0  0  0  0  0  0  0999 V2000
   43.2220    7.0140    2.3340 C   0  0  0  0  0  0  0  0  0  0  0  0
   44.2960    6.1460    2.5490 N   0  0  0  0  0  0  0  0  0  0  0  0
   43.0800    7.7190    1.1380 C   0  0  0  0  0  0  0  0  0  0  0  0
   41.9860    8.5740    0.9920 C   0  0  0  0  0  0  0  0  0  0  0  0
   41.1100    8.6700    2.0950 C   0  0  0  0  0  0  0  0  0  0  0  0
   41.2110    7.9590    3.2830 C   0  0  0  0  0  0  0  0  0  0  0  0
   42.3100    7.1490    3.3980 C   0  0  0  0  0  0  0  0  0  0  0  0
   39.7490    9.7160    1.9990 S   0  0  1  0  0  4  0  0  0  0  0  0
   38.6150    8.7020    1.9710 N   0  0  0  0  0  0  0  0  0  0  0  0
   39.7780   10.7560    3.1830 O   0  0  0  0  0  0  0  0  0  0  0  0
   39.6720   10.5370    0.6910 O   0  0  0  0  0  0  0  0  0  0  0  0
   43.8090    7.8442    2.7537 H   0  0  0  0  0  0  0  0  0  0  0  0
   44.4437    6.0267    3.5614 H   0  0  0  0  0  0  0  0  0  0  0  0
   44.0893    5.2317    2.1221 H   0  0  0  0  0  0  0  0  0  0  0  0
   43.9870    8.3284    1.0112 H   0  0  0  0  0  0  0  0  0  0  0  0
   42.9111    6.9363    0.3838 H   0  0  0  0  0  0  0  0  0  0  0  0
   42.3749    9.5820    0.7853 H   0  0  0  0  0  0  0  0  0  0  0  0
   41.3844    8.1409    0.1793 H   0  0  0  0  0  0  0  0  0  0  0  0
   40.4863    7.8701    1.6693 H   0  0  0  0  0  0  0  0  0  0  0  0
   41.2373    8.6840    4.1098 H   0  0  0  0  0  0  0  0  0  0  0  0
   40.3397    7.2880    3.3064 H   0  0  0  0  0  0  0  0  0  0  0  0
   41.9334    6.1392    3.6181 H   0  0  0  0  0  0  0  0  0  0  0  0
   42.9081    7.6580    4.1682 H   0  0  0  0  0  0  0  0  0  0  0  0
   38.3458    8.4613    2.9356 H   0  0  0  0  0  0  0  0  0  0  0  0
   37.8052    9.1061    1.4792 H   0  0  0  0  0  0  0  0  0  0  0  0
   39.7645   10.2729    4.0470 H   0  0  0  0  0  0  0  0  0  0  0  0
   39.5818   11.4983    0.9096 H   0  0  0  0  0  0  0  0  0  0  0  0
  1  2  1  0
  1  3  1  0
  3  4  1  0
  4  5  1  0
  5  6  1  0
  1  7  1  0
  6  7  1  0
  5  8  1  0
  8  9  1  0
  8 10  1  1
  8 11  1  0
  1 12  1  0
  2 13  1  0
  2 14  1  0
  3 15  1  0
  3 16  1  0
  4 17  1  0
  4 18  1  0
  5 19  1  0
  6 20  1  0
  6 21  1  0
  7 22  1  0
  7 23  1  0
  9 24  1  0
  9 25  1  0
 10 26  1  0
 11 27  1  0
M  END
>  <PDBID>  (1) 
1AJ0

>  <PDB ID>  (1) 
1AJ0

>  <Generic Name>  (1) 
Sulfanilamide

>  <Brand Name>  (1) 
AVC Vaginal#Avc#Avc Cream - 15%#Streptocid

>  <DrugBank ID>  (1) 
DB00259

>  <ATC Codes>  (1) 
J01EB06#D06BA05

>  <Ligand ID>  (1) 
SAN

>  <Target Name>  (1) 
Dihydropteroate synthase

>  <UniProt ID>  (1) 
P0AC13

>  <PDB ID.1>  (1) 
1AJ0

>  <Seq. Identity>  (1) 
100%

$$$$
