PDB_DB01051_98
     RDKit          3D

306315  0  0  0  0  0  0  0  0999 V2000
  -30.3150    2.2170    3.2210 C   0  0  0  0  0  0  0  0  0  0  0  0
  -30.4790    3.1370    2.1470 O   0  0  0  0  0  0  0  0  0  0  0  0
  -26.4050    1.5070    0.6200 N   0  0  0  0  0  0  0  0  0  0  0  0
  -27.3600    2.1960    0.0040 C   0  0  0  0  0  0  0  0  0  0  0  0
  -27.1760    3.0470   -0.8450 O   0  0  0  0  0  0  0  0  0  0  0  0
  -28.5800    1.8320    0.4540 O   0  0  0  0  0  0  0  0  0  0  0  0
  -30.8890    2.5420    0.9190 C   0  0  2  0  0  0  0  0  0  0  0  0
  -29.7360    2.5110   -0.0830 C   0  0  2  0  0  0  0  0  0  0  0  0
  -30.1870    1.9120   -1.4110 C   0  0  1  0  0  0  0  0  0  0  0  0
  -30.6120    0.5640   -1.2800 O   0  0  0  0  0  0  0  0  0  0  0  0
  -31.2960    2.7670   -2.0130 C   0  0  1  0  0  0  0  0  0  0  0  0
  -32.3600    3.0380   -1.0900 O   0  0  0  0  0  0  0  0  0  0  0  0
  -32.1250    3.3550    0.3120 C   0  0  2  0  0  0  0  0  0  0  0  0
  -31.9490    4.8680    0.3910 C   0  0  0  0  0  0  0  0  0  0  0  0
  -33.3910    2.9360    1.0380 C   0  0  0  0  0  0  0  0  0  0  0  0
  -30.6570    3.9260   -2.5100 O   0  0  0  0  0  0  0  0  0  0  0  0
  -31.3500    4.8460   -3.2640 C   0  0  0  0  0  0  0  0  0  0  0  0
  -30.5550    5.8910   -3.7550 C   0  0  1  0  0  0  0  0  0  0  0  0
  -29.0590    5.9090   -3.5280 C   0  0  0  0  0  0  0  0  0  0  0  0
  -31.1870    6.8660   -4.5260 C   0  0  1  0  0  0  0  0  0  0  0  0
  -32.5560    6.8290   -4.8090 C   0  0  1  0  0  0  0  0  0  0  0  0
  -33.3170    5.7840   -4.2800 C   0  0  0  0  0  0  0  0  0  0  0  0
  -32.7220    4.7900   -3.5210 C   0  0  0  0  0  0  0  0  0  0  0  0
  -30.3640    7.8400   -5.0600 O   0  0  0  0  0  0  0  0  0  0  0  0
  -30.8200    8.8070   -5.9320 C   0  0  0  0  0  0  0  0  0  0  0  0
  -29.9930    9.5960   -6.3250 O   0  0  0  0  0  0  0  0  0  0  0  0
  -32.3010    8.7770   -6.2980 C   0  0  1  0  0  0  0  0  0  0  0  0
  -33.1000    7.8330   -5.7100 C   0  0  0  0  0  0  0  0  0  0  0  0
  -34.4150    7.7870   -5.8840 O   0  0  0  0  0  0  0  0  0  0  0  0
  -32.6060    9.7060   -7.3200 N   0  0  0  0  0  0  0  0  0  0  0  0
  -32.8100    9.3560   -8.6440 C   0  0  0  0  0  0  0  0  0  0  0  0
  -32.8500    8.1840   -9.0210 O   0  0  0  0  0  0  0  0  0  0  0  0
  -33.0030   10.4830   -9.6120 C   0  0  0  0  0  0  0  0  0  0  0  0
  -33.4920   11.7250   -9.2080 C   0  0  0  0  0  0  0  0  0  0  0  0
  -33.7280   12.7510  -10.1280 C   0  0  0  0  0  0  0  0  0  0  0  0
  -33.4690   12.5020  -11.4820 C   0  0  0  0  0  0  0  0  0  0  0  0
  -33.7300   13.4550  -12.4160 O   0  0  0  0  0  0  0  0  0  0  0  0
  -32.9650   11.2680  -11.8880 C   0  0  0  0  0  0  0  0  0  0  0  0
  -32.7320   10.2710  -10.9610 C   0  0  0  0  0  0  0  0  0  0  0  0
  -34.2170   14.1180   -9.6780 C   0  0  0  0  0  0  0  0  0  0  0  0
  -34.9910   14.1960   -8.3900 C   0  0  0  0  0  0  0  0  0  0  0  0
  -36.1620   14.7820   -8.1720 C   0  0  0  0  0  0  0  0  0  0  0  0
  -36.8020   14.7780   -6.8180 C   0  0  0  0  0  0  0  0  0  0  0  0
  -36.9630   15.4780   -9.2360 C   0  0  0  0  0  0  0  0  0  0  0  0
  -48.1760   -6.9650  -22.1710 C   0  0  0  0  0  0  0  0  0  0  0  0
  -48.8530   -7.4510  -23.3240 O   0  0  0  0  0  0  0  0  0  0  0  0
  -50.6190   -3.3520  -24.2510 N   0  0  0  0  0  0  0  0  0  0  0  0
  -50.4330   -4.3680  -25.0870 C   0  0  0  0  0  0  0  0  0  0  0  0
  -51.1650   -4.6440  -26.0110 O   0  0  0  0  0  0  0  0  0  0  0  0
  -49.2710   -5.0360  -24.7910 O   0  0  0  0  0  0  0  0  0  0  0  0
  -48.1810   -7.2090  -24.5580 C   0  0  2  0  0  0  0  0  0  0  0  0
  -49.0070   -6.2920  -25.4530 C   0  0  2  0  0  0  0  0  0  0  0  0
  -48.3810   -6.1330  -26.8390 C   0  0  1  0  0  0  0  0  0  0  0  0
  -47.1070   -5.4940  -26.8820 O   0  0  0  0  0  0  0  0  0  0  0  0
  -48.2930   -7.4960  -27.5110 C   0  0  1  0  0  0  0  0  0  0  0  0
  -47.6590   -8.4730  -26.6800 O   0  0  0  0  0  0  0  0  0  0  0  0
  -47.9670   -8.6250  -25.2660 C   0  0  2  0  0  0  0  0  0  0  0  0
  -49.1430   -9.5870  -25.1550 C   0  0  0  0  0  0  0  0  0  0  0  0
  -46.7110   -9.2780  -24.7210 C   0  0  0  0  0  0  0  0  0  0  0  0
  -49.6050   -7.8270  -27.9160 O   0  0  0  0  0  0  0  0  0  0  0  0
  -49.8480   -8.9690  -28.6560 C   0  0  0  0  0  0  0  0  0  0  0  0
  -51.1820   -9.1060  -29.0630 C   0  0  0  0  0  0  0  0  0  0  0  0
  -52.2280   -8.0900  -28.6650 C   0  0  0  0  0  0  0  0  0  0  0  0
  -51.4990  -10.2120  -29.8500 C   0  0  1  0  0  0  0  0  0  0  0  0
  -50.5600  -11.1870  -30.2030 C   0  0  1  0  0  0  0  0  0  0  0  0
  -49.2440  -11.0330  -29.7520 C   0  0  0  0  0  0  0  0  0  0  0  0
  -48.8850   -9.9310  -28.9900 C   0  0  0  0  0  0  0  0  0  0  0  0
  -52.7950  -10.2550  -30.3240 O   0  0  0  0  0  0  0  0  0  0  0  0
  -53.2530  -11.2470  -31.1610 C   0  0  0  0  0  0  0  0  0  0  0  0
  -54.3970  -11.1350  -31.5240 O   0  0  0  0  0  0  0  0  0  0  0  0
  -52.2780  -12.3380  -31.5390 C   0  0  1  0  0  0  0  0  0  0  0  0
  -50.9950  -12.2770  -31.0690 C   0  0  0  0  0  0  0  0  0  0  0  0
  -50.0780  -13.1970  -31.3570 O   0  0  0  0  0  0  0  0  0  0  0  0
  -52.8890  -13.3380  -32.3210 N   0  0  0  0  0  0  0  0  0  0  0  0
  -52.7400  -13.4670  -33.6830 C   0  0  0  0  0  0  0  0  0  0  0  0
  -52.1260  -12.6410  -34.3580 O   0  0  0  0  0  0  0  0  0  0  0  0
  -53.3590  -14.6820  -34.3030 C   0  0  0  0  0  0  0  0  0  0  0  0
  -53.7140  -15.7700  -33.5040 C   0  0  0  0  0  0  0  0  0  0  0  0
  -54.2790  -16.9270  -34.0500 C   0  0  0  0  0  0  0  0  0  0  0  0
  -54.4770  -16.9790  -35.4370 C   0  0  0  0  0  0  0  0  0  0  0  0
  -55.0220  -18.0860  -36.0140 O   0  0  0  0  0  0  0  0  0  0  0  0
  -54.1220  -15.8960  -36.2410 C   0  0  0  0  0  0  0  0  0  0  0  0
  -53.5730  -14.7580  -35.6770 C   0  0  0  0  0  0  0  0  0  0  0  0
  -54.6670  -18.0910  -33.1510 C   0  0  0  0  0  0  0  0  0  0  0  0
  -54.8610  -17.7560  -31.6960 C   0  0  0  0  0  0  0  0  0  0  0  0
  -55.9970  -17.7200  -31.0030 C   0  0  0  0  0  0  0  0  0  0  0  0
  -57.3450  -18.0220  -31.5900 C   0  0  0  0  0  0  0  0  0  0  0  0
  -56.0210  -17.3540  -29.5500 C   0  0  0  0  0  0  0  0  0  0  0  0
  -23.3840   18.3110  -28.3430 C   0  0  0  0  0  0  0  0  0  0  0  0
  -24.2070   17.9690  -27.2170 O   0  0  0  0  0  0  0  0  0  0  0  0
  -20.8620   15.0110  -26.1460 N   0  0  0  0  0  0  0  0  0  0  0  0
  -21.9150   15.4740  -25.4620 C   0  0  0  0  0  0  0  0  0  0  0  0
  -22.5960   14.8300  -24.6930 O   0  0  0  0  0  0  0  0  0  0  0  0
  -22.1190   16.7790  -25.7180 O   0  0  0  0  0  0  0  0  0  0  0  0
  -23.7700   18.5180  -25.9780 C   0  0  2  0  0  0  0  0  0  0  0  0
  -23.2360   17.4220  -25.0670 C   0  0  2  0  0  0  0  0  0  0  0  0
  -22.8710   17.9410  -23.6740 C   0  0  1  0  0  0  0  0  0  0  0  0
  -21.7270   18.7850  -23.6500 O   0  0  0  0  0  0  0  0  0  0  0  0
  -24.0640   18.6200  -23.0130 C   0  0  1  0  0  0  0  0  0  0  0  0
  -24.7450   19.5230  -23.8890 O   0  0  0  0  0  0  0  0  0  0  0  0
  -24.9440   19.2670  -25.3050 C   0  0  2  0  0  0  0  0  0  0  0  0
  -26.2950   18.5720  -25.4340 C   0  0  0  0  0  0  0  0  0  0  0  0
  -24.9990   20.6850  -25.8440 C   0  0  0  0  0  0  0  0  0  0  0  0
  -24.8810   17.5800  -22.5270 O   0  0  0  0  0  0  0  0  0  0  0  0
  -26.0720   17.8260  -21.8750 C   0  0  1  0  0  0  0  0  0  0  0  0
  -26.6940   16.6590  -21.4140 C   0  0  0  0  0  0  0  0  0  0  0  0
  -26.2160   15.3010  -21.8770 C   0  0  0  0  0  0  0  0  0  0  0  0
  -27.7790   16.8050  -20.5490 C   0  0  1  0  0  0  0  0  0  0  0  0
  -28.3050   18.0570  -20.2090 C   0  0  1  0  0  0  0  0  0  0  0  0
  -27.7100   19.1930  -20.7630 C   0  0  0  0  0  0  0  0  0  0  0  0
  -26.5910   19.0880  -21.5750 C   0  0  0  0  0  0  0  0  0  0  0  0
  -28.2500   15.6430  -19.9720 O   0  0  0  0  0  0  0  0  0  0  0  0
  -29.2440   15.6290  -19.0160 C   0  0  0  0  0  0  0  0  0  0  0  0
  -29.5880   14.5350  -18.6360 O   0  0  0  0  0  0  0  0  0  0  0  0
  -29.8260   16.9750  -18.5860 C   0  0  1  0  0  0  0  0  0  0  0  0
  -29.3740   18.1080  -19.2070 C   0  0  0  0  0  0  0  0  0  0  0  0
  -29.8820   19.3100  -18.9690 O   0  0  0  0  0  0  0  0  0  0  0  0
  -30.6950   16.8410  -17.4800 N   0  0  0  0  0  0  0  0  0  0  0  0
  -30.2390   17.1000  -16.2060 C   0  0  0  0  0  0  0  0  0  0  0  0
  -29.0970   17.4980  -15.9880 O   0  0  0  0  0  0  0  0  0  0  0  0
  -31.2130   16.9040  -15.0880 C   0  0  0  0  0  0  0  0  0  0  0  0
  -30.7630   17.1410  -13.7890 C   0  0  0  0  0  0  0  0  0  0  0  0
  -31.6190   17.0440  -12.6910 C   0  0  0  0  0  0  0  0  0  0  0  0
  -32.9540   16.6880  -12.9180 C   0  0  0  0  0  0  0  0  0  0  0  0
  -33.8170   16.6000  -11.8730 O   0  0  0  0  0  0  0  0  0  0  0  0
  -33.4070   16.4360  -14.2130 C   0  0  0  0  0  0  0  0  0  0  0  0
  -32.5420   16.5430  -15.2880 C   0  0  0  0  0  0  0  0  0  0  0  0
  -31.0560   17.3530  -11.3110 C   0  0  0  0  0  0  0  0  0  0  0  0
  -30.9870   16.1560  -10.4020 C   0  0  0  0  0  0  0  0  0  0  0  0
  -29.9070   15.5820   -9.8790 C   0  0  0  0  0  0  0  0  0  0  0  0
  -30.0060   14.3810   -8.9850 C   0  0  0  0  0  0  0  0  0  0  0  0
  -28.5050   16.0690  -10.1180 C   0  0  0  0  0  0  0  0  0  0  0  0
  -30.4101    2.7503    4.1784 H   0  0  0  0  0  0  0  0  0  0  0  0
  -31.0883    1.4373    3.1572 H   0  0  0  0  0  0  0  0  0  0  0  0
  -29.3199    1.7525    3.1572 H   0  0  0  0  0  0  0  0  0  0  0  0
  -26.5233    1.5924    1.6396 H   0  0  0  0  0  0  0  0  0  0  0  0
  -26.4678    0.5153    0.3489 H   0  0  0  0  0  0  0  0  0  0  0  0
  -27.3093    2.9666    0.7874 H   0  0  0  0  0  0  0  0  0  0  0  0
  -26.9884    3.9148   -0.4071 H   0  0  0  0  0  0  0  0  0  0  0  0
  -31.1975    1.5050    1.1177 H   0  0  0  0  0  0  0  0  0  0  0  0
  -29.4281    3.5492   -0.2763 H   0  0  0  0  0  0  0  0  0  0  0  0
  -29.3184    1.9072   -2.0859 H   0  0  0  0  0  0  0  0  0  0  0  0
  -30.6849    0.3328   -0.3201 H   0  0  0  0  0  0  0  0  0  0  0  0
  -31.8141    2.2370   -2.8259 H   0  0  0  0  0  0  0  0  0  0  0  0
  -31.9129    5.1784    1.4457 H   0  0  0  0  0  0  0  0  0  0  0  0
  -31.0115    5.1546   -0.1079 H   0  0  0  0  0  0  0  0  0  0  0  0
  -32.7957    5.3622   -0.1079 H   0  0  0  0  0  0  0  0  0  0  0  0
  -33.2260    2.9906    2.1242 H   0  0  0  0  0  0  0  0  0  0  0  0
  -34.2143    3.6096    0.7579 H   0  0  0  0  0  0  0  0  0  0  0  0
  -33.6499    1.9043    0.7579 H   0  0  0  0  0  0  0  0  0  0  0  0
  -31.5596    5.4317   -2.3568 H   0  0  0  0  0  0  0  0  0  0  0  0
  -30.7041    6.4453   -2.8166 H   0  0  0  0  0  0  0  0  0  0  0  0
  -28.8521    5.9115   -2.4476 H   0  0  0  0  0  0  0  0  0  0  0  0
  -28.6079    5.0162   -3.9857 H   0  0  0  0  0  0  0  0  0  0  0  0
  -28.6295    6.8124   -3.9857 H   0  0  0  0  0  0  0  0  0  0  0  0
  -30.9834    6.2798   -5.4342 H   0  0  0  0  0  0  0  0  0  0  0  0
  -32.3540    6.2272   -5.7073 H   0  0  0  0  0  0  0  0  0  0  0  0
  -34.0868    6.2463   -3.6445 H   0  0  0  0  0  0  0  0  0  0  0  0
  -33.6473    5.2420   -5.1784 H   0  0  0  0  0  0  0  0  0  0  0  0
  -32.9117    3.8373   -4.0371 H   0  0  0  0  0  0  0  0  0  0  0  0
  -33.1753    4.9192   -2.5271 H   0  0  0  0  0  0  0  0  0  0  0  0
  -31.0459    9.4673   -5.0817 H   0  0  0  0  0  0  0  0  0  0  0  0
  -29.5476   10.0209   -5.5496 H   0  0  0  0  0  0  0  0  0  0  0  0
  -32.0835    8.0803   -7.1210 H   0  0  0  0  0  0  0  0  0  0  0  0
  -33.2687    8.5070   -4.8572 H   0  0  0  0  0  0  0  0  0  0  0  0
  -34.8642    7.7713   -5.0019 H   0  0  0  0  0  0  0  0  0  0  0  0
  -33.4699   10.1795   -7.0193 H   0  0  0  0  0  0  0  0  0  0  0  0
  -31.7237    9.3743   -8.8162 H   0  0  0  0  0  0  0  0  0  0  0  0
  -32.8705    7.5845   -8.2334 H   0  0  0  0  0  0  0  0  0  0  0  0
  -34.0306   10.1412   -9.8050 H   0  0  0  0  0  0  0  0  0  0  0  0
  -34.4511   11.5324   -8.7050 H   0  0  0  0  0  0  0  0  0  0  0  0
  -32.6572   12.1265   -8.6147 H   0  0  0  0  0  0  0  0  0  0  0  0
  -32.6956   13.1069   -9.9960 H   0  0  0  0  0  0  0  0  0  0  0  0
  -34.4872   12.1040  -11.6036 H   0  0  0  0  0  0  0  0  0  0  0  0
  -33.9627   14.3047  -11.9644 H   0  0  0  0  0  0  0  0  0  0  0  0
  -33.6791   10.8598  -12.6184 H   0  0  0  0  0  0  0  0  0  0  0  0
  -31.9551   11.5167  -12.2460 H   0  0  0  0  0  0  0  0  0  0  0  0
  -31.6638   10.0182  -11.0319 H   0  0  0  0  0  0  0  0  0  0  0  0
  -33.4619    9.4972  -11.2413 H   0  0  0  0  0  0  0  0  0  0  0  0
  -33.3330   14.7635   -9.5694 H   0  0  0  0  0  0  0  0  0  0  0  0
  -34.9355   14.4245  -10.4525 H   0  0  0  0  0  0  0  0  0  0  0  0
  -35.1457   13.1477   -8.0949 H   0  0  0  0  0  0  0  0  0  0  0  0
  -34.3475   14.9091   -7.8540 H   0  0  0  0  0  0  0  0  0  0  0  0
  -36.6781   13.8424   -8.4187 H   0  0  0  0  0  0  0  0  0  0  0  0
  -36.0211   14.7829   -6.0433 H   0  0  0  0  0  0  0  0  0  0  0  0
  -37.4331   15.6722   -6.7081 H   0  0  0  0  0  0  0  0  0  0  0  0
  -37.4219   13.8760   -6.7081 H   0  0  0  0  0  0  0  0  0  0  0  0
  -37.7127   16.1295   -8.7633 H   0  0  0  0  0  0  0  0  0  0  0  0
  -36.2922   16.0850   -9.8618 H   0  0  0  0  0  0  0  0  0  0  0  0
  -37.4704   14.7290   -9.8618 H   0  0  0  0  0  0  0  0  0  0  0  0
  -48.6843   -7.3299  -21.2663 H   0  0  0  0  0  0  0  0  0  0  0  0
  -47.1363   -7.3243  -22.1776 H   0  0  0  0  0  0  0  0  0  0  0  0
  -48.1839   -5.8650  -22.1776 H   0  0  0  0  0  0  0  0  0  0  0  0
  -50.5570   -3.6905  -23.2802 H   0  0  0  0  0  0  0  0  0  0  0  0
  -49.8948   -2.6376  -24.4124 H   0  0  0  0  0  0  0  0  0  0  0  0
  -51.0221   -5.0202  -24.4255 H   0  0  0  0  0  0  0  0  0  0  0  0
  -52.0311   -4.9706  -25.6597 H   0  0  0  0  0  0  0  0  0  0  0  0
  -47.2172   -6.7106  -24.3774 H   0  0  0  0  0  0  0  0  0  0  0  0
  -49.9841   -6.7653  -25.6298 H   0  0  0  0  0  0  0  0  0  0  0  0
  -49.0531   -5.4493  -27.3783 H   0  0  0  0  0  0  0  0  0  0  0  0
  -46.7870   -5.3335  -25.9590 H   0  0  0  0  0  0  0  0  0  0  0  0
  -47.6394   -7.4698  -28.3954 H   0  0  0  0  0  0  0  0  0  0  0  0
  -49.3676   -9.7707  -24.0939 H   0  0  0  0  0  0  0  0  0  0  0  0
  -50.0240   -9.1473  -25.6455 H   0  0  0  0  0  0  0  0  0  0  0  0
  -48.8866  -10.5376  -25.6455 H   0  0  0  0  0  0  0  0  0  0  0  0
  -46.7380   -9.2640  -23.6214 H   0  0  0  0  0  0  0  0  0  0  0  0
  -46.6564  -10.3187  -25.0732 H   0  0  0  0  0  0  0  0  0  0  0  0
  -45.8278   -8.7249  -25.0732 H   0  0  0  0  0  0  0  0  0  0  0  0
  -50.0735   -9.5203  -27.7312 H   0  0  0  0  0  0  0  0  0  0  0  0
  -51.3997   -9.6862  -28.1541 H   0  0  0  0  0  0  0  0  0  0  0  0
  -52.2859   -8.0338  -27.5680 H   0  0  0  0  0  0  0  0  0  0  0  0
  -51.9539   -7.1042  -29.0687 H   0  0  0  0  0  0  0  0  0  0  0  0
  -53.2055   -8.3927  -29.0687 H   0  0  0  0  0  0  0  0  0  0  0  0
  -51.2458   -9.6405  -30.7551 H   0  0  0  0  0  0  0  0  0  0  0  0
  -50.3143  -10.6207  -31.1134 H   0  0  0  0  0  0  0  0  0  0  0  0
  -49.0117  -11.9227  -29.1483 H   0  0  0  0  0  0  0  0  0  0  0  0
  -48.6792  -10.8836  -30.6840 H   0  0  0  0  0  0  0  0  0  0  0  0
  -48.0907   -9.4075  -29.5423 H   0  0  0  0  0  0  0  0  0  0  0  0
  -48.6174  -10.3707  -28.0179 H   0  0  0  0  0  0  0  0  0  0  0  0
  -53.5866  -11.8287  -30.2890 H   0  0  0  0  0  0  0  0  0  0  0  0
  -54.9899  -11.0770  -30.7333 H   0  0  0  0  0  0  0  0  0  0  0  0
  -51.9796  -11.7633  -32.4282 H   0  0  0  0  0  0  0  0  0  0  0  0
  -51.2910  -12.8611  -30.1851 H   0  0  0  0  0  0  0  0  0  0  0  0
  -49.7079  -13.5683  -30.5172 H   0  0  0  0  0  0  0  0  0  0  0  0
  -52.5709  -14.2329  -31.9225 H   0  0  0  0  0  0  0  0  0  0  0  0
  -53.6709  -12.9020  -33.8384 H   0  0  0  0  0  0  0  0  0  0  0  0
  -51.6560  -12.0087  -33.7585 H   0  0  0  0  0  0  0  0  0  0  0  0
  -52.3591  -15.1163  -34.4502 H   0  0  0  0  0  0  0  0  0  0  0  0
  -52.7962  -16.0875  -32.9874 H   0  0  0  0  0  0  0  0  0  0  0  0
  -54.5431  -15.3626  -32.9068 H   0  0  0  0  0  0  0  0  0  0  0  0
  -55.2833  -16.4966  -33.9228 H   0  0  0  0  0  0  0  0  0  0  0  0
  -53.4719  -17.4074  -35.5644 H   0  0  0  0  0  0  0  0  0  0  0  0
  -55.3287  -18.7089  -35.3083 H   0  0  0  0  0  0  0  0  0  0  0  0
  -53.3903  -16.2712  -36.9716 H   0  0  0  0  0  0  0  0  0  0  0  0
  -55.0903  -15.5421  -36.6246 H   0  0  0  0  0  0  0  0  0  0  0  0
  -54.2403  -13.9235  -35.9385 H   0  0  0  0  0  0  0  0  0  0  0  0
  -52.5523  -14.7469  -36.0870 H   0  0  0  0  0  0  0  0  0  0  0  0
  -55.6106  -18.5107  -33.5299 H   0  0  0  0  0  0  0  0  0  0  0  0
  -53.8205  -18.7925  -33.1868 H   0  0  0  0  0  0  0  0  0  0  0  0
  -54.2313  -18.4802  -31.1585 H   0  0  0  0  0  0  0  0  0  0  0  0
  -54.6684  -16.6744  -31.7503 H   0  0  0  0  0  0  0  0  0  0  0  0
  -56.1218  -16.6584  -31.2627 H   0  0  0  0  0  0  0  0  0  0  0  0
  -58.0701  -18.1844  -30.7789 H   0  0  0  0  0  0  0  0  0  0  0  0
  -57.6728  -17.1750  -32.2106 H   0  0  0  0  0  0  0  0  0  0  0  0
  -57.2801  -18.9279  -32.2106 H   0  0  0  0  0  0  0  0  0  0  0  0
  -55.9611  -18.2678  -28.9407 H   0  0  0  0  0  0  0  0  0  0  0  0
  -55.1636  -16.7040  -29.3214 H   0  0  0  0  0  0  0  0  0  0  0  0
  -56.9560  -16.8215  -29.3214 H   0  0  0  0  0  0  0  0  0  0  0  0
  -22.4229   18.7104  -27.9869 H   0  0  0  0  0  0  0  0  0  0  0  0
  -23.2047   17.4129  -28.9523 H   0  0  0  0  0  0  0  0  0  0  0  0
  -23.8940   19.0717  -28.9523 H   0  0  0  0  0  0  0  0  0  0  0  0
  -20.1375   14.6924  -25.4868 H   0  0  0  0  0  0  0  0  0  0  0  0
  -21.1575   14.2222  -26.7388 H   0  0  0  0  0  0  0  0  0  0  0  0
  -22.5793   15.1871  -26.2905 H   0  0  0  0  0  0  0  0  0  0  0  0
  -22.3512   15.0615  -23.7621 H   0  0  0  0  0  0  0  0  0  0  0  0
  -22.9518   19.2290  -26.1651 H   0  0  0  0  0  0  0  0  0  0  0  0
  -24.0327   16.6823  -24.8990 H   0  0  0  0  0  0  0  0  0  0  0  0
  -22.5952   17.0506  -23.0899 H   0  0  0  0  0  0  0  0  0  0  0  0
  -21.4742   18.9715  -22.7112 H   0  0  0  0  0  0  0  0  0  0  0  0
  -23.7425   19.2711  -22.1867 H   0  0  0  0  0  0  0  0  0  0  0  0
  -26.6979   18.3647  -24.4316 H   0  0  0  0  0  0  0  0  0  0  0  0
  -26.9917   19.2236  -25.9817 H   0  0  0  0  0  0  0  0  0  0  0  0
  -26.1700   17.6263  -25.9817 H   0  0  0  0  0  0  0  0  0  0  0  0
  -25.0266   21.3955  -25.0047 H   0  0  0  0  0  0  0  0  0  0  0  0
  -24.1077   20.8783  -26.4590 H   0  0  0  0  0  0  0  0  0  0  0  0
  -25.9026   20.8087  -26.4590 H   0  0  0  0  0  0  0  0  0  0  0  0
  -26.6125   17.7373  -22.8289 H   0  0  0  0  0  0  0  0  0  0  0  0
  -27.3969   16.6998  -22.2592 H   0  0  0  0  0  0  0  0  0  0  0  0
  -25.9947   14.6722  -21.0020 H   0  0  0  0  0  0  0  0  0  0  0  0
  -27.0000   14.8233  -22.4829 H   0  0  0  0  0  0  0  0  0  0  0  0
  -25.3056   15.4197  -22.4829 H   0  0  0  0  0  0  0  0  0  0  0  0
  -27.0895   16.8624  -19.6938 H   0  0  0  0  0  0  0  0  0  0  0  0
  -27.6165   18.1138  -19.3530 H   0  0  0  0  0  0  0  0  0  0  0  0
  -28.4858   19.6919  -21.3623 H   0  0  0  0  0  0  0  0  0  0  0  0
  -27.3193   19.7177  -19.8786 H   0  0  0  0  0  0  0  0  0  0  0  0
  -25.7864   19.6561  -21.0852 H   0  0  0  0  0  0  0  0  0  0  0  0
  -26.9439   19.4591  -22.5485 H   0  0  0  0  0  0  0  0  0  0  0  0
  -30.0059   15.5932  -19.8087 H   0  0  0  0  0  0  0  0  0  0  0  0
  -29.5939   14.5162  -17.6462 H   0  0  0  0  0  0  0  0  0  0  0  0
  -29.0351   17.0749  -17.8281 H   0  0  0  0  0  0  0  0  0  0  0  0
  -30.1240   17.9724  -20.0002 H   0  0  0  0  0  0  0  0  0  0  0  0
  -29.9432   19.4548  -17.9916 H   0  0  0  0  0  0  0  0  0  0  0  0
  -31.4874   17.4776  -17.6466 H   0  0  0  0  0  0  0  0  0  0  0  0
  -29.8931   16.0595  -16.1183 H   0  0  0  0  0  0  0  0  0  0  0  0
  -28.9467   17.5504  -15.0109 H   0  0  0  0  0  0  0  0  0  0  0  0
  -30.9038   15.8518  -15.0031 H   0  0  0  0  0  0  0  0  0  0  0  0
  -29.9454   16.4274  -13.6089 H   0  0  0  0  0  0  0  0  0  0  0  0
  -30.5298   18.2157  -13.8123 H   0  0  0  0  0  0  0  0  0  0  0  0
  -31.8831   18.1059  -12.8031 H   0  0  0  0  0  0  0  0  0  0  0  0
  -32.6926   15.6270  -12.7915 H   0  0  0  0  0  0  0  0  0  0  0  0
  -33.3122   16.6515  -11.0229 H   0  0  0  0  0  0  0  0  0  0  0  0
  -33.7921   15.4056  -14.2184 H   0  0  0  0  0  0  0  0  0  0  0  0
  -34.1259   17.2497  -14.3889 H   0  0  0  0  0  0  0  0  0  0  0  0
  -32.9740   17.2923  -15.9676 H   0  0  0  0  0  0  0  0  0  0  0  0
  -32.4667   15.5074  -15.6510 H   0  0  0  0  0  0  0  0  0  0  0  0
  -30.0394   17.7550  -11.4331 H   0  0  0  0  0  0  0  0  0  0  0  0
  -31.7398   18.0744  -10.8399 H   0  0  0  0  0  0  0  0  0  0  0  0
  -31.6032   16.4313   -9.5333 H   0  0  0  0  0  0  0  0  0  0  0  0
  -31.2477   15.3782  -11.1348 H   0  0  0  0  0  0  0  0  0  0  0  0
  -29.9815   16.2413   -9.0016 H   0  0  0  0  0  0  0  0  0  0  0  0
  -29.9794   14.7033   -7.9336 H   0  0  0  0  0  0  0  0  0  0  0  0
  -30.9507   13.8534   -9.1830 H   0  0  0  0  0  0  0  0  0  0  0  0
  -29.1605   13.7058   -9.1830 H   0  0  0  0  0  0  0  0  0  0  0  0
  -28.0073   16.2419   -9.1524 H   0  0  0  0  0  0  0  0  0  0  0  0
  -27.9462   15.3123  -10.6882 H   0  0  0  0  0  0  0  0  0  0  0  0
  -28.5356   17.0092  -10.6882 H   0  0  0  0  0  0  0  0  0  0  0  0
  1  2  1  0
  3  4  1  0
  4  5  1  0
  4  6  1  0
  2  7  1  0
  6  8  1  0
  7  8  1  0
  8  9  1  0
  9 10  1  0
  9 11  1  0
 11 12  1  0
  7 13  1  0
 12 13  1  0
 13 14  1  6
 13 15  1  0
 11 16  1  0
 16 17  1  0
 17 18  1  0
 18 19  1  0
 18 20  1  0
 20 21  1  0
 21 22  1  0
 17 23  1  0
 22 23  1  0
 20 24  1  0
 24 25  1  0
 25 26  1  0
 25 27  1  0
 21 28  1  0
 27 28  1  0
 28 29  1  0
 27 30  1  0
 30 31  1  0
 31 32  1  0
 31 33  1  0
 33 34  1  0
 34 35  1  0
 35 36  1  0
 36 37  1  0
 36 38  1  0
 33 39  1  0
 38 39  1  0
 35 40  1  0
 40 41  1  0
 41 42  1  0
 42 43  1  0
 42 44  1  0
 45 46  1  0
 47 48  1  0
 48 49  1  0
 48 50  1  0
 46 51  1  0
 50 52  1  0
 51 52  1  0
 52 53  1  0
 53 54  1  0
 53 55  1  0
 55 56  1  0
 51 57  1  0
 56 57  1  0
 57 58  1  6
 57 59  1  0
 55 60  1  0
 60 61  1  0
 61 62  1  0
 62 63  1  0
 62 64  1  0
 64 65  1  0
 65 66  1  0
 61 67  1  0
 66 67  1  0
 64 68  1  0
 68 69  1  0
 69 70  1  0
 69 71  1  0
 65 72  1  0
 71 72  1  0
 72 73  1  0
 71 74  1  0
 74 75  1  0
 75 76  1  0
 75 77  1  0
 77 78  1  0
 78 79  1  0
 79 80  1  0
 80 81  1  0
 80 82  1  0
 77 83  1  0
 82 83  1  0
 79 84  1  0
 84 85  1  0
 85 86  1  0
 86 87  1  0
 86 88  1  0
 89 90  1  0
 91 92  1  0
 92 93  1  0
 92 94  1  0
 90 95  1  0
 94 96  1  0
 95 96  1  0
 96 97  1  0
 97 98  1  0
 97 99  1  0
 99100  1  0
 95101  1  0
100101  1  0
101102  1  1
101103  1  0
 99104  1  0
104105  1  0
105106  1  0
106107  1  0
106108  1  0
108109  1  0
109110  1  0
105111  1  0
110111  1  0
108112  1  0
112113  1  0
113114  1  0
113115  1  0
109116  1  0
115116  1  0
116117  1  0
115118  1  0
118119  1  0
119120  1  0
119121  1  0
121122  1  0
122123  1  0
123124  1  0
124125  1  0
124126  1  0
121127  1  0
126127  1  0
123128  1  0
128129  1  0
129130  1  0
130131  1  0
130132  1  0
  1133  1  0
  1134  1  0
  1135  1  0
  3136  1  0
  3137  1  0
  4138  1  0
  5139  1  0
  7140  1  1
  8141  1  6
  9142  1  6
 10143  1  0
 11144  1  6
 14145  1  0
 14146  1  0
 14147  1  0
 15148  1  0
 15149  1  0
 15150  1  0
 17151  1  0
 18152  1  1
 19153  1  0
 19154  1  0
 19155  1  0
 20156  1  1
 21157  1  1
 22158  1  0
 22159  1  0
 23160  1  0
 23161  1  0
 25162  1  0
 26163  1  0
 27164  1  1
 28165  1  0
 29166  1  0
 30167  1  0
 31168  1  0
 32169  1  0
 33170  1  0
 34171  1  0
 34172  1  0
 35173  1  0
 36174  1  0
 37175  1  0
 38176  1  0
 38177  1  0
 39178  1  0
 39179  1  0
 40180  1  0
 40181  1  0
 41182  1  0
 41183  1  0
 42184  1  0
 43185  1  0
 43186  1  0
 43187  1  0
 44188  1  0
 44189  1  0
 44190  1  0
 45191  1  0
 45192  1  0
 45193  1  0
 47194  1  0
 47195  1  0
 48196  1  0
 49197  1  0
 51198  1  1
 52199  1  6
 53200  1  6
 54201  1  0
 55202  1  6
 58203  1  0
 58204  1  0
 58205  1  0
 59206  1  0
 59207  1  0
 59208  1  0
 61209  1  0
 62210  1  0
 63211  1  0
 63212  1  0
 63213  1  0
 64214  1  1
 65215  1  1
 66216  1  0
 66217  1  0
 67218  1  0
 67219  1  0
 69220  1  0
 70221  1  0
 71222  1  6
 72223  1  0
 73224  1  0
 74225  1  0
 75226  1  0
 76227  1  0
 77228  1  0
 78229  1  0
 78230  1  0
 79231  1  0
 80232  1  0
 81233  1  0
 82234  1  0
 82235  1  0
 83236  1  0
 83237  1  0
 84238  1  0
 84239  1  0
 85240  1  0
 85241  1  0
 86242  1  0
 87243  1  0
 87244  1  0
 87245  1  0
 88246  1  0
 88247  1  0
 88248  1  0
 89249  1  0
 89250  1  0
 89251  1  0
 91252  1  0
 91253  1  0
 92254  1  0
 93255  1  0
 95256  1  6
 96257  1  1
 97258  1  1
 98259  1  0
 99260  1  1
102261  1  0
102262  1  0
102263  1  0
103264  1  0
103265  1  0
103266  1  0
105267  1  6
106268  1  0
107269  1  0
107270  1  0
107271  1  0
108272  1  6
109273  1  6
110274  1  0
110275  1  0
111276  1  0
111277  1  0
113278  1  0
114279  1  0
115280  1  6
116281  1  0
117282  1  0
118283  1  0
119284  1  0
120285  1  0
121286  1  0
122287  1  0
122288  1  0
123289  1  0
124290  1  0
125291  1  0
126292  1  0
126293  1  0
127294  1  0
127295  1  0
128296  1  0
128297  1  0
129298  1  0
129299  1  0
130300  1  0
131301  1  0
131302  1  0
131303  1  0
132304  1  0
132305  1  0
132306  1  0
M  END
>  <PDBID>  (1) 
4URN

>  <PDB ID>  (1) 
4URN

>  <Generic Name>  (1) 
Novobiocin

>  <Brand Name>  (1) 
Albamycin

>  <DrugBank ID>  (1) 
DB01051

>  <ATC Codes>  (1) 
nan

>  <Ligand ID>  (1) 
NOV

>  <Target Name>  (1) 
DNA gyrase subunit B

>  <UniProt ID>  (1) 
P0A0K8

>  <PDB ID.1>  (1) 
4URN

>  <Seq. Identity>  (1) 
50%

$$$$
