PDB_DB00390_99
     RDKit          3D

119126  0  0  0  0  0  0  0  0999 V2000
  -27.8190  -18.9890   72.8590 C   0  0  0  0  0  0  0  0  0  0  0  0
  -29.2820  -18.7080   73.1780 C   0  0  0  0  0  0  0  0  0  0  0  0
  -29.8840  -19.5960   74.2750 C   0  0  2  0  0  0  0  0  0  0  0  0
  -29.4650  -19.1240   75.5640 O   0  0  0  0  0  0  0  0  0  0  0  0
  -29.5410  -21.0540   73.8740 C   0  0  0  0  0  0  0  0  0  0  0  0
  -28.0820  -21.3550   73.5450 C   0  0  1  0  0  0  0  0  0  0  0  0
  -27.8810  -22.8240   73.1390 C   0  0  0  0  0  0  0  0  0  0  0  0
  -28.2790  -23.1690   71.6990 C   0  0  0  0  0  0  0  0  0  0  0  0
  -27.5460  -22.2770   70.6920 C   0  0  2  0  0  0  0  0  0  0  0  0
  -27.8780  -20.8130   71.0170 C   0  0  1  0  0  0  0  0  0  0  0  0
  -27.4640  -20.4470   72.4830 C   0  0  1  0  0  0  0  0  0  0  0  0
  -27.1580  -19.8760   70.0500 C   0  0  0  0  0  0  0  0  0  0  0  0
  -27.3980  -20.1600   68.5710 C   0  0  1  0  0  0  0  0  0  0  0  0
  -26.4730  -19.3950   67.8270 O   0  0  0  0  0  0  0  0  0  0  0  0
  -27.1260  -21.6460   68.1810 C   0  0  1  0  0  0  0  0  0  0  0  0
  -27.8030  -22.6180   69.2140 C   0  0  1  0  0  0  0  0  0  0  0  0
  -27.2410  -23.8670   68.9600 O   0  0  0  0  0  0  0  0  0  0  0  0
  -29.2800  -22.6370   68.7810 C   0  0  0  0  0  0  0  0  0  0  0  0
  -29.3150  -22.1140   67.3340 C   0  0  0  0  0  0  0  0  0  0  0  0
  -27.8820  -21.8690   66.8360 C   0  0  2  0  0  0  0  0  0  0  0  0
  -25.6550  -21.9000   67.9740 C   0  0  0  0  0  0  0  0  0  0  0  0
  -25.9320  -20.5970   72.5930 C   0  0  0  0  0  0  0  0  0  0  0  0
  -29.9490  -17.8190   75.8880 C   0  0  1  0  0  0  0  0  0  0  0  0
  -29.2630  -13.4620   79.0150 C   0  0  2  0  0  0  0  0  0  0  0  0
  -29.0680  -11.4200   84.0440 C   0  0  2  0  0  0  0  0  0  0  0  0
  -27.2490  -22.8210   65.8530 C   0  0  0  0  0  0  0  0  0  0  0  0
  -27.4630  -24.3300   65.8580 C   0  0  0  0  0  0  0  0  0  0  0  0
  -26.7780  -24.8340   64.7220 O   0  0  0  0  0  0  0  0  0  0  0  0
  -26.7780  -22.5280   64.6190 C   0  0  0  0  0  0  0  0  0  0  0  0
  -26.5680  -23.7860   63.8540 C   0  0  0  0  0  0  0  0  0  0  0  0
  -26.2800  -24.0160   62.7120 O   0  0  0  0  0  0  0  0  0  0  0  0
  -30.2700  -17.8210   77.3920 C   0  0  0  0  0  0  0  0  0  0  0  0
  -30.0770  -12.2870   79.5280 C   0  0  0  0  0  0  0  0  0  0  0  0
  -28.5570  -12.4630   85.0800 C   0  0  0  0  0  0  0  0  0  0  0  0
  -30.6810  -16.4180   77.8870 C   0  0  2  0  0  0  0  0  0  0  0  0
  -31.8500  -16.0570   77.2090 O   0  0  0  0  0  0  0  0  0  0  0  0
  -29.2910  -11.5070   80.5660 C   0  0  2  0  0  0  0  0  0  0  0  0
  -28.0650  -11.1270   79.9920 O   0  0  0  0  0  0  0  0  0  0  0  0
  -29.0990  -12.1820   86.4930 C   0  0  2  0  0  0  0  0  0  0  0  0
  -30.4880  -12.3330   86.4490 O   0  0  0  0  0  0  0  0  0  0  0  0
  -29.5900  -15.3630   77.5740 C   0  0  2  0  0  0  0  0  0  0  0  0
  -30.0870  -14.0940   78.0190 O   0  0  0  0  0  0  0  0  0  0  0  0
  -29.0220  -12.4260   81.7980 C   0  0  2  0  0  0  0  0  0  0  0  0
  -28.3720  -11.6500   82.8170 O   0  0  0  0  0  0  0  0  0  0  0  0
  -28.7380  -10.7280   86.8900 C   0  0  2  0  0  0  0  0  0  0  0  0
  -29.4120  -10.4190   88.0830 O   0  0  0  0  0  0  0  0  0  0  0  0
  -29.2500  -15.5320   76.0250 C   0  0  2  0  0  0  0  0  0  0  0  0
  -28.8970  -16.8800   75.7100 O   0  0  0  0  0  0  0  0  0  0  0  0
  -28.2580  -13.6850   81.2270 C   0  0  2  0  0  0  0  0  0  0  0  0
  -29.0440  -14.3040   80.1610 O   0  0  0  0  0  0  0  0  0  0  0  0
  -29.2370   -9.7490   85.7720 C   0  0  2  0  0  0  0  0  0  0  0  0
  -28.7250  -10.1050   84.4920 O   0  0  0  0  0  0  0  0  0  0  0  0
  -28.0380  -14.6680   75.6720 C   0  0  0  0  0  0  0  0  0  0  0  0
  -28.0900  -14.7000   82.3610 C   0  0  0  0  0  0  0  0  0  0  0  0
  -28.7440   -8.3400   86.1410 C   0  0  0  0  0  0  0  0  0  0  0  0
  -27.5314  -18.3461   72.0140 H   0  0  0  0  0  0  0  0  0  0  0  0
  -27.2728  -18.7870   73.7922 H   0  0  0  0  0  0  0  0  0  0  0  0
  -29.3664  -17.6600   73.5015 H   0  0  0  0  0  0  0  0  0  0  0  0
  -29.8464  -18.9257   72.2593 H   0  0  0  0  0  0  0  0  0  0  0  0
  -30.9795  -19.5564   74.3663 H   0  0  0  0  0  0  0  0  0  0  0  0
  -29.8344  -21.7062   74.7098 H   0  0  0  0  0  0  0  0  0  0  0  0
  -30.0882  -21.2294   72.9360 H   0  0  0  0  0  0  0  0  0  0  0  0
  -27.5497  -21.1477   74.4850 H   0  0  0  0  0  0  0  0  0  0  0  0
  -26.8157  -23.0680   73.2643 H   0  0  0  0  0  0  0  0  0  0  0  0
  -28.5484  -23.4114   73.7868 H   0  0  0  0  0  0  0  0  0  0  0  0
  -28.0246  -24.2203   71.4986 H   0  0  0  0  0  0  0  0  0  0  0  0
  -29.3608  -23.0033   71.5877 H   0  0  0  0  0  0  0  0  0  0  0  0
  -26.4681  -22.4637   70.8068 H   0  0  0  0  0  0  0  0  0  0  0  0
  -28.9664  -20.6919   70.9131 H   0  0  0  0  0  0  0  0  0  0  0  0
  -27.4931  -18.8492   70.2581 H   0  0  0  0  0  0  0  0  0  0  0  0
  -26.0821  -20.0300   70.2198 H   0  0  0  0  0  0  0  0  0  0  0  0
  -28.4516  -19.9203   68.3649 H   0  0  0  0  0  0  0  0  0  0  0  0
  -25.8779  -18.9029   68.4465 H   0  0  0  0  0  0  0  0  0  0  0  0
  -27.0380  -24.3181   69.8176 H   0  0  0  0  0  0  0  0  0  0  0  0
  -29.6762  -23.6623   68.8247 H   0  0  0  0  0  0  0  0  0  0  0  0
  -29.8984  -22.0151   69.4450 H   0  0  0  0  0  0  0  0  0  0  0  0
  -29.8042  -22.8581   66.6882 H   0  0  0  0  0  0  0  0  0  0  0  0
  -29.8778  -21.1694   67.3020 H   0  0  0  0  0  0  0  0  0  0  0  0
  -27.8457  -21.0212   66.1360 H   0  0  0  0  0  0  0  0  0  0  0  0
  -25.1567  -21.9860   68.9509 H   0  0  0  0  0  0  0  0  0  0  0  0
  -25.5201  -22.8347   67.4100 H   0  0  0  0  0  0  0  0  0  0  0  0
  -25.2145  -21.0646   67.4100 H   0  0  0  0  0  0  0  0  0  0  0  0
  -25.6416  -20.6254   73.6536 H   0  0  0  0  0  0  0  0  0  0  0  0
  -25.6187  -21.5301   72.1019 H   0  0  0  0  0  0  0  0  0  0  0  0
  -25.4437  -19.7424   72.1019 H   0  0  0  0  0  0  0  0  0  0  0  0
  -30.8179  -17.5655   75.2629 H   0  0  0  0  0  0  0  0  0  0  0  0
  -28.2916  -13.2074   78.5660 H   0  0  0  0  0  0  0  0  0  0  0  0
  -30.1572  -11.5108   83.9198 H   0  0  0  0  0  0  0  0  0  0  0  0
  -27.0502  -24.7700   66.7778 H   0  0  0  0  0  0  0  0  0  0  0  0
  -28.5332  -24.5818   65.8233 H   0  0  0  0  0  0  0  0  0  0  0  0
  -26.5806  -21.5145   64.2396 H   0  0  0  0  0  0  0  0  0  0  0  0
  -31.0966  -18.5221   77.5797 H   0  0  0  0  0  0  0  0  0  0  0  0
  -29.3645  -18.1265   77.9367 H   0  0  0  0  0  0  0  0  0  0  0  0
  -30.3235  -11.6228   78.6865 H   0  0  0  0  0  0  0  0  0  0  0  0
  -30.9979  -12.6688   79.9929 H   0  0  0  0  0  0  0  0  0  0  0  0
  -28.8842  -13.4653   84.7665 H   0  0  0  0  0  0  0  0  0  0  0  0
  -27.4596  -12.3974   85.1167 H   0  0  0  0  0  0  0  0  0  0  0  0
  -30.8266  -16.4504   78.9768 H   0  0  0  0  0  0  0  0  0  0  0  0
  -32.5581  -15.8383   77.8655 H   0  0  0  0  0  0  0  0  0  0  0  0
  -29.8530  -10.6183   80.8890 H   0  0  0  0  0  0  0  0  0  0  0  0
  -27.4133  -10.9250   80.7093 H   0  0  0  0  0  0  0  0  0  0  0  0
  -28.6639  -12.8716   87.2313 H   0  0  0  0  0  0  0  0  0  0  0  0
  -30.8451  -12.3718   87.3715 H   0  0  0  0  0  0  0  0  0  0  0  0
  -28.6304  -15.4757   78.0998 H   0  0  0  0  0  0  0  0  0  0  0  0
  -29.9132  -12.8135   82.3133 H   0  0  0  0  0  0  0  0  0  0  0  0
  -27.6498  -10.6292   87.0167 H   0  0  0  0  0  0  0  0  0  0  0  0
  -28.8497  -10.6768   88.8560 H   0  0  0  0  0  0  0  0  0  0  0  0
  -30.1466  -15.2360   75.4607 H   0  0  0  0  0  0  0  0  0  0  0  0
  -27.2812  -13.3751   80.8273 H   0  0  0  0  0  0  0  0  0  0  0  0
  -30.3344   -9.7949   85.7125 H   0  0  0  0  0  0  0  0  0  0  0  0
  -27.5526  -14.3220   76.5965 H   0  0  0  0  0  0  0  0  0  0  0  0
  -27.3236  -15.2617   75.0828 H   0  0  0  0  0  0  0  0  0  0  0  0
  -28.3663  -13.7990   75.0828 H   0  0  0  0  0  0  0  0  0  0  0  0
  -28.1752  -14.1853   83.3294 H   0  0  0  0  0  0  0  0  0  0  0  0
  -28.8731  -15.4686   82.2841 H   0  0  0  0  0  0  0  0  0  0  0  0
  -27.1010  -15.1753   82.2841 H   0  0  0  0  0  0  0  0  0  0  0  0
  -28.7086   -8.2389   87.2358 H   0  0  0  0  0  0  0  0  0  0  0  0
  -27.7376   -8.1832   85.7256 H   0  0  0  0  0  0  0  0  0  0  0  0
  -29.4331   -7.5899   85.7256 H   0  0  0  0  0  0  0  0  0  0  0  0
  1  2  1  0
  2  3  1  0
  3  4  1  0
  3  5  1  0
  5  6  1  0
  6  7  1  0
  7  8  1  0
  8  9  1  0
  9 10  1  0
  1 11  1  0
  6 11  1  0
 10 11  1  0
 10 12  1  0
 12 13  1  0
 13 14  1  0
 13 15  1  0
  9 16  1  0
 15 16  1  0
 16 17  1  6
 16 18  1  0
 18 19  1  0
 15 20  1  0
 19 20  1  0
 15 21  1  6
 11 22  1  6
  4 23  1  0
 20 26  1  0
 26 27  1  0
 27 28  1  0
 26 29  2  0
 28 30  1  0
 29 30  1  0
 30 31  2  0
 23 32  1  0
 24 33  1  0
 25 34  1  0
 32 35  1  0
 35 36  1  0
 33 37  1  0
 37 38  1  0
 34 39  1  0
 39 40  1  0
 35 41  1  0
 24 42  1  0
 41 42  1  0
 37 43  1  0
 25 44  1  0
 43 44  1  0
 39 45  1  0
 45 46  1  0
 41 47  1  0
 23 48  1  0
 47 48  1  0
 43 49  1  0
 24 50  1  0
 49 50  1  0
 45 51  1  0
 25 52  1  0
 51 52  1  0
 47 53  1  0
 49 54  1  0
 51 55  1  0
  1 56  1  0
  1 57  1  0
  2 58  1  0
  2 59  1  0
  3 60  1  1
  5 61  1  0
  5 62  1  0
  6 63  1  1
  7 64  1  0
  7 65  1  0
  8 66  1  0
  8 67  1  0
  9 68  1  1
 10 69  1  1
 12 70  1  0
 12 71  1  0
 13 72  1  6
 14 73  1  0
 17 74  1  0
 18 75  1  0
 18 76  1  0
 19 77  1  0
 19 78  1  0
 20 79  1  6
 21 80  1  0
 21 81  1  0
 21 82  1  0
 22 83  1  0
 22 84  1  0
 22 85  1  0
 23 86  1  6
 24 87  1  6
 25 88  1  6
 27 89  1  0
 27 90  1  0
 29 91  1  0
 32 92  1  0
 32 93  1  0
 33 94  1  0
 33 95  1  0
 34 96  1  0
 34 97  1  0
 35 98  1  1
 36 99  1  0
 37100  1  1
 38101  1  0
 39102  1  1
 40103  1  0
 41104  1  1
 43105  1  1
 45106  1  1
 46107  1  0
 47108  1  6
 49109  1  6
 51110  1  6
 53111  1  0
 53112  1  0
 53113  1  0
 54114  1  0
 54115  1  0
 54116  1  0
 55117  1  0
 55118  1  0
 55119  1  0
M  END
$$$$
