PDB_DB02546_99
     RDKit          3D

 39 39  0  0  0  0  0  0  0  0999 V2000
   19.6360  -19.8860   -2.0940 O   0  0  0  0  0  0  0  0  0  0  0  0
   20.4930  -17.6630   -0.9360 O   0  0  0  0  0  0  0  0  0  0  0  0
   20.8830  -19.7820   -1.4560 N   0  0  0  0  0  0  0  0  0  0  0  0
   21.2570  -18.6200   -0.8860 C   0  0  0  0  0  0  0  0  0  0  0  0
   22.5970  -18.5460   -0.1950 C   0  0  0  0  0  0  0  0  0  0  0  0
   23.5580  -17.4830   -0.7890 C   0  0  0  0  0  0  0  0  0  0  0  0
   24.9330  -17.7010   -0.1330 C   0  0  0  0  0  0  0  0  0  0  0  0
   25.9720  -16.7150   -0.7010 C   0  0  0  0  0  0  0  0  0  0  0  0
   27.3250  -17.0050   -0.0240 C   0  0  0  0  0  0  0  0  0  0  0  0
   28.3040  -15.8280   -0.1830 C   0  0  0  0  0  0  0  0  0  0  0  0
   28.0100  -14.7020    0.7790 C   0  0  0  0  0  0  0  0  0  0  0  0
   27.4610  -13.7120    0.3330 O   0  0  0  0  0  0  0  0  0  0  0  0
   28.3770  -14.8320    2.0940 N   0  0  0  0  0  0  0  0  0  0  0  0
   28.2700  -13.8990    3.1580 C   0  0  0  0  0  0  0  0  0  0  0  0
   28.0050  -12.5340    2.9690 C   0  0  0  0  0  0  0  0  0  0  0  0
   28.0010  -11.6580    4.0550 C   0  0  0  0  0  0  0  0  0  0  0  0
   28.2660  -12.1300    5.3400 C   0  0  0  0  0  0  0  0  0  0  0  0
   28.5530  -13.4780    5.5370 C   0  0  0  0  0  0  0  0  0  0  0  0
   28.5810  -14.3460    4.4510 C   0  0  0  0  0  0  0  0  0  0  0  0
   18.9205  -19.9457   -1.4124 H   0  0  0  0  0  0  0  0  0  0  0  0
   21.5131  -20.5962   -1.4239 H   0  0  0  0  0  0  0  0  0  0  0  0
   22.4265  -18.3040    0.8644 H   0  0  0  0  0  0  0  0  0  0  0  0
   23.0805  -19.5241   -0.3348 H   0  0  0  0  0  0  0  0  0  0  0  0
   23.6351  -17.6108   -1.8788 H   0  0  0  0  0  0  0  0  0  0  0  0
   23.1870  -16.4661   -0.5932 H   0  0  0  0  0  0  0  0  0  0  0  0
   24.8437  -17.5454    0.9523 H   0  0  0  0  0  0  0  0  0  0  0  0
   25.2670  -18.7272   -0.3462 H   0  0  0  0  0  0  0  0  0  0  0  0
   26.0618  -16.8531   -1.7886 H   0  0  0  0  0  0  0  0  0  0  0  0
   25.6614  -15.6782   -0.5046 H   0  0  0  0  0  0  0  0  0  0  0  0
   27.1560  -17.1860    1.0478 H   0  0  0  0  0  0  0  0  0  0  0  0
   27.7684  -17.8880   -0.5074 H   0  0  0  0  0  0  0  0  0  0  0  0
   29.3261  -16.1913   -0.0002 H   0  0  0  0  0  0  0  0  0  0  0  0
   28.1932  -15.4347   -1.2043 H   0  0  0  0  0  0  0  0  0  0  0  0
   28.7913  -15.7406    2.3466 H   0  0  0  0  0  0  0  0  0  0  0  0
   27.7991  -12.1522    1.9582 H   0  0  0  0  0  0  0  0  0  0  0  0
   27.7879  -10.5905    3.8968 H   0  0  0  0  0  0  0  0  0  0  0  0
   28.2483  -11.4391    6.1958 H   0  0  0  0  0  0  0  0  0  0  0  0
   28.7572  -13.8557    6.5497 H   0  0  0  0  0  0  0  0  0  0  0  0
   28.8515  -15.4006    4.6083 H   0  0  0  0  0  0  0  0  0  0  0  0
  1  3  1  0
  3  4  1  0
  4  2  2  0
  4  5  1  0
  5  6  1  0
  6  7  1  0
  7  8  1  0
  8  9  1  0
  9 10  1  0
 10 11  1  0
 11 12  2  0
 11 13  1  0
 13 14  1  0
 14 15  2  0
 15 16  1  0
 16 17  2  0
 17 18  1  0
 14 19  1  0
 18 19  2  0
  1 20  1  0
  3 21  1  0
  5 22  1  0
  5 23  1  0
  6 24  1  0
  6 25  1  0
  7 26  1  0
  7 27  1  0
  8 28  1  0
  8 29  1  0
  9 30  1  0
  9 31  1  0
 10 32  1  0
 10 33  1  0
 13 34  1  0
 15 35  1  0
 16 36  1  0
 17 37  1  0
 18 38  1  0
 19 39  1  0
M  END
$$$$
