PDB_DB00877_93
     RDKit          3D

144147  0  0  0  0  0  0  0  0999 V2000
   25.7350   40.0020    1.5050 C   0  0  0  0  0  0  0  0  0  0  0  0
   25.6780   38.7060    0.8590 O   0  0  0  0  0  0  0  0  0  0  0  0
   24.8150   40.4040    2.2160 O   0  0  0  0  0  0  0  0  0  0  0  0
   26.9850   40.8170    1.2900 C   0  0  2  0  0  0  0  0  0  0  0  0
   26.6300   42.2020    0.7170 C   0  0  0  0  0  0  0  0  0  0  0  0
   26.2400   42.1030   -0.7680 C   0  0  0  0  0  0  0  0  0  0  0  0
   27.4040   41.4950   -1.5360 C   0  0  0  0  0  0  0  0  0  0  0  0
   27.6890   40.0850   -1.0230 C   0  0  0  0  0  0  0  0  0  0  0  0
   27.9820   40.1170    0.4270 N   0  0  0  0  0  0  0  0  0  0  0  0
   29.0430   39.5340    1.0200 C   0  0  0  0  0  0  0  0  0  0  0  0
   29.1940   39.5660    2.2250 O   0  0  0  0  0  0  0  0  0  0  0  0
   30.0560   38.8350    0.2050 C   0  0  0  0  0  0  0  0  0  0  0  0
   30.9880   39.4780   -0.2500 O   0  0  0  0  0  0  0  0  0  0  0  0
   29.9920   37.3520   -0.1150 C   0  0  1  0  0  0  0  0  0  0  0  0
   29.0920   37.2590   -1.2220 O   0  0  0  0  0  0  0  0  0  0  0  0
   31.2890   36.9120   -0.5140 O   0  0  0  0  0  0  0  0  0  0  0  0
   29.5300   36.4640    1.0530 C   0  0  1  0  0  0  0  0  0  0  0  0
   29.1190   35.0630    0.5680 C   0  0  0  0  0  0  0  0  0  0  0  0
   28.2100   35.0890   -0.6630 C   0  0  0  0  0  0  0  0  0  0  0  0
   28.7660   35.9730   -1.7780 C   0  0  1  0  0  0  0  0  0  0  0  0
   27.7260   36.2300   -2.8820 C   0  0  0  0  0  0  0  0  0  0  0  0
   27.3110   35.0210   -3.7250 C   0  0  2  0  0  0  0  0  0  0  0  0
   28.2560   34.8460   -4.7730 O   0  0  0  0  0  0  0  0  0  0  0  0
   25.9450   35.2560   -4.3140 C   0  0  0  0  0  0  0  0  0  0  0  0
   24.9290   34.4880   -3.8870 C   0  0  0  0  0  0  0  0  0  0  0  0
   23.5690   34.6430   -4.3940 C   0  0  0  0  0  0  0  0  0  0  0  0
   22.5530   33.9730   -3.8510 C   0  0  0  0  0  0  0  0  0  0  0  0
   21.2150   34.1620   -4.3940 C   0  0  0  0  0  0  0  0  0  0  0  0
   20.1820   33.5370   -3.8270 C   0  0  0  0  0  0  0  0  0  0  0  0
   18.7640   33.6870   -4.3290 C   0  0  2  0  0  0  0  0  0  0  0  0
   17.8740   34.3650   -3.2810 C   0  0  0  0  0  0  0  0  0  0  0  0
   18.4250   35.6630   -2.7030 C   0  0  2  0  0  0  0  0  0  0  0  0
   17.7550   35.9060   -1.3740 C   0  0  0  0  0  0  0  0  0  0  0  0
   16.6880   36.5230   -1.3640 O   0  0  0  0  0  0  0  0  0  0  0  0
   18.3530   35.3600   -0.0800 C   0  0  2  0  0  0  0  0  0  0  0  0
   17.3820   35.1970    0.9720 O   0  0  0  0  0  0  0  0  0  0  0  0
   19.4630   36.2400    0.4930 C   0  0  2  0  0  0  0  0  0  0  0  0
   18.9620   37.5720    0.5770 O   0  0  0  0  0  0  0  0  0  0  0  0
   20.7360   36.1470   -0.3260 C   0  0  0  0  0  0  0  0  0  0  0  0
   21.1520   37.2050   -1.0520 C   0  0  0  0  0  0  0  0  0  0  0  0
   22.4030   37.2530   -1.9190 C   0  0  2  0  0  0  0  0  0  0  0  0
   23.4820   37.9480   -1.1310 C   0  0  0  0  0  0  0  0  0  0  0  0
   23.6390   39.1690   -1.2270 O   0  0  0  0  0  0  0  0  0  0  0  0
   24.3370   37.1190   -0.1950 C   0  0  0  0  0  0  0  0  0  0  0  0
   24.5220   37.9060    1.0940 C   0  0  1  0  0  0  0  0  0  0  0  0
   24.6750   37.0700    2.3850 C   0  0  1  0  0  0  0  0  0  0  0  0
   23.3910   36.3870    2.8820 C   0  0  0  0  0  0  0  0  0  0  0  0
   22.2400   37.2920    3.3190 C   0  0  1  0  0  0  0  0  0  0  0  0
   21.1340   36.4450    3.9680 C   0  0  0  0  0  0  0  0  0  0  0  0
   19.9300   37.3000    4.3870 C   0  0  1  0  0  0  0  0  0  0  0  0
   18.9360   36.5360    5.0740 O   0  0  0  0  0  0  0  0  0  0  0  0
   20.3980   38.3450    5.3860 C   0  0  2  0  0  0  0  0  0  0  0  0
   19.3020   39.1660    5.8040 O   0  0  0  0  0  0  0  0  0  0  0  0
   21.5390   39.1950    4.8360 C   0  0  0  0  0  0  0  0  0  0  0  0
   22.7030   38.3590    4.2970 C   0  0  0  0  0  0  0  0  0  0  0  0
   30.5750   36.3600    2.1630 C   0  0  0  0  0  0  0  0  0  0  0  0
   25.7500   36.3430   -5.3540 C   0  0  0  0  0  0  0  0  0  0  0  0
   18.1940   32.3130   -4.6850 C   0  0  0  0  0  0  0  0  0  0  0  0
   18.2110   36.8490   -3.6550 C   0  0  0  0  0  0  0  0  0  0  0  0
   21.4850   34.8420   -0.3210 C   0  0  0  0  0  0  0  0  0  0  0  0
   22.1170   38.0310   -3.2040 C   0  0  0  0  0  0  0  0  0  0  0  0
   25.8220   36.0610    2.3010 C   0  0  0  0  0  0  0  0  0  0  0  0
   28.2460   33.5330   -5.3340 C   0  0  0  0  0  0  0  0  0  0  0  0
   16.2480   34.3750    0.6690 C   0  0  0  0  0  0  0  0  0  0  0  0
   17.9650   35.9040    4.2370 C   0  0  0  0  0  0  0  0  0  0  0  0
   27.4616   40.9512    2.2723 H   0  0  0  0  0  0  0  0  0  0  0  0
   25.7845   42.6193    1.2835 H   0  0  0  0  0  0  0  0  0  0  0  0
   27.5124   42.8530    0.8041 H   0  0  0  0  0  0  0  0  0  0  0  0
   25.3509   41.4644   -0.8759 H   0  0  0  0  0  0  0  0  0  0  0  0
   26.0103   43.1033   -1.1637 H   0  0  0  0  0  0  0  0  0  0  0  0
   27.1505   41.4492   -2.6054 H   0  0  0  0  0  0  0  0  0  0  0  0
   28.2978   42.1195   -1.3907 H   0  0  0  0  0  0  0  0  0  0  0  0
   26.8096   39.4489   -1.2018 H   0  0  0  0  0  0  0  0  0  0  0  0
   28.5614   39.6792   -1.5561 H   0  0  0  0  0  0  0  0  0  0  0  0
   31.8363   36.7263    0.2898 H   0  0  0  0  0  0  0  0  0  0  0  0
   28.6462   36.9588    1.4821 H   0  0  0  0  0  0  0  0  0  0  0  0
   30.0299   34.4996    0.3171 H   0  0  0  0  0  0  0  0  0  0  0  0
   28.5497   34.5912    1.3824 H   0  0  0  0  0  0  0  0  0  0  0  0
   28.1034   34.0631   -1.0453 H   0  0  0  0  0  0  0  0  0  0  0  0
   27.2401   35.5069   -0.3554 H   0  0  0  0  0  0  0  0  0  0  0  0
   29.6378   35.4559   -2.2054 H   0  0  0  0  0  0  0  0  0  0  0  0
   26.8205   36.6291   -2.4016 H   0  0  0  0  0  0  0  0  0  0  0  0
   28.2130   36.9216   -3.5852 H   0  0  0  0  0  0  0  0  0  0  0  0
   27.2797   34.1211   -3.0931 H   0  0  0  0  0  0  0  0  0  0  0  0
   25.1287   33.7159   -3.1294 H   0  0  0  0  0  0  0  0  0  0  0  0
   23.3798   35.3234   -5.2374 H   0  0  0  0  0  0  0  0  0  0  0  0
   22.7222   33.2886   -3.0067 H   0  0  0  0  0  0  0  0  0  0  0  0
   21.0575   34.8151   -5.2650 H   0  0  0  0  0  0  0  0  0  0  0  0
   20.3694   32.8867   -2.9598 H   0  0  0  0  0  0  0  0  0  0  0  0
   18.7814   34.3232   -5.2262 H   0  0  0  0  0  0  0  0  0  0  0  0
   16.9040   34.5863   -3.7502 H   0  0  0  0  0  0  0  0  0  0  0  0
   17.8045   33.6612   -2.4385 H   0  0  0  0  0  0  0  0  0  0  0  0
   19.5126   35.5691   -2.5674 H   0  0  0  0  0  0  0  0  0  0  0  0
   18.7567   34.3837   -0.3863 H   0  0  0  0  0  0  0  0  0  0  0  0
   19.7429   35.8912    1.4980 H   0  0  0  0  0  0  0  0  0  0  0  0
   18.8654   37.8289    1.5282 H   0  0  0  0  0  0  0  0  0  0  0  0
   20.5329   38.1134   -1.0145 H   0  0  0  0  0  0  0  0  0  0  0  0
   22.7196   36.2356   -2.1924 H   0  0  0  0  0  0  0  0  0  0  0  0
   23.8366   36.1633    0.0197 H   0  0  0  0  0  0  0  0  0  0  0  0
   25.3127   36.9064   -0.6563 H   0  0  0  0  0  0  0  0  0  0  0  0
   23.6077   38.4822    1.2990 H   0  0  0  0  0  0  0  0  0  0  0  0
   24.9228   37.8253    3.1454 H   0  0  0  0  0  0  0  0  0  0  0  0
   23.0188   35.7496    2.0664 H   0  0  0  0  0  0  0  0  0  0  0  0
   23.6912   35.8513    3.7946 H   0  0  0  0  0  0  0  0  0  0  0  0
   21.8515   37.7988    2.4233 H   0  0  0  0  0  0  0  0  0  0  0  0
   20.7974   35.6862    3.2463 H   0  0  0  0  0  0  0  0  0  0  0  0
   21.5499   35.9757    4.8717 H   0  0  0  0  0  0  0  0  0  0  0  0
   19.5076   37.7295    3.4667 H   0  0  0  0  0  0  0  0  0  0  0  0
   20.7912   37.8100    6.2630 H   0  0  0  0  0  0  0  0  0  0  0  0
   19.2675   39.1919    6.7931 H   0  0  0  0  0  0  0  0  0  0  0  0
   21.1484   39.8195    4.0190 H   0  0  0  0  0  0  0  0  0  0  0  0
   21.9273   39.8015    5.6675 H   0  0  0  0  0  0  0  0  0  0  0  0
   23.2084   37.8692    5.1424 H   0  0  0  0  0  0  0  0  0  0  0  0
   23.3842   39.0357    3.7603 H   0  0  0  0  0  0  0  0  0  0  0  0
   30.0761   36.4097    3.1421 H   0  0  0  0  0  0  0  0  0  0  0  0
   31.1116   35.4040    2.0730 H   0  0  0  0  0  0  0  0  0  0  0  0
   31.2895   37.1915    2.0730 H   0  0  0  0  0  0  0  0  0  0  0  0
   25.5773   37.3056   -4.8504 H   0  0  0  0  0  0  0  0  0  0  0  0
   26.6497   36.4144   -5.9829 H   0  0  0  0  0  0  0  0  0  0  0  0
   24.8816   36.0972   -5.9829 H   0  0  0  0  0  0  0  0  0  0  0  0
   17.9649   31.7607   -3.7617 H   0  0  0  0  0  0  0  0  0  0  0  0
   17.2740   32.4393   -5.2746 H   0  0  0  0  0  0  0  0  0  0  0  0
   18.9332   31.7509   -5.2746 H   0  0  0  0  0  0  0  0  0  0  0  0
   18.0458   37.7648   -3.0685 H   0  0  0  0  0  0  0  0  0  0  0  0
   19.1009   36.9753   -4.2892 H   0  0  0  0  0  0  0  0  0  0  0  0
   17.3331   36.6563   -4.2892 H   0  0  0  0  0  0  0  0  0  0  0  0
   21.6658   34.5270    0.7173 H   0  0  0  0  0  0  0  0  0  0  0  0
   20.8894   34.0754   -0.8383 H   0  0  0  0  0  0  0  0  0  0  0  0
   22.4473   34.9696   -0.8383 H   0  0  0  0  0  0  0  0  0  0  0  0
   21.7477   39.0355   -2.9499 H   0  0  0  0  0  0  0  0  0  0  0  0
   23.0418   38.1185   -3.7932 H   0  0  0  0  0  0  0  0  0  0  0  0
   21.3558   37.4987   -3.7932 H   0  0  0  0  0  0  0  0  0  0  0  0
   26.1396   35.7816    3.3164 H   0  0  0  0  0  0  0  0  0  0  0  0
   25.4823   35.1636    1.7631 H   0  0  0  0  0  0  0  0  0  0  0  0
   26.6687   36.5123    1.7631 H   0  0  0  0  0  0  0  0  0  0  0  0
   28.2403   32.7884   -4.5244 H   0  0  0  0  0  0  0  0  0  0  0  0
   27.3469   33.4064   -5.9549 H   0  0  0  0  0  0  0  0  0  0  0  0
   29.1431   33.3927   -5.9549 H   0  0  0  0  0  0  0  0  0  0  0  0
   15.7803   34.0360    1.6051 H   0  0  0  0  0  0  0  0  0  0  0  0
   15.5195   34.9562    0.0846 H   0  0  0  0  0  0  0  0  0  0  0  0
   16.5737   33.5018    0.0846 H   0  0  0  0  0  0  0  0  0  0  0  0
   17.2069   35.4106    4.8629 H   0  0  0  0  0  0  0  0  0  0  0  0
   17.4805   36.6603    3.6019 H   0  0  0  0  0  0  0  0  0  0  0  0
   18.4603   35.1548    3.6019 H   0  0  0  0  0  0  0  0  0  0  0  0
  1  2  1  0
  1  3  2  0
  1  4  1  0
  4  5  1  0
  5  6  1  0
  6  7  1  0
  7  8  1  0
  4  9  1  0
  8  9  1  0
  9 10  1  0
 10 11  2  0
 10 12  1  0
 12 13  2  0
 12 14  1  0
 14 15  1  0
 14 16  1  6
 14 17  1  0
 17 18  1  0
 18 19  1  0
 15 20  1  0
 19 20  1  0
 20 21  1  0
 21 22  1  0
 22 23  1  0
 22 24  1  0
 24 25  2  0
 25 26  1  0
 26 27  2  0
 27 28  1  0
 28 29  2  0
 29 30  1  0
 30 31  1  0
 31 32  1  0
 32 33  1  0
 33 34  2  0
 33 35  1  0
 35 36  1  0
 35 37  1  0
 37 38  1  0
 37 39  1  0
 39 40  2  0
 40 41  1  0
 41 42  1  0
 42 43  2  0
 42 44  1  0
  2 45  1  0
 44 45  1  0
 45 46  1  0
 46 47  1  0
 47 48  1  0
 48 49  1  0
 49 50  1  0
 50 51  1  0
 50 52  1  0
 52 53  1  0
 52 54  1  0
 48 55  1  0
 54 55  1  0
 17 56  1  0
 24 57  1  0
 30 58  1  0
 32 59  1  0
 39 60  1  0
 41 61  1  0
 46 62  1  0
 23 63  1  0
 36 64  1  0
 51 65  1  0
  4 66  1  1
  5 67  1  0
  5 68  1  0
  6 69  1  0
  6 70  1  0
  7 71  1  0
  7 72  1  0
  8 73  1  0
  8 74  1  0
 16 75  1  0
 17 76  1  1
 18 77  1  0
 18 78  1  0
 19 79  1  0
 19 80  1  0
 20 81  1  6
 21 82  1  0
 21 83  1  0
 22 84  1  1
 25 85  1  0
 26 86  1  0
 27 87  1  0
 28 88  1  0
 29 89  1  0
 30 90  1  6
 31 91  1  0
 31 92  1  0
 32 93  1  1
 35 94  1  6
 37 95  1  1
 38 96  1  0
 40 97  1  0
 41 98  1  6
 44 99  1  0
 44100  1  0
 45101  1  1
 46102  1  1
 47103  1  0
 47104  1  0
 48105  1  6
 49106  1  0
 49107  1  0
 50108  1  6
 52109  1  1
 53110  1  0
 54111  1  0
 54112  1  0
 55113  1  0
 55114  1  0
 56115  1  0
 56116  1  0
 56117  1  0
 57118  1  0
 57119  1  0
 57120  1  0
 58121  1  0
 58122  1  0
 58123  1  0
 59124  1  0
 59125  1  0
 59126  1  0
 60127  1  0
 60128  1  0
 60129  1  0
 61130  1  0
 61131  1  0
 61132  1  0
 62133  1  0
 62134  1  0
 62135  1  0
 63136  1  0
 63137  1  0
 63138  1  0
 64139  1  0
 64140  1  0
 64141  1  0
 65142  1  0
 65143  1  0
 65144  1  0
M  END
$$$$
