PDB_DB01016_99
     RDKit          3D

316324  0  0  0  0  0  0  0  0999 V2000
  190.5510  141.5990  124.0090 O   0  0  0  0  0  0  0  0  0  0  0  0
  191.1650  140.0580  126.1030 O   0  0  0  0  0  0  0  0  0  0  0  0
  188.9700  139.8990  127.6890 O   0  0  0  0  0  0  0  0  0  0  0  0
  192.8950  144.8190  129.9600 O   0  0  0  0  0  0  0  0  0  0  0  0
  193.0380  148.3040  135.2200 Cl  0  0  0  0  0  0  0  0  0  0  0  0
  189.7310  140.7660  126.5090 S   0  0  2  0  0  4  0  0  0  0  0  0
  193.7530  143.4250  131.9170 O   0  0  0  0  0  0  0  0  0  0  0  0
  188.6990  141.4410  122.6730 N   0  0  0  0  0  0  0  0  0  0  0  0
  188.7420  140.8410  125.1280 N   0  0  0  0  0  0  0  0  0  0  0  0
  192.2260  146.9930  130.0620 N   0  0  0  0  0  0  0  0  0  0  0  0
  189.4460  141.9270  121.5130 C   0  0  2  0  0  0  0  0  0  0  0  0
  190.1350  143.2320  121.9010 C   0  0  0  0  0  0  0  0  0  0  0  0
  188.4830  142.1360  120.3510 C   0  0  0  0  0  0  0  0  0  0  0  0
  190.8460  143.8760  120.7190 C   0  0  0  0  0  0  0  0  0  0  0  0
  189.2130  142.7490  119.1650 C   0  0  0  0  0  0  0  0  0  0  0  0
  189.8960  144.0640  119.5420 C   0  0  0  0  0  0  0  0  0  0  0  0
  189.4050  141.3130  123.9320 C   0  0  0  0  0  0  0  0  0  0  0  0
  189.9900  142.4730  127.0740 C   0  0  0  0  0  0  0  0  0  0  0  0
  190.3190  145.0770  127.9530 C   0  0  0  0  0  0  0  0  0  0  0  0
  190.4590  146.5130  128.4530 C   0  0  0  0  0  0  0  0  0  0  0  0
  191.1640  143.1560  126.7990 C   0  0  0  0  0  0  0  0  0  0  0  0
  188.9840  143.0950  127.7820 C   0  0  0  0  0  0  0  0  0  0  0  0
  191.3300  144.4610  127.2400 C   0  0  0  0  0  0  0  0  0  0  0  0
  189.1500  144.3950  128.2200 C   0  0  0  0  0  0  0  0  0  0  0  0
  191.9000  146.9600  128.6530 C   0  0  0  0  0  0  0  0  0  0  0  0
  192.7560  145.7760  130.6450 C   0  0  0  0  0  0  0  0  0  0  0  0
  193.1160  145.7300  132.1250 C   0  0  0  0  0  0  0  0  0  0  0  0
  193.5910  144.5710  132.6960 C   0  0  0  0  0  0  0  0  0  0  0  0
  192.9510  146.8610  132.8940 C   0  0  0  0  0  0  0  0  0  0  0  0
  193.9040  144.5420  134.0410 C   0  0  0  0  0  0  0  0  0  0  0  0
  193.2620  146.8350  134.2360 C   0  0  0  0  0  0  0  0  0  0  0  0
  193.7400  145.6750  134.8140 C   0  0  0  0  0  0  0  0  0  0  0  0
  192.5520  142.7500  131.6680 C   0  0  0  0  0  0  0  0  0  0  0  0
  114.8980  190.5450  124.0100 O   0  0  0  0  0  0  0  0  0  0  0  0
  116.4390  191.1590  126.1040 O   0  0  0  0  0  0  0  0  0  0  0  0
  116.5980  188.9640  127.6900 O   0  0  0  0  0  0  0  0  0  0  0  0
  111.6770  192.8890  129.9600 O   0  0  0  0  0  0  0  0  0  0  0  0
  108.1920  193.0320  135.2200 Cl  0  0  0  0  0  0  0  0  0  0  0  0
  115.7310  189.7250  126.5100 S   0  0  2  0  0  4  0  0  0  0  0  0
  113.0710  193.7470  131.9180 O   0  0  0  0  0  0  0  0  0  0  0  0
  115.0560  188.6930  122.6740 N   0  0  0  0  0  0  0  0  0  0  0  0
  115.6560  188.7360  125.1290 N   0  0  0  0  0  0  0  0  0  0  0  0
  109.5030  192.2200  130.0620 N   0  0  0  0  0  0  0  0  0  0  0  0
  114.5700  189.4400  121.5140 C   0  0  2  0  0  0  0  0  0  0  0  0
  113.2650  190.1290  121.9010 C   0  0  0  0  0  0  0  0  0  0  0  0
  114.3610  188.4770  120.3520 C   0  0  0  0  0  0  0  0  0  0  0  0
  112.6210  190.8400  120.7190 C   0  0  0  0  0  0  0  0  0  0  0  0
  113.7480  189.2070  119.1660 C   0  0  0  0  0  0  0  0  0  0  0  0
  112.4330  189.8900  119.5420 C   0  0  0  0  0  0  0  0  0  0  0  0
  115.1840  189.3990  123.9330 C   0  0  0  0  0  0  0  0  0  0  0  0
  114.0240  189.9840  127.0750 C   0  0  0  0  0  0  0  0  0  0  0  0
  111.4190  190.3130  127.9530 C   0  0  0  0  0  0  0  0  0  0  0  0
  109.9830  190.4530  128.4530 C   0  0  0  0  0  0  0  0  0  0  0  0
  113.3410  191.1580  126.8000 C   0  0  0  0  0  0  0  0  0  0  0  0
  113.4020  188.9780  127.7820 C   0  0  0  0  0  0  0  0  0  0  0  0
  112.0360  191.3240  127.2400 C   0  0  0  0  0  0  0  0  0  0  0  0
  112.1010  189.1440  128.2200 C   0  0  0  0  0  0  0  0  0  0  0  0
  109.5360  191.8940  128.6530 C   0  0  0  0  0  0  0  0  0  0  0  0
  110.7200  192.7500  130.6450 C   0  0  0  0  0  0  0  0  0  0  0  0
  110.7660  193.1100  132.1250 C   0  0  0  0  0  0  0  0  0  0  0  0
  111.9250  193.5850  132.6960 C   0  0  0  0  0  0  0  0  0  0  0  0
  109.6350  192.9450  132.8940 C   0  0  0  0  0  0  0  0  0  0  0  0
  111.9540  193.8980  134.0410 C   0  0  0  0  0  0  0  0  0  0  0  0
  109.6610  193.2560  134.2360 C   0  0  0  0  0  0  0  0  0  0  0  0
  110.8210  193.7340  134.8140 C   0  0  0  0  0  0  0  0  0  0  0  0
  113.7460  192.5460  131.6690 C   0  0  0  0  0  0  0  0  0  0  0  0
   65.9630  114.8940  124.0190 O   0  0  0  0  0  0  0  0  0  0  0  0
   65.3500  116.4350  126.1130 O   0  0  0  0  0  0  0  0  0  0  0  0
   67.5450  116.5940  127.6990 O   0  0  0  0  0  0  0  0  0  0  0  0
   63.6200  111.6730  129.9690 O   0  0  0  0  0  0  0  0  0  0  0  0
   63.4770  108.1880  135.2290 Cl  0  0  0  0  0  0  0  0  0  0  0  0
   66.7840  115.7270  126.5190 S   0  0  2  0  0  4  0  0  0  0  0  0
   62.7620  113.0670  131.9270 O   0  0  0  0  0  0  0  0  0  0  0  0
   67.8150  115.0520  122.6830 N   0  0  0  0  0  0  0  0  0  0  0  0
   67.7720  115.6520  125.1380 N   0  0  0  0  0  0  0  0  0  0  0  0
   64.2890  109.4990  130.0710 N   0  0  0  0  0  0  0  0  0  0  0  0
   67.0680  114.5660  121.5230 C   0  0  2  0  0  0  0  0  0  0  0  0
   66.3790  113.2610  121.9100 C   0  0  0  0  0  0  0  0  0  0  0  0
   68.0310  114.3570  120.3610 C   0  0  0  0  0  0  0  0  0  0  0  0
   65.6680  112.6170  120.7280 C   0  0  0  0  0  0  0  0  0  0  0  0
   67.3010  113.7440  119.1750 C   0  0  0  0  0  0  0  0  0  0  0  0
   66.6180  112.4290  119.5510 C   0  0  0  0  0  0  0  0  0  0  0  0
   67.1090  115.1800  123.9420 C   0  0  0  0  0  0  0  0  0  0  0  0
   66.5250  114.0200  127.0840 C   0  0  0  0  0  0  0  0  0  0  0  0
   66.1960  111.4150  127.9620 C   0  0  0  0  0  0  0  0  0  0  0  0
   66.0560  109.9790  128.4620 C   0  0  0  0  0  0  0  0  0  0  0  0
   65.3510  113.3370  126.8090 C   0  0  0  0  0  0  0  0  0  0  0  0
   67.5310  113.3980  127.7910 C   0  0  0  0  0  0  0  0  0  0  0  0
   65.1850  112.0320  127.2490 C   0  0  0  0  0  0  0  0  0  0  0  0
   67.3650  112.0970  128.2280 C   0  0  0  0  0  0  0  0  0  0  0  0
   64.6150  109.5320  128.6620 C   0  0  0  0  0  0  0  0  0  0  0  0
   63.7590  110.7160  130.6540 C   0  0  0  0  0  0  0  0  0  0  0  0
   63.3990  110.7620  132.1340 C   0  0  0  0  0  0  0  0  0  0  0  0
   62.9240  111.9210  132.7050 C   0  0  0  0  0  0  0  0  0  0  0  0
   63.5640  109.6310  132.9030 C   0  0  0  0  0  0  0  0  0  0  0  0
   62.6110  111.9500  134.0500 C   0  0  0  0  0  0  0  0  0  0  0  0
   63.2530  109.6570  134.2450 C   0  0  0  0  0  0  0  0  0  0  0  0
   62.7750  110.8170  134.8230 C   0  0  0  0  0  0  0  0  0  0  0  0
   63.9630  113.7420  131.6780 C   0  0  0  0  0  0  0  0  0  0  0  0
  141.6030   65.9490  124.0190 O   0  0  0  0  0  0  0  0  0  0  0  0
  140.0620   65.3360  126.1130 O   0  0  0  0  0  0  0  0  0  0  0  0
  139.9030   67.5310  127.6980 O   0  0  0  0  0  0  0  0  0  0  0  0
  144.8240   63.6060  129.9690 O   0  0  0  0  0  0  0  0  0  0  0  0
  148.3090   63.4640  135.2290 Cl  0  0  0  0  0  0  0  0  0  0  0  0
  140.7700   66.7700  126.5190 S   0  0  2  0  0  4  0  0  0  0  0  0
  143.4300   62.7490  131.9270 O   0  0  0  0  0  0  0  0  0  0  0  0
  141.4450   67.8010  122.6820 N   0  0  0  0  0  0  0  0  0  0  0  0
  140.8450   67.7580  125.1370 N   0  0  0  0  0  0  0  0  0  0  0  0
  146.9980   64.2750  130.0710 N   0  0  0  0  0  0  0  0  0  0  0  0
  141.9310   67.0540  121.5220 C   0  0  2  0  0  0  0  0  0  0  0  0
  143.2360   66.3650  121.9100 C   0  0  0  0  0  0  0  0  0  0  0  0
  142.1400   68.0170  120.3600 C   0  0  0  0  0  0  0  0  0  0  0  0
  143.8800   65.6540  120.7280 C   0  0  0  0  0  0  0  0  0  0  0  0
  142.7530   67.2860  119.1740 C   0  0  0  0  0  0  0  0  0  0  0  0
  144.0680   66.6040  119.5500 C   0  0  0  0  0  0  0  0  0  0  0  0
  141.3170   67.0950  123.9410 C   0  0  0  0  0  0  0  0  0  0  0  0
  142.4770   66.5110  127.0840 C   0  0  0  0  0  0  0  0  0  0  0  0
  145.0820   66.1820  127.9610 C   0  0  0  0  0  0  0  0  0  0  0  0
  146.5180   66.0420  128.4610 C   0  0  0  0  0  0  0  0  0  0  0  0
  143.1600   65.3370  126.8090 C   0  0  0  0  0  0  0  0  0  0  0  0
  143.0990   67.5170  127.7900 C   0  0  0  0  0  0  0  0  0  0  0  0
  144.4650   65.1710  127.2490 C   0  0  0  0  0  0  0  0  0  0  0  0
  144.4000   67.3510  128.2280 C   0  0  0  0  0  0  0  0  0  0  0  0
  146.9650   64.6010  128.6620 C   0  0  0  0  0  0  0  0  0  0  0  0
  145.7810   63.7460  130.6540 C   0  0  0  0  0  0  0  0  0  0  0  0
  145.7350   63.3860  132.1340 C   0  0  0  0  0  0  0  0  0  0  0  0
  144.5760   62.9110  132.7050 C   0  0  0  0  0  0  0  0  0  0  0  0
  146.8660   63.5510  132.9030 C   0  0  0  0  0  0  0  0  0  0  0  0
  144.5470   62.5980  134.0500 C   0  0  0  0  0  0  0  0  0  0  0  0
  146.8400   63.2400  134.2450 C   0  0  0  0  0  0  0  0  0  0  0  0
  145.6800   62.7620  134.8230 C   0  0  0  0  0  0  0  0  0  0  0  0
  142.7550   63.9500  131.6780 C   0  0  0  0  0  0  0  0  0  0  0  0
  190.8116  141.6640  124.9619 H   0  0  0  0  0  0  0  0  0  0  0  0
  191.6577  139.8147  126.9265 H   0  0  0  0  0  0  0  0  0  0  0  0
  189.2581  140.2272  128.5775 H   0  0  0  0  0  0  0  0  0  0  0  0
  193.0113  144.0186  130.5309 H   0  0  0  0  0  0  0  0  0  0  0  0
  187.9147  142.0908  122.8264 H   0  0  0  0  0  0  0  0  0  0  0  0
  188.3798  139.8950  124.9415 H   0  0  0  0  0  0  0  0  0  0  0  0
  192.9269  147.7348  130.2012 H   0  0  0  0  0  0  0  0  0  0  0  0
  190.2084  141.1988  121.1991 H   0  0  0  0  0  0  0  0  0  0  0  0
  189.3785  143.9324  122.2847 H   0  0  0  0  0  0  0  0  0  0  0  0
  190.8902  143.0023  122.6671 H   0  0  0  0  0  0  0  0  0  0  0  0
  188.0572  141.1664  120.0535 H   0  0  0  0  0  0  0  0  0  0  0  0
  187.6805  142.8178  120.6690 H   0  0  0  0  0  0  0  0  0  0  0  0
  191.2360  144.8577  121.0260 H   0  0  0  0  0  0  0  0  0  0  0  0
  191.6665  143.2150  120.4030 H   0  0  0  0  0  0  0  0  0  0  0  0
  189.9753  142.0399  118.8099 H   0  0  0  0  0  0  0  0  0  0  0  0
  188.4741  142.9589  118.3776 H   0  0  0  0  0  0  0  0  0  0  0  0
  189.1273  144.8015  119.8160 H   0  0  0  0  0  0  0  0  0  0  0  0
  190.4790  144.4133  118.6771 H   0  0  0  0  0  0  0  0  0  0  0  0
  189.1298  142.3460  124.1913 H   0  0  0  0  0  0  0  0  0  0  0  0
  190.4282  142.0967  128.0101 H   0  0  0  0  0  0  0  0  0  0  0  0
  189.8818  145.4467  127.0137 H   0  0  0  0  0  0  0  0  0  0  0  0
  189.9877  147.1827  127.7186 H   0  0  0  0  0  0  0  0  0  0  0  0
  189.9722  146.5562  129.4385 H   0  0  0  0  0  0  0  0  0  0  0  0
  191.9834  142.5669  127.2367 H   0  0  0  0  0  0  0  0  0  0  0  0
  191.1432  143.2612  125.7042 H   0  0  0  0  0  0  0  0  0  0  0  0
  188.0917  143.0880  127.1388 H   0  0  0  0  0  0  0  0  0  0  0  0
  188.9376  142.5170  128.7167 H   0  0  0  0  0  0  0  0  0  0  0  0
  191.5130  145.0782  126.3480 H   0  0  0  0  0  0  0  0  0  0  0  0
  192.1476  144.3819  127.9716 H   0  0  0  0  0  0  0  0  0  0  0  0
  189.0382  144.3763  129.3141 H   0  0  0  0  0  0  0  0  0  0  0  0
  188.3994  144.9510  127.6391 H   0  0  0  0  0  0  0  0  0  0  0  0
  192.0301  147.9658  128.2271 H   0  0  0  0  0  0  0  0  0  0  0  0
  192.5685  146.2469  128.1483 H   0  0  0  0  0  0  0  0  0  0  0  0
  193.7769  146.1018  130.3970 H   0  0  0  0  0  0  0  0  0  0  0  0
  192.0864  145.4268  132.3660 H   0  0  0  0  0  0  0  0  0  0  0  0
  194.6209  144.8769  132.4602 H   0  0  0  0  0  0  0  0  0  0  0  0
  193.5722  147.6469  132.4396 H   0  0  0  0  0  0  0  0  0  0  0  0
  191.8613  147.0112  132.8907 H   0  0  0  0  0  0  0  0  0  0  0  0
  193.2825  143.7558  134.4945 H   0  0  0  0  0  0  0  0  0  0  0  0
  194.9935  144.3906  134.0432 H   0  0  0  0  0  0  0  0  0  0  0  0
  192.2332  146.5225  134.4684 H   0  0  0  0  0  0  0  0  0  0  0  0
  193.0429  145.4110  135.6229 H   0  0  0  0  0  0  0  0  0  0  0  0
  194.7680  145.9382  135.1037 H   0  0  0  0  0  0  0  0  0  0  0  0
  192.0767  142.4828  132.6233 H   0  0  0  0  0  0  0  0  0  0  0  0
  191.8778  143.4014  131.0925 H   0  0  0  0  0  0  0  0  0  0  0  0
  192.7579  141.8354  131.0925 H   0  0  0  0  0  0  0  0  0  0  0  0
  114.8330  190.8056  124.9629 H   0  0  0  0  0  0  0  0  0  0  0  0
  116.6823  191.6517  126.9275 H   0  0  0  0  0  0  0  0  0  0  0  0
  116.2698  189.2521  128.5785 H   0  0  0  0  0  0  0  0  0  0  0  0
  112.4774  193.0053  130.5309 H   0  0  0  0  0  0  0  0  0  0  0  0
  114.4062  187.9087  122.8274 H   0  0  0  0  0  0  0  0  0  0  0  0
  116.6020  188.3738  124.9425 H   0  0  0  0  0  0  0  0  0  0  0  0
  108.7612  192.9209  130.2012 H   0  0  0  0  0  0  0  0  0  0  0  0
  115.2984  190.2024  121.2007 H   0  0  0  0  0  0  0  0  0  0  0  0
  112.5646  189.3725  122.2845 H   0  0  0  0  0  0  0  0  0  0  0  0
  113.4947  190.8845  122.6668 H   0  0  0  0  0  0  0  0  0  0  0  0
  115.3306  188.0512  120.0545 H   0  0  0  0  0  0  0  0  0  0  0  0
  113.6792  187.6745  120.6700 H   0  0  0  0  0  0  0  0  0  0  0  0
  111.6393  191.2300  121.0260 H   0  0  0  0  0  0  0  0  0  0  0  0
  113.2820  191.6605  120.4030 H   0  0  0  0  0  0  0  0  0  0  0  0
  114.4571  189.9693  118.8111 H   0  0  0  0  0  0  0  0  0  0  0  0
  113.5382  188.4678  118.3789 H   0  0  0  0  0  0  0  0  0  0  0  0
  111.6952  189.1214  119.8158 H   0  0  0  0  0  0  0  0  0  0  0  0
  112.0839  190.4728  118.6769 H   0  0  0  0  0  0  0  0  0  0  0  0
  114.1510  189.1238  124.1923 H   0  0  0  0  0  0  0  0  0  0  0  0
  114.4003  190.4222  128.0111 H   0  0  0  0  0  0  0  0  0  0  0  0
  111.0493  189.8761  127.0136 H   0  0  0  0  0  0  0  0  0  0  0  0
  109.3133  189.9817  127.7186 H   0  0  0  0  0  0  0  0  0  0  0  0
  109.9398  189.9662  129.4385 H   0  0  0  0  0  0  0  0  0  0  0  0
  113.9298  191.9773  127.2383 H   0  0  0  0  0  0  0  0  0  0  0  0
  113.2364  191.1373  125.7052 H   0  0  0  0  0  0  0  0  0  0  0  0
  113.4091  188.0861  127.1383 H   0  0  0  0  0  0  0  0  0  0  0  0
  113.9798  188.9310  128.7169 H   0  0  0  0  0  0  0  0  0  0  0  0
  111.4195  191.5068  126.3476 H   0  0  0  0  0  0  0  0  0  0  0  0
  112.1148  192.1416  127.9716 H   0  0  0  0  0  0  0  0  0  0  0  0
  112.1195  189.0321  129.3141 H   0  0  0  0  0  0  0  0  0  0  0  0
  111.5452  188.3934  127.6389 H   0  0  0  0  0  0  0  0  0  0  0  0
  108.5302  192.0241  128.2271 H   0  0  0  0  0  0  0  0  0  0  0  0
  110.2491  192.5625  128.1483 H   0  0  0  0  0  0  0  0  0  0  0  0
  110.3942  193.7709  130.3970 H   0  0  0  0  0  0  0  0  0  0  0  0
  111.0692  192.0804  132.3660 H   0  0  0  0  0  0  0  0  0  0  0  0
  111.6192  194.6149  132.4600 H   0  0  0  0  0  0  0  0  0  0  0  0
  108.8491  193.5662  132.4396 H   0  0  0  0  0  0  0  0  0  0  0  0
  109.4848  191.8553  132.8907 H   0  0  0  0  0  0  0  0  0  0  0  0
  112.7402  193.2765  134.4945 H   0  0  0  0  0  0  0  0  0  0  0  0
  112.1054  194.9875  134.0432 H   0  0  0  0  0  0  0  0  0  0  0  0
  109.9735  192.2272  134.4684 H   0  0  0  0  0  0  0  0  0  0  0  0
  111.0850  193.0369  135.6229 H   0  0  0  0  0  0  0  0  0  0  0  0
  110.5578  194.7620  135.1037 H   0  0  0  0  0  0  0  0  0  0  0  0
  114.0132  192.0707  132.6243 H   0  0  0  0  0  0  0  0  0  0  0  0
  113.0946  191.8718  131.0935 H   0  0  0  0  0  0  0  0  0  0  0  0
  114.6606  192.7519  131.0935 H   0  0  0  0  0  0  0  0  0  0  0  0
   65.7024  114.8290  124.9719 H   0  0  0  0  0  0  0  0  0  0  0  0
   64.8573  116.6783  126.9365 H   0  0  0  0  0  0  0  0  0  0  0  0
   67.2569  116.2658  128.5875 H   0  0  0  0  0  0  0  0  0  0  0  0
   63.5037  112.4734  130.5399 H   0  0  0  0  0  0  0  0  0  0  0  0
   68.5993  114.4022  122.8364 H   0  0  0  0  0  0  0  0  0  0  0  0
   68.1340  116.5980  124.9514 H   0  0  0  0  0  0  0  0  0  0  0  0
   63.5881  108.7572  130.2102 H   0  0  0  0  0  0  0  0  0  0  0  0
   66.3056  115.2944  121.2097 H   0  0  0  0  0  0  0  0  0  0  0  0
   67.1355  112.5606  122.2935 H   0  0  0  0  0  0  0  0  0  0  0  0
   65.6235  113.4907  122.6758 H   0  0  0  0  0  0  0  0  0  0  0  0
   68.4568  115.3266  120.0635 H   0  0  0  0  0  0  0  0  0  0  0  0
   68.8335  113.6752  120.6790 H   0  0  0  0  0  0  0  0  0  0  0  0
   65.2780  111.6353  121.0350 H   0  0  0  0  0  0  0  0  0  0  0  0
   64.8475  113.2780  120.4120 H   0  0  0  0  0  0  0  0  0  0  0  0
   66.5387  114.4531  118.8201 H   0  0  0  0  0  0  0  0  0  0  0  0
   68.0402  113.5342  118.3879 H   0  0  0  0  0  0  0  0  0  0  0  0
   67.3866  111.6912  119.8248 H   0  0  0  0  0  0  0  0  0  0  0  0
   66.0352  112.0799  118.6859 H   0  0  0  0  0  0  0  0  0  0  0  0
   67.3842  114.1470  124.2013 H   0  0  0  0  0  0  0  0  0  0  0  0
   66.0868  114.3963  128.0201 H   0  0  0  0  0  0  0  0  0  0  0  0
   66.6329  111.0453  127.0226 H   0  0  0  0  0  0  0  0  0  0  0  0
   66.5273  109.3093  127.7276 H   0  0  0  0  0  0  0  0  0  0  0  0
   66.5428  109.9358  129.4475 H   0  0  0  0  0  0  0  0  0  0  0  0
   64.5317  113.9258  127.2473 H   0  0  0  0  0  0  0  0  0  0  0  0
   65.3717  113.2324  125.7142 H   0  0  0  0  0  0  0  0  0  0  0  0
   68.4232  113.4057  127.1476 H   0  0  0  0  0  0  0  0  0  0  0  0
   67.5777  113.9753  128.7262 H   0  0  0  0  0  0  0  0  0  0  0  0
   65.0022  111.4155  126.3566 H   0  0  0  0  0  0  0  0  0  0  0  0
   64.3674  112.1108  127.9806 H   0  0  0  0  0  0  0  0  0  0  0  0
   67.4781  112.1147  129.3220 H   0  0  0  0  0  0  0  0  0  0  0  0
   68.1146  111.5417  127.6452 H   0  0  0  0  0  0  0  0  0  0  0  0
   64.4849  108.5262  128.2361 H   0  0  0  0  0  0  0  0  0  0  0  0
   63.9465  110.2451  128.1573 H   0  0  0  0  0  0  0  0  0  0  0  0
   62.7381  110.3902  130.4060 H   0  0  0  0  0  0  0  0  0  0  0  0
   64.4286  111.0652  132.3750 H   0  0  0  0  0  0  0  0  0  0  0  0
   61.8941  111.6152  132.4690 H   0  0  0  0  0  0  0  0  0  0  0  0
   62.9428  108.8451  132.4486 H   0  0  0  0  0  0  0  0  0  0  0  0
   64.6537  109.4808  132.8997 H   0  0  0  0  0  0  0  0  0  0  0  0
   63.2325  112.7362  134.5035 H   0  0  0  0  0  0  0  0  0  0  0  0
   61.5215  112.1014  134.0522 H   0  0  0  0  0  0  0  0  0  0  0  0
   64.2818  109.9695  134.4774 H   0  0  0  0  0  0  0  0  0  0  0  0
   63.4721  111.0810  135.6319 H   0  0  0  0  0  0  0  0  0  0  0  0
   61.7470  110.5538  135.1127 H   0  0  0  0  0  0  0  0  0  0  0  0
   64.4383  114.0092  132.6333 H   0  0  0  0  0  0  0  0  0  0  0  0
   64.6372  113.0906  131.1025 H   0  0  0  0  0  0  0  0  0  0  0  0
   63.7571  114.6566  131.1025 H   0  0  0  0  0  0  0  0  0  0  0  0
  141.6678   65.6892  124.9721 H   0  0  0  0  0  0  0  0  0  0  0  0
  139.8187   64.8433  126.9365 H   0  0  0  0  0  0  0  0  0  0  0  0
  140.2309   67.2431  128.5866 H   0  0  0  0  0  0  0  0  0  0  0  0
  144.0238   63.4889  130.5400 H   0  0  0  0  0  0  0  0  0  0  0  0
  142.0948   68.5853  122.8354 H   0  0  0  0  0  0  0  0  0  0  0  0
  139.8989   68.1199  124.9504 H   0  0  0  0  0  0  0  0  0  0  0  0
  147.7393   63.5735  130.2101 H   0  0  0  0  0  0  0  0  0  0  0  0
  141.2028   66.2916  121.2081 H   0  0  0  0  0  0  0  0  0  0  0  0
  143.9364   67.1215  122.2937 H   0  0  0  0  0  0  0  0  0  0  0  0
  143.0063   65.6098  122.6761 H   0  0  0  0  0  0  0  0  0  0  0  0
  141.1705   68.4429  120.0624 H   0  0  0  0  0  0  0  0  0  0  0  0
  142.8217   68.8197  120.6777 H   0  0  0  0  0  0  0  0  0  0  0  0
  144.8617   65.2642  121.0350 H   0  0  0  0  0  0  0  0  0  0  0  0
  143.2189   64.8335  120.4122 H   0  0  0  0  0  0  0  0  0  0  0  0
  142.0440   66.5231  118.8200 H   0  0  0  0  0  0  0  0  0  0  0  0
  142.9623   68.0246  118.3862 H   0  0  0  0  0  0  0  0  0  0  0  0
  144.8055   67.3730  119.8235 H   0  0  0  0  0  0  0  0  0  0  0  0
  144.4176   66.0211  118.6851 H   0  0  0  0  0  0  0  0  0  0  0  0
  142.3499   67.3704  124.2005 H   0  0  0  0  0  0  0  0  0  0  0  0
  142.1007   66.0728  128.0201 H   0  0  0  0  0  0  0  0  0  0  0  0
  145.4517   66.6182  127.0213 H   0  0  0  0  0  0  0  0  0  0  0  0
  147.1877   66.5128  127.7262 H   0  0  0  0  0  0  0  0  0  0  0  0
  146.5613   66.5294  129.4462 H   0  0  0  0  0  0  0  0  0  0  0  0
  142.5712   64.5177  127.2473 H   0  0  0  0  0  0  0  0  0  0  0  0
  143.2646   65.3577  125.7142 H   0  0  0  0  0  0  0  0  0  0  0  0
  143.0920   68.4085  127.1457 H   0  0  0  0  0  0  0  0  0  0  0  0
  142.5213   67.5648  128.7249 H   0  0  0  0  0  0  0  0  0  0  0  0
  145.0814   64.9874  126.3566 H   0  0  0  0  0  0  0  0  0  0  0  0
  144.3861   64.3539  127.9812 H   0  0  0  0  0  0  0  0  0  0  0  0
  144.3815   67.4629  129.3221 H   0  0  0  0  0  0  0  0  0  0  0  0
  144.9558   68.1016  127.6469 H   0  0  0  0  0  0  0  0  0  0  0  0
  147.9709   64.4708  128.2362 H   0  0  0  0  0  0  0  0  0  0  0  0
  146.2516   63.9325  128.1578 H   0  0  0  0  0  0  0  0  0  0  0  0
  146.1068   62.7247  130.4075 H   0  0  0  0  0  0  0  0  0  0  0  0
  145.4318   64.4156  132.3750 H   0  0  0  0  0  0  0  0  0  0  0  0
  144.8818   61.8811  132.4690 H   0  0  0  0  0  0  0  0  0  0  0  0
  147.6519   62.9298  132.4486 H   0  0  0  0  0  0  0  0  0  0  0  0
  147.0162   64.6407  132.8997 H   0  0  0  0  0  0  0  0  0  0  0  0
  143.7608   63.2195  134.5035 H   0  0  0  0  0  0  0  0  0  0  0  0
  144.3956   61.5085  134.0522 H   0  0  0  0  0  0  0  0  0  0  0  0
  146.5275   64.2688  134.4774 H   0  0  0  0  0  0  0  0  0  0  0  0
  145.4160   63.4591  135.6319 H   0  0  0  0  0  0  0  0  0  0  0  0
  145.9432   61.7340  135.1127 H   0  0  0  0  0  0  0  0  0  0  0  0
  142.4878   64.4253  132.6333 H   0  0  0  0  0  0  0  0  0  0  0  0
  143.4064   64.6242  131.1025 H   0  0  0  0  0  0  0  0  0  0  0  0
  141.8404   63.7441  131.1025 H   0  0  0  0  0  0  0  0  0  0  0  0
  6  2  1  6
  3  6  1  0
  6  9  1  0
  8 11  1  0
 11 12  1  0
 11 13  1  0
 12 14  1  0
 13 15  1  0
 14 16  1  0
 15 16  1  0
  1 17  1  0
  8 17  1  0
  9 17  1  0
  6 18  1  0
 19 20  1  0
 18 21  1  0
 18 22  1  0
 19 23  1  0
 21 23  1  0
 19 24  1  0
 22 24  1  0
 10 25  1  0
 20 25  1  0
  4 26  1  0
 10 26  1  0
 26 27  1  0
  7 28  1  0
 27 28  1  0
 27 29  1  0
 28 30  1  0
  5 31  1  0
 29 31  1  0
 30 32  1  0
 31 32  1  0
  7 33  1  0
 39 35  1  6
 36 39  1  0
 39 42  1  0
 41 44  1  0
 44 45  1  0
 44 46  1  0
 45 47  1  0
 46 48  1  0
 47 49  1  0
 48 49  1  0
 34 50  1  0
 41 50  1  0
 42 50  1  0
 39 51  1  0
 52 53  1  0
 51 54  1  0
 51 55  1  0
 52 56  1  0
 54 56  1  0
 52 57  1  0
 55 57  1  0
 43 58  1  0
 53 58  1  0
 37 59  1  0
 43 59  1  0
 59 60  1  0
 40 61  1  0
 60 61  1  0
 60 62  1  0
 61 63  1  0
 38 64  1  0
 62 64  1  0
 63 65  1  0
 64 65  1  0
 40 66  1  0
 72 68  1  6
 69 72  1  0
 72 75  1  0
 74 77  1  0
 77 78  1  0
 77 79  1  0
 78 80  1  0
 79 81  1  0
 80 82  1  0
 81 82  1  0
 67 83  1  0
 74 83  1  0
 75 83  1  0
 72 84  1  0
 85 86  1  0
 84 87  1  0
 84 88  1  0
 85 89  1  0
 87 89  1  0
 85 90  1  0
 88 90  1  0
 76 91  1  0
 86 91  1  0
 70 92  1  0
 76 92  1  0
 92 93  1  0
 73 94  1  0
 93 94  1  0
 93 95  1  0
 94 96  1  0
 71 97  1  0
 95 97  1  0
 96 98  1  0
 97 98  1  0
 73 99  1  0
105101  1  6
102105  1  0
105108  1  0
107110  1  0
110111  1  0
110112  1  0
111113  1  0
112114  1  0
113115  1  0
114115  1  0
100116  1  0
107116  1  0
108116  1  0
105117  1  0
118119  1  0
117120  1  0
117121  1  0
118122  1  0
120122  1  0
118123  1  0
121123  1  0
109124  1  0
119124  1  0
103125  1  0
109125  1  0
125126  1  0
106127  1  0
126127  1  0
126128  1  0
127129  1  0
104130  1  0
128130  1  0
129131  1  0
130131  1  0
106132  1  0
  1133  1  0
  2134  1  0
  3135  1  0
  4136  1  0
  8137  1  0
  9138  1  0
 10139  1  0
 11140  1  6
 12141  1  0
 12142  1  0
 13143  1  0
 13144  1  0
 14145  1  0
 14146  1  0
 15147  1  0
 15148  1  0
 16149  1  0
 16150  1  0
 17151  1  0
 18152  1  0
 19153  1  0
 20154  1  0
 20155  1  0
 21156  1  0
 21157  1  0
 22158  1  0
 22159  1  0
 23160  1  0
 23161  1  0
 24162  1  0
 24163  1  0
 25164  1  0
 25165  1  0
 26166  1  0
 27167  1  0
 28168  1  0
 29169  1  0
 29170  1  0
 30171  1  0
 30172  1  0
 31173  1  0
 32174  1  0
 32175  1  0
 33176  1  0
 33177  1  0
 33178  1  0
 34179  1  0
 35180  1  0
 36181  1  0
 37182  1  0
 41183  1  0
 42184  1  0
 43185  1  0
 44186  1  6
 45187  1  0
 45188  1  0
 46189  1  0
 46190  1  0
 47191  1  0
 47192  1  0
 48193  1  0
 48194  1  0
 49195  1  0
 49196  1  0
 50197  1  0
 51198  1  0
 52199  1  0
 53200  1  0
 53201  1  0
 54202  1  0
 54203  1  0
 55204  1  0
 55205  1  0
 56206  1  0
 56207  1  0
 57208  1  0
 57209  1  0
 58210  1  0
 58211  1  0
 59212  1  0
 60213  1  0
 61214  1  0
 62215  1  0
 62216  1  0
 63217  1  0
 63218  1  0
 64219  1  0
 65220  1  0
 65221  1  0
 66222  1  0
 66223  1  0
 66224  1  0
 67225  1  0
 68226  1  0
 69227  1  0
 70228  1  0
 74229  1  0
 75230  1  0
 76231  1  0
 77232  1  6
 78233  1  0
 78234  1  0
 79235  1  0
 79236  1  0
 80237  1  0
 80238  1  0
 81239  1  0
 81240  1  0
 82241  1  0
 82242  1  0
 83243  1  0
 84244  1  0
 85245  1  0
 86246  1  0
 86247  1  0
 87248  1  0
 87249  1  0
 88250  1  0
 88251  1  0
 89252  1  0
 89253  1  0
 90254  1  0
 90255  1  0
 91256  1  0
 91257  1  0
 92258  1  0
 93259  1  0
 94260  1  0
 95261  1  0
 95262  1  0
 96263  1  0
 96264  1  0
 97265  1  0
 98266  1  0
 98267  1  0
 99268  1  0
 99269  1  0
 99270  1  0
100271  1  0
101272  1  0
102273  1  0
103274  1  0
107275  1  0
108276  1  0
109277  1  0
110278  1  6
111279  1  0
111280  1  0
112281  1  0
112282  1  0
113283  1  0
113284  1  0
114285  1  0
114286  1  0
115287  1  0
115288  1  0
116289  1  0
117290  1  0
118291  1  0
119292  1  0
119293  1  0
120294  1  0
120295  1  0
121296  1  0
121297  1  0
122298  1  0
122299  1  0
123300  1  0
123301  1  0
124302  1  0
124303  1  0
125304  1  0
126305  1  0
127306  1  0
128307  1  0
128308  1  0
129309  1  0
129310  1  0
130311  1  0
131312  1  0
131313  1  0
132314  1  0
132315  1  0
132316  1  0
M  END
>  <PDBID>  (1) 
6BAA

>  <PDB ID>  (1) 
6BAA

>  <Generic Name>  (1) 
Glyburide

>  <Brand Name>  (1) 
Apo Glyburide Tab 2.5mg#Apo Glyburide Tab 5mg#Ava-glyburide#Diabeta#Diabeta 5mg#Diabeta Tab 2.5mg#Diabeta Tab 5mg#Diabeta Tablets 2.5mg#Dom-glyburide#Euglucon#Glucovance#Glyburide#Glyburide (micronized) and Metformin Hydrochloride#Glyburide Tablets 2.5mg#Glyburide Tablets 5mg#Glyburide and Metformin#Glyburide and Metformin Hydrochloride#Glyburide-2.5 Tab 2.5mg#Glyburide-5 Tab 5mg#Glyburide-metformin Hydrochloride#Glynase#Med Glybe Tab 2.5mg#Med Glybe Tab 5mg#Mylan-glybe#Ntp-glyburide#Nu-glyburide Tab 2.5mg#Nu-glyburide Tab 5mg#PMS-glyburide#Penta-glyburide - 2.5mg#Penta-glyburide - 5mg#Pro-glyburide#Ratio-glyburide#Riva-glyburide#Sandoz Glyburide#Teva-glyburide#Daonil#Delmide#Micronase#Novo-Glyburide#Semi-Daonil

>  <DrugBank ID>  (1) 
DB01016

>  <ATC Codes>  (1) 
A10BB01

>  <Ligand ID>  (1) 
GBM

>  <Target Name>  (1) 
ATP-sensitive inward rectifier potassium channel 11

>  <UniProt ID>  (1) 
Q14654

>  <PDB ID.1>  (1) 
6BAA

>  <Seq. Identity>  (1) 
94%

$$$$
