PDB_DB00834_96
     RDKit          3D

 67 71  0  0  0  0  0  0  0  0999 V2000
  -28.2960    4.9500   20.2670 O   0  0  0  0  0  0  0  0  0  0  0  0
  -27.5550    5.0210   21.2380 C   0  0  0  0  0  0  0  0  0  0  0  0
  -27.7760    4.1140   22.4460 C   0  0  0  0  0  0  0  0  0  0  0  0
  -26.4780    6.0200   21.3130 C   0  0  0  0  0  0  0  0  0  0  0  0
  -25.7030    6.1970   22.4110 C   0  0  0  0  0  0  0  0  0  0  0  0
  -24.6880    7.3000   22.4250 C   0  0  0  0  0  0  0  0  0  0  0  0
  -25.8650    5.3910   23.6420 C   0  0  0  0  0  0  0  0  0  0  0  0
  -26.6310    4.0890   23.4670 C   0  0  0  0  0  0  0  0  0  0  0  0
  -25.3380    5.7770   24.8310 C   0  0  0  0  0  0  0  0  0  0  0  0
  -25.4430    4.8950   26.0850 C   0  0  1  0  0  0  0  0  0  0  0  0
  -24.2850    3.9060   26.1980 C   0  0  0  0  0  0  0  0  0  0  0  0
  -24.2390    3.0430   27.2920 C   0  0  0  0  0  0  0  0  0  0  0  0
  -23.2140    2.1240   27.4650 C   0  0  0  0  0  0  0  0  0  0  0  0
  -22.1510    2.0270   26.5210 C   0  0  0  0  0  0  0  0  0  0  0  0
  -21.1070    1.1090   26.6620 N   0  0  0  0  0  0  0  0  0  0  0  0
  -19.9900    1.1250   25.7260 C   0  0  0  0  0  0  0  0  0  0  0  0
  -21.3810   -0.1890   27.2750 C   0  0  0  0  0  0  0  0  0  0  0  0
  -22.2100    2.8900   25.4110 C   0  0  0  0  0  0  0  0  0  0  0  0
  -23.2420    3.8130   25.2610 C   0  0  0  0  0  0  0  0  0  0  0  0
  -25.6700    5.7150   27.3830 C   0  0  0  0  0  0  0  0  0  0  0  0
  -24.8280    6.9930   27.5160 C   0  0  2  0  0  0  0  0  0  0  0  0
  -23.3260    6.6860   27.6770 C   0  0  0  0  0  0  0  0  0  0  0  0
  -25.2340    8.0040   28.6630 C   0  0  1  0  0  0  0  0  0  0  0  0
  -26.6800    8.0810   28.8330 C   0  0  0  0  0  0  0  0  0  0  0  0
  -27.8750    8.1370   28.9420 C   0  0  0  0  0  0  0  0  0  0  0  0
  -29.3230    8.2230   29.0600 C   0  0  0  0  0  0  0  0  0  0  0  0
  -24.6130    7.6110   29.9020 O   0  0  0  0  0  0  0  0  0  0  0  0
  -24.7300    9.3830   28.1280 C   0  0  0  0  0  0  0  0  0  0  0  0
  -24.5930    9.2520   26.5740 C   0  0  0  0  0  0  0  0  0  0  0  0
  -25.1180    7.8280   26.2600 C   0  0  1  0  0  0  0  0  0  0  0  0
  -24.6400    7.1290   24.9820 C   0  0  2  0  0  0  0  0  0  0  0  0
  -24.8230    8.0340   23.7560 C   0  0  0  0  0  0  0  0  0  0  0  0
  -28.6853    4.4535   22.9637 H   0  0  0  0  0  0  0  0  0  0  0  0
  -27.8503    3.0912   22.0481 H   0  0  0  0  0  0  0  0  0  0  0  0
  -26.2922    6.6551   20.4343 H   0  0  0  0  0  0  0  0  0  0  0  0
  -23.6760    6.8797   22.3293 H   0  0  0  0  0  0  0  0  0  0  0  0
  -24.8553    7.9898   21.5846 H   0  0  0  0  0  0  0  0  0  0  0  0
  -27.0569    3.8153   24.4436 H   0  0  0  0  0  0  0  0  0  0  0  0
  -25.9006    3.3656   23.0756 H   0  0  0  0  0  0  0  0  0  0  0  0
  -26.3516    4.2879   25.9591 H   0  0  0  0  0  0  0  0  0  0  0  0
  -25.0416    3.0923   28.0426 H   0  0  0  0  0  0  0  0  0  0  0  0
  -23.2221    1.4612   28.3429 H   0  0  0  0  0  0  0  0  0  0  0  0
  -19.0430    1.1386   26.2855 H   0  0  0  0  0  0  0  0  0  0  0  0
  -20.0291    0.2262   25.0930 H   0  0  0  0  0  0  0  0  0  0  0  0
  -20.0548    2.0223   25.0930 H   0  0  0  0  0  0  0  0  0  0  0  0
  -21.3599   -0.0890   28.3702 H   0  0  0  0  0  0  0  0  0  0  0  0
  -22.3735   -0.5420   26.9581 H   0  0  0  0  0  0  0  0  0  0  0  0
  -20.6159   -0.9130   26.9581 H   0  0  0  0  0  0  0  0  0  0  0  0
  -21.4231    2.8343   24.6444 H   0  0  0  0  0  0  0  0  0  0  0  0
  -23.2406    4.4842   24.3895 H   0  0  0  0  0  0  0  0  0  0  0  0
  -26.7309    6.0032   27.4201 H   0  0  0  0  0  0  0  0  0  0  0  0
  -25.3578    5.0612   28.2107 H   0  0  0  0  0  0  0  0  0  0  0  0
  -23.0749    6.6347   28.7467 H   0  0  0  0  0  0  0  0  0  0  0  0
  -23.0955    5.7222   27.1996 H   0  0  0  0  0  0  0  0  0  0  0  0
  -22.7358    7.4821   27.1996 H   0  0  0  0  0  0  0  0  0  0  0  0
  -29.6039    8.2397   30.1234 H   0  0  0  0  0  0  0  0  0  0  0  0
  -29.6765    9.1437   28.5729 H   0  0  0  0  0  0  0  0  0  0  0  0
  -29.7830    7.3506   28.5729 H   0  0  0  0  0  0  0  0  0  0  0  0
  -25.1491    7.9503   30.6620 H   0  0  0  0  0  0  0  0  0  0  0  0
  -25.4545   10.1722   28.3777 H   0  0  0  0  0  0  0  0  0  0  0  0
  -23.7659    9.6513   28.5847 H   0  0  0  0  0  0  0  0  0  0  0  0
  -25.2021   10.0128   26.0639 H   0  0  0  0  0  0  0  0  0  0  0  0
  -23.5593    9.4034   26.2298 H   0  0  0  0  0  0  0  0  0  0  0  0
  -26.1870    7.9309   26.0221 H   0  0  0  0  0  0  0  0  0  0  0  0
  -23.5605    6.9327   25.0598 H   0  0  0  0  0  0  0  0  0  0  0  0
  -24.0620    8.8274   23.7936 H   0  0  0  0  0  0  0  0  0  0  0  0
  -25.8475    8.4319   23.8007 H   0  0  0  0  0  0  0  0  0  0  0  0
  1  2  2  0
  2  3  1  0
  2  4  1  0
  4  5  2  0
  5  6  1  0
  5  7  1  0
  3  8  1  0
  7  8  1  0
  7  9  2  0
  9 10  1  0
 10 11  1  0
 11 12  2  0
 12 13  1  0
 13 14  2  0
 14 15  1  0
 15 16  1  0
 15 17  1  0
 14 18  1  0
 11 19  1  0
 18 19  2  0
 10 20  1  0
 20 21  1  0
 21 22  1  1
 21 23  1  0
 23 24  1  1
 24 25  3  0
 25 26  1  0
 23 27  1  0
 23 28  1  0
 28 29  1  0
 21 30  1  0
 29 30  1  0
  9 31  1  0
 30 31  1  0
  6 32  1  0
 31 32  1  0
  3 33  1  0
  3 34  1  0
  4 35  1  0
  6 36  1  0
  6 37  1  0
  8 38  1  0
  8 39  1  0
 10 40  1  6
 12 41  1  0
 13 42  1  0
 16 43  1  0
 16 44  1  0
 16 45  1  0
 17 46  1  0
 17 47  1  0
 17 48  1  0
 18 49  1  0
 19 50  1  0
 20 51  1  0
 20 52  1  0
 22 53  1  0
 22 54  1  0
 22 55  1  0
 26 56  1  0
 26 57  1  0
 26 58  1  0
 27 59  1  0
 28 60  1  0
 28 61  1  0
 29 62  1  0
 29 63  1  0
 30 64  1  6
 31 65  1  1
 32 66  1  0
 32 67  1  0
M  END
$$$$
