PDB_DB00452_74
     RDKit          3D

 88 91  0  0  0  0  0  0  0  0999 V2000
   43.7100  149.9680  -96.6070 C   0  0  2  0  0  0  0  0  0  0  0  0
   44.6690  149.5390  -97.6060 O   0  0  0  0  0  0  0  0  0  0  0  0
   42.9170  151.2160  -97.0880 C   0  0  2  0  0  0  0  0  0  0  0  0
   42.2740  150.9570  -98.4050 N   0  0  0  0  0  0  0  0  0  0  0  0
   43.8730  152.4850  -97.1540 C   0  0  1  0  0  0  0  0  0  0  0  0
   43.1450  153.6610  -97.5830 O   0  0  0  0  0  0  0  0  0  0  0  0
   44.5080  152.7330  -95.7460 C   0  0  2  0  0  0  0  0  0  0  0  0
   45.3560  153.8770  -95.7880 O   0  0  0  0  0  0  0  0  0  0  0  0
   45.3090  151.4570  -95.2900 C   0  0  2  0  0  0  0  0  0  0  0  0
   44.3660  150.2960  -95.2940 O   0  0  0  0  0  0  0  0  0  0  0  0
   45.9260  151.6630  -93.8650 C   0  0  0  0  0  0  0  0  0  0  0  0
   47.2110  146.0630  -98.3170 C   0  0  1  0  0  0  0  0  0  0  0  0
   48.0870  144.8890  -98.0620 N   0  0  0  0  0  0  0  0  0  0  0  0
   45.7540  145.8720  -97.7410 C   0  0  1  0  0  0  0  0  0  0  0  0
   44.8650  147.1130  -98.0050 C   0  0  1  0  0  0  0  0  0  0  0  0
   43.5520  146.9150  -97.4170 O   0  0  0  0  0  0  0  0  0  0  0  0
   45.5060  148.3560  -97.3400 C   0  0  1  0  0  0  0  0  0  0  0  0
   46.9620  148.5680  -97.8820 C   0  0  1  0  0  0  0  0  0  0  0  0
   47.5950  149.7340  -97.2340 N   0  0  0  0  0  0  0  0  0  0  0  0
   47.8590  147.3120  -97.6310 C   0  0  0  0  0  0  0  0  0  0  0  0
   42.4470  146.4660  -98.2410 C   0  0  1  0  0  0  0  0  0  0  0  0
   41.1330  146.5460  -97.5160 C   0  0  1  0  0  0  0  0  0  0  0  0
   40.1020  146.5080  -98.7110 C   0  0  1  0  0  0  0  0  0  0  0  0
   40.8110  147.2170  -99.8570 C   0  0  2  0  0  0  0  0  0  0  0  0
   42.2500  147.1970  -99.5020 O   0  0  0  0  0  0  0  0  0  0  0  0
   40.3580  148.6530 -100.0680 C   0  0  0  0  0  0  0  0  0  0  0  0
   37.3840  142.3640 -100.0510 C   0  0  1  0  0  0  0  0  0  0  0  0
   38.7490  142.2010  -99.2800 C   0  0  1  0  0  0  0  0  0  0  0  0
   38.8040  143.1210  -98.0430 C   0  0  2  0  0  0  0  0  0  0  0  0
   38.6170  144.5970  -98.4700 C   0  0  1  0  0  0  0  0  0  0  0  0
   39.7260  145.1450  -99.1540 O   0  0  0  0  0  0  0  0  0  0  0  0
   37.1500  143.8400 -100.5010 C   0  0  1  0  0  0  0  0  0  0  0  0
   37.3310  144.7150  -99.2930 O   0  0  0  0  0  0  0  0  0  0  0  0
   38.1150  144.2660 -101.6860 C   0  0  0  0  0  0  0  0  0  0  0  0
   47.3810  151.4600  -93.8590 N   0  0  0  0  0  0  0  0  0  0  0  0
   41.0380  145.5370  -96.5050 O   0  0  0  0  0  0  0  0  0  0  0  0
   38.9110  140.8720  -98.8800 O   0  0  0  0  0  0  0  0  0  0  0  0
   37.2490  141.5160 -101.2180 O   0  0  0  0  0  0  0  0  0  0  0  0
   39.2190  148.5960 -100.9120 O   0  0  0  0  0  0  0  0  0  0  0  0
   45.1350  144.7570  -98.3550 O   0  0  0  0  0  0  0  0  0  0  0  0
   37.8720  145.6850 -102.1020 N   0  0  0  0  0  0  0  0  0  0  0  0
   40.0890  142.9470  -97.2650 N   0  0  0  0  0  0  0  0  0  0  0  0
   43.0234  149.1212  -96.4605 H   0  0  0  0  0  0  0  0  0  0  0  0
   42.1179  151.4262  -96.3619 H   0  0  0  0  0  0  0  0  0  0  0  0
   41.3286  150.5762  -98.2565 H   0  0  0  0  0  0  0  0  0  0  0  0
   42.2100  151.8379  -98.9350 H   0  0  0  0  0  0  0  0  0  0  0  0
   44.6677  152.2885  -97.8887 H   0  0  0  0  0  0  0  0  0  0  0  0
   42.8336  154.1641  -96.7893 H   0  0  0  0  0  0  0  0  0  0  0  0
   43.7092  152.9231  -95.0140 H   0  0  0  0  0  0  0  0  0  0  0  0
   45.5688  154.1641  -94.8648 H   0  0  0  0  0  0  0  0  0  0  0  0
   46.1440  151.2711  -95.9815 H   0  0  0  0  0  0  0  0  0  0  0  0
   45.7093  152.6879  -93.5293 H   0  0  0  0  0  0  0  0  0  0  0  0
   45.4771  150.9191  -93.1904 H   0  0  0  0  0  0  0  0  0  0  0  0
   47.1216  146.1890  -99.4061 H   0  0  0  0  0  0  0  0  0  0  0  0
   48.1897  144.7514  -97.0464 H   0  0  0  0  0  0  0  0  0  0  0  0
   47.6651  144.0482  -98.4815 H   0  0  0  0  0  0  0  0  0  0  0  0
   45.8526  145.7216  -96.6558 H   0  0  0  0  0  0  0  0  0  0  0  0
   44.7746  147.2587  -99.0916 H   0  0  0  0  0  0  0  0  0  0  0  0
   45.5668  148.2018  -96.2526 H   0  0  0  0  0  0  0  0  0  0  0  0
   46.8774  148.7385  -98.9654 H   0  0  0  0  0  0  0  0  0  0  0  0
   47.5389  149.6306  -96.2107 H   0  0  0  0  0  0  0  0  0  0  0  0
   48.5830  149.7912  -97.5196 H   0  0  0  0  0  0  0  0  0  0  0  0
   47.9448  147.1329  -96.5491 H   0  0  0  0  0  0  0  0  0  0  0  0
   48.8594  147.4852  -98.0543 H   0  0  0  0  0  0  0  0  0  0  0  0
   42.7427  145.4323  -98.4735 H   0  0  0  0  0  0  0  0  0  0  0  0
   40.9553  147.4430  -96.9046 H   0  0  0  0  0  0  0  0  0  0  0  0
   39.1600  146.9766  -98.3901 H   0  0  0  0  0  0  0  0  0  0  0  0
   40.5816  146.7019 -100.8015 H   0  0  0  0  0  0  0  0  0  0  0  0
   40.0944  149.1138  -99.1046 H   0  0  0  0  0  0  0  0  0  0  0  0
   41.1570  149.2601 -100.5185 H   0  0  0  0  0  0  0  0  0  0  0  0
   36.6271  142.0517  -99.3164 H   0  0  0  0  0  0  0  0  0  0  0  0
   39.5629  142.4873  -99.9624 H   0  0  0  0  0  0  0  0  0  0  0  0
   37.9800  142.8332  -97.3735 H   0  0  0  0  0  0  0  0  0  0  0  0
   38.5363  145.1986  -97.5526 H   0  0  0  0  0  0  0  0  0  0  0  0
   36.1314  143.9500 -100.9014 H   0  0  0  0  0  0  0  0  0  0  0  0
   39.1584  144.1638 -101.3529 H   0  0  0  0  0  0  0  0  0  0  0  0
   37.9162  143.6123 -102.5481 H   0  0  0  0  0  0  0  0  0  0  0  0
   47.7171  151.4131  -92.8865 H   0  0  0  0  0  0  0  0  0  0  0  0
   47.6068  150.5794  -94.3431 H   0  0  0  0  0  0  0  0  0  0  0  0
   41.0779  145.9607  -95.6111 H   0  0  0  0  0  0  0  0  0  0  0  0
   38.9169  140.8234  -97.8912 H   0  0  0  0  0  0  0  0  0  0  0  0
   37.1001  140.5804 -100.9306 H   0  0  0  0  0  0  0  0  0  0  0  0
   38.3995  148.5550 -100.3580 H   0  0  0  0  0  0  0  0  0  0  0  0
   44.7942  144.1430  -97.6572 H   0  0  0  0  0  0  0  0  0  0  0  0
   37.7708  146.2758 -101.2644 H   0  0  0  0  0  0  0  0  0  0  0  0
   38.6680  146.0192 -102.6638 H   0  0  0  0  0  0  0  0  0  0  0  0
   39.8857  142.9745  -96.2556 H   0  0  0  0  0  0  0  0  0  0  0  0
   40.5154  142.0406  -97.5047 H   0  0  0  0  0  0  0  0  0  0  0  0
  2  1  1  0
  3  1  1  0
  4  3  1  0
  5  3  1  0
  6  5  1  0
  7  5  1  0
  8  7  1  0
  9  7  1  0
 10  9  1  0
 10  1  1  0
 11  9  1  0
 13 12  1  0
 14 12  1  0
 15 14  1  0
 16 15  1  0
 17 15  1  0
 17  2  1  0
 18 17  1  0
 19 18  1  0
 20 12  1  0
 20 18  1  0
 21 16  1  0
 22 21  1  0
 23 22  1  0
 24 23  1  0
 25 21  1  0
 25 24  1  0
 26 24  1  0
 28 27  1  0
 29 28  1  0
 30 29  1  0
 31 30  1  0
 31 23  1  0
 32 27  1  0
 33 32  1  0
 33 30  1  0
 34 32  1  0
 35 11  1  0
 36 22  1  0
 37 28  1  0
 38 27  1  0
 39 26  1  0
 40 14  1  0
 41 34  1  0
 42 29  1  0
  1 43  1  1
  3 44  1  1
  4 45  1  0
  4 46  1  0
  5 47  1  6
  6 48  1  0
  7 49  1  1
  8 50  1  0
  9 51  1  6
 11 52  1  0
 11 53  1  0
 12 54  1  6
 13 55  1  0
 13 56  1  0
 14 57  1  1
 15 58  1  6
 17 59  1  1
 18 60  1  6
 19 61  1  0
 19 62  1  0
 20 63  1  0
 20 64  1  0
 21 65  1  6
 22 66  1  1
 23 67  1  1
 24 68  1  6
 26 69  1  0
 26 70  1  0
 27 71  1  1
 28 72  1  6
 29 73  1  1
 30 74  1  1
 32 75  1  6
 34 76  1  0
 34 77  1  0
 35 78  1  0
 35 79  1  0
 36 80  1  0
 37 81  1  0
 38 82  1  0
 39 83  1  0
 40 84  1  0
 41 85  1  0
 41 86  1  0
 42 87  1  0
 42 88  1  0
M  END
$$$$
