PDB_DB01273_97
     RDKit          3D

 29 32  0  0  0  0  0  0  0  0999 V2000
   -5.9020  -11.0620   14.5150 C   0  0  0  0  0  0  0  0  0  0  0  0
   -4.8210  -10.0210   14.3770 N   0  0  0  0  0  0  0  0  0  0  0  0
   -3.6630  -10.4460   13.4390 C   0  0  0  0  0  0  0  0  0  0  0  0
   -3.3660  -11.8620   13.6030 C   0  0  2  0  0  0  0  0  0  0  0  0
   -4.5570  -12.7000   13.3810 C   0  0  0  0  0  0  0  0  0  0  0  0
   -5.4390  -12.4640   14.5010 C   0  0  1  0  0  0  0  0  0  0  0  0
   -4.4430  -12.5280   15.4580 C   0  0  0  0  0  0  0  0  0  0  0  0
   -4.5900  -12.9360   16.8110 C   0  0  0  0  0  0  0  0  0  0  0  0
   -3.4620  -12.9600   17.6760 C   0  0  0  0  0  0  0  0  0  0  0  0
   -3.6360  -13.3340   19.0060 N   0  0  0  0  0  0  0  0  0  0  0  0
   -2.5720  -13.3620   19.8130 C   0  0  0  0  0  0  0  0  0  0  0  0
   -1.3160  -13.0090   19.3580 C   0  0  0  0  0  0  0  0  0  0  0  0
   -1.1630  -12.6280   18.0800 N   0  0  0  0  0  0  0  0  0  0  0  0
   -2.2570  -12.6020   17.2260 C   0  0  0  0  0  0  0  0  0  0  0  0
   -2.0850  -12.2050   15.8710 C   0  0  0  0  0  0  0  0  0  0  0  0
   -3.1970  -12.1870   14.9870 C   0  0  0  0  0  0  0  0  0  0  0  0
   -6.4222  -10.8863   15.4682 H   0  0  0  0  0  0  0  0  0  0  0  0
   -6.5464  -10.9476   13.6309 H   0  0  0  0  0  0  0  0  0  0  0  0
   -5.2444   -9.1604   14.0016 H   0  0  0  0  0  0  0  0  0  0  0  0
   -3.9544  -10.2559   12.3955 H   0  0  0  0  0  0  0  0  0  0  0  0
   -2.7661   -9.8629   13.6951 H   0  0  0  0  0  0  0  0  0  0  0  0
   -2.5116  -12.0307   12.9311 H   0  0  0  0  0  0  0  0  0  0  0  0
   -5.0521  -12.4154   12.4408 H   0  0  0  0  0  0  0  0  0  0  0  0
   -4.2866  -13.7635   13.3047 H   0  0  0  0  0  0  0  0  0  0  0  0
   -6.3270  -13.1100   14.5652 H   0  0  0  0  0  0  0  0  0  0  0  0
   -5.5787  -13.2340   17.1900 H   0  0  0  0  0  0  0  0  0  0  0  0
   -2.6982  -13.6723   20.8608 H   0  0  0  0  0  0  0  0  0  0  0  0
   -0.4504  -13.0399   20.0361 H   0  0  0  0  0  0  0  0  0  0  0  0
   -1.0894  -11.9114   15.5070 H   0  0  0  0  0  0  0  0  0  0  0  0
  1  2  1  0
  2  3  1  0
  3  4  1  0
  4  5  1  0
  1  6  1  0
  5  6  1  0
  6  7  1  0
  7  8  1  0
  8  9  2  0
  9 10  1  0
 10 11  2  0
 11 12  1  0
 12 13  2  0
  9 14  1  0
 13 14  1  0
 14 15  2  0
  4 16  1  0
  7 16  2  0
 15 16  1  0
  1 17  1  0
  1 18  1  0
  2 19  1  0
  3 20  1  0
  3 21  1  0
  4 22  1  6
  5 23  1  0
  5 24  1  0
  6 25  1  1
  8 26  1  0
 11 27  1  0
 12 28  1  0
 15 29  1  0
M  END
$$$$
