PDB_DB01104_99
     RDKit          3D

 37 39  0  0  0  0  0  0  0  0999 V2000
   28.0700  181.9560  143.4580 Cl  0  0  0  0  0  0  0  0  0  0  0  0
   29.7180  182.6310  143.6170 C   0  0  0  0  0  0  0  0  0  0  0  0
   30.0670  183.3610  144.7440 C   0  0  0  0  0  0  0  0  0  0  0  0
   28.8730  183.6290  146.0440 Cl  0  0  0  0  0  0  0  0  0  0  0  0
   30.6540  182.4280  142.6130 C   0  0  0  0  0  0  0  0  0  0  0  0
   31.9320  182.9500  142.7410 C   0  0  0  0  0  0  0  0  0  0  0  0
   32.2780  183.6760  143.8700 C   0  0  0  0  0  0  0  0  0  0  0  0
   31.3440  183.8840  144.8700 C   0  0  0  0  0  0  0  0  0  0  0  0
   33.7150  184.2740  144.0260 C   0  0  1  0  0  0  0  0  0  0  0  0
   34.7980  183.2140  143.4860 C   0  0  0  0  0  0  0  0  0  0  0  0
   35.0650  182.0390  144.1840 C   0  0  0  0  0  0  0  0  0  0  0  0
   36.0120  181.1400  143.6950 C   0  0  0  0  0  0  0  0  0  0  0  0
   36.7000  181.4190  142.5030 C   0  0  0  0  0  0  0  0  0  0  0  0
   36.4380  182.5950  141.8050 C   0  0  0  0  0  0  0  0  0  0  0  0
   35.4910  183.4940  142.2890 C   0  0  0  0  0  0  0  0  0  0  0  0
   35.1830  184.8390  141.4980 C   0  0  1  0  0  0  0  0  0  0  0  0
   35.0110  184.4820  140.0620 N   0  0  0  0  0  0  0  0  0  0  0  0
   33.7790  183.7340  139.8830 C   0  0  0  0  0  0  0  0  0  0  0  0
   33.9960  185.6780  141.9180 C   0  0  0  0  0  0  0  0  0  0  0  0
   33.6990  185.6350  143.4050 C   0  0  0  0  0  0  0  0  0  0  0  0
   30.3821  181.8530  141.7156 H   0  0  0  0  0  0  0  0  0  0  0  0
   32.6733  182.7876  141.9446 H   0  0  0  0  0  0  0  0  0  0  0  0
   31.6153  184.4642  145.7643 H   0  0  0  0  0  0  0  0  0  0  0  0
   34.0288  184.4351  145.0679 H   0  0  0  0  0  0  0  0  0  0  0  0
   34.5296  181.8204  145.1197 H   0  0  0  0  0  0  0  0  0  0  0  0
   36.2207  180.2100  144.2442 H   0  0  0  0  0  0  0  0  0  0  0  0
   37.4467  180.7077  142.1203 H   0  0  0  0  0  0  0  0  0  0  0  0
   36.9785  182.8137  140.8722 H   0  0  0  0  0  0  0  0  0  0  0  0
   36.0429  185.4852  141.7281 H   0  0  0  0  0  0  0  0  0  0  0  0
   34.9728  185.3431  139.4982 H   0  0  0  0  0  0  0  0  0  0  0  0
   33.3587  183.4788  140.8670 H   0  0  0  0  0  0  0  0  0  0  0  0
   33.0565  184.3460  139.3232 H   0  0  0  0  0  0  0  0  0  0  0  0
   33.9887  182.8106  139.3232 H   0  0  0  0  0  0  0  0  0  0  0  0
   34.1948  186.7225  141.6360 H   0  0  0  0  0  0  0  0  0  0  0  0
   33.1163  185.2588  141.4078 H   0  0  0  0  0  0  0  0  0  0  0  0
   32.7004  186.0682  143.5638 H   0  0  0  0  0  0  0  0  0  0  0  0
   34.5092  186.1982  143.8911 H   0  0  0  0  0  0  0  0  0  0  0  0
  1  2  1  0
  2  3  2  0
  3  4  1  0
  2  5  1  0
  5  6  2  0
  6  7  1  0
  3  8  1  0
  7  8  2  0
  7  9  1  0
  9 10  1  0
 10 11  2  0
 11 12  1  0
 12 13  2  0
 13 14  1  0
 10 15  1  0
 14 15  2  0
 15 16  1  0
 16 17  1  0
 17 18  1  0
 16 19  1  0
  9 20  1  0
 19 20  1  0
  5 21  1  0
  6 22  1  0
  8 23  1  0
  9 24  1  1
 11 25  1  0
 12 26  1  0
 13 27  1  0
 14 28  1  0
 16 29  1  6
 17 30  1  0
 18 31  1  0
 18 32  1  0
 18 33  1  0
 19 34  1  0
 19 35  1  0
 20 36  1  0
 20 37  1  0
M  END
>  <PDBID>  (1) 
6AWO

>  <PDB ID>  (1) 
6AWO

>  <Generic Name>  (1) 
Sertraline

>  <Brand Name>  (1) 
Act Sertraline#Apo-sertraline#Auro-sertraline#Bio-sertraline#Dom-sertraline#Gd-sertraline#Ipg-sertraline#Jamp-sertraline#Mar-sertraline#Mint-sertraline#Mylan-sertraline#Nu-sertraline Capsules#PHL-sertraline#PMS-sertraline#Priva-sertraline#Q-sertraline#Ran-sertraline#Ratio-sertraline#Riva-sertraline#Sandoz Sertraline#Sertraline#Sertraline Hydrochloride#Sertraline Hydrochloride Tablets#Sertraline-100#Sertraline-25#Sertraline-50#Teva-sertraline#Van-sertraline#Zoloft#Zoloft Cap 100mg#Zoloft Cap 50mg#Lustral

>  <DrugBank ID>  (1) 
DB01104

>  <ATC Codes>  (1) 
N06AB06

>  <Ligand ID>  (1) 
SRE

>  <Target Name>  (1) 
Sodium-dependent serotonin transporter

>  <UniProt ID>  (1) 
P31645

>  <PDB ID.1>  (1) 
6AWO

>  <Seq. Identity>  (1) 
99%

$$$$
