PDB_DB00282_98
     RDKit          3D

 28 27  0  0  0  0  0  0  0  0999 V2000
  -35.6020   15.1340    9.2390 P   0  0  0  0  0  5  0  0  0  0  0  0
  -35.6080   16.5310    9.8930 O   0  0  0  0  0  0  0  0  0  0  0  0
  -35.6930   14.1370   10.3290 O   0  0  0  0  0  0  0  0  0  0  0  0
  -36.8080   14.9970    8.2480 O   0  0  0  0  0  0  0  0  0  0  0  0
  -34.0570   14.8860    8.2500 C   0  0  2  0  0  0  0  0  0  0  0  0
  -33.9160   16.1760    6.9800 P   0  0  0  0  0  5  0  0  0  0  0  0
  -35.1740   16.1280    6.0210 O   0  0  0  0  0  0  0  0  0  0  0  0
  -33.7600   17.6010    7.6280 O   0  0  0  0  0  0  0  0  0  0  0  0
  -32.7180   15.9490    6.0950 O   0  0  0  0  0  0  0  0  0  0  0  0
  -34.1570   13.6470    7.6390 O   0  0  0  0  0  0  0  0  0  0  0  0
  -32.8760   14.9480    9.1910 C   0  0  0  0  0  0  0  0  0  0  0  0
  -31.4690   14.6880    8.6720 C   0  0  0  0  0  0  0  0  0  0  0  0
  -31.3020   13.7760    7.5310 N   0  0  0  0  0  0  0  0  0  0  0  0
    0.0000    0.0000    0.0000 H   0  0  0  0  0  0  0  0  0  0  0  0
  -35.6076   16.4341   10.8782 H   0  0  0  0  0  0  0  0  0  0  0  0
  -35.6508   14.5993   11.2034 H   0  0  0  0  0  0  0  0  0  0  0  0
  -37.6485   14.9015    8.7623 H   0  0  0  0  0  0  0  0  0  0  0  0
    0.0000    0.0000    0.0000 H   0  0  0  0  0  0  0  0  0  0  0  0
  -36.0015   16.0964    6.5635 H   0  0  0  0  0  0  0  0  0  0  0  0
  -33.7691   17.5177    8.6144 H   0  0  0  0  0  0  0  0  0  0  0  0
  -31.9169   15.7972    6.6565 H   0  0  0  0  0  0  0  0  0  0  0  0
  -34.2139   12.9414    8.3311 H   0  0  0  0  0  0  0  0  0  0  0  0
  -32.8711   15.9580    9.6267 H   0  0  0  0  0  0  0  0  0  0  0  0
  -33.0527   14.1016    9.8710 H   0  0  0  0  0  0  0  0  0  0  0  0
  -31.0468   15.6597    8.3761 H   0  0  0  0  0  0  0  0  0  0  0  0
  -30.9643   14.1752    9.5041 H   0  0  0  0  0  0  0  0  0  0  0  0
  -31.1273   12.8217    7.8770 H   0  0  0  0  0  0  0  0  0  0  0  0
  -32.1581   13.7822    6.9583 H   0  0  0  0  0  0  0  0  0  0  0  0
  1  2  1  0
  1  3  1  0
  1  4  1  0
  1  5  1  0
  5  6  1  0
  6  7  1  0
  6  8  1  0
  6  9  1  0
  5 10  1  6
  5 11  1  0
 11 12  1  0
 12 13  1  0
  1 14  1  0
  2 15  1  0
  3 16  1  0
  4 17  1  0
  6 18  1  0
  7 19  1  0
  8 20  1  6
  9 21  1  0
 10 22  1  0
 11 23  1  0
 11 24  1  0
 12 25  1  0
 12 26  1  0
 13 27  1  0
 13 28  1  0
M  END
>  <PDBID>  (1) 
4KPJ

>  <PDB ID>  (1) 
4KPJ

>  <Generic Name>  (1) 
Pamidronate

>  <Brand Name>  (1) 
Aredia#Aredia 30mg#Aredia 90mg#Aredia Liq Inj 3mg/ml#PMS-pamidronate#Pamidronate Disodium#Pamidronate Disodium Omega 3 mg/ml#Pamidronate Disodium Omega 6 mg/ml#Pamidronate Disodium Omega 9 mg/ml#Pamidronate Disodium for Injection#Val-pamidronate Disodium#Aminomux#Pamimed

>  <DrugBank ID>  (1) 
DB00282

>  <ATC Codes>  (1) 
M05BA03

>  <Ligand ID>  (1) 
210

>  <Target Name>  (1) 
Farnesyl pyrophosphate synthase

>  <UniProt ID>  (1) 
P14324

>  <PDB ID.1>  (1) 
4KPJ

>  <Seq. Identity>  (1) 
99%

$$$$
