PDB_DB01051_97
     RDKit          3D

 80 83  0  0  0  0  0  0  0  0999 V2000
   32.2190   -1.9060  -39.9790 C   0  0  0  0  0  0  0  0  0  0  0  0
   30.8200   -2.1610  -39.9420 O   0  0  0  0  0  0  0  0  0  0  0  0
   30.3720   -2.4420  -35.5960 N   0  0  0  0  0  0  0  0  0  0  0  0
   29.3970   -2.0460  -36.4090 C   0  0  0  0  0  0  0  0  0  0  0  0
   28.2250   -2.3510  -36.3000 O   0  0  0  0  0  0  0  0  0  0  0  0
   29.8820   -1.2370  -37.3790 O   0  0  0  0  0  0  0  0  0  0  0  0
   30.0000   -1.0010  -39.8180 C   0  0  2  0  0  0  0  0  0  0  0  0
   29.1000   -1.0880  -38.5830 C   0  0  2  0  0  0  0  0  0  0  0  0
   28.1620    0.1140  -38.4830 C   0  0  1  0  0  0  0  0  0  0  0  0
   28.8370    1.3500  -38.2480 O   0  0  0  0  0  0  0  0  0  0  0  0
   27.2770    0.1930  -39.7250 C   0  0  1  0  0  0  0  0  0  0  0  0
   28.0100    0.0930  -40.9530 O   0  0  0  0  0  0  0  0  0  0  0  0
   29.1190   -0.8320  -41.1210 C   0  0  0  0  0  0  0  0  0  0  0  0
   28.5640   -2.1530  -41.6310 C   0  0  0  0  0  0  0  0  0  0  0  0
   29.9100   -0.1320  -42.2090 C   0  0  0  0  0  0  0  0  0  0  0  0
   26.3510   -0.8650  -39.6140 O   0  0  0  0  0  0  0  0  0  0  0  0
   25.1770   -0.8370  -40.3280 C   0  0  0  0  0  0  0  0  0  0  0  0
   24.3350   -1.9320  -40.0820 C   0  0  0  0  0  0  0  0  0  0  0  0
   24.7060   -2.9820  -39.0610 C   0  0  0  0  0  0  0  0  0  0  0  0
   23.1380   -1.9920  -40.7950 C   0  0  0  0  0  0  0  0  0  0  0  0
   22.7760   -1.0170  -41.7330 C   0  0  0  0  0  0  0  0  0  0  0  0
   23.6440    0.0600  -41.9420 C   0  0  0  0  0  0  0  0  0  0  0  0
   24.8360    0.1570  -41.2450 C   0  0  0  0  0  0  0  0  0  0  0  0
   22.3050   -3.0560  -40.4930 O   0  0  0  0  0  0  0  0  0  0  0  0
   21.0740   -3.2370  -41.0890 C   0  0  0  0  0  0  0  0  0  0  0  0
   20.4340   -4.1740  -40.6820 O   0  0  0  0  0  0  0  0  0  0  0  0
   20.6690   -2.2140  -42.1500 C   0  0  0  0  0  0  0  0  0  0  0  0
   21.5010   -1.1660  -42.4260 C   0  0  0  0  0  0  0  0  0  0  0  0
   21.2330   -0.2620  -43.3660 O   0  0  0  0  0  0  0  0  0  0  0  0
   19.4910   -2.5740  -42.8480 N   0  0  0  0  0  0  0  0  0  0  0  0
   19.1820   -3.8270  -43.3250 C   0  0  0  0  0  0  0  0  0  0  0  0
   18.2030   -4.4570  -42.9340 O   0  0  0  0  0  0  0  0  0  0  0  0
   20.1500   -4.4120  -44.3060 C   0  0  0  0  0  0  0  0  0  0  0  0
   21.0850   -3.6010  -44.9470 C   0  0  0  0  0  0  0  0  0  0  0  0
   22.1060   -4.1400  -45.7260 C   0  0  0  0  0  0  0  0  0  0  0  0
   22.1540   -5.5300  -45.8900 C   0  0  0  0  0  0  0  0  0  0  0  0
   23.1690   -6.1030  -46.5950 O   0  0  0  0  0  0  0  0  0  0  0  0
   21.2000   -6.3440  -45.2870 C   0  0  0  0  0  0  0  0  0  0  0  0
   20.2100   -5.7900  -44.4980 C   0  0  0  0  0  0  0  0  0  0  0  0
   23.1440   -3.1900  -46.2860 C   0  0  0  0  0  0  0  0  0  0  0  0
   24.5280   -3.6150  -45.8740 C   0  0  0  0  0  0  0  0  0  0  0  0
   25.3740   -2.9880  -45.0670 C   0  0  0  0  0  0  0  0  0  0  0  0
   25.0820   -1.6810  -44.4030 C   0  0  0  0  0  0  0  0  0  0  0  0
   26.7240   -3.5450  -44.7570 C   0  0  0  0  0  0  0  0  0  0  0  0
   32.6061   -1.8354  -38.9518 H   0  0  0  0  0  0  0  0  0  0  0  0
   32.7274   -2.7263  -40.5069 H   0  0  0  0  0  0  0  0  0  0  0  0
   32.4053   -0.9591  -40.5069 H   0  0  0  0  0  0  0  0  0  0  0  0
   31.3402   -2.1336  -35.7645 H   0  0  0  0  0  0  0  0  0  0  0  0
   30.1590   -3.0571  -34.7978 H   0  0  0  0  0  0  0  0  0  0  0  0
   30.6541   -0.1247  -39.6989 H   0  0  0  0  0  0  0  0  0  0  0  0
   28.4744   -1.9857  -38.6955 H   0  0  0  0  0  0  0  0  0  0  0  0
   27.5321   -0.0484  -37.5959 H   0  0  0  0  0  0  0  0  0  0  0  0
   28.9194    1.5008  -37.2730 H   0  0  0  0  0  0  0  0  0  0  0  0
   26.7868    1.1769  -39.7650 H   0  0  0  0  0  0  0  0  0  0  0  0
   28.2955   -2.7921  -40.7769 H   0  0  0  0  0  0  0  0  0  0  0  0
   27.6695   -1.9633  -42.2425 H   0  0  0  0  0  0  0  0  0  0  0  0
   29.3256   -2.6591  -42.2425 H   0  0  0  0  0  0  0  0  0  0  0  0
   30.6585    0.5304  -41.7497 H   0  0  0  0  0  0  0  0  0  0  0  0
   30.4179   -0.8819  -42.8333 H   0  0  0  0  0  0  0  0  0  0  0  0
   29.2274    0.4633  -42.8333 H   0  0  0  0  0  0  0  0  0  0  0  0
   24.5625   -2.5760  -38.0488 H   0  0  0  0  0  0  0  0  0  0  0  0
   24.0659   -3.8665  -39.1954 H   0  0  0  0  0  0  0  0  0  0  0  0
   25.7596   -3.2680  -39.1954 H   0  0  0  0  0  0  0  0  0  0  0  0
   23.3758    0.8400  -42.6698 H   0  0  0  0  0  0  0  0  0  0  0  0
   25.5087    1.0110  -41.4130 H   0  0  0  0  0  0  0  0  0  0  0  0
   20.3830   -0.3104  -43.8713 H   0  0  0  0  0  0  0  0  0  0  0  0
   18.8006   -1.8279  -43.0143 H   0  0  0  0  0  0  0  0  0  0  0  0
   21.0148   -2.5090  -44.8349 H   0  0  0  0  0  0  0  0  0  0  0  0
   23.1994   -7.0860  -46.7087 H   0  0  0  0  0  0  0  0  0  0  0  0
   21.2341   -7.4329  -45.4390 H   0  0  0  0  0  0  0  0  0  0  0  0
   19.4646   -6.4416  -44.0186 H   0  0  0  0  0  0  0  0  0  0  0  0
   23.0780   -3.1888  -47.3840 H   0  0  0  0  0  0  0  0  0  0  0  0
   22.9508   -2.1813  -45.8922 H   0  0  0  0  0  0  0  0  0  0  0  0
   24.8832   -4.5668  -46.2958 H   0  0  0  0  0  0  0  0  0  0  0  0
   25.1108   -1.8100  -43.3110 H   0  0  0  0  0  0  0  0  0  0  0  0
   25.8367   -0.9398  -44.7047 H   0  0  0  0  0  0  0  0  0  0  0  0
   24.0836   -1.3314  -44.7047 H   0  0  0  0  0  0  0  0  0  0  0  0
   26.8565   -3.5997  -43.6664 H   0  0  0  0  0  0  0  0  0  0  0  0
   26.8125   -4.5531  -45.1881 H   0  0  0  0  0  0  0  0  0  0  0  0
   27.4977   -2.8926  -45.1881 H   0  0  0  0  0  0  0  0  0  0  0  0
  1  2  1  0
  3  4  1  0
  4  5  2  0
  4  6  1  0
  2  7  1  0
  6  8  1  0
  7  8  1  0
  8  9  1  0
  9 10  1  0
  9 11  1  0
 11 12  1  0
  7 13  1  0
 12 13  1  0
 13 14  1  0
 13 15  1  0
 11 16  1  0
 16 17  1  0
 17 18  2  0
 18 19  1  0
 18 20  1  0
 20 21  2  0
 21 22  1  0
 17 23  1  0
 22 23  2  0
 20 24  1  0
 24 25  1  0
 25 26  2  0
 25 27  1  0
 21 28  1  0
 27 28  2  0
 28 29  1  0
 27 30  1  0
 30 31  1  0
 31 32  2  0
 31 33  1  0
 33 34  2  0
 34 35  1  0
 35 36  2  0
 36 37  1  0
 36 38  1  0
 33 39  1  0
 38 39  2  0
 35 40  1  0
 40 41  1  0
 41 42  2  3
 42 43  1  0
 42 44  1  0
  1 45  1  0
  1 46  1  0
  1 47  1  0
  3 48  1  0
  3 49  1  0
  7 50  1  1
  8 51  1  6
  9 52  1  1
 10 53  1  0
 11 54  1  6
 14 55  1  0
 14 56  1  0
 14 57  1  0
 15 58  1  0
 15 59  1  0
 15 60  1  0
 19 61  1  0
 19 62  1  0
 19 63  1  0
 22 64  1  0
 23 65  1  0
 29 66  1  0
 30 67  1  0
 34 68  1  0
 37 69  1  0
 38 70  1  0
 39 71  1  0
 40 72  1  0
 40 73  1  0
 41 74  1  0
 43 75  1  0
 43 76  1  0
 43 77  1  0
 44 78  1  0
 44 79  1  0
 44 80  1  0
M  END
$$$$
