PDB_DB06626_94
     RDKit          3D

 46 49  0  0  0  0  0  0  0  0999 V2000
   72.1320   48.2440   27.6910 O   0  0  0  0  0  0  0  0  0  0  0  0
   73.0800   48.2910   26.9330 C   0  0  0  0  0  0  0  0  0  0  0  0
   73.6580   49.5520   26.5950 N   0  0  0  0  0  0  0  0  0  0  0  0
   73.1090   50.7660   27.1630 C   0  0  0  0  0  0  0  0  0  0  0  0
   73.6380   47.0380   26.3520 C   0  0  0  0  0  0  0  0  0  0  0  0
   73.9390   46.9840   24.9970 C   0  0  0  0  0  0  0  0  0  0  0  0
   74.4580   45.8240   24.4450 C   0  0  0  0  0  0  0  0  0  0  0  0
   74.6800   44.7060   25.2490 C   0  0  0  0  0  0  0  0  0  0  0  0
   73.8580   45.9140   27.1640 C   0  0  0  0  0  0  0  0  0  0  0  0
   74.3770   44.7590   26.6120 C   0  0  0  0  0  0  0  0  0  0  0  0
   73.4810   45.9670   28.9100 S   0  0  0  0  0  0  0  0  0  0  0  0
   74.5880   44.8280   29.7460 C   0  0  0  0  0  0  0  0  0  0  0  0
   75.9700   44.9100   29.5180 C   0  0  0  0  0  0  0  0  0  0  0  0
   76.8480   44.0170   30.1650 C   0  0  0  0  0  0  0  0  0  0  0  0
   74.0810   43.8610   30.6070 C   0  0  0  0  0  0  0  0  0  0  0  0
   74.9790   42.9490   31.2690 C   0  0  0  0  0  0  0  0  0  0  0  0
   74.7640   41.9110   32.1600 N   0  0  0  0  0  0  0  0  0  0  0  0
   75.9760   41.3510   32.4910 N   0  0  0  0  0  0  0  0  0  0  0  0
   76.9550   42.0030   31.8360 C   0  0  0  0  0  0  0  0  0  0  0  0
   76.3320   43.0300   31.0480 C   0  0  0  0  0  0  0  0  0  0  0  0
   78.4280   41.6980   31.9270 C   0  0  0  0  0  0  0  0  0  0  0  0
   79.3350   42.3310   31.1170 C   0  0  0  0  0  0  0  0  0  0  0  0
   80.7790   41.9120   31.1660 C   0  0  0  0  0  0  0  0  0  0  0  0
   81.6710   42.4940   30.3510 N   0  0  0  0  0  0  0  0  0  0  0  0
   82.9710   42.1460   30.3640 C   0  0  0  0  0  0  0  0  0  0  0  0
   83.4070   41.1640   31.2370 C   0  0  0  0  0  0  0  0  0  0  0  0
   82.5060   40.5460   32.0910 C   0  0  0  0  0  0  0  0  0  0  0  0
   81.1710   40.9250   32.0560 C   0  0  0  0  0  0  0  0  0  0  0  0
   74.4606   49.5981   25.9511 H   0  0  0  0  0  0  0  0  0  0  0  0
   73.1376   50.7028   28.2608 H   0  0  0  0  0  0  0  0  0  0  0  0
   73.7046   51.6287   26.8298 H   0  0  0  0  0  0  0  0  0  0  0  0
   72.0679   50.8885   26.8298 H   0  0  0  0  0  0  0  0  0  0  0  0
   73.7649   47.8643   24.3607 H   0  0  0  0  0  0  0  0  0  0  0  0
   74.6952   45.7847   23.3716 H   0  0  0  0  0  0  0  0  0  0  0  0
   75.0925   43.7850   24.8112 H   0  0  0  0  0  0  0  0  0  0  0  0
   74.5523   43.8783   27.2473 H   0  0  0  0  0  0  0  0  0  0  0  0
   76.3691   45.6726   28.8330 H   0  0  0  0  0  0  0  0  0  0  0  0
   77.9314   44.0839   29.9867 H   0  0  0  0  0  0  0  0  0  0  0  0
   72.9972   43.7924   30.7823 H   0  0  0  0  0  0  0  0  0  0  0  0
   73.8465   41.6078   32.5166 H   0  0  0  0  0  0  0  0  0  0  0  0
   78.7817   40.9543   32.6563 H   0  0  0  0  0  0  0  0  0  0  0  0
   79.0110   43.1351   30.4399 H   0  0  0  0  0  0  0  0  0  0  0  0
   83.6826   42.6388   29.6852 H   0  0  0  0  0  0  0  0  0  0  0  0
   84.4680   40.8740   31.2532 H   0  0  0  0  0  0  0  0  0  0  0  0
   82.8450   39.7651   32.7876 H   0  0  0  0  0  0  0  0  0  0  0  0
   80.4369   40.4499   32.7234 H   0  0  0  0  0  0  0  0  0  0  0  0
  1  2  2  0
  2  3  1  0
  3  4  1  0
  2  5  1  0
  5  6  2  0
  6  7  1  0
  7  8  2  0
  5  9  1  0
  8 10  1  0
  9 10  2  0
  9 11  1  0
 11 12  1  0
 12 13  2  0
 13 14  1  0
 12 15  1  0
 15 16  2  0
 16 17  1  0
 17 18  1  0
 18 19  2  0
 14 20  2  0
 16 20  1  0
 19 20  1  0
 19 21  1  0
 21 22  2  0
 22 23  1  0
 23 24  2  0
 24 25  1  0
 25 26  2  0
 26 27  1  0
 23 28  1  0
 27 28  2  0
  3 29  1  0
  4 30  1  0
  4 31  1  0
  4 32  1  0
  6 33  1  0
  7 34  1  0
  8 35  1  0
 10 36  1  0
 13 37  1  0
 14 38  1  0
 15 39  1  0
 17 40  1  0
 21 41  1  0
 22 42  1  0
 25 43  1  0
 26 44  1  0
 27 45  1  0
 28 46  1  0
M  END
$$$$
