PDB_DB01024_97
     RDKit          3D

110112  0  0  0  0  0  0  0  0999 V2000
   -0.2390   35.1770   15.0950 C   0  0  1  0  0  0  0  0  0  0  0  0
   -1.6690   30.6600   11.7130 C   0  0  0  0  0  0  0  0  0  0  0  0
   -1.7900   29.3920   11.2280 C   0  0  0  0  0  0  0  0  0  0  0  0
   -3.0260   28.5430   11.4540 C   0  0  0  0  0  0  0  0  0  0  0  0
   -2.7870   27.4540   12.5090 C   0  0  0  0  0  0  0  0  0  0  0  0
   -2.8520   28.1450   13.8500 C   0  0  0  0  0  0  0  0  0  0  0  0
    3.2550   31.6860   15.1590 C   0  0  0  0  0  0  0  0  0  0  0  0
    1.6350   29.2960   13.5560 C   0  0  0  0  0  0  0  0  0  0  0  0
   -0.6890   28.7770   10.4250 C   0  0  0  0  0  0  0  0  0  0  0  0
    1.6850   34.3230   16.1760 C   0  0  0  0  0  0  0  0  0  0  0  0
    1.3430   33.4450   15.0120 C   0  0  0  0  0  0  0  0  0  0  0  0
    2.0010   32.2500   14.5370 C   0  0  1  0  0  0  0  0  0  0  0  0
    1.4190   31.6150   13.3260 C   0  0  0  0  0  0  0  0  0  0  0  0
    0.1960   32.1330   12.6610 C   0  0  0  0  0  0  0  0  0  0  0  0
   -0.4650   33.3160   13.1790 C   0  0  0  0  0  0  0  0  0  0  0  0
    0.1320   33.9440   14.3720 C   0  0  1  0  0  0  0  0  0  0  0  0
   -0.4090   31.4630   11.4400 C   0  0  0  0  0  0  0  0  0  0  0  0
   -1.1050   35.9580   14.8350 O   0  0  0  0  0  0  0  0  0  0  0  0
    0.7330   35.4040   16.1240 O   0  0  0  0  0  0  0  0  0  0  0  0
    2.0480   30.4790   12.8690 O   0  0  0  0  0  0  0  0  0  0  0  0
   -1.5790   33.8210   12.6050 O   0  0  0  0  0  0  0  0  0  0  0  0
   -3.7780   28.9160   14.0470 O   0  0  0  0  0  0  0  0  0  0  0  0
   -2.0020   27.9340   14.7370 O   0  0  0  0  0  0  0  0  0  0  0  0
   25.0640   61.8990  -33.1700 C   0  0  0  0  0  0  0  0  0  0  0  0
   29.6970   63.5790  -29.7690 C   0  0  0  0  0  0  0  0  0  0  0  0
   31.0120   63.6100  -29.3740 C   0  0  0  0  0  0  0  0  0  0  0  0
   31.8520   64.8150  -29.6930 C   0  0  0  0  0  0  0  0  0  0  0  0
   32.8660   64.4740  -30.7790 C   0  0  0  0  0  0  0  0  0  0  0  0
   32.1310   64.4640  -32.0890 C   0  0  0  0  0  0  0  0  0  0  0  0
   28.7890   58.6860  -33.0890 C   0  0  0  0  0  0  0  0  0  0  0  0
   31.0850   60.4350  -31.4880 C   0  0  0  0  0  0  0  0  0  0  0  0
   31.7260   62.4920  -28.6460 C   0  0  0  0  0  0  0  0  0  0  0  0
   26.0390   59.9870  -34.1780 C   0  0  0  0  0  0  0  0  0  0  0  0
   26.8840   60.4540  -33.0120 C   0  0  0  0  0  0  0  0  0  0  0  0
   28.1290   59.8800  -32.4820 C   0  0  0  0  0  0  0  0  0  0  0  0
   28.7170   60.5310  -31.3030 C   0  0  1  0  0  0  0  0  0  0  0  0
   28.1200   61.7570  -30.6790 C   0  0  0  0  0  0  0  0  0  0  0  0
   26.8780   62.3100  -31.2460 C   0  0  0  0  0  0  0  0  0  0  0  0
   26.3070   61.6340  -32.4170 C   0  0  1  0  0  0  0  0  0  0  0  0
   28.7710   62.4040  -29.4750 C   0  0  0  0  0  0  0  0  0  0  0  0
   24.2710   62.7570  -32.9420 O   0  0  0  0  0  0  0  0  0  0  0  0
   24.9250   60.9210  -34.2340 O   0  0  0  0  0  0  0  0  0  0  0  0
   29.8830   59.9520  -30.8840 O   0  0  0  0  0  0  0  0  0  0  0  0
   26.2240   63.3980  -30.7870 O   0  0  0  0  0  0  0  0  0  0  0  0
   31.3160   65.3940  -32.2830 O   0  0  0  0  0  0  0  0  0  0  0  0
   32.3410   63.5490  -32.9340 O   0  0  0  0  0  0  0  0  0  0  0  0
    0.4654   35.7520   14.4759 H   0  0  0  0  0  0  0  0  0  0  0  0
   -2.5091   31.2385   11.3012 H   0  0  0  0  0  0  0  0  0  0  0  0
   -1.6415   30.5112   12.8025 H   0  0  0  0  0  0  0  0  0  0  0  0
   -1.3484   28.9956   12.1542 H   0  0  0  0  0  0  0  0  0  0  0  0
   -3.8466   29.1925   11.7929 H   0  0  0  0  0  0  0  0  0  0  0  0
   -3.2782   28.0484   10.5044 H   0  0  0  0  0  0  0  0  0  0  0  0
   -3.5654   26.6797   12.4409 H   0  0  0  0  0  0  0  0  0  0  0  0
   -1.8165   26.9580   12.3603 H   0  0  0  0  0  0  0  0  0  0  0  0
   -2.2470   28.9732   13.4526 H   0  0  0  0  0  0  0  0  0  0  0  0
    3.1698   31.7243   16.2550 H   0  0  0  0  0  0  0  0  0  0  0  0
    3.3862   30.6422   14.8377 H   0  0  0  0  0  0  0  0  0  0  0  0
    4.1230   32.2804   14.8377 H   0  0  0  0  0  0  0  0  0  0  0  0
    1.6934   29.4632   14.6417 H   0  0  0  0  0  0  0  0  0  0  0  0
    0.5989   29.0531   13.2776 H   0  0  0  0  0  0  0  0  0  0  0  0
    2.2948   28.4611   13.2776 H   0  0  0  0  0  0  0  0  0  0  0  0
    0.0673   28.3545   11.1029 H   0  0  0  0  0  0  0  0  0  0  0  0
   -1.1001   27.9779    9.7907 H   0  0  0  0  0  0  0  0  0  0  0  0
   -0.2241   29.5461    9.7907 H   0  0  0  0  0  0  0  0  0  0  0  0
    1.5873   33.7676   17.1204 H   0  0  0  0  0  0  0  0  0  0  0  0
    2.7226   34.6851   16.1280 H   0  0  0  0  0  0  0  0  0  0  0  0
    1.9851   34.0571   14.3616 H   0  0  0  0  0  0  0  0  0  0  0  0
    1.3890   31.6418   15.2193 H   0  0  0  0  0  0  0  0  0  0  0  0
    0.7984   30.9681   13.9635 H   0  0  0  0  0  0  0  0  0  0  0  0
   -0.4257   31.5006   13.3118 H   0  0  0  0  0  0  0  0  0  0  0  0
   -1.0910   32.6832   13.8253 H   0  0  0  0  0  0  0  0  0  0  0  0
    0.7440   34.5363   13.6759 H   0  0  0  0  0  0  0  0  0  0  0  0
    0.3441   30.7838   11.0140 H   0  0  0  0  0  0  0  0  0  0  0  0
   -0.7002   32.2727   10.7548 H   0  0  0  0  0  0  0  0  0  0  0  0
   -1.4950   36.3097   15.6742 H   0  0  0  0  0  0  0  0  0  0  0  0
   -2.2122   34.1081   13.3098 H   0  0  0  0  0  0  0  0  0  0  0  0
   -3.9125   29.0280   15.0214 H   0  0  0  0  0  0  0  0  0  0  0  0
   -2.4216   28.0382   15.6276 H   0  0  0  0  0  0  0  0  0  0  0  0
   24.5155   61.2154  -32.5052 H   0  0  0  0  0  0  0  0  0  0  0  0
   29.2225   64.4607  -29.3135 H   0  0  0  0  0  0  0  0  0  0  0  0
   29.7963   63.5137  -30.8626 H   0  0  0  0  0  0  0  0  0  0  0  0
   31.3094   63.1501  -30.3280 H   0  0  0  0  0  0  0  0  0  0  0  0
   31.2015   65.6291  -30.0453 H   0  0  0  0  0  0  0  0  0  0  0  0
   32.3883   65.1304  -28.7859 H   0  0  0  0  0  0  0  0  0  0  0  0
   33.6635   65.2313  -30.8006 H   0  0  0  0  0  0  0  0  0  0  0  0
   33.3300   63.4957  -30.5853 H   0  0  0  0  0  0  0  0  0  0  0  0
   31.3321   63.8584  -31.6362 H   0  0  0  0  0  0  0  0  0  0  0  0
   29.1550   58.0238  -32.2905 H   0  0  0  0  0  0  0  0  0  0  0  0
   28.0630   58.1428  -33.7118 H   0  0  0  0  0  0  0  0  0  0  0  0
   29.6351   59.0118  -33.7118 H   0  0  0  0  0  0  0  0  0  0  0  0
   31.8000   60.7223  -30.7030 H   0  0  0  0  0  0  0  0  0  0  0  0
   31.5249   59.6438  -32.1129 H   0  0  0  0  0  0  0  0  0  0  0  0
   30.8552   61.3106  -32.1129 H   0  0  0  0  0  0  0  0  0  0  0  0
   31.6305   62.6416  -27.5604 H   0  0  0  0  0  0  0  0  0  0  0  0
   31.2763   61.5274  -28.9242 H   0  0  0  0  0  0  0  0  0  0  0  0
   32.7902   62.4943  -28.9242 H   0  0  0  0  0  0  0  0  0  0  0  0
   26.6181   60.0196  -35.1126 H   0  0  0  0  0  0  0  0  0  0  0  0
   25.7008   58.9478  -34.0530 H   0  0  0  0  0  0  0  0  0  0  0  0
   26.3003   59.8149  -32.3331 H   0  0  0  0  0  0  0  0  0  0  0  0
   28.7133   60.5383  -33.1416 H   0  0  0  0  0  0  0  0  0  0  0  0
   29.3318   61.1644  -31.9594 H   0  0  0  0  0  0  0  0  0  0  0  0
   28.7113   62.3900  -31.3569 H   0  0  0  0  0  0  0  0  0  0  0  0
   27.4694   62.9587  -31.9089 H   0  0  0  0  0  0  0  0  0  0  0  0
   25.7454   61.0038  -31.7117 H   0  0  0  0  0  0  0  0  0  0  0  0
   29.3592   61.6333  -28.9553 H   0  0  0  0  0  0  0  0  0  0  0  0
   27.9456   62.8181  -28.8773 H   0  0  0  0  0  0  0  0  0  0  0  0
   24.1725   62.8636  -31.9627 H   0  0  0  0  0  0  0  0  0  0  0  0
   26.2276   63.3920  -29.7970 H   0  0  0  0  0  0  0  0  0  0  0  0
   31.0058   65.7480  -31.4120 H   0  0  0  0  0  0  0  0  0  0  0  0
   32.5355   62.7013  -32.4610 H   0  0  0  0  0  0  0  0  0  0  0  0
  2  3  1  0
  3  4  1  0
  4  5  1  0
  5  6  1  0
  3  9  1  0
 10 11  1  0
  7 12  1  0
 11 12  1  0
 12 13  1  0
 13 14  1  0
 14 15  1  0
  1 16  1  0
 11 16  1  0
 15 16  1  0
  2 17  1  0
 14 17  1  0
  1 18  1  0
  1 19  1  0
 10 19  1  0
  8 20  1  0
 13 20  1  0
 15 21  1  0
  6 22  1  0
  6 23  1  0
 25 26  1  0
 26 27  1  0
 27 28  1  0
 28 29  1  0
 26 32  1  0
 33 34  1  0
 30 35  1  0
 34 35  1  0
 35 36  1  0
 36 37  1  0
 37 38  1  0
 24 39  1  0
 34 39  1  0
 38 39  1  0
 25 40  1  0
 37 40  1  0
 24 41  1  0
 24 42  1  0
 33 42  1  0
 31 43  1  0
 36 43  1  0
 38 44  1  0
 29 45  1  0
 29 46  1  0
  1 47  1  1
  2 48  1  0
  2 49  1  0
  3 50  1  0
  4 51  1  0
  4 52  1  0
  5 53  1  0
  5 54  1  0
  6 55  1  0
  7 56  1  0
  7 57  1  0
  7 58  1  0
  8 59  1  0
  8 60  1  0
  8 61  1  0
  9 62  1  0
  9 63  1  0
  9 64  1  0
 10 65  1  0
 10 66  1  0
 11 67  1  0
 12 68  1  1
 13 69  1  0
 14 70  1  0
 15 71  1  0
 16 72  1  1
 17 73  1  0
 17 74  1  0
 18 75  1  0
 21 76  1  0
 22 77  1  0
 23 78  1  0
 24 79  1  0
 25 80  1  0
 25 81  1  0
 26 82  1  0
 27 83  1  0
 27 84  1  0
 28 85  1  0
 28 86  1  0
 29 87  1  0
 30 88  1  0
 30 89  1  0
 30 90  1  0
 31 91  1  0
 31 92  1  0
 31 93  1  0
 32 94  1  0
 32 95  1  0
 32 96  1  0
 33 97  1  0
 33 98  1  0
 34 99  1  0
 35100  1  0
 36101  1  1
 37102  1  0
 38103  1  0
 39104  1  6
 40105  1  0
 40106  1  0
 41107  1  0
 44108  1  0
 45109  1  0
 46110  1  0
M  END
>  <PDBID>  (1) 
4FO4

>  <PDB ID>  (1) 
4FO4

>  <Generic Name>  (1) 
Mycophenolic acid

>  <Brand Name>  (1) 
Apo-mycophenolic Acid#Mycophenolic Acid#Myfortic#Melbex

>  <DrugBank ID>  (1) 
DB01024

>  <ATC Codes>  (1) 
L04AA06

>  <Ligand ID>  (1) 
MOA

>  <Target Name>  (1) 
Inosine-5'-monophosphate dehydrogenase 2

>  <UniProt ID>  (1) 
P12268

>  <PDB ID.1>  (1) 
4FO4

>  <Seq. Identity>  (1) 
44%

$$$$
