PDB_DB00190_99
     RDKit          3D

 74 74  0  0  0  0  0  0  0  0999 V2000
   42.8360   38.7470   67.5080 N   0  0  0  0  0  0  0  0  0  0  0  0
   42.9920   37.3500   67.2730 N   0  0  0  0  0  2  0  0  0  0  0  0
   41.6280   39.1120   67.6850 C   0  0  2  0  0  0  0  0  0  0  0  0
   40.8910   38.2800   68.7760 C   0  0  0  0  0  0  0  0  0  0  0  0
   40.8700   38.9700   66.3620 C   0  0  0  0  0  0  0  0  0  0  0  0
   40.4610   36.8370   68.4620 C   0  0  0  0  0  0  0  0  0  0  0  0
   41.1650   35.7550   69.0050 C   0  0  0  0  0  0  0  0  0  0  0  0
   40.7870   34.4320   68.7610 C   0  0  0  0  0  0  0  0  0  0  0  0
   39.3490   36.5490   67.6600 C   0  0  0  0  0  0  0  0  0  0  0  0
   38.9550   35.2000   67.4050 C   0  0  0  0  0  0  0  0  0  0  0  0
   39.6960   34.1510   67.9700 C   0  0  0  0  0  0  0  0  0  0  0  0
   39.3740   32.8200   67.7580 O   0  0  0  0  0  0  0  0  0  0  0  0
   41.4920   33.3740   69.2970 O   0  0  0  0  0  0  0  0  0  0  0  0
   41.6150   40.5760   68.1540 C   0  0  1  0  0  0  0  0  0  0  0  0
   40.4920   41.0840   68.3500 O   0  0  0  0  0  0  0  0  0  0  0  0
   42.5920   40.9000   68.8720 O   0  0  0  0  0  0  0  0  0  0  0  0
   53.7940   13.7350   84.1590 N   0  0  0  0  0  0  0  0  0  0  0  0
   52.7850   14.7450   84.2280 N   0  0  0  0  0  2  0  0  0  0  0  0
   53.3600   12.5640   83.8310 C   0  0  2  0  0  0  0  0  0  0  0  0
   52.4510   12.5650   82.5680 C   0  0  0  0  0  0  0  0  0  0  0  0
   52.5730   11.9810   85.0190 C   0  0  0  0  0  0  0  0  0  0  0  0
   51.0060   13.0500   82.7190 C   0  0  0  0  0  0  0  0  0  0  0  0
   50.6360   14.3160   82.2490 C   0  0  0  0  0  0  0  0  0  0  0  0
   49.3390   14.8080   82.3940 C   0  0  0  0  0  0  0  0  0  0  0  0
   50.0200   12.2710   83.3500 C   0  0  0  0  0  0  0  0  0  0  0  0
   48.6900   12.7570   83.5100 C   0  0  0  0  0  0  0  0  0  0  0  0
   48.3670   14.0410   83.0190 C   0  0  0  0  0  0  0  0  0  0  0  0
   47.0990   14.5870   83.1320 O   0  0  0  0  0  0  0  0  0  0  0  0
   48.9970   16.0640   81.9240 O   0  0  0  0  0  0  0  0  0  0  0  0
   54.5660   11.6910   83.5180 C   0  0  2  0  0  0  0  0  0  0  0  0
   54.5560   10.4660   83.8140 O   0  0  0  0  0  0  0  0  0  0  0  0
   55.5890   12.3290   83.1830 O   0  0  0  0  0  0  0  0  0  0  0  0
   43.3759   38.9960   68.3490 H   0  0  0  0  0  0  0  0  0  0  0  0
   43.0474   36.8543   68.1742 H   0  0  0  0  0  0  0  0  0  0  0  0
   41.5589   38.2327   69.6488 H   0  0  0  0  0  0  0  0  0  0  0  0
   39.9375   38.8122   68.9085 H   0  0  0  0  0  0  0  0  0  0  0  0
   39.8078   38.7710   66.5675 H   0  0  0  0  0  0  0  0  0  0  0  0
   40.9635   39.9013   65.7841 H   0  0  0  0  0  0  0  0  0  0  0  0
   41.2942   38.1357   65.7841 H   0  0  0  0  0  0  0  0  0  0  0  0
   41.1257   36.8296   67.5856 H   0  0  0  0  0  0  0  0  0  0  0  0
   42.2011   35.8507   68.6482 H   0  0  0  0  0  0  0  0  0  0  0  0
   40.9603   35.8607   70.0806 H   0  0  0  0  0  0  0  0  0  0  0  0
   40.1378   34.4538   69.6487 H   0  0  0  0  0  0  0  0  0  0  0  0
   38.4868   37.0426   68.1321 H   0  0  0  0  0  0  0  0  0  0  0  0
   39.6696   36.8988   66.6676 H   0  0  0  0  0  0  0  0  0  0  0  0
   37.9213   35.0937   67.7658 H   0  0  0  0  0  0  0  0  0  0  0  0
   39.1165   35.0808   66.3235 H   0  0  0  0  0  0  0  0  0  0  0  0
   39.0471   34.1709   68.8580 H   0  0  0  0  0  0  0  0  0  0  0  0
   39.2637   32.3642   68.6299 H   0  0  0  0  0  0  0  0  0  0  0  0
   41.4595   33.4227   70.2853 H   0  0  0  0  0  0  0  0  0  0  0  0
   41.8518   41.1782   67.2644 H   0  0  0  0  0  0  0  0  0  0  0  0
   40.3286   41.1579   69.3236 H   0  0  0  0  0  0  0  0  0  0  0  0
   42.3420   40.8171   69.8263 H   0  0  0  0  0  0  0  0  0  0  0  0
   54.4928   14.0260   83.4605 H   0  0  0  0  0  0  0  0  0  0  0  0
   52.5758   14.9544   85.2145 H   0  0  0  0  0  0  0  0  0  0  0  0
   52.9347   13.2082   81.8181 H   0  0  0  0  0  0  0  0  0  0  0  0
   52.3561   11.5027   82.2985 H   0  0  0  0  0  0  0  0  0  0  0  0
   53.0286   12.3185   85.9616 H   0  0  0  0  0  0  0  0  0  0  0  0
   51.5295   12.3257   84.9721 H   0  0  0  0  0  0  0  0  0  0  0  0
   52.5987   10.8823   84.9721 H   0  0  0  0  0  0  0  0  0  0  0  0
   51.2546   13.4860   83.6978 H   0  0  0  0  0  0  0  0  0  0  0  0
   51.2969   15.0367   82.7528 H   0  0  0  0  0  0  0  0  0  0  0  0
   50.7148   14.1899   81.1591 H   0  0  0  0  0  0  0  0  0  0  0  0
   49.0634   14.3673   81.4246 H   0  0  0  0  0  0  0  0  0  0  0  0
   49.9441   11.3367   82.7743 H   0  0  0  0  0  0  0  0  0  0  0  0
   50.3831   12.2159   84.3869 H   0  0  0  0  0  0  0  0  0  0  0  0
   48.0227   12.0420   83.0065 H   0  0  0  0  0  0  0  0  0  0  0  0
   48.5737   12.8541   84.5995 H   0  0  0  0  0  0  0  0  0  0  0  0
   48.0909   13.6008   82.0495 H   0  0  0  0  0  0  0  0  0  0  0  0
   46.8669   14.6870   84.0892 H   0  0  0  0  0  0  0  0  0  0  0  0
   48.8322   16.6693   82.6898 H   0  0  0  0  0  0  0  0  0  0  0  0
   54.4760   11.0961   82.5972 H   0  0  0  0  0  0  0  0  0  0  0  0
   54.5552   10.3645   84.7988 H   0  0  0  0  0  0  0  0  0  0  0  0
   56.0708   12.6295   83.9940 H   0  0  0  0  0  0  0  0  0  0  0  0
  1  2  1  0
  3  1  1  6
  3  4  1  0
  3  5  1  0
  4  6  1  0
  6  7  1  0
  7  8  1  0
  6  9  1  0
  9 10  1  0
  8 11  1  0
 10 11  1  0
 11 12  1  0
  8 13  1  0
  3 14  1  0
 14 15  1  0
 14 16  1  0
 17 18  1  0
 19 17  1  1
 19 20  1  0
 19 21  1  0
 20 22  1  0
 22 23  1  0
 23 24  1  0
 22 25  1  0
 25 26  1  0
 24 27  1  0
 26 27  1  0
 27 28  1  0
 24 29  1  0
 19 30  1  0
 30 31  1  0
 30 32  1  0
  1 33  1  0
  2 34  1  0
  4 35  1  0
  4 36  1  0
  5 37  1  0
  5 38  1  0
  5 39  1  0
  6 40  1  0
  7 41  1  0
  7 42  1  0
  8 43  1  0
  9 44  1  0
  9 45  1  0
 10 46  1  0
 10 47  1  0
 11 48  1  0
 12 49  1  0
 13 50  1  0
 14 51  1  6
 15 52  1  0
 16 53  1  0
 17 54  1  0
 18 55  1  0
 20 56  1  0
 20 57  1  0
 21 58  1  0
 21 59  1  0
 21 60  1  0
 22 61  1  0
 23 62  1  0
 23 63  1  0
 24 64  1  0
 25 65  1  0
 25 66  1  0
 26 67  1  0
 26 68  1  0
 27 69  1  0
 28 70  1  0
 29 71  1  0
 30 72  1  6
 31 73  1  0
 32 74  1  0
M  RAD  2   2   2  18   2
M  END
>  <PDBID>  (1) 
1JS3

>  <PDB ID>  (1) 
1JS3

>  <Generic Name>  (1) 
Carbidopa

>  <Brand Name>  (1) 
Apo-levocarb - Tab 10mg/100mg#Apo-levocarb - Tab 25mg/250mg#Apo-levocarb CR#Apo-levocarb-tab 25mg/100mg#Carbidopa#Carbidopa Tablets, 25 mg#Carbidopa and Levodopa#Carbidopa, Levodopa and Entacapone#Carbidopa, Levodopa, and Entacapone#Dom-levo-carbidopa#Duodopa#Duopa#Lodosyn#Mint-levocarb#Nu-levocarb - Tab 10mg/100mg#Nu-levocarb - Tab 25 Mg/100 mg#Nu-levocarb - Tablets 25 Mg/250 mg#PMS-levocarb CR#Parcopa#Pro-lecarb-100/10 - Tab#Pro-lecarb-100/25 - Tab#Pro-levocarb - 100/25#Ratio-levodopa/carbidopa#Rytary#Sinemet#Sinemet 100/10#Sinemet 100/25#Sinemet 250/25#Sinemet CR#Sinemet CR 100/25#Sinemet CR 200/50#Stalevo#Teva-levocarbidopa

>  <DrugBank ID>  (1) 
DB00190

>  <ATC Codes>  (1) 
nan

>  <Ligand ID>  (1) 
142

>  <Target Name>  (1) 
Aromatic-L-amino-acid decarboxylase

>  <UniProt ID>  (1) 
P20711

>  <PDB ID.1>  (1) 
1JS3

>  <Seq. Identity>  (1) 
90%

$$$$
