PDB_DB00513_96
     RDKit          3D

 25 24  0  0  0  0  0  0  0  0999 V2000
   -8.8410   -4.0850    5.3080 C   0  0  0  0  0  0  0  0  0  0  0  0
   -8.7990   -5.2620    4.9980 O   0  0  0  0  0  0  0  0  0  0  0  0
   -9.7440   -3.5030    5.8790 O   0  0  0  0  0  0  0  0  0  0  0  0
   -7.6230   -3.2380    4.9210 C   0  0  0  0  0  0  0  0  0  0  0  0
   -7.2340   -2.3230    6.0840 C   0  0  0  0  0  0  0  0  0  0  0  0
   -5.7830   -1.8720    5.9100 C   0  0  0  0  0  0  0  0  0  0  0  0
   -5.0510   -1.9690    7.2570 C   0  0  0  0  0  0  0  0  0  0  0  0
   -3.6080   -1.5160    7.0620 C   0  0  0  0  0  0  0  0  0  0  0  0
   -2.8030   -1.7430    8.2920 N   0  0  0  0  0  4  0  0  0  0  0  0
   -7.8670   -2.6490    4.0600 H   0  0  0  0  0  0  0  0  0  0  0  0
   -6.8060   -3.8910    4.6820 H   0  0  0  0  0  0  0  0  0  0  0  0
   -7.3410   -2.8570    7.0170 H   0  0  0  0  0  0  0  0  0  0  0  0
   -7.8820   -1.4590    6.0990 H   0  0  0  0  0  0  0  0  0  0  0  0
   -5.7630   -0.8510    5.5600 H   0  0  0  0  0  0  0  0  0  0  0  0
   -5.2910   -2.5020    5.1850 H   0  0  0  0  0  0  0  0  0  0  0  0
   -5.0700   -2.9880    7.6090 H   0  0  0  0  0  0  0  0  0  0  0  0
   -5.5380   -1.3330    7.9820 H   0  0  0  0  0  0  0  0  0  0  0  0
   -3.5980   -0.4640    6.8270 H   0  0  0  0  0  0  0  0  0  0  0  0
   -3.1640   -2.0650    6.2400 H   0  0  0  0  0  0  0  0  0  0  0  0
   -3.3870   -2.2130    9.0120 H   0  0  0  0  0  0  0  0  0  0  0  0
   -2.4690   -0.8160    8.6610 H   0  0  0  0  0  0  0  0  0  0  0  0
   -1.9770   -2.3450    8.0630 H   0  0  0  0  0  0  0  0  0  0  0  0
   -9.3005   -3.8458    4.3376 H   0  0  0  0  0  0  0  0  0  0  0  0
   -8.7791   -5.8184    5.8166 H   0  0  0  0  0  0  0  0  0  0  0  0
   -9.6207   -3.5825    6.8581 H   0  0  0  0  0  0  0  0  0  0  0  0
  1  2  1  0
  1  3  1  0
  1  4  1  0
  4  5  1  0
  5  6  1  0
  6  7  1  0
  7  8  1  0
  8  9  1  0
  4 10  1  0
  4 11  1  0
  5 12  1  0
  5 13  1  0
  6 14  1  0
  6 15  1  0
  7 16  1  0
  7 17  1  0
  8 18  1  0
  8 19  1  0
  9 20  1  0
  9 21  1  0
 22  9  1  0
  1 23  1  0
  2 24  1  0
  3 25  1  0
M  CHG  1   9   1
M  END
>  <PDBID>  (1) 
1PK2

>  <PDB ID>  (1) 
1PK2

>  <Generic Name>  (1) 
Aminocaproic Acid

>  <Brand Name>  (1) 
Amicar#Aminocaproic Acid#Exoden White Tooth#Acepramin#Amocap#Caproamin#Caprocat#Caprolisin#E-Capro#Epsicaprom#Hemocid#Inselon#Ipron#Ipsilon#Kai Nai Yin#Minocap#Plaslloid#Resplamin

>  <DrugBank ID>  (1) 
DB00513

>  <ATC Codes>  (1) 
B02AA01

>  <Ligand ID>  (1) 
ACA

>  <Target Name>  (1) 
Tissue-type plasminogen activator

>  <UniProt ID>  (1) 
P00750

>  <PDB ID.1>  (1) 
1PK2

>  <Seq. Identity>  (1) 
100%

$$$$
