PDB_DB06700_99
     RDKit          3D

 44 45  0  0  0  0  0  0  0  0999 V2000
  179.7940  -15.8310  100.4100 O   0  0  0  0  0  0  0  0  0  0  0  0
  180.0480  -16.7060   99.3170 C   0  0  0  0  0  0  0  0  0  0  0  0
  180.2760  -15.8850   98.0560 C   0  0  0  0  0  0  0  0  0  0  0  0
  178.7980  -17.5500   99.1620 C   0  0  0  0  0  0  0  0  0  0  0  0
  177.5890  -16.6830   98.8480 C   0  0  0  0  0  0  0  0  0  0  0  0
  177.8020  -15.8500   97.5980 C   0  0  0  0  0  0  0  0  0  0  0  0
  179.0680  -15.0290   97.7140 C   0  0  0  0  0  0  0  0  0  0  0  0
  181.3180  -17.5080   99.6450 C   0  0  1  0  0  0  0  0  0  0  0  0
  181.5770  -17.5920  101.1410 C   0  0  0  0  0  0  0  0  0  0  0  0
  183.0120  -17.4290  101.3240 N   0  0  0  0  0  0  0  0  0  0  0  0
  183.5180  -16.3280  102.1180 C   0  0  0  0  0  0  0  0  0  0  0  0
  183.9660  -18.3440  100.7250 C   0  0  0  0  0  0  0  0  0  0  0  0
  181.3420  -18.8850   99.0810 C   0  0  0  0  0  0  0  0  0  0  0  0
  180.9760  -19.9830   99.8530 C   0  0  0  0  0  0  0  0  0  0  0  0
  181.0050  -21.2550   99.2990 C   0  0  0  0  0  0  0  0  0  0  0  0
  181.4170  -21.4410   97.9870 C   0  0  0  0  0  0  0  0  0  0  0  0
  181.4480  -22.6940   97.4550 O   0  0  0  0  0  0  0  0  0  0  0  0
  181.7970  -20.3510   97.2190 C   0  0  0  0  0  0  0  0  0  0  0  0
  181.7610  -19.0810   97.7720 C   0  0  0  0  0  0  0  0  0  0  0  0
  179.9350  -16.3166  101.2611 H   0  0  0  0  0  0  0  0  0  0  0  0
  181.1451  -15.2287   98.2107 H   0  0  0  0  0  0  0  0  0  0  0  0
  180.4494  -16.5806   97.2217 H   0  0  0  0  0  0  0  0  0  0  0  0
  178.9483  -18.2678   98.3421 H   0  0  0  0  0  0  0  0  0  0  0  0
  178.6131  -18.0786  100.1088 H   0  0  0  0  0  0  0  0  0  0  0  0
  176.7142  -17.3328   98.6980 H   0  0  0  0  0  0  0  0  0  0  0  0
  177.4317  -15.9969   99.6933 H   0  0  0  0  0  0  0  0  0  0  0  0
  177.8829  -16.5181   96.7279 H   0  0  0  0  0  0  0  0  0  0  0  0
  176.9473  -15.1683   97.4764 H   0  0  0  0  0  0  0  0  0  0  0  0
  178.9314  -14.2765   98.5046 H   0  0  0  0  0  0  0  0  0  0  0  0
  179.2543  -14.5548   96.7391 H   0  0  0  0  0  0  0  0  0  0  0  0
  182.1183  -16.9339   99.1551 H   0  0  0  0  0  0  0  0  0  0  0  0
  181.0341  -16.7921  101.6658 H   0  0  0  0  0  0  0  0  0  0  0  0
  181.2313  -18.5527  101.5503 H   0  0  0  0  0  0  0  0  0  0  0  0
  183.4087  -16.5658  103.1864 H   0  0  0  0  0  0  0  0  0  0  0  0
  184.5808  -16.1661  101.8852 H   0  0  0  0  0  0  0  0  0  0  0  0
  182.9487  -15.4160  101.8852 H   0  0  0  0  0  0  0  0  0  0  0  0
  184.5160  -18.8715  101.5183 H   0  0  0  0  0  0  0  0  0  0  0  0
  183.4309  -19.0752  100.1013 H   0  0  0  0  0  0  0  0  0  0  0  0
  184.6743  -17.7788  100.1013 H   0  0  0  0  0  0  0  0  0  0  0  0
  180.6648  -19.8434  100.8988 H   0  0  0  0  0  0  0  0  0  0  0  0
  180.6994  -22.1215   99.9038 H   0  0  0  0  0  0  0  0  0  0  0  0
  181.7418  -22.8273   96.5191 H   0  0  0  0  0  0  0  0  0  0  0  0
  182.1246  -20.4933   96.1786 H   0  0  0  0  0  0  0  0  0  0  0  0
  182.0686  -18.2163   97.1656 H   0  0  0  0  0  0  0  0  0  0  0  0
  1  2  1  0
  2  3  1  0
  2  4  1  0
  4  5  1  0
  5  6  1  0
  3  7  1  0
  6  7  1  0
  2  8  1  0
  8  9  1  0
  9 10  1  0
 10 11  1  0
 10 12  1  0
  8 13  1  0
 13 14  2  0
 14 15  1  0
 15 16  2  0
 16 17  1  0
 16 18  1  0
 13 19  1  0
 18 19  2  0
  1 20  1  0
  3 21  1  0
  3 22  1  0
  4 23  1  0
  4 24  1  0
  5 25  1  0
  5 26  1  0
  6 27  1  0
  6 28  1  0
  7 29  1  0
  7 30  1  0
  8 31  1  6
  9 32  1  0
  9 33  1  0
 11 34  1  0
 11 35  1  0
 11 36  1  0
 12 37  1  0
 12 38  1  0
 12 39  1  0
 14 40  1  0
 15 41  1  0
 17 42  1  0
 18 43  1  0
 19 44  1  0
M  END
>  <PDBID>  (1) 
4MM7

>  <PDB ID>  (1) 
4MM7

>  <Generic Name>  (1) 
Desvenlafaxine

>  <Brand Name>  (1) 
Desvenlafaxine#Desvenlafaxine Extended-release#Desvenlafaxine Succinate#Gd-desvenlafaxine#Khedezla Extended-release#Pristiq#Pristiq Extended Release#Pristiq Extended-release#Pristiq Extended-release Extended-release#Zyven-OD

>  <DrugBank ID>  (1) 
DB06700

>  <ATC Codes>  (1) 
N06AX23

>  <Ligand ID>  (1) 
29J

>  <Target Name>  (1) 
Sodium-dependent noradrenaline transporter

>  <UniProt ID>  (1) 
P23975

>  <PDB ID.1>  (1) 
4MM7

>  <Seq. Identity>  (1) 
30%

$$$$
