PDB_DB01051_97
     RDKit          3D

102105  0  0  0  0  0  0  0  0999 V2000
   60.2080   -1.1770   37.8380 C   0  0  0  0  0  0  0  0  0  0  0  0
   60.3090   -2.4250   37.1380 O   0  0  0  0  0  0  0  0  0  0  0  0
   58.4870   -3.0220   41.3780 N   0  0  0  0  0  0  0  0  0  0  0  0
   58.5440   -3.8040   40.3320 C   0  0  0  0  0  0  0  0  0  0  0  0
   58.7060   -4.9860   40.4060 O   0  0  0  0  0  0  0  0  0  0  0  0
   58.4500   -3.1640   39.1960 O   0  0  0  0  0  0  0  0  0  0  0  0
   59.0250   -2.9850   36.8350 C   0  0  2  0  0  0  0  0  0  0  0  0
   58.5870   -3.9190   37.9570 C   0  0  2  0  0  0  0  0  0  0  0  0
   57.1810   -4.3810   37.6050 C   0  0  1  0  0  0  0  0  0  0  0  0
   56.2950   -3.2810   37.7570 O   0  0  0  0  0  0  0  0  0  0  0  0
   57.1980   -5.0740   36.2490 C   0  0  1  0  0  0  0  0  0  0  0  0
   57.7020   -4.2550   35.1850 O   0  0  0  0  0  0  0  0  0  0  0  0
   58.9310   -3.5770   35.4010 C   0  0  2  0  0  0  0  0  0  0  0  0
   60.1340   -4.5170   35.1500 C   0  0  0  0  0  0  0  0  0  0  0  0
   58.8800   -2.4100   34.3740 C   0  0  0  0  0  0  0  0  0  0  0  0
   58.1130   -6.1070   36.5160 O   0  0  0  0  0  0  0  0  0  0  0  0
   58.2370   -7.1590   35.6250 C   0  0  1  0  0  0  0  0  0  0  0  0
   59.0090   -8.1900   36.1540 C   0  0  1  0  0  0  0  0  0  0  0  0
   59.6180   -8.1800   37.4960 C   0  0  0  0  0  0  0  0  0  0  0  0
   59.1650   -9.3130   35.4250 C   0  0  1  0  0  0  0  0  0  0  0  0
   58.6370   -9.4340   34.1250 C   0  0  0  0  0  0  0  0  0  0  0  0
   57.7990   -8.4310   33.5990 C   0  0  0  0  0  0  0  0  0  0  0  0
   57.5800   -7.2840   34.3710 C   0  0  0  0  0  0  0  0  0  0  0  0
   59.9600  -10.2950   36.0390 O   0  0  0  0  0  0  0  0  0  0  0  0
   60.2710  -11.3850   35.3620 C   0  0  0  0  0  0  0  0  0  0  0  0
   61.0220  -12.2030   35.7970 O   0  0  0  0  0  0  0  0  0  0  0  0
   59.7300  -11.5880   33.9960 C   0  0  1  0  0  0  0  0  0  0  0  0
   58.9640  -10.6720   33.3960 C   0  0  0  0  0  0  0  0  0  0  0  0
   58.5030  -10.8790   32.1470 O   0  0  0  0  0  0  0  0  0  0  0  0
   59.9720  -12.8740   33.3740 N   0  0  0  0  0  0  0  0  0  0  0  0
   60.9640  -13.2710   32.5620 C   0  0  0  0  0  0  0  0  0  0  0  0
   60.9380  -14.4120   32.1770 O   0  0  0  0  0  0  0  0  0  0  0  0
   62.0440  -12.4090   32.0930 C   0  0  1  0  0  0  0  0  0  0  0  0
   61.7860  -11.1750   31.4630 C   0  0  0  0  0  0  0  0  0  0  0  0
   62.8800  -10.4360   30.9820 C   0  0  1  0  0  0  0  0  0  0  0  0
   64.1750  -10.9130   31.1700 C   0  0  0  0  0  0  0  0  0  0  0  0
   65.2390  -10.1760   30.7190 O   0  0  0  0  0  0  0  0  0  0  0  0
   64.4340  -12.1480   31.7980 C   0  0  0  0  0  0  0  0  0  0  0  0
   63.3420  -12.9030   32.2510 C   0  0  0  0  0  0  0  0  0  0  0  0
   62.6940   -9.0810   30.3490 C   0  0  0  0  0  0  0  0  0  0  0  0
   62.7960   -7.8970   31.2920 C   0  0  0  0  0  0  0  0  0  0  0  0
   61.8120   -7.0620   31.6820 C   0  0  0  0  0  0  0  0  0  0  0  0
   62.0520   -5.9260   32.6540 C   0  0  0  0  0  0  0  0  0  0  0  0
   60.3980   -7.1480   31.1990 C   0  0  0  0  0  0  0  0  0  0  0  0
   60.2230   -1.3624   38.9222 H   0  0  0  0  0  0  0  0  0  0  0  0
   61.0570   -0.5333   37.5643 H   0  0  0  0  0  0  0  0  0  0  0  0
   59.2666   -0.6782   37.5643 H   0  0  0  0  0  0  0  0  0  0  0  0
   58.5285   -3.5916   42.2352 H   0  0  0  0  0  0  0  0  0  0  0  0
   59.2826   -2.3680   41.3615 H   0  0  0  0  0  0  0  0  0  0  0  0
   59.6331   -3.6579   40.2821 H   0  0  0  0  0  0  0  0  0  0  0  0
   58.7429   -5.2551   41.3580 H   0  0  0  0  0  0  0  0  0  0  0  0
   58.2855   -2.1714   36.8014 H   0  0  0  0  0  0  0  0  0  0  0  0
   59.3113   -4.7387   38.0733 H   0  0  0  0  0  0  0  0  0  0  0  0
   56.7952   -5.1520   38.2882 H   0  0  0  0  0  0  0  0  0  0  0  0
   56.1518   -3.1033   38.7203 H   0  0  0  0  0  0  0  0  0  0  0  0
   56.1950   -5.3686   35.9065 H   0  0  0  0  0  0  0  0  0  0  0  0
   60.5517   -4.8434   36.1139 H   0  0  0  0  0  0  0  0  0  0  0  0
   59.7998   -5.3957   34.5788 H   0  0  0  0  0  0  0  0  0  0  0  0
   60.9058   -3.9803   34.5788 H   0  0  0  0  0  0  0  0  0  0  0  0
   58.8381   -1.4508   34.9108 H   0  0  0  0  0  0  0  0  0  0  0  0
   59.7802   -2.4377   33.7425 H   0  0  0  0  0  0  0  0  0  0  0  0
   57.9856   -2.5162   33.7425 H   0  0  0  0  0  0  0  0  0  0  0  0
   59.1424   -6.6966   35.2050 H   0  0  0  0  0  0  0  0  0  0  0  0
   59.9152   -7.7243   35.7393 H   0  0  0  0  0  0  0  0  0  0  0  0
   58.8253   -8.1930   38.2585 H   0  0  0  0  0  0  0  0  0  0  0  0
   60.2564   -9.0678   37.6156 H   0  0  0  0  0  0  0  0  0  0  0  0
   60.2269   -7.2717   37.6156 H   0  0  0  0  0  0  0  0  0  0  0  0
   58.2295   -9.7138   35.8423 H   0  0  0  0  0  0  0  0  0  0  0  0
   57.7577   -9.9559   34.5307 H   0  0  0  0  0  0  0  0  0  0  0  0
   58.2395   -8.1040   32.6456 H   0  0  0  0  0  0  0  0  0  0  0  0
   56.8102   -8.9081   33.5305 H   0  0  0  0  0  0  0  0  0  0  0  0
   56.4990   -7.2296   34.5672 H   0  0  0  0  0  0  0  0  0  0  0  0
   58.0125   -6.4736   33.7659 H   0  0  0  0  0  0  0  0  0  0  0  0
   61.1163  -10.8557   34.8980 H   0  0  0  0  0  0  0  0  0  0  0  0
   60.9996  -12.1786   36.7864 H   0  0  0  0  0  0  0  0  0  0  0  0
   58.8322  -12.0599   34.4217 H   0  0  0  0  0  0  0  0  0  0  0  0
   59.8628  -10.1912   32.9826 H   0  0  0  0  0  0  0  0  0  0  0  0
   57.6008  -11.2841   32.1912 H   0  0  0  0  0  0  0  0  0  0  0  0
   60.0194  -13.5303   34.1664 H   0  0  0  0  0  0  0  0  0  0  0  0
   61.5561  -13.5795   33.4362 H   0  0  0  0  0  0  0  0  0  0  0  0
   60.9241  -15.0229   32.9559 H   0  0  0  0  0  0  0  0  0  0  0  0
   62.0216  -12.9128   31.1154 H   0  0  0  0  0  0  0  0  0  0  0  0
   61.1264  -11.3773   30.6062 H   0  0  0  0  0  0  0  0  0  0  0  0
   61.3591  -10.5459   32.2580 H   0  0  0  0  0  0  0  0  0  0  0  0
   62.9386   -9.8991   31.9403 H   0  0  0  0  0  0  0  0  0  0  0  0
   64.1243  -11.4324   30.2016 H   0  0  0  0  0  0  0  0  0  0  0  0
   65.7476   -9.8237   31.4918 H   0  0  0  0  0  0  0  0  0  0  0  0
   64.9849  -12.7709   31.0779 H   0  0  0  0  0  0  0  0  0  0  0  0
   64.9784  -11.8786   32.7151 H   0  0  0  0  0  0  0  0  0  0  0  0
   63.4921  -13.0659   33.3285 H   0  0  0  0  0  0  0  0  0  0  0  0
   63.3583  -13.7909   31.6019 H   0  0  0  0  0  0  0  0  0  0  0  0
   63.4635   -8.9620   29.5720 H   0  0  0  0  0  0  0  0  0  0  0  0
   61.6646   -9.0689   29.9613 H   0  0  0  0  0  0  0  0  0  0  0  0
   63.1911   -8.3190   32.2279 H   0  0  0  0  0  0  0  0  0  0  0  0
   63.3496   -7.2085   30.6366 H   0  0  0  0  0  0  0  0  0  0  0  0
   61.5770   -7.7315   32.5225 H   0  0  0  0  0  0  0  0  0  0  0  0
   61.9725   -6.3023   33.6846 H   0  0  0  0  0  0  0  0  0  0  0  0
   63.0577   -5.5109   32.4918 H   0  0  0  0  0  0  0  0  0  0  0  0
   61.3002   -5.1396   32.4918 H   0  0  0  0  0  0  0  0  0  0  0  0
   59.7175   -7.1894   32.0623 H   0  0  0  0  0  0  0  0  0  0  0  0
   60.1641   -6.2624   30.5899 H   0  0  0  0  0  0  0  0  0  0  0  0
   60.2731   -8.0554   30.5899 H   0  0  0  0  0  0  0  0  0  0  0  0
  1  2  1  0
  3  4  1  0
  4  5  1  0
  4  6  1  0
  2  7  1  0
  6  8  1  0
  7  8  1  0
  8  9  1  0
  9 10  1  0
  9 11  1  0
 11 12  1  0
  7 13  1  0
 12 13  1  0
 13 14  1  6
 13 15  1  0
 11 16  1  0
 16 17  1  0
 17 18  1  0
 18 19  1  0
 18 20  1  0
 20 21  1  0
 21 22  1  0
 17 23  1  0
 22 23  1  0
 20 24  1  0
 24 25  1  0
 25 26  1  0
 25 27  1  0
 21 28  1  0
 27 28  1  0
 28 29  1  0
 27 30  1  0
 30 31  1  0
 31 32  1  0
 31 33  1  0
 33 34  1  0
 34 35  1  0
 35 36  1  0
 36 37  1  0
 36 38  1  0
 33 39  1  0
 38 39  1  0
 35 40  1  0
 40 41  1  0
 41 42  1  0
 42 43  1  0
 42 44  1  0
  1 45  1  0
  1 46  1  0
  1 47  1  0
  3 48  1  0
  3 49  1  0
  4 50  1  0
  5 51  1  0
  7 52  1  6
  8 53  1  1
  9 54  1  1
 10 55  1  0
 11 56  1  6
 14 57  1  0
 14 58  1  0
 14 59  1  0
 15 60  1  0
 15 61  1  0
 15 62  1  0
 17 63  1  6
 18 64  1  6
 19 65  1  0
 19 66  1  0
 19 67  1  0
 20 68  1  1
 21 69  1  0
 22 70  1  0
 22 71  1  0
 23 72  1  0
 23 73  1  0
 25 74  1  0
 26 75  1  0
 27 76  1  6
 28 77  1  0
 29 78  1  0
 30 79  1  0
 31 80  1  0
 32 81  1  0
 33 82  1  1
 34 83  1  0
 34 84  1  0
 35 85  1  6
 36 86  1  0
 37 87  1  0
 38 88  1  0
 38 89  1  0
 39 90  1  0
 39 91  1  0
 40 92  1  0
 40 93  1  0
 41 94  1  0
 41 95  1  0
 42 96  1  0
 43 97  1  0
 43 98  1  0
 43 99  1  0
 44100  1  0
 44101  1  0
 44102  1  0
M  END
>  <PDBID>  (1) 
1AJ6

>  <PDB ID>  (1) 
1AJ6

>  <Generic Name>  (1) 
Novobiocin

>  <Brand Name>  (1) 
Albamycin

>  <DrugBank ID>  (1) 
DB01051

>  <ATC Codes>  (1) 
nan

>  <Ligand ID>  (1) 
NOV

>  <Target Name>  (1) 
DNA gyrase subunit B

>  <UniProt ID>  (1) 
P0A0K8

>  <PDB ID.1>  (1) 
1AJ6

>  <Seq. Identity>  (1) 
45%

$$$$
