PDB_DB04876_99
     RDKit          3D

104110  0  0  0  0  0  0  0  0999 V2000
   36.7730   52.0420   36.3790 O   0  0  0  0  0  0  0  0  0  0  0  0
   37.0330   50.9960   35.7850 C   0  0  0  0  0  0  0  0  0  0  0  0
   36.2240   49.8830   35.8120 N   0  0  0  0  0  0  0  0  0  0  0  0
   36.4910   48.6330   35.0980 C   0  0  0  0  0  0  0  0  0  0  0  0
   35.2000   47.8100   35.2720 C   0  0  0  0  0  0  0  0  0  0  0  0
   34.1500   48.8630   35.6320 C   0  0  0  0  0  0  0  0  0  0  0  0
   34.9350   49.8510   36.4880 C   0  0  1  0  0  0  0  0  0  0  0  0
   35.1110   49.4970   37.9560 C   0  0  0  0  0  3  0  0  0  0  0  0
   35.9170   48.6660   38.5030 N   0  0  0  0  0  0  0  0  0  0  0  0
   38.2860   50.8230   34.9580 C   0  0  0  0  0  0  0  0  0  0  0  0
   39.2000   52.0090   35.0190 N   0  0  0  0  0  0  0  0  0  0  0  0
   40.2550   51.8940   36.0790 C   0  0  1  0  0  0  0  0  0  0  0  0
   39.6770   51.4130   37.4360 C   0  0  0  0  0  0  0  0  0  0  0  0
   40.8330   51.2490   38.4390 C   0  0  1  0  0  0  0  0  0  0  0  0
   41.9260   50.3010   37.9000 C   0  0  0  0  0  0  0  0  0  0  0  0
   42.4940   50.8430   36.5820 C   0  0  1  0  0  0  0  0  0  0  0  0
   41.3010   50.8770   35.5890 C   0  0  0  0  0  0  0  0  0  0  0  0
   43.0540   52.2570   36.8180 C   0  0  0  0  0  0  0  0  0  0  0  0
   41.4370   52.6380   38.6810 C   0  0  0  0  0  0  0  0  0  0  0  0
   41.9780   53.1950   37.3670 C   0  0  1  0  0  0  0  0  0  0  0  0
   42.5030   54.4770   37.6430 O   0  0  0  0  0  0  0  0  0  0  0  0
   40.8680   53.2900   36.3100 C   0  0  0  0  0  0  0  0  0  0  0  0
   -1.9970   62.8110   35.5110 O   0  0  0  0  0  0  0  0  0  0  0  0
   -2.2770   63.8430   36.1280 C   0  0  0  0  0  0  0  0  0  0  0  0
   -1.6980   64.1850   37.3320 N   0  0  0  0  0  0  0  0  0  0  0  0
   -2.0030   65.4050   38.0680 C   0  0  0  0  0  0  0  0  0  0  0  0
   -0.9600   65.4490   39.1920 C   0  0  0  0  0  0  0  0  0  0  0  0
    0.1240   64.4710   38.7460 C   0  0  0  0  0  0  0  0  0  0  0  0
   -0.6380   63.3990   37.9790 C   0  0  1  0  0  0  0  0  0  0  0  0
   -1.1870   62.2440   38.7840 C   0  0  0  0  0  3  0  0  0  0  0  0
   -2.2480   62.2520   39.4880 N   0  0  0  0  0  0  0  0  0  0  0  0
   -3.2940   64.8570   35.6040 C   0  0  0  0  0  0  0  0  0  0  0  0
   -3.9690   64.3800   34.3500 N   0  0  0  0  0  0  0  0  0  0  0  0
   -5.2750   63.6630   34.5780 C   0  0  1  0  0  0  0  0  0  0  0  0
   -5.1490   62.5930   35.6760 C   0  0  0  0  0  0  0  0  0  0  0  0
   -6.5250   61.9230   35.8860 C   0  0  1  0  0  0  0  0  0  0  0  0
   -7.5720   63.0050   36.2290 C   0  0  0  0  0  0  0  0  0  0  0  0
   -7.7170   64.0190   35.0790 C   0  0  1  0  0  0  0  0  0  0  0  0
   -6.3400   64.7080   34.9270 C   0  0  0  0  0  0  0  0  0  0  0  0
   -8.0840   63.2720   33.7880 C   0  0  0  0  0  0  0  0  0  0  0  0
   -6.8910   61.2010   34.5790 C   0  0  0  0  0  0  0  0  0  0  0  0
   -7.0010   62.2300   33.4440 C   0  0  1  0  0  0  0  0  0  0  0  0
   -7.3140   61.5530   32.2350 O   0  0  0  0  0  0  0  0  0  0  0  0
   -5.6640   62.9520   33.2640 C   0  0  0  0  0  0  0  0  0  0  0  0
   36.8120   51.8853   37.3557 H   0  0  0  0  0  0  0  0  0  0  0  0
   37.5707   50.6267   36.6707 H   0  0  0  0  0  0  0  0  0  0  0  0
   36.6885   48.8272   34.0334 H   0  0  0  0  0  0  0  0  0  0  0  0
   37.3777   48.1097   35.4853 H   0  0  0  0  0  0  0  0  0  0  0  0
   34.9343   47.2934   34.3379 H   0  0  0  0  0  0  0  0  0  0  0  0
   35.2942   47.0216   36.0333 H   0  0  0  0  0  0  0  0  0  0  0  0
   33.7530   49.3503   34.7293 H   0  0  0  0  0  0  0  0  0  0  0  0
   33.2739   48.4431   36.1478 H   0  0  0  0  0  0  0  0  0  0  0  0
   34.3940   50.8064   36.5549 H   0  0  0  0  0  0  0  0  0  0  0  0
   35.3423   50.4572   38.4402 H   0  0  0  0  0  0  0  0  0  0  0  0
   35.8443   48.7410   39.5277 H   0  0  0  0  0  0  0  0  0  0  0  0
   35.6739   47.7087   38.2107 H   0  0  0  0  0  0  0  0  0  0  0  0
   38.8308   49.9420   35.3282 H   0  0  0  0  0  0  0  0  0  0  0  0
   37.9731   50.7040   33.9102 H   0  0  0  0  0  0  0  0  0  0  0  0
   39.6647   52.1104   34.1054 H   0  0  0  0  0  0  0  0  0  0  0  0
   38.9604   52.1558   37.8164 H   0  0  0  0  0  0  0  0  0  0  0  0
   39.1603   50.4513   37.3016 H   0  0  0  0  0  0  0  0  0  0  0  0
   40.4457   50.8093   39.3700 H   0  0  0  0  0  0  0  0  0  0  0  0
   42.7362   50.2225   38.6399 H   0  0  0  0  0  0  0  0  0  0  0  0
   41.4847   49.3096   37.7201 H   0  0  0  0  0  0  0  0  0  0  0  0
   43.3125   50.2225   36.1881 H   0  0  0  0  0  0  0  0  0  0  0  0
   40.8430   49.8785   35.5317 H   0  0  0  0  0  0  0  0  0  0  0  0
   41.6614   51.1726   34.5926 H   0  0  0  0  0  0  0  0  0  0  0  0
   43.8816   52.1989   37.5403 H   0  0  0  0  0  0  0  0  0  0  0  0
   43.4057   52.6568   35.8555 H   0  0  0  0  0  0  0  0  0  0  0  0
   40.6608   53.3119   39.0727 H   0  0  0  0  0  0  0  0  0  0  0  0
   42.2568   52.5588   39.4102 H   0  0  0  0  0  0  0  0  0  0  0  0
   42.5565   54.6077   38.6229 H   0  0  0  0  0  0  0  0  0  0  0  0
   41.2916   53.6648   35.3666 H   0  0  0  0  0  0  0  0  0  0  0  0
   40.0862   53.9794   36.6613 H   0  0  0  0  0  0  0  0  0  0  0  0
   -1.8000   62.0849   36.1545 H   0  0  0  0  0  0  0  0  0  0  0  0
   -3.0740   63.3065   36.6637 H   0  0  0  0  0  0  0  0  0  0  0  0
   -1.9088   66.2859   37.4159 H   0  0  0  0  0  0  0  0  0  0  0  0
   -3.0331   65.4133   38.4538 H   0  0  0  0  0  0  0  0  0  0  0  0
   -0.5479   66.4631   39.3006 H   0  0  0  0  0  0  0  0  0  0  0  0
   -1.3874   65.1823   40.1699 H   0  0  0  0  0  0  0  0  0  0  0  0
    0.8571   64.9703   38.0955 H   0  0  0  0  0  0  0  0  0  0  0  0
    0.6964   64.0602   39.5908 H   0  0  0  0  0  0  0  0  0  0  0  0
    0.0311   62.8553   37.2959 H   0  0  0  0  0  0  0  0  0  0  0  0
   -1.3313   61.4310   38.0572 H   0  0  0  0  0  0  0  0  0  0  0  0
   -1.9972   62.2501   40.4870 H   0  0  0  0  0  0  0  0  0  0  0  0
   -2.7962   63.0971   39.2732 H   0  0  0  0  0  0  0  0  0  0  0  0
   -4.0584   65.0252   36.3769 H   0  0  0  0  0  0  0  0  0  0  0  0
   -2.7559   65.7869   35.3677 H   0  0  0  0  0  0  0  0  0  0  0  0
   -4.1513   65.1982   33.7514 H   0  0  0  0  0  0  0  0  0  0  0  0
   -4.4128   61.8352   35.3697 H   0  0  0  0  0  0  0  0  0  0  0  0
   -4.8166   63.0609   36.6144 H   0  0  0  0  0  0  0  0  0  0  0  0
   -6.4975   61.2012   36.7156 H   0  0  0  0  0  0  0  0  0  0  0  0
   -8.5439   62.5213   36.4064 H   0  0  0  0  0  0  0  0  0  0  0  0
   -7.2380   63.5421   37.1290 H   0  0  0  0  0  0  0  0  0  0  0  0
   -8.5053   64.7589   35.2821 H   0  0  0  0  0  0  0  0  0  0  0  0
   -6.0718   65.2016   35.8727 H   0  0  0  0  0  0  0  0  0  0  0  0
   -6.3939   65.4559   34.1222 H   0  0  0  0  0  0  0  0  0  0  0  0
   -9.0480   62.7607   33.9266 H   0  0  0  0  0  0  0  0  0  0  0  0
   -8.1560   63.9973   32.9641 H   0  0  0  0  0  0  0  0  0  0  0  0
   -6.1101   60.4660   34.3342 H   0  0  0  0  0  0  0  0  0  0  0  0
   -7.8537   60.6831   34.7013 H   0  0  0  0  0  0  0  0  0  0  0  0
   -7.7201   60.6747   32.4442 H   0  0  0  0  0  0  0  0  0  0  0  0
   -5.7558   63.6961   32.4591 H   0  0  0  0  0  0  0  0  0  0  0  0
   -4.8866   62.2189   33.0028 H   0  0  0  0  0  0  0  0  0  0  0  0
  1  2  1  0
  2  3  1  0
  3  4  1  0
  4  5  1  0
  5  6  1  0
  3  7  1  0
  6  7  1  0
  7  8  1  0
  8  9  1  0
  2 10  1  0
 10 11  1  0
 12 11  1  6
 12 13  1  0
 13 14  1  0
 14 15  1  0
 15 16  1  0
 12 17  1  0
 16 17  1  0
 16 18  1  0
 14 19  1  0
 18 20  1  0
 19 20  1  0
 20 21  1  1
 12 22  1  0
 20 22  1  0
 23 24  1  0
 24 25  1  0
 25 26  1  0
 26 27  1  0
 27 28  1  0
 25 29  1  0
 28 29  1  0
 29 30  1  0
 30 31  1  0
 24 32  1  0
 32 33  1  0
 34 33  1  6
 34 35  1  0
 35 36  1  0
 36 37  1  0
 37 38  1  0
 34 39  1  0
 38 39  1  0
 38 40  1  0
 36 41  1  0
 40 42  1  0
 41 42  1  0
 42 43  1  6
 34 44  1  0
 42 44  1  0
  1 45  1  0
  2 46  1  0
  4 47  1  0
  4 48  1  0
  5 49  1  0
  5 50  1  0
  6 51  1  0
  6 52  1  0
  7 53  1  1
  8 54  1  6
  9 55  1  0
  9 56  1  0
 10 57  1  0
 10 58  1  0
 11 59  1  0
 13 60  1  0
 13 61  1  0
 14 62  1  1
 15 63  1  0
 15 64  1  0
 16 65  1  6
 17 66  1  0
 17 67  1  0
 18 68  1  0
 18 69  1  0
 19 70  1  0
 19 71  1  0
 21 72  1  0
 22 73  1  0
 22 74  1  0
 23 75  1  0
 24 76  1  0
 26 77  1  0
 26 78  1  0
 27 79  1  0
 27 80  1  0
 28 81  1  0
 28 82  1  0
 29 83  1  6
 30 84  1  1
 31 85  1  0
 31 86  1  0
 32 87  1  0
 32 88  1  0
 33 89  1  0
 35 90  1  0
 35 91  1  0
 36 92  1  1
 37 93  1  0
 37 94  1  0
 38 95  1  1
 39 96  1  0
 39 97  1  0
 40 98  1  0
 40 99  1  0
 41100  1  0
 41101  1  0
 43102  1  0
 44103  1  0
 44104  1  0
M  RAD  2   8   2  30   2
M  END
>  <PDBID>  (1) 
6B1E

>  <PDB ID>  (1) 
6B1E

>  <Generic Name>  (1) 
Vildagliptin

>  <Brand Name>  (1) 
Galvus

>  <DrugBank ID>  (1) 
DB04876

>  <ATC Codes>  (1) 
A10BH02#A10BD08

>  <Ligand ID>  (1) 
LF7

>  <Target Name>  (1) 
Dipeptidyl peptidase 4

>  <UniProt ID>  (1) 
P27487

>  <PDB ID.1>  (1) 
6B1E

>  <Seq. Identity>  (1) 
100%

$$$$
