PDB_DB00783_98
     RDKit          3D

 44 47  0  0  0  0  0  0  0  0999 V2000
   24.0900   -1.6780    4.2190 C   0  0  0  0  0  0  0  0  0  0  0  0
   23.2930   -1.4200    3.1410 C   0  0  0  0  0  0  0  0  0  0  0  0
   21.9220   -1.5480    3.2700 C   0  0  0  0  0  0  0  0  0  0  0  0
   21.1260   -1.3140    2.2330 O   0  0  0  0  0  0  0  0  0  0  0  0
   21.3740   -1.9090    4.4720 C   0  0  0  0  0  0  0  0  0  0  0  0
   22.1490   -2.1810    5.5330 C   0  0  0  0  0  0  0  0  0  0  0  0
   21.5590   -2.5870    6.8560 C   0  0  0  0  0  0  0  0  0  0  0  0
   22.5210   -3.2610    7.8010 C   0  0  0  0  0  0  0  0  0  0  0  0
   23.7140   -2.3390    7.8950 C   0  0  2  0  0  0  0  0  0  0  0  0
   24.4390   -2.3330    6.5500 C   0  0  1  0  0  0  0  0  0  0  0  0
   23.5800   -2.0420    5.4170 C   0  0  0  0  0  0  0  0  0  0  0  0
   25.6330   -1.3820    6.6570 C   0  0  0  0  0  0  0  0  0  0  0  0
   26.5510   -1.7330    7.8260 C   0  0  0  0  0  0  0  0  0  0  0  0
   25.8280   -1.8770    9.1330 C   0  0  1  0  0  0  0  0  0  0  0  0
   24.6620   -2.8170    8.9250 C   0  0  1  0  0  0  0  0  0  0  0  0
   24.1120   -2.9840   10.3240 C   0  0  0  0  0  0  0  0  0  0  0  0
   25.3880   -2.9350   11.1580 C   0  0  0  0  0  0  0  0  0  0  0  0
   26.5410   -2.6320   10.2050 C   0  0  2  0  0  0  0  0  0  0  0  0
   27.5140   -1.8510   10.8390 O   0  0  0  0  0  0  0  0  0  0  0  0
   25.4310   -0.5040    9.6630 C   0  0  0  0  0  0  0  0  0  0  0  0
   25.1807   -1.5869    4.1095 H   0  0  0  0  0  0  0  0  0  0  0  0
   23.7358   -1.1141    2.1817 H   0  0  0  0  0  0  0  0  0  0  0  0
   20.1453   -1.4071    2.3309 H   0  0  0  0  0  0  0  0  0  0  0  0
   20.2804   -1.9771    4.5693 H   0  0  0  0  0  0  0  0  0  0  0  0
   21.1725   -1.6830    7.3494 H   0  0  0  0  0  0  0  0  0  0  0  0
   20.7782   -3.3283    6.6306 H   0  0  0  0  0  0  0  0  0  0  0  0
   22.0585   -3.3921    8.7904 H   0  0  0  0  0  0  0  0  0  0  0  0
   22.8076   -4.2612    7.4440 H   0  0  0  0  0  0  0  0  0  0  0  0
   23.3611   -1.3318    8.1617 H   0  0  0  0  0  0  0  0  0  0  0  0
   24.7954   -3.3520    6.3389 H   0  0  0  0  0  0  0  0  0  0  0  0
   26.2126   -1.4356    5.7236 H   0  0  0  0  0  0  0  0  0  0  0  0
   25.2415   -0.3686    6.8293 H   0  0  0  0  0  0  0  0  0  0  0  0
   27.0542   -2.6846    7.5999 H   0  0  0  0  0  0  0  0  0  0  0  0
   27.2621   -0.9015    7.9397 H   0  0  0  0  0  0  0  0  0  0  0  0
   24.9349   -3.7928    8.4967 H   0  0  0  0  0  0  0  0  0  0  0  0
   23.4276   -2.1642   10.5876 H   0  0  0  0  0  0  0  0  0  0  0  0
   23.5169   -3.8980   10.4666 H   0  0  0  0  0  0  0  0  0  0  0  0
   25.3105   -2.1442   11.9187 H   0  0  0  0  0  0  0  0  0  0  0  0
   25.5518   -3.8914   11.6762 H   0  0  0  0  0  0  0  0  0  0  0  0
   27.0887   -3.5131    9.8393 H   0  0  0  0  0  0  0  0  0  0  0  0
   27.4137   -1.9315   11.8206 H   0  0  0  0  0  0  0  0  0  0  0  0
   25.4357   -0.5201   10.7629 H   0  0  0  0  0  0  0  0  0  0  0  0
   26.1482    0.2489    9.3043 H   0  0  0  0  0  0  0  0  0  0  0  0
   24.4226   -0.2500    9.3043 H   0  0  0  0  0  0  0  0  0  0  0  0
  1  2  2  0
  2  3  1  0
  3  4  1  0
  3  5  2  0
  5  6  1  0
  6  7  1  0
  7  8  1  0
  8  9  1  0
  9 10  1  0
  1 11  1  0
  6 11  2  0
 10 11  1  0
 10 12  1  0
 12 13  1  0
 13 14  1  0
  9 15  1  0
 14 15  1  0
 15 16  1  0
 16 17  1  0
 14 18  1  0
 17 18  1  0
 18 19  1  0
 14 20  1  1
  1 21  1  0
  2 22  1  0
  4 23  1  0
  5 24  1  0
  7 25  1  0
  7 26  1  0
  8 27  1  0
  8 28  1  0
  9 29  1  1
 10 30  1  6
 12 31  1  0
 12 32  1  0
 13 33  1  0
 13 34  1  0
 15 35  1  6
 16 36  1  0
 16 37  1  0
 17 38  1  0
 17 39  1  0
 18 40  1  6
 19 41  1  0
 20 42  1  0
 20 43  1  0
 20 44  1  0
M  END
$$$$
