PDB_DB06335_99
     RDKit          3D

106114  0  0  0  0  0  0  0  0999 V2000
   46.7800   50.8510   35.0450 C   0  0  1  0  0  0  0  0  0  0  0  0
   46.4170   51.4030   36.4610 C   0  0  1  0  0  0  0  0  0  0  0  0
   47.2850   49.3860   35.2530 C   0  0  0  0  0  0  0  0  0  0  0  0
   47.4540   48.6520   33.9130 C   0  0  1  0  0  0  0  0  0  0  0  0
   45.7880   50.1900   32.7670 C   0  0  2  0  0  0  0  0  0  0  0  0
   48.2770   50.8830   32.8870 C   0  0  1  0  0  0  0  0  0  0  0  0
   46.1430   48.7360   33.0990 C   0  0  0  0  0  0  0  0  0  0  0  0
   48.6420   49.3610   33.1420 C   0  0  0  0  0  0  0  0  0  0  0  0
   46.9770   50.9040   32.0030 C   0  0  0  0  0  0  0  0  0  0  0  0
   47.2230   49.0070   40.0900 C   0  0  1  0  0  0  0  0  0  0  0  0
   47.5640   48.1940   38.8860 C   0  0  0  0  0  0  0  0  0  0  0  0
   48.1810   50.0200   40.6900 C   0  0  0  0  0  0  0  0  0  0  0  0
   50.1390   50.2410   39.1100 C   0  0  0  0  0  3  0  0  0  0  0  0
   50.3000   49.7570   37.8420 N   0  0  0  0  0  0  0  0  0  0  0  0
   45.5100   50.8320   34.1520 C   0  0  0  0  0  0  0  0  0  0  0  0
   47.8880   51.6150   34.2470 C   0  0  0  0  0  0  0  0  0  0  0  0
   47.6520   51.4450   37.3980 C   0  0  0  0  0  0  0  0  0  0  0  0
   45.8830   52.7570   36.4260 N   0  0  0  0  0  0  0  0  0  0  0  0
   47.7030   50.5270   38.3750 N   0  0  0  0  0  0  0  0  0  0  0  0
   48.5390   52.2840   37.2570 O   0  0  0  0  0  0  0  0  0  0  0  0
   47.5470   47.2890   34.2220 O   0  0  0  0  0  0  0  0  0  0  0  0
   46.7350   49.4420   38.7750 C   0  0  2  0  0  0  0  0  0  0  0  0
   48.6860   50.7000   39.4800 C   0  0  1  0  0  0  0  0  0  0  0  0
   66.4430   72.4150   71.0990 C   0  0  1  0  0  0  0  0  0  0  0  0
   65.8870   72.6960   69.6490 C   0  0  1  0  0  0  0  0  0  0  0  0
   67.9470   72.1390   71.0210 C   0  0  0  0  0  0  0  0  0  0  0  0
   68.5590   71.9600   72.4190 C   0  0  1  0  0  0  0  0  0  0  0  0
   66.8160   73.4630   73.4040 C   0  0  2  0  0  0  0  0  0  0  0  0
   66.3870   70.9400   73.2330 C   0  0  1  0  0  0  0  0  0  0  0  0
   68.3050   73.2490   73.2460 C   0  0  0  0  0  0  0  0  0  0  0  0
   67.9120   70.6940   73.0810 C   0  0  0  0  0  0  0  0  0  0  0  0
   66.2290   72.2230   74.1350 C   0  0  0  0  0  0  0  0  0  0  0  0
   68.6380   72.0130   66.1540 C   0  0  1  0  0  0  0  0  0  0  0  0
   68.9990   71.9700   67.6110 C   0  0  0  0  0  0  0  0  0  0  0  0
   67.7240   71.0410   65.4460 C   0  0  0  0  0  0  0  0  0  0  0  0
   67.5180   69.1910   67.0900 C   0  0  0  0  0  3  0  0  0  0  0  0
   67.0210   68.7270   68.2460 N   0  0  0  0  0  0  0  0  0  0  0  0
   66.2290   73.6910   71.9760 C   0  0  0  0  0  0  0  0  0  0  0  0
   65.7800   71.2180   71.8150 C   0  0  0  0  0  0  0  0  0  0  0  0
   65.9280   71.5530   68.6130 C   0  0  0  0  0  0  0  0  0  0  0  0
   64.5150   73.1010   69.6690 N   0  0  0  0  0  0  0  0  0  0  0  0
   66.8880   71.5120   67.6940 N   0  0  0  0  0  0  0  0  0  0  0  0
   65.0540   70.6980   68.6370 O   0  0  0  0  0  0  0  0  0  0  0  0
   69.9580   71.8640   72.2920 O   0  0  0  0  0  0  0  0  0  0  0  0
   67.7520   72.6200   67.1480 C   0  0  2  0  0  0  0  0  0  0  0  0
   66.8640   70.5240   66.5700 C   0  0  1  0  0  0  0  0  0  0  0  0
   45.6533   50.7064   36.8372 H   0  0  0  0  0  0  0  0  0  0  0  0
   48.2552   49.4126   35.7707 H   0  0  0  0  0  0  0  0  0  0  0  0
   46.5366   48.8449   35.8506 H   0  0  0  0  0  0  0  0  0  0  0  0
   44.9236   50.2801   32.0927 H   0  0  0  0  0  0  0  0  0  0  0  0
   49.1400   51.3826   32.4227 H   0  0  0  0  0  0  0  0  0  0  0  0
   46.2662   48.1738   32.1616 H   0  0  0  0  0  0  0  0  0  0  0  0
   45.3297   48.3086   33.7039 H   0  0  0  0  0  0  0  0  0  0  0  0
   49.5587   49.3007   33.7470 H   0  0  0  0  0  0  0  0  0  0  0  0
   48.8037   48.8575   32.1775 H   0  0  0  0  0  0  0  0  0  0  0  0
   47.1712   50.3760   31.0577 H   0  0  0  0  0  0  0  0  0  0  0  0
   46.6978   51.9480   31.7980 H   0  0  0  0  0  0  0  0  0  0  0  0
   46.8285   48.6937   41.0678 H   0  0  0  0  0  0  0  0  0  0  0  0
   48.5949   48.1784   38.5025 H   0  0  0  0  0  0  0  0  0  0  0  0
   47.4428   47.1418   38.5890 H   0  0  0  0  0  0  0  0  0  0  0  0
   47.6583   50.7216   41.3567 H   0  0  0  0  0  0  0  0  0  0  0  0
   48.9685   49.5762   41.3168 H   0  0  0  0  0  0  0  0  0  0  0  0
   50.4336   49.4493   39.8145 H   0  0  0  0  0  0  0  0  0  0  0  0
   50.6248   48.7805   37.8859 H   0  0  0  0  0  0  0  0  0  0  0  0
   49.4003   49.7974   37.3423 H   0  0  0  0  0  0  0  0  0  0  0  0
   44.7253   50.2534   34.6614 H   0  0  0  0  0  0  0  0  0  0  0  0
   45.1917   51.8722   33.9886 H   0  0  0  0  0  0  0  0  0  0  0  0
   47.5199   52.6244   34.0112 H   0  0  0  0  0  0  0  0  0  0  0  0
   48.7891   51.6491   34.8769 H   0  0  0  0  0  0  0  0  0  0  0  0
   47.1179   52.1317   38.0712 H   0  0  0  0  0  0  0  0  0  0  0  0
   45.7485   53.0980   37.3886 H   0  0  0  0  0  0  0  0  0  0  0  0
   46.5437   53.3740   35.9323 H   0  0  0  0  0  0  0  0  0  0  0  0
   48.8549   52.5829   38.1464 H   0  0  0  0  0  0  0  0  0  0  0  0
   47.5549   47.1733   35.2052 H   0  0  0  0  0  0  0  0  0  0  0  0
   45.7643   49.7012   38.3271 H   0  0  0  0  0  0  0  0  0  0  0  0
   48.7796   51.7782   39.6770 H   0  0  0  0  0  0  0  0  0  0  0  0
   66.5965   73.4734   69.3293 H   0  0  0  0  0  0  0  0  0  0  0  0
   68.1123   71.2210   70.4380 H   0  0  0  0  0  0  0  0  0  0  0  0
   68.4319   73.0009   70.5393 H   0  0  0  0  0  0  0  0  0  0  0  0
   66.5602   74.3425   74.0131 H   0  0  0  0  0  0  0  0  0  0  0  0
   65.8734   70.0758   73.6796 H   0  0  0  0  0  0  0  0  0  0  0  0
   68.7676   73.1447   74.2385 H   0  0  0  0  0  0  0  0  0  0  0  0
   68.7455   74.1114   72.7243 H   0  0  0  0  0  0  0  0  0  0  0  0
   68.0838   69.8139   72.4439 H   0  0  0  0  0  0  0  0  0  0  0  0
   68.3638   70.5131   74.0675 H   0  0  0  0  0  0  0  0  0  0  0  0
   66.7666   72.0705   75.0825 H   0  0  0  0  0  0  0  0  0  0  0  0
   65.1610   72.3941   74.3351 H   0  0  0  0  0  0  0  0  0  0  0  0
   69.3266   72.1957   65.3159 H   0  0  0  0  0  0  0  0  0  0  0  0
   68.9555   71.0202   68.1641 H   0  0  0  0  0  0  0  0  0  0  0  0
   69.8665   72.2760   68.2141 H   0  0  0  0  0  0  0  0  0  0  0  0
   67.1170   71.5500   64.6828 H   0  0  0  0  0  0  0  0  0  0  0  0
   68.2615   70.2483   64.9049 H   0  0  0  0  0  0  0  0  0  0  0  0
   68.5941   69.3712   67.2296 H   0  0  0  0  0  0  0  0  0  0  0  0
   67.5056   69.1794   69.0343 H   0  0  0  0  0  0  0  0  0  0  0  0
   66.0139   68.9373   68.2958 H   0  0  0  0  0  0  0  0  0  0  0  0
   66.7373   74.5456   71.5056 H   0  0  0  0  0  0  0  0  0  0  0  0
   65.1514   73.8961   72.0575 H   0  0  0  0  0  0  0  0  0  0  0  0
   64.7063   71.4283   71.9284 H   0  0  0  0  0  0  0  0  0  0  0  0
   65.9606   70.3248   71.1989 H   0  0  0  0  0  0  0  0  0  0  0  0
   65.3015   72.1478   67.9320 H   0  0  0  0  0  0  0  0  0  0  0  0
   64.1988   73.1943   70.6448 H   0  0  0  0  0  0  0  0  0  0  0  0
   64.4173   74.0067   69.1883 H   0  0  0  0  0  0  0  0  0  0  0  0
   64.8312   70.4801   69.5767 H   0  0  0  0  0  0  0  0  0  0  0  0
   70.3699   71.8357   73.1918 H   0  0  0  0  0  0  0  0  0  0  0  0
   67.2216   73.5837   67.1506 H   0  0  0  0  0  0  0  0  0  0  0  0
   65.8320   70.3635   66.2246 H   0  0  0  0  0  0  0  0  0  0  0  0
  1  2  1  0
  1  3  1  0
  3  4  1  0
  4  7  1  0
  5  7  1  0
  4  8  1  0
  6  8  1  0
  5  9  1  0
  6  9  1  0
 10 11  1  0
 10 12  1  0
 13 14  1  0
  1 15  1  6
  5 15  1  0
  1 16  1  0
  6 16  1  0
  2 17  1  0
  2 18  1  0
 17 19  1  0
 17 20  1  0
  4 21  1  1
 10 22  1  0
 11 22  1  0
 19 22  1  0
 12 23  1  0
 13 23  1  0
 19 23  1  0
 24 25  1  0
 24 26  1  6
 26 27  1  0
 27 30  1  0
 28 30  1  0
 27 31  1  0
 29 31  1  0
 28 32  1  0
 29 32  1  0
 33 34  1  0
 33 35  1  0
 36 37  1  0
 24 38  1  0
 28 38  1  0
 24 39  1  0
 29 39  1  0
 25 40  1  0
 25 41  1  0
 40 42  1  0
 40 43  1  0
 27 44  1  6
 33 45  1  0
 34 45  1  0
 42 45  1  0
 35 46  1  0
 36 46  1  0
 42 46  1  0
  2 47  1  1
  3 48  1  0
  3 49  1  0
  5 50  1  6
  6 51  1  6
  7 52  1  0
  7 53  1  0
  8 54  1  0
  8 55  1  0
  9 56  1  0
  9 57  1  0
 10 58  1  1
 11 59  1  0
 11 60  1  0
 12 61  1  0
 12 62  1  0
 13 63  1  1
 14 64  1  0
 14 65  1  0
 15 66  1  0
 15 67  1  0
 16 68  1  0
 16 69  1  0
 17 70  1  0
 18 71  1  0
 18 72  1  0
 20 73  1  0
 21 74  1  0
 22 75  1  1
 23 76  1  1
 25 77  1  6
 26 78  1  0
 26 79  1  0
 28 80  1  1
 29 81  1  1
 30 82  1  0
 30 83  1  0
 31 84  1  0
 31 85  1  0
 32 86  1  0
 32 87  1  0
 33 88  1  6
 34 89  1  0
 34 90  1  0
 35 91  1  0
 35 92  1  0
 36 93  1  6
 37 94  1  0
 37 95  1  0
 38 96  1  0
 38 97  1  0
 39 98  1  0
 39 99  1  0
 40100  1  0
 41101  1  0
 41102  1  0
 43103  1  0
 44104  1  0
 45105  1  6
 46106  1  6
M  RAD  2  13   2  36   2
M  END
>  <PDBID>  (1) 
3BJM

>  <PDB ID>  (1) 
3BJM

>  <Generic Name>  (1) 
Saxagliptin

>  <Brand Name>  (1) 
Kombiglyze XR#Komboglyze#Onglyza#Qtern

>  <DrugBank ID>  (1) 
DB06335

>  <ATC Codes>  (1) 
A10BD10#A10BH03#A10BD21

>  <Ligand ID>  (1) 
BJM

>  <Target Name>  (1) 
Dipeptidyl peptidase 4

>  <UniProt ID>  (1) 
P27487

>  <PDB ID.1>  (1) 
3BJM

>  <Seq. Identity>  (1) 
100%

$$$$
