PDB_DB01254_97
     RDKit          3D

 59 62  0  0  0  0  0  0  0  0999 V2000
  -44.6700  -17.1000    1.2760 C   0  0  0  0  0  0  0  0  0  0  0  0
  -43.3930  -16.8300    1.7820 C   0  0  0  0  0  0  0  0  0  0  0  0
  -42.3070  -17.7200    2.2770 C   0  0  0  0  0  0  0  0  0  0  0  0
  -46.3870   -6.5270   -0.4900 N   0  0  0  0  0  0  0  0  0  0  0  0
  -39.4800  -21.5960    3.8890 C   0  0  0  0  0  0  0  0  0  0  0  0
  -40.6120  -21.2320    4.6120 C   0  0  0  0  0  0  0  0  0  0  0  0
  -41.6010  -20.3940    4.0670 C   0  0  0  0  0  0  0  0  0  0  0  0
  -42.7880  -20.0730    4.9430 C   0  0  0  0  0  0  0  0  0  0  0  0
  -44.8050  -12.3630    1.1310 C   0  0  0  0  0  0  0  0  0  0  0  0
  -45.4480  -11.2350    0.6630 C   0  0  0  0  0  0  0  0  0  0  0  0
  -44.8340   -9.9990    0.9020 C   0  0  0  0  0  0  0  0  0  0  0  0
  -43.0640  -10.9780    2.0060 C   0  0  0  0  0  0  0  0  0  0  0  0
  -41.7530  -10.8540    2.7480 C   0  0  0  0  0  0  0  0  0  0  0  0
  -46.8170   -8.7570    0.3310 C   0  0  0  0  0  0  0  0  0  0  0  0
  -44.4770   -7.6500    0.4610 C   0  0  0  0  0  0  0  0  0  0  0  0
  -47.1660   -5.8140   -1.4990 C   0  0  0  0  0  0  0  0  0  0  0  0
  -46.4210   -4.5180   -1.7870 C   0  0  0  0  0  0  0  0  0  0  0  0
  -45.3360  -13.6190    0.9260 N   0  0  0  0  0  0  0  0  0  0  0  0
  -44.7200  -14.8070    1.2030 C   0  0  0  0  0  0  0  0  0  0  0  0
  -45.3680  -15.9630    0.9660 N   0  0  0  0  0  0  0  0  0  0  0  0
  -43.0980  -15.0920    1.8620 S   0  0  0  0  0  0  0  0  0  0  0  0
  -42.4550  -19.0580    2.2480 N   0  0  0  0  0  0  0  0  0  0  0  0
  -41.4990  -19.8940    2.7790 C   0  0  0  0  0  0  0  0  0  0  0  0
  -40.3500  -20.2640    2.0600 C   0  0  0  0  0  0  0  0  0  0  0  0
  -39.3560  -21.1010    2.5920 C   0  0  0  0  0  0  0  0  0  0  0  0
  -40.1090  -19.6740    0.3900 Cl  0  0  0  0  0  0  0  0  0  0  0  0
  -41.3010  -17.1650    2.6820 O   0  0  0  0  0  0  0  0  0  0  0  0
  -43.6700   -9.8680    1.5590 N   0  0  0  0  0  0  0  0  0  0  0  0
  -43.6420  -12.1840    1.7850 N   0  0  0  0  0  0  0  0  0  0  0  0
  -45.3830   -8.8200    0.4840 N   0  0  0  0  0  0  0  0  0  0  0  0
  -47.1620   -7.2960    0.4840 C   0  0  0  0  0  0  0  0  0  0  0  0
  -44.9450   -6.6930   -0.6280 C   0  0  0  0  0  0  0  0  0  0  0  0
  -46.4270   -3.7490   -0.5670 O   0  0  0  0  0  0  0  0  0  0  0  0
  -45.0698  -18.1159    1.1418 H   0  0  0  0  0  0  0  0  0  0  0  0
  -38.7111  -22.2506    4.3253 H   0  0  0  0  0  0  0  0  0  0  0  0
  -40.7365  -21.6100    5.6375 H   0  0  0  0  0  0  0  0  0  0  0  0
  -42.4954  -20.1521    6.0004 H   0  0  0  0  0  0  0  0  0  0  0  0
  -43.1323  -19.0495    4.7334 H   0  0  0  0  0  0  0  0  0  0  0  0
  -43.6012  -20.7835    4.7334 H   0  0  0  0  0  0  0  0  0  0  0  0
  -46.4044  -11.3039    0.1239 H   0  0  0  0  0  0  0  0  0  0  0  0
  -41.9418  -10.8719    3.8315 H   0  0  0  0  0  0  0  0  0  0  0  0
  -41.0970  -11.6941    2.4762 H   0  0  0  0  0  0  0  0  0  0  0  0
  -41.2661   -9.9058    2.4762 H   0  0  0  0  0  0  0  0  0  0  0  0
  -47.1163   -9.1230   -0.6622 H   0  0  0  0  0  0  0  0  0  0  0  0
  -47.3393   -9.3844    1.0683 H   0  0  0  0  0  0  0  0  0  0  0  0
  -44.5029   -7.1423    1.4365 H   0  0  0  0  0  0  0  0  0  0  0  0
  -43.4469   -7.9769    0.2562 H   0  0  0  0  0  0  0  0  0  0  0  0
  -47.2447   -6.4182   -2.4148 H   0  0  0  0  0  0  0  0  0  0  0  0
  -48.1876   -5.6140   -1.1436 H   0  0  0  0  0  0  0  0  0  0  0  0
  -45.3866   -4.7363   -2.0910 H   0  0  0  0  0  0  0  0  0  0  0  0
  -46.9025   -3.9614   -2.6046 H   0  0  0  0  0  0  0  0  0  0  0  0
  -46.2845  -13.6661    0.5273 H   0  0  0  0  0  0  0  0  0  0  0  0
  -43.2996  -19.4637    1.8203 H   0  0  0  0  0  0  0  0  0  0  0  0
  -38.4783  -21.3664    1.9844 H   0  0  0  0  0  0  0  0  0  0  0  0
  -46.9134   -6.9615    1.5020 H   0  0  0  0  0  0  0  0  0  0  0  0
  -48.2377   -7.1446    0.3109 H   0  0  0  0  0  0  0  0  0  0  0  0
  -44.7100   -7.1102   -1.6183 H   0  0  0  0  0  0  0  0  0  0  0  0
  -44.4366   -5.7225   -0.5294 H   0  0  0  0  0  0  0  0  0  0  0  0
  -46.4222   -4.3626    0.2099 H   0  0  0  0  0  0  0  0  0  0  0  0
  1  2  2  0
  2  3  1  0
  5  6  2  0
  6  7  1  0
  7  8  1  0
  9 10  2  0
 10 11  1  0
 12 13  1  0
  4 16  1  0
 16 17  1  0
  9 18  1  0
 18 19  1  0
  1 20  1  0
 19 20  2  0
  2 21  1  0
 19 21  1  0
  3 22  1  0
  7 23  2  0
 22 23  1  0
 23 24  1  0
  5 25  1  0
 24 25  2  0
 24 26  1  0
  3 27  2  0
 11 28  2  0
 12 28  1  0
  9 29  1  0
 12 29  2  0
 11 30  1  0
 14 30  1  0
 15 30  1  0
  4 31  1  0
 14 31  1  0
  4 32  1  0
 15 32  1  0
 17 33  1  0
  1 34  1  0
  5 35  1  0
  6 36  1  0
  8 37  1  0
  8 38  1  0
  8 39  1  0
 10 40  1  0
 13 41  1  0
 13 42  1  0
 13 43  1  0
 14 44  1  0
 14 45  1  0
 15 46  1  0
 15 47  1  0
 16 48  1  0
 16 49  1  0
 17 50  1  0
 17 51  1  0
 18 52  1  0
 22 53  1  0
 25 54  1  0
 31 55  1  0
 31 56  1  0
 32 57  1  0
 32 58  1  0
 33 59  1  0
M  END
$$$$
