PDB_DB00218_99
     RDKit          3D

 53 57  0  0  0  0  0  0  0  0999 V2000
   41.3680  -49.3060   63.1350 F   0  0  0  0  0  0  0  0  0  0  0  0
   42.6930  -47.2470   67.3970 O   0  0  0  0  0  0  0  0  0  0  0  0
   41.4500  -44.4630   61.9890 O   0  0  0  0  0  0  0  0  0  0  0  0
   42.4490  -40.9180   63.9160 O   0  0  0  0  0  0  0  0  0  0  0  0
   41.4790  -41.8180   62.1740 O   0  0  0  0  0  0  0  0  0  0  0  0
   42.1590  -49.6140   66.0380 N   0  0  0  0  0  0  0  0  0  0  0  0
   43.4490  -52.4390   66.7850 N   0  0  0  0  0  0  0  0  0  0  0  0
   42.4380  -44.4980   66.0380 N   0  0  0  0  0  0  0  0  0  0  0  0
   41.1290  -51.5090   67.0820 C   0  0  2  0  0  0  0  0  0  0  0  0
   42.2260  -51.9970   66.1250 C   0  0  1  0  0  0  0  0  0  0  0  0
   40.9500  -50.0360   66.7500 C   0  0  0  0  0  0  0  0  0  0  0  0
   42.5460  -50.7960   65.2520 C   0  0  0  0  0  0  0  0  0  0  0  0
   41.3230  -51.6400   68.6030 C   0  0  0  0  0  0  0  0  0  0  0  0
   42.7300  -44.3200   67.4750 C   0  0  0  0  0  0  0  0  0  0  0  0
   42.6860  -52.0900   69.1290 C   0  0  0  0  0  0  0  0  0  0  0  0
   41.4470  -44.4990   68.2960 C   0  0  0  0  0  0  0  0  0  0  0  0
   42.0380  -43.1120   68.1120 C   0  0  0  0  0  0  0  0  0  0  0  0
   43.8330  -51.9780   68.1170 C   0  0  0  0  0  0  0  0  0  0  0  0
   42.0080  -48.3710   65.3410 C   0  0  0  0  0  0  0  0  0  0  0  0
   42.2550  -45.7800   65.4020 C   0  0  0  0  0  0  0  0  0  0  0  0
   42.3040  -47.1170   66.0990 C   0  0  0  0  0  0  0  0  0  0  0  0
   41.8860  -45.8030   63.9400 C   0  0  0  0  0  0  0  0  0  0  0  0
   41.6970  -48.2420   63.8800 C   0  0  0  0  0  0  0  0  0  0  0  0
   42.4160  -43.3660   65.3080 C   0  0  0  0  0  0  0  0  0  0  0  0
   41.6830  -47.0000   63.2540 C   0  0  0  0  0  0  0  0  0  0  0  0
   42.0350  -43.2690   63.9700 C   0  0  0  0  0  0  0  0  0  0  0  0
   41.7520  -44.5100   63.2070 C   0  0  0  0  0  0  0  0  0  0  0  0
   41.9860  -41.9170   63.3120 C   0  0  0  0  0  0  0  0  0  0  0  0
   44.1030  -47.4710   67.5740 C   0  0  0  0  0  0  0  0  0  0  0  0
   42.4205  -40.0249   63.4898 H   0  0  0  0  0  0  0  0  0  0  0  0
   43.3870  -53.4654   66.8445 H   0  0  0  0  0  0  0  0  0  0  0  0
   40.2737  -52.1785   66.9084 H   0  0  0  0  0  0  0  0  0  0  0  0
   41.8599  -52.8777   65.5771 H   0  0  0  0  0  0  0  0  0  0  0  0
   40.8307  -49.4511   67.6739 H   0  0  0  0  0  0  0  0  0  0  0  0
   40.0525  -49.8758   66.1345 H   0  0  0  0  0  0  0  0  0  0  0  0
   41.9700  -50.8387   64.3158 H   0  0  0  0  0  0  0  0  0  0  0  0
   43.6106  -50.7680   64.9767 H   0  0  0  0  0  0  0  0  0  0  0  0
   41.1149  -50.6535   69.0429 H   0  0  0  0  0  0  0  0  0  0  0  0
   40.6412  -52.4534   68.8921 H   0  0  0  0  0  0  0  0  0  0  0  0
   43.7611  -44.7028   67.4899 H   0  0  0  0  0  0  0  0  0  0  0  0
   42.9378  -51.4702   70.0021 H   0  0  0  0  0  0  0  0  0  0  0  0
   42.5882  -53.1587   69.3703 H   0  0  0  0  0  0  0  0  0  0  0  0
   40.5058  -44.7663   67.7933 H   0  0  0  0  0  0  0  0  0  0  0  0
   41.1589  -45.1117   69.1630 H   0  0  0  0  0  0  0  0  0  0  0  0
   42.5062  -42.5973   68.9640 H   0  0  0  0  0  0  0  0  0  0  0  0
   41.6573  -42.1501   67.7382 H   0  0  0  0  0  0  0  0  0  0  0  0
   44.6774  -52.5873   68.4716 H   0  0  0  0  0  0  0  0  0  0  0  0
   44.1070  -50.9156   68.0376 H   0  0  0  0  0  0  0  0  0  0  0  0
   42.7253  -42.4378   65.8108 H   0  0  0  0  0  0  0  0  0  0  0  0
   41.5038  -46.9602   62.1694 H   0  0  0  0  0  0  0  0  0  0  0  0
   44.3364  -47.5081   68.6483 H   0  0  0  0  0  0  0  0  0  0  0  0
   44.3845  -48.4251   67.1045 H   0  0  0  0  0  0  0  0  0  0  0  0
   44.6663  -46.6511   67.1045 H   0  0  0  0  0  0  0  0  0  0  0  0
  7 10  1  0
  9 10  1  0
  6 11  1  0
  9 11  1  0
  6 12  1  0
 10 12  1  0
  9 13  1  0
  8 14  1  0
 13 15  1  0
 14 16  1  0
 14 17  1  0
 16 17  1  0
  7 18  1  0
 15 18  1  0
  6 19  1  0
  8 20  1  0
  2 21  1  0
 19 21  2  0
 20 21  1  0
 20 22  2  0
  1 23  1  0
 19 23  1  0
  8 24  1  0
 22 25  1  0
 23 25  2  0
 24 26  2  0
 22 27  1  0
 26 27  1  0
 27  3  2  0
  4 28  1  0
 26 28  1  0
 28  5  2  0
  2 29  1  0
  4 30  1  0
  7 31  1  0
  9 32  1  6
 10 33  1  6
 11 34  1  0
 11 35  1  0
 12 36  1  0
 12 37  1  0
 13 38  1  0
 13 39  1  0
 14 40  1  0
 15 41  1  0
 15 42  1  0
 16 43  1  0
 16 44  1  0
 17 45  1  0
 17 46  1  0
 18 47  1  0
 18 48  1  0
 24 49  1  0
 25 50  1  0
 29 51  1  0
 29 52  1  0
 29 53  1  0
M  END
$$$$
