PDB_DB00783_96
     RDKit          3D

100106  0  0  0  0  0  0  0  0999 V2000
   -8.8100   36.9870   13.2500 C   0  0  0  0  0  0  0  0  0  0  0  0
   -7.5670   36.4120   13.4620 C   0  0  0  0  0  0  0  0  0  0  0  0
   -7.3430   34.9970   13.2210 C   0  0  0  0  0  0  0  0  0  0  0  0
   -6.0830   34.3740   13.4580 O   0  0  0  0  0  0  0  0  0  0  0  0
   -8.4230   34.2380   12.7540 C   0  0  0  0  0  0  0  0  0  0  0  0
   -9.6860   34.8010   12.5000 C   0  0  0  0  0  0  0  0  0  0  0  0
  -10.8480   33.8930   11.9920 C   0  0  0  0  0  0  0  0  0  0  0  0
  -12.2380   34.4910   12.2830 C   0  0  0  0  0  0  0  0  0  0  0  0
  -12.2450   35.9410   11.6740 C   0  0  2  0  0  0  0  0  0  0  0  0
  -11.2790   36.8540   12.4890 C   0  0  1  0  0  0  0  0  0  0  0  0
   -9.8870   36.2450   12.7520 C   0  0  0  0  0  0  0  0  0  0  0  0
  -11.2210   38.3170   11.9390 C   0  0  0  0  0  0  0  0  0  0  0  0
  -12.6240   39.0060   11.7800 C   0  0  0  0  0  0  0  0  0  0  0  0
  -13.5430   38.0660   10.9260 C   0  0  1  0  0  0  0  0  0  0  0  0
  -13.6180   36.6610   11.6300 C   0  0  1  0  0  0  0  0  0  0  0  0
  -14.7980   35.8710   10.9330 C   0  0  0  0  0  0  0  0  0  0  0  0
  -15.7770   37.0260   10.5690 C   0  0  0  0  0  0  0  0  0  0  0  0
  -15.0620   38.3330   10.9870 C   0  0  2  0  0  0  0  0  0  0  0  0
  -15.4180   39.4830   10.2120 O   0  0  0  0  0  0  0  0  0  0  0  0
  -13.0790   37.9970    9.4150 C   0  0  0  0  0  0  0  0  0  0  0  0
  -27.5990   26.1130  -14.2190 C   0  0  0  0  0  0  0  0  0  0  0  0
  -27.7290   24.7390  -14.4260 C   0  0  0  0  0  0  0  0  0  0  0  0
  -26.6320   23.8590  -14.2030 C   0  0  0  0  0  0  0  0  0  0  0  0
  -26.6970   22.4600  -14.4360 O   0  0  0  0  0  0  0  0  0  0  0  0
  -25.4200   24.4160  -13.7600 C   0  0  0  0  0  0  0  0  0  0  0  0
  -25.2930   25.7750  -13.4950 C   0  0  0  0  0  0  0  0  0  0  0  0
  -23.9380   26.3470  -12.9920 C   0  0  0  0  0  0  0  0  0  0  0  0
  -23.7390   27.8160  -13.2720 C   0  0  0  0  0  0  0  0  0  0  0  0
  -25.0150   28.5430  -12.6760 C   0  0  2  0  0  0  0  0  0  0  0  0
  -26.2790   28.2010  -13.4970 C   0  0  1  0  0  0  0  0  0  0  0  0
  -26.4410   26.6800  -13.7220 C   0  0  1  0  0  0  0  0  0  0  0  0
  -27.5780   28.8860  -12.9810 C   0  0  0  0  0  0  0  0  0  0  0  0
  -27.4370   30.4120  -12.7620 C   0  0  0  0  0  0  0  0  0  0  0  0
  -26.1790   30.7470  -11.9590 C   0  0  1  0  0  0  0  0  0  0  0  0
  -24.9420   30.0850  -12.6360 C   0  0  1  0  0  0  0  0  0  0  0  0
  -23.6950   30.7230  -11.9340 C   0  0  0  0  0  0  0  0  0  0  0  0
  -24.1870   32.1540  -11.5940 C   0  0  0  0  0  0  0  0  0  0  0  0
  -25.6840   32.1870  -12.0450 C   0  0  2  0  0  0  0  0  0  0  0  0
  -26.4710   33.0900  -11.2230 O   0  0  0  0  0  0  0  0  0  0  0  0
  -26.3650   30.3190  -10.4610 C   0  0  0  0  0  0  0  0  0  0  0  0
   -9.1343   37.3901   14.2208 H   0  0  0  0  0  0  0  0  0  0  0  0
   -8.6072   37.6879   12.4268 H   0  0  0  0  0  0  0  0  0  0  0  0
   -6.8585   36.9542   12.8185 H   0  0  0  0  0  0  0  0  0  0  0  0
   -7.4480   36.4919   14.5526 H   0  0  0  0  0  0  0  0  0  0  0  0
   -7.0379   35.2212   12.1882 H   0  0  0  0  0  0  0  0  0  0  0  0
   -5.9304   34.2986   14.4333 H   0  0  0  0  0  0  0  0  0  0  0  0
   -8.0930   33.7871   11.8065 H   0  0  0  0  0  0  0  0  0  0  0  0
   -8.6337   33.5893   13.6170 H   0  0  0  0  0  0  0  0  0  0  0  0
   -9.3877   35.0010   11.4603 H   0  0  0  0  0  0  0  0  0  0  0  0
  -10.7421   33.7603   10.9052 H   0  0  0  0  0  0  0  0  0  0  0  0
  -10.7794   32.9340   12.5264 H   0  0  0  0  0  0  0  0  0  0  0  0
  -13.0203   33.8783   11.8112 H   0  0  0  0  0  0  0  0  0  0  0  0
  -12.4386   34.5159   13.3643 H   0  0  0  0  0  0  0  0  0  0  0  0
  -11.9354   35.7895   10.6294 H   0  0  0  0  0  0  0  0  0  0  0  0
  -11.7338   36.9181   13.4885 H   0  0  0  0  0  0  0  0  0  0  0  0
   -9.5660   36.4691   11.7240 H   0  0  0  0  0  0  0  0  0  0  0  0
  -10.6173   38.9215   12.6319 H   0  0  0  0  0  0  0  0  0  0  0  0
  -10.7845   38.2567   10.9311 H   0  0  0  0  0  0  0  0  0  0  0  0
  -13.0741   39.1653   12.7710 H   0  0  0  0  0  0  0  0  0  0  0  0
  -12.5123   39.9801   11.2814 H   0  0  0  0  0  0  0  0  0  0  0  0
  -13.8510   36.7490   12.7014 H   0  0  0  0  0  0  0  0  0  0  0  0
  -14.4502   35.3414   10.0338 H   0  0  0  0  0  0  0  0  0  0  0  0
  -15.2450   35.0876   11.5627 H   0  0  0  0  0  0  0  0  0  0  0  0
  -15.9801   37.0295    9.4879 H   0  0  0  0  0  0  0  0  0  0  0  0
  -16.7444   36.9127   11.0803 H   0  0  0  0  0  0  0  0  0  0  0  0
  -15.3892   38.5896   12.0054 H   0  0  0  0  0  0  0  0  0  0  0  0
  -15.6495   40.2307   10.8182 H   0  0  0  0  0  0  0  0  0  0  0  0
  -11.9918   37.8353    9.3723 H   0  0  0  0  0  0  0  0  0  0  0  0
  -13.5934   37.1655    8.9111 H   0  0  0  0  0  0  0  0  0  0  0  0
  -13.3292   38.9422    8.9111 H   0  0  0  0  0  0  0  0  0  0  0  0
  -27.7779   26.5879  -15.1950 H   0  0  0  0  0  0  0  0  0  0  0  0
  -28.3079   26.2865  -13.3960 H   0  0  0  0  0  0  0  0  0  0  0  0
  -28.5423   24.3987  -13.7682 H   0  0  0  0  0  0  0  0  0  0  0  0
  -27.8786   24.6702  -15.5136 H   0  0  0  0  0  0  0  0  0  0  0  0
  -26.9683   23.7022  -13.1675 H   0  0  0  0  0  0  0  0  0  0  0  0
  -26.7192   21.9818  -13.5694 H   0  0  0  0  0  0  0  0  0  0  0  0
  -25.1626   23.8937  -12.8267 H   0  0  0  0  0  0  0  0  0  0  0  0
  -24.7691   24.2872  -14.6373 H   0  0  0  0  0  0  0  0  0  0  0  0
  -25.6059   25.6014  -12.4548 H   0  0  0  0  0  0  0  0  0  0  0  0
  -23.8824   26.1935  -11.9042 H   0  0  0  0  0  0  0  0  0  0  0  0
  -23.1486   25.8131  -13.5414 H   0  0  0  0  0  0  0  0  0  0  0  0
  -22.8252   28.1800  -12.7795 H   0  0  0  0  0  0  0  0  0  0  0  0
  -23.6256   28.0124  -14.3484 H   0  0  0  0  0  0  0  0  0  0  0  0
  -25.0555   28.1693  -11.6422 H   0  0  0  0  0  0  0  0  0  0  0  0
  -26.1111   28.6468  -14.4885 H   0  0  0  0  0  0  0  0  0  0  0  0
  -26.7905   26.4941  -12.6957 H   0  0  0  0  0  0  0  0  0  0  0  0
  -28.3765   28.7140  -13.7177 H   0  0  0  0  0  0  0  0  0  0  0  0
  -27.8057   28.4421  -12.0006 H   0  0  0  0  0  0  0  0  0  0  0  0
  -27.3798   30.9102  -13.7410 H   0  0  0  0  0  0  0  0  0  0  0  0
  -28.3125   30.7627  -12.1959 H   0  0  0  0  0  0  0  0  0  0  0  0
  -24.8848   30.2944  -13.7144 H   0  0  0  0  0  0  0  0  0  0  0  0
  -23.4270   30.1691  -11.0222 H   0  0  0  0  0  0  0  0  0  0  0  0
  -22.7897   30.7106  -12.5588 H   0  0  0  0  0  0  0  0  0  0  0  0
  -24.1047   32.3443  -10.5137 H   0  0  0  0  0  0  0  0  0  0  0  0
  -23.5874   32.9268  -12.0973 H   0  0  0  0  0  0  0  0  0  0  0  0
  -25.7864   32.5738  -13.0697 H   0  0  0  0  0  0  0  0  0  0  0  0
  -26.3028   32.8970  -10.2667 H   0  0  0  0  0  0  0  0  0  0  0  0
  -26.0138   31.1271   -9.8025 H   0  0  0  0  0  0  0  0  0  0  0  0
  -27.4295   30.1229  -10.2652 H   0  0  0  0  0  0  0  0  0  0  0  0
  -25.7821   29.4070  -10.2652 H   0  0  0  0  0  0  0  0  0  0  0  0
  1  2  1  0
  2  3  1  0
  3  4  1  0
  3  5  1  0
  5  6  1  0
  6  7  1  0
  7  8  1  0
  8  9  1  0
  9 10  1  0
  1 11  1  0
  6 11  1  0
 10 11  1  0
 10 12  1  0
 12 13  1  0
 13 14  1  0
  9 15  1  0
 14 15  1  0
 15 16  1  0
 16 17  1  0
 14 18  1  0
 17 18  1  0
 18 19  1  0
 14 20  1  6
 21 22  1  0
 22 23  1  0
 23 24  1  0
 23 25  1  0
 25 26  1  0
 26 27  1  0
 27 28  1  0
 28 29  1  0
 29 30  1  0
 21 31  1  0
 26 31  1  0
 30 31  1  0
 30 32  1  0
 32 33  1  0
 33 34  1  0
 29 35  1  0
 34 35  1  0
 35 36  1  0
 36 37  1  0
 34 38  1  0
 37 38  1  0
 38 39  1  0
 34 40  1  1
  1 41  1  0
  1 42  1  0
  2 43  1  0
  2 44  1  0
  3 45  1  0
  4 46  1  0
  5 47  1  0
  5 48  1  0
  6 49  1  0
  7 50  1  0
  7 51  1  0
  8 52  1  0
  8 53  1  0
  9 54  1  6
 10 55  1  1
 11 56  1  0
 12 57  1  0
 12 58  1  0
 13 59  1  0
 13 60  1  0
 15 61  1  1
 16 62  1  0
 16 63  1  0
 17 64  1  0
 17 65  1  0
 18 66  1  1
 19 67  1  0
 20 68  1  0
 20 69  1  0
 20 70  1  0
 21 71  1  0
 21 72  1  0
 22 73  1  0
 22 74  1  0
 23 75  1  0
 24 76  1  0
 25 77  1  0
 25 78  1  0
 26 79  1  0
 27 80  1  0
 27 81  1  0
 28 82  1  0
 28 83  1  0
 29 84  1  1
 30 85  1  6
 31 86  1  1
 32 87  1  0
 32 88  1  0
 33 89  1  0
 33 90  1  0
 35 91  1  6
 36 92  1  0
 36 93  1  0
 37 94  1  0
 37 95  1  0
 38 96  1  6
 39 97  1  0
 40 98  1  0
 40 99  1  0
 40100  1  0
M  END
>  <PDBID>  (1) 
3OLL

>  <PDB ID>  (1) 
3OLL

>  <Generic Name>  (1) 
Estradiol

>  <Brand Name>  (1) 
Activella#Activelle#Activelle Ld#Alora#Amabelz#Angeliq#Climara#Climara 100#Climara 25#Climara 50#Climara 75#Climara Pro#Combipatch#Combipatch (estradiol/norethindrone Acetate Transdermal System)#Delestrogen#Delestrogen Inj 10mg/ml#Depo-estradiol#Divigel#Elestrin#Estalis 140/50 Mcg#Estalis 250/50 Mcg#Estalis Sequi#Estrace#Estrace Tab 1mg#Estrace Tab 2mg#Estracomb#Estraderm-100#Estraderm-25#Estraderm-50#Estradiol#Estradiol / Norethindrone Acetate#Estradiol Transdermal System#Estradiol Valerate#Estradot 100#Estradot 25#Estradot 37.5#Estradot 50#Estradot 75#Estring#Estrogel#Estrogel Propak#Evamist#Femring#Lopreeza#Lupin-estradiol#Menostar#Mimvey#Mimvey Lo#Minivelle#Natazia#Neo Pause Injection#Neo-diol Inj 20mg/ml#Oesclim#PMS-estradiol Valerate Inj 10mg/ml#Prefesta#Sandoz Estradiol Derm 100#Sandoz Estradiol Derm 50#Sandoz Estradiol Derm 75#Vagifem#Vagifem 10#Vivelle 100mcg#Vivelle 37.5mcg#Vivelle 50mcg#Vivelle 75mcg#Vivelle Dot#Vivelle-dot#Yuvafem#Estraderm MX#Estraderm TTS#Estrasorb#Estrofem#Femtrace#Innofem#Vivelle

>  <DrugBank ID>  (1) 
DB00783

>  <ATC Codes>  (1) 
G03FA16#G03FA11#G03FA12#G03FB12#G03FA17#G03FA05#G03FB09#G03FA14#G03FA08#G03AA14#G03EA03#G03FB01#G03AB08#G03EA02#G03FB05#G03HB01#G03FB11#G03CA53#G03FB04#G03FA07#G03FB07#G03FB02#G03FB10#G03FA06#G03CA03#G03FA15#G03FA09#G03FA13#G03EA01#G03FB06#G03FA01#G03FA02#G02BB01#G03FA03#G03FB08#G03FA10#G03FA04#G03FB03

>  <Ligand ID>  (1) 
EST

>  <Target Name>  (1) 
Estrogen receptor beta

>  <UniProt ID>  (1) 
Q92731

>  <PDB ID.1>  (1) 
3OLL

>  <Seq. Identity>  (1) 
100%

$$$$
