PDB_DB08864_97
     RDKit          3D

 46 48  0  0  0  0  0  0  0  0999 V2000
   49.5500  -24.9790   37.9750 C   0  0  0  0  0  0  0  0  0  0  0  0
   52.4450  -25.5190   33.0120 N   0  0  0  0  0  0  0  0  0  0  0  0
   49.0680  -27.0160   39.1510 C   0  0  0  0  0  0  0  0  0  0  0  0
   50.3470  -27.4710   38.9030 C   0  0  0  0  0  0  0  0  0  0  0  0
   51.2370  -26.7000   38.1990 C   0  0  0  0  0  0  0  0  0  0  0  0
   50.8230  -25.4500   37.7200 C   0  0  0  0  0  0  0  0  0  0  0  0
   49.1340  -23.6300   37.4530 C   0  0  0  0  0  0  0  0  0  0  0  0
   48.6540  -25.7710   38.6920 C   0  0  0  0  0  0  0  0  0  0  0  0
   52.6030  -27.2360   37.9590 C   0  0  0  0  0  0  0  0  0  0  0  0
   51.7390  -24.6400   36.9950 N   0  0  0  0  0  0  0  0  0  0  0  0
   52.9930  -24.3760   33.4720 C   0  0  0  0  0  0  0  0  0  0  0  0
   52.7700  -24.0720   34.8210 C   0  0  0  0  0  0  0  0  0  0  0  0
   52.0090  -24.9210   35.6220 C   0  0  0  0  0  0  0  0  0  0  0  0
   51.4970  -26.0600   35.1040 N   0  0  0  0  0  0  0  0  0  0  0  0
   51.7400  -26.3220   33.8190 C   0  0  0  0  0  0  0  0  0  0  0  0
   51.2150  -27.5040   33.2200 N   0  0  0  0  0  0  0  0  0  0  0  0
   49.2330  -30.8180   34.8620 C   0  0  0  0  0  0  0  0  0  0  0  0
   49.4230  -29.7180   35.6850 C   0  0  0  0  0  0  0  0  0  0  0  0
   50.0770  -28.6010   35.1730 C   0  0  0  0  0  0  0  0  0  0  0  0
   50.5560  -28.5870   33.8680 C   0  0  0  0  0  0  0  0  0  0  0  0
   50.3450  -29.6960   33.0490 C   0  0  0  0  0  0  0  0  0  0  0  0
   49.6880  -30.7930   33.5610 C   0  0  0  0  0  0  0  0  0  0  0  0
   48.0320  -32.9930   35.7310 N   0  0  0  0  0  0  0  0  0  0  0  0
   48.5570  -32.0490   35.3610 C   0  0  0  0  0  0  0  0  0  0  0  0
   47.0570  -27.4730   40.5310 C   0  0  0  0  0  0  0  0  0  0  0  0
   48.1810  -27.9240   39.9310 C   0  0  0  0  0  0  0  0  0  0  0  0
   45.6110  -29.1410   41.9840 N   0  0  0  0  0  0  0  0  0  0  0  0
   46.2480  -28.4390   41.3350 C   0  0  0  0  0  0  0  0  0  0  0  0
   50.6554  -28.4600   39.2728 H   0  0  0  0  0  0  0  0  0  0  0  0
   48.9267  -22.9577   38.2986 H   0  0  0  0  0  0  0  0  0  0  0  0
   49.9439  -23.2085   36.8395 H   0  0  0  0  0  0  0  0  0  0  0  0
   48.2274  -23.7379   36.8395 H   0  0  0  0  0  0  0  0  0  0  0  0
   47.6325  -25.4151   38.8919 H   0  0  0  0  0  0  0  0  0  0  0  0
   53.0957  -27.4293   38.9233 H   0  0  0  0  0  0  0  0  0  0  0  0
   52.5339  -28.1737   37.3881 H   0  0  0  0  0  0  0  0  0  0  0  0
   53.1900  -26.5015   37.3881 H   0  0  0  0  0  0  0  0  0  0  0  0
   52.2080  -23.8500   37.4607 H   0  0  0  0  0  0  0  0  0  0  0  0
   53.5850  -23.7159   32.8210 H   0  0  0  0  0  0  0  0  0  0  0  0
   53.1992  -23.1553   35.2517 H   0  0  0  0  0  0  0  0  0  0  0  0
   51.3252  -27.5840   32.1990 H   0  0  0  0  0  0  0  0  0  0  0  0
   49.0631  -29.7281   36.7244 H   0  0  0  0  0  0  0  0  0  0  0  0
   50.2170  -27.7158   35.8108 H   0  0  0  0  0  0  0  0  0  0  0  0
   50.6988  -29.6946   32.0074 H   0  0  0  0  0  0  0  0  0  0  0  0
   49.5226  -31.6693   32.9169 H   0  0  0  0  0  0  0  0  0  0  0  0
   46.7458  -26.4228   40.4303 H   0  0  0  0  0  0  0  0  0  0  0  0
   48.4474  -28.9875   40.0208 H   0  0  0  0  0  0  0  0  0  0  0  0
  3  4  1  0
  4  5  2  0
  1  6  2  0
  5  6  1  0
  1  7  1  0
  1  8  1  0
  3  8  2  0
  5  9  1  0
  6 10  1  0
  2 11  2  0
 11 12  1  0
 10 13  1  0
 12 13  2  0
 13 14  1  0
  2 15  1  0
 14 15  2  0
 15 16  1  0
 17 18  2  0
 18 19  1  0
 16 20  1  0
 19 20  2  0
 20 21  1  0
 17 22  1  0
 21 22  2  0
 17 24  1  0
 23 24  3  0
  3 26  1  0
 25 26  2  0
 25 28  1  0
 27 28  3  0
  4 29  1  0
  7 30  1  0
  7 31  1  0
  7 32  1  0
  8 33  1  0
  9 34  1  0
  9 35  1  0
  9 36  1  0
 10 37  1  0
 11 38  1  0
 12 39  1  0
 16 40  1  0
 18 41  1  0
 19 42  1  0
 21 43  1  0
 22 44  1  0
 25 45  1  0
 26 46  1  0
M  END
>  <PDBID>  (1) 
4KFB

>  <PDB ID>  (1) 
4KFB

>  <Generic Name>  (1) 
Rilpivirine

>  <Brand Name>  (1) 
Complera#Edurant#Odefsey

>  <DrugBank ID>  (1) 
DB08864

>  <ATC Codes>  (1) 
nan

>  <Ligand ID>  (1) 
T27

>  <Target Name>  (1) 
Reverse transcriptase/RNaseH

>  <UniProt ID>  (1) 
Q72547

>  <PDB ID.1>  (1) 
4KFB

>  <Seq. Identity>  (1) 
95%

$$$$
