PDB_DB00278_99
     RDKit          3D

170174  0  0  0  0  0  0  0  0999 V2000
    2.6270   13.7560    0.1060 S   0  0  2  0  0  4  0  0  0  0  0  0
    1.7960   12.5870    0.1880 O   0  0  0  0  0  0  0  0  0  0  0  0
    2.5190   14.4990    1.3360 O   0  0  0  0  0  0  0  0  0  0  0  0
    2.8590   12.5350   -4.2320 C   0  0  0  0  0  0  0  0  0  0  0  0
    3.2060   13.6560   -5.2110 C   0  0  2  0  0  0  0  0  0  0  0  0
    2.1800   14.7790   -5.0950 C   0  0  0  0  0  0  0  0  0  0  0  0
    2.0180   15.1820   -3.6410 C   0  0  0  0  0  0  0  0  0  0  0  0
    1.5040   16.4350   -3.3080 C   0  0  0  0  0  0  0  0  0  0  0  0
    1.3570   16.8100   -1.9700 C   0  0  0  0  0  0  0  0  0  0  0  0
    1.7090   15.9640   -0.9140 C   0  0  0  0  0  0  0  0  0  0  0  0
    2.2270   14.6900   -1.1370 C   0  0  0  0  0  0  0  0  0  0  0  0
    2.4100   14.2440   -2.5480 C   0  0  0  0  0  0  0  0  0  0  0  0
    3.3040   13.1300   -6.6400 C   0  0  0  0  0  0  0  0  0  0  0  0
    2.9100   13.0240   -2.8610 N   0  0  0  0  0  0  0  0  0  0  0  0
    4.1460   13.2890   -0.0920 N   0  0  0  0  0  0  0  0  0  0  0  0
    5.2210   14.2650   -0.0310 C   0  0  2  0  0  0  0  0  0  0  0  0
    5.7820   14.5690   -1.4020 C   0  0  0  0  0  0  0  0  0  0  0  0
    5.7190   13.7090   -2.2640 O   0  0  0  0  0  0  0  0  0  0  0  0
    6.2860   13.7810    0.9590 C   0  0  0  0  0  0  0  0  0  0  0  0
    7.1590   12.6580    0.4110 C   0  0  0  0  0  0  0  0  0  0  0  0
    8.4110   12.4950    1.2560 C   0  0  0  0  0  0  0  0  0  0  0  0
    8.7070   11.0930    1.4730 N   0  0  0  0  0  0  0  0  0  0  0  0
    9.5120   10.3780    0.6840 C   0  0  0  0  0  0  0  0  0  0  0  0
    9.6370    9.0720    0.9240 N   0  0  0  0  0  0  0  0  0  0  0  0
   10.1490   10.9120   -0.2740 N   0  0  0  0  0  0  0  0  0  0  0  0
    6.3330   15.7650   -1.6510 N   0  0  0  0  0  0  0  0  0  0  0  0
    6.4210   16.7960   -0.5970 C   0  0  2  0  0  0  0  0  0  0  0  0
    5.8550   18.1290   -1.1100 C   0  0  0  0  0  0  0  0  0  0  0  0
    6.3960   18.5200   -2.4840 C   0  0  1  0  0  0  0  0  0  0  0  0
    6.1450   17.3690   -3.4520 C   0  0  0  0  0  0  0  0  0  0  0  0
    6.9180   16.1530   -2.9460 C   0  0  0  0  0  0  0  0  0  0  0  0
    7.8280   16.9050   -0.0600 C   0  0  0  0  0  0  0  0  0  0  0  0
    8.6020   15.9360   -0.2160 O   0  0  0  0  0  0  0  0  0  0  0  0
    8.1780   17.9510    0.5300 O   0  0  0  0  0  0  0  0  0  0  0  0
    5.8050   19.8330   -2.9860 C   0  0  0  0  0  0  0  0  0  0  0  0
   53.5530  -34.1490   -8.5130 S   0  0  2  0  0  4  0  0  0  0  0  0
   52.5920  -35.1250   -8.9620 O   0  0  0  0  0  0  0  0  0  0  0  0
   54.7040  -34.1940   -9.3820 O   0  0  0  0  0  0  0  0  0  0  0  0
   50.6570  -35.0070   -5.2080 C   0  0  0  0  0  0  0  0  0  0  0  0
   51.1630  -34.5920   -3.8200 C   0  0  2  0  0  0  0  0  0  0  0  0
   52.4640  -35.3210   -3.4900 C   0  0  0  0  0  0  0  0  0  0  0  0
   53.4600  -35.0340   -4.5920 C   0  0  0  0  0  0  0  0  0  0  0  0
   54.8300  -35.0270   -4.3370 C   0  0  0  0  0  0  0  0  0  0  0  0
   55.7480  -34.7630   -5.3550 C   0  0  0  0  0  0  0  0  0  0  0  0
   55.3490  -34.4860   -6.6650 C   0  0  0  0  0  0  0  0  0  0  0  0
   53.9970  -34.4700   -7.0160 C   0  0  0  0  0  0  0  0  0  0  0  0
   52.9740  -34.7510   -5.9720 C   0  0  0  0  0  0  0  0  0  0  0  0
   50.1210  -34.8360   -2.7350 C   0  0  0  0  0  0  0  0  0  0  0  0
   51.6450  -34.7430   -6.2510 N   0  0  0  0  0  0  0  0  0  0  0  0
   52.9000  -32.6790   -8.5490 N   0  0  0  0  0  0  0  0  0  0  0  0
   53.6650  -31.4970   -8.1680 C   0  0  2  0  0  0  0  0  0  0  0  0
   53.4520  -31.0890   -6.7210 C   0  0  0  0  0  0  0  0  0  0  0  0
   52.3380  -31.2200   -6.2320 O   0  0  0  0  0  0  0  0  0  0  0  0
   53.3690  -30.3670   -9.1600 C   0  0  0  0  0  0  0  0  0  0  0  0
   52.0070  -29.7030   -8.9830 C   0  0  0  0  0  0  0  0  0  0  0  0
   52.1960  -28.2260   -8.6670 C   0  0  0  0  0  0  0  0  0  0  0  0
   51.0270  -27.4190   -8.9760 N   0  0  0  0  0  0  0  0  0  0  0  0
   50.3520  -26.7460   -8.0400 C   0  0  0  0  0  0  0  0  0  0  0  0
   49.0970  -26.3610   -8.2830 N   0  0  0  0  0  0  0  0  0  0  0  0
   50.8850  -26.4700   -6.9290 N   0  0  0  0  0  0  0  0  0  0  0  0
   54.4700  -30.6040   -5.9850 N   0  0  0  0  0  0  0  0  0  0  0  0
   55.8830  -30.6490   -6.4290 C   0  0  2  0  0  0  0  0  0  0  0  0
   56.6920  -31.4280   -5.3820 C   0  0  0  0  0  0  0  0  0  0  0  0
   56.4750  -30.9670   -3.9410 C   0  0  1  0  0  0  0  0  0  0  0  0
   54.9830  -30.8730   -3.6320 C   0  0  0  0  0  0  0  0  0  0  0  0
   54.2850  -29.9910   -4.6630 C   0  0  0  0  0  0  0  0  0  0  0  0
   56.5530  -29.3170   -6.6860 C   0  0  0  0  0  0  0  0  0  0  0  0
   56.2770  -28.3330   -5.9630 O   0  0  0  0  0  0  0  0  0  0  0  0
   57.3860  -29.2410   -7.6190 O   0  0  0  0  0  0  0  0  0  0  0  0
   57.1850  -31.8900   -2.9610 C   0  0  0  0  0  0  0  0  0  0  0  0
    1.6360   12.3619    1.1387 H   0  0  0  0  0  0  0  0  0  0  0  0
    2.6089   13.8807    2.1040 H   0  0  0  0  0  0  0  0  0  0  0  0
    1.8453   12.1663   -4.4478 H   0  0  0  0  0  0  0  0  0  0  0  0
    3.5900   11.7212   -4.3479 H   0  0  0  0  0  0  0  0  0  0  0  0
    4.1950   14.0610   -4.9507 H   0  0  0  0  0  0  0  0  0  0  0  0
    2.5216   15.6469   -5.6782 H   0  0  0  0  0  0  0  0  0  0  0  0
    1.2127   14.4276   -5.4835 H   0  0  0  0  0  0  0  0  0  0  0  0
    3.0355   15.6000   -3.6435 H   0  0  0  0  0  0  0  0  0  0  0  0
    2.1658   17.1805   -3.7730 H   0  0  0  0  0  0  0  0  0  0  0  0
    0.4647   16.3777   -3.6637 H   0  0  0  0  0  0  0  0  0  0  0  0
    1.9531   17.7254   -1.8410 H   0  0  0  0  0  0  0  0  0  0  0  0
    0.2630   16.8602   -1.8665 H   0  0  0  0  0  0  0  0  0  0  0  0
    2.4624   16.5049   -0.3225 H   0  0  0  0  0  0  0  0  0  0  0  0
    0.7335   15.7429   -0.4563 H   0  0  0  0  0  0  0  0  0  0  0  0
    1.2090   14.2735   -1.1223 H   0  0  0  0  0  0  0  0  0  0  0  0
    3.4257   14.6664   -2.5498 H   0  0  0  0  0  0  0  0  0  0  0  0
    3.5054   12.0488   -6.6197 H   0  0  0  0  0  0  0  0  0  0  0  0
    2.3557   13.3165   -7.1652 H   0  0  0  0  0  0  0  0  0  0  0  0
    4.1216   13.6455   -7.1652 H   0  0  0  0  0  0  0  0  0  0  0  0
    2.4008   12.3393   -2.2841 H   0  0  0  0  0  0  0  0  0  0  0  0
    4.3390   12.5883    0.6379 H   0  0  0  0  0  0  0  0  0  0  0  0
    4.8239   15.2224    0.3374 H   0  0  0  0  0  0  0  0  0  0  0  0
    6.7620   14.1814   -1.0869 H   0  0  0  0  0  0  0  0  0  0  0  0
    5.6537   12.8181   -1.8372 H   0  0  0  0  0  0  0  0  0  0  0  0
    6.9340   14.6316    1.2170 H   0  0  0  0  0  0  0  0  0  0  0  0
    5.7554   13.3804    1.8353 H   0  0  0  0  0  0  0  0  0  0  0  0
    6.5888   11.7174    0.4239 H   0  0  0  0  0  0  0  0  0  0  0  0
    7.4553   12.9084   -0.6183 H   0  0  0  0  0  0  0  0  0  0  0  0
    9.2593   12.9667    0.7384 H   0  0  0  0  0  0  0  0  0  0  0  0
    8.2427   12.9747    2.2315 H   0  0  0  0  0  0  0  0  0  0  0  0
    9.1143   11.0345    2.4173 H   0  0  0  0  0  0  0  0  0  0  0  0
   10.3558   10.5829    1.3593 H   0  0  0  0  0  0  0  0  0  0  0  0
    9.6525    8.9098    1.9410 H   0  0  0  0  0  0  0  0  0  0  0  0
    8.8403    8.5687    0.5082 H   0  0  0  0  0  0  0  0  0  0  0  0
   10.8835   11.5278    0.1031 H   0  0  0  0  0  0  0  0  0  0  0  0
   10.5807   10.1765   -0.8515 H   0  0  0  0  0  0  0  0  0  0  0  0
    5.7978   16.4969    0.2587 H   0  0  0  0  0  0  0  0  0  0  0  0
    4.7604   18.0423   -1.1763 H   0  0  0  0  0  0  0  0  0  0  0  0
    6.1637   18.9113   -0.4009 H   0  0  0  0  0  0  0  0  0  0  0  0
    7.4786   18.6989   -2.4068 H   0  0  0  0  0  0  0  0  0  0  0  0
    5.0698   17.1395   -3.4890 H   0  0  0  0  0  0  0  0  0  0  0  0
    6.4780   17.6405   -4.4646 H   0  0  0  0  0  0  0  0  0  0  0  0
    7.9798   16.4099   -2.8168 H   0  0  0  0  0  0  0  0  0  0  0  0
    6.8510   15.3239   -3.6658 H   0  0  0  0  0  0  0  0  0  0  0  0
    7.4943   16.4839    0.8999 H   0  0  0  0  0  0  0  0  0  0  0  0
    8.8790   15.5892    0.6689 H   0  0  0  0  0  0  0  0  0  0  0  0
    8.1306   17.8095    1.5087 H   0  0  0  0  0  0  0  0  0  0  0  0
    5.5228   20.4600   -2.1274 H   0  0  0  0  0  0  0  0  0  0  0  0
    6.5520   20.3617   -3.5964 H   0  0  0  0  0  0  0  0  0  0  0  0
    4.9140   19.6244   -3.5964 H   0  0  0  0  0  0  0  0  0  0  0  0
   52.1680  -35.5556   -8.1778 H   0  0  0  0  0  0  0  0  0  0  0  0
   55.5289  -34.2263   -8.8356 H   0  0  0  0  0  0  0  0  0  0  0  0
   50.4313  -36.0835   -5.1967 H   0  0  0  0  0  0  0  0  0  0  0  0
   49.7578  -34.4148   -5.4334 H   0  0  0  0  0  0  0  0  0  0  0  0
   51.3558  -33.5094   -3.8480 H   0  0  0  0  0  0  0  0  0  0  0  0
   52.8588  -34.9611   -2.5284 H   0  0  0  0  0  0  0  0  0  0  0  0
   52.2838  -36.4034   -3.4135 H   0  0  0  0  0  0  0  0  0  0  0  0
   53.4108  -33.9605   -4.3569 H   0  0  0  0  0  0  0  0  0  0  0  0
   54.9996  -34.2689   -3.5582 H   0  0  0  0  0  0  0  0  0  0  0  0
   55.0364  -36.0791   -4.0910 H   0  0  0  0  0  0  0  0  0  0  0  0
   56.3333  -33.8932   -5.0222 H   0  0  0  0  0  0  0  0  0  0  0  0
   56.2480  -35.7361   -5.4695 H   0  0  0  0  0  0  0  0  0  0  0  0
   55.7477  -33.4904   -6.9097 H   0  0  0  0  0  0  0  0  0  0  0  0
   55.7344  -35.3515   -7.2240 H   0  0  0  0  0  0  0  0  0  0  0  0
   54.0479  -35.5412   -7.2608 H   0  0  0  0  0  0  0  0  0  0  0  0
   52.9224  -33.6783   -5.7339 H   0  0  0  0  0  0  0  0  0  0  0  0
   50.5892  -34.7264   -1.7457 H   0  0  0  0  0  0  0  0  0  0  0  0
   49.3061  -34.1044   -2.8381 H   0  0  0  0  0  0  0  0  0  0  0  0
   49.7156  -35.8534   -2.8381 H   0  0  0  0  0  0  0  0  0  0  0  0
   51.4949  -35.4519   -6.9831 H   0  0  0  0  0  0  0  0  0  0  0  0
   52.5875  -32.5233   -9.5180 H   0  0  0  0  0  0  0  0  0  0  0  0
   54.7361  -31.7413   -8.2235 H   0  0  0  0  0  0  0  0  0  0  0  0
   53.1895  -30.0716   -7.0465 H   0  0  0  0  0  0  0  0  0  0  0  0
   52.4080  -31.2118   -5.2445 H   0  0  0  0  0  0  0  0  0  0  0  0
   54.1441  -29.5955   -9.0416 H   0  0  0  0  0  0  0  0  0  0  0  0
   53.3632  -30.8254  -10.1599 H   0  0  0  0  0  0  0  0  0  0  0  0
   51.4255  -29.8073   -9.9109 H   0  0  0  0  0  0  0  0  0  0  0  0
   51.4692  -30.1878   -8.1549 H   0  0  0  0  0  0  0  0  0  0  0  0
   52.4176  -28.1237   -7.5944 H   0  0  0  0  0  0  0  0  0  0  0  0
   53.0206  -27.8605   -9.2966 H   0  0  0  0  0  0  0  0  0  0  0  0
   51.3368  -26.7185   -9.6646 H   0  0  0  0  0  0  0  0  0  0  0  0
   50.7233  -25.7971   -8.4545 H   0  0  0  0  0  0  0  0  0  0  0  0
   48.6053  -26.2101   -7.3906 H   0  0  0  0  0  0  0  0  0  0  0  0
   49.1054  -25.4839   -8.8229 H   0  0  0  0  0  0  0  0  0  0  0  0
   50.2712  -26.7878   -6.1654 H   0  0  0  0  0  0  0  0  0  0  0  0
   51.7960  -26.9453   -6.8577 H   0  0  0  0  0  0  0  0  0  0  0  0
   55.8634  -31.1385   -7.4139 H   0  0  0  0  0  0  0  0  0  0  0  0
   56.4095  -32.4890   -5.4494 H   0  0  0  0  0  0  0  0  0  0  0  0
   57.7531  -31.2497   -5.6108 H   0  0  0  0  0  0  0  0  0  0  0  0
   56.9121  -29.9641   -3.8267 H   0  0  0  0  0  0  0  0  0  0  0  0
   54.5425  -31.8806   -3.6583 H   0  0  0  0  0  0  0  0  0  0  0  0
   54.8508  -30.4307   -2.6335 H   0  0  0  0  0  0  0  0  0  0  0  0
   54.7274  -28.9839   -4.6534 H   0  0  0  0  0  0  0  0  0  0  0  0
   53.2137  -29.9042   -4.4288 H   0  0  0  0  0  0  0  0  0  0  0  0
   55.7396  -29.0404   -7.3729 H   0  0  0  0  0  0  0  0  0  0  0  0
   56.3498  -28.5926   -5.0104 H   0  0  0  0  0  0  0  0  0  0  0  0
   58.2975  -29.1578   -7.2416 H   0  0  0  0  0  0  0  0  0  0  0  0
   56.9489  -31.5831   -1.9314 H   0  0  0  0  0  0  0  0  0  0  0  0
   56.8477  -32.9246   -3.1216 H   0  0  0  0  0  0  0  0  0  0  0  0
   58.2715  -31.8294   -3.1216 H   0  0  0  0  0  0  0  0  0  0  0  0
  1  2  1  1
  1  3  1  0
  4  5  1  0
  5  6  1  0
  6  7  1  0
  7  8  1  0
  8  9  1  0
  9 10  1  0
  1 11  1  0
 10 11  1  0
  7 12  1  0
 11 12  1  0
  5 13  1  0
  4 14  1  0
 12 14  1  0
  1 15  1  0
 15 16  1  0
 16 17  1  0
 17 18  1  0
 16 19  1  0
 19 20  1  0
 20 21  1  0
 21 22  1  0
 22 23  1  0
 23 24  1  0
 23 25  1  0
 17 26  1  0
 26 27  1  0
 27 28  1  0
 28 29  1  0
 29 30  1  0
 26 31  1  0
 30 31  1  0
 27 32  1  0
 32 33  1  0
 32 34  1  0
 29 35  1  0
 36 37  1  6
 36 38  1  0
 39 40  1  0
 40 41  1  0
 41 42  1  0
 42 43  1  0
 43 44  1  0
 44 45  1  0
 36 46  1  0
 45 46  1  0
 42 47  1  0
 46 47  1  0
 40 48  1  0
 39 49  1  0
 47 49  1  0
 36 50  1  0
 50 51  1  0
 51 52  1  0
 52 53  1  0
 51 54  1  0
 54 55  1  0
 55 56  1  0
 56 57  1  0
 57 58  1  0
 58 59  1  0
 58 60  1  0
 52 61  1  0
 61 62  1  0
 62 63  1  0
 63 64  1  0
 64 65  1  0
 61 66  1  0
 65 66  1  0
 62 67  1  0
 67 68  1  0
 67 69  1  0
 64 70  1  0
  2 71  1  0
  3 72  1  0
  4 73  1  0
  4 74  1  0
  5 75  1  1
  6 76  1  0
  6 77  1  0
  7 78  1  0
  8 79  1  0
  8 80  1  0
  9 81  1  0
  9 82  1  0
 10 83  1  0
 10 84  1  0
 11 85  1  0
 12 86  1  0
 13 87  1  0
 13 88  1  0
 13 89  1  0
 14 90  1  0
 15 91  1  0
 16 92  1  1
 17 93  1  0
 18 94  1  0
 19 95  1  0
 19 96  1  0
 20 97  1  0
 20 98  1  0
 21 99  1  0
 21100  1  0
 22101  1  0
 23102  1  0
 24103  1  0
 24104  1  0
 25105  1  0
 25106  1  0
 27107  1  1
 28108  1  0
 28109  1  0
 29110  1  1
 30111  1  0
 30112  1  0
 31113  1  0
 31114  1  0
 32115  1  0
 33116  1  0
 34117  1  0
 35118  1  0
 35119  1  0
 35120  1  0
 37121  1  0
 38122  1  0
 39123  1  0
 39124  1  0
 40125  1  6
 41126  1  0
 41127  1  0
 42128  1  0
 43129  1  0
 43130  1  0
 44131  1  0
 44132  1  0
 45133  1  0
 45134  1  0
 46135  1  0
 47136  1  0
 48137  1  0
 48138  1  0
 48139  1  0
 49140  1  0
 50141  1  0
 51142  1  1
 52143  1  0
 53144  1  0
 54145  1  0
 54146  1  0
 55147  1  0
 55148  1  0
 56149  1  0
 56150  1  0
 57151  1  0
 58152  1  0
 59153  1  0
 59154  1  0
 60155  1  0
 60156  1  0
 62157  1  6
 63158  1  0
 63159  1  0
 64160  1  6
 65161  1  0
 65162  1  0
 66163  1  0
 66164  1  0
 67165  1  0
 68166  1  0
 69167  1  0
 70168  1  0
 70169  1  0
 70170  1  0
M  END
>  <PDBID>  (1) 
4HFP

>  <PDB ID>  (1) 
4HFP

>  <Generic Name>  (1) 
Argatroban

>  <Brand Name>  (1) 
Argatroban

>  <DrugBank ID>  (1) 
DB00278

>  <ATC Codes>  (1) 
B01AE03

>  <Ligand ID>  (1) 
15U,MIT

>  <Target Name>  (1) 
Prothrombin

>  <UniProt ID>  (1) 
P00734

>  <PDB ID.1>  (1) 
4HFP

>  <Seq. Identity>  (1) 
100%

$$$$
