PDB_DB08954_98
     RDKit          3D

126130  0  0  0  0  0  0  0  0999 V2000
   80.4990    1.0220  -32.1880 C   0  0  0  0  0  0  0  0  0  0  0  0
   86.1030    6.6010  -31.8820 N   0  0  0  0  0  0  0  0  0  0  0  0
   85.8250    9.4300  -32.0130 O   0  0  0  0  0  0  0  0  0  0  0  0
   90.3220   10.1020  -30.7460 C   0  0  0  0  0  0  0  0  0  0  0  0
   91.8370   11.8350  -31.6200 O   0  0  0  0  0  0  0  0  0  0  0  0
   89.8100   11.3520  -32.6850 C   0  0  0  0  0  0  0  0  0  0  0  0
   82.3370    2.8190  -31.0800 C   0  0  1  0  0  0  0  0  0  0  0  0
   81.0490    3.2530  -31.3780 C   0  0  0  0  0  0  0  0  0  0  0  0
   80.1200    2.3640  -31.9320 C   0  0  0  0  0  0  0  0  0  0  0  0
   83.2980    3.7680  -30.4370 C   0  0  0  0  0  0  0  0  0  0  0  0
   84.5530    4.2650  -31.2710 C   0  0  1  0  0  0  0  0  0  0  0  0
   84.1340    5.1320  -32.3440 C   0  0  0  0  0  0  0  0  0  0  0  0
   81.7840    0.5860  -31.8850 C   0  0  0  0  0  0  0  0  0  0  0  0
   82.7080    1.4760  -31.3200 C   0  0  0  0  0  0  0  0  0  0  0  0
   85.2520    5.9610  -32.9120 C   0  0  0  0  0  0  0  0  0  0  0  0
   86.4740    5.7800  -30.7630 C   0  0  0  0  0  0  0  0  0  0  0  0
   85.3560    4.9570  -30.2410 C   0  0  0  0  0  0  0  0  0  0  0  0
   87.0920    7.4840  -32.5220 C   0  0  2  0  0  0  0  0  0  0  0  0
   86.9410    8.9080  -32.0930 C   0  0  1  0  0  0  0  0  0  0  0  0
   88.2560    9.6610  -31.8720 C   0  0  1  0  0  0  0  0  0  0  0  0
   89.1030    9.3780  -30.8670 C   0  0  0  0  0  0  0  0  0  0  0  0
   90.6370   11.0920  -31.6860 C   0  0  0  0  0  0  0  0  0  0  0  0
   88.5940   10.6190  -32.7980 C   0  0  0  0  0  0  0  0  0  0  0  0
   86.9830    7.5240  -33.9870 C   0  0  0  0  0  0  0  0  0  0  0  0
   30.3570   -7.9820  -31.1430 C   0  0  0  0  0  0  0  0  0  0  0  0
   23.1640   -5.2470  -32.2220 N   0  0  0  0  0  0  0  0  0  0  0  0
   22.3960   -2.4060  -32.5240 O   0  0  0  0  0  0  0  0  0  0  0  0
   18.0370   -3.4930  -34.0090 C   0  0  0  0  0  0  0  0  0  0  0  0
   16.0150   -2.1790  -33.4260 O   0  0  0  0  0  0  0  0  0  0  0  0
   18.0280   -1.8370  -32.3280 C   0  0  0  0  0  0  0  0  0  0  0  0
   28.0160   -7.5150  -32.6120 C   0  0  0  0  0  0  0  0  0  0  0  0
   28.8600   -6.4390  -32.3100 C   0  0  0  0  0  0  0  0  0  0  0  0
   30.0360   -6.6560  -31.5700 C   0  0  0  0  0  0  0  0  0  0  0  0
   26.7760   -7.2750  -33.4260 C   0  0  0  0  0  0  0  0  0  0  0  0
   25.4120   -7.0200  -32.6350 C   0  0  1  0  0  0  0  0  0  0  0  0
   25.5090   -5.9670  -31.6530 C   0  0  0  0  0  0  0  0  0  0  0  0
   29.5300   -9.0660  -31.4480 C   0  0  0  0  0  0  0  0  0  0  0  0
   28.3570   -8.8390  -32.1870 C   0  0  0  0  0  0  0  0  0  0  0  0
   24.1710   -5.4510  -31.1670 C   0  0  0  0  0  0  0  0  0  0  0  0
   23.1230   -6.3860  -33.0910 C   0  0  0  0  0  0  0  0  0  0  0  0
   24.4500   -6.6560  -33.6840 C   0  0  0  0  0  0  0  0  0  0  0  0
   21.8980   -4.5940  -31.7670 C   0  0  2  0  0  0  0  0  0  0  0  0
   21.5520   -3.2880  -32.4210 C   0  0  1  0  0  0  0  0  0  0  0  0
   20.0800   -3.0740  -32.8150 C   0  0  0  0  0  0  0  0  0  0  0  0
   19.4210   -3.7700  -33.7650 C   0  0  0  0  0  0  0  0  0  0  0  0
   17.3770   -2.5070  -33.2560 C   0  0  0  0  0  0  0  0  0  0  0  0
   19.4010   -2.1220  -32.0880 C   0  0  0  0  0  0  0  0  0  0  0  0
   21.8010   -4.2990  -30.3260 C   0  0  0  0  0  0  0  0  0  0  0  0
   79.8064    0.3840  -31.6194 H   0  0  0  0  0  0  0  0  0  0  0  0
   80.4663    0.9585  -33.2857 H   0  0  0  0  0  0  0  0  0  0  0  0
   85.5815    9.5439  -31.0602 H   0  0  0  0  0  0  0  0  0  0  0  0
   90.3063   10.5909  -29.7607 H   0  0  0  0  0  0  0  0  0  0  0  0
   91.0931    9.3355  -30.9128 H   0  0  0  0  0  0  0  0  0  0  0  0
   92.0802   11.9856  -30.6722 H   0  0  0  0  0  0  0  0  0  0  0  0
   89.5368   12.4146  -32.6059 H   0  0  0  0  0  0  0  0  0  0  0  0
   90.3784   11.0483  -33.5765 H   0  0  0  0  0  0  0  0  0  0  0  0
   82.6774    3.1472  -32.0732 H   0  0  0  0  0  0  0  0  0  0  0  0
   80.6132    3.6223  -30.4379 H   0  0  0  0  0  0  0  0  0  0  0  0
   81.2095    3.9846  -32.1837 H   0  0  0  0  0  0  0  0  0  0  0  0
   79.8004    2.7941  -32.8926 H   0  0  0  0  0  0  0  0  0  0  0  0
   79.3558    2.2692  -31.1465 H   0  0  0  0  0  0  0  0  0  0  0  0
   82.7259    4.6624  -30.1493 H   0  0  0  0  0  0  0  0  0  0  0  0
   83.7383    3.1851  -29.6146 H   0  0  0  0  0  0  0  0  0  0  0  0
   85.1200    3.4683  -31.7748 H   0  0  0  0  0  0  0  0  0  0  0  0
   83.7152    4.5118  -33.1502 H   0  0  0  0  0  0  0  0  0  0  0  0
   83.3917    5.8289  -31.9277 H   0  0  0  0  0  0  0  0  0  0  0  0
   81.6778   -0.2521  -31.1806 H   0  0  0  0  0  0  0  0  0  0  0  0
   82.2162    0.3631  -32.8717 H   0  0  0  0  0  0  0  0  0  0  0  0
   83.5774    1.5017  -31.9934 H   0  0  0  0  0  0  0  0  0  0  0  0
   82.8648    1.0714  -30.3092 H   0  0  0  0  0  0  0  0  0  0  0  0
   84.8140    6.7508  -33.5400 H   0  0  0  0  0  0  0  0  0  0  0  0
   85.8984    5.2792  -33.4841 H   0  0  0  0  0  0  0  0  0  0  0  0
   87.2852    5.1070  -31.0778 H   0  0  0  0  0  0  0  0  0  0  0  0
   86.7859    6.4559  -29.9531 H   0  0  0  0  0  0  0  0  0  0  0  0
   84.6845    5.6163  -29.6714 H   0  0  0  0  0  0  0  0  0  0  0  0
   85.8165    4.1670  -29.6296 H   0  0  0  0  0  0  0  0  0  0  0  0
   88.0542    7.0522  -32.2094 H   0  0  0  0  0  0  0  0  0  0  0  0
   86.8646    8.5840  -31.0446 H   0  0  0  0  0  0  0  0  0  0  0  0
   87.7338   10.3841  -31.2282 H   0  0  0  0  0  0  0  0  0  0  0  0
   89.3716    8.3159  -30.9660 H   0  0  0  0  0  0  0  0  0  0  0  0
   88.5408    9.6721  -29.9684 H   0  0  0  0  0  0  0  0  0  0  0  0
   90.1361   11.8454  -31.0604 H   0  0  0  0  0  0  0  0  0  0  0  0
   87.7808   11.3597  -32.7927 H   0  0  0  0  0  0  0  0  0  0  0  0
   88.7525   10.0271  -33.7115 H   0  0  0  0  0  0  0  0  0  0  0  0
   85.9852    7.8901  -34.2706 H   0  0  0  0  0  0  0  0  0  0  0  0
   87.7505    8.1991  -34.3935 H   0  0  0  0  0  0  0  0  0  0  0  0
   87.1317    6.5127  -34.3935 H   0  0  0  0  0  0  0  0  0  0  0  0
   31.3442   -8.2150  -31.5687 H   0  0  0  0  0  0  0  0  0  0  0  0
   30.2591   -7.9093  -30.0498 H   0  0  0  0  0  0  0  0  0  0  0  0
   22.6776   -2.1117  -31.6217 H   0  0  0  0  0  0  0  0  0  0  0  0
   17.9533   -3.1960  -35.0648 H   0  0  0  0  0  0  0  0  0  0  0  0
   17.5343   -4.4233  -33.7058 H   0  0  0  0  0  0  0  0  0  0  0  0
   15.5872   -2.0760  -32.5392 H   0  0  0  0  0  0  0  0  0  0  0  0
   17.9653   -0.7728  -32.5992 H   0  0  0  0  0  0  0  0  0  0  0  0
   17.5345   -2.1451  -31.3945 H   0  0  0  0  0  0  0  0  0  0  0  0
   27.4468   -7.3274  -31.6896 H   0  0  0  0  0  0  0  0  0  0  0  0
   29.1653   -5.9955  -33.2692 H   0  0  0  0  0  0  0  0  0  0  0  0
   28.2488   -5.8179  -31.6386 H   0  0  0  0  0  0  0  0  0  0  0  0
   29.9651   -6.0352  -30.6647 H   0  0  0  0  0  0  0  0  0  0  0  0
   30.8402   -6.4075  -32.2782 H   0  0  0  0  0  0  0  0  0  0  0  0
   26.9613   -6.3926  -34.0561 H   0  0  0  0  0  0  0  0  0  0  0  0
   26.6120   -8.2165  -33.9707 H   0  0  0  0  0  0  0  0  0  0  0  0
   25.1218   -7.9110  -32.0589 H   0  0  0  0  0  0  0  0  0  0  0  0
   26.0661   -6.3527  -30.7865 H   0  0  0  0  0  0  0  0  0  0  0  0
   26.0165   -5.1224  -32.1420 H   0  0  0  0  0  0  0  0  0  0  0  0
   30.1369   -9.7844  -32.0186 H   0  0  0  0  0  0  0  0  0  0  0  0
   29.1637   -9.4035  -30.4672 H   0  0  0  0  0  0  0  0  0  0  0  0
   27.5202   -9.1984  -31.5701 H   0  0  0  0  0  0  0  0  0  0  0  0
   28.5536   -9.3624  -33.1343 H   0  0  0  0  0  0  0  0  0  0  0  0
   24.3388   -4.4872  -30.6641 H   0  0  0  0  0  0  0  0  0  0  0  0
   23.7657   -6.2260  -30.4998 H   0  0  0  0  0  0  0  0  0  0  0  0
   22.8025   -7.2659  -32.5139 H   0  0  0  0  0  0  0  0  0  0  0  0
   22.4143   -6.1763  -33.9057 H   0  0  0  0  0  0  0  0  0  0  0  0
   24.8049   -5.7546  -34.2051 H   0  0  0  0  0  0  0  0  0  0  0  0
   24.3616   -7.4913  -34.3943 H   0  0  0  0  0  0  0  0  0  0  0  0
   21.2039   -5.3930  -32.0667 H   0  0  0  0  0  0  0  0  0  0  0  0
   21.8584   -3.6950  -33.3959 H   0  0  0  0  0  0  0  0  0  0  0  0
   20.3893   -2.3363  -33.5701 H   0  0  0  0  0  0  0  0  0  0  0  0
   19.4910   -4.8327  -33.4897 H   0  0  0  0  0  0  0  0  0  0  0  0
   19.9146   -3.4638  -34.6991 H   0  0  0  0  0  0  0  0  0  0  0  0
   17.6528   -1.7503  -34.0052 H   0  0  0  0  0  0  0  0  0  0  0  0
   19.9434   -1.1762  -32.2339 H   0  0  0  0  0  0  0  0  0  0  0  0
   19.3754   -2.5688  -31.0831 H   0  0  0  0  0  0  0  0  0  0  0  0
   22.0935   -5.1887  -29.7491 H   0  0  0  0  0  0  0  0  0  0  0  0
   22.4717   -3.4635  -30.0768 H   0  0  0  0  0  0  0  0  0  0  0  0
   20.7653   -4.0246  -30.0768 H   0  0  0  0  0  0  0  0  0  0  0  0
  7  8  1  0
  1  9  1  0
  8  9  1  0
  7 10  1  0
 10 11  1  0
 11 12  1  0
  1 13  1  0
  7 14  1  0
 13 14  1  0
  2 15  1  0
 12 15  1  0
  2 16  1  0
 11 17  1  0
 16 17  1  0
  2 18  1  0
  3 19  1  0
 18 19  1  0
 19 20  1  0
  4 21  1  0
 20 21  1  0
  4 22  1  0
  5 22  1  0
  6 22  1  0
  6 23  1  0
 20 23  1  0
 18 24  1  0
 31 32  1  0
 25 33  1  0
 32 33  1  0
 31 34  1  0
 34 35  1  0
 35 36  1  0
 25 37  1  0
 31 38  1  0
 37 38  1  0
 26 39  1  0
 36 39  1  0
 26 40  1  0
 35 41  1  0
 40 41  1  0
 26 42  1  0
 27 43  1  0
 42 43  1  0
 43 44  1  0
 28 45  1  0
 44 45  1  0
 28 46  1  0
 29 46  1  0
 30 46  1  0
 30 47  1  0
 44 47  1  0
 42 48  1  0
  1 49  1  0
  1 50  1  0
  3 51  1  0
  4 52  1  0
  4 53  1  0
  5 54  1  0
  6 55  1  0
  6 56  1  0
  7 57  1  6
  8 58  1  0
  8 59  1  0
  9 60  1  0
  9 61  1  0
 10 62  1  0
 10 63  1  0
 11 64  1  6
 12 65  1  0
 12 66  1  0
 13 67  1  0
 13 68  1  0
 14 69  1  0
 14 70  1  0
 15 71  1  0
 15 72  1  0
 16 73  1  0
 16 74  1  0
 17 75  1  0
 17 76  1  0
 18 77  1  6
 19 78  1  1
 20 79  1  1
 21 80  1  0
 21 81  1  0
 22 82  1  0
 23 83  1  0
 23 84  1  0
 24 85  1  0
 24 86  1  0
 24 87  1  0
 25 88  1  0
 25 89  1  0
 27 90  1  0
 28 91  1  0
 28 92  1  0
 29 93  1  0
 30 94  1  0
 30 95  1  0
 31 96  1  0
 32 97  1  0
 32 98  1  0
 33 99  1  0
 33100  1  0
 34101  1  0
 34102  1  0
 35103  1  1
 36104  1  0
 36105  1  0
 37106  1  0
 37107  1  0
 38108  1  0
 38109  1  0
 39110  1  0
 39111  1  0
 40112  1  0
 40113  1  0
 41114  1  0
 41115  1  0
 42116  1  6
 43117  1  6
 44118  1  0
 45119  1  0
 45120  1  0
 46121  1  0
 47122  1  0
 47123  1  0
 48124  1  0
 48125  1  0
 48126  1  0
M  END
>  <PDBID>  (1) 
3QEL

>  <PDB ID>  (1) 
3QEL

>  <Generic Name>  (1) 
Ifenprodil

>  <Brand Name>  (1) 
Cerocral#Furezanil#Iburonol#Linbulane#Technis#Vadilex#Vasculodil#Youajyl

>  <DrugBank ID>  (1) 
DB08954

>  <ATC Codes>  (1) 
C04AX28

>  <Ligand ID>  (1) 
QEL

>  <Target Name>  (1) 
Glutamate receptor ionotropic, NMDA 1

>  <UniProt ID>  (1) 
Q05586

>  <PDB ID.1>  (1) 
3QEL

>  <Seq. Identity>  (1) 
83%

$$$$
