PDB_DB00255_99
     RDKit          3D

 40 41  0  0  0  0  0  0  0  0999 V2000
   -4.7290   -1.2470   22.0110 C   0  0  0  0  0  0  0  0  0  0  0  0
   -3.2390   -1.5110   21.9880 C   0  0  0  0  0  0  0  0  0  0  0  0
   -2.9240   -2.9710   21.6910 C   0  0  0  0  0  0  0  0  0  0  0  0
   -3.7210   -3.6960   20.6240 C   0  0  0  0  0  0  0  0  0  0  0  0
   -3.3830   -3.6440   19.2760 C   0  0  0  0  0  0  0  0  0  0  0  0
   -4.1630   -4.3280   18.3500 C   0  0  0  0  0  0  0  0  0  0  0  0
   -5.2710   -5.0550   18.7690 C   0  0  0  0  0  0  0  0  0  0  0  0
   -6.0670   -5.7460   17.8450 O   0  0  0  0  0  0  0  0  0  0  0  0
   -5.6090   -5.1100   20.1080 C   0  0  0  0  0  0  0  0  0  0  0  0
   -4.8340   -4.4290   21.0280 C   0  0  0  0  0  0  0  0  0  0  0  0
   -1.9490   -3.6380   22.3650 C   0  0  0  0  0  0  0  0  0  0  0  0
   -1.1390   -2.9950   23.4820 C   0  0  0  0  0  0  0  0  0  0  0  0
   -1.7950   -2.7500   24.6800 C   0  0  0  0  0  0  0  0  0  0  0  0
   -1.1340   -2.1820   25.7510 C   0  0  0  0  0  0  0  0  0  0  0  0
    0.2070   -1.8750   25.6440 C   0  0  0  0  0  0  0  0  0  0  0  0
    0.8650   -1.3020   26.7500 O   0  0  0  0  0  0  0  0  0  0  0  0
    0.8840   -2.1330   24.4570 C   0  0  0  0  0  0  0  0  0  0  0  0
    0.2140   -2.6990   23.3770 C   0  0  0  0  0  0  0  0  0  0  0  0
   -1.6890   -5.0910   22.0280 C   0  0  0  0  0  0  0  0  0  0  0  0
   -0.4500   -5.2280   21.1760 C   0  0  0  0  0  0  0  0  0  0  0  0
   -5.0745   -1.1858   23.0535 H   0  0  0  0  0  0  0  0  0  0  0  0
   -4.9411   -0.2973   21.4981 H   0  0  0  0  0  0  0  0  0  0  0  0
   -5.2545   -2.0660   21.4981 H   0  0  0  0  0  0  0  0  0  0  0  0
   -2.7788   -0.8830   21.2109 H   0  0  0  0  0  0  0  0  0  0  0  0
   -2.8356   -1.2715   22.9829 H   0  0  0  0  0  0  0  0  0  0  0  0
   -2.5067   -3.0671   18.9453 H   0  0  0  0  0  0  0  0  0  0  0  0
   -3.9021   -4.2936   17.2819 H   0  0  0  0  0  0  0  0  0  0  0  0
   -6.8536   -6.2602   18.1563 H   0  0  0  0  0  0  0  0  0  0  0  0
   -6.4844   -5.6888   20.4377 H   0  0  0  0  0  0  0  0  0  0  0  0
   -5.1003   -4.4666   22.0946 H   0  0  0  0  0  0  0  0  0  0  0  0
   -2.8587   -3.0125   24.7780 H   0  0  0  0  0  0  0  0  0  0  0  0
   -1.6746   -1.9749   26.6863 H   0  0  0  0  0  0  0  0  0  0  0  0
    1.8269   -1.0754   26.6908 H   0  0  0  0  0  0  0  0  0  0  0  0
    1.9531   -1.8887   24.3717 H   0  0  0  0  0  0  0  0  0  0  0  0
    0.7542   -2.9115   22.4426 H   0  0  0  0  0  0  0  0  0  0  0  0
   -1.5509   -5.6587   22.9600 H   0  0  0  0  0  0  0  0  0  0  0  0
   -2.5496   -5.4831   21.4662 H   0  0  0  0  0  0  0  0  0  0  0  0
    0.4325   -5.3256   21.8253 H   0  0  0  0  0  0  0  0  0  0  0  0
   -0.5387   -6.1218   20.5410 H   0  0  0  0  0  0  0  0  0  0  0  0
   -0.3412   -4.3364   20.5410 H   0  0  0  0  0  0  0  0  0  0  0  0
  1  2  1  0
  2  3  1  0
  3  4  1  0
  4  5  2  0
  5  6  1  0
  6  7  2  0
  7  8  1  0
  7  9  1  0
  4 10  1  0
  9 10  2  0
  3 11  2  0
 11 12  1  0
 12 13  2  0
 13 14  1  0
 14 15  2  0
 15 16  1  0
 15 17  1  0
 12 18  1  0
 17 18  2  0
 11 19  1  0
 19 20  1  0
  1 21  1  0
  1 22  1  0
  1 23  1  0
  2 24  1  0
  2 25  1  0
  5 26  1  0
  6 27  1  0
  8 28  1  0
  9 29  1  0
 10 30  1  0
 13 31  1  0
 14 32  1  0
 16 33  1  0
 17 34  1  0
 18 35  1  0
 19 36  1  0
 19 37  1  0
 20 38  1  0
 20 39  1  0
 20 40  1  0
M  END
$$$$
