PDB_DB05015_98
     RDKit          3D

 36 37  0  0  0  0  0  0  0  0999 V2000
   28.3330  145.2210   53.1130 O   0  0  0  0  0  0  0  0  0  0  0  0
   27.7450  145.6470   54.0340 C   0  0  0  0  0  0  0  0  0  0  0  0
   26.3330  145.4200   54.1870 N   0  0  0  0  0  0  0  0  0  0  0  0
   25.7510  144.7270   53.2390 O   0  0  0  0  0  0  0  0  0  0  0  0
   28.3790  146.4330   55.1530 C   0  0  0  0  0  0  0  0  0  0  0  0
   29.5620  146.0940   55.6330 C   0  0  0  0  0  0  0  0  0  0  0  0
   30.2010  146.5180   56.8880 C   0  0  0  0  0  0  0  0  0  0  0  0
   31.3810  145.9200   57.3440 C   0  0  0  0  0  0  0  0  0  0  0  0
   29.6810  147.5350   57.6880 C   0  0  0  0  0  0  0  0  0  0  0  0
   30.3130  147.9120   58.8660 C   0  0  0  0  0  0  0  0  0  0  0  0
   31.4720  147.2960   59.2770 C   0  0  0  0  0  0  0  0  0  0  0  0
   32.0140  146.2620   58.5160 C   0  0  0  0  0  0  0  0  0  0  0  0
   33.5130  145.5490   59.0820 S   0  0  0  0  0  0  0  0  0  0  0  0
   33.3750  144.7740   60.5300 O   0  0  0  0  0  0  0  0  0  0  0  0
   33.8970  144.2670   58.1600 O   0  0  0  0  0  0  0  0  0  0  0  0
   34.7860  146.5550   59.0460 N   0  0  0  0  0  0  0  0  0  0  0  0
   34.9380  147.6480   58.1670 C   0  0  0  0  0  0  0  0  0  0  0  0
   35.4880  147.4910   56.8800 C   0  0  0  0  0  0  0  0  0  0  0  0
   35.5950  148.5660   56.0290 C   0  0  0  0  0  0  0  0  0  0  0  0
   35.1480  149.8210   56.4120 C   0  0  0  0  0  0  0  0  0  0  0  0
   34.5910  149.9850   57.6620 C   0  0  0  0  0  0  0  0  0  0  0  0
   34.4750  148.9190   58.5260 C   0  0  0  0  0  0  0  0  0  0  0  0
   25.8086  145.7818   54.9963 H   0  0  0  0  0  0  0  0  0  0  0  0
   25.1703  144.0355   53.6448 H   0  0  0  0  0  0  0  0  0  0  0  0
   27.8498  147.3000   55.5753 H   0  0  0  0  0  0  0  0  0  0  0  0
   30.1479  145.4017   55.0106 H   0  0  0  0  0  0  0  0  0  0  0  0
   31.8299  145.1276   56.7271 H   0  0  0  0  0  0  0  0  0  0  0  0
   28.7565  148.0463   57.3815 H   0  0  0  0  0  0  0  0  0  0  0  0
   29.8799  148.7156   59.4797 H   0  0  0  0  0  0  0  0  0  0  0  0
   31.9696  147.6185   60.2035 H   0  0  0  0  0  0  0  0  0  0  0  0
   35.5451  146.3813   59.7201 H   0  0  0  0  0  0  0  0  0  0  0  0
   35.8350  146.4998   56.5526 H   0  0  0  0  0  0  0  0  0  0  0  0
   36.0405  148.4283   55.0327 H   0  0  0  0  0  0  0  0  0  0  0  0
   35.2368  150.6763   55.7261 H   0  0  0  0  0  0  0  0  0  0  0  0
   34.2352  150.9784   57.9729 H   0  0  0  0  0  0  0  0  0  0  0  0
   34.0118  149.0686   59.5124 H   0  0  0  0  0  0  0  0  0  0  0  0
  2  1  2  0
  2  3  1  0
  4  3  1  0
  2  5  1  0
  5  6  2  0
  6  7  1  0
  7  8  2  0
  7  9  1  0
  9 10  2  0
 10 11  1  0
  8 12  1  0
 11 12  2  0
 12 13  1  0
 13 14  2  0
 13 15  2  0
 13 16  1  0
 16 17  1  0
 17 18  2  0
 18 19  1  0
 19 20  2  0
 20 21  1  0
 17 22  1  0
 21 22  2  0
  3 23  1  0
  4 24  1  0
  5 25  1  0
  6 26  1  0
  8 27  1  0
  9 28  1  0
 10 29  1  0
 11 30  1  0
 16 31  1  0
 18 32  1  0
 19 33  1  0
 20 34  1  0
 21 35  1  0
 22 36  1  0
M  END
$$$$
