PDB_DB00273_97
     RDKit          3D

180188  0  0  0  0  0  0  0  0999 V2000
   39.7870   10.5550   20.8730 C   0  0  0  0  0  0  0  0  0  0  0  0
   38.4970   10.6980   20.0720 C   0  0  2  0  0  0  0  0  0  0  0  0
   37.7980   11.9950   20.4640 C   0  0  0  0  0  0  0  0  0  0  0  0
   37.6660    9.5360   20.2210 O   0  0  0  0  0  0  0  0  0  0  0  0
   38.7700   10.7540   18.6670 O   0  0  0  0  0  0  0  0  0  0  0  0
   37.7400   10.0340   17.9800 C   0  0  1  0  0  0  0  0  0  0  0  0
   38.2750    9.5610   16.6390 C   0  0  2  0  0  0  0  0  0  0  0  0
   37.2080    9.0560   15.8550 O   0  0  0  0  0  0  0  0  0  0  0  0
   37.7000    8.0400   15.0150 C   0  0  2  0  0  0  0  0  0  0  0  0
   38.0310    8.6280   13.6430 C   0  0  0  0  0  0  0  0  0  0  0  0
   36.6170    6.9670   14.8990 C   0  0  0  0  0  0  0  0  0  0  0  0
   38.8850    7.5460   15.6620 O   0  0  0  0  0  0  0  0  0  0  0  0
   39.2920    8.4370   16.7100 C   0  0  2  0  0  0  0  0  0  0  0  0
   39.3190    7.7790   18.0900 C   0  0  0  0  0  0  0  0  0  0  0  0
   38.0180    7.7140   18.6980 O   0  0  0  0  0  0  0  0  0  0  0  0
   37.3150    8.9400   18.9560 C   0  0  1  0  0  0  0  0  0  0  0  0
   35.8220    8.6070   18.8990 C   0  0  0  0  0  0  0  0  0  0  0  0
   34.9830    9.7540   19.0170 O   0  0  0  0  0  0  0  0  0  0  0  0
   33.4510    9.6040   19.1680 S   0  0  1  0  0  4  0  0  0  0  0  0
   33.1370    9.1430   20.5260 O   0  0  0  0  0  0  0  0  0  0  0  0
   32.8400   10.8940   18.8210 O   0  0  0  0  0  0  0  0  0  0  0  0
   32.9150    8.5070   18.2600 N   0  0  0  0  0  0  0  0  0  0  0  0
   37.1550  -11.4910  -25.7460 C   0  0  0  0  0  0  0  0  0  0  0  0
   35.9910  -11.7240  -24.7800 C   0  0  2  0  0  0  0  0  0  0  0  0
   35.2770  -13.0420  -25.1000 C   0  0  0  0  0  0  0  0  0  0  0  0
   35.0570  -10.6240  -24.7820 O   0  0  0  0  0  0  0  0  0  0  0  0
   36.4770  -11.7670  -23.4250 O   0  0  0  0  0  0  0  0  0  0  0  0
   35.5130  -11.1320  -22.5890 C   0  0  1  0  0  0  0  0  0  0  0  0
   36.2050  -10.6180  -21.3430 C   0  0  2  0  0  0  0  0  0  0  0  0
   35.2100  -10.0950  -20.4700 O   0  0  0  0  0  0  0  0  0  0  0  0
   35.8160   -9.0190  -19.7550 C   0  0  2  0  0  0  0  0  0  0  0  0
   36.3660   -9.5950  -18.4350 C   0  0  0  0  0  0  0  0  0  0  0  0
   34.8040   -7.8980  -19.5360 C   0  0  0  0  0  0  0  0  0  0  0  0
   36.8700   -8.5070  -20.5820 O   0  0  0  0  0  0  0  0  0  0  0  0
   37.1620   -9.4520  -21.6060 C   0  0  2  0  0  0  0  0  0  0  0  0
   36.9480   -8.8080  -22.9790 C   0  0  0  0  0  0  0  0  0  0  0  0
   35.5700   -8.7870  -23.3660 O   0  0  0  0  0  0  0  0  0  0  0  0
   34.8850  -10.0530  -23.4900 C   0  0  1  0  0  0  0  0  0  0  0  0
   33.3960   -9.8180  -23.2410 C   0  0  0  0  0  0  0  0  0  0  0  0
   32.6280  -11.0240  -23.2650 O   0  0  0  0  0  0  0  0  0  0  0  0
   31.0940  -10.9160  -23.3270 S   0  0  1  0  0  4  0  0  0  0  0  0
   30.6130  -10.5110  -24.6730 O   0  0  0  0  0  0  0  0  0  0  0  0
   30.5960  -12.2310  -22.9430 O   0  0  0  0  0  0  0  0  0  0  0  0
   30.6070   -9.8110  -22.3910 N   0  0  0  0  0  0  0  0  0  0  0  0
    3.1010   22.6570  -14.8510 C   0  0  0  0  0  0  0  0  0  0  0  0
    3.0130   21.4610  -15.7930 C   0  0  2  0  0  0  0  0  0  0  0  0
    1.7530   20.6560  -15.5180 C   0  0  0  0  0  0  0  0  0  0  0  0
    4.1810   20.6400  -15.6790 O   0  0  0  0  0  0  0  0  0  0  0  0
    2.9890   21.8680  -17.1670 O   0  0  0  0  0  0  0  0  0  0  0  0
    3.8090   20.9790  -17.9230 C   0  0  1  0  0  0  0  0  0  0  0  0
    4.4130   21.7240  -19.1010 C   0  0  2  0  0  0  0  0  0  0  0  0
    4.9690   20.7560  -19.9750 O   0  0  0  0  0  0  0  0  0  0  0  0
    6.0740   21.3590  -20.6430 C   0  0  2  0  0  0  0  0  0  0  0  0
    5.5900   22.0250  -21.9390 C   0  0  0  0  0  0  0  0  0  0  0  0
    7.1270   20.2930  -20.9160 C   0  0  0  0  0  0  0  0  0  0  0  0
    6.5810   22.3510  -19.7400 O   0  0  0  0  0  0  0  0  0  0  0  0
    5.5670   22.6740  -18.7710 C   0  0  2  0  0  0  0  0  0  0  0  0
    6.1060   22.4950  -17.3440 C   0  0  0  0  0  0  0  0  0  0  0  0
    6.0920   21.0970  -16.9890 O   0  0  0  0  0  0  0  0  0  0  0  0
    4.8220   20.4090  -16.9270 C   0  0  1  0  0  0  0  0  0  0  0  0
    5.0970   18.9060  -17.1060 C   0  0  0  0  0  0  0  0  0  0  0  0
    3.9040   18.1100  -17.2360 O   0  0  0  0  0  0  0  0  0  0  0  0
    3.9900   16.5640  -17.2410 S   0  0  1  0  0  4  0  0  0  0  0  0
    4.3160   16.0790  -15.8780 O   0  0  0  0  0  0  0  0  0  0  0  0
    2.6970   16.1050  -17.7800 O   0  0  0  0  0  0  0  0  0  0  0  0
    5.1490   16.0710  -18.0970 N   0  0  0  0  0  0  0  0  0  0  0  0
    1.6840  -23.0740   16.5250 C   0  0  0  0  0  0  0  0  0  0  0  0
    1.9230  -21.7880   17.3140 C   0  0  2  0  0  0  0  0  0  0  0  0
    0.7800  -20.7860   17.1140 C   0  0  0  0  0  0  0  0  0  0  0  0
    3.2060  -21.2510   16.9760 O   0  0  0  0  0  0  0  0  0  0  0  0
    1.9860  -22.0290   18.7200 O   0  0  0  0  0  0  0  0  0  0  0  0
    2.9730  -21.1490   19.2690 C   0  0  1  0  0  0  0  0  0  0  0  0
    3.5780  -21.8070   20.4980 C   0  0  2  0  0  0  0  0  0  0  0  0
    4.3950  -20.8800   21.1880 O   0  0  0  0  0  0  0  0  0  0  0  0
    5.3900  -21.6190   21.8930 C   0  0  2  0  0  0  0  0  0  0  0  0
    4.8780  -22.0240   23.2850 C   0  0  0  0  0  0  0  0  0  0  0  0
    6.6630  -20.7760   21.9710 C   0  0  0  0  0  0  0  0  0  0  0  0
    5.6220  -22.7870   21.1090 O   0  0  0  0  0  0  0  0  0  0  0  0
    4.5060  -22.9920   20.2360 C   0  0  2  0  0  0  0  0  0  0  0  0
    4.9570  -23.0590   18.7850 C   0  0  0  0  0  0  0  0  0  0  0  0
    5.1300  -21.7220   18.2950 O   0  0  0  0  0  0  0  0  0  0  0  0
    3.9700  -20.9020   18.1300 C   0  0  1  0  0  0  0  0  0  0  0  0
    4.4900  -19.4660   18.0190 C   0  0  0  0  0  0  0  0  0  0  0  0
    3.4910  -18.4780   18.2820 O   0  0  0  0  0  0  0  0  0  0  0  0
    3.7770  -16.9830   18.0330 S   0  0  1  0  0  4  0  0  0  0  0  0
    4.0060  -16.7570   16.5990 O   0  0  0  0  0  0  0  0  0  0  0  0
    2.5620  -16.2840   18.4660 O   0  0  0  0  0  0  0  0  0  0  0  0
    5.0290  -16.5410   18.7850 N   0  0  0  0  0  0  0  0  0  0  0  0
   39.5558   10.5806   21.9481 H   0  0  0  0  0  0  0  0  0  0  0  0
   40.2689    9.5979   20.6243 H   0  0  0  0  0  0  0  0  0  0  0  0
   40.4668   11.3833   20.6243 H   0  0  0  0  0  0  0  0  0  0  0  0
   37.7564   12.0722   21.5605 H   0  0  0  0  0  0  0  0  0  0  0  0
   38.3573   12.8504   20.0572 H   0  0  0  0  0  0  0  0  0  0  0  0
   36.7760   11.9982   20.0572 H   0  0  0  0  0  0  0  0  0  0  0  0
   36.8501   10.6236   17.7146 H   0  0  0  0  0  0  0  0  0  0  0  0
   38.7663   10.4487   16.2140 H   0  0  0  0  0  0  0  0  0  0  0  0
   38.5669    9.5800   13.7717 H   0  0  0  0  0  0  0  0  0  0  0  0
   38.6648    7.9229   13.0851 H   0  0  0  0  0  0  0  0  0  0  0  0
   37.0995    8.8041   13.0851 H   0  0  0  0  0  0  0  0  0  0  0  0
   36.3014    6.6543   15.9053 H   0  0  0  0  0  0  0  0  0  0  0  0
   35.7531    7.3754   14.3541 H   0  0  0  0  0  0  0  0  0  0  0  0
   37.0174    6.0993   14.3541 H   0  0  0  0  0  0  0  0  0  0  0  0
   40.3277    8.7807   16.5716 H   0  0  0  0  0  0  0  0  0  0  0  0
   39.7100    6.7562   17.9848 H   0  0  0  0  0  0  0  0  0  0  0  0
   39.9594    8.3940   18.7394 H   0  0  0  0  0  0  0  0  0  0  0  0
   35.6101    8.1170   17.9372 H   0  0  0  0  0  0  0  0  0  0  0  0
   35.6014    7.9527   19.7553 H   0  0  0  0  0  0  0  0  0  0  0  0
   33.5525    9.7530   21.1859 H   0  0  0  0  0  0  0  0  0  0  0  0
   32.6084   11.3831   19.6500 H   0  0  0  0  0  0  0  0  0  0  0  0
   32.5397    7.7388   18.8343 H   0  0  0  0  0  0  0  0  0  0  0  0
   32.1656    8.8890   17.6655 H   0  0  0  0  0  0  0  0  0  0  0  0
   38.0757  -11.3067  -25.1730 H   0  0  0  0  0  0  0  0  0  0  0  0
   37.2892  -12.3801  -26.3796 H   0  0  0  0  0  0  0  0  0  0  0  0
   36.9367  -10.6187  -26.3796 H   0  0  0  0  0  0  0  0  0  0  0  0
   35.0031  -13.5477  -24.1623 H   0  0  0  0  0  0  0  0  0  0  0  0
   34.3681  -12.8343  -25.6837 H   0  0  0  0  0  0  0  0  0  0  0  0
   35.9475  -13.6899  -25.6837 H   0  0  0  0  0  0  0  0  0  0  0  0
   34.7159  -11.7855  -22.2050 H   0  0  0  0  0  0  0  0  0  0  0  0
   36.7747  -11.4656  -20.9343 H   0  0  0  0  0  0  0  0  0  0  0  0
   35.8836   -9.0898  -17.5853 H   0  0  0  0  0  0  0  0  0  0  0  0
   36.1539  -10.6734  -18.3889 H   0  0  0  0  0  0  0  0  0  0  0  0
   37.4530   -9.4329  -18.3889 H   0  0  0  0  0  0  0  0  0  0  0  0
   34.6606   -7.7391  -18.4570 H   0  0  0  0  0  0  0  0  0  0  0  0
   35.1776   -6.9716  -19.9966 H   0  0  0  0  0  0  0  0  0  0  0  0
   33.8443   -8.1753  -19.9966 H   0  0  0  0  0  0  0  0  0  0  0  0
   38.2057   -9.7994  -21.6001 H   0  0  0  0  0  0  0  0  0  0  0  0
   37.3207   -7.7736  -22.9454 H   0  0  0  0  0  0  0  0  0  0  0  0
   37.4939   -9.4109  -23.7196 H   0  0  0  0  0  0  0  0  0  0  0  0
   33.2759   -9.3456  -22.2549 H   0  0  0  0  0  0  0  0  0  0  0  0
   33.0243   -9.1752  -24.0525 H   0  0  0  0  0  0  0  0  0  0  0  0
   29.8593   -9.8764  -24.5769 H   0  0  0  0  0  0  0  0  0  0  0  0
   30.5703  -12.2988  -21.9557 H   0  0  0  0  0  0  0  0  0  0  0  0
   30.7375  -10.1071  -21.4131 H   0  0  0  0  0  0  0  0  0  0  0  0
   31.1472   -8.9513  -22.5644 H   0  0  0  0  0  0  0  0  0  0  0  0
    3.0751   22.3057  -13.8089 H   0  0  0  0  0  0  0  0  0  0  0  0
    4.0414   23.1981  -15.0323 H   0  0  0  0  0  0  0  0  0  0  0  0
    2.2499   23.3299  -15.0323 H   0  0  0  0  0  0  0  0  0  0  0  0
    1.6072   20.5628  -14.4317 H   0  0  0  0  0  0  0  0  0  0  0  0
    0.8865   21.1682  -15.9617 H   0  0  0  0  0  0  0  0  0  0  0  0
    1.8536   19.6545  -15.9617 H   0  0  0  0  0  0  0  0  0  0  0  0
    3.2618   20.1417  -18.3807 H   0  0  0  0  0  0  0  0  0  0  0  0
    3.5921   22.3301  -19.5119 H   0  0  0  0  0  0  0  0  0  0  0  0
    4.9598   22.8922  -21.6924 H   0  0  0  0  0  0  0  0  0  0  0  0
    6.4583   22.3580  -22.5265 H   0  0  0  0  0  0  0  0  0  0  0  0
    5.0052   21.3020  -22.5265 H   0  0  0  0  0  0  0  0  0  0  0  0
    7.5111   19.9041  -19.9614 H   0  0  0  0  0  0  0  0  0  0  0  0
    6.6762   19.4713  -21.4919 H   0  0  0  0  0  0  0  0  0  0  0  0
    7.9542   20.7337  -21.4919 H   0  0  0  0  0  0  0  0  0  0  0  0
    5.2381   23.7228  -18.8149 H   0  0  0  0  0  0  0  0  0  0  0  0
    7.1371   22.8746  -17.2927 H   0  0  0  0  0  0  0  0  0  0  0  0
    5.4700   23.0546  -16.6423 H   0  0  0  0  0  0  0  0  0  0  0  0
    5.7056   18.7699  -18.0122 H   0  0  0  0  0  0  0  0  0  0  0  0
    5.6140   18.5637  -16.1974 H   0  0  0  0  0  0  0  0  0  0  0  0
    3.9100   16.6830  -15.2069 H   0  0  0  0  0  0  0  0  0  0  0  0
    2.0859   15.8881  -17.0319 H   0  0  0  0  0  0  0  0  0  0  0  0
    5.9126   15.7462  -17.4868 H   0  0  0  0  0  0  0  0  0  0  0  0
    4.8300   15.2928  -18.6916 H   0  0  0  0  0  0  0  0  0  0  0  0
    1.5288  -23.9093   17.2237 H   0  0  0  0  0  0  0  0  0  0  0  0
    0.7925  -22.9553   15.8916 H   0  0  0  0  0  0  0  0  0  0  0  0
    2.5586  -23.2835   15.8916 H   0  0  0  0  0  0  0  0  0  0  0  0
    0.4049  -20.4572   18.0944 H   0  0  0  0  0  0  0  0  0  0  0  0
    1.1496  -19.9156   16.5521 H   0  0  0  0  0  0  0  0  0  0  0  0
   -0.0346  -21.2663   16.5521 H   0  0  0  0  0  0  0  0  0  0  0  0
    2.5813  -20.1812   19.6154 H   0  0  0  0  0  0  0  0  0  0  0  0
    2.6944  -22.1578   21.0514 H   0  0  0  0  0  0  0  0  0  0  0  0
    5.4923  -21.5381   24.0573 H   0  0  0  0  0  0  0  0  0  0  0  0
    3.8305  -21.7074   23.3968 H   0  0  0  0  0  0  0  0  0  0  0  0
    4.9449  -23.1163   23.3968 H   0  0  0  0  0  0  0  0  0  0  0  0
    6.9242  -20.6030   23.0254 H   0  0  0  0  0  0  0  0  0  0  0  0
    7.4863  -21.3080   21.4718 H   0  0  0  0  0  0  0  0  0  0  0  0
    6.4945  -19.8104   21.4718 H   0  0  0  0  0  0  0  0  0  0  0  0
    3.9943  -23.9473   20.4246 H   0  0  0  0  0  0  0  0  0  0  0  0
    5.9103  -23.6039   18.7184 H   0  0  0  0  0  0  0  0  0  0  0  0
    4.2021  -23.5845   18.1817 H   0  0  0  0  0  0  0  0  0  0  0  0
    5.3087  -19.3349   18.7418 H   0  0  0  0  0  0  0  0  0  0  0  0
    4.8242  -19.3212   16.9810 H   0  0  0  0  0  0  0  0  0  0  0  0
    4.7056  -16.0665   16.4813 H   0  0  0  0  0  0  0  0  0  0  0  0
    2.5275  -16.2641   19.4552 H   0  0  0  0  0  0  0  0  0  0  0  0
    4.8594  -16.6009   19.7992 H   0  0  0  0  0  0  0  0  0  0  0  0
    5.8163  -17.1549   18.5317 H   0  0  0  0  0  0  0  0  0  0  0  0
  2  1  1  1
  2  3  1  0
  2  4  1  0
  2  5  1  0
  5  6  1  0
  6  7  1  0
  7  8  1  0
  8  9  1  0
  9 10  1  6
  9 11  1  0
  9 12  1  0
  7 13  1  0
 12 13  1  0
 13 14  1  0
 14 15  1  0
  4 16  1  0
  6 16  1  0
 15 16  1  0
 16 17  1  1
 17 18  1  0
 19 18  1  1
 19 20  1  0
 19 21  1  0
 19 22  1  0
 24 23  1  6
 24 25  1  0
 24 26  1  0
 24 27  1  0
 27 28  1  0
 28 29  1  0
 29 30  1  0
 30 31  1  0
 31 32  1  1
 31 33  1  0
 31 34  1  0
 29 35  1  0
 34 35  1  0
 35 36  1  0
 36 37  1  0
 26 38  1  0
 28 38  1  0
 37 38  1  0
 38 39  1  1
 39 40  1  0
 41 40  1  6
 41 42  1  0
 41 43  1  0
 41 44  1  0
 46 45  1  1
 46 47  1  0
 46 48  1  0
 46 49  1  0
 49 50  1  0
 50 51  1  0
 51 52  1  0
 52 53  1  0
 53 54  1  6
 53 55  1  0
 53 56  1  0
 51 57  1  0
 56 57  1  0
 57 58  1  0
 58 59  1  0
 48 60  1  0
 50 60  1  0
 59 60  1  0
 60 61  1  6
 61 62  1  0
 63 62  1  1
 63 64  1  0
 63 65  1  0
 63 66  1  0
 68 67  1  6
 68 69  1  0
 68 70  1  0
 68 71  1  0
 71 72  1  0
 72 73  1  0
 73 74  1  0
 74 75  1  0
 75 76  1  1
 75 77  1  0
 75 78  1  0
 73 79  1  0
 78 79  1  0
 79 80  1  0
 80 81  1  0
 70 82  1  0
 72 82  1  0
 81 82  1  0
 82 83  1  6
 83 84  1  0
 85 84  1  6
 85 86  1  0
 85 87  1  0
 85 88  1  0
  1 89  1  0
  1 90  1  0
  1 91  1  0
  3 92  1  0
  3 93  1  0
  3 94  1  0
  6 95  1  6
  7 96  1  6
 10 97  1  0
 10 98  1  0
 10 99  1  0
 11100  1  0
 11101  1  0
 11102  1  0
 13103  1  6
 14104  1  0
 14105  1  0
 17106  1  0
 17107  1  0
 20108  1  0
 21109  1  0
 22110  1  0
 22111  1  0
 23112  1  0
 23113  1  0
 23114  1  0
 25115  1  0
 25116  1  0
 25117  1  0
 28118  1  1
 29119  1  1
 32120  1  0
 32121  1  0
 32122  1  0
 33123  1  0
 33124  1  0
 33125  1  0
 35126  1  6
 36127  1  0
 36128  1  0
 39129  1  0
 39130  1  0
 42131  1  0
 43132  1  0
 44133  1  0
 44134  1  0
 45135  1  0
 45136  1  0
 45137  1  0
 47138  1  0
 47139  1  0
 47140  1  0
 50141  1  6
 51142  1  6
 54143  1  0
 54144  1  0
 54145  1  0
 55146  1  0
 55147  1  0
 55148  1  0
 57149  1  1
 58150  1  0
 58151  1  0
 61152  1  0
 61153  1  0
 64154  1  0
 65155  1  0
 66156  1  0
 66157  1  0
 67158  1  0
 67159  1  0
 67160  1  0
 69161  1  0
 69162  1  0
 69163  1  0
 72164  1  1
 73165  1  1
 76166  1  0
 76167  1  0
 76168  1  0
 77169  1  0
 77170  1  0
 77171  1  0
 79172  1  1
 80173  1  0
 80174  1  0
 83175  1  0
 83176  1  0
 86177  1  0
 87178  1  0
 88179  1  0
 88180  1  0
M  END
>  <PDBID>  (1) 
5JNA

>  <PDB ID>  (1) 
5JNA

>  <Generic Name>  (1) 
Topiramate

>  <Brand Name>  (1) 
Abbott-topiramate#Accel-topiramate#Act Topiramate#Apo-topiramate#Auro-topiramate#Ava-topiramate#Dom-topiramate#Gd-topiramate#Ipg-topiramate#Jamp-topiramate#Mar-topiramate#Mint-topiramate#Mylan-topiramate#Nu-topiramate#PHL-topiramate#PMS-topiramate#Pro-topiramate#Q-topiramate#Qsymia#Qudexy XR#Ran-topiramate#Ratio-topiramate#Sandoz Topiramate#Sandoz Topiramate Tablets#Teva-topiramate#Topamax#Topamax 100mg#Topamax 200mg#Topamax 25mg#Topiramate#Topiramate Tablets#Topiramate Tablets USP#Trokendi XR#Van-topiramate#Zym-topiramate

>  <DrugBank ID>  (1) 
DB00273

>  <ATC Codes>  (1) 
N03AX11

>  <Ligand ID>  (1) 
TOR

>  <Target Name>  (1) 
Carbonic anhydrase 2

>  <UniProt ID>  (1) 
P00918

>  <PDB ID.1>  (1) 
5JNA

>  <Seq. Identity>  (1) 
34%

$$$$
