PDB_DB00703_98
     RDKit          3D

 22 22  0  0  0  0  0  0  0  0999 V2000
   -5.5110   -0.8020   16.1750 N   0  0  0  0  0  0  0  0  0  0  0  0
   -6.0330    0.5790   16.8800 S   0  0  0  0  0  0  0  0  0  0  0  0
   -7.5190    0.7640   16.7400 O   0  0  0  0  0  0  0  0  0  0  0  0
   -5.5040    0.6910   18.2650 O   0  0  0  0  0  0  0  0  0  0  0  0
   -5.4010    1.8830   15.9230 C   0  0  0  0  0  0  0  0  0  0  0  0
   -6.1330    2.9880   15.0890 S   0  0  0  0  0  0  0  0  0  0  0  0
   -4.9130    3.7370   14.5290 C   0  0  0  0  0  0  0  0  0  0  0  0
   -3.6840    3.1900   14.9830 N   0  0  0  0  0  0  0  0  0  0  0  0
   -2.3380    3.6260   14.6570 C   0  0  0  0  0  0  0  0  0  0  0  0
   -4.0040    1.9820   15.8610 N   0  0  0  0  0  0  0  0  0  0  0  0
   -4.9190    4.8640   13.6940 N   0  0  0  0  0  0  0  0  0  0  0  0
   -6.1260    5.4170   13.2160 C   0  0  0  0  0  0  0  0  0  0  0  0
   -7.1960    4.8970   13.4210 O   0  0  0  0  0  0  0  0  0  0  0  0
   -5.9330    6.5550   12.2070 C   0  0  0  0  0  0  0  0  0  0  0  0
   -5.2535   -1.4832   16.9034 H   0  0  0  0  0  0  0  0  0  0  0  0
   -6.2621   -1.1934   15.5889 H   0  0  0  0  0  0  0  0  0  0  0  0
   -1.7766    3.8079   15.5853 H   0  0  0  0  0  0  0  0  0  0  0  0
   -1.8321    2.8458   14.0694 H   0  0  0  0  0  0  0  0  0  0  0  0
   -2.3856    4.5547   14.0694 H   0  0  0  0  0  0  0  0  0  0  0  0
   -5.7727    7.5001   12.7465 H   0  0  0  0  0  0  0  0  0  0  0  0
   -5.0584    6.3405   11.5753 H   0  0  0  0  0  0  0  0  0  0  0  0
   -6.8294    6.6409   11.5753 H   0  0  0  0  0  0  0  0  0  0  0  0
  1  2  1  0
  2  3  2  0
  2  4  2  0
  2  5  1  0
  5  6  1  0
  6  7  1  0
  7  8  1  0
  8  9  1  0
  5 10  2  0
  8 10  1  0
  7 11  2  0
 11 12  1  0
 12 13  2  0
 12 14  1  0
  1 15  1  0
  1 16  1  0
  9 17  1  0
  9 18  1  0
  9 19  1  0
 14 20  1  0
 14 21  1  0
 14 22  1  0
M  END
>  <PDBID>  (1) 
5C8I

>  <PDB ID>  (1) 
5C8I

>  <Generic Name>  (1) 
Methazolamide

>  <Brand Name>  (1) 
Methazolamide#Neptazane#Neptazane Tablets 25mg#Neptazane Tablets 25mg USP#Neptazane Tablets 50mg#Naptazane

>  <DrugBank ID>  (1) 
DB00703

>  <ATC Codes>  (1) 
S01EC05

>  <Ligand ID>  (1) 
MZM

>  <Target Name>  (1) 
Carbonic anhydrase 1

>  <UniProt ID>  (1) 
P00915

>  <PDB ID.1>  (1) 
5C8I

>  <Seq. Identity>  (1) 
61%

$$$$
