PDB_DB00655_98
     RDKit          3D

 42 45  0  0  0  0  0  0  0  0999 V2000
   -3.5330   -5.2470   22.0210 C   0  0  2  0  0  0  0  0  0  0  0  0
   -5.7870   -4.7330   20.8670 C   0  0  0  0  0  0  0  0  0  0  0  0
   -4.9760   -4.4050   19.6250 C   0  0  2  0  0  0  0  0  0  0  0  0
   -4.6050   -2.9270   19.5790 C   0  0  0  0  0  0  0  0  0  0  0  0
   -6.7590   -4.7660   18.0050 O   0  0  0  0  0  0  0  0  0  0  0  0
   -0.4430   -4.4160   26.7000 O   0  0  0  0  0  0  0  0  0  0  0  0
   -5.5660   -4.8300   18.3050 C   0  0  0  0  0  0  0  0  0  0  0  0
   -4.4920   -5.2530   17.3330 C   0  0  0  0  0  0  0  0  0  0  0  0
   -3.2370   -5.3180   18.2120 C   0  0  0  0  0  0  0  0  0  0  0  0
   -3.7520   -5.2860   19.6450 C   0  0  1  0  0  0  0  0  0  0  0  0
   -2.8070   -4.8400   20.7500 C   0  0  2  0  0  0  0  0  0  0  0  0
   -4.9080   -4.5560   22.1110 C   0  0  0  0  0  0  0  0  0  0  0  0
   -1.4500   -5.5170   20.6460 C   0  0  0  0  0  0  0  0  0  0  0  0
   -0.5680   -5.3970   21.8890 C   0  0  0  0  0  0  0  0  0  0  0  0
   -1.3130   -5.1020   23.1780 C   0  0  0  0  0  0  0  0  0  0  0  0
   -2.7000   -5.0230   23.2360 C   0  0  0  0  0  0  0  0  0  0  0  0
   -0.5510   -4.8900   24.3420 C   0  0  0  0  0  0  0  0  0  0  0  0
   -1.1770   -4.6190   25.5550 C   0  0  0  0  0  0  0  0  0  0  0  0
   -2.5700   -4.5430   25.6060 C   0  0  0  0  0  0  0  0  0  0  0  0
   -3.3260   -4.7470   24.4560 C   0  0  0  0  0  0  0  0  0  0  0  0
   -3.7143   -6.3310   21.9745 H   0  0  0  0  0  0  0  0  0  0  0  0
   -6.6521   -4.0564   20.9296 H   0  0  0  0  0  0  0  0  0  0  0  0
   -6.1395   -5.7735   20.8113 H   0  0  0  0  0  0  0  0  0  0  0  0
   -4.5082   -2.5412   20.6046 H   0  0  0  0  0  0  0  0  0  0  0  0
   -3.6485   -2.8054   19.0496 H   0  0  0  0  0  0  0  0  0  0  0  0
   -5.3907   -2.3680   19.0496 H   0  0  0  0  0  0  0  0  0  0  0  0
   -0.9030   -4.2242   27.5554 H   0  0  0  0  0  0  0  0  0  0  0  0
   -4.7197   -6.2363   16.8956 H   0  0  0  0  0  0  0  0  0  0  0  0
   -4.3873   -4.5688   16.4781 H   0  0  0  0  0  0  0  0  0  0  0  0
   -2.6809   -6.2480   18.0225 H   0  0  0  0  0  0  0  0  0  0  0  0
   -2.5459   -4.4877   18.0045 H   0  0  0  0  0  0  0  0  0  0  0  0
   -3.9332   -6.3346   19.9236 H   0  0  0  0  0  0  0  0  0  0  0  0
   -2.5861   -3.7633   20.7055 H   0  0  0  0  0  0  0  0  0  0  0  0
   -5.4466   -4.9721   22.9752 H   0  0  0  0  0  0  0  0  0  0  0  0
   -4.7125   -3.4778   22.2072 H   0  0  0  0  0  0  0  0  0  0  0  0
   -1.6169   -6.5862   20.4486 H   0  0  0  0  0  0  0  0  0  0  0  0
   -0.9115   -5.0009   19.8375 H   0  0  0  0  0  0  0  0  0  0  0  0
   -0.0275   -6.3465   22.0169 H   0  0  0  0  0  0  0  0  0  0  0  0
    0.0952   -4.5372   21.7135 H   0  0  0  0  0  0  0  0  0  0  0  0
    0.5468   -4.9388   24.2927 H   0  0  0  0  0  0  0  0  0  0  0  0
   -3.0719   -4.3209   26.5593 H   0  0  0  0  0  0  0  0  0  0  0  0
   -4.4234   -4.6909   24.5065 H   0  0  0  0  0  0  0  0  0  0  0  0
  2  3  1  0
  3  4  1  6
  3  7  1  0
  5  7  2  0
  7  8  1  0
  8  9  1  0
  3 10  1  0
  9 10  1  0
  1 11  1  0
 10 11  1  0
  1 12  1  0
  2 12  1  0
 11 13  1  0
 13 14  1  0
 14 15  1  0
  1 16  1  0
 15 16  2  0
 15 17  1  0
  6 18  1  0
 17 18  2  0
 18 19  1  0
 16 20  1  0
 19 20  2  0
  1 21  1  6
  2 22  1  0
  2 23  1  0
  4 24  1  0
  4 25  1  0
  4 26  1  0
  6 27  1  0
  8 28  1  0
  8 29  1  0
  9 30  1  0
  9 31  1  0
 10 32  1  1
 11 33  1  1
 12 34  1  0
 12 35  1  0
 13 36  1  0
 13 37  1  0
 14 38  1  0
 14 39  1  0
 17 40  1  0
 19 41  1  0
 20 42  1  0
M  END
$$$$
