PDB_DB00452_91
     RDKit          3D

 88 91  0  0  0  0  0  0  0  0999 V2000
  -79.5400  144.8300  201.4240 C   0  0  2  0  0  0  0  0  0  0  0  0
  -79.5040  143.4250  201.1910 O   0  0  0  0  0  0  0  0  0  0  0  0
  -80.8900  145.2060  202.0440 C   0  0  2  0  0  0  0  0  0  0  0  0
  -81.4390  144.0310  202.6930 N   0  0  0  0  0  0  0  0  0  0  0  0
  -81.9170  145.7420  201.0400 C   0  0  1  0  0  0  0  0  0  0  0  0
  -81.7520  147.1580  200.9010 O   0  0  0  0  0  0  0  0  0  0  0  0
  -81.7750  145.0770  199.6720 C   0  0  2  0  0  0  0  0  0  0  0  0
  -82.1990  143.7120  199.7590 O   0  0  0  0  0  0  0  0  0  0  0  0
  -80.3280  145.1330  199.1640 C   0  0  2  0  0  0  0  0  0  0  0  0
  -79.3720  145.5060  200.1720 O   0  0  0  0  0  0  0  0  0  0  0  0
  -80.2120  146.1010  197.9930 C   0  0  0  0  0  0  0  0  0  0  0  0
  -76.2390  140.9320  202.2050 C   0  0  1  0  0  0  0  0  0  0  0  0
  -74.8840  140.4130  202.2430 N   0  0  0  0  0  0  0  0  0  0  0  0
  -76.2560  142.3530  202.7530 C   0  0  1  0  0  0  0  0  0  0  0  0
  -77.6540  142.9550  202.6630 C   0  0  1  0  0  0  0  0  0  0  0  0
  -77.6220  144.3050  203.1220 O   0  0  0  0  0  0  0  0  0  0  0  0
  -78.1720  142.9150  201.2310 C   0  0  1  0  0  0  0  0  0  0  0  0
  -78.1560  141.4920  200.6860 C   0  0  1  0  0  0  0  0  0  0  0  0
  -78.5980  141.4980  199.3050 N   0  0  0  0  0  0  0  0  0  0  0  0
  -76.7560  140.8960  200.7710 C   0  0  0  0  0  0  0  0  0  0  0  0
  -77.8800  144.3950  204.5210 C   0  0  1  0  0  0  0  0  0  0  0  0
  -77.6140  145.8090  205.0130 C   0  0  1  0  0  0  0  0  0  0  0  0
  -78.8360  146.2020  205.8200 C   0  0  1  0  0  0  0  0  0  0  0  0
  -79.7760  145.0080  205.7680 C   0  0  2  0  0  0  0  0  0  0  0  0
  -79.2550  144.1060  204.7900 O   0  0  0  0  0  0  0  0  0  0  0  0
  -81.1870  145.4300  205.3800 C   0  0  0  0  0  0  0  0  0  0  0  0
  -78.3740  150.3800  208.6730 C   0  0  1  0  0  0  0  0  0  0  0  0
  -77.1630  149.5060  208.9700 C   0  0  1  0  0  0  0  0  0  0  0  0
  -77.4970  148.0400  208.7270 C   0  0  2  0  0  0  0  0  0  0  0  0
  -78.1020  147.8510  207.3410 C   0  0  1  0  0  0  0  0  0  0  0  0
  -78.4750  146.4860  207.1680 O   0  0  0  0  0  0  0  0  0  0  0  0
  -78.9310  150.0680  207.2890 C   0  0  1  0  0  0  0  0  0  0  0  0
  -79.2550  148.6810  207.2050 O   0  0  0  0  0  0  0  0  0  0  0  0
  -80.1760  150.8990  207.0030 C   0  0  0  0  0  0  0  0  0  0  0  0
  -78.8720  146.0400  197.4440 N   0  0  0  0  0  0  0  0  0  0  0  0
  -76.4490  145.8280  205.8430 O   0  0  0  0  0  0  0  0  0  0  0  0
  -76.0760  149.8950  208.1230 O   0  0  0  0  0  0  0  0  0  0  0  0
  -79.3850  150.1460  209.6590 O   0  0  0  0  0  0  0  0  0  0  0  0
  -81.6160  146.5000  206.2310 O   0  0  0  0  0  0  0  0  0  0  0  0
  -75.8260  142.3450  204.1180 O   0  0  0  0  0  0  0  0  0  0  0  0
  -81.2030  150.5820  207.9760 N   0  0  0  0  0  0  0  0  0  0  0  0
  -78.4380  147.5850  209.7310 N   0  0  0  0  0  0  0  0  0  0  0  0
  -78.7350  145.1233  202.1139 H   0  0  0  0  0  0  0  0  0  0  0  0
  -80.6959  146.0241  202.7533 H   0  0  0  0  0  0  0  0  0  0  0  0
  -81.3850  144.1466  203.7151 H   0  0  0  0  0  0  0  0  0  0  0  0
  -82.4229  143.9120  202.4124 H   0  0  0  0  0  0  0  0  0  0  0  0
  -82.9205  145.5093  201.4258 H   0  0  0  0  0  0  0  0  0  0  0  0
  -81.7035  147.5742  201.7980 H   0  0  0  0  0  0  0  0  0  0  0  0
  -82.4070  145.6263  198.9586 H   0  0  0  0  0  0  0  0  0  0  0  0
  -82.2799  143.4516  200.7107 H   0  0  0  0  0  0  0  0  0  0  0  0
  -80.0863  144.1071  198.8492 H   0  0  0  0  0  0  0  0  0  0  0  0
  -80.9393  145.8242  197.2156 H   0  0  0  0  0  0  0  0  0  0  0  0
  -80.4181  147.1236  198.3420 H   0  0  0  0  0  0  0  0  0  0  0  0
  -76.8965  140.3100  202.8301 H   0  0  0  0  0  0  0  0  0  0  0  0
  -74.5872  140.2993  203.2228 H   0  0  0  0  0  0  0  0  0  0  0  0
  -74.8524  139.5003  201.7666 H   0  0  0  0  0  0  0  0  0  0  0  0
  -75.5723  142.9672  202.1487 H   0  0  0  0  0  0  0  0  0  0  0  0
  -78.3310  142.3613  203.2948 H   0  0  0  0  0  0  0  0  0  0  0  0
  -77.5140  143.5359  200.6053 H   0  0  0  0  0  0  0  0  0  0  0  0
  -78.8356  140.8760  201.2931 H   0  0  0  0  0  0  0  0  0  0  0  0
  -79.6274  141.5120  199.2741 H   0  0  0  0  0  0  0  0  0  0  0  0
  -78.2288  142.3341  198.8300 H   0  0  0  0  0  0  0  0  0  0  0  0
  -76.7866  139.8524  200.4246 H   0  0  0  0  0  0  0  0  0  0  0  0
  -76.0807  141.4898  200.1374 H   0  0  0  0  0  0  0  0  0  0  0  0
  -77.2237  143.6741  205.0305 H   0  0  0  0  0  0  0  0  0  0  0  0
  -77.4379  146.5041  204.1789 H   0  0  0  0  0  0  0  0  0  0  0  0
  -79.3089  147.1077  205.4126 H   0  0  0  0  0  0  0  0  0  0  0  0
  -79.8378  144.5357  206.7595 H   0  0  0  0  0  0  0  0  0  0  0  0
  -81.1938  145.7685  204.3334 H   0  0  0  0  0  0  0  0  0  0  0  0
  -81.8698  144.5750  205.4930 H   0  0  0  0  0  0  0  0  0  0  0  0
  -78.0644  151.4352  208.7001 H   0  0  0  0  0  0  0  0  0  0  0  0
  -76.8783  149.6363  210.0245 H   0  0  0  0  0  0  0  0  0  0  0  0
  -76.5697  147.4518  208.7911 H   0  0  0  0  0  0  0  0  0  0  0  0
  -77.3606  148.1287  206.5773 H   0  0  0  0  0  0  0  0  0  0  0  0
  -78.1641  150.3190  206.5414 H   0  0  0  0  0  0  0  0  0  0  0  0
  -79.9262  151.9682  207.0688 H   0  0  0  0  0  0  0  0  0  0  0  0
  -80.5453  150.6701  205.9925 H   0  0  0  0  0  0  0  0  0  0  0  0
  -78.1871  146.0088  198.2127 H   0  0  0  0  0  0  0  0  0  0  0  0
  -78.7765  145.1938  196.8646 H   0  0  0  0  0  0  0  0  0  0  0  0
  -76.7217  145.8236  206.7947 H   0  0  0  0  0  0  0  0  0  0  0  0
  -75.3057  150.1707  208.6804 H   0  0  0  0  0  0  0  0  0  0  0  0
  -78.9917  150.2370  210.5630 H   0  0  0  0  0  0  0  0  0  0  0  0
  -81.5085  146.2319  207.1779 H   0  0  0  0  0  0  0  0  0  0  0  0
  -76.6169  142.3597  204.7132 H   0  0  0  0  0  0  0  0  0  0  0  0
  -80.8235  150.6991  208.9263 H   0  0  0  0  0  0  0  0  0  0  0  0
  -82.0056  151.2144  207.8465 H   0  0  0  0  0  0  0  0  0  0  0  0
  -78.0553  147.7701  210.6692 H   0  0  0  0  0  0  0  0  0  0  0  0
  -79.3298  148.0879  209.6187 H   0  0  0  0  0  0  0  0  0  0  0  0
  2  1  1  0
  3  1  1  0
  4  3  1  0
  5  3  1  0
  6  5  1  0
  7  5  1  0
  8  7  1  0
  9  7  1  0
 10  9  1  0
 10  1  1  0
 11  9  1  0
 13 12  1  0
 14 12  1  0
 15 14  1  0
 16 15  1  0
 17  2  1  0
 17 15  1  0
 18 17  1  0
 19 18  1  0
 20 18  1  0
 20 12  1  0
 21 16  1  0
 22 21  1  0
 23 22  1  0
 24 23  1  0
 25 24  1  0
 25 21  1  0
 26 24  1  0
 28 27  1  0
 29 28  1  0
 30 29  1  0
 31 23  1  0
 31 30  1  0
 32 27  1  0
 33 32  1  0
 33 30  1  0
 34 32  1  0
 35 11  1  0
 36 22  1  0
 37 28  1  0
 38 27  1  0
 39 26  1  0
 40 14  1  0
 41 34  1  0
 42 29  1  0
  1 43  1  1
  3 44  1  1
  4 45  1  0
  4 46  1  0
  5 47  1  1
  6 48  1  0
  7 49  1  6
  8 50  1  0
  9 51  1  6
 11 52  1  0
 11 53  1  0
 12 54  1  1
 13 55  1  0
 13 56  1  0
 14 57  1  6
 15 58  1  1
 17 59  1  6
 18 60  1  1
 19 61  1  0
 19 62  1  0
 20 63  1  0
 20 64  1  0
 21 65  1  1
 22 66  1  6
 23 67  1  6
 24 68  1  1
 26 69  1  0
 26 70  1  0
 27 71  1  6
 28 72  1  1
 29 73  1  6
 30 74  1  6
 32 75  1  6
 34 76  1  0
 34 77  1  0
 35 78  1  0
 35 79  1  0
 36 80  1  0
 37 81  1  0
 38 82  1  0
 39 83  1  0
 40 84  1  0
 41 85  1  0
 41 86  1  0
 42 87  1  0
 42 88  1  0
M  END
$$$$
