PDB_DB00311_99
     RDKit          3D

 36 37  0  0  0  0  0  0  0  0999 V2000
   -5.4650   -0.6060   16.2520 N   0  0  0  0  0  0  0  0  0  0  0  0
   -3.6850    3.3930   15.2430 C   0  0  1  0  0  0  0  0  0  0  0  0
   -4.8450    4.0640   14.8540 C   0  0  1  0  0  0  0  0  0  0  0  0
   -4.7370    5.2650   14.1050 C   0  0  0  0  0  0  0  0  0  0  0  0
   -3.3640    5.6120   13.8750 C   0  0  0  0  0  0  0  0  0  0  0  0
   -1.9210    7.5120   13.0240 C   0  0  0  0  0  0  0  0  0  0  0  0
   -5.6250    0.8590   18.2690 O   0  0  0  0  0  0  0  0  0  0  0  0
   -7.4470    0.8910   16.6670 O   0  0  0  0  0  0  0  0  0  0  0  0
   -6.0450    0.7020   16.9090 S   0  0  2  0  0  4  0  0  0  0  0  0
   -5.2880    2.0820   16.0560 C   0  0  0  0  0  0  0  0  0  0  0  0
   -3.9690    2.2590   15.9940 N   0  0  0  0  0  0  0  0  0  0  0  0
   -6.2190    3.2530   15.3190 S   0  0  0  0  0  0  0  0  0  0  0  0
   -2.1720    4.9870   14.2630 C   0  0  0  0  0  0  0  0  0  0  0  0
   -2.3270    3.7790   15.0230 C   0  0  0  0  0  0  0  0  0  0  0  0
   -3.2050    6.7660   13.0960 O   0  0  0  0  0  0  0  0  0  0  0  0
   -1.7510    8.4140   14.2560 C   0  0  0  0  0  0  0  0  0  0  0  0
   -5.1743   -1.2617   16.9912 H   0  0  0  0  0  0  0  0  0  0  0  0
   -6.1895   -1.0469   15.6675 H   0  0  0  0  0  0  0  0  0  0  0  0
   -3.6466    3.9933   16.1640 H   0  0  0  0  0  0  0  0  0  0  0  0
   -4.8224    4.6445   15.7881 H   0  0  0  0  0  0  0  0  0  0  0  0
   -5.2400    5.1299   13.1361 H   0  0  0  0  0  0  0  0  0  0  0  0
   -5.2098    6.0763   14.6780 H   0  0  0  0  0  0  0  0  0  0  0  0
   -3.3573    6.2013   14.8038 H   0  0  0  0  0  0  0  0  0  0  0  0
   -1.0879    6.7949   12.9830 H   0  0  0  0  0  0  0  0  0  0  0  0
   -1.9259    8.1409   12.1215 H   0  0  0  0  0  0  0  0  0  0  0  0
   -6.3585    0.5848   18.8747 H   0  0  0  0  0  0  0  0  0  0  0  0
   -7.9253    0.9555   17.5314 H   0  0  0  0  0  0  0  0  0  0  0  0
   -5.3239    2.6742   16.9823 H   0  0  0  0  0  0  0  0  0  0  0  0
   -3.5334    1.4371   15.5517 H   0  0  0  0  0  0  0  0  0  0  0  0
   -1.6046    4.7442   13.3525 H   0  0  0  0  0  0  0  0  0  0  0  0
   -1.6601    5.6986   14.9276 H   0  0  0  0  0  0  0  0  0  0  0  0
   -1.8471    3.9240   16.0021 H   0  0  0  0  0  0  0  0  0  0  0  0
   -1.8623    2.9745   14.4341 H   0  0  0  0  0  0  0  0  0  0  0  0
   -1.8645    7.8120   15.1696 H   0  0  0  0  0  0  0  0  0  0  0  0
   -0.7508    8.8716   14.2402 H   0  0  0  0  0  0  0  0  0  0  0  0
   -2.5160    9.2043   14.2402 H   0  0  0  0  0  0  0  0  0  0  0  0
  2  3  1  0
  3  4  1  0
  4  5  1  0
  1  9  1  0
  9  7  1  1
  8  9  1  0
  9 10  1  0
  2 11  1  0
 10 11  1  0
  3 12  1  0
 10 12  1  0
  5 13  1  0
  2 14  1  0
 13 14  1  0
  5 15  1  0
  6 15  1  0
  6 16  1  0
  1 17  1  0
  1 18  1  0
  2 19  1  6
  3 20  1  1
  4 21  1  0
  4 22  1  0
  5 23  1  0
  6 24  1  0
  6 25  1  0
  7 26  1  0
  8 27  1  0
 10 28  1  0
 11 29  1  0
 13 30  1  0
 13 31  1  0
 14 32  1  0
 14 33  1  0
 16 34  1  0
 16 35  1  0
 16 36  1  0
M  END
>  <PDBID>  (1) 
3DD0

>  <PDB ID>  (1) 
3DD0

>  <Generic Name>  (1) 
Ethoxzolamide

>  <Brand Name>  (1) 
Cardrase#Ethamide

>  <DrugBank ID>  (1) 
DB00311

>  <ATC Codes>  (1) 
nan

>  <Ligand ID>  (1) 
EZL

>  <Target Name>  (1) 
Carbonic anhydrase 1

>  <UniProt ID>  (1) 
P00915

>  <PDB ID.1>  (1) 
3DD0

>  <Seq. Identity>  (1) 
61%

$$$$
