PDB_DB01222_99
     RDKit          3D

 73 77  0  0  0  0  0  0  0  0999 V2000
   -1.4260  -44.8600   -4.0110 C   0  0  0  0  0  0  0  0  0  0  0  0
   -0.9800  -43.5900   -3.2770 C   0  0  0  0  0  0  0  0  0  0  0  0
   -1.9610  -42.4780   -3.6390 C   0  0  0  0  0  0  0  0  0  0  0  0
   -2.1480  -38.9300   -3.5050 C   0  0  1  0  0  0  0  0  0  0  0  0
   -2.6820  -38.4710   -4.8990 C   0  0  0  0  0  0  0  0  0  0  0  0
   -1.5660  -38.9820   -5.8490 C   0  0  1  0  0  0  0  0  0  0  0  0
   -1.5320  -38.5690   -7.3330 C   0  0  2  0  0  0  0  0  0  0  0  0
   -2.8620  -38.9650   -8.0220 C   0  0  0  0  0  0  0  0  0  0  0  0
   -2.8530  -38.7130   -9.5550 C   0  0  0  0  0  0  0  0  0  0  0  0
   -1.5750  -39.3330  -10.1590 C   0  0  0  0  0  0  0  0  0  0  0  0
    0.8330  -40.5080  -11.2360 C   0  0  0  0  0  0  0  0  0  0  0  0
    0.9290  -39.6800  -10.2040 C   0  0  0  0  0  0  0  0  0  0  0  0
   -0.2270  -38.9770   -9.5490 C   0  0  2  0  0  0  0  0  0  0  0  0
    0.8920  -39.3960   -5.7270 C   0  0  0  0  0  0  0  0  0  0  0  0
    0.2510  -38.4800   -2.5230 C   0  0  0  0  0  0  0  0  0  0  0  0
    1.6310  -39.0260   -2.2500 C   0  0  0  0  0  0  0  0  0  0  0  0
    0.0500  -37.0830   -5.0400 C   0  0  0  0  0  0  0  0  0  0  0  0
   -1.6270  -41.1480   -2.9500 C   0  0  2  0  0  0  0  0  0  0  0  0
   -2.7020  -40.2320   -3.2540 O   0  0  0  0  0  0  0  0  0  0  0  0
   -1.6920  -40.1700  -11.1930 C   0  0  0  0  0  0  0  0  0  0  0  0
   -0.4970  -40.8120  -11.7970 C   0  0  0  0  0  0  0  0  0  0  0  0
   -0.5980  -41.5890  -12.7430 O   0  0  0  0  0  0  0  0  0  0  0  0
   -0.3390  -39.3260   -8.0260 C   0  0  1  0  0  0  0  0  0  0  0  0
    1.0190  -39.1740   -7.2560 C   0  0  1  0  0  0  0  0  0  0  0  0
   -0.2520  -38.6200   -5.0580 C   0  0  1  0  0  0  0  0  0  0  0  0
   -0.5980  -39.1290   -3.6230 C   0  0  2  0  0  0  0  0  0  0  0  0
   -0.4390  -40.5650   -3.5400 O   0  0  0  0  0  0  0  0  0  0  0  0
   -0.1390  -37.5360   -1.8660 O   0  0  0  0  0  0  0  0  0  0  0  0
    2.4080  -38.0960   -1.5090 O   0  0  0  0  0  0  0  0  0  0  0  0
    1.6730  -37.9100   -7.4810 O   0  0  0  0  0  0  0  0  0  0  0  0
    0.0250  -37.4740   -9.8410 C   0  0  0  0  0  0  0  0  0  0  0  0
   -1.6972  -45.6322   -3.2760 H   0  0  0  0  0  0  0  0  0  0  0  0
   -2.2978  -44.6319   -4.6418 H   0  0  0  0  0  0  0  0  0  0  0  0
   -0.6030  -45.2271   -4.6418 H   0  0  0  0  0  0  0  0  0  0  0  0
   -0.9917  -43.7612   -2.1905 H   0  0  0  0  0  0  0  0  0  0  0  0
    0.0430  -43.3131   -3.5715 H   0  0  0  0  0  0  0  0  0  0  0  0
   -1.9353  -42.3265   -4.7282 H   0  0  0  0  0  0  0  0  0  0  0  0
   -2.9586  -42.7894   -3.2957 H   0  0  0  0  0  0  0  0  0  0  0  0
   -2.4060  -38.2010   -2.7227 H   0  0  0  0  0  0  0  0  0  0  0  0
   -3.6505  -38.9382   -5.1308 H   0  0  0  0  0  0  0  0  0  0  0  0
   -2.8683  -37.3893   -4.9711 H   0  0  0  0  0  0  0  0  0  0  0  0
   -1.7428  -40.0501   -6.0438 H   0  0  0  0  0  0  0  0  0  0  0  0
   -1.3993  -37.4803   -7.4176 H   0  0  0  0  0  0  0  0  0  0  0  0
   -3.0432  -40.0353   -7.8442 H   0  0  0  0  0  0  0  0  0  0  0  0
   -3.6547  -38.3358   -7.5909 H   0  0  0  0  0  0  0  0  0  0  0  0
   -3.7395  -39.1786  -10.0104 H   0  0  0  0  0  0  0  0  0  0  0  0
   -2.8709  -37.6313   -9.7538 H   0  0  0  0  0  0  0  0  0  0  0  0
   -1.4878  -38.4809  -10.8491 H   0  0  0  0  0  0  0  0  0  0  0  0
    1.4337  -40.0767  -12.0503 H   0  0  0  0  0  0  0  0  0  0  0  0
    1.1700  -41.4724  -10.8281 H   0  0  0  0  0  0  0  0  0  0  0  0
    1.4079  -40.2637   -9.4040 H   0  0  0  0  0  0  0  0  0  0  0  0
    1.4330  -38.8271  -10.6820 H   0  0  0  0  0  0  0  0  0  0  0  0
    0.7279  -40.4691   -5.5492 H   0  0  0  0  0  0  0  0  0  0  0  0
    1.8245  -39.0206   -5.2804 H   0  0  0  0  0  0  0  0  0  0  0  0
    0.6732  -37.7818   -3.2608 H   0  0  0  0  0  0  0  0  0  0  0  0
    1.5415  -39.9593   -1.6747 H   0  0  0  0  0  0  0  0  0  0  0  0
    2.1309  -39.2132   -3.2118 H   0  0  0  0  0  0  0  0  0  0  0  0
    0.1184  -36.7349   -3.9988 H   0  0  0  0  0  0  0  0  0  0  0  0
    1.0031  -36.8906   -5.5543 H   0  0  0  0  0  0  0  0  0  0  0  0
   -0.7595  -36.5442   -5.5543 H   0  0  0  0  0  0  0  0  0  0  0  0
   -1.4838  -41.3195   -1.8729 H   0  0  0  0  0  0  0  0  0  0  0  0
   -2.3513  -40.9858  -10.8618 H   0  0  0  0  0  0  0  0  0  0  0  0
   -2.0452  -39.5102  -11.9992 H   0  0  0  0  0  0  0  0  0  0  0  0
   -0.5982  -41.6565  -11.0995 H   0  0  0  0  0  0  0  0  0  0  0  0
   -0.7178  -42.5106  -12.4018 H   0  0  0  0  0  0  0  0  0  0  0  0
   -0.5790  -40.3981   -7.9712 H   0  0  0  0  0  0  0  0  0  0  0  0
    1.6401  -39.9754   -7.6827 H   0  0  0  0  0  0  0  0  0  0  0  0
   -0.0522  -37.7462   -0.9025 H   0  0  0  0  0  0  0  0  0  0  0  0
    2.2763  -38.2536   -0.5405 H   0  0  0  0  0  0  0  0  0  0  0  0
    1.8898  -37.4911   -6.6106 H   0  0  0  0  0  0  0  0  0  0  0  0
    0.1168  -36.9264   -8.8914 H   0  0  0  0  0  0  0  0  0  0  0  0
    0.9542  -37.3636  -10.4193 H   0  0  0  0  0  0  0  0  0  0  0  0
   -0.8174  -37.0666  -10.4193 H   0  0  0  0  0  0  0  0  0  0  0  0
  1  2  1  0
  2  3  1  0
  4  5  1  0
  5  6  1  0
  6  7  1  0
  7  8  1  0
  8  9  1  0
  9 10  1  0
 11 12  1  0
 10 13  1  0
 12 13  1  0
 15 16  1  0
  3 18  1  0
  4 19  1  0
 18 19  1  0
 10 20  1  0
 11 21  1  0
 20 21  1  0
 21 22  1  0
  7 23  1  0
 13 23  1  0
 14 24  1  0
 23 24  1  0
  6 25  1  0
 14 25  1  0
 25 17  1  1
  4 26  1  0
 26 15  1  1
 25 26  1  0
 18 27  1  0
 26 27  1  0
 15 28  1  0
 16 29  1  0
 24 30  1  0
 13 31  1  1
  1 32  1  0
  1 33  1  0
  1 34  1  0
  2 35  1  0
  2 36  1  0
  3 37  1  0
  3 38  1  0
  4 39  1  1
  5 40  1  0
  5 41  1  0
  6 42  1  6
  7 43  1  1
  8 44  1  0
  8 45  1  0
  9 46  1  0
  9 47  1  0
 10 48  1  0
 11 49  1  0
 11 50  1  0
 12 51  1  0
 12 52  1  0
 14 53  1  0
 14 54  1  0
 15 55  1  0
 16 56  1  0
 16 57  1  0
 17 58  1  0
 17 59  1  0
 17 60  1  0
 18 61  1  1
 20 62  1  0
 20 63  1  0
 21 64  1  0
 22 65  1  0
 23 66  1  6
 24 67  1  6
 28 68  1  0
 29 69  1  0
 30 70  1  0
 31 71  1  0
 31 72  1  0
 31 73  1  0
M  END
>  <PDBID>  (1) 
5NFP

>  <PDB ID>  (1) 
5NFP

>  <Generic Name>  (1) 
Budesonide

>  <Brand Name>  (1) 
Budesonide#Budesonide (enteric Coated)#Budesonide Inhalation#Budesonide Nasal#Childrens Rhinocort Allergy#Cortiment#Entocort#Entocort EC#Entocort Enema#Mylan-budesonide AQ#Pulmicort Flexhaler#Pulmicort Nebuamp 0.125 mg/ml#Pulmicort Nebuamp 0.25 mg/ml#Pulmicort Nebuamp 0.5 mg/ml#Pulmicort Respules#Pulmicort Turbuhaler 100 Mcg/dose#Pulmicort Turbuhaler 200 Mcg/dose#Pulmicort Turbuhaler 400 Mcg/dose#Rhinocort Allergy#Rhinocort Aqua#Rhinocort Aqua 100mcg#Rhinocort Turbuhaler 100 Mcg/dose#Symbicort#Symbicort 100 Turbuhaler#Symbicort 200 Turbuhaler#Symbicort Forte Turbuhaler#Uceris#Bidien#Budeson#Budicort#ENTOCORT#Noex#Pulmicort#Rhinocort#Rhinosol#Spirocort

>  <DrugBank ID>  (1) 
DB01222

>  <ATC Codes>  (1) 
R03AK07#A07EA06#R03BA02#D07AC09#R03AK12#R01AD05

>  <Ligand ID>  (1) 
8W5

>  <Target Name>  (1) 
Glucocorticoid receptor

>  <UniProt ID>  (1) 
P04150

>  <PDB ID.1>  (1) 
5NFP

>  <Seq. Identity>  (1) 
98%

$$$$
