PDB_DB00317_97
     RDKit          3D

 71 74  0  0  0  0  0  0  0  0999 V2000
    3.4040   46.1170   14.5070 C   0  0  0  0  0  0  0  0  0  0  0  0
    4.3860   44.9380   14.3750 C   0  0  0  0  0  0  0  0  0  0  0  0
    3.6900   43.6880   14.5540 O   0  0  0  0  0  0  0  0  0  0  0  0
    3.0800   43.4440   15.8490 C   0  0  0  0  0  0  0  0  0  0  0  0
    2.7940   44.7300   16.6440 C   0  0  0  0  0  0  0  0  0  0  0  0
    2.5950   45.8870   15.7230 N   0  0  0  0  0  0  0  0  0  0  0  0
    1.5560   46.8550   16.0410 C   0  0  0  0  0  0  0  0  0  0  0  0
    1.9860   47.4510   17.3890 C   0  0  0  0  0  0  0  0  0  0  0  0
    0.7930   47.7880   18.2910 C   0  0  0  0  0  0  0  0  0  0  0  0
   -0.0010   48.8270   17.6860 O   0  0  0  0  0  0  0  0  0  0  0  0
   -0.5460   49.8840   18.3700 C   0  0  0  0  0  0  0  0  0  0  0  0
   -1.1750   50.8290   17.5810 C   0  0  0  0  0  0  0  0  0  0  0  0
   -1.7490   51.9430   18.1780 C   0  0  0  0  0  0  0  0  0  0  0  0
   -1.2170   50.6790   16.2200 O   0  0  0  0  0  0  0  0  0  0  0  0
   -2.3380   51.2600   15.5080 C   0  0  0  0  0  0  0  0  0  0  0  0
   -0.5160   50.0310   19.7780 C   0  0  0  0  0  0  0  0  0  0  0  0
   -1.1300   51.1410   20.3560 C   0  0  0  0  0  0  0  0  0  0  0  0
   -1.7470   52.0880   19.5480 C   0  0  0  0  0  0  0  0  0  0  0  0
   -2.3440   53.1660   20.0860 N   0  0  0  0  0  0  0  0  0  0  0  0
   -2.3130   53.3880   21.3930 C   0  0  0  0  0  0  0  0  0  0  0  0
   -1.7230   52.5050   22.1960 N   0  0  0  0  0  0  0  0  0  0  0  0
   -1.1370   51.3830   21.7250 C   0  0  0  0  0  0  0  0  0  0  0  0
   -0.5500   50.5160   22.5680 N   0  0  0  0  0  0  0  0  0  0  0  0
   -0.7890   50.3540   23.9050 C   0  0  1  0  0  0  0  0  0  0  0  0
   -2.0680   50.5030   24.4450 C   0  0  0  0  0  0  0  0  0  0  0  0
   -2.2860   50.3360   25.8070 C   0  0  0  0  0  0  0  0  0  0  0  0
   -3.8770   50.5280   26.6050 Cl  0  0  0  0  0  0  0  0  0  0  0  0
   -1.2480   49.9960   26.6110 C   0  0  0  0  0  0  0  0  0  0  0  0
   -1.5490   49.8410   27.9240 F   0  0  0  0  0  0  0  0  0  0  0  0
    0.0430   49.8020   26.0870 C   0  0  0  0  0  0  0  0  0  0  0  0
    0.2670   49.9660   24.7340 C   0  0  0  0  0  0  0  0  0  0  0  0
    3.9608   47.0611   14.5993 H   0  0  0  0  0  0  0  0  0  0  0  0
    2.7583   46.1850   13.6190 H   0  0  0  0  0  0  0  0  0  0  0  0
    4.8457   44.9581   13.3759 H   0  0  0  0  0  0  0  0  0  0  0  0
    5.1633   45.0300   15.1479 H   0  0  0  0  0  0  0  0  0  0  0  0
    2.1295   42.9130   15.6918 H   0  0  0  0  0  0  0  0  0  0  0  0
    3.7959   42.8517   16.4378 H   0  0  0  0  0  0  0  0  0  0  0  0
    1.8846   44.5874   17.2461 H   0  0  0  0  0  0  0  0  0  0  0  0
    3.6545   44.9412   17.2958 H   0  0  0  0  0  0  0  0  0  0  0  0
    1.5036   47.6369   15.2691 H   0  0  0  0  0  0  0  0  0  0  0  0
    0.5569   46.3970   16.0856 H   0  0  0  0  0  0  0  0  0  0  0  0
    2.6259   46.7225   17.9084 H   0  0  0  0  0  0  0  0  0  0  0  0
    2.5237   48.3883   17.1830 H   0  0  0  0  0  0  0  0  0  0  0  0
    0.1741   46.8891   18.4282 H   0  0  0  0  0  0  0  0  0  0  0  0
    1.1634   48.1367   19.2663 H   0  0  0  0  0  0  0  0  0  0  0  0
    0.4015   50.4346   18.2741 H   0  0  0  0  0  0  0  0  0  0  0  0
   -2.1247   50.2838   17.6852 H   0  0  0  0  0  0  0  0  0  0  0  0
   -1.2288   52.8215   17.7687 H   0  0  0  0  0  0  0  0  0  0  0  0
   -2.8175   51.8210   17.9467 H   0  0  0  0  0  0  0  0  0  0  0  0
   -3.0738   51.6414   16.2313 H   0  0  0  0  0  0  0  0  0  0  0  0
   -1.9821   52.0872   14.8762 H   0  0  0  0  0  0  0  0  0  0  0  0
   -2.8087   50.4924   14.8762 H   0  0  0  0  0  0  0  0  0  0  0  0
   -0.9962   49.1384   20.2053 H   0  0  0  0  0  0  0  0  0  0  0  0
    0.5510   50.1724   20.0052 H   0  0  0  0  0  0  0  0  0  0  0  0
   -0.1846   51.6992   20.2883 H   0  0  0  0  0  0  0  0  0  0  0  0
   -2.6903   51.5254   19.6089 H   0  0  0  0  0  0  0  0  0  0  0  0
   -1.9160   53.9898   19.6398 H   0  0  0  0  0  0  0  0  0  0  0  0
   -1.7985   54.3488   21.5418 H   0  0  0  0  0  0  0  0  0  0  0  0
   -3.3715   53.3369   21.6879 H   0  0  0  0  0  0  0  0  0  0  0  0
   -0.9895   53.0217   22.7018 H   0  0  0  0  0  0  0  0  0  0  0  0
   -0.1812   51.9200   21.6350 H   0  0  0  0  0  0  0  0  0  0  0  0
   -0.7287   49.5890   22.1561 H   0  0  0  0  0  0  0  0  0  0  0  0
   -0.5949   51.4242   24.0694 H   0  0  0  0  0  0  0  0  0  0  0  0
   -2.3972   51.5228   24.1967 H   0  0  0  0  0  0  0  0  0  0  0  0
   -2.6209   49.6611   24.0028 H   0  0  0  0  0  0  0  0  0  0  0  0
   -2.0747   51.4029   25.9716 H   0  0  0  0  0  0  0  0  0  0  0  0
   -1.0345   51.0609   26.7857 H   0  0  0  0  0  0  0  0  0  0  0  0
    0.7072   50.5076   26.6075 H   0  0  0  0  0  0  0  0  0  0  0  0
    0.2243   48.7289   26.2470 H   0  0  0  0  0  0  0  0  0  0  0  0
    0.6372   49.0033   24.3517 H   0  0  0  0  0  0  0  0  0  0  0  0
    0.9596   50.8194   24.6877 H   0  0  0  0  0  0  0  0  0  0  0  0
  1  2  1  0
  2  3  1  0
  3  4  1  0
  4  5  1  0
  1  6  1  0
  5  6  1  0
  6  7  1  0
  7  8  1  0
  8  9  1  0
  9 10  1  0
 10 11  1  0
 11 12  1  0
 12 13  1  0
 12 14  1  0
 14 15  1  0
 11 16  1  0
 16 17  1  0
 13 18  1  0
 17 18  1  0
 18 19  1  0
 19 20  1  0
 20 21  1  0
 17 22  1  0
 21 22  1  0
 22 23  1  0
 23 24  1  0
 24 25  1  0
 25 26  1  0
 26 27  1  0
 26 28  1  0
 28 29  1  0
 28 30  1  0
 24 31  1  0
 30 31  1  0
  1 32  1  0
  1 33  1  0
  2 34  1  0
  2 35  1  0
  4 36  1  0
  4 37  1  0
  5 38  1  0
  5 39  1  0
  7 40  1  0
  7 41  1  0
  8 42  1  0
  8 43  1  0
  9 44  1  0
  9 45  1  0
 11 46  1  0
 12 47  1  0
 13 48  1  0
 13 49  1  0
 15 50  1  0
 15 51  1  0
 15 52  1  0
 16 53  1  0
 16 54  1  0
 17 55  1  0
 18 56  1  0
 19 57  1  0
 20 58  1  0
 20 59  1  0
 21 60  1  0
 22 61  1  0
 23 62  1  0
 24 63  1  1
 25 64  1  0
 25 65  1  0
 26 66  1  0
 28 67  1  0
 30 68  1  0
 30 69  1  0
 31 70  1  0
 31 71  1  0
M  END
>  <PDBID>  (1) 
3UG2

>  <PDB ID>  (1) 
3UG2

>  <Generic Name>  (1) 
Gefitinib

>  <Brand Name>  (1) 
Iressa

>  <DrugBank ID>  (1) 
DB00317

>  <ATC Codes>  (1) 
L01XE02

>  <Ligand ID>  (1) 
IRE

>  <Target Name>  (1) 
Epidermal growth factor receptor

>  <UniProt ID>  (1) 
P00533

>  <PDB ID.1>  (1) 
3UG2

>  <Seq. Identity>  (1) 
95%

$$$$
