PDB_DB06290_98
     RDKit          3D

 99105  0  0  0  0  0  0  0  0999 V2000
  -15.9260  -57.7290  -23.7040 C   0  0  0  0  0  0  0  0  0  0  0  0
  -17.4520  -57.8350  -23.5240 C   0  0  2  0  0  0  0  0  0  0  0  0
  -17.9460  -56.4270  -23.9280 C   0  0  1  0  0  0  0  0  0  0  0  0
  -17.1400  -56.1190  -25.1840 C   0  0  0  0  0  0  0  0  0  0  0  0
  -15.7440  -56.6090  -24.7450 C   0  0  1  0  0  0  0  0  0  0  0  0
  -19.4740  -56.2930  -23.9150 C   0  0  0  0  0  0  0  0  0  0  0  0
  -20.2440  -57.1450  -24.3420 O   0  0  0  0  0  0  0  0  0  0  0  0
  -19.8910  -55.1710  -23.3480 N   0  0  0  0  0  0  0  0  0  0  0  0
  -17.9850  -58.2900  -22.1440 C   0  0  0  0  0  0  0  0  0  0  0  0
  -18.2080  -57.4650  -21.2850 O   0  0  0  0  0  0  0  0  0  0  0  0
  -21.3730  -55.4290  -21.6470 C   0  0  1  0  0  0  0  0  0  0  0  0
  -22.4500  -54.9520  -24.0560 C   0  0  0  0  0  0  0  0  0  0  0  0
  -18.2220  -59.5960  -21.8950 N   0  0  0  0  0  0  0  0  0  0  0  0
  -18.7870  -60.0760  -20.6330 C   0  0  0  0  0  0  0  0  0  0  0  0
  -18.0010  -60.6750  -22.8600 C   0  0  0  0  0  0  0  0  0  0  0  0
  -21.2770  -54.8310  -23.0630 C   0  0  2  0  0  0  0  0  0  0  0  0
  -21.6090  -53.9330  -21.8880 C   0  0  0  0  0  0  0  0  0  0  0  0
  -22.6060  -56.2390  -21.2240 C   0  0  0  0  0  0  0  0  0  0  0  0
  -20.1960  -60.5710  -21.0430 C   0  0  0  0  0  0  0  0  0  0  0  0
  -21.2810  -59.5260  -21.3990 C   0  0  0  0  0  0  0  0  0  0  0  0
  -21.3800  -58.3450  -20.4360 C   0  0  0  0  0  0  0  0  0  0  0  0
  -22.6040  -57.4840  -20.7020 C   0  0  0  0  0  0  0  0  0  0  0  0
  -15.0250  -55.5040  -24.1530 O   0  0  0  0  0  0  0  0  0  0  0  0
  -11.2220  -52.4220  -23.2480 C   0  0  0  0  0  0  0  0  0  0  0  0
  -12.1170  -53.1310  -22.4430 C   0  0  0  0  0  0  0  0  0  0  0  0
  -13.1080  -53.9320  -22.9860 C   0  0  0  0  0  0  0  0  0  0  0  0
  -13.1770  -53.9990  -24.3690 C   0  0  0  0  0  0  0  0  0  0  0  0
  -12.2870  -53.2910  -25.1700 C   0  0  0  0  0  0  0  0  0  0  0  0
  -11.3060  -52.4880  -24.6390 C   0  0  0  0  0  0  0  0  0  0  0  0
  -14.1620  -54.7790  -24.9490 C   0  0  0  0  0  0  0  0  0  0  0  0
  -14.2310  -54.8460  -26.3300 C   0  0  0  0  0  0  0  0  0  0  0  0
  -13.3010  -54.1120  -27.0480 C   0  0  0  0  0  0  0  0  0  0  0  0
  -12.3790  -53.3570  -26.4820 N   0  0  0  0  0  0  0  0  0  0  0  0
  -13.3350  -54.1440  -28.5220 C   0  0  0  0  0  0  0  0  0  0  0  0
  -12.1600  -53.0940  -29.2730 S   0  0  0  0  0  0  0  0  0  0  0  0
  -12.6840  -53.5320  -30.9280 C   0  0  0  0  0  0  0  0  0  0  0  0
  -13.7020  -54.4740  -30.7220 C   0  0  0  0  0  0  0  0  0  0  0  0
  -14.0370  -54.7910  -29.4400 N   0  0  0  0  0  0  0  0  0  0  0  0
  -14.3210  -55.0070  -31.9560 C   0  0  0  0  0  0  0  0  0  0  0  0
  -14.6400  -56.4600  -31.6780 C   0  0  0  0  0  0  0  0  0  0  0  0
  -13.4890  -54.8380  -33.2360 C   0  0  0  0  0  0  0  0  0  0  0  0
  -10.2270  -51.6540  -22.5820 O   0  0  0  0  0  0  0  0  0  0  0  0
   -9.7930  -52.1100  -21.3080 C   0  0  0  0  0  0  0  0  0  0  0  0
  -10.3650  -51.7470  -25.5940 C   0  0  0  0  0  0  0  0  0  0  0  0
  -22.1680  -54.8440  -25.3740 N   0  0  0  0  0  0  0  0  0  0  0  0
  -23.5990  -55.0330  -23.6420 O   0  0  0  0  0  0  0  0  0  0  0  0
  -23.3020  -54.8800  -26.4090 S   0  0  0  0  0  0  0  0  0  0  0  0
  -22.6620  -55.0940  -27.9470 C   0  0  0  0  0  0  0  0  0  0  0  0
  -24.0520  -56.0280  -26.0470 O   0  0  0  0  0  0  0  0  0  0  0  0
  -24.1100  -53.6890  -26.2940 O   0  0  0  0  0  0  0  0  0  0  0  0
  -22.2550  -53.7580  -28.5440 C   0  0  0  0  0  0  0  0  0  0  0  0
  -23.5000  -54.4800  -29.0600 C   0  0  0  0  0  0  0  0  0  0  0  0
  -15.4390  -57.4617  -22.7546 H   0  0  0  0  0  0  0  0  0  0  0  0
  -15.4731  -58.6789  -24.0243 H   0  0  0  0  0  0  0  0  0  0  0  0
  -17.8441  -58.6577  -24.1400 H   0  0  0  0  0  0  0  0  0  0  0  0
  -17.7540  -55.6189  -23.2069 H   0  0  0  0  0  0  0  0  0  0  0  0
  -17.5127  -56.6795  -26.0540 H   0  0  0  0  0  0  0  0  0  0  0  0
  -17.1776  -55.0686  -25.5083 H   0  0  0  0  0  0  0  0  0  0  0  0
  -15.1785  -56.9910  -25.6077 H   0  0  0  0  0  0  0  0  0  0  0  0
  -19.1731  -54.4802  -23.0865 H   0  0  0  0  0  0  0  0  0  0  0  0
  -20.7003  -56.0574  -21.0449 H   0  0  0  0  0  0  0  0  0  0  0  0
  -18.1850  -60.8981  -20.2185 H   0  0  0  0  0  0  0  0  0  0  0  0
  -18.8115  -59.3042  -19.8496 H   0  0  0  0  0  0  0  0  0  0  0  0
  -17.8085  -61.6147  -22.3216 H   0  0  0  0  0  0  0  0  0  0  0  0
  -18.8941  -60.7906  -23.4917 H   0  0  0  0  0  0  0  0  0  0  0  0
  -17.1344  -60.4302  -23.4917 H   0  0  0  0  0  0  0  0  0  0  0  0
  -22.6212  -53.5145  -21.7868 H   0  0  0  0  0  0  0  0  0  0  0  0
  -21.1819  -53.0062  -21.4774 H   0  0  0  0  0  0  0  0  0  0  0  0
  -23.5863  -55.7586  -21.3592 H   0  0  0  0  0  0  0  0  0  0  0  0
  -20.0677  -61.2165  -21.9244 H   0  0  0  0  0  0  0  0  0  0  0  0
  -20.5821  -61.0549  -20.1337 H   0  0  0  0  0  0  0  0  0  0  0  0
  -21.0588  -59.1313  -22.4014 H   0  0  0  0  0  0  0  0  0  0  0  0
  -22.2454  -60.0520  -21.3407 H   0  0  0  0  0  0  0  0  0  0  0  0
  -21.4360  -58.7311  -19.4075 H   0  0  0  0  0  0  0  0  0  0  0  0
  -20.4889  -57.7168  -20.5817 H   0  0  0  0  0  0  0  0  0  0  0  0
  -23.5819  -57.9168  -20.4445 H   0  0  0  0  0  0  0  0  0  0  0  0
  -12.0325  -53.0510  -21.3492 H   0  0  0  0  0  0  0  0  0  0  0  0
  -13.8092  -54.4902  -22.3482 H   0  0  0  0  0  0  0  0  0  0  0  0
  -14.9929  -55.4569  -26.8364 H   0  0  0  0  0  0  0  0  0  0  0  0
  -12.2971  -53.1506  -31.8845 H   0  0  0  0  0  0  0  0  0  0  0  0
  -15.2227  -54.4173  -32.1777 H   0  0  0  0  0  0  0  0  0  0  0  0
  -14.6764  -56.6260  -30.5912 H   0  0  0  0  0  0  0  0  0  0  0  0
  -15.6150  -56.7125  -32.1204 H   0  0  0  0  0  0  0  0  0  0  0  0
  -13.8605  -57.0977  -32.1204 H   0  0  0  0  0  0  0  0  0  0  0  0
  -12.4434  -54.6256  -32.9683 H   0  0  0  0  0  0  0  0  0  0  0  0
  -13.5351  -55.7638  -33.8282 H   0  0  0  0  0  0  0  0  0  0  0  0
  -13.8927  -54.0035  -33.8282 H   0  0  0  0  0  0  0  0  0  0  0  0
  -10.3220  -51.5542  -20.5199 H   0  0  0  0  0  0  0  0  0  0  0  0
  -10.0111  -53.1836  -21.2090 H   0  0  0  0  0  0  0  0  0  0  0  0
   -8.7099  -51.9452  -21.2090 H   0  0  0  0  0  0  0  0  0  0  0  0
   -9.6318  -51.1696  -25.0117 H   0  0  0  0  0  0  0  0  0  0  0  0
   -9.8381  -52.4753  -26.2280 H   0  0  0  0  0  0  0  0  0  0  0  0
  -10.9494  -51.0640  -26.2280 H   0  0  0  0  0  0  0  0  0  0  0  0
  -21.1916  -54.7375  -25.6841 H   0  0  0  0  0  0  0  0  0  0  0  0
  -22.1978  -56.0806  -27.8012 H   0  0  0  0  0  0  0  0  0  0  0  0
  -22.3590  -52.8365  -27.9524 H   0  0  0  0  0  0  0  0  0  0  0  0
  -21.3400  -53.3583  -29.0054 H   0  0  0  0  0  0  0  0  0  0  0  0
  -23.4990  -54.9312  -30.0632 H   0  0  0  0  0  0  0  0  0  0  0  0
  -24.5606  -54.2150  -29.1816 H   0  0  0  0  0  0  0  0  0  0  0  0
  1  2  1  0
  2  3  1  0
  3  4  1  0
  1  5  1  0
  4  5  1  0
  3  6  1  0
  6  7  2  0
  6  8  1  0
  2  9  1  0
  9 10  2  0
  9 13  1  0
 13 14  1  0
 13 15  1  0
  8 16  1  0
 11 16  1  0
 16 12  1  6
 11 17  1  0
 16 17  1  0
 11 18  1  0
 14 19  1  0
 19 20  1  0
 20 21  1  0
 18 22  2  0
 21 22  1  0
  5 23  1  0
 24 25  2  0
 25 26  1  0
 26 27  2  0
 27 28  1  0
 24 29  1  0
 28 29  2  0
 23 30  1  0
 27 30  1  0
 30 31  2  0
 31 32  1  0
 28 33  1  0
 32 33  2  0
 32 34  1  0
 34 35  1  0
 35 36  1  0
 36 37  2  0
 34 38  2  0
 37 38  1  0
 37 39  1  0
 39 40  1  0
 39 41  1  0
 24 42  1  0
 42 43  1  0
 29 44  1  0
 12 45  1  0
 12 46  2  0
 45 47  1  0
 47 48  1  0
 47 49  2  0
 47 50  2  0
 48 51  1  0
 48 52  1  0
 51 52  1  0
  1 53  1  0
  1 54  1  0
  2 55  1  6
  3 56  1  1
  4 57  1  0
  4 58  1  0
  5 59  1  6
  8 60  1  0
 11 61  1  1
 14 62  1  0
 14 63  1  0
 15 64  1  0
 15 65  1  0
 15 66  1  0
 17 67  1  0
 17 68  1  0
 18 69  1  0
 19 70  1  0
 19 71  1  0
 20 72  1  0
 20 73  1  0
 21 74  1  0
 21 75  1  0
 22 76  1  0
 25 77  1  0
 26 78  1  0
 31 79  1  0
 36 80  1  0
 39 81  1  0
 40 82  1  0
 40 83  1  0
 40 84  1  0
 41 85  1  0
 41 86  1  0
 41 87  1  0
 43 88  1  0
 43 89  1  0
 43 90  1  0
 44 91  1  0
 44 92  1  0
 44 93  1  0
 45 94  1  0
 48 95  1  0
 51 96  1  0
 51 97  1  0
 52 98  1  0
 52 99  1  0
M  END
$$$$
