PDB_DB00642_91
     RDKit          3D

 52 54  0  0  0  0  0  0  0  0999 V2000
   41.0240  -21.0190  -42.0710 C   0  0  0  0  0  0  0  0  0  0  0  0
   42.2330  -20.4870  -42.5100 C   0  0  0  0  0  0  0  0  0  0  0  0
   42.6000  -19.1860  -42.1910 C   0  0  0  0  0  0  0  0  0  0  0  0
   41.7500  -18.4000  -41.4150 C   0  0  0  0  0  0  0  0  0  0  0  0
   40.5290  -18.9140  -40.9510 C   0  0  0  0  0  0  0  0  0  0  0  0
   40.1650  -20.2410  -41.2760 C   0  0  0  0  0  0  0  0  0  0  0  0
   40.6770  -22.4480  -42.4910 C   0  0  0  0  0  0  0  0  0  0  0  0
   41.2920  -23.5250  -41.6160 C   0  0  0  0  0  0  0  0  0  0  0  0
   42.7940  -23.6370  -41.7640 C   0  0  0  0  0  0  0  0  0  0  0  0
   43.5080  -24.0630  -42.8900 C   0  0  0  0  0  0  0  0  0  0  0  0
   44.8500  -24.0190  -42.5780 N   0  0  0  0  0  0  0  0  0  0  0  0
   44.9710  -23.5480  -41.3100 C   0  0  0  0  0  0  0  0  0  0  0  0
   43.7260  -23.3080  -40.7710 C   0  0  0  0  0  0  0  0  0  0  0  0
   43.6950  -22.8040  -39.3660 C   0  0  0  0  0  0  0  0  0  0  0  0
   42.6060  -22.5660  -38.7690 O   0  0  0  0  0  0  0  0  0  0  0  0
   44.8830  -22.5970  -38.7110 N   0  0  0  0  0  0  0  0  0  0  0  0
   46.0600  -22.8700  -39.3130 C   0  0  0  0  0  0  0  0  0  0  0  0
   46.1180  -23.3360  -40.5980 N   0  0  0  0  0  0  0  0  0  0  0  0
   47.1940  -22.6650  -38.6020 N   0  0  0  0  0  0  0  0  0  0  0  0
   42.1900  -16.9890  -41.1690 C   0  0  0  0  0  0  0  0  0  0  0  0
   43.3080  -16.6670  -41.5480 O   0  0  0  0  0  0  0  0  0  0  0  0
   41.3130  -16.1120  -40.7050 N   0  0  0  0  0  0  0  0  0  0  0  0
   41.6250  -14.7070  -40.4520 C   0  0  1  0  0  0  0  0  0  0  0  0
   41.3100  -13.8340  -41.6960 C   0  0  0  0  0  0  0  0  0  0  0  0
   39.9260  -14.1180  -42.2530 C   0  0  0  0  0  0  0  0  0  0  0  0
   39.5750  -13.2930  -43.4740 C   0  0  0  0  0  0  0  0  0  0  0  0
   39.1290  -13.8800  -44.4880 O   0  0  0  0  0  0  0  0  0  0  0  0
   39.7040  -12.0500  -43.4220 O   0  0  0  0  0  0  0  0  0  0  0  0
   40.8030  -14.2170  -39.2870 C   0  0  0  0  0  0  0  0  0  0  0  0
   39.7910  -14.8560  -38.8940 O   0  0  0  0  0  0  0  0  0  0  0  0
   41.1720  -13.1550  -38.7730 O   0  0  0  0  0  0  0  0  0  0  0  0
   42.9081  -21.1064  -43.1188 H   0  0  0  0  0  0  0  0  0  0  0  0
   43.5567  -18.7780  -42.5490 H   0  0  0  0  0  0  0  0  0  0  0  0
   39.8609  -18.2896  -40.3396 H   0  0  0  0  0  0  0  0  0  0  0  0
   39.2168  -20.6612  -40.9095 H   0  0  0  0  0  0  0  0  0  0  0  0
   39.5833  -22.5605  -42.4577 H   0  0  0  0  0  0  0  0  0  0  0  0
   41.0917  -22.5883  -43.5001 H   0  0  0  0  0  0  0  0  0  0  0  0
   41.0617  -23.2939  -40.5655 H   0  0  0  0  0  0  0  0  0  0  0  0
   40.8625  -24.4861  -41.9351 H   0  0  0  0  0  0  0  0  0  0  0  0
   43.0757  -24.3767  -43.8516 H   0  0  0  0  0  0  0  0  0  0  0  0
   45.6250  -24.2949  -43.1978 H   0  0  0  0  0  0  0  0  0  0  0  0
   47.0322  -23.5283  -41.0317 H   0  0  0  0  0  0  0  0  0  0  0  0
   48.1112  -22.8619  -39.0273 H   0  0  0  0  0  0  0  0  0  0  0  0
   47.1394  -22.3122  -37.6358 H   0  0  0  0  0  0  0  0  0  0  0  0
   40.3557  -16.4390  -40.5112 H   0  0  0  0  0  0  0  0  0  0  0  0
   42.6985  -14.6244  -40.2266 H   0  0  0  0  0  0  0  0  0  0  0  0
   41.3671  -12.7735  -41.4096 H   0  0  0  0  0  0  0  0  0  0  0  0
   42.0469  -14.0749  -42.4763 H   0  0  0  0  0  0  0  0  0  0  0  0
   39.8746  -15.1820  -42.5274 H   0  0  0  0  0  0  0  0  0  0  0  0
   39.2042  -13.8493  -41.4676 H   0  0  0  0  0  0  0  0  0  0  0  0
   38.8931  -13.3604  -45.2970 H   0  0  0  0  0  0  0  0  0  0  0  0
   39.2613  -14.5215  -38.1275 H   0  0  0  0  0  0  0  0  0  0  0  0
  1  2  2  0
  2  3  1  0
  3  4  2  0
  4  5  1  0
  1  6  1  0
  5  6  2  0
  1  7  1  0
  7  8  1  0
  8  9  1  0
  9 10  2  0
 10 11  1  0
 11 12  1  0
  9 13  1  0
 12 13  2  0
 13 14  1  0
 14 15  2  0
 14 16  1  0
 16 17  2  0
 12 18  1  0
 17 18  1  0
 17 19  1  0
  4 20  1  0
 20 21  2  0
 20 22  1  0
 22 23  1  0
 23 24  1  0
 24 25  1  0
 25 26  1  0
 26 27  1  0
 26 28  2  0
 23 29  1  0
 29 30  1  0
 29 31  2  0
  2 32  1  0
  3 33  1  0
  5 34  1  0
  6 35  1  0
  7 36  1  0
  7 37  1  0
  8 38  1  0
  8 39  1  0
 10 40  1  0
 11 41  1  0
 18 42  1  0
 19 43  1  0
 19 44  1  0
 22 45  1  0
 23 46  1  1
 24 47  1  0
 24 48  1  0
 25 49  1  0
 25 50  1  0
 27 51  1  0
 30 52  1  0
M  END
$$$$
