PDB_DB01167_97
     RDKit          3D

113119  0  0  0  0  0  0  0  0999 V2000
    9.4800   13.7050   20.3640 C   0  0  0  0  0  0  0  0  0  0  0  0
    8.6150   12.6870   20.7210 C   0  0  0  0  0  0  0  0  0  0  0  0
    3.4570   13.7380   18.4350 C   0  0  0  0  0  0  0  0  0  0  0  0
    2.9980   14.2480   19.7920 C   0  0  0  0  0  0  0  0  0  0  0  0
    4.1720   14.8380   20.5870 C   0  0  1  0  0  0  0  0  0  0  0  0
    3.7610   15.2220   22.0000 C   0  0  0  0  0  0  0  0  0  0  0  0
    5.2730   13.8450   20.6560 N   0  0  0  0  0  0  0  0  0  0  0  0
    6.5860   14.1440   20.5120 C   0  0  0  0  0  0  0  0  0  0  0  0
    7.0940   15.2160   20.2370 O   0  0  0  0  0  0  0  0  0  0  0  0
    7.1910   12.9170   20.7490 N   0  0  0  0  0  0  0  0  0  0  0  0
    6.2320   11.9610   20.9950 C   0  0  0  0  0  0  0  0  0  0  0  0
    5.0160   12.5270   20.9390 N   0  0  0  0  0  0  0  0  0  0  0  0
   10.8420   13.4760   20.3180 C   0  0  0  0  0  0  0  0  0  0  0  0
   11.3600   12.2240   20.6140 C   0  0  1  0  0  0  0  0  0  0  0  0
   10.4870   11.2150   21.0130 C   0  0  0  0  0  0  0  0  0  0  0  0
    9.1240   11.4450   21.0610 C   0  0  0  0  0  0  0  0  0  0  0  0
   12.6970   11.9470   20.3790 N   0  0  0  0  0  0  0  0  0  0  0  0
   13.7160   12.9940   20.4580 C   0  0  0  0  0  0  0  0  0  0  0  0
   14.8220   12.6990   19.4630 C   0  0  0  0  0  0  0  0  0  0  0  0
   15.3620   11.3520   19.6670 N   0  0  0  0  0  0  0  0  0  0  0  0
   14.3440   10.2990   19.7100 C   0  0  0  0  0  0  0  0  0  0  0  0
   13.2610   10.6390   20.7100 C   0  0  0  0  0  0  0  0  0  0  0  0
   16.5430   11.0410   19.0240 C   0  0  0  0  0  0  0  0  0  0  0  0
   17.1560   11.9640   18.1870 C   0  0  0  0  0  0  0  0  0  0  0  0
   18.3560   11.6680   17.5700 C   0  0  0  0  0  0  0  0  0  0  0  0
   18.9630   10.4440   17.7950 C   0  0  0  0  0  0  0  0  0  0  0  0
   18.3550    9.5080   18.6090 C   0  0  0  0  0  0  0  0  0  0  0  0
   17.1510    9.8070   19.2190 C   0  0  0  0  0  0  0  0  0  0  0  0
   20.1820   10.2540   17.2000 O   0  0  0  0  0  0  0  0  0  0  0  0
   20.8760    9.0230   17.4110 C   0  0  0  0  0  0  0  0  0  0  0  0
   21.8520    8.8560   16.2770 C   0  0  1  0  0  0  0  0  0  0  0  0
   21.3230    9.4350   15.0010 C   0  0  0  0  0  0  0  0  0  0  0  0
   21.7040   10.7810   15.0630 O   0  0  0  0  0  0  0  0  0  0  0  0
   22.9430   10.8440   15.7490 C   0  0  2  0  0  0  0  0  0  0  0  0
   23.0600    9.6250   16.4850 O   0  0  0  0  0  0  0  0  0  0  0  0
   22.8180   12.0280   16.7650 C   0  0  0  0  0  0  0  0  0  0  0  0
   24.1470   12.4320   17.1940 N   0  0  0  0  0  0  0  0  0  0  0  0
   25.0700   11.7320   17.8420 C   0  0  0  0  0  0  0  0  0  0  0  0
   26.1530   12.4460   18.0300 N   0  0  0  0  0  0  0  0  0  0  0  0
   25.8240   13.6240   17.4650 C   0  0  0  0  0  0  0  0  0  0  0  0
   24.6210   13.6760   16.9400 N   0  0  0  0  0  0  0  0  0  0  0  0
   24.0350   10.9780   14.6980 C   0  0  0  0  0  0  0  0  0  0  0  0
   24.0480   11.9950   13.7390 C   0  0  0  0  0  0  0  0  0  0  0  0
   25.0540   12.0930   12.7960 C   0  0  0  0  0  0  0  0  0  0  0  0
   26.0720   11.1700   12.8200 C   0  0  0  0  0  0  0  0  0  0  0  0
   26.1020   10.1570   13.7480 C   0  0  0  0  0  0  0  0  0  0  0  0
   25.0830   10.0680   14.6770 C   0  0  0  0  0  0  0  0  0  0  0  0
   27.3710   11.3150   11.6720 Cl  0  0  0  0  0  0  0  0  0  0  0  0
   22.8190   13.2150   13.6970 Cl  0  0  0  0  0  0  0  0  0  0  0  0
    9.1807   14.0368   19.3589 H   0  0  0  0  0  0  0  0  0  0  0  0
    9.3746   14.4243   21.1895 H   0  0  0  0  0  0  0  0  0  0  0  0
    8.6857   12.9963   21.7742 H   0  0  0  0  0  0  0  0  0  0  0  0
    4.1868   12.9271   18.5757 H   0  0  0  0  0  0  0  0  0  0  0  0
    2.5905   13.3582   17.8738 H   0  0  0  0  0  0  0  0  0  0  0  0
    3.9257   14.5598   17.8738 H   0  0  0  0  0  0  0  0  0  0  0  0
    2.2365   15.0278   19.6439 H   0  0  0  0  0  0  0  0  0  0  0  0
    2.5810   13.4032   20.3599 H   0  0  0  0  0  0  0  0  0  0  0  0
    4.5049   15.7481   20.0665 H   0  0  0  0  0  0  0  0  0  0  0  0
    4.3660   14.6568   22.7242 H   0  0  0  0  0  0  0  0  0  0  0  0
    3.9230   16.2998   22.1489 H   0  0  0  0  0  0  0  0  0  0  0  0
    2.6967   14.9872   22.1489 H   0  0  0  0  0  0  0  0  0  0  0  0
    6.5245   13.8985   19.4415 H   0  0  0  0  0  0  0  0  0  0  0  0
    7.3219   15.6970   21.0717 H   0  0  0  0  0  0  0  0  0  0  0  0
    6.3026   11.1664   20.2376 H   0  0  0  0  0  0  0  0  0  0  0  0
    6.3911   11.5282   21.9937 H   0  0  0  0  0  0  0  0  0  0  0  0
    4.5281   12.4352   21.8414 H   0  0  0  0  0  0  0  0  0  0  0  0
   11.1666   13.7164   19.2948 H   0  0  0  0  0  0  0  0  0  0  0  0
   11.2233   14.0996   21.1400 H   0  0  0  0  0  0  0  0  0  0  0  0
   11.4905   12.5261   21.6636 H   0  0  0  0  0  0  0  0  0  0  0  0
   10.6405   10.3735   20.3213 H   0  0  0  0  0  0  0  0  0  0  0  0
   10.7500   11.0639   22.0704 H   0  0  0  0  0  0  0  0  0  0  0  0
    8.8052   11.2443   22.0945 H   0  0  0  0  0  0  0  0  0  0  0  0
    8.7309   10.7881   20.2711 H   0  0  0  0  0  0  0  0  0  0  0  0
   13.2608   13.9673   20.2224 H   0  0  0  0  0  0  0  0  0  0  0  0
   14.1351   13.0218   21.4746 H   0  0  0  0  0  0  0  0  0  0  0  0
   14.4183   12.7746   18.4426 H   0  0  0  0  0  0  0  0  0  0  0  0
   15.6318   13.4288   19.6103 H   0  0  0  0  0  0  0  0  0  0  0  0
   13.8930   10.1925   18.7124 H   0  0  0  0  0  0  0  0  0  0  0  0
   14.8235    9.3575   20.0161 H   0  0  0  0  0  0  0  0  0  0  0  0
   13.6906   10.6686   21.7222 H   0  0  0  0  0  0  0  0  0  0  0  0
   12.4705    9.8749   20.6740 H   0  0  0  0  0  0  0  0  0  0  0  0
   15.9738   10.6448   18.1702 H   0  0  0  0  0  0  0  0  0  0  0  0
   16.4369   12.1871   17.3850 H   0  0  0  0  0  0  0  0  0  0  0  0
   17.4284   12.7771   18.8760 H   0  0  0  0  0  0  0  0  0  0  0  0
   18.1838   11.7434   16.4862 H   0  0  0  0  0  0  0  0  0  0  0  0
   19.0573   12.3864   18.0195 H   0  0  0  0  0  0  0  0  0  0  0  0
   19.4854   10.8634   18.6675 H   0  0  0  0  0  0  0  0  0  0  0  0
   18.1864    8.6120   17.9935 H   0  0  0  0  0  0  0  0  0  0  0  0
   19.0526    9.4132   19.4542 H   0  0  0  0  0  0  0  0  0  0  0  0
   17.3139    9.7049   20.3021 H   0  0  0  0  0  0  0  0  0  0  0  0
   16.4514    9.1103   18.7341 H   0  0  0  0  0  0  0  0  0  0  0  0
   21.4151    9.0548   18.3693 H   0  0  0  0  0  0  0  0  0  0  0  0
   20.1702    8.1799   17.4431 H   0  0  0  0  0  0  0  0  0  0  0  0
   22.0277    7.7712   16.2295 H   0  0  0  0  0  0  0  0  0  0  0  0
   21.7744    8.9395   14.1288 H   0  0  0  0  0  0  0  0  0  0  0  0
   20.2361    9.3046   14.8926 H   0  0  0  0  0  0  0  0  0  0  0  0
   22.3139   12.8771   16.2803 H   0  0  0  0  0  0  0  0  0  0  0  0
   22.2300   11.7061   17.6372 H   0  0  0  0  0  0  0  0  0  0  0  0
   24.6682   11.4234   18.8184 H   0  0  0  0  0  0  0  0  0  0  0  0
   25.3309   10.8507   17.2376 H   0  0  0  0  0  0  0  0  0  0  0  0
   26.3562   12.5578   19.0336 H   0  0  0  0  0  0  0  0  0  0  0  0
   25.8916   14.4031   18.2386 H   0  0  0  0  0  0  0  0  0  0  0  0
   26.5272   13.7698   16.6318 H   0  0  0  0  0  0  0  0  0  0  0  0
   24.6625   13.8609   15.9276 H   0  0  0  0  0  0  0  0  0  0  0  0
   23.4551   10.3406   14.0142 H   0  0  0  0  0  0  0  0  0  0  0  0
   24.6271   12.6327   14.4231 H   0  0  0  0  0  0  0  0  0  0  0  0
   24.5783   12.0250   11.8065 H   0  0  0  0  0  0  0  0  0  0  0  0
   25.5508   13.0455   13.0327 H   0  0  0  0  0  0  0  0  0  0  0  0
   26.6407   11.8151   13.5058 H   0  0  0  0  0  0  0  0  0  0  0  0
   26.1129    9.2091   13.1900 H   0  0  0  0  0  0  0  0  0  0  0  0
   26.9921   10.3814   14.3541 H   0  0  0  0  0  0  0  0  0  0  0  0
   25.5605   10.1228   15.6665 H   0  0  0  0  0  0  0  0  0  0  0  0
   24.5785    9.1356   14.3835 H   0  0  0  0  0  0  0  0  0  0  0  0
  1  2  1  0
  3  4  1  0
  4  5  1  0
  5  6  1  0
  5  7  1  0
  7  8  1  0
  8  9  1  0
  2 10  1  0
  8 10  1  0
 10 11  1  0
  7 12  1  0
 11 12  1  0
  1 13  1  0
 13 14  1  0
 14 15  1  0
  2 16  1  0
 15 16  1  0
 14 17  1  0
 17 18  1  0
 18 19  1  0
 19 20  1  0
 20 21  1  0
 17 22  1  0
 21 22  1  0
 20 23  1  0
 23 24  1  0
 24 25  1  0
 25 26  1  0
 26 27  1  0
 23 28  1  0
 27 28  1  0
 26 29  1  0
 29 30  1  0
 30 31  1  0
 31 32  1  0
 32 33  1  0
 33 34  1  0
 31 35  1  0
 34 35  1  0
 34 36  1  1
 36 37  1  0
 37 38  1  0
 38 39  1  0
 40 39  1  0
 37 41  1  0
 40 41  1  0
 34 42  1  0
 42 43  1  0
 43 44  1  0
 44 45  1  0
 45 46  1  0
 42 47  1  0
 46 47  1  0
 45 48  1  0
 43 49  1  0
  1 50  1  0
  1 51  1  0
  2 52  1  0
  3 53  1  0
  3 54  1  0
  3 55  1  0
  4 56  1  0
  4 57  1  0
  5 58  1  6
  6 59  1  0
  6 60  1  0
  6 61  1  0
  8 62  1  0
  9 63  1  0
 11 64  1  0
 11 65  1  0
 12 66  1  0
 13 67  1  0
 13 68  1  0
 14 69  1  1
 15 70  1  0
 15 71  1  0
 16 72  1  0
 16 73  1  0
 18 74  1  0
 18 75  1  0
 19 76  1  0
 19 77  1  0
 21 78  1  0
 21 79  1  0
 22 80  1  0
 22 81  1  0
 23 82  1  0
 24 83  1  0
 24 84  1  0
 25 85  1  0
 25 86  1  0
 26 87  1  0
 27 88  1  0
 27 89  1  0
 28 90  1  0
 28 91  1  0
 30 92  1  0
 30 93  1  0
 31 94  1  6
 32 95  1  0
 32 96  1  0
 36 97  1  0
 36 98  1  0
 38 99  1  0
 38100  1  0
 39101  1  0
 40102  1  0
 40103  1  0
 41104  1  0
 42105  1  0
 43106  1  0
 44107  1  0
 44108  1  0
 45109  1  0
 46110  1  0
 46111  1  0
 47112  1  0
 47113  1  0
M  END
>  <PDBID>  (1) 
4ZDY

>  <PDB ID>  (1) 
4ZDY

>  <Generic Name>  (1) 
Itraconazole

>  <Brand Name>  (1) 
Itraconazole#Onmel#Sporanox#Sporanox Oral Solution 10mg/ml#Itrizole#Oriconazole#Sporal

>  <DrugBank ID>  (1) 
DB01167

>  <ATC Codes>  (1) 
J02AC02

>  <Ligand ID>  (1) 
1YN

>  <Target Name>  (1) 
Lanosterol 14-alpha demethylase

>  <UniProt ID>  (1) 
P50859

>  <PDB ID.1>  (1) 
4ZDY

>  <Seq. Identity>  (1) 
82%

$$$$
