PDB_DB00412_98
     RDKit          3D

 60 62  0  0  0  0  0  0  0  0999 V2000
   33.2740   -2.1370   27.6560 S   0  0  0  0  0  0  0  0  0  0  0  0
   34.7450   -3.9680   28.8790 O   0  0  0  0  0  0  0  0  0  0  0  0
   32.6000   -4.8780   25.0490 O   0  0  0  0  0  0  0  0  0  0  0  0
   30.5660    3.5910   25.8980 O   0  0  0  0  0  0  0  0  0  0  0  0
   33.7730   -4.6340   26.9640 N   0  0  0  0  0  0  0  0  0  0  0  0
   28.8930    5.0360   28.2980 N   0  0  0  0  0  0  0  0  0  0  0  0
   26.7060    3.6320   28.3980 N   0  0  0  0  0  0  0  0  0  0  0  0
   34.0440   -3.7150   27.8970 C   0  0  0  0  0  0  0  0  0  0  0  0
   32.9600   -4.1540   25.9690 C   0  0  0  0  0  0  0  0  0  0  0  0
   32.4730   -2.6660   26.1070 C   0  0  2  0  0  0  0  0  0  0  0  0
   32.9140   -1.6840   24.8510 C   0  0  0  0  0  0  0  0  0  0  0  0
   32.2820   -0.2640   25.0220 C   0  0  1  0  0  0  0  0  0  0  0  0
   30.9410    0.0080   24.5450 C   0  0  0  0  0  0  0  0  0  0  0  0
   30.3320    1.2760   24.7730 C   0  0  0  0  0  0  0  0  0  0  0  0
   31.0630    2.3130   25.5140 C   0  0  0  0  0  0  0  0  0  0  0  0
   32.4000    2.0510   25.9500 C   0  0  0  0  0  0  0  0  0  0  0  0
   33.0030    0.7900   25.7130 C   0  0  0  0  0  0  0  0  0  0  0  0
   29.1160    3.7690   26.0650 C   0  0  0  0  0  0  0  0  0  0  0  0
   28.8850    5.1300   26.7750 C   0  0  0  0  0  0  0  0  0  0  0  0
   30.0090    5.7310   29.0460 C   0  0  0  0  0  0  0  0  0  0  0  0
   27.7710    4.2640   29.0830 C   0  0  0  0  0  0  0  0  0  0  0  0
   25.7270    2.9500   29.0790 C   0  0  0  0  0  0  0  0  0  0  0  0
   25.7180    2.8630   30.4960 C   0  0  0  0  0  0  0  0  0  0  0  0
   26.7610    3.4660   31.2350 C   0  0  0  0  0  0  0  0  0  0  0  0
   27.7850    4.1660   30.5550 C   0  0  0  0  0  0  0  0  0  0  0  0
   34.2333   -3.7833   29.7061 H   0  0  0  0  0  0  0  0  0  0  0  0
   32.1909   -5.7008   25.4173 H   0  0  0  0  0  0  0  0  0  0  0  0
   34.6592   -4.9475   26.5430 H   0  0  0  0  0  0  0  0  0  0  0  0
   26.2279    4.3681   27.8590 H   0  0  0  0  0  0  0  0  0  0  0  0
   34.9332   -3.3643   27.3526 H   0  0  0  0  0  0  0  0  0  0  0  0
   32.0741   -4.4511   26.5495 H   0  0  0  0  0  0  0  0  0  0  0  0
   31.3751   -2.5981   26.1038 H   0  0  0  0  0  0  0  0  0  0  0  0
   34.0100   -1.5928   24.8296 H   0  0  0  0  0  0  0  0  0  0  0  0
   32.5531   -2.1244   23.9098 H   0  0  0  0  0  0  0  0  0  0  0  0
   32.6901    0.0353   24.0453 H   0  0  0  0  0  0  0  0  0  0  0  0
   30.9587   -0.1409   23.4553 H   0  0  0  0  0  0  0  0  0  0  0  0
   30.3228   -0.6734   25.1480 H   0  0  0  0  0  0  0  0  0  0  0  0
   30.0943    1.6977   23.7852 H   0  0  0  0  0  0  0  0  0  0  0  0
   29.4857    1.0380   25.4341 H   0  0  0  0  0  0  0  0  0  0  0  0
   30.7038    1.8882   26.4629 H   0  0  0  0  0  0  0  0  0  0  0  0
   33.0415    2.8023   25.4662 H   0  0  0  0  0  0  0  0  0  0  0  0
   32.3112    2.0790   27.0461 H   0  0  0  0  0  0  0  0  0  0  0  0
   33.2807    0.3858   26.6976 H   0  0  0  0  0  0  0  0  0  0  0  0
   33.8095    1.0357   25.0065 H   0  0  0  0  0  0  0  0  0  0  0  0
   28.6233    3.7714   25.0815 H   0  0  0  0  0  0  0  0  0  0  0  0
   28.6937    2.9471   26.6618 H   0  0  0  0  0  0  0  0  0  0  0  0
   27.9097    5.5268   26.4566 H   0  0  0  0  0  0  0  0  0  0  0  0
   29.7191    5.7877   26.4889 H   0  0  0  0  0  0  0  0  0  0  0  0
   29.8442    5.6284   30.1287 H   0  0  0  0  0  0  0  0  0  0  0  0
   30.9720    5.2726   28.7766 H   0  0  0  0  0  0  0  0  0  0  0  0
   30.0224    6.7974   28.7766 H   0  0  0  0  0  0  0  0  0  0  0  0
   27.1799    5.1894   29.1482 H   0  0  0  0  0  0  0  0  0  0  0  0
   24.7720    3.4149   28.7929 H   0  0  0  0  0  0  0  0  0  0  0  0
   25.9236    1.9085   28.7848 H   0  0  0  0  0  0  0  0  0  0  0  0
   24.7774    3.3187   30.8390 H   0  0  0  0  0  0  0  0  0  0  0  0
   25.8500    1.7884   30.6907 H   0  0  0  0  0  0  0  0  0  0  0  0
   26.2907    4.1804   31.9268 H   0  0  0  0  0  0  0  0  0  0  0  0
   27.2877    2.6100   31.6820 H   0  0  0  0  0  0  0  0  0  0  0  0
   28.7342    3.6830   30.8303 H   0  0  0  0  0  0  0  0  0  0  0  0
   27.6296    5.2069   30.8751 H   0  0  0  0  0  0  0  0  0  0  0  0
  1  8  1  0
  2  8  1  0
  5  8  1  0
  3  9  1  0
  5  9  1  0
  1 10  1  0
  9 10  1  0
 10 11  1  0
 11 12  1  0
 12 13  1  0
 13 14  1  0
  4 15  1  0
 14 15  1  0
 15 16  1  0
 12 17  1  0
 16 17  1  0
  4 18  1  0
  6 19  1  0
 18 19  1  0
  6 20  1  0
  6 21  1  0
  7 21  1  0
  7 22  1  0
 22 23  1  0
 23 24  1  0
 21 25  1  0
 24 25  1  0
  2 26  1  0
  3 27  1  0
  5 28  1  0
  7 29  1  0
  8 30  1  0
  9 31  1  0
 10 32  1  1
 11 33  1  0
 11 34  1  0
 12 35  1  6
 13 36  1  0
 13 37  1  0
 14 38  1  0
 14 39  1  0
 15 40  1  0
 16 41  1  0
 16 42  1  0
 17 43  1  0
 17 44  1  0
 18 45  1  0
 18 46  1  0
 19 47  1  0
 19 48  1  0
 20 49  1  0
 20 50  1  0
 20 51  1  0
 21 52  1  0
 22 53  1  0
 22 54  1  0
 23 55  1  0
 23 56  1  0
 24 57  1  0
 24 58  1  0
 25 59  1  0
 25 60  1  0
M  END
>  <PDBID>  (1) 
1ZGY

>  <PDB ID>  (1) 
1ZGY

>  <Generic Name>  (1) 
Rosiglitazone

>  <Brand Name>  (1) 
Apo-rosiglitazone#Avandamet#Avandaryl#Avandia#Avandia 2mg#Avandia 4mg#Avandia 8mg#Dom-rosiglitazone#Mylan-rosiglitazone#PHL-rosiglitazone#PMS-rosiglitazone#PMS-rosiglitazone-metformin#Teva-rosiglitazone#Blutab#DH-Rosidia#Diaben#Diaglinex#Gaudil#Gliximina#Naidi#Rogelin#Roglit#Romerol#Rosit#Rosix#Rossini#Sensulin#Sheng Ao#Sheng Min

>  <DrugBank ID>  (1) 
DB00412

>  <ATC Codes>  (1) 
A10BD03#A10BG02#A10BD04

>  <Ligand ID>  (1) 
BRL,RGZ

>  <Target Name>  (1) 
Peroxisome proliferator-activated receptor gamma

>  <UniProt ID>  (1) 
P37231

>  <PDB ID.1>  (1) 
1ZGY

>  <Seq. Identity>  (1) 
95%

$$$$
