PDB_DB00273_97
     RDKit          3D

 43 45  0  0  0  0  0  0  0  0999 V2000
   31.7630   36.7060   52.8150 C   0  0  0  0  0  0  0  0  0  0  0  0
   30.6650   36.5690   53.8410 C   0  0  0  0  0  0  0  0  0  0  0  0
   31.0530   37.1170   55.2040 C   0  0  0  0  0  0  0  0  0  0  0  0
   30.3290   35.1550   53.9240 O   0  0  0  0  0  0  0  0  0  0  0  0
   29.4530   37.1340   53.3090 O   0  0  0  0  0  0  0  0  0  0  0  0
   28.3520   36.3430   53.7590 C   0  0  1  0  0  0  0  0  0  0  0  0
   27.1490   36.4870   52.8240 C   0  0  2  0  0  0  0  0  0  0  0  0
   26.0510   36.0760   53.6280 O   0  0  0  0  0  0  0  0  0  0  0  0
   25.0630   35.3840   52.8520 C   0  0  0  0  0  0  0  0  0  0  0  0
   23.8940   36.3010   52.4880 C   0  0  0  0  0  0  0  0  0  0  0  0
   24.6390   34.1860   53.6380 C   0  0  0  0  0  0  0  0  0  0  0  0
   25.7970   34.9540   51.6890 O   0  0  0  0  0  0  0  0  0  0  0  0
   27.0590   35.6010   51.5530 C   0  0  2  0  0  0  0  0  0  0  0  0
   28.1420   34.5400   51.4470 C   0  0  0  0  0  0  0  0  0  0  0  0
   28.5960   34.0590   52.7330 O   0  0  0  0  0  0  0  0  0  0  0  0
   28.9360   34.9020   53.8320 C   0  0  1  0  0  0  0  0  0  0  0  0
   28.4660   34.0890   55.0200 C   0  0  0  0  0  0  0  0  0  0  0  0
   28.5910   34.8400   56.2670 O   0  0  0  0  0  0  0  0  0  0  0  0
   28.1990   34.2620   57.6760 S   0  0  0  0  0  0  0  0  0  0  0  0
   29.2380   33.3280   57.9500 O   0  0  0  0  0  0  0  0  0  0  0  0
   28.0680   35.4180   58.4930 O   0  0  0  0  0  0  0  0  0  0  0  0
   26.7810   33.5600   57.5070 N   0  0  0  0  0  0  0  0  0  0  0  0
   32.7295   36.8266   53.3262 H   0  0  0  0  0  0  0  0  0  0  0  0
   31.7911   35.8044   52.1855 H   0  0  0  0  0  0  0  0  0  0  0  0
   31.5687   37.5869   52.1855 H   0  0  0  0  0  0  0  0  0  0  0  0
   30.6090   36.4900   55.9912 H   0  0  0  0  0  0  0  0  0  0  0  0
   32.1484   37.1099   55.3038 H   0  0  0  0  0  0  0  0  0  0  0  0
   30.6824   38.1479   55.3038 H   0  0  0  0  0  0  0  0  0  0  0  0
   27.9520   36.6519   54.7360 H   0  0  0  0  0  0  0  0  0  0  0  0
   27.1968   37.5161   52.4384 H   0  0  0  0  0  0  0  0  0  0  0  0
   23.4196   36.6731   53.4081 H   0  0  0  0  0  0  0  0  0  0  0  0
   24.2652   37.1513   51.8971 H   0  0  0  0  0  0  0  0  0  0  0  0
   23.1565   35.7380   51.8971 H   0  0  0  0  0  0  0  0  0  0  0  0
   24.7170   34.4063   54.7129 H   0  0  0  0  0  0  0  0  0  0  0  0
   23.5973   33.9346   53.3899 H   0  0  0  0  0  0  0  0  0  0  0  0
   25.2906   33.3352   53.3899 H   0  0  0  0  0  0  0  0  0  0  0  0
   27.1818   36.2207   50.6525 H   0  0  0  0  0  0  0  0  0  0  0  0
   27.7427   33.6886   50.8764 H   0  0  0  0  0  0  0  0  0  0  0  0
   29.0058   35.0033   50.9477 H   0  0  0  0  0  0  0  0  0  0  0  0
   27.4107   33.8164   54.8714 H   0  0  0  0  0  0  0  0  0  0  0  0
   29.0963   33.1906   55.0940 H   0  0  0  0  0  0  0  0  0  0  0  0
   26.3826   33.3628   58.4361 H   0  0  0  0  0  0  0  0  0  0  0  0
   26.1481   34.1851   56.9877 H   0  0  0  0  0  0  0  0  0  0  0  0
  1  2  1  0
  2  3  1  0
  2  4  1  0
  2  5  1  0
  5  6  1  0
  6  7  1  0
  7  8  1  0
  8  9  1  0
  9 10  1  0
  9 11  1  0
  9 12  1  0
  7 13  1  0
 12 13  1  0
 13 14  1  0
 14 15  1  0
  4 16  1  0
  6 16  1  0
 15 16  1  0
 16 17  1  1
 17 18  1  0
 18 19  1  0
 19 20  2  0
 19 21  2  0
 19 22  1  0
  1 23  1  0
  1 24  1  0
  1 25  1  0
  3 26  1  0
  3 27  1  0
  3 28  1  0
  6 29  1  1
  7 30  1  6
 10 31  1  0
 10 32  1  0
 10 33  1  0
 11 34  1  0
 11 35  1  0
 11 36  1  0
 13 37  1  6
 14 38  1  0
 14 39  1  0
 17 40  1  0
 17 41  1  0
 22 42  1  0
 22 43  1  0
M  END
$$$$
