PDB_DB09034_98
     RDKit          3D

 75 79  0  0  0  0  0  0  0  0999 V2000
   51.0650    6.8730   55.0610 C   0  0  0  0  0  0  0  0  0  0  0  0
   51.9280    5.8730   54.8550 N   0  0  0  0  0  0  0  0  0  0  0  0
   50.2740    7.3110   54.1180 O   0  0  0  0  0  0  0  0  0  0  0  0
   47.5860   11.3940   57.0730 Cl  0  0  0  0  0  0  0  0  0  0  0  0
   50.8680    7.5530   56.1830 N   0  0  0  0  0  0  0  0  0  0  0  0
   55.5420    8.0300   54.0170 O   0  0  0  0  0  0  0  0  0  0  0  0
   49.9140    8.4460   55.9060 C   0  0  0  0  0  0  0  0  0  0  0  0
   54.0680    6.4410   53.4330 N   0  0  0  0  0  0  0  0  0  0  0  0
   49.3320    9.3780   56.6600 C   0  0  0  0  0  0  0  0  0  0  0  0
   54.7270    8.0960   50.4640 N   0  0  0  0  0  0  0  0  0  0  0  0
   48.3450   10.1920   56.1210 C   0  0  0  0  0  0  0  0  0  0  0  0
   54.4370    7.8450   49.3030 N   0  0  0  0  0  0  0  0  0  0  0  0
   47.9730   10.0280   54.7960 C   0  0  0  0  0  0  0  0  0  0  0  0
   55.8070    7.5870   50.7530 N   0  0  0  0  0  0  0  0  0  0  0  0
   48.6110    9.0440   54.0610 C   0  0  0  0  0  0  0  0  0  0  0  0
   49.5520    8.2890   54.6260 C   0  0  0  0  0  0  0  0  0  0  0  0
   51.8950    5.2840   53.5120 C   0  0  0  0  0  0  0  0  0  0  0  0
   52.8420    6.1110   52.6610 C   0  0  0  0  0  0  0  0  0  0  0  0
   54.8480    5.5280   54.3130 C   0  0  1  0  0  0  0  0  0  0  0  0
   53.9780    4.6240   55.1930 C   0  0  0  0  0  0  0  0  0  0  0  0
   52.8810    5.4380   55.8900 C   0  0  0  0  0  0  0  0  0  0  0  0
   54.5500    7.6950   53.3690 C   0  0  1  0  0  0  0  0  0  0  0  0
   53.8630    8.6680   52.6420 C   0  0  0  0  0  0  0  0  0  0  0  0
   53.9590    8.8480   51.2540 C   0  0  0  0  0  0  0  0  0  0  0  0
   53.2130    9.8570   50.6480 C   0  0  0  0  0  0  0  0  0  0  0  0
   52.3860   10.6920   51.3930 C   0  0  0  0  0  0  0  0  0  0  0  0
   52.2970   10.5140   52.7660 C   0  0  0  0  0  0  0  0  0  0  0  0
   53.0340    9.5110   53.3790 C   0  0  0  0  0  0  0  0  0  0  0  0
   55.3820    7.0900   48.7570 C   0  0  0  0  0  0  0  0  0  0  0  0
   56.2810    6.9220   49.7070 C   0  0  0  0  0  0  0  0  0  0  0  0
   51.4760   11.3360   53.5290 C   0  0  0  0  0  0  0  0  0  0  0  0
   55.8150    4.6700   53.4950 C   0  0  0  0  0  0  0  0  0  0  0  0
   51.8326    7.5987   54.7542 H   0  0  0  0  0  0  0  0  0  0  0  0
   50.5598    6.9211   56.9357 H   0  0  0  0  0  0  0  0  0  0  0  0
   55.3425    7.9626   54.9843 H   0  0  0  0  0  0  0  0  0  0  0  0
   49.1459    7.7199   56.2106 H   0  0  0  0  0  0  0  0  0  0  0  0
   48.8803    8.8565   57.5167 H   0  0  0  0  0  0  0  0  0  0  0  0
   50.1518   10.0808   56.8698 H   0  0  0  0  0  0  0  0  0  0  0  0
   49.1117   10.9188   55.8146 H   0  0  0  0  0  0  0  0  0  0  0  0
   53.5389    7.3415   49.2760 H   0  0  0  0  0  0  0  0  0  0  0  0
   46.8969    9.8001   54.7837 H   0  0  0  0  0  0  0  0  0  0  0  0
   48.2660   10.9697   54.3088 H   0  0  0  0  0  0  0  0  0  0  0  0
   56.4733    8.3256   51.0200 H   0  0  0  0  0  0  0  0  0  0  0  0
   47.8284    8.3590   53.7028 H   0  0  0  0  0  0  0  0  0  0  0  0
   49.1695    9.6174   53.3066 H   0  0  0  0  0  0  0  0  0  0  0  0
   48.7842    7.5632   54.9322 H   0  0  0  0  0  0  0  0  0  0  0  0
   52.2301    4.2369   53.5469 H   0  0  0  0  0  0  0  0  0  0  0  0
   50.8761    5.2901   53.0975 H   0  0  0  0  0  0  0  0  0  0  0  0
   52.3405    7.0424   52.3594 H   0  0  0  0  0  0  0  0  0  0  0  0
   53.1236    5.5313   51.7696 H   0  0  0  0  0  0  0  0  0  0  0  0
   55.4117    6.1872   54.9895 H   0  0  0  0  0  0  0  0  0  0  0  0
   53.5103    3.8512   54.5653 H   0  0  0  0  0  0  0  0  0  0  0  0
   54.6146    4.1593   55.9603 H   0  0  0  0  0  0  0  0  0  0  0  0
   53.3221    6.3147   56.3868 H   0  0  0  0  0  0  0  0  0  0  0  0
   52.3733    4.8303   56.6535 H   0  0  0  0  0  0  0  0  0  0  0  0
   55.1973    7.4033   52.5288 H   0  0  0  0  0  0  0  0  0  0  0  0
   54.6979    9.3686   52.7906 H   0  0  0  0  0  0  0  0  0  0  0  0
   53.1223    8.1495   51.1055 H   0  0  0  0  0  0  0  0  0  0  0  0
   53.9332   10.5104   50.1339 H   0  0  0  0  0  0  0  0  0  0  0  0
   52.4932    9.2890   50.0403 H   0  0  0  0  0  0  0  0  0  0  0  0
   52.7354   11.7215   51.2254 H   0  0  0  0  0  0  0  0  0  0  0  0
   51.3762   10.4448   51.0335 H   0  0  0  0  0  0  0  0  0  0  0  0
   51.4625    9.8122   52.6209 H   0  0  0  0  0  0  0  0  0  0  0  0
   52.3095    8.8628   53.8938 H   0  0  0  0  0  0  0  0  0  0  0  0
   53.7527   10.0806   53.9865 H   0  0  0  0  0  0  0  0  0  0  0  0
   54.9677    6.1209   48.4420 H   0  0  0  0  0  0  0  0  0  0  0  0
   55.8141    7.5566   47.8594 H   0  0  0  0  0  0  0  0  0  0  0  0
   57.2528    7.3330   49.3961 H   0  0  0  0  0  0  0  0  0  0  0  0
   56.4460    5.8586   49.9349 H   0  0  0  0  0  0  0  0  0  0  0  0
   51.6617   11.1500   54.5971 H   0  0  0  0  0  0  0  0  0  0  0  0
   51.6937   12.3889   53.2969 H   0  0  0  0  0  0  0  0  0  0  0  0
   50.4228   11.1196   53.2969 H   0  0  0  0  0  0  0  0  0  0  0  0
   56.4616    4.0963   54.1753 H   0  0  0  0  0  0  0  0  0  0  0  0
   55.2433    3.9766   52.8607 H   0  0  0  0  0  0  0  0  0  0  0  0
   56.4355    5.3202   52.8607 H   0  0  0  0  0  0  0  0  0  0  0  0
  1  2  1  0
  1  3  1  0
  1  5  1  0
  5  7  1  0
  7  9  1  0
  4 11  1  0
  9 11  1  0
 10 12  1  0
 11 13  1  0
 10 14  1  0
 13 15  1  0
  3 16  1  0
  7 16  1  0
 15 16  1  0
  2 17  1  0
  8 18  1  0
 17 18  1  0
  8 19  1  0
 19 20  1  0
  2 21  1  0
 20 21  1  0
  6 22  1  0
  8 22  1  0
 22 23  1  0
 10 24  1  0
 23 24  1  0
 24 25  1  0
 25 26  1  0
 26 27  1  0
 23 28  1  0
 27 28  1  0
 12 29  1  0
 14 30  1  0
 29 30  1  0
 27 31  1  0
 19 32  1  0
  1 33  1  0
  5 34  1  0
  6 35  1  0
  7 36  1  0
  9 37  1  0
  9 38  1  0
 11 39  1  0
 12 40  1  0
 13 41  1  0
 13 42  1  0
 14 43  1  0
 15 44  1  0
 15 45  1  0
 16 46  1  0
 17 47  1  0
 17 48  1  0
 18 49  1  0
 18 50  1  0
 19 51  1  1
 20 52  1  0
 20 53  1  0
 21 54  1  0
 21 55  1  0
 22 56  1  6
 23 57  1  0
 24 58  1  0
 25 59  1  0
 25 60  1  0
 26 61  1  0
 26 62  1  0
 27 63  1  0
 28 64  1  0
 28 65  1  0
 29 66  1  0
 29 67  1  0
 30 68  1  0
 30 69  1  0
 31 70  1  0
 31 71  1  0
 31 72  1  0
 32 73  1  0
 32 74  1  0
 32 75  1  0
M  END
>  <PDBID>  (1) 
4S0V

>  <PDB ID>  (1) 
4S0V

>  <Generic Name>  (1) 
Suvorexant

>  <Brand Name>  (1) 
Belsomra

>  <DrugBank ID>  (1) 
DB09034

>  <ATC Codes>  (1) 
nan

>  <Ligand ID>  (1) 
SUV

>  <Target Name>  (1) 
Orexin receptor type 1

>  <UniProt ID>  (1) 
O43613

>  <PDB ID.1>  (1) 
4S0V

>  <Seq. Identity>  (1) 
69%

$$$$
