PDB_DB08865_98
     RDKit          3D

 52 55  0  0  0  0  0  0  0  0999 V2000
   32.9370   46.3310    6.6220 Cl  0  0  0  0  0  0  0  0  0  0  0  0
   33.4020   46.0180    8.2730 C   0  0  0  0  0  0  0  0  0  0  0  0
   34.2220   47.0020    8.9000 C   0  0  0  0  0  0  0  0  0  0  0  0
   34.6560   46.8470   10.2410 C   0  0  0  0  0  0  0  0  0  0  0  0
   34.2850   45.7030   10.9980 C   0  0  0  0  0  0  0  0  0  0  0  0
   34.7220   45.6010   12.2650 F   0  0  0  0  0  0  0  0  0  0  0  0
   32.9950   44.8250    9.0120 C   0  0  0  0  0  0  0  0  0  0  0  0
   33.4550   44.6800   10.4050 C   0  0  0  0  0  0  0  0  0  0  0  0
   33.0420   43.3000   11.4140 Cl  0  0  0  0  0  0  0  0  0  0  0  0
   32.0950   43.7500    8.3080 C   0  0  1  0  0  0  0  0  0  0  0  0
   32.7790   42.3700    8.2830 C   0  0  0  0  0  0  0  0  0  0  0  0
   30.7900   43.5410    8.9500 O   0  0  0  0  0  0  0  0  0  0  0  0
   29.7900   44.5100    9.1260 C   0  0  0  0  0  0  0  0  0  0  0  0
   29.6840   45.7470    8.3920 C   0  0  0  0  0  0  0  0  0  0  0  0
   28.7610   44.2670   10.0990 C   0  0  0  0  0  0  0  0  0  0  0  0
   28.7980   43.0760   10.8500 N   0  0  0  0  0  0  0  0  0  0  0  0
   27.7320   45.1150   10.3500 N   0  0  0  0  0  0  0  0  0  0  0  0
   27.6600   46.2780    9.6400 C   0  0  0  0  0  0  0  0  0  0  0  0
   28.6090   46.6610    8.6410 C   0  0  0  0  0  0  0  0  0  0  0  0
   28.4980   47.9680    7.8660 C   0  0  0  0  0  0  0  0  0  0  0  0
   29.5440   48.6380    7.0900 C   0  0  0  0  0  0  0  0  0  0  0  0
   27.3800   48.7930    7.7370 C   0  0  0  0  0  0  0  0  0  0  0  0
   27.8290   49.8540    6.9230 N   0  0  0  0  0  0  0  0  0  0  0  0
   29.0630   49.7200    6.5830 N   0  0  0  0  0  0  0  0  0  0  0  0
   27.0170   51.0170    6.4770 C   0  0  0  0  0  0  0  0  0  0  0  0
   26.8190   52.0170    7.6370 C   0  0  0  0  0  0  0  0  0  0  0  0
   25.9750   53.2180    7.1460 C   0  0  0  0  0  0  0  0  0  0  0  0
   24.6730   52.7900    6.5550 N   0  0  0  0  0  0  0  0  0  0  0  0
   24.8360   51.7910    5.4600 C   0  0  0  0  0  0  0  0  0  0  0  0
   25.6480   50.5560    5.9130 C   0  0  0  0  0  0  0  0  0  0  0  0
   34.5228   47.8960    8.3340 H   0  0  0  0  0  0  0  0  0  0  0  0
   35.2874   47.6215   10.7008 H   0  0  0  0  0  0  0  0  0  0  0  0
   31.9446   44.1598    7.2983 H   0  0  0  0  0  0  0  0  0  0  0  0
   32.9493   42.0264    9.3140 H   0  0  0  0  0  0  0  0  0  0  0  0
   32.1334   41.6502    7.7586 H   0  0  0  0  0  0  0  0  0  0  0  0
   33.7428   42.4479    7.7586 H   0  0  0  0  0  0  0  0  0  0  0  0
   30.4389   45.9922    7.6304 H   0  0  0  0  0  0  0  0  0  0  0  0
   28.0679   42.8866   11.5515 H   0  0  0  0  0  0  0  0  0  0  0  0
   29.5551   42.3945   10.6977 H   0  0  0  0  0  0  0  0  0  0  0  0
   26.8231   46.9609    9.8482 H   0  0  0  0  0  0  0  0  0  0  0  0
   30.5745   48.2755    6.9609 H   0  0  0  0  0  0  0  0  0  0  0  0
   26.3792   48.6491    8.1702 H   0  0  0  0  0  0  0  0  0  0  0  0
   27.5636   51.5248    5.6687 H   0  0  0  0  0  0  0  0  0  0  0  0
   26.2974   51.5173    8.4666 H   0  0  0  0  0  0  0  0  0  0  0  0
   27.7997   52.3756    7.9827 H   0  0  0  0  0  0  0  0  0  0  0  0
   25.7749   53.8825    7.9995 H   0  0  0  0  0  0  0  0  0  0  0  0
   26.5478   53.7341    6.3614 H   0  0  0  0  0  0  0  0  0  0  0  0
   24.0957   52.3720    7.2985 H   0  0  0  0  0  0  0  0  0  0  0  0
   23.8399   51.4592    5.1319 H   0  0  0  0  0  0  0  0  0  0  0  0
   25.3866   52.2752    4.6401 H   0  0  0  0  0  0  0  0  0  0  0  0
   25.8111   49.8889    5.0537 H   0  0  0  0  0  0  0  0  0  0  0  0
   25.0917   50.0174    6.6944 H   0  0  0  0  0  0  0  0  0  0  0  0
  1  2  1  0
  2  3  2  0
  3  4  1  0
  4  5  2  0
  5  6  1  0
  2  7  1  0
  5  8  1  0
  7  8  2  0
  8  9  1  0
  7 10  1  0
 10 11  1  0
 10 12  1  0
 12 13  1  0
 13 14  2  0
 13 15  1  0
 15 16  1  0
 15 17  2  0
 17 18  1  0
 14 19  1  0
 18 19  2  0
 19 20  1  0
 20 21  1  0
 20 22  2  0
 22 23  1  0
 21 24  2  0
 23 24  1  0
 23 25  1  0
 25 26  1  0
 26 27  1  0
 27 28  1  0
 28 29  1  0
 25 30  1  0
 29 30  1  0
  3 31  1  0
  4 32  1  0
 10 33  1  6
 11 34  1  0
 11 35  1  0
 11 36  1  0
 14 37  1  0
 16 38  1  0
 16 39  1  0
 18 40  1  0
 21 41  1  0
 22 42  1  0
 25 43  1  0
 26 44  1  0
 26 45  1  0
 27 46  1  0
 27 47  1  0
 28 48  1  0
 29 49  1  0
 29 50  1  0
 30 51  1  0
 30 52  1  0
M  END
>  <PDBID>  (1) 
2XP2

>  <PDB ID>  (1) 
2XP2

>  <Generic Name>  (1) 
Crizotinib

>  <Brand Name>  (1) 
Xalkori

>  <DrugBank ID>  (1) 
DB08865

>  <ATC Codes>  (1) 
L01XE16

>  <Ligand ID>  (1) 
VGH

>  <Target Name>  (1) 
ALK tyrosine kinase receptor

>  <UniProt ID>  (1) 
Q9UM73

>  <PDB ID.1>  (1) 
2XP2

>  <Seq. Identity>  (1) 
100%

$$$$
