PDB_DB00843_99
     RDKit          3D

142148  0  0  0  0  0  0  0  0999 V2000
  -18.5300  -41.9280   24.2580 C   0  0  0  0  0  0  0  0  0  0  0  0
  -18.9700  -41.8620   25.5660 C   0  0  0  0  0  0  0  0  0  0  0  0
  -18.1250  -42.2220   26.6150 C   0  0  0  0  0  0  0  0  0  0  0  0
  -16.8170  -42.6590   26.3380 C   0  0  0  0  0  0  0  0  0  0  0  0
  -16.3700  -42.7400   25.0370 C   0  0  0  0  0  0  0  0  0  0  0  0
  -17.2340  -42.3690   23.9790 C   0  0  0  0  0  0  0  0  0  0  0  0
  -14.9620  -43.2210   24.9960 C   0  0  0  0  0  0  0  0  0  0  0  0
  -14.5020  -43.4780   26.4190 C   0  0  1  0  0  0  0  0  0  0  0  0
  -15.7100  -43.1070   27.2820 C   0  0  0  0  0  0  0  0  0  0  0  0
  -13.9700  -44.8940   26.6420 C   0  0  0  0  0  0  0  0  0  0  0  0
  -12.9250  -44.9650   27.7760 C   0  0  1  0  0  0  0  0  0  0  0  0
  -13.5050  -44.7560   29.1410 C   0  0  0  0  0  0  0  0  0  0  0  0
  -12.5290  -44.9330   30.2740 C   0  0  0  0  0  0  0  0  0  0  0  0
  -11.7290  -46.1660   30.2120 N   0  0  0  0  0  0  0  0  0  0  0  0
  -11.1890  -46.3510   28.8620 C   0  0  0  0  0  0  0  0  0  0  0  0
  -12.2570  -46.3280   27.8080 C   0  0  0  0  0  0  0  0  0  0  0  0
  -10.9620  -46.5450   31.3950 C   0  0  0  0  0  0  0  0  0  0  0  0
   -9.6980  -45.7080   31.5390 C   0  0  0  0  0  0  0  0  0  0  0  0
   -9.7400  -44.4450   32.1580 C   0  0  0  0  0  0  0  0  0  0  0  0
   -8.5760  -43.6760   32.2860 C   0  0  0  0  0  0  0  0  0  0  0  0
   -7.3630  -44.1710   31.8000 C   0  0  0  0  0  0  0  0  0  0  0  0
   -7.3170  -45.4340   31.1760 C   0  0  0  0  0  0  0  0  0  0  0  0
   -8.4750  -46.2000   31.0510 C   0  0  0  0  0  0  0  0  0  0  0  0
  -14.2780  -43.3620   23.9590 O   0  0  0  0  0  0  0  0  0  0  0  0
  -19.3870  -41.5620   23.2440 O   0  0  0  0  0  0  0  0  0  0  0  0
  -18.9950  -41.5610   21.9310 C   0  0  0  0  0  0  0  0  0  0  0  0
  -20.2640  -41.4070   25.8390 O   0  0  0  0  0  0  0  0  0  0  0  0
  -20.6580  -41.2660   27.1750 C   0  0  0  0  0  0  0  0  0  0  0  0
   12.1090  -50.7890  -23.4660 C   0  0  0  0  0  0  0  0  0  0  0  0
   12.6830  -51.3280  -24.5920 C   0  0  0  0  0  0  0  0  0  0  0  0
   12.5240  -52.6740  -24.8840 C   0  0  0  0  0  0  0  0  0  0  0  0
   11.7720  -53.4980  -24.0290 C   0  0  0  0  0  0  0  0  0  0  0  0
   11.1890  -52.9740  -22.8990 C   0  0  0  0  0  0  0  0  0  0  0  0
   11.3530  -51.5940  -22.5990 C   0  0  0  0  0  0  0  0  0  0  0  0
   10.4500  -54.0510  -22.1770 C   0  0  0  0  0  0  0  0  0  0  0  0
   10.6220  -55.3680  -22.9100 C   0  0  1  0  0  0  0  0  0  0  0  0
   11.4610  -54.9910  -24.1310 C   0  0  0  0  0  0  0  0  0  0  0  0
   11.2070  -56.4790  -22.0310 C   0  0  0  0  0  0  0  0  0  0  0  0
   10.8420  -57.9080  -22.4900 C   0  0  1  0  0  0  0  0  0  0  0  0
   11.5490  -58.3400  -23.7380 C   0  0  0  0  0  0  0  0  0  0  0  0
   11.2470  -59.7520  -24.1460 C   0  0  0  0  0  0  0  0  0  0  0  0
   11.3950  -60.7540  -23.0740 N   0  0  0  0  0  0  0  0  0  0  0  0
   10.8130  -60.2820  -21.8130 C   0  0  0  0  0  0  0  0  0  0  0  0
   11.2690  -58.9050  -21.4300 C   0  0  0  0  0  0  0  0  0  0  0  0
   11.3120  -62.1570  -23.4640 C   0  0  0  0  0  0  0  0  0  0  0  0
    9.8890  -62.5850  -23.7940 C   0  0  0  0  0  0  0  0  0  0  0  0
    9.3880  -62.4340  -25.0930 C   0  0  0  0  0  0  0  0  0  0  0  0
    8.0760  -62.8320  -25.4000 C   0  0  0  0  0  0  0  0  0  0  0  0
    7.2690  -63.3810  -24.4000 C   0  0  0  0  0  0  0  0  0  0  0  0
    7.7640  -63.5400  -23.0890 C   0  0  0  0  0  0  0  0  0  0  0  0
    9.0670  -63.1450  -22.7930 C   0  0  0  0  0  0  0  0  0  0  0  0
    9.7950  -53.8950  -21.1440 O   0  0  0  0  0  0  0  0  0  0  0  0
   12.3080  -49.4460  -23.2490 O   0  0  0  0  0  0  0  0  0  0  0  0
   11.6840  -48.7860  -22.2260 C   0  0  0  0  0  0  0  0  0  0  0  0
   13.4370  -50.5060  -25.4380 O   0  0  0  0  0  0  0  0  0  0  0  0
   13.9990  -51.0470  -26.6020 C   0  0  0  0  0  0  0  0  0  0  0  0
  -18.1627  -40.8936   24.3294 H   0  0  0  0  0  0  0  0  0  0  0  0
  -19.3278  -42.9000   25.4980 H   0  0  0  0  0  0  0  0  0  0  0  0
  -18.0355  -41.3419   27.2688 H   0  0  0  0  0  0  0  0  0  0  0  0
  -18.6088  -43.1145   27.0387 H   0  0  0  0  0  0  0  0  0  0  0  0
  -17.1763  -43.6970   26.2792 H   0  0  0  0  0  0  0  0  0  0  0  0
  -16.7382  -43.7747   24.9749 H   0  0  0  0  0  0  0  0  0  0  0  0
  -17.3315  -43.2483   23.3253 H   0  0  0  0  0  0  0  0  0  0  0  0
  -16.7485  -41.4768   23.5568 H   0  0  0  0  0  0  0  0  0  0  0  0
  -14.6053  -42.1830   25.0682 H   0  0  0  0  0  0  0  0  0  0  0  0
  -13.6243  -42.8718   26.6877 H   0  0  0  0  0  0  0  0  0  0  0  0
  -15.4459  -42.2889   27.9683 H   0  0  0  0  0  0  0  0  0  0  0  0
  -16.0364  -43.9659   27.8868 H   0  0  0  0  0  0  0  0  0  0  0  0
  -14.8140  -45.5508   26.8994 H   0  0  0  0  0  0  0  0  0  0  0  0
  -13.4751  -45.2136   25.7131 H   0  0  0  0  0  0  0  0  0  0  0  0
  -12.2153  -44.1552   27.5511 H   0  0  0  0  0  0  0  0  0  0  0  0
  -13.9049  -43.7324   29.1902 H   0  0  0  0  0  0  0  0  0  0  0  0
  -14.2764  -45.5292   29.2722 H   0  0  0  0  0  0  0  0  0  0  0  0
  -11.8387  -44.0765   30.2680 H   0  0  0  0  0  0  0  0  0  0  0  0
  -13.1300  -44.9996   31.1929 H   0  0  0  0  0  0  0  0  0  0  0  0
  -10.4717  -45.5431   28.6551 H   0  0  0  0  0  0  0  0  0  0  0  0
  -10.7063  -47.3388   28.8274 H   0  0  0  0  0  0  0  0  0  0  0  0
  -13.0096  -47.0974   28.0351 H   0  0  0  0  0  0  0  0  0  0  0  0
  -11.8013  -46.5301   26.8274 H   0  0  0  0  0  0  0  0  0  0  0  0
  -11.5887  -46.4007   32.2874 H   0  0  0  0  0  0  0  0  0  0  0  0
  -10.6650  -47.5987   31.2879 H   0  0  0  0  0  0  0  0  0  0  0  0
   -9.8987  -45.2374   30.5652 H   0  0  0  0  0  0  0  0  0  0  0  0
  -10.4574  -43.8378   31.5864 H   0  0  0  0  0  0  0  0  0  0  0  0
   -9.9905  -44.6893   33.2009 H   0  0  0  0  0  0  0  0  0  0  0  0
   -8.7634  -42.7246   31.7667 H   0  0  0  0  0  0  0  0  0  0  0  0
   -8.4171  -43.6304   33.3735 H   0  0  0  0  0  0  0  0  0  0  0  0
   -6.9931  -43.4403   31.0657 H   0  0  0  0  0  0  0  0  0  0  0  0
   -6.7659  -44.3175   32.7121 H   0  0  0  0  0  0  0  0  0  0  0  0
   -6.9355  -45.2695   30.1575 H   0  0  0  0  0  0  0  0  0  0  0  0
   -6.6975  -46.0291   31.8631 H   0  0  0  0  0  0  0  0  0  0  0  0
   -8.2848  -47.1506   31.5707 H   0  0  0  0  0  0  0  0  0  0  0  0
   -8.6347  -46.2422   29.9635 H   0  0  0  0  0  0  0  0  0  0  0  0
  -13.3392  -43.5555   24.2067 H   0  0  0  0  0  0  0  0  0  0  0  0
  -17.8964  -41.5582   21.8763 H   0  0  0  0  0  0  0  0  0  0  0  0
  -19.3847  -42.4601   21.4313 H   0  0  0  0  0  0  0  0  0  0  0  0
  -19.3893  -40.6639   21.4313 H   0  0  0  0  0  0  0  0  0  0  0  0
  -19.8294  -41.5625   27.8349 H   0  0  0  0  0  0  0  0  0  0  0  0
  -20.9245  -40.2167   27.3699 H   0  0  0  0  0  0  0  0  0  0  0  0
  -21.5297  -41.9080   27.3699 H   0  0  0  0  0  0  0  0  0  0  0  0
   11.2008  -50.5552  -24.0409 H   0  0  0  0  0  0  0  0  0  0  0  0
   13.5920  -51.5600  -24.0176 H   0  0  0  0  0  0  0  0  0  0  0  0
   12.0499  -52.7293  -25.8750 H   0  0  0  0  0  0  0  0  0  0  0  0
   13.5438  -53.0744  -24.7857 H   0  0  0  0  0  0  0  0  0  0  0  0
   12.6802  -53.7293  -23.4531 H   0  0  0  0  0  0  0  0  0  0  0  0
   12.0965  -53.2071  -22.3227 H   0  0  0  0  0  0  0  0  0  0  0  0
   11.8288  -51.5348  -21.6090 H   0  0  0  0  0  0  0  0  0  0  0  0
   10.3352  -51.1854  -22.6840 H   0  0  0  0  0  0  0  0  0  0  0  0
    9.5521  -53.8356  -22.7747 H   0  0  0  0  0  0  0  0  0  0  0  0
    9.6672  -55.8236  -23.2114 H   0  0  0  0  0  0  0  0  0  0  0  0
   10.8964  -55.1953  -25.0527 H   0  0  0  0  0  0  0  0  0  0  0  0
   12.3896  -55.5799  -24.1608 H   0  0  0  0  0  0  0  0  0  0  0  0
   12.3028  -56.3837  -22.0384 H   0  0  0  0  0  0  0  0  0  0  0  0
   10.7746  -56.3491  -21.0279 H   0  0  0  0  0  0  0  0  0  0  0  0
    9.7568  -57.8853  -22.6687 H   0  0  0  0  0  0  0  0  0  0  0  0
   11.2479  -57.6702  -24.5570 H   0  0  0  0  0  0  0  0  0  0  0  0
   12.6278  -58.2902  -23.5292 H   0  0  0  0  0  0  0  0  0  0  0  0
   10.2085  -59.7886  -24.5067 H   0  0  0  0  0  0  0  0  0  0  0  0
   11.9859  -60.0146  -24.9174 H   0  0  0  0  0  0  0  0  0  0  0  0
    9.7179  -60.2716  -21.9158 H   0  0  0  0  0  0  0  0  0  0  0  0
   11.1474  -60.9688  -21.0215 H   0  0  0  0  0  0  0  0  0  0  0  0
   12.3653  -58.8953  -21.3403 H   0  0  0  0  0  0  0  0  0  0  0  0
   10.8154  -58.6274  -20.4671 H   0  0  0  0  0  0  0  0  0  0  0  0
   11.9430  -62.3148  -24.3511 H   0  0  0  0  0  0  0  0  0  0  0  0
   11.6550  -62.7625  -22.6121 H   0  0  0  0  0  0  0  0  0  0  0  0
    9.5268  -61.5786  -23.5373 H   0  0  0  0  0  0  0  0  0  0  0  0
    9.4580  -61.3634  -25.3357 H   0  0  0  0  0  0  0  0  0  0  0  0
   10.0030  -63.1327  -25.6791 H   0  0  0  0  0  0  0  0  0  0  0  0
    7.5529  -61.9420  -25.7798 H   0  0  0  0  0  0  0  0  0  0  0  0
    8.2183  -63.6665  -26.1025 H   0  0  0  0  0  0  0  0  0  0  0  0
    6.3788  -62.7391  -24.3253 H   0  0  0  0  0  0  0  0  0  0  0  0
    7.1259  -64.4178  -24.7384 H   0  0  0  0  0  0  0  0  0  0  0  0
    7.0984  -62.9693  -22.4247 H   0  0  0  0  0  0  0  0  0  0  0  0
    7.7890  -64.6314  -22.9539 H   0  0  0  0  0  0  0  0  0  0  0  0
    9.5897  -64.0374  -22.4183 H   0  0  0  0  0  0  0  0  0  0  0  0
    8.9199  -62.3073  -22.0954 H   0  0  0  0  0  0  0  0  0  0  0  0
   10.3804  -54.0344  -20.3579 H   0  0  0  0  0  0  0  0  0  0  0  0
   12.0496  -49.1726  -21.2633 H   0  0  0  0  0  0  0  0  0  0  0  0
   11.9030  -47.7103  -22.2961 H   0  0  0  0  0  0  0  0  0  0  0  0
   10.5977  -48.9444  -22.2961 H   0  0  0  0  0  0  0  0  0  0  0  0
   14.7667  -51.7860  -26.3292 H   0  0  0  0  0  0  0  0  0  0  0  0
   13.2128  -51.5369  -27.1953 H   0  0  0  0  0  0  0  0  0  0  0  0
   14.4586  -50.2428  -27.1953 H   0  0  0  0  0  0  0  0  0  0  0  0
  1  2  1  0
  2  3  1  0
  3  4  1  0
  4  5  1  0
  1  6  1  0
  5  6  1  0
  5  7  1  0
  7  8  1  0
  4  9  1  0
  8  9  1  0
  8 10  1  0
 10 11  1  0
 11 12  1  0
 12 13  1  0
 13 14  1  0
 14 15  1  0
 11 16  1  0
 15 16  1  0
 14 17  1  0
 17 18  1  0
 18 19  1  0
 19 20  1  0
 20 21  1  0
 21 22  1  0
 18 23  1  0
 22 23  1  0
  7 24  1  0
  1 25  1  0
 25 26  1  0
  2 27  1  0
 27 28  1  0
 29 30  1  0
 30 31  1  0
 31 32  1  0
 32 33  1  0
 29 34  1  0
 33 34  1  0
 33 35  1  0
 35 36  1  0
 32 37  1  0
 36 37  1  0
 36 38  1  0
 38 39  1  0
 39 40  1  0
 40 41  1  0
 41 42  1  0
 42 43  1  0
 39 44  1  0
 43 44  1  0
 42 45  1  0
 45 46  1  0
 46 47  1  0
 47 48  1  0
 48 49  1  0
 49 50  1  0
 46 51  1  0
 50 51  1  0
 35 52  1  0
 29 53  1  0
 53 54  1  0
 30 55  1  0
 55 56  1  0
  1 57  1  0
  2 58  1  0
  3 59  1  0
  3 60  1  0
  4 61  1  0
  5 62  1  0
  6 63  1  0
  6 64  1  0
  7 65  1  0
  8 66  1  1
  9 67  1  0
  9 68  1  0
 10 69  1  0
 10 70  1  0
 11 71  1  6
 12 72  1  0
 12 73  1  0
 13 74  1  0
 13 75  1  0
 15 76  1  0
 15 77  1  0
 16 78  1  0
 16 79  1  0
 17 80  1  0
 17 81  1  0
 18 82  1  0
 19 83  1  0
 19 84  1  0
 20 85  1  0
 20 86  1  0
 21 87  1  0
 21 88  1  0
 22 89  1  0
 22 90  1  0
 23 91  1  0
 23 92  1  0
 24 93  1  0
 26 94  1  0
 26 95  1  0
 26 96  1  0
 28 97  1  0
 28 98  1  0
 28 99  1  0
 29100  1  0
 30101  1  0
 31102  1  0
 31103  1  0
 32104  1  0
 33105  1  0
 34106  1  0
 34107  1  0
 35108  1  0
 36109  1  6
 37110  1  0
 37111  1  0
 38112  1  0
 38113  1  0
 39114  1  6
 40115  1  0
 40116  1  0
 41117  1  0
 41118  1  0
 43119  1  0
 43120  1  0
 44121  1  0
 44122  1  0
 45123  1  0
 45124  1  0
 46125  1  0
 47126  1  0
 47127  1  0
 48128  1  0
 48129  1  0
 49130  1  0
 49131  1  0
 50132  1  0
 50133  1  0
 51134  1  0
 51135  1  0
 52136  1  0
 54137  1  0
 54138  1  0
 54139  1  0
 56140  1  0
 56141  1  0
 56142  1  0
M  END
>  <PDBID>  (1) 
4EY7

>  <PDB ID>  (1) 
4EY7

>  <Generic Name>  (1) 
Donepezil

>  <Brand Name>  (1) 
Accel-donepezil#Act Donepezil#Act Donepezil ODT#Ag-donepezil#Apo-donepezil#Aricept#Aricept ODT#Aricept Rdt#Auro-donepezil#Bio-donepezil#Dom-donepezil#Donepezil#Donepezil Hydrochloride#Donepezil Hydrochloride 10 mg#Donepezil Hydrochloride 10mg#Donepezil Hydrochloride 5 mg#Donepezil Hydrochloride ODT#Donepezil Hydrochloride Tablets#Donepezil Hydrochloride Tablets USP#Donepezil Hyrochloride 5mg#Ecl-donepezil#Ipg-donepezil#Jamp-donepezil#Jamp-donepezil Tablets#Mar-donepezil#Mint-donepezil#Mylan-donepezil#Namzaric#Nat-donepezil#PMS-donepezil#Priva-donepezil#Ran-donepezil#Riva-donepezil#Sandoz Donepezil#Sandoz Donepezil ODT#Septa Donepezil#Teva-donepezil#Van-donepezil#Alzepil#Davia#Depzil#Donecept#Donecil#Donep#Donepex#Donesyn#Dopezil#Eranz#Memac#Nomi-Nox#Pezale#Redumas#Zolpezil

>  <DrugBank ID>  (1) 
DB00843

>  <ATC Codes>  (1) 
N06DA02#N06DA52#N06DA53

>  <Ligand ID>  (1) 
E20

>  <Target Name>  (1) 
Acetylcholinesterase

>  <UniProt ID>  (1) 
P22303

>  <PDB ID.1>  (1) 
4EY7

>  <Seq. Identity>  (1) 
97%

$$$$
