PDB_DB01232_97
     RDKit          3D

123127  0  0  0  0  0  0  0  0999 V2000
   -6.0320   17.9530   22.5470 C   0  0  0  0  0  0  0  0  0  0  0  0
   -6.7510   18.8210   22.0770 O   0  0  0  0  0  0  0  0  0  0  0  0
   -3.7460   17.0680   22.8970 N   0  0  0  0  0  0  0  0  0  0  0  0
   -4.5380   18.1110   22.5430 C   0  0  1  0  0  0  0  0  0  0  0  0
   -3.9680   19.3450   22.2350 C   0  0  0  0  0  0  0  0  0  0  0  0
   -2.5830   19.4980   22.2540 C   0  0  0  0  0  0  0  0  0  0  0  0
   -0.3960   18.5450   22.6320 C   0  0  0  0  0  0  0  0  0  0  0  0
    0.3950   17.4560   22.9820 C   0  0  0  0  0  0  0  0  0  0  0  0
   -0.2050   16.2400   23.2990 C   0  0  0  0  0  0  0  0  0  0  0  0
   -1.5930   16.1040   23.2700 C   0  0  0  0  0  0  0  0  0  0  0  0
   -1.7860   18.4120   22.6000 C   0  0  0  0  0  0  0  0  0  0  0  0
   -2.3920   17.1940   22.9220 C   0  0  0  0  0  0  0  0  0  0  0  0
   -6.5200   16.8540   23.1110 N   0  0  0  0  0  0  0  0  0  0  0  0
   -7.9450   16.5830   23.2540 C   0  0  2  0  0  0  0  0  0  0  0  0
   -8.2030   16.1200   24.6670 C   0  0  0  0  0  0  0  0  0  0  0  0
   -8.1780   14.9260   24.9270 O   0  0  0  0  0  0  0  0  0  0  0  0
   -8.3230   15.5330   22.2170 C   0  0  0  0  0  0  0  0  0  0  0  0
   -8.4560   16.2680   20.9010 C   0  0  0  0  0  0  0  0  0  0  0  0
   -8.2020   15.7240   19.8350 O   0  0  0  0  0  0  0  0  0  0  0  0
   -8.8500   17.5370   20.9830 N   0  0  0  0  0  0  0  0  0  0  0  0
  -10.1090   17.1630   27.3820 C   0  0  1  0  0  0  0  0  0  0  0  0
  -10.2820   18.5820   27.3770 O   0  0  0  0  0  0  0  0  0  0  0  0
   -8.6720   16.8110   27.0060 C   0  0  1  0  0  0  0  0  0  0  0  0
   -8.4380   17.0790   25.5820 N   0  0  0  0  0  0  0  0  0  0  0  0
   -7.7400   17.7790   27.7240 C   0  0  0  0  0  0  0  0  0  0  0  0
   -6.3110   17.6050   27.2610 C   0  0  0  0  0  0  0  0  0  0  0  0
   -5.6230   16.4310   27.5380 C   0  0  0  0  0  0  0  0  0  0  0  0
   -5.6790   18.6270   26.5660 C   0  0  0  0  0  0  0  0  0  0  0  0
   -4.3060   16.2730   27.1250 C   0  0  0  0  0  0  0  0  0  0  0  0
   -4.3650   18.4710   26.1520 C   0  0  0  0  0  0  0  0  0  0  0  0
   -3.6790   17.2950   26.4310 C   0  0  0  0  0  0  0  0  0  0  0  0
  -10.9020   15.2960   28.7220 N   0  0  0  0  0  0  0  0  0  0  0  0
  -10.4390   16.6810   28.7880 C   0  0  0  0  0  0  0  0  0  0  0  0
  -11.0790   14.7390   30.0750 C   0  0  2  0  0  0  0  0  0  0  0  0
   -9.8630   14.8610   30.9400 C   0  0  0  0  0  0  0  0  0  0  0  0
   -8.7440   14.7900   30.4650 O   0  0  0  0  0  0  0  0  0  0  0  0
  -11.4410   13.2620   29.9600 C   0  0  0  0  0  0  0  0  0  0  0  0
  -12.8090   13.1790   29.3060 C   0  0  2  0  0  0  0  0  0  0  0  0
  -13.2730   11.7270   29.2210 C   0  0  0  0  0  0  0  0  0  0  0  0
  -12.5000   10.9370   28.1740 C   0  0  0  0  0  0  0  0  0  0  0  0
  -12.5870   11.6320   26.8260 C   0  0  0  0  0  0  0  0  0  0  0  0
  -11.9740   13.0220   26.9400 C   0  0  0  0  0  0  0  0  0  0  0  0
  -12.7660   13.8570   27.9400 C   0  0  2  0  0  0  0  0  0  0  0  0
  -12.1970   15.2750   28.0200 C   0  0  0  0  0  0  0  0  0  0  0  0
  -10.1370   15.0280   32.2350 N   0  0  0  0  0  0  0  0  0  0  0  0
   -9.1180   15.1650   33.2590 C   0  0  2  0  0  0  0  0  0  0  0  0
   -8.2180   13.9330   33.2370 C   0  0  0  0  0  0  0  0  0  0  0  0
   -9.7650   15.2870   34.6390 C   0  0  0  0  0  0  0  0  0  0  0  0
   -8.2640   16.3910   32.9710 C   0  0  0  0  0  0  0  0  0  0  0  0
   -5.9827   17.4616   21.5641 H   0  0  0  0  0  0  0  0  0  0  0  0
   -7.1745   19.3322   22.8115 H   0  0  0  0  0  0  0  0  0  0  0  0
   -4.0321   16.7923   23.8473 H   0  0  0  0  0  0  0  0  0  0  0  0
   -4.5702   18.4424   23.5914 H   0  0  0  0  0  0  0  0  0  0  0  0
   -4.3020   19.6042   21.2195 H   0  0  0  0  0  0  0  0  0  0  0  0
   -4.3046   19.9912   23.0591 H   0  0  0  0  0  0  0  0  0  0  0  0
   -2.2801   19.8103   21.2437 H   0  0  0  0  0  0  0  0  0  0  0  0
   -2.4101   20.2193   23.0663 H   0  0  0  0  0  0  0  0  0  0  0  0
   -0.1693   19.3470   23.3499 H   0  0  0  0  0  0  0  0  0  0  0  0
   -0.1327   18.7232   21.5789 H   0  0  0  0  0  0  0  0  0  0  0  0
    1.0703   17.2670   22.1345 H   0  0  0  0  0  0  0  0  0  0  0  0
    0.8556   17.7689   23.9307 H   0  0  0  0  0  0  0  0  0  0  0  0
    0.1987   15.4971   22.5954 H   0  0  0  0  0  0  0  0  0  0  0  0
    0.0319   16.1194   24.3664 H   0  0  0  0  0  0  0  0  0  0  0  0
   -1.8190   15.3020   22.5518 H   0  0  0  0  0  0  0  0  0  0  0  0
   -1.8525   15.9253   24.3239 H   0  0  0  0  0  0  0  0  0  0  0  0
   -1.7331   18.1139   21.5425 H   0  0  0  0  0  0  0  0  0  0  0  0
   -2.4396   17.4964   23.9785 H   0  0  0  0  0  0  0  0  0  0  0  0
   -6.1377   16.0666   22.5681 H   0  0  0  0  0  0  0  0  0  0  0  0
   -8.5616   17.4772   23.0802 H   0  0  0  0  0  0  0  0  0  0  0  0
   -9.2786   16.0497   24.4476 H   0  0  0  0  0  0  0  0  0  0  0  0
   -8.1754   14.8021   25.9092 H   0  0  0  0  0  0  0  0  0  0  0  0
   -7.5379   14.7657   22.1476 H   0  0  0  0  0  0  0  0  0  0  0  0
   -9.2588   15.0218   22.4869 H   0  0  0  0  0  0  0  0  0  0  0  0
   -7.4103   16.6000   20.9807 H   0  0  0  0  0  0  0  0  0  0  0  0
   -7.7894   14.8404   20.0055 H   0  0  0  0  0  0  0  0  0  0  0  0
   -8.9339   17.8071   21.9734 H   0  0  0  0  0  0  0  0  0  0  0  0
   -8.1573   18.1422   20.5195 H   0  0  0  0  0  0  0  0  0  0  0  0
  -10.7675   16.6770   26.6470 H   0  0  0  0  0  0  0  0  0  0  0  0
  -10.3223   18.9128   28.3092 H   0  0  0  0  0  0  0  0  0  0  0  0
   -8.5005   15.7547   27.2605 H   0  0  0  0  0  0  0  0  0  0  0  0
   -7.6219   17.7063   25.5458 H   0  0  0  0  0  0  0  0  0  0  0  0
   -8.0623   18.8097   27.5147 H   0  0  0  0  0  0  0  0  0  0  0  0
   -7.7849   17.5709   28.8032 H   0  0  0  0  0  0  0  0  0  0  0  0
   -5.9520   18.0384   28.2061 H   0  0  0  0  0  0  0  0  0  0  0  0
   -5.6269   16.3136   28.6317 H   0  0  0  0  0  0  0  0  0  0  0  0
   -6.1620   15.6808   26.9408 H   0  0  0  0  0  0  0  0  0  0  0  0
   -6.2772   18.8144   25.6621 H   0  0  0  0  0  0  0  0  0  0  0  0
   -5.6176   19.4379   27.3067 H   0  0  0  0  0  0  0  0  0  0  0  0
   -3.7078   16.0870   28.0292 H   0  0  0  0  0  0  0  0  0  0  0  0
   -4.3637   15.4590   26.3874 H   0  0  0  0  0  0  0  0  0  0  0  0
   -4.3618   18.5875   25.0582 H   0  0  0  0  0  0  0  0  0  0  0  0
   -3.8244   19.2232   26.7452 H   0  0  0  0  0  0  0  0  0  0  0  0
   -2.7909   17.5770   27.0156 H   0  0  0  0  0  0  0  0  0  0  0  0
   -3.5127   16.8582   25.4352 H   0  0  0  0  0  0  0  0  0  0  0  0
   -9.5392   16.7390   29.4181 H   0  0  0  0  0  0  0  0  0  0  0  0
  -11.2263   17.3149   29.2220 H   0  0  0  0  0  0  0  0  0  0  0  0
  -11.8782   15.3245   30.5531 H   0  0  0  0  0  0  0  0  0  0  0  0
   -9.8654   13.7723   31.0970 H   0  0  0  0  0  0  0  0  0  0  0  0
   -8.0774   14.7477   31.1957 H   0  0  0  0  0  0  0  0  0  0  0  0
  -10.6963   12.7395   29.3416 H   0  0  0  0  0  0  0  0  0  0  0  0
  -11.4556   12.7874   30.9523 H   0  0  0  0  0  0  0  0  0  0  0  0
  -13.5480   13.7133   29.9212 H   0  0  0  0  0  0  0  0  0  0  0  0
  -13.1286   11.2509   30.2021 H   0  0  0  0  0  0  0  0  0  0  0  0
  -14.3335   11.7277   28.9288 H   0  0  0  0  0  0  0  0  0  0  0  0
  -11.4455   10.8643   28.4784 H   0  0  0  0  0  0  0  0  0  0  0  0
  -12.9353    9.9304   28.0887 H   0  0  0  0  0  0  0  0  0  0  0  0
  -12.0365   11.0474   26.0742 H   0  0  0  0  0  0  0  0  0  0  0  0
  -13.6403   11.7160   26.5202 H   0  0  0  0  0  0  0  0  0  0  0  0
  -10.9322   12.9344   27.2819 H   0  0  0  0  0  0  0  0  0  0  0  0
  -12.0019   13.5124   25.9557 H   0  0  0  0  0  0  0  0  0  0  0  0
  -13.8054   13.9356   27.5887 H   0  0  0  0  0  0  0  0  0  0  0  0
  -12.9082   15.9159   28.5618 H   0  0  0  0  0  0  0  0  0  0  0  0
  -12.0413   15.6437   26.9954 H   0  0  0  0  0  0  0  0  0  0  0  0
  -10.7109   15.8813   32.2933 H   0  0  0  0  0  0  0  0  0  0  0  0
   -7.9929   13.6249   34.2687 H   0  0  0  0  0  0  0  0  0  0  0  0
   -8.7314   13.1132   32.7132 H   0  0  0  0  0  0  0  0  0  0  0  0
   -7.2809   14.1728   32.7132 H   0  0  0  0  0  0  0  0  0  0  0  0
   -9.0003   15.1428   35.4165 H   0  0  0  0  0  0  0  0  0  0  0  0
  -10.2136   16.2856   34.7466 H   0  0  0  0  0  0  0  0  0  0  0  0
  -10.5465   14.5204   34.7466 H   0  0  0  0  0  0  0  0  0  0  0  0
   -7.9460   16.8475   33.9199 H   0  0  0  0  0  0  0  0  0  0  0  0
   -7.3773   16.0925   32.3924 H   0  0  0  0  0  0  0  0  0  0  0  0
   -8.8513   17.1193   32.3924 H   0  0  0  0  0  0  0  0  0  0  0  0
  1  2  1  0
  1  4  1  0
  3  4  1  0
  4  5  1  0
  5  6  1  0
  7  8  1  0
  8  9  1  0
  9 10  1  0
  6 11  1  0
  7 11  1  0
  3 12  1  0
 10 12  1  0
 11 12  1  0
  1 13  1  0
 13 14  1  0
 14 15  1  0
 15 16  1  0
 14 17  1  0
 17 18  1  0
 18 19  1  0
 18 20  1  0
 21 22  1  0
 21 23  1  0
 15 24  1  0
 23 24  1  0
 23 25  1  0
 25 26  1  0
 26 27  1  0
 26 28  1  0
 27 29  1  0
 28 30  1  0
 29 31  1  0
 30 31  1  0
 21 33  1  0
 32 33  1  0
 32 34  1  0
 34 35  1  0
 35 36  1  0
 34 37  1  0
 37 38  1  0
 38 39  1  0
 39 40  1  0
 40 41  1  0
 41 42  1  0
 38 43  1  0
 42 43  1  0
 32 44  1  0
 43 44  1  0
 35 45  1  0
 46 45  1  6
 46 47  1  0
 46 48  1  0
 46 49  1  0
  1 50  1  0
  2 51  1  0
  3 52  1  0
  4 53  1  6
  5 54  1  0
  5 55  1  0
  6 56  1  0
  6 57  1  0
  7 58  1  0
  7 59  1  0
  8 60  1  0
  8 61  1  0
  9 62  1  0
  9 63  1  0
 10 64  1  0
 10 65  1  0
 11 66  1  0
 12 67  1  0
 13 68  1  0
 14 69  1  6
 15 70  1  0
 16 71  1  0
 17 72  1  0
 17 73  1  0
 18 74  1  0
 19 75  1  0
 20 76  1  0
 20 77  1  0
 21 78  1  6
 22 79  1  0
 23 80  1  6
 24 81  1  0
 25 82  1  0
 25 83  1  0
 26 84  1  0
 27 85  1  0
 27 86  1  0
 28 87  1  0
 28 88  1  0
 29 89  1  0
 29 90  1  0
 30 91  1  0
 30 92  1  0
 31 93  1  0
 31 94  1  0
 33 95  1  0
 33 96  1  0
 34 97  1  1
 35 98  1  0
 36 99  1  0
 37100  1  0
 37101  1  0
 38102  1  1
 39103  1  0
 39104  1  0
 40105  1  0
 40106  1  0
 41107  1  0
 41108  1  0
 42109  1  0
 42110  1  0
 43111  1  6
 44112  1  0
 44113  1  0
 45114  1  0
 47115  1  0
 47116  1  0
 47117  1  0
 48118  1  0
 48119  1  0
 48120  1  0
 49121  1  0
 49122  1  0
 49123  1  0
M  END
>  <PDBID>  (1) 
3N3I

>  <PDB ID>  (1) 
3N3I

>  <Generic Name>  (1) 
Saquinavir

>  <Brand Name>  (1) 
Fortovase Roche#Invirase#Invirase - Cap 200mg#Fortovase#ROC

>  <DrugBank ID>  (1) 
DB01232

>  <ATC Codes>  (1) 
J05AE01

>  <Ligand ID>  (1) 
ROC

>  <Target Name>  (1) 
Pol polyprotein

>  <UniProt ID>  (1) 
Q72874

>  <PDB ID.1>  (1) 
3N3I

>  <Seq. Identity>  (1) 
98%

$$$$
