PDB_DB00877_97
     RDKit          3D

144147  0  0  0  0  0  0  0  0999 V2000
    4.4140    8.0710   11.8570 C   0  0  0  0  0  0  0  0  0  0  0  0
    3.8670    9.1100   12.7070 O   0  0  0  0  0  0  0  0  0  0  0  0
    5.1770    8.3370   10.9380 O   0  0  0  0  0  0  0  0  0  0  0  0
    4.0210    6.6510   12.1640 C   0  0  2  0  0  0  0  0  0  0  0  0
    3.5490    5.9180   10.9010 C   0  0  0  0  0  0  0  0  0  0  0  0
    2.1230    6.2650   10.4830 C   0  0  0  0  0  0  0  0  0  0  0  0
    1.1790    6.0840   11.6620 C   0  0  0  0  0  0  0  0  0  0  0  0
    1.6330    6.9670   12.8200 C   0  0  0  0  0  0  0  0  0  0  0  0
    2.9930    6.5710   13.2260 N   0  0  0  0  0  0  0  0  0  0  0  0
    3.3720    6.1860   14.4550 C   0  0  0  0  0  0  0  0  0  0  0  0
    4.5350    5.9400   14.7430 O   0  0  0  0  0  0  0  0  0  0  0  0
    2.3430    6.0470   15.4910 C   0  0  0  0  0  0  0  0  0  0  0  0
    1.7270    4.9960   15.5630 O   0  0  0  0  0  0  0  0  0  0  0  0
    2.0090    7.1790   16.4420 C   0  0  1  0  0  0  0  0  0  0  0  0
    1.1980    8.0720   15.6720 O   0  0  0  0  0  0  0  0  0  0  0  0
    1.2580    6.6720   17.5530 O   0  0  0  0  0  0  0  0  0  0  0  0
    3.2580    7.9040   16.9740 C   0  0  1  0  0  0  0  0  0  0  0  0
    2.8970    9.2260   17.6530 C   0  0  0  0  0  0  0  0  0  0  0  0
    1.9890   10.0830   16.7730 C   0  0  0  0  0  0  0  0  0  0  0  0
    0.7740    9.2900   16.2930 C   0  0  1  0  0  0  0  0  0  0  0  0
    0.0140   10.0670   15.2220 C   0  0  0  0  0  0  0  0  0  0  0  0
   -0.8770   11.1940   15.7480 C   0  0  2  0  0  0  0  0  0  0  0  0
   -1.8850   10.6670   16.6150 O   0  0  0  0  0  0  0  0  0  0  0  0
   -1.4740   11.9190   14.5660 C   0  0  0  0  0  0  0  0  0  0  0  0
   -0.9830   13.1360   14.2540 C   0  0  0  0  0  0  0  0  0  0  0  0
   -1.4460   13.9450   13.1240 C   0  0  0  0  0  0  0  0  0  0  0  0
   -0.9350   15.1630   12.9450 C   0  0  0  0  0  0  0  0  0  0  0  0
   -1.3410   15.9970   11.8160 C   0  0  0  0  0  0  0  0  0  0  0  0
   -0.5510   17.0100   11.4600 C   0  0  0  0  0  0  0  0  0  0  0  0
   -0.8850   17.9030   10.2830 C   0  0  2  0  0  0  0  0  0  0  0  0
    0.2900   17.9420    9.3020 C   0  0  0  0  0  0  0  0  0  0  0  0
    0.9220   16.5710    9.0470 C   0  0  2  0  0  0  0  0  0  0  0  0
    2.3950   16.7260    8.7620 C   0  0  0  0  0  0  0  0  0  0  0  0
    2.7900   16.8640    7.6140 O   0  0  0  0  0  0  0  0  0  0  0  0
    3.3870   16.7290    9.9010 C   0  0  2  0  0  0  0  0  0  0  0  0
    4.5080   17.5540    9.5810 O   0  0  0  0  0  0  0  0  0  0  0  0
    3.9170   15.3270   10.2090 C   0  0  2  0  0  0  0  0  0  0  0  0
    4.2270   14.6530    8.9840 O   0  0  0  0  0  0  0  0  0  0  0  0
    2.9500   14.5150   11.0320 C   0  0  0  0  0  0  0  0  0  0  0  0
    2.2970   13.4860   10.4550 C   0  0  0  0  0  0  0  0  0  0  0  0
    1.3200   12.5940   11.1890 C   0  0  2  0  0  0  0  0  0  0  0  0
    2.0220   11.3110   11.5510 C   0  0  0  0  0  0  0  0  0  0  0  0
    1.8140   10.2860   10.9190 O   0  0  0  0  0  0  0  0  0  0  0  0
    2.9930   11.3110   12.7150 C   0  0  0  0  0  0  0  0  0  0  0  0
    4.2270   10.4580   12.4180 C   0  0  1  0  0  0  0  0  0  0  0  0
    5.4660   10.8240   13.2520 C   0  0  1  0  0  0  0  0  0  0  0  0
    6.1080   12.1680   12.8910 C   0  0  0  0  0  0  0  0  0  0  0  0
    6.5740   12.3240   11.4410 C   0  0  1  0  0  0  0  0  0  0  0  0
    7.2060   13.7110   11.3040 C   0  0  0  0  0  0  0  0  0  0  0  0
    7.7920   13.9780    9.9160 C   0  0  1  0  0  0  0  0  0  0  0  0
    8.5120   15.2120    9.9460 O   0  0  0  0  0  0  0  0  0  0  0  0
    8.7360   12.8610    9.4680 C   0  0  2  0  0  0  0  0  0  0  0  0
    9.1160   13.0780    8.1040 O   0  0  0  0  0  0  0  0  0  0  0  0
    8.1020   11.4790    9.6190 C   0  0  0  0  0  0  0  0  0  0  0  0
    7.5940   11.2510   11.0440 C   0  0  0  0  0  0  0  0  0  0  0  0
    4.0960    7.0440   17.9200 C   0  0  0  0  0  0  0  0  0  0  0  0
   -2.5810   11.2870   13.7630 C   0  0  0  0  0  0  0  0  0  0  0  0
   -1.2340   19.3130   10.7470 C   0  0  0  0  0  0  0  0  0  0  0  0
    0.2110   15.8200    7.9210 C   0  0  0  0  0  0  0  0  0  0  0  0
    2.7480   14.8630   12.4840 C   0  0  0  0  0  0  0  0  0  0  0  0
    0.0980   12.3420   10.3070 C   0  0  0  0  0  0  0  0  0  0  0  0
    5.1890   10.7790   14.7560 C   0  0  0  0  0  0  0  0  0  0  0  0
   -2.3340   11.6320   17.5650 C   0  0  0  0  0  0  0  0  0  0  0  0
    4.3940   18.8620   10.1400 C   0  0  0  0  0  0  0  0  0  0  0  0
    7.9830   16.1840    9.0430 C   0  0  0  0  0  0  0  0  0  0  0  0
    4.9241    6.1490   12.5413 H   0  0  0  0  0  0  0  0  0  0  0  0
    4.2260    6.1803   10.0746 H   0  0  0  0  0  0  0  0  0  0  0  0
    3.5621    4.8425   11.1315 H   0  0  0  0  0  0  0  0  0  0  0  0
    2.0866    7.3108   10.1439 H   0  0  0  0  0  0  0  0  0  0  0  0
    1.8130    5.5978    9.6652 H   0  0  0  0  0  0  0  0  0  0  0  0
    0.1597    6.3687   11.3621 H   0  0  0  0  0  0  0  0  0  0  0  0
    1.1883    5.0309   11.9796 H   0  0  0  0  0  0  0  0  0  0  0  0
    1.6360    8.0197   12.5009 H   0  0  0  0  0  0  0  0  0  0  0  0
    0.9439    6.8470   13.6689 H   0  0  0  0  0  0  0  0  0  0  0  0
    1.6846    6.9600   18.3987 H   0  0  0  0  0  0  0  0  0  0  0  0
    3.8751    8.1132   16.0878 H   0  0  0  0  0  0  0  0  0  0  0  0
    2.3776    9.0111   18.5985 H   0  0  0  0  0  0  0  0  0  0  0  0
    3.8273    9.7847   17.8328 H   0  0  0  0  0  0  0  0  0  0  0  0
    1.6439   10.9518   17.3527 H   0  0  0  0  0  0  0  0  0  0  0  0
    2.5631   10.4068   15.8923 H   0  0  0  0  0  0  0  0  0  0  0  0
    0.1397    9.1005   17.1715 H   0  0  0  0  0  0  0  0  0  0  0  0
    0.7502   10.5076   14.5336 H   0  0  0  0  0  0  0  0  0  0  0  0
   -0.6595    9.3440   14.7386 H   0  0  0  0  0  0  0  0  0  0  0  0
   -0.2862   11.9069   16.3419 H   0  0  0  0  0  0  0  0  0  0  0  0
   -0.1840   13.5471   14.8885 H   0  0  0  0  0  0  0  0  0  0  0  0
   -2.2056   13.5524   12.4320 H   0  0  0  0  0  0  0  0  0  0  0  0
   -0.1936   15.5476   13.6608 H   0  0  0  0  0  0  0  0  0  0  0  0
   -2.2758   15.7939   11.2730 H   0  0  0  0  0  0  0  0  0  0  0  0
    0.3665   17.2022   12.0355 H   0  0  0  0  0  0  0  0  0  0  0  0
   -1.7649   17.4850    9.7721 H   0  0  0  0  0  0  0  0  0  0  0  0
   -0.0709   18.3423    8.3431 H   0  0  0  0  0  0  0  0  0  0  0  0
    1.0668   18.5759    9.7545 H   0  0  0  0  0  0  0  0  0  0  0  0
    0.8037   15.9635    9.9563 H   0  0  0  0  0  0  0  0  0  0  0  0
    2.8500   17.1144   10.7802 H   0  0  0  0  0  0  0  0  0  0  0  0
    4.8297   15.4372   10.8131 H   0  0  0  0  0  0  0  0  0  0  0  0
    4.6320   13.7724    9.1852 H   0  0  0  0  0  0  0  0  0  0  0  0
    2.4853   13.2836    9.3903 H   0  0  0  0  0  0  0  0  0  0  0  0
    0.9689   13.0744   12.1142 H   0  0  0  0  0  0  0  0  0  0  0  0
    3.3127   12.3447   12.9133 H   0  0  0  0  0  0  0  0  0  0  0  0
    2.4815   10.8836   13.5900 H   0  0  0  0  0  0  0  0  0  0  0  0
    4.5106   10.6259   11.3685 H   0  0  0  0  0  0  0  0  0  0  0  0
    6.1941   10.0425   12.9890 H   0  0  0  0  0  0  0  0  0  0  0  0
    5.3701   12.9582   13.0937 H   0  0  0  0  0  0  0  0  0  0  0  0
    7.0196   12.2338   13.5030 H   0  0  0  0  0  0  0  0  0  0  0  0
    5.7087   12.2073   10.7719 H   0  0  0  0  0  0  0  0  0  0  0  0
    6.4339   14.4675   11.5078 H   0  0  0  0  0  0  0  0  0  0  0  0
    8.0375   13.7611   12.0224 H   0  0  0  0  0  0  0  0  0  0  0  0
    6.9590   14.0245    9.1991 H   0  0  0  0  0  0  0  0  0  0  0  0
    9.6238   12.8873   10.1169 H   0  0  0  0  0  0  0  0  0  0  0  0
    9.9753   13.5687    8.0749 H   0  0  0  0  0  0  0  0  0  0  0  0
    7.2569   11.3945    8.9199 H   0  0  0  0  0  0  0  0  0  0  0  0
    8.8678   10.7207    9.3988 H   0  0  0  0  0  0  0  0  0  0  0  0
    8.4451   11.2886   11.7398 H   0  0  0  0  0  0  0  0  0  0  0  0
    7.1036   10.2674   11.0884 H   0  0  0  0  0  0  0  0  0  0  0  0
    3.8491    7.2974   18.9616 H   0  0  0  0  0  0  0  0  0  0  0  0
    3.8777    5.9811   17.7396 H   0  0  0  0  0  0  0  0  0  0  0  0
    5.1642    7.2347   17.7396 H   0  0  0  0  0  0  0  0  0  0  0  0
   -3.3305   10.8591   14.4451 H   0  0  0  0  0  0  0  0  0  0  0  0
   -3.0557   12.0502   13.1288 H   0  0  0  0  0  0  0  0  0  0  0  0
   -2.1651   10.4902   13.1288 H   0  0  0  0  0  0  0  0  0  0  0  0
   -1.2421   19.3457   11.8465 H   0  0  0  0  0  0  0  0  0  0  0  0
   -0.4840   20.0210   10.3646 H   0  0  0  0  0  0  0  0  0  0  0  0
   -2.2277   19.5894   10.3646 H   0  0  0  0  0  0  0  0  0  0  0  0
   -0.4846   15.0852    8.3525 H   0  0  0  0  0  0  0  0  0  0  0  0
   -0.3492   16.5347    7.3002 H   0  0  0  0  0  0  0  0  0  0  0  0
    0.9553   15.2997    7.3002 H   0  0  0  0  0  0  0  0  0  0  0  0
    3.2006   14.0833   13.1143 H   0  0  0  0  0  0  0  0  0  0  0  0
    3.2247   15.8308   12.6989 H   0  0  0  0  0  0  0  0  0  0  0  0
    1.6712   14.9290   12.6989 H   0  0  0  0  0  0  0  0  0  0  0  0
   -0.7815   12.1606   10.9422 H   0  0  0  0  0  0  0  0  0  0  0  0
   -0.0835   13.2216    9.6719 H   0  0  0  0  0  0  0  0  0  0  0  0
    0.2793   11.4623    9.6719 H   0  0  0  0  0  0  0  0  0  0  0  0
    6.1289   10.9317   15.3067 H   0  0  0  0  0  0  0  0  0  0  0  0
    4.4754   11.5730   15.0213 H   0  0  0  0  0  0  0  0  0  0  0  0
    4.7635    9.8000   15.0213 H   0  0  0  0  0  0  0  0  0  0  0  0
   -2.1581   11.2539   18.5829 H   0  0  0  0  0  0  0  0  0  0  0  0
   -1.7808   12.5720   17.4223 H   0  0  0  0  0  0  0  0  0  0  0  0
   -3.4094   11.8142   17.4223 H   0  0  0  0  0  0  0  0  0  0  0  0
    4.4000   18.7934   11.2378 H   0  0  0  0  0  0  0  0  0  0  0  0
    5.2418   19.4784    9.8065 H   0  0  0  0  0  0  0  0  0  0  0  0
    3.4523   19.3225    9.8065 H   0  0  0  0  0  0  0  0  0  0  0  0
    7.5338   17.0094    9.6147 H   0  0  0  0  0  0  0  0  0  0  0  0
    8.7928   16.5749    8.4094 H   0  0  0  0  0  0  0  0  0  0  0  0
    7.2150   15.7162    8.4094 H   0  0  0  0  0  0  0  0  0  0  0  0
  1  2  1  0
  1  3  2  0
  1  4  1  0
  4  5  1  0
  5  6  1  0
  6  7  1  0
  7  8  1  0
  4  9  1  0
  8  9  1  0
  9 10  1  0
 10 11  2  0
 10 12  1  0
 12 13  2  0
 12 14  1  0
 14 15  1  0
 14 16  1  1
 14 17  1  0
 17 18  1  0
 18 19  1  0
 15 20  1  0
 19 20  1  0
 20 21  1  0
 21 22  1  0
 22 23  1  0
 22 24  1  0
 24 25  2  0
 25 26  1  0
 26 27  2  0
 27 28  1  0
 28 29  2  0
 29 30  1  0
 30 31  1  0
 31 32  1  0
 32 33  1  0
 33 34  2  0
 33 35  1  0
 35 36  1  0
 35 37  1  0
 37 38  1  0
 37 39  1  0
 39 40  2  0
 40 41  1  0
 41 42  1  0
 42 43  2  0
 42 44  1  0
  2 45  1  0
 44 45  1  0
 45 46  1  0
 46 47  1  0
 47 48  1  0
 48 49  1  0
 49 50  1  0
 50 51  1  0
 50 52  1  0
 52 53  1  0
 52 54  1  0
 48 55  1  0
 54 55  1  0
 17 56  1  0
 24 57  1  0
 30 58  1  0
 32 59  1  0
 39 60  1  0
 41 61  1  0
 46 62  1  0
 23 63  1  0
 36 64  1  0
 51 65  1  0
  4 66  1  1
  5 67  1  0
  5 68  1  0
  6 69  1  0
  6 70  1  0
  7 71  1  0
  7 72  1  0
  8 73  1  0
  8 74  1  0
 16 75  1  0
 17 76  1  6
 18 77  1  0
 18 78  1  0
 19 79  1  0
 19 80  1  0
 20 81  1  1
 21 82  1  0
 21 83  1  0
 22 84  1  1
 25 85  1  0
 26 86  1  0
 27 87  1  0
 28 88  1  0
 29 89  1  0
 30 90  1  6
 31 91  1  0
 31 92  1  0
 32 93  1  1
 35 94  1  1
 37 95  1  1
 38 96  1  0
 40 97  1  0
 41 98  1  1
 44 99  1  0
 44100  1  0
 45101  1  6
 46102  1  1
 47103  1  0
 47104  1  0
 48105  1  6
 49106  1  0
 49107  1  0
 50108  1  6
 52109  1  1
 53110  1  0
 54111  1  0
 54112  1  0
 55113  1  0
 55114  1  0
 56115  1  0
 56116  1  0
 56117  1  0
 57118  1  0
 57119  1  0
 57120  1  0
 58121  1  0
 58122  1  0
 58123  1  0
 59124  1  0
 59125  1  0
 59126  1  0
 60127  1  0
 60128  1  0
 60129  1  0
 61130  1  0
 61131  1  0
 61132  1  0
 62133  1  0
 62134  1  0
 62135  1  0
 63136  1  0
 63137  1  0
 63138  1  0
 64139  1  0
 64140  1  0
 64141  1  0
 65142  1  0
 65143  1  0
 65144  1  0
M  END
>  <PDBID>  (1) 
2DG4

>  <PDB ID>  (1) 
2DG4

>  <Generic Name>  (1) 
Sirolimus

>  <Brand Name>  (1) 
Gd-sirolimus#Rapamune#Rapamune Oral Solution#Sirolimus

>  <DrugBank ID>  (1) 
DB00877

>  <ATC Codes>  (1) 
S01XA23#L04AA10

>  <Ligand ID>  (1) 
RAP

>  <Target Name>  (1) 
Peptidyl-prolyl cis-trans isomerase FKBP1A

>  <UniProt ID>  (1) 
P62942

>  <PDB ID.1>  (1) 
2DG4

>  <Seq. Identity>  (1) 
99%

$$$$
