PDB_DB00759_93
     RDKit          3D

 56 59  0  0  0  0  0  0  0  0999 V2000
  -17.2770  191.9100   19.8730 C   0  0  0  0  0  0  0  0  0  0  0  0
  -16.4950  191.3850   20.6590 O   0  0  0  0  0  0  0  0  0  0  0  0
  -17.0030  191.9880   18.4430 C   0  0  0  0  0  0  0  0  0  0  0  0
  -16.2590  190.9090   17.7810 C   0  0  0  0  0  0  0  0  0  0  0  0
  -16.3520  190.7420   16.5760 O   0  0  0  0  0  0  0  0  0  0  0  0
  -15.4760  190.1230   18.5210 N   0  0  0  0  0  0  0  0  0  0  0  0
  -17.4330  193.0610   17.7630 C   0  0  0  0  0  0  0  0  0  0  0  0
  -17.1860  193.1460   16.4560 O   0  0  0  0  0  0  0  0  0  0  0  0
  -18.1930  194.1990   18.4140 C   0  0  1  0  0  0  0  0  0  0  0  0
  -19.4250  194.4500   17.6390 N   0  0  0  0  0  0  0  0  0  0  0  0
  -20.4590  193.4420   17.9090 C   0  0  0  0  0  0  0  0  0  0  0  0
  -19.9410  195.7880   17.9730 C   0  0  0  0  0  0  0  0  0  0  0  0
  -18.4750  193.9880   19.9070 C   0  0  2  0  0  0  0  0  0  0  0  0
  -17.3310  194.6030   20.6930 C   0  0  0  0  0  0  0  0  0  0  0  0
  -17.5990  194.6060   22.1930 C   0  0  2  0  0  0  0  0  0  0  0  0
  -16.2940  194.7910   22.9770 C   0  0  2  0  0  0  0  0  0  0  0  0
  -15.5600  196.0360   22.5010 C   0  0  0  0  0  0  0  0  0  0  0  0
  -15.4290  193.6580   22.8000 O   0  0  0  0  0  0  0  0  0  0  0  0
  -16.6570  194.9650   24.4270 C   0  0  0  0  0  0  0  0  0  0  0  0
  -15.9760  195.8700   25.2330 C   0  0  0  0  0  0  0  0  0  0  0  0
  -16.3270  196.0350   26.5730 C   0  0  0  0  0  0  0  0  0  0  0  0
  -17.3640  195.3160   27.1690 C   0  0  0  0  0  0  0  0  0  0  0  0
  -18.1060  194.3880   26.4450 C   0  0  0  0  0  0  0  0  0  0  0  0
  -19.1120  193.7070   27.0640 O   0  0  0  0  0  0  0  0  0  0  0  0
  -17.7750  194.1770   25.0080 C   0  0  0  0  0  0  0  0  0  0  0  0
  -18.4930  193.2030   24.1130 C   0  0  0  0  0  0  0  0  0  0  0  0
  -19.1980  192.3110   24.5680 O   0  0  0  0  0  0  0  0  0  0  0  0
  -18.3030  193.3580   22.6670 C   0  0  0  0  0  0  0  0  0  0  0  0
  -18.7440  192.4100   21.8290 C   0  0  0  0  0  0  0  0  0  0  0  0
  -19.3490  191.3350   22.3470 O   0  0  0  0  0  0  0  0  0  0  0  0
  -18.5670  192.5320   20.3240 C   0  0  2  0  0  0  0  0  0  0  0  0
  -19.6500  191.8980   19.6300 O   0  0  0  0  0  0  0  0  0  0  0  0
  -14.9452  189.3601   18.0771 H   0  0  0  0  0  0  0  0  0  0  0  0
  -15.4021  190.2789   19.5365 H   0  0  0  0  0  0  0  0  0  0  0  0
  -17.4984  193.9332   15.9434 H   0  0  0  0  0  0  0  0  0  0  0  0
  -17.5512  195.0920   18.3904 H   0  0  0  0  0  0  0  0  0  0  0  0
  -20.5806  193.3235   18.9958 H   0  0  0  0  0  0  0  0  0  0  0  0
  -21.4123  193.7670   17.4667 H   0  0  0  0  0  0  0  0  0  0  0  0
  -20.1584  192.4808   17.4667 H   0  0  0  0  0  0  0  0  0  0  0  0
  -19.9848  195.9017   19.0662 H   0  0  0  0  0  0  0  0  0  0  0  0
  -19.2738  196.5541   17.5511 H   0  0  0  0  0  0  0  0  0  0  0  0
  -20.9498  195.9078   17.5511 H   0  0  0  0  0  0  0  0  0  0  0  0
  -19.4516  194.4524   20.1083 H   0  0  0  0  0  0  0  0  0  0  0  0
  -16.4159  194.0246   20.4978 H   0  0  0  0  0  0  0  0  0  0  0  0
  -17.2213  195.6480   20.3676 H   0  0  0  0  0  0  0  0  0  0  0  0
  -18.2712  195.4556   22.3839 H   0  0  0  0  0  0  0  0  0  0  0  0
  -15.2184  196.6155   23.3713 H   0  0  0  0  0  0  0  0  0  0  0  0
  -14.6918  195.7401   21.8938 H   0  0  0  0  0  0  0  0  0  0  0  0
  -16.2392  196.6524   21.8938 H   0  0  0  0  0  0  0  0  0  0  0  0
  -15.1605  193.3063   23.6856 H   0  0  0  0  0  0  0  0  0  0  0  0
  -15.1515  196.4624   24.8096 H   0  0  0  0  0  0  0  0  0  0  0  0
  -15.7656  196.7586   27.1824 H   0  0  0  0  0  0  0  0  0  0  0  0
  -17.5990  195.4860   28.2301 H   0  0  0  0  0  0  0  0  0  0  0  0
  -19.6459  193.0446   26.5578 H   0  0  0  0  0  0  0  0  0  0  0  0
  -19.6842  190.6199   21.7500 H   0  0  0  0  0  0  0  0  0  0  0  0
  -20.2890  191.5239   20.2871 H   0  0  0  0  0  0  0  0  0  0  0  0
  2  1  2  0
  3  1  1  0
  4  3  1  0
  5  4  2  0
  6  4  1  0
  7  3  2  0
  8  7  1  0
  9  7  1  0
 10  9  1  0
 11 10  1  0
 12 10  1  0
 13  9  1  0
 14 13  1  0
 15 14  1  0
 16 15  1  0
 17 16  1  0
 16 18  1  1
 19 16  1  0
 20 19  2  0
 21 20  1  0
 22 21  2  0
 23 22  1  0
 24 23  1  0
 25 23  2  0
 25 19  1  0
 26 25  1  0
 27 26  2  0
 28 26  1  0
 28 15  1  0
 29 28  2  0
 30 29  1  0
 31 13  1  0
 31  1  1  0
 31 29  1  0
 31 32  1  6
  6 33  1  0
  6 34  1  0
  8 35  1  0
  9 36  1  1
 11 37  1  0
 11 38  1  0
 11 39  1  0
 12 40  1  0
 12 41  1  0
 12 42  1  0
 13 43  1  1
 14 44  1  0
 14 45  1  0
 15 46  1  6
 17 47  1  0
 17 48  1  0
 17 49  1  0
 18 50  1  0
 20 51  1  0
 21 52  1  0
 22 53  1  0
 24 54  1  0
 30 55  1  0
 32 56  1  0
M  END
$$$$
