PDB_DB09053_99
     RDKit          3D

 81 85  0  0  0  0  0  0  0  0999 V2000
  -17.8880    4.6450  -18.8150 N   0  0  0  0  0  0  0  0  0  0  0  0
  -16.8740    4.8110  -19.6620 C   0  0  0  0  0  0  0  0  0  0  0  0
  -15.7450    5.4300  -19.3760 N   0  0  0  0  0  0  0  0  0  0  0  0
  -15.5510    5.7860  -18.1270 C   0  0  0  0  0  0  0  0  0  0  0  0
  -16.5410    5.5770  -17.1440 C   0  0  0  0  0  0  0  0  0  0  0  0
  -17.7510    4.9880  -17.5440 C   0  0  1  0  0  0  0  0  0  0  0  0
  -10.1300   10.7880  -20.5380 C   0  0  0  0  0  0  0  0  0  0  0  0
  -18.8270    4.8480  -16.7260 N   0  0  0  0  0  0  0  0  0  0  0  0
  -12.8240    9.1000  -20.9970 O   0  0  0  0  0  0  0  0  0  0  0  0
  -10.4790    9.3260  -20.7830 C   0  0  0  0  0  0  0  0  0  0  0  0
  -21.0590    8.2480   -9.1780 C   0  0  0  0  0  0  0  0  0  0  0  0
  -21.1340    7.8540  -10.5130 C   0  0  0  0  0  0  0  0  0  0  0  0
  -19.9970    7.8370   -8.3820 C   0  0  0  0  0  0  0  0  0  0  0  0
  -20.1180    7.1090  -11.0850 C   0  0  0  0  0  0  0  0  0  0  0  0
  -19.0310    6.9970   -8.9230 C   0  0  0  0  0  0  0  0  0  0  0  0
  -17.4050    4.7700  -12.7110 C   0  0  0  0  0  0  0  0  0  0  0  0
  -17.2160    7.1840  -12.5520 C   0  0  0  0  0  0  0  0  0  0  0  0
  -16.8980    4.8380  -13.9970 C   0  0  0  0  0  0  0  0  0  0  0  0
  -16.7100    7.2510  -13.8250 C   0  0  0  0  0  0  0  0  0  0  0  0
  -10.7360    7.0010  -17.7520 C   0  0  0  0  0  0  0  0  0  0  0  0
  -12.0760    6.3520  -17.3160 C   0  0  0  0  0  0  0  0  0  0  0  0
  -10.8810    8.5210  -17.9630 C   0  0  0  0  0  0  0  0  0  0  0  0
  -13.3220    8.3180  -18.3910 C   0  0  0  0  0  0  0  0  0  0  0  0
  -14.8050    6.5790  -16.2010 N   0  0  0  0  0  0  0  0  0  0  0  0
  -18.0370    5.8750  -10.7130 O   0  0  0  0  0  0  0  0  0  0  0  0
  -11.8610    9.0490  -20.2320 C   0  0  0  0  0  0  0  0  0  0  0  0
  -19.0510    6.6850  -10.2750 C   0  0  1  0  0  0  0  0  0  0  0  0
  -17.5770    5.9520  -11.9980 C   0  0  1  0  0  0  0  0  0  0  0  0
  -16.5580    6.0680  -14.5570 C   0  0  0  0  0  0  0  0  0  0  0  0
  -15.9840    6.0930  -15.9090 C   0  0  0  0  0  0  0  0  0  0  0  0
  -13.2760    6.7860  -18.1860 C   0  0  2  0  0  0  0  0  0  0  0  0
  -14.5220    6.4090  -17.5340 N   0  0  0  0  0  0  0  0  0  0  0  0
  -12.0020    8.7010  -18.9280 N   0  0  0  0  0  0  0  0  0  0  0  0
  -18.6785    5.1907  -19.1868 H   0  0  0  0  0  0  0  0  0  0  0  0
  -16.5823    3.7971  -19.9732 H   0  0  0  0  0  0  0  0  0  0  0  0
  -17.3199    5.5264  -20.3686 H   0  0  0  0  0  0  0  0  0  0  0  0
  -14.9726    4.8026  -19.6420 H   0  0  0  0  0  0  0  0  0  0  0  0
  -15.9754    6.7774  -18.3437 H   0  0  0  0  0  0  0  0  0  0  0  0
  -16.9575    6.5737  -17.3516 H   0  0  0  0  0  0  0  0  0  0  0  0
  -17.3406    3.9924  -17.3196 H   0  0  0  0  0  0  0  0  0  0  0  0
  -10.0847   10.9777  -19.4554 H   0  0  0  0  0  0  0  0  0  0  0  0
   -9.1530   11.0126  -20.9908 H   0  0  0  0  0  0  0  0  0  0  0  0
  -10.9002   11.4297  -20.9908 H   0  0  0  0  0  0  0  0  0  0  0  0
  -18.5192    4.8881  -15.7439 H   0  0  0  0  0  0  0  0  0  0  0  0
  -19.4972    5.6089  -16.9070 H   0  0  0  0  0  0  0  0  0  0  0  0
  -13.6614    9.1444  -20.4708 H   0  0  0  0  0  0  0  0  0  0  0  0
  -10.4648    9.1197  -21.8634 H   0  0  0  0  0  0  0  0  0  0  0  0
   -9.7433    8.6798  -20.2818 H   0  0  0  0  0  0  0  0  0  0  0  0
  -21.0494    9.3479   -9.1737 H   0  0  0  0  0  0  0  0  0  0  0  0
  -21.9222    7.7422   -8.7209 H   0  0  0  0  0  0  0  0  0  0  0  0
  -22.0549    7.2611  -10.6150 H   0  0  0  0  0  0  0  0  0  0  0  0
  -21.0750    8.8090  -11.0556 H   0  0  0  0  0  0  0  0  0  0  0  0
  -19.4790    8.7460   -8.0423 H   0  0  0  0  0  0  0  0  0  0  0  0
  -20.4744    7.2215   -7.6053 H   0  0  0  0  0  0  0  0  0  0  0  0
  -20.5796    6.2058  -11.5105 H   0  0  0  0  0  0  0  0  0  0  0  0
  -19.6502    7.8019  -11.7999 H   0  0  0  0  0  0  0  0  0  0  0  0
  -18.0563    7.4653   -8.7212 H   0  0  0  0  0  0  0  0  0  0  0  0
  -19.2428    6.0310   -8.4413 H   0  0  0  0  0  0  0  0  0  0  0  0
  -18.3901    4.2849  -12.7764 H   0  0  0  0  0  0  0  0  0  0  0  0
  -16.6318    4.2277  -12.1471 H   0  0  0  0  0  0  0  0  0  0  0  0
  -16.4553    7.6185  -11.8867 H   0  0  0  0  0  0  0  0  0  0  0  0
  -18.1788    7.7088  -12.6394 H   0  0  0  0  0  0  0  0  0  0  0  0
  -15.9863    4.2226  -14.0098 H   0  0  0  0  0  0  0  0  0  0  0  0
  -17.7458    4.5091  -14.6159 H   0  0  0  0  0  0  0  0  0  0  0  0
  -17.3789    7.9048  -14.4039 H   0  0  0  0  0  0  0  0  0  0  0  0
  -15.6792    7.6069  -13.6811 H   0  0  0  0  0  0  0  0  0  0  0  0
   -9.9817    6.8197  -16.9722 H   0  0  0  0  0  0  0  0  0  0  0  0
  -10.4312    6.5496  -18.7077 H   0  0  0  0  0  0  0  0  0  0  0  0
  -11.9729    5.2589  -17.3835 H   0  0  0  0  0  0  0  0  0  0  0  0
  -12.2808    6.6860  -16.2882 H   0  0  0  0  0  0  0  0  0  0  0  0
  -11.1147    9.0178  -17.0098 H   0  0  0  0  0  0  0  0  0  0  0  0
   -9.9489    8.9638  -18.3439 H   0  0  0  0  0  0  0  0  0  0  0  0
  -14.1158    8.5836  -19.1047 H   0  0  0  0  0  0  0  0  0  0  0  0
  -13.5390    8.8423  -17.4487 H   0  0  0  0  0  0  0  0  0  0  0  0
  -14.7901    7.5846  -15.9785 H   0  0  0  0  0  0  0  0  0  0  0  0
  -11.7372    7.9798  -20.4591 H   0  0  0  0  0  0  0  0  0  0  0  0
  -18.5112    7.6171  -10.4981 H   0  0  0  0  0  0  0  0  0  0  0  0
  -16.5664    5.8451  -11.5771 H   0  0  0  0  0  0  0  0  0  0  0  0
  -17.5824    6.1753  -14.9432 H   0  0  0  0  0  0  0  0  0  0  0  0
  -15.5292    5.1125  -15.7045 H   0  0  0  0  0  0  0  0  0  0  0  0
  -13.1558    6.2869  -19.1588 H   0  0  0  0  0  0  0  0  0  0  0  0
  1  2  1  0
  2  3  1  0
  3  4  1  0
  4  5  1  0
  1  6  1  0
  5  6  1  0
  6  8  1  0
  7 10  1  0
 11 12  1  0
 11 13  1  0
 12 14  1  0
 13 15  1  0
 16 18  1  0
 17 19  1  0
 20 21  1  0
 20 22  1  0
  9 26  1  0
 10 26  1  0
 14 27  1  0
 15 27  1  0
 25 27  1  0
 16 28  1  0
 17 28  1  0
 25 28  1  0
 18 29  1  0
 19 29  1  0
  5 30  1  0
 24 30  1  0
 29 30  1  0
 21 31  1  0
 23 31  1  0
  4 32  1  0
 24 32  1  0
 31 32  1  0
 22 33  1  0
 23 33  1  0
 26 33  1  0
  1 34  1  0
  2 35  1  0
  2 36  1  0
  3 37  1  0
  4 38  1  0
  5 39  1  0
  6 40  1  1
  7 41  1  0
  7 42  1  0
  7 43  1  0
  8 44  1  0
  8 45  1  0
  9 46  1  0
 10 47  1  0
 10 48  1  0
 11 49  1  0
 11 50  1  0
 12 51  1  0
 12 52  1  0
 13 53  1  0
 13 54  1  0
 14 55  1  0
 14 56  1  0
 15 57  1  0
 15 58  1  0
 16 59  1  0
 16 60  1  0
 17 61  1  0
 17 62  1  0
 18 63  1  0
 18 64  1  0
 19 65  1  0
 19 66  1  0
 20 67  1  0
 20 68  1  0
 21 69  1  0
 21 70  1  0
 22 71  1  0
 22 72  1  0
 23 73  1  0
 23 74  1  0
 24 75  1  0
 26 76  1  0
 27 77  1  6
 28 78  1  6
 29 79  1  0
 30 80  1  0
 31 81  1  6
M  END
>  <PDBID>  (1) 
5P9I

>  <PDB ID>  (1) 
5P9I

>  <Generic Name>  (1) 
Ibrutinib

>  <Brand Name>  (1) 
Imbruvica

>  <DrugBank ID>  (1) 
DB09053

>  <ATC Codes>  (1) 
L01XE27

>  <Ligand ID>  (1) 
1E8

>  <Target Name>  (1) 
Tyrosine-protein kinase BTK

>  <UniProt ID>  (1) 
Q06187

>  <PDB ID.1>  (1) 
5P9I

>  <Seq. Identity>  (1) 
100%

$$$$
