PDB_DB00624_97
     RDKit          3D

 49 52  0  0  0  0  0  0  0  0999 V2000
   27.6850    5.0120    4.4130 C   0  0  0  0  0  0  0  0  0  0  0  0
   26.9220    6.2940    4.7310 C   0  0  0  0  0  0  0  0  0  0  0  0
   25.4910    6.1600    4.2690 C   0  0  0  0  0  0  0  0  0  0  0  0
   24.8660    7.1580    3.9160 O   0  0  0  0  0  0  0  0  0  0  0  0
   24.8600    4.8270    4.2350 C   0  0  0  0  0  0  0  0  0  0  0  0
   25.5390    3.7050    4.5450 C   0  0  0  0  0  0  0  0  0  0  0  0
   24.7900    2.3930    4.5480 C   0  0  0  0  0  0  0  0  0  0  0  0
   25.5860    1.3000    3.8400 C   0  0  0  0  0  0  0  0  0  0  0  0
   26.9770    1.1770    4.4460 C   0  0  2  0  0  0  0  0  0  0  0  0
   27.7520    2.5080    4.3470 C   0  0  1  0  0  0  0  0  0  0  0  0
   27.0030    3.7290    4.9390 C   0  0  1  0  0  0  0  0  0  0  0  0
   29.1800    2.3490    4.9090 C   0  0  0  0  0  0  0  0  0  0  0  0
   29.9420    1.1950    4.2670 C   0  0  0  0  0  0  0  0  0  0  0  0
   29.1770   -0.1240    4.3790 C   0  0  1  0  0  0  0  0  0  0  0  0
   27.7870    0.0570    3.7780 C   0  0  1  0  0  0  0  0  0  0  0  0
   27.2290   -1.3710    3.7520 C   0  0  0  0  0  0  0  0  0  0  0  0
   28.4550   -2.2260    3.3910 C   0  0  0  0  0  0  0  0  0  0  0  0
   29.6720   -1.2860    3.5110 C   0  0  2  0  0  0  0  0  0  0  0  0
   30.8140   -1.9670    4.0240 O   0  0  0  0  0  0  0  0  0  0  0  0
   29.1390   -0.5430    5.8580 C   0  0  0  0  0  0  0  0  0  0  0  0
   26.9810    3.7470    6.4750 C   0  0  0  0  0  0  0  0  0  0  0  0
   27.7824    4.9292    3.3205 H   0  0  0  0  0  0  0  0  0  0  0  0
   28.6583    5.0863    4.9200 H   0  0  0  0  0  0  0  0  0  0  0  0
   26.9411    6.4716    5.8164 H   0  0  0  0  0  0  0  0  0  0  0  0
   27.3959    7.1395    4.2109 H   0  0  0  0  0  0  0  0  0  0  0  0
   23.8013    4.7463    3.9474 H   0  0  0  0  0  0  0  0  0  0  0  0
   24.6074    2.0867    5.5886 H   0  0  0  0  0  0  0  0  0  0  0  0
   23.8398    2.5338    4.0121 H   0  0  0  0  0  0  0  0  0  0  0  0
   25.0583    0.3408    3.9469 H   0  0  0  0  0  0  0  0  0  0  0  0
   25.6830    1.5625    2.7762 H   0  0  0  0  0  0  0  0  0  0  0  0
   26.8398    0.9242    5.5077 H   0  0  0  0  0  0  0  0  0  0  0  0
   27.8311    2.7430    3.2753 H   0  0  0  0  0  0  0  0  0  0  0  0
   29.7351    3.2811    4.7273 H   0  0  0  0  0  0  0  0  0  0  0  0
   29.0909    2.1303    5.9833 H   0  0  0  0  0  0  0  0  0  0  0  0
   30.1036    1.4234    3.2032 H   0  0  0  0  0  0  0  0  0  0  0  0
   30.8990    1.0808    4.7973 H   0  0  0  0  0  0  0  0  0  0  0  0
   27.7620    0.4605    2.7550 H   0  0  0  0  0  0  0  0  0  0  0  0
   26.8272   -1.6546    4.7359 H   0  0  0  0  0  0  0  0  0  0  0  0
   26.3962   -1.4939    3.0440 H   0  0  0  0  0  0  0  0  0  0  0  0
   28.5525   -3.0702    4.0895 H   0  0  0  0  0  0  0  0  0  0  0  0
   28.3692   -2.6507    2.3799 H   0  0  0  0  0  0  0  0  0  0  0  0
   30.0274   -0.9096    2.5404 H   0  0  0  0  0  0  0  0  0  0  0  0
   30.7899   -1.9526    5.0136 H   0  0  0  0  0  0  0  0  0  0  0  0
   29.2200    0.3505    6.4944 H   0  0  0  0  0  0  0  0  0  0  0  0
   28.1904   -1.0585    6.0688 H   0  0  0  0  0  0  0  0  0  0  0  0
   29.9794   -1.2208    6.0688 H   0  0  0  0  0  0  0  0  0  0  0  0
   27.7783    3.0947    6.8608 H   0  0  0  0  0  0  0  0  0  0  0  0
   27.1432    4.7747    6.8320 H   0  0  0  0  0  0  0  0  0  0  0  0
   26.0057    3.3845    6.8320 H   0  0  0  0  0  0  0  0  0  0  0  0
  1  2  1  0
  2  3  1  0
  3  4  2  0
  3  5  1  0
  5  6  2  0
  6  7  1  0
  7  8  1  0
  8  9  1  0
  9 10  1  0
  1 11  1  0
  6 11  1  0
 10 11  1  0
 10 12  1  0
 12 13  1  0
 13 14  1  0
  9 15  1  0
 14 15  1  0
 15 16  1  0
 16 17  1  0
 14 18  1  0
 17 18  1  0
 18 19  1  0
 14 20  1  1
 11 21  1  1
  1 22  1  0
  1 23  1  0
  2 24  1  0
  2 25  1  0
  5 26  1  0
  7 27  1  0
  7 28  1  0
  8 29  1  0
  8 30  1  0
  9 31  1  1
 10 32  1  6
 12 33  1  0
 12 34  1  0
 13 35  1  0
 13 36  1  0
 15 37  1  6
 16 38  1  0
 16 39  1  0
 17 40  1  0
 17 41  1  0
 18 42  1  6
 19 43  1  0
 20 44  1  0
 20 45  1  0
 20 46  1  0
 21 47  1  0
 21 48  1  0
 21 49  1  0
M  END
>  <PDBID>  (1) 
2Q7I

>  <PDB ID>  (1) 
2Q7I

>  <Generic Name>  (1) 
Testosterone

>  <Brand Name>  (1) 
Andriol#Androderm#Androgel#Aveed#Axiron#Delatestryl#Depo-testosterone#Depo-testosterone Inj 100mg/ml#Fortesta#Malogen Aqueous 100 Sus 100mg/ml#Malogex La200 Liq 200mg/ml#Natesto#Neo Pause Injection#PMS-testosterone#PMS-testosterone Enanthate Inj 200mg/ml USP#Scheinpharm Testone-cyp Inject.- Im 100mg/ml#Striant#Taro-testosterone#Testim#Testim 1%#Testopel#Testosterone#Testosterone Cypionate#Testosterone Cypionate Injection USP#Testosterone Cypionate Injection, USP#Testosterone Enanthate#Testosterone Enanthate Inj 200mg/ml#Vogelxo#Andronate 100#Andronate 200#Andropatch#Andropository 200#Andryl 200#Bio-T-Gel#Fortigel#Intrinsa#Livensa#Nebido#Sustanon#Testamone 100#Testaqua IM#Testoderm#Testoderm TTS#Testogel#Testolin#Testopatch#Testopel Pellets#Testrin-P.A#Testro AQ#Tostrelle#Tostrex#Virormone

>  <DrugBank ID>  (1) 
DB00624

>  <ATC Codes>  (1) 
G03EA02#G03BA03

>  <Ligand ID>  (1) 
TES

>  <Target Name>  (1) 
Androgen receptor

>  <UniProt ID>  (1) 
P10275

>  <PDB ID.1>  (1) 
2Q7I

>  <Seq. Identity>  (1) 
100%

$$$$
