PDB_DB08865_96
     RDKit          3D

 68 71  0  0  0  0  0  0  0  0999 V2000
   18.3190   84.5690    3.5460 Cl  0  0  0  0  0  0  0  0  0  0  0  0
   18.1880   83.5860    4.9680 C   0  0  0  0  0  0  0  0  0  0  0  0
   17.7190   82.2880    4.7140 C   0  0  0  0  0  0  0  0  0  0  0  0
   17.5350   81.3810    5.7410 C   0  0  0  0  0  0  0  0  0  0  0  0
   17.8350   81.7940    7.0210 C   0  0  0  0  0  0  0  0  0  0  0  0
   17.6610   80.9190    8.0020 F   0  0  0  0  0  0  0  0  0  0  0  0
   18.5060   84.0320    6.2790 C   0  0  0  0  0  0  0  0  0  0  0  0
   18.3160   83.0790    7.3080 C   0  0  0  0  0  0  0  0  0  0  0  0
   18.6180   83.3970    8.9860 Cl  0  0  0  0  0  0  0  0  0  0  0  0
   19.0330   85.4490    6.5390 C   0  0  1  0  0  0  0  0  0  0  0  0
   18.1170   86.2490    7.4610 C   0  0  0  0  0  0  0  0  0  0  0  0
   20.3420   85.4420    7.1510 O   0  0  0  0  0  0  0  0  0  0  0  0
   21.5270   85.1380    6.5080 C   0  0  0  0  0  0  0  0  0  0  0  0
   21.7440   84.7620    5.1640 C   0  0  0  0  0  0  0  0  0  0  0  0
   22.6660   85.2200    7.3240 C   0  0  0  0  0  0  0  0  0  0  0  0
   22.5410   85.5760    8.6720 N   0  0  0  0  0  0  0  0  0  0  0  0
   23.9230   84.9750    6.8780 N   0  0  0  0  0  0  0  0  0  0  0  0
   24.0840   84.6250    5.5840 C   0  0  0  0  0  0  0  0  0  0  0  0
   23.0440   84.5010    4.6710 C   0  0  0  0  0  0  0  0  0  0  0  0
   23.3350   84.0870    3.3020 C   0  0  0  0  0  0  0  0  0  0  0  0
   22.5200   83.6280    2.2370 C   0  0  0  0  0  0  0  0  0  0  0  0
   24.6060   84.0070    2.7650 C   0  0  0  0  0  0  0  0  0  0  0  0
   24.4970   83.5610    1.4840 N   0  0  0  0  0  0  0  0  0  0  0  0
   23.2130   83.3190    1.1370 N   0  0  0  0  0  0  0  0  0  0  0  0
   25.5950   83.3510    0.5360 C   0  0  1  0  0  0  0  0  0  0  0  0
   26.0300   81.8930    0.2920 C   0  0  0  0  0  0  0  0  0  0  0  0
   25.5280   81.2150   -0.9840 C   0  0  0  0  0  0  0  0  0  0  0  0
   25.5020   82.1510   -2.1590 N   0  0  0  0  0  0  0  0  0  0  0  0
   24.8400   83.4750   -1.9280 C   0  0  0  0  0  0  0  0  0  0  0  0
   25.5000   84.1910   -0.7510 C   0  0  0  0  0  0  0  0  0  0  0  0
   17.1536   83.9316    5.1116 H   0  0  0  0  0  0  0  0  0  0  0  0
   16.7436   82.4000    4.2180 H   0  0  0  0  0  0  0  0  0  0  0  0
   18.5462   81.8407    4.1434 H   0  0  0  0  0  0  0  0  0  0  0  0
   16.4759   81.0839    5.7313 H   0  0  0  0  0  0  0  0  0  0  0  0
   18.2542   80.5752    5.5328 H   0  0  0  0  0  0  0  0  0  0  0  0
   16.8005   82.1447    7.1503 H   0  0  0  0  0  0  0  0  0  0  0  0
   17.4713   84.3811    6.4112 H   0  0  0  0  0  0  0  0  0  0  0  0
   19.3478   82.7237    7.1695 H   0  0  0  0  0  0  0  0  0  0  0  0
   19.0769   85.9175    5.5447 H   0  0  0  0  0  0  0  0  0  0  0  0
   18.3688   86.0291    8.5090 H   0  0  0  0  0  0  0  0  0  0  0  0
   18.2518   87.3237    7.2693 H   0  0  0  0  0  0  0  0  0  0  0  0
   17.0702   85.9708    7.2693 H   0  0  0  0  0  0  0  0  0  0  0  0
   21.4056   84.0802    6.7843 H   0  0  0  0  0  0  0  0  0  0  0  0
   21.1597   83.8445    5.0000 H   0  0  0  0  0  0  0  0  0  0  0  0
   21.4607   85.6720    4.6148 H   0  0  0  0  0  0  0  0  0  0  0  0
   22.7825   86.2802    7.0548 H   0  0  0  0  0  0  0  0  0  0  0  0
   22.8202   84.7810    9.2644 H   0  0  0  0  0  0  0  0  0  0  0  0
   23.1489   86.3831    8.8718 H   0  0  0  0  0  0  0  0  0  0  0  0
   24.4745   85.8308    7.0338 H   0  0  0  0  0  0  0  0  0  0  0  0
   24.7661   85.3747    5.1566 H   0  0  0  0  0  0  0  0  0  0  0  0
   24.3897   83.5738    5.6917 H   0  0  0  0  0  0  0  0  0  0  0  0
   23.1546   85.5616    4.4010 H   0  0  0  0  0  0  0  0  0  0  0  0
   23.4713   83.0506    3.6444 H   0  0  0  0  0  0  0  0  0  0  0  0
   21.9793   82.7308    2.5726 H   0  0  0  0  0  0  0  0  0  0  0  0
   21.8369   84.4485    1.9722 H   0  0  0  0  0  0  0  0  0  0  0  0
   25.0780   85.0005    2.7749 H   0  0  0  0  0  0  0  0  0  0  0  0
   25.2267   83.3180    3.3566 H   0  0  0  0  0  0  0  0  0  0  0  0
   23.0813   82.3286    0.8869 H   0  0  0  0  0  0  0  0  0  0  0  0
   26.4464   83.7656    1.0956 H   0  0  0  0  0  0  0  0  0  0  0  0
   27.1295   81.8765    0.2642 H   0  0  0  0  0  0  0  0  0  0  0  0
   25.5740   81.3211    1.1136 H   0  0  0  0  0  0  0  0  0  0  0  0
   26.1923   80.3706   -1.2199 H   0  0  0  0  0  0  0  0  0  0  0  0
   24.4969   80.8785   -0.8010 H   0  0  0  0  0  0  0  0  0  0  0  0
   26.4763   82.3305   -2.4408 H   0  0  0  0  0  0  0  0  0  0  0  0
   24.9379   84.0939   -2.8321 H   0  0  0  0  0  0  0  0  0  0  0  0
   23.7761   83.3120   -1.7008 H   0  0  0  0  0  0  0  0  0  0  0  0
   24.9158   85.0960   -0.5282 H   0  0  0  0  0  0  0  0  0  0  0  0
   26.5332   84.4105   -1.0581 H   0  0  0  0  0  0  0  0  0  0  0  0
  1  2  1  0
  2  3  1  0
  3  4  1  0
  4  5  1  0
  5  6  1  0
  2  7  1  0
  5  8  1  0
  7  8  1  0
  8  9  1  0
  7 10  1  0
 10 11  1  0
 10 12  1  0
 12 13  1  0
 13 14  1  0
 13 15  1  0
 15 16  1  0
 15 17  1  0
 17 18  1  0
 14 19  1  0
 18 19  1  0
 19 20  1  0
 20 21  1  0
 20 22  1  0
 22 23  1  0
 21 24  1  0
 23 24  1  0
 23 25  1  0
 25 26  1  0
 26 27  1  0
 27 28  1  0
 28 29  1  0
 25 30  1  0
 29 30  1  0
  2 31  1  0
  3 32  1  0
  3 33  1  0
  4 34  1  0
  4 35  1  0
  5 36  1  0
  7 37  1  0
  8 38  1  0
 10 39  1  6
 11 40  1  0
 11 41  1  0
 11 42  1  0
 13 43  1  0
 14 44  1  0
 14 45  1  0
 15 46  1  0
 16 47  1  0
 16 48  1  0
 17 49  1  0
 18 50  1  0
 18 51  1  0
 19 52  1  0
 20 53  1  0
 21 54  1  0
 21 55  1  0
 22 56  1  0
 22 57  1  0
 24 58  1  0
 25 59  1  1
 26 60  1  0
 26 61  1  0
 27 62  1  0
 27 63  1  0
 28 64  1  0
 29 65  1  0
 29 66  1  0
 30 67  1  0
 30 68  1  0
M  END
>  <PDBID>  (1) 
2WGJ

>  <PDB ID>  (1) 
2WGJ

>  <Generic Name>  (1) 
Crizotinib

>  <Brand Name>  (1) 
Xalkori

>  <DrugBank ID>  (1) 
DB08865

>  <ATC Codes>  (1) 
L01XE16

>  <Ligand ID>  (1) 
VGH

>  <Target Name>  (1) 
Hepatocyte growth factor receptor

>  <UniProt ID>  (1) 
P08581

>  <PDB ID.1>  (1) 
2WGJ

>  <Seq. Identity>  (1) 
99%

$$$$
