PDB_DB00560_93
     RDKit          3D

 81 84  0  0  0  0  0  0  0  0999 V2000
  313.8030  175.0620   40.6110 C   0  0  0  0  0  0  0  0  0  0  0  0
  312.3460  175.5000   40.6220 C   0  0  0  0  0  0  0  0  0  0  0  0
  311.4830  174.3700   41.1670 C   0  0  0  0  0  0  0  0  0  0  0  0
  312.1840  176.7360   41.4930 C   0  0  0  0  0  0  0  0  0  0  0  0
  311.9280  175.8520   39.2170 N   0  0  0  0  0  0  0  0  0  0  0  0
  311.0720  177.0560   38.9370 C   0  0  0  0  0  0  0  0  0  0  0  0
  311.0850  177.4590   37.4650 C   0  0  0  0  0  0  0  0  0  0  0  0
  312.1500  177.6210   36.8760 O   0  0  0  0  0  0  0  0  0  0  0  0
  309.8570  177.6340   36.9170 N   0  0  0  0  0  0  0  0  0  0  0  0
  309.4450  178.0480   35.6090 C   0  0  0  0  0  0  0  0  0  0  0  0
  310.3280  178.3470   34.5700 C   0  0  0  0  0  0  0  0  0  0  0  0
  309.8210  178.7070   33.2470 C   0  0  0  0  0  0  0  0  0  0  0  0
  310.8090  179.0000   32.1730 N   0  0  0  0  0  0  0  0  0  0  0  0
  311.0430  180.4640   31.9860 C   0  0  0  0  0  0  0  0  0  0  0  0
  312.0940  178.2630   32.3460 C   0  0  0  0  0  0  0  0  0  0  0  0
  308.4540  178.7750   32.9760 C   0  0  0  0  0  0  0  0  0  0  0  0
  307.8890  179.0560   31.6030 C   0  0  0  0  0  0  0  0  0  0  0  0
  306.7350  180.0280   31.7550 C   0  0  1  0  0  0  0  0  0  0  0  0
  306.1030  180.4330   30.4210 C   0  0  0  0  0  0  0  0  0  0  0  0
  304.8230  181.2480   30.6130 C   0  0  1  0  0  0  0  0  0  0  0  0
  304.3780  181.9560   29.2460 C   0  0  2  0  0  0  0  0  0  0  0  0
  304.0350  183.4650   29.3180 N   0  0  0  0  0  0  0  0  0  0  0  0
  305.1050  184.3030   29.9360 C   0  0  0  0  0  0  0  0  0  0  0  0
  302.7230  183.7240   29.9680 C   0  0  0  0  0  0  0  0  0  0  0  0
  303.2510  181.1840   28.4570 C   0  0  0  0  0  0  0  0  0  0  0  0
  303.0020  181.7860   27.2640 O   0  0  0  0  0  0  0  0  0  0  0  0
  302.6010  180.0800   28.9690 C   0  0  0  0  0  0  0  0  0  0  0  0
  301.6800  179.4070   28.0380 C   0  0  0  0  0  0  0  0  0  0  0  0
  300.7470  180.0440   27.5230 O   0  0  0  0  0  0  0  0  0  0  0  0
  301.8430  178.1120   27.7790 N   0  0  0  0  0  0  0  0  0  0  0  0
  302.9190  179.5140   30.2950 C   0  0  0  0  0  0  0  0  0  0  0  0
  302.7230  178.3530   30.6060 O   0  0  0  0  0  0  0  0  0  0  0  0
  303.7180  180.3950   31.2780 C   0  0  2  0  0  0  0  0  0  0  0  0
  302.7710  181.2610   31.8740 O   0  0  0  0  0  0  0  0  0  0  0  0
  304.3150  179.5570   32.3930 C   0  0  0  0  0  0  0  0  0  0  0  0
  303.3700  178.8920   33.1260 O   0  0  0  0  0  0  0  0  0  0  0  0
  305.6480  179.4400   32.6240 C   0  0  0  0  0  0  0  0  0  0  0  0
  306.1020  178.7200   33.8280 C   0  0  0  0  0  0  0  0  0  0  0  0
  305.2840  178.3140   34.6550 O   0  0  0  0  0  0  0  0  0  0  0  0
  307.5430  178.5020   34.0190 C   0  0  0  0  0  0  0  0  0  0  0  0
  308.0660  178.1400   35.3000 C   0  0  0  0  0  0  0  0  0  0  0  0
  307.2230  177.8710   36.3300 O   0  0  0  0  0  0  0  0  0  0  0  0
  314.1613  174.9543   41.6454 H   0  0  0  0  0  0  0  0  0  0  0  0
  313.8920  174.0974   40.0898 H   0  0  0  0  0  0  0  0  0  0  0  0
  314.4091  175.8176   40.0898 H   0  0  0  0  0  0  0  0  0  0  0  0
  311.5005  174.3929   42.2666 H   0  0  0  0  0  0  0  0  0  0  0  0
  310.4488  174.4955   40.8140 H   0  0  0  0  0  0  0  0  0  0  0  0
  311.8763  173.4053   40.8140 H   0  0  0  0  0  0  0  0  0  0  0  0
  312.2221  176.4451   42.5531 H   0  0  0  0  0  0  0  0  0  0  0  0
  312.9969  177.4452   41.2779 H   0  0  0  0  0  0  0  0  0  0  0  0
  311.2158  177.2118   41.2779 H   0  0  0  0  0  0  0  0  0  0  0  0
  312.7961  175.9793   38.6775 H   0  0  0  0  0  0  0  0  0  0  0  0
  310.0367  176.8275   39.2301 H   0  0  0  0  0  0  0  0  0  0  0  0
  311.4825  177.8970   39.5152 H   0  0  0  0  0  0  0  0  0  0  0  0
  309.0774  177.4322   37.5592 H   0  0  0  0  0  0  0  0  0  0  0  0
  311.4129  178.3115   34.7480 H   0  0  0  0  0  0  0  0  0  0  0  0
  311.1209  180.9514   32.9691 H   0  0  0  0  0  0  0  0  0  0  0  0
  311.9771  180.6174   31.4256 H   0  0  0  0  0  0  0  0  0  0  0  0
  310.2033  180.9009   31.4256 H   0  0  0  0  0  0  0  0  0  0  0  0
  312.3056  178.1417   33.4186 H   0  0  0  0  0  0  0  0  0  0  0  0
  312.0153  177.2728   31.8735 H   0  0  0  0  0  0  0  0  0  0  0  0
  312.9089  178.8310   31.8735 H   0  0  0  0  0  0  0  0  0  0  0  0
  308.6670  179.4988   30.9637 H   0  0  0  0  0  0  0  0  0  0  0  0
  307.5404  178.1224   31.1373 H   0  0  0  0  0  0  0  0  0  0  0  0
  307.1702  180.9251   32.2196 H   0  0  0  0  0  0  0  0  0  0  0  0
  306.8268  181.0379   29.8551 H   0  0  0  0  0  0  0  0  0  0  0  0
  305.8399  179.5130   29.8784 H   0  0  0  0  0  0  0  0  0  0  0  0
  305.0221  182.0709   31.3153 H   0  0  0  0  0  0  0  0  0  0  0  0
  305.3169  181.8948   28.6762 H   0  0  0  0  0  0  0  0  0  0  0  0
  305.0298  184.2441   31.0318 H   0  0  0  0  0  0  0  0  0  0  0  0
  306.0906  183.9341   29.6157 H   0  0  0  0  0  0  0  0  0  0  0  0
  304.9830  185.3482   29.6157 H   0  0  0  0  0  0  0  0  0  0  0  0
  302.8442  183.7001   31.0610 H   0  0  0  0  0  0  0  0  0  0  0  0
  302.3510  184.7129   29.6619 H   0  0  0  0  0  0  0  0  0  0  0  0
  302.0031  182.9506   29.6619 H   0  0  0  0  0  0  0  0  0  0  0  0
  302.3159  181.4135   26.6552 H   0  0  0  0  0  0  0  0  0  0  0  0
  301.2039  177.6323   27.1291 H   0  0  0  0  0  0  0  0  0  0  0  0
  302.6083  177.5893   28.2284 H   0  0  0  0  0  0  0  0  0  0  0  0
  302.8403  181.1976   32.8595 H   0  0  0  0  0  0  0  0  0  0  0  0
  303.6456  178.3137   33.8808 H   0  0  0  0  0  0  0  0  0  0  0  0
  306.2436  177.9145   36.1923 H   0  0  0  0  0  0  0  0  0  0  0  0
  1  2  1  0
  2  3  1  0
  2  4  1  0
  2  5  1  0
  5  6  1  0
  6  7  1  0
  7  8  2  0
  7  9  1  0
  9 10  1  0
 10 11  2  0
 11 12  1  0
 12 13  1  0
 13 14  1  0
 13 15  1  0
 12 16  2  0
 16 17  1  0
 17 18  1  0
 18 19  1  0
 19 20  1  0
 20 21  1  0
 21 22  1  0
 22 23  1  0
 22 24  1  0
 21 25  1  0
 25 26  1  0
 25 27  2  0
 27 28  1  0
 28 29  2  0
 28 30  1  0
 27 31  1  0
 31 32  2  0
 20 33  1  0
 31 33  1  0
 33 34  1  1
 33 35  1  0
 35 36  1  0
 18 37  1  0
 35 37  2  0
 37 38  1  0
 38 39  2  0
 16 40  1  0
 38 40  1  0
 10 41  1  0
 40 41  2  0
 41 42  1  0
  1 43  1  0
  1 44  1  0
  1 45  1  0
  3 46  1  0
  3 47  1  0
  3 48  1  0
  4 49  1  0
  4 50  1  0
  4 51  1  0
  5 52  1  0
  6 53  1  0
  6 54  1  0
  9 55  1  0
 11 56  1  0
 14 57  1  0
 14 58  1  0
 14 59  1  0
 15 60  1  0
 15 61  1  0
 15 62  1  0
 17 63  1  0
 17 64  1  0
 18 65  1  1
 19 66  1  0
 19 67  1  0
 20 68  1  1
 21 69  1  6
 23 70  1  0
 23 71  1  0
 23 72  1  0
 24 73  1  0
 24 74  1  0
 24 75  1  0
 26 76  1  0
 30 77  1  0
 30 78  1  0
 34 79  1  0
 36 80  1  0
 42 81  1  0
M  END
>  <PDBID>  (1) 
4YHH

>  <PDB ID>  (1) 
4YHH

>  <Generic Name>  (1) 
Tigecycline

>  <Brand Name>  (1) 
Tigecycline#Tygacil

>  <DrugBank ID>  (1) 
DB00560

>  <ATC Codes>  (1) 
J01AA12

>  <Ligand ID>  (1) 
T1C

>  <Target Name>  (1) 
30S ribosomal protein S12

>  <UniProt ID>  (1) 
P0A7S3

>  <PDB ID.1>  (1) 
4YHH

>  <Seq. Identity>  (1) 
74%

$$$$
