PDB_DB00560_96
     RDKit          3D

 81 84  0  0  0  0  0  0  0  0999 V2000
  -79.4520   92.4750   84.2560 C   0  0  0  0  0  0  0  0  0  0  0  0
  -78.5880   91.2470   84.0030 C   0  0  0  0  0  0  0  0  0  0  0  0
  -77.1390   91.5620   84.3500 C   0  0  0  0  0  0  0  0  0  0  0  0
  -79.0820   90.0910   84.8600 C   0  0  0  0  0  0  0  0  0  0  0  0
  -78.7430   90.8990   82.5470 N   0  0  0  0  0  0  0  0  0  0  0  0
  -77.9120   89.8990   81.7870 C   0  0  0  0  0  0  0  0  0  0  0  0
  -76.8510   90.6390   80.9910 C   0  0  0  0  0  0  0  0  0  0  0  0
  -75.6580   90.4650   81.2330 O   0  0  0  0  0  0  0  0  0  0  0  0
  -77.3240   91.5000   80.0550 N   0  0  0  0  0  0  0  0  0  0  0  0
  -76.7500   92.7100   79.5800 C   0  0  0  0  0  0  0  0  0  0  0  0
  -75.6020   93.2400   80.1660 C   0  0  0  0  0  0  0  0  0  0  0  0
  -75.0630   94.4690   79.8260 C   0  0  0  0  0  0  0  0  0  0  0  0
  -73.7900   94.8960   80.4720 N   0  0  0  0  0  0  0  0  0  0  0  0
  -72.6380   94.0080   80.1390 C   0  0  0  0  0  0  0  0  0  0  0  0
  -73.9190   95.0930   81.9440 C   0  0  0  0  0  0  0  0  0  0  0  0
  -75.6950   95.2850   78.8310 C   0  0  0  0  0  0  0  0  0  0  0  0
  -75.2080   96.6880   78.5400 C   0  0  0  0  0  0  0  0  0  0  0  0
  -76.4230   97.5890   78.3540 C   0  0  1  0  0  0  0  0  0  0  0  0
  -76.0690   99.0710   78.1910 C   0  0  0  0  0  0  0  0  0  0  0  0
  -77.2510   99.8910   77.6520 C   0  0  1  0  0  0  0  0  0  0  0  0
  -76.9360  101.4030   77.7000 C   0  0  2  0  0  0  0  0  0  0  0  0
  -78.0130  102.2480   78.3390 N   0  0  0  0  0  0  0  0  0  0  0  0
  -78.1150  102.1160   79.8210 C   0  0  0  0  0  0  0  0  0  0  0  0
  -79.3550  102.2630   77.6770 C   0  0  0  0  0  0  0  0  0  0  0  0
  -76.4850  102.0030   76.3120 C   0  0  0  0  0  0  0  0  0  0  0  0
  -76.3420  103.3230   76.4320 O   0  0  0  0  0  0  0  0  0  0  0  0
  -76.2600  101.2580   75.1810 C   0  0  0  0  0  0  0  0  0  0  0  0
  -75.8220  101.9160   73.9480 C   0  0  0  0  0  0  0  0  0  0  0  0
  -76.6590  102.2920   73.1120 O   0  0  0  0  0  0  0  0  0  0  0  0
  -74.5210  102.1170   73.7760 N   0  0  0  0  0  0  0  0  0  0  0  0
  -76.5020   99.8240   75.2420 C   0  0  0  0  0  0  0  0  0  0  0  0
  -75.8220   98.9870   74.6810 O   0  0  0  0  0  0  0  0  0  0  0  0
  -77.6080   99.3990   76.2440 C   0  0  2  0  0  0  0  0  0  0  0  0
  -78.8300   99.9790   75.8150 O   0  0  0  0  0  0  0  0  0  0  0  0
  -77.7870   97.8850   76.2520 C   0  0  0  0  0  0  0  0  0  0  0  0
  -78.5340   97.4620   75.2540 O   0  0  0  0  0  0  0  0  0  0  0  0
  -77.2750   97.0710   77.2120 C   0  0  0  0  0  0  0  0  0  0  0  0
  -77.5560   95.6090   77.1920 C   0  0  0  0  0  0  0  0  0  0  0  0
  -78.3470   95.1250   76.3840 O   0  0  0  0  0  0  0  0  0  0  0  0
  -76.8270   94.7580   78.1590 C   0  0  0  0  0  0  0  0  0  0  0  0
  -77.3280   93.4790   78.5430 C   0  0  0  0  0  0  0  0  0  0  0  0
  -78.4020   92.9160   77.9210 O   0  0  0  0  0  0  0  0  0  0  0  0
  -79.5609   92.6298   85.3396 H   0  0  0  0  0  0  0  0  0  0  0  0
  -78.9751   93.3580   83.8056 H   0  0  0  0  0  0  0  0  0  0  0  0
  -80.4442   92.3244   83.8056 H   0  0  0  0  0  0  0  0  0  0  0  0
  -77.0210   91.5876   85.4434 H   0  0  0  0  0  0  0  0  0  0  0  0
  -76.4839   90.7853   83.9286 H   0  0  0  0  0  0  0  0  0  0  0  0
  -76.8655   92.5406   83.9286 H   0  0  0  0  0  0  0  0  0  0  0  0
  -78.9715   90.3496   85.9234 H   0  0  0  0  0  0  0  0  0  0  0  0
  -80.1417   89.8968   84.6381 H   0  0  0  0  0  0  0  0  0  0  0  0
  -78.4899   89.1909   84.6381 H   0  0  0  0  0  0  0  0  0  0  0  0
  -79.7154   90.5741   82.4481 H   0  0  0  0  0  0  0  0  0  0  0  0
  -77.4280   89.2089   82.4938 H   0  0  0  0  0  0  0  0  0  0  0  0
  -78.5552   89.3248   81.1039 H   0  0  0  0  0  0  0  0  0  0  0  0
  -78.2252   91.2402   79.6292 H   0  0  0  0  0  0  0  0  0  0  0  0
  -75.0954   92.6483   80.9427 H   0  0  0  0  0  0  0  0  0  0  0  0
  -72.1716   93.6485   81.0681 H   0  0  0  0  0  0  0  0  0  0  0  0
  -72.9949   93.1491   79.5517 H   0  0  0  0  0  0  0  0  0  0  0  0
  -71.8982   94.5718   79.5517 H   0  0  0  0  0  0  0  0  0  0  0  0
  -73.3897   94.2847   82.4699 H   0  0  0  0  0  0  0  0  0  0  0  0
  -73.4798   96.0618   82.2242 H   0  0  0  0  0  0  0  0  0  0  0  0
  -74.9826   95.0778   82.2242 H   0  0  0  0  0  0  0  0  0  0  0  0
  -74.6003   97.0525   79.3813 H   0  0  0  0  0  0  0  0  0  0  0  0
  -74.5904   96.6929   77.6297 H   0  0  0  0  0  0  0  0  0  0  0  0
  -77.0103   97.5459   79.2831 H   0  0  0  0  0  0  0  0  0  0  0  0
  -75.7742   99.4752   79.1707 H   0  0  0  0  0  0  0  0  0  0  0  0
  -75.2460   99.1451   77.4650 H   0  0  0  0  0  0  0  0  0  0  0  0
  -78.1339   99.7432   78.2913 H   0  0  0  0  0  0  0  0  0  0  0  0
  -76.0667  101.4566   78.3719 H   0  0  0  0  0  0  0  0  0  0  0  0
  -77.5099  102.8990   80.3014 H   0  0  0  0  0  0  0  0  0  0  0  0
  -79.1658  102.2250   80.1274 H   0  0  0  0  0  0  0  0  0  0  0  0
  -77.7445  101.1266   80.1274 H   0  0  0  0  0  0  0  0  0  0  0  0
  -80.1426  102.2718   78.4449 H   0  0  0  0  0  0  0  0  0  0  0  0
  -79.4444  103.1622   77.0497 H   0  0  0  0  0  0  0  0  0  0  0  0
  -79.4645  101.3660   77.0497 H   0  0  0  0  0  0  0  0  0  0  0  0
  -76.0614  103.8635   75.6515 H   0  0  0  0  0  0  0  0  0  0  0  0
  -74.1797  102.5771   72.9200 H   0  0  0  0  0  0  0  0  0  0  0  0
  -73.8529  101.8129   74.4986 H   0  0  0  0  0  0  0  0  0  0  0  0
  -79.3691  100.2349   76.6049 H   0  0  0  0  0  0  0  0  0  0  0  0
  -78.7229   96.4955   75.1521 H   0  0  0  0  0  0  0  0  0  0  0  0
  -78.7297   92.0267   78.2072 H   0  0  0  0  0  0  0  0  0  0  0  0
  2  1  1  0
  3  2  1  0
  4  2  1  0
  5  2  1  0
  6  5  1  0
  7  6  1  0
  8  7  2  0
  9  7  1  0
 10  9  1  0
 11 10  2  0
 12 11  1  0
 13 12  1  0
 14 13  1  0
 15 13  1  0
 16 12  2  0
 17 16  1  0
 18 17  1  0
 19 18  1  0
 20 19  1  0
 21 20  1  0
 22 21  1  0
 23 22  1  0
 24 22  1  0
 25 21  1  0
 26 25  1  0
 27 25  2  0
 28 27  1  0
 29 28  2  0
 30 28  1  0
 31 27  1  0
 32 31  2  0
 33 31  1  0
 33 20  1  0
 33 34  1  6
 35 33  1  0
 36 35  1  0
 37 35  2  0
 37 18  1  0
 38 37  1  0
 39 38  2  0
 40 38  1  0
 40 16  1  0
 41 40  2  0
 41 10  1  0
 42 41  1  0
  1 43  1  0
  1 44  1  0
  1 45  1  0
  3 46  1  0
  3 47  1  0
  3 48  1  0
  4 49  1  0
  4 50  1  0
  4 51  1  0
  5 52  1  0
  6 53  1  0
  6 54  1  0
  9 55  1  0
 11 56  1  0
 14 57  1  0
 14 58  1  0
 14 59  1  0
 15 60  1  0
 15 61  1  0
 15 62  1  0
 17 63  1  0
 17 64  1  0
 18 65  1  1
 19 66  1  0
 19 67  1  0
 20 68  1  1
 21 69  1  1
 23 70  1  0
 23 71  1  0
 23 72  1  0
 24 73  1  0
 24 74  1  0
 24 75  1  0
 26 76  1  0
 30 77  1  0
 30 78  1  0
 34 79  1  0
 36 80  1  0
 42 81  1  0
M  END
$$$$
