PDB_DB08865_97
     RDKit          3D

 68 71  0  0  0  0  0  0  0  0999 V2000
   33.2070   46.1070    6.4440 Cl  0  0  0  0  0  0  0  0  0  0  0  0
   33.6970   45.8390    8.0910 C   0  0  0  0  0  0  0  0  0  0  0  0
   34.5300   46.8340    8.6780 C   0  0  0  0  0  0  0  0  0  0  0  0
   34.9870   46.7120   10.0140 C   0  0  0  0  0  0  0  0  0  0  0  0
   34.6210   45.5890   10.8030 C   0  0  0  0  0  0  0  0  0  0  0  0
   35.0760   45.5080   12.0650 F   0  0  0  0  0  0  0  0  0  0  0  0
   33.2980   44.6720    8.8630 C   0  0  0  0  0  0  0  0  0  0  0  0
   33.7800   44.5630   10.2490 C   0  0  0  0  0  0  0  0  0  0  0  0
   33.3790   43.2190   11.2970 Cl  0  0  0  0  0  0  0  0  0  0  0  0
   32.3850   43.5800    8.2020 C   0  0  1  0  0  0  0  0  0  0  0  0
   33.1000   42.2190    8.1980 C   0  0  0  0  0  0  0  0  0  0  0  0
   31.0970   43.3550    8.8780 O   0  0  0  0  0  0  0  0  0  0  0  0
   30.0750   44.2980    9.0310 C   0  0  0  0  0  0  0  0  0  0  0  0
   29.9670   45.5330    8.3040 C   0  0  0  0  0  0  0  0  0  0  0  0
   29.0210   44.0250    9.9640 C   0  0  0  0  0  0  0  0  0  0  0  0
   29.0600   42.8270   10.7070 N   0  0  0  0  0  0  0  0  0  0  0  0
   27.9640   44.8480   10.1840 N   0  0  0  0  0  0  0  0  0  0  0  0
   27.8920   46.0120    9.4790 C   0  0  0  0  0  0  0  0  0  0  0  0
   28.8710   46.4160    8.5180 C   0  0  0  0  0  0  0  0  0  0  0  0
   28.7630   47.7180    7.7450 C   0  0  0  0  0  0  0  0  0  0  0  0
   29.8280   48.4300    7.0310 C   0  0  0  0  0  0  0  0  0  0  0  0
   27.6270   48.4950    7.5570 C   0  0  0  0  0  0  0  0  0  0  0  0
   28.0760   49.5740    6.7720 N   0  0  0  0  0  0  0  0  0  0  0  0
   29.3340   49.4940    6.4990 N   0  0  0  0  0  0  0  0  0  0  0  0
   27.2350   50.6960    6.2910 C   0  0  2  0  0  0  0  0  0  0  0  0
   26.8940   51.6490    7.4550 C   0  0  0  0  0  0  0  0  0  0  0  0
   26.0170   52.8090    6.9290 C   0  0  0  0  0  0  0  0  0  0  0  0
   24.7880   52.3200    6.2390 N   0  0  0  0  0  0  0  0  0  0  0  0
   25.0880   51.3610    5.1380 C   0  0  0  0  0  0  0  0  0  0  0  0
   25.9410   50.1670    5.6240 C   0  0  0  0  0  0  0  0  0  0  0  0
   34.5889   45.3005    7.7380 H   0  0  0  0  0  0  0  0  0  0  0  0
   35.4278   46.9020    8.0460 H   0  0  0  0  0  0  0  0  0  0  0  0
   33.8619   47.7062    8.7311 H   0  0  0  0  0  0  0  0  0  0  0  0
   36.0862   46.7231    9.9730 H   0  0  0  0  0  0  0  0  0  0  0  0
   34.4834   47.5464   10.5241 H   0  0  0  0  0  0  0  0  0  0  0  0
   35.5110   45.0491   10.4475 H   0  0  0  0  0  0  0  0  0  0  0  0
   34.1902   44.1337    8.5104 H   0  0  0  0  0  0  0  0  0  0  0  0
   32.8889   45.1032   10.6014 H   0  0  0  0  0  0  0  0  0  0  0  0
   32.1877   43.9732    7.1938 H   0  0  0  0  0  0  0  0  0  0  0  0
   33.2718   41.8920    9.2341 H   0  0  0  0  0  0  0  0  0  0  0  0
   32.4748   41.4779    7.6785 H   0  0  0  0  0  0  0  0  0  0  0  0
   34.0650   42.3133    7.6785 H   0  0  0  0  0  0  0  0  0  0  0  0
   30.6617   44.8076    9.8095 H   0  0  0  0  0  0  0  0  0  0  0  0
   30.8789   46.1070    8.5252 H   0  0  0  0  0  0  0  0  0  0  0  0
   29.8051   45.1923    7.2707 H   0  0  0  0  0  0  0  0  0  0  0  0
   28.4522   43.5155    9.1723 H   0  0  0  0  0  0  0  0  0  0  0  0
   29.0528   43.0467   11.7133 H   0  0  0  0  0  0  0  0  0  0  0  0
   28.2373   42.2523   10.4752 H   0  0  0  0  0  0  0  0  0  0  0  0
   27.1107   44.3109    9.9733 H   0  0  0  0  0  0  0  0  0  0  0  0
   26.9357   45.9759    8.9366 H   0  0  0  0  0  0  0  0  0  0  0  0
   28.0540   46.7543   10.2745 H   0  0  0  0  0  0  0  0  0  0  0  0
   28.3044   45.9047    7.7258 H   0  0  0  0  0  0  0  0  0  0  0  0
   29.0001   48.2808    8.6599 H   0  0  0  0  0  0  0  0  0  0  0  0
   30.6253   48.7060    7.7368 H   0  0  0  0  0  0  0  0  0  0  0  0
   30.2493   47.7826    6.2478 H   0  0  0  0  0  0  0  0  0  0  0  0
   26.8474   47.9259    7.0294 H   0  0  0  0  0  0  0  0  0  0  0  0
   27.1766   48.8215    8.5060 H   0  0  0  0  0  0  0  0  0  0  0  0
   29.8190   50.3213    6.8748 H   0  0  0  0  0  0  0  0  0  0  0  0
   27.8051   51.2561    5.5352 H   0  0  0  0  0  0  0  0  0  0  0  0
   26.3451   51.0972    8.2323 H   0  0  0  0  0  0  0  0  0  0  0  0
   27.8230   52.0550    7.8817 H   0  0  0  0  0  0  0  0  0  0  0  0
   25.7184   53.4405    7.7788 H   0  0  0  0  0  0  0  0  0  0  0  0
   26.6114   53.3760    6.1974 H   0  0  0  0  0  0  0  0  0  0  0  0
   24.1870   51.8497    6.9308 H   0  0  0  0  0  0  0  0  0  0  0  0
   24.1397   50.9780    4.7329 H   0  0  0  0  0  0  0  0  0  0  0  0
   25.6628   51.8973    4.3686 H   0  0  0  0  0  0  0  0  0  0  0  0
   26.2041   49.5308    4.7661 H   0  0  0  0  0  0  0  0  0  0  0  0
   25.3661   49.5780    6.3538 H   0  0  0  0  0  0  0  0  0  0  0  0
  1  2  1  0
  2  3  1  0
  3  4  1  0
  4  5  1  0
  5  6  1  0
  2  7  1  0
  5  8  1  0
  7  8  1  0
  8  9  1  0
  7 10  1  0
 10 11  1  0
 10 12  1  0
 12 13  1  0
 13 14  1  0
 13 15  1  0
 15 16  1  0
 15 17  1  0
 17 18  1  0
 14 19  1  0
 18 19  1  0
 19 20  1  0
 20 21  1  0
 20 22  1  0
 22 23  1  0
 21 24  1  0
 23 24  1  0
 23 25  1  0
 25 26  1  0
 26 27  1  0
 27 28  1  0
 28 29  1  0
 25 30  1  0
 29 30  1  0
  2 31  1  0
  3 32  1  0
  3 33  1  0
  4 34  1  0
  4 35  1  0
  5 36  1  0
  7 37  1  0
  8 38  1  0
 10 39  1  6
 11 40  1  0
 11 41  1  0
 11 42  1  0
 13 43  1  0
 14 44  1  0
 14 45  1  0
 15 46  1  0
 16 47  1  0
 16 48  1  0
 17 49  1  0
 18 50  1  0
 18 51  1  0
 19 52  1  0
 20 53  1  0
 21 54  1  0
 21 55  1  0
 22 56  1  0
 22 57  1  0
 24 58  1  0
 25 59  1  6
 26 60  1  0
 26 61  1  0
 27 62  1  0
 27 63  1  0
 28 64  1  0
 29 65  1  0
 29 66  1  0
 30 67  1  0
 30 68  1  0
M  END
>  <PDBID>  (1) 
2YFX

>  <PDB ID>  (1) 
2YFX

>  <Generic Name>  (1) 
Crizotinib

>  <Brand Name>  (1) 
Xalkori

>  <DrugBank ID>  (1) 
DB08865

>  <ATC Codes>  (1) 
L01XE16

>  <Ligand ID>  (1) 
VGH

>  <Target Name>  (1) 
ALK tyrosine kinase receptor

>  <UniProt ID>  (1) 
Q9UM73

>  <PDB ID.1>  (1) 
2YFX

>  <Seq. Identity>  (1) 
99%

$$$$
