PDB_DB01157_97
     RDKit          3D

 50 52  0  0  0  0  0  0  0  0999 V2000
   69.8850   32.2840   42.4360 N   0  0  0  0  0  0  0  0  0  0  0  0
   69.2090   31.5000   41.5940 C   0  0  0  0  0  0  0  0  0  0  0  0
   68.3720   32.0370   40.6920 N   0  0  0  0  0  0  0  0  0  0  0  0
   68.1980   33.3700   40.6180 C   0  0  0  0  0  0  0  0  0  0  0  0
   69.7530   33.6210   42.4050 C   0  0  0  0  0  0  0  0  0  0  0  0
   68.8980   34.2440   41.4840 C   0  0  0  0  0  0  0  0  0  0  0  0
   68.8040   35.6590   41.5000 C   0  0  0  0  0  0  0  0  0  0  0  0
   69.5580   36.3960   42.4330 C   0  0  0  0  0  0  0  0  0  0  0  0
   70.3890   35.7410   43.3330 C   0  0  0  0  0  0  0  0  0  0  0  0
   70.4900   34.3610   43.3160 C   0  0  0  0  0  0  0  0  0  0  0  0
   69.5090   37.7920   42.5370 C   0  0  0  0  0  0  0  0  0  0  0  0
   70.4410   38.4140   41.6070 N   0  0  0  0  0  0  0  0  0  0  0  0
   71.6970   38.7680   41.8980 C   0  0  0  0  0  0  0  0  0  0  0  0
   72.6930   38.3640   41.0120 C   0  0  0  0  0  0  0  0  0  0  0  0
   74.0170   38.7190   41.2490 C   0  0  0  0  0  0  0  0  0  0  0  0
   74.3410   39.4850   42.3740 C   0  0  0  0  0  0  0  0  0  0  0  0
   73.3440   39.9100   43.2610 C   0  0  0  0  0  0  0  0  0  0  0  0
   72.0090   39.5480   43.0170 C   0  0  0  0  0  0  0  0  0  0  0  0
   67.9830   36.3550   40.6130 C   0  0  0  0  0  0  0  0  0  0  0  0
   75.0310   38.3470   40.4210 O   0  0  0  0  0  0  0  0  0  0  0  0
   75.6520   39.8500   42.5900 O   0  0  0  0  0  0  0  0  0  0  0  0
   73.7570   40.6670   44.3300 O   0  0  0  0  0  0  0  0  0  0  0  0
   74.5510   37.5480   39.3100 C   0  0  0  0  0  0  0  0  0  0  0  0
   76.3470   39.1170   43.6340 C   0  0  0  0  0  0  0  0  0  0  0  0
   72.8380   40.7000   45.4590 C   0  0  0  0  0  0  0  0  0  0  0  0
   69.3740   30.1920   41.6690 N   0  0  0  0  0  0  0  0  0  0  0  0
   67.3640   33.8660   39.7080 N   0  0  0  0  0  0  0  0  0  0  0  0
   70.9702   36.3228   44.0636 H   0  0  0  0  0  0  0  0  0  0  0  0
   71.1564   33.8505   44.0268 H   0  0  0  0  0  0  0  0  0  0  0  0
   68.4891   38.1349   42.3085 H   0  0  0  0  0  0  0  0  0  0  0  0
   69.7896   38.0788   43.5612 H   0  0  0  0  0  0  0  0  0  0  0  0
   70.1064   38.5955   40.6499 H   0  0  0  0  0  0  0  0  0  0  0  0
   72.4331   37.7653   40.1265 H   0  0  0  0  0  0  0  0  0  0  0  0
   71.2131   39.8759   43.7019 H   0  0  0  0  0  0  0  0  0  0  0  0
   67.2641   36.9645   41.1801 H   0  0  0  0  0  0  0  0  0  0  0  0
   68.5995   37.0098   39.9796 H   0  0  0  0  0  0  0  0  0  0  0  0
   67.4379   35.6396   39.9796 H   0  0  0  0  0  0  0  0  0  0  0  0
   74.0205   36.6649   39.6957 H   0  0  0  0  0  0  0  0  0  0  0  0
   73.8643   38.1490   38.6958 H   0  0  0  0  0  0  0  0  0  0  0  0
   75.4041   37.2240   38.6958 H   0  0  0  0  0  0  0  0  0  0  0  0
   76.0096   39.4728   44.6186 H   0  0  0  0  0  0  0  0  0  0  0  0
   76.1271   38.0436   43.5369 H   0  0  0  0  0  0  0  0  0  0  0  0
   77.4306   39.2795   43.5369 H   0  0  0  0  0  0  0  0  0  0  0  0
   73.4102   40.6795   46.3983 H   0  0  0  0  0  0  0  0  0  0  0  0
   72.2370   41.6203   45.4158 H   0  0  0  0  0  0  0  0  0  0  0  0
   72.1726   39.8252   45.4158 H   0  0  0  0  0  0  0  0  0  0  0  0
   68.8609   29.5706   41.0276 H   0  0  0  0  0  0  0  0  0  0  0  0
   70.0158   29.7932   42.3689 H   0  0  0  0  0  0  0  0  0  0  0  0
   67.2215   34.8839   39.6405 H   0  0  0  0  0  0  0  0  0  0  0  0
   66.8607   33.2322   39.0709 H   0  0  0  0  0  0  0  0  0  0  0  0
  1  2  2  0
  2  3  1  0
  3  4  2  0
  1  5  1  0
  4  6  1  0
  5  6  2  0
  6  7  1  0
  7  8  2  0
  8  9  1  0
  5 10  1  0
  9 10  2  0
  8 11  1  0
 11 12  1  0
 12 13  1  0
 13 14  2  0
 14 15  1  0
 15 16  2  0
 16 17  1  0
 13 18  1  0
 17 18  2  0
  7 19  1  0
 15 20  1  0
 16 21  1  0
 17 22  1  0
 20 23  1  0
 21 24  1  0
 22 25  1  0
  2 26  1  0
  4 27  1  0
  9 28  1  0
 10 29  1  0
 11 30  1  0
 11 31  1  0
 12 32  1  0
 14 33  1  0
 18 34  1  0
 19 35  1  0
 19 36  1  0
 19 37  1  0
 23 38  1  0
 23 39  1  0
 23 40  1  0
 24 41  1  0
 24 42  1  0
 24 43  1  0
 25 44  1  0
 25 45  1  0
 25 46  1  0
 26 47  1  0
 26 48  1  0
 27 49  1  0
 27 50  1  0
M  END
$$$$
