PDB_DB00443_99
     RDKit          3D

130136  0  0  0  0  0  0  0  0999 V2000
   30.8150    6.8380    9.6380 C   0  0  0  0  0  0  0  0  0  0  0  0
   31.0790    7.5730    8.5640 C   0  0  0  0  0  0  0  0  0  0  0  0
   32.3500    8.3670    8.5490 C   0  0  0  0  0  0  0  0  0  0  0  0
   33.1920    8.3840    9.7900 C   0  0  0  0  0  0  0  0  0  0  0  0
   32.8600    7.6260   10.8320 C   0  0  0  0  0  0  0  0  0  0  0  0
   33.7450    7.7080   12.0400 C   0  0  0  0  0  0  0  0  0  0  0  0
   32.8990    8.0240   13.2700 C   0  0  0  0  0  0  0  0  0  0  0  0
   31.6540    7.1500   13.3840 C   0  0  2  0  0  0  0  0  0  0  0  0
   30.8260    7.0610   12.1020 C   0  0  1  0  0  0  0  0  0  0  0  0
   31.6650    6.7140   10.8710 C   0  0  1  0  0  0  0  0  0  0  0  0
   29.4930    6.3260   12.2370 C   0  0  2  0  0  0  0  0  0  0  0  0
   28.7280    6.5700   13.5340 C   0  0  0  0  0  0  0  0  0  0  0  0
   29.6260    6.4770   14.7670 C   0  0  1  0  0  0  0  0  0  0  0  0
   30.7830    7.4620   14.5980 C   0  0  1  0  0  0  0  0  0  0  0  0
   31.3930    7.6320   15.9860 C   0  0  0  0  0  0  0  0  0  0  0  0
   30.2030    7.4630   16.9260 C   0  0  2  0  0  0  0  0  0  0  0  0
   29.0230    7.0530   16.0480 C   0  0  2  0  0  0  0  0  0  0  0  0
   30.0650    5.0310   14.9890 C   0  0  0  0  0  0  0  0  0  0  0  0
   32.1830    5.2780   10.8610 C   0  0  0  0  0  0  0  0  0  0  0  0
   28.0530    6.1170   16.7520 C   0  0  0  0  0  0  0  0  0  0  0  0
   26.5460    6.3020   16.6910 C   0  0  0  0  0  0  0  0  0  0  0  0
   30.0040    8.7080   17.7840 C   0  0  0  0  0  0  0  0  0  0  0  0
   30.4060    8.3410   11.8910 F   0  0  0  0  0  0  0  0  0  0  0  0
   32.6900    8.9850    7.5430 O   0  0  0  0  0  0  0  0  0  0  0  0
   29.7060    4.9240   12.1580 O   0  0  0  0  0  0  0  0  0  0  0  0
   28.3010    8.2390   15.7480 O   0  0  0  0  0  0  0  0  0  0  0  0
   28.4710    5.1550   17.3930 O   0  0  0  0  0  0  0  0  0  0  0  0
   25.9300    5.1110   16.2250 O   0  0  0  0  0  0  0  0  0  0  0  0
   30.3750    8.4540   14.3320 H   0  0  0  0  0  0  0  0  0  0  0  0
   18.7310   25.6480   -9.8410 C   0  0  0  0  0  0  0  0  0  0  0  0
   19.4670   25.6080   -8.7340 C   0  0  0  0  0  0  0  0  0  0  0  0
   20.7140   26.4380   -8.6870 C   0  0  0  0  0  0  0  0  0  0  0  0
   21.1290   27.1700   -9.9270 C   0  0  0  0  0  0  0  0  0  0  0  0
   20.3450   27.1590  -11.0030 C   0  0  0  0  0  0  0  0  0  0  0  0
   20.8350   27.9050  -12.2090 C   0  0  0  0  0  0  0  0  0  0  0  0
   20.8250   26.9780  -13.4200 C   0  0  0  0  0  0  0  0  0  0  0  0
   19.5200   26.2020  -13.5720 C   0  0  2  0  0  0  0  0  0  0  0  0
   19.0440   25.5130  -12.2920 C   0  0  1  0  0  0  0  0  0  0  0  0
   19.0230   26.4460  -11.0790 C   0  0  1  0  0  0  0  0  0  0  0  0
   17.8280   24.6040  -12.4540 C   0  0  2  0  0  0  0  0  0  0  0  0
   17.7900   23.7820  -13.7390 C   0  0  0  0  0  0  0  0  0  0  0  0
   18.1270   24.6050  -14.9810 C   0  0  1  0  0  0  0  0  0  0  0  0
   19.4940   25.2520  -14.7660 C   0  0  1  0  0  0  0  0  0  0  0  0
   19.9620   25.7070  -16.1440 C   0  0  0  0  0  0  0  0  0  0  0  0
   19.3570   24.6710  -17.0860 C   0  0  2  0  0  0  0  0  0  0  0  0
   18.4510   23.7880  -16.2310 C   0  0  2  0  0  0  0  0  0  0  0  0
   17.0020   25.5970  -15.2760 C   0  0  0  0  0  0  0  0  0  0  0  0
   17.9310   27.5120  -11.1400 C   0  0  0  0  0  0  0  0  0  0  0  0
   17.2250   23.2900  -16.9800 C   0  0  0  0  0  0  0  0  0  0  0  0
   16.5010   22.0100  -16.5930 C   0  0  0  0  0  0  0  0  0  0  0  0
   20.4420   23.9540  -17.8820 C   0  0  0  0  0  0  0  0  0  0  0  0
   20.0240   24.6050  -12.0180 F   0  0  0  0  0  0  0  0  0  0  0  0
   21.3750   26.5150   -7.6540 O   0  0  0  0  0  0  0  0  0  0  0  0
   16.6370   25.3770  -12.4440 O   0  0  0  0  0  0  0  0  0  0  0  0
   19.1990   22.6320  -15.8800 O   0  0  0  0  0  0  0  0  0  0  0  0
   16.7660   23.9310  -17.9240 O   0  0  0  0  0  0  0  0  0  0  0  0
   15.1480   22.0630  -17.0180 O   0  0  0  0  0  0  0  0  0  0  0  0
   29.8407    7.1996    9.9985 H   0  0  0  0  0  0  0  0  0  0  0  0
   30.9671    5.8352    9.2123 H   0  0  0  0  0  0  0  0  0  0  0  0
   31.1089    6.8917    7.7009 H   0  0  0  0  0  0  0  0  0  0  0  0
   30.2818    8.3308    8.5474 H   0  0  0  0  0  0  0  0  0  0  0  0
   31.8023    9.2506    8.9085 H   0  0  0  0  0  0  0  0  0  0  0  0
   34.2063    8.0828    9.4892 H   0  0  0  0  0  0  0  0  0  0  0  0
   33.0589    9.4075   10.1706 H   0  0  0  0  0  0  0  0  0  0  0  0
   33.4788    6.8081   10.4342 H   0  0  0  0  0  0  0  0  0  0  0  0
   34.2576    6.7456   12.1850 H   0  0  0  0  0  0  0  0  0  0  0  0
   34.4914    8.5028   11.8944 H   0  0  0  0  0  0  0  0  0  0  0  0
   33.5165    7.8716   14.1675 H   0  0  0  0  0  0  0  0  0  0  0  0
   32.5592    9.0658   13.1741 H   0  0  0  0  0  0  0  0  0  0  0  0
   32.0681    6.1443   13.5490 H   0  0  0  0  0  0  0  0  0  0  0  0
   28.8858    6.7297   11.4134 H   0  0  0  0  0  0  0  0  0  0  0  0
   28.2817    7.5747   13.4971 H   0  0  0  0  0  0  0  0  0  0  0  0
   27.9578    5.7895   13.6207 H   0  0  0  0  0  0  0  0  0  0  0  0
   32.1558    6.8627   16.1763 H   0  0  0  0  0  0  0  0  0  0  0  0
   31.9029    8.5984   16.1126 H   0  0  0  0  0  0  0  0  0  0  0  0
   30.3508    6.6744   17.6785 H   0  0  0  0  0  0  0  0  0  0  0  0
   30.1266    4.8281   16.0684 H   0  0  0  0  0  0  0  0  0  0  0  0
   29.3329    4.3508   14.5293 H   0  0  0  0  0  0  0  0  0  0  0  0
   31.0517    4.8727   14.5293 H   0  0  0  0  0  0  0  0  0  0  0  0
   32.3097    4.9267   11.8957 H   0  0  0  0  0  0  0  0  0  0  0  0
   31.4614    4.6315   10.3401 H   0  0  0  0  0  0  0  0  0  0  0  0
   33.1511    5.2410   10.3401 H   0  0  0  0  0  0  0  0  0  0  0  0
   28.0943    6.7501   17.6506 H   0  0  0  0  0  0  0  0  0  0  0  0
   26.1670    6.5392   17.6960 H   0  0  0  0  0  0  0  0  0  0  0  0
   26.3105    7.1250   16.0001 H   0  0  0  0  0  0  0  0  0  0  0  0
   30.0482    8.4312   18.8477 H   0  0  0  0  0  0  0  0  0  0  0  0
   30.7970    9.4372   17.5616 H   0  0  0  0  0  0  0  0  0  0  0  0
   29.0232    9.1537   17.5616 H   0  0  0  0  0  0  0  0  0  0  0  0
   33.1497    9.8206    7.8086 H   0  0  0  0  0  0  0  0  0  0  0  0
   29.7633    4.5469   13.0716 H   0  0  0  0  0  0  0  0  0  0  0  0
   28.0308    8.6829   16.5906 H   0  0  0  0  0  0  0  0  0  0  0  0
   28.3892    5.3431   18.3615 H   0  0  0  0  0  0  0  0  0  0  0  0
   25.6460    4.5620   16.9983 H   0  0  0  0  0  0  0  0  0  0  0  0
   18.6700   24.6039  -10.1816 H   0  0  0  0  0  0  0  0  0  0  0  0
   17.8636   26.2090   -9.4629 H   0  0  0  0  0  0  0  0  0  0  0  0
   18.8251   25.9349   -7.9026 H   0  0  0  0  0  0  0  0  0  0  0  0
   19.8263   24.5697   -8.6807 H   0  0  0  0  0  0  0  0  0  0  0  0
   21.3060   25.5665   -9.0033 H   0  0  0  0  0  0  0  0  0  0  0  0
   21.2628   28.2242   -9.6430 H   0  0  0  0  0  0  0  0  0  0  0  0
   22.0201   26.6172  -10.2592 H   0  0  0  0  0  0  0  0  0  0  0  0
   19.8409   28.0688  -10.6450 H   0  0  0  0  0  0  0  0  0  0  0  0
   20.1766   28.7651  -12.4004 H   0  0  0  0  0  0  0  0  0  0  0  0
   21.8602   28.2605  -12.0283 H   0  0  0  0  0  0  0  0  0  0  0  0
   20.9791   27.5837  -14.3252 H   0  0  0  0  0  0  0  0  0  0  0  0
   21.6285   26.2411  -13.2743 H   0  0  0  0  0  0  0  0  0  0  0  0
   18.7838   26.9905  -13.7872 H   0  0  0  0  0  0  0  0  0  0  0  0
   17.9061   23.9060  -11.6074 H   0  0  0  0  0  0  0  0  0  0  0  0
   18.5183   22.9621  -13.6529 H   0  0  0  0  0  0  0  0  0  0  0  0
   16.7633   23.4063  -13.8604 H   0  0  0  0  0  0  0  0  0  0  0  0
   20.2778   24.5692  -14.4062 H   0  0  0  0  0  0  0  0  0  0  0  0
   19.5857   26.7147  -16.3740 H   0  0  0  0  0  0  0  0  0  0  0  0
   21.0571   25.7714  -16.2247 H   0  0  0  0  0  0  0  0  0  0  0  0
   18.7358   25.1166  -17.8769 H   0  0  0  0  0  0  0  0  0  0  0  0
   16.5820   25.9673  -14.3292 H   0  0  0  0  0  0  0  0  0  0  0  0
   17.4012   26.4424  -15.8556 H   0  0  0  0  0  0  0  0  0  0  0  0
   16.2132   25.0951  -15.8556 H   0  0  0  0  0  0  0  0  0  0  0  0
   17.6392   27.7969  -10.1184 H   0  0  0  0  0  0  0  0  0  0  0  0
   18.3110   28.3961  -11.6728 H   0  0  0  0  0  0  0  0  0  0  0  0
   17.0563   27.1108  -11.6728 H   0  0  0  0  0  0  0  0  0  0  0  0
   17.8730   22.7178  -17.6602 H   0  0  0  0  0  0  0  0  0  0  0  0
   16.9983   21.1529  -17.0706 H   0  0  0  0  0  0  0  0  0  0  0  0
   16.5289   21.8993  -15.4989 H   0  0  0  0  0  0  0  0  0  0  0  0
   21.1546   23.4831  -17.1889 H   0  0  0  0  0  0  0  0  0  0  0  0
   19.9819   23.1815  -18.5157 H   0  0  0  0  0  0  0  0  0  0  0  0
   20.9722   24.6801  -18.5157 H   0  0  0  0  0  0  0  0  0  0  0  0
   20.7731   26.4449   -6.8711 H   0  0  0  0  0  0  0  0  0  0  0  0
   16.3657   25.5531  -11.5083 H   0  0  0  0  0  0  0  0  0  0  0  0
   19.2475   22.5571  -14.8940 H   0  0  0  0  0  0  0  0  0  0  0  0
   16.2258   24.6855  -17.5790 H   0  0  0  0  0  0  0  0  0  0  0  0
   14.5541   22.0863  -16.2263 H   0  0  0  0  0  0  0  0  0  0  0  0
  1  2  1  0
  2  3  1  0
  3  4  1  0
  4  5  1  0
  5  6  1  0
  6  7  1  0
  7  8  1  0
  8  9  1  0
  1 10  1  0
  5 10  1  0
  9 10  1  0
  9 11  1  0
 11 12  1  0
 12 13  1  0
  8 14  1  0
 13 14  1  0
 14 15  1  0
 15 16  1  0
 13 17  1  0
 16 17  1  0
 13 18  1  1
 10 19  1  1
 17 20  1  0
 20 21  1  0
 16 22  1  0
  9 23  1  6
  3 24  1  0
 11 25  1  0
 17 26  1  6
 20 27  1  0
 21 28  1  0
 14 29  1  6
 30 31  1  0
 31 32  1  0
 32 33  1  0
 33 34  1  0
 34 35  1  0
 35 36  1  0
 36 37  1  0
 37 38  1  0
 30 39  1  0
 34 39  1  0
 38 39  1  0
 38 40  1  0
 40 41  1  0
 41 42  1  0
 37 43  1  0
 42 43  1  0
 43 44  1  0
 44 45  1  0
 42 46  1  0
 45 46  1  0
 42 47  1  6
 39 48  1  6
 46 49  1  0
 49 50  1  0
 45 51  1  0
 38 52  1  1
 32 53  1  0
 40 54  1  0
 46 55  1  1
 49 56  1  0
 50 57  1  0
  1 58  1  0
  1 59  1  0
  2 60  1  0
  2 61  1  0
  3 62  1  0
  4 63  1  0
  4 64  1  0
  5 65  1  0
  6 66  1  0
  6 67  1  0
  7 68  1  0
  7 69  1  0
  8 70  1  1
 11 71  1  6
 12 72  1  0
 12 73  1  0
 15 74  1  0
 15 75  1  0
 16 76  1  1
 18 77  1  0
 18 78  1  0
 18 79  1  0
 19 80  1  0
 19 81  1  0
 19 82  1  0
 20 83  1  0
 21 84  1  0
 21 85  1  0
 22 86  1  0
 22 87  1  0
 22 88  1  0
 24 89  1  0
 25 90  1  0
 26 91  1  0
 27 92  1  0
 28 93  1  0
 30 94  1  0
 30 95  1  0
 31 96  1  0
 31 97  1  0
 32 98  1  0
 33 99  1  0
 33100  1  0
 34101  1  0
 35102  1  0
 35103  1  0
 36104  1  0
 36105  1  0
 37106  1  6
 40107  1  1
 41108  1  0
 41109  1  0
 43110  1  1
 44111  1  0
 44112  1  0
 45113  1  6
 47114  1  0
 47115  1  0
 47116  1  0
 48117  1  0
 48118  1  0
 48119  1  0
 49120  1  0
 50121  1  0
 50122  1  0
 51123  1  0
 51124  1  0
 51125  1  0
 53126  1  0
 54127  1  0
 55128  1  0
 56129  1  0
 57130  1  0
M  END
>  <PDBID>  (1) 
1M2Z

>  <PDB ID>  (1) 
1M2Z

>  <Generic Name>  (1) 
Betamethasone

>  <Brand Name>  (1) 
Beben Gel 0.025%#Beta 1 Kit#Betacort Scalp Lotion 0.1%#Betaderm Crm 0.05%#Betaderm Crm 0.1%#Betaderm Lotion 0.1%#Betaderm Ont 0.05%#Betaderm Ont 0.1%#Betagel - 0.1%#Betaject#Betaloan Suik#Betamethasone#Betamethasone Clotrimazole#Betamethasone Combo 6mg/ml PF#Betamethasone Combo 7mg/ml#Betamethasone Dipropionate#Betamethasone Dipropionate Augmented#Betamethasone Sodium Phosphate and Betamethasone Acetate#Betamethasone Sp 24mg/2ml PF#Betamethasone Valerate#Betamethasone Valerate Lot 0.1% USP#Betamycin Ophthalmic/otic Solution#Betaprolene Cream 0.05%#Betaprolene Ointment 0.05%#Betaprone Cream 0.05%#Betaprone Lotion 0.05%#Betaprone Ointment 0.05%#Beteflam#Betnesol Eye and Ear Drops#Betnesol Eye and Ear Drops 0.1%#Betnesol Pellets 0.1mg#Betnesol Retention Enema 5mg/100ml#Betnesol Retention Enemas#Betnesol Tab 0.5mg#Betnesol Tablets#Betnovate 1/2 Crm 0.05%#Betnovate 1/2 Lot 0.05%#Betnovate 1/2 Ont 0.05%#Betnovate Crm 0.1%#Betnovate Lot 0.1%#Betnovate Lotion 0.1%#Betnovate Ont 0.1%#Calcipotriene 0.005% and Betamethasone Dipropionate 0.064%#Calcipotriene and Betamethasone Dipropionate#Celestoderm V#Celestoderm V Crm 0.1%#Celestoderm V Ont 0.1%#Celestoderm V/2#Celestoderm V/2 Cream .05%#Celestoderm V/2 Ointment 0.05%#Celestone Repetabs 1mg#Celestone Soluspan#Celestone Tab 0.5mg#Clotrimazole and Betamethasone Dipropionate#Dermacinrx Therazole Pak#Diprogen Cream#Diprogen Ointment#Diprolene#Diprolene AF#Diprosalic#Diprosone Cream 0.05%#Diprosone Lotion 0.05%#Diprosone Ointment 0.05%#Dom-gentamicin-betamethasone#Dovobet Gel#Dovobet Ointment#Dr. Throwers Beta#Dr. Throwers Pbc No. 1#Enstilar#Garasone Ophthalmic Ointment#Garasone Ophthalmic and Otic Solution#Lotriderm Cream#Lotrisone#Luxiq#Marbeta 25 Kit#Occlucort Film Forming Lot 0.05#PMS-clotrimazole-betamethasone#PMS-gentamicin-betamethasone#Prevex B Cream 0.1%#Pro-lene Glycol Cream - 0.05%#Pro-lene Glycol Lotion - 0.05%#Pro-lene Glycol Ointment - 0.05%#Pro-sone Cream - 0.05%#Pro-sone Lotion -  0.05%#Pro-sone Ointment - 0.05%#Ratio-ectosone#Ratio-ectosone Mild Cream 0.05%#Ratio-ectosone Mild Lotion 0.05%#Ratio-ectosone Regular Cream 0.1%#Ratio-ectosone Regular Lotion 0.1%#Ratio-topilene#Ratio-topisalic#Ratio-topisone#Readysharp Betamethasone#Rhoprolene Glycol Cream 0.5mg/gm#Rhoprolene Glycol Lotion 0.5mg/gm#Rhoprolene Glycol Ointment 0.5mg/gm#Rhoprosone Cream 0.05%#Rhoprosone Lotion 0.05%#Rhoprosone Oint 0.05%#Rivasone Scalp Lot 0.1%#Rolene Cream 0.05%#Rolene Lotion 0.05%#Rolene Ointment 0.05%#Rosone Cream 0.05%#Rosone Lotion 0.05%#Rosone Ointment 0.05%#Sandoz Pentasone#Sernivo#Taclonex#Taclonex Scalp#Taro Sone Lot 0.05%#Taro Sone Ont#Taro-sone Cream 0.05%#Valisone Scalp Lotion#Valisone-G Cream#Valisone-G Ointment#Bentelan#Betnovate#Celestamine#Celestone#Diprosone#Fucibet#Procort#Rinderon

>  <DrugBank ID>  (1) 
DB00443

>  <ATC Codes>  (1) 
S01BB04#R03BA04#S01CA05#H02AB01#R01AD06#D07BC01#C05AA05#D07CC01#D07AC01#S01CB04#D07XC01#S02BA07#A07EA04#S03BA03#S01BA06#S03CA06

>  <Ligand ID>  (1) 
DEX

>  <Target Name>  (1) 
Glucocorticoid receptor

>  <UniProt ID>  (1) 
P04150

>  <PDB ID.1>  (1) 
1M2Z

>  <Seq. Identity>  (1) 
100%

$$$$
