PDB_DB00685_94
     RDKit          3D

 45 49  0  0  0  0  0  0  0  0999 V2000
  -10.5440  134.0710  223.4320 C   0  0  0  0  0  0  0  0  0  0  0  0
  -11.8290  133.8720  223.9090 C   0  0  0  0  0  0  0  0  0  0  0  0
  -12.9080  134.3920  223.2240 C   0  0  0  0  0  0  0  0  0  0  0  0
  -14.1120  134.2010  223.6790 F   0  0  0  0  0  0  0  0  0  0  0  0
  -12.7050  135.1160  222.0560 C   0  0  0  0  0  0  0  0  0  0  0  0
  -11.4210  135.3130  221.5820 C   0  0  0  0  0  0  0  0  0  0  0  0
  -11.2170  136.0170  220.4430 F   0  0  0  0  0  0  0  0  0  0  0  0
  -10.3360  134.7890  222.2760 C   0  0  0  0  0  0  0  0  0  0  0  0
   -9.0740  134.9730  221.8270 N   0  0  0  0  0  0  0  0  0  0  0  0
   -8.4420  133.8590  221.4330 C   0  0  0  0  0  0  0  0  0  0  0  0
   -9.0590  132.6640  221.4920 N   0  0  0  0  0  0  0  0  0  0  0  0
   -8.4640  131.5150  221.1110 C   0  0  0  0  0  0  0  0  0  0  0  0
   -9.2620  130.2960  221.2100 N   0  0  0  0  0  0  0  0  0  0  0  0
  -10.5990  130.3050  221.7340 C   0  0  0  0  0  0  0  0  0  0  0  0
  -10.8790  128.8530  221.9670 C   0  0  1  0  0  0  0  0  0  0  0  0
  -11.1630  128.0050  220.7710 C   0  0  0  0  0  0  0  0  0  0  0  0
  -11.8760  126.7090  220.9610 N   0  0  0  0  0  0  0  0  0  0  0  0
   -9.7790  128.0550  221.3320 C   0  0  1  0  0  0  0  0  0  0  0  0
   -8.7990  129.0140  220.7310 C   0  0  0  0  0  0  0  0  0  0  0  0
   -7.1690  131.5560  220.6250 C   0  0  0  0  0  0  0  0  0  0  0  0
   -6.5000  132.7780  220.5500 C   0  0  0  0  0  0  0  0  0  0  0  0
   -7.1410  133.9410  220.9580 C   0  0  0  0  0  0  0  0  0  0  0  0
   -6.5000  135.1780  220.8950 C   0  0  0  0  0  0  0  0  0  0  0  0
   -7.1960  136.3180  221.3190 C   0  0  0  0  0  0  0  0  0  0  0  0
   -8.5000  136.1800  221.7880 C   0  0  0  0  0  0  0  0  0  0  0  0
   -6.6060  137.7040  221.3030 C   0  0  0  0  0  0  0  0  0  0  0  0
   -7.2950  138.6770  221.6950 O   0  0  0  0  0  0  0  0  0  0  0  0
   -5.4470  137.8810  220.8880 O   0  0  0  0  0  0  0  0  0  0  0  0
   -5.3520  135.2050  220.4700 O   0  0  0  0  0  0  0  0  0  0  0  0
   -6.5400  130.4540  220.2320 F   0  0  0  0  0  0  0  0  0  0  0  0
   -9.6860  133.6535  223.9792 H   0  0  0  0  0  0  0  0  0  0  0  0
  -11.9894  133.2992  224.8343 H   0  0  0  0  0  0  0  0  0  0  0  0
  -13.5641  135.5318  221.5091 H   0  0  0  0  0  0  0  0  0  0  0  0
  -10.6514  130.8736  222.6742 H   0  0  0  0  0  0  0  0  0  0  0  0
  -11.3252  130.7840  221.0609 H   0  0  0  0  0  0  0  0  0  0  0  0
  -11.3917  128.9442  222.9359 H   0  0  0  0  0  0  0  0  0  0  0  0
  -11.6387  128.2045  219.7994 H   0  0  0  0  0  0  0  0  0  0  0  0
  -11.9805  126.5190  221.9679 H   0  0  0  0  0  0  0  0  0  0  0  0
  -12.8068  126.7618  220.5232 H   0  0  0  0  0  0  0  0  0  0  0  0
   -9.0702  127.2516  221.5814 H   0  0  0  0  0  0  0  0  0  0  0  0
   -8.8256  128.9696  219.6322 H   0  0  0  0  0  0  0  0  0  0  0  0
   -7.7565  128.7987  221.0084 H   0  0  0  0  0  0  0  0  0  0  0  0
   -5.4689  132.8204  220.1692 H   0  0  0  0  0  0  0  0  0  0  0  0
   -9.0585  137.0651  222.1268 H   0  0  0  0  0  0  0  0  0  0  0  0
   -6.9122  139.5900  221.6866 H   0  0  0  0  0  0  0  0  0  0  0  0
  1  2  2  0
  2  3  1  0
  3  4  1  0
  3  5  2  0
  5  6  1  0
  6  7  1  0
  1  8  1  0
  6  8  2  0
  8  9  1  0
  9 10  1  0
 10 11  2  0
 11 12  1  0
 12 13  1  0
 13 14  1  0
 14 15  1  0
 15 16  1  0
 16 17  1  0
 15 18  1  0
 16 18  1  0
 13 19  1  0
 18 19  1  0
 12 20  2  0
 20 21  1  0
 10 22  1  0
 21 22  2  0
 22 23  1  0
 23 24  1  0
  9 25  1  0
 24 25  2  0
 24 26  1  0
 26 27  1  0
 26 28  2  0
 23 29  2  0
 20 30  1  0
  1 31  1  0
  2 32  1  0
  5 33  1  0
 14 34  1  0
 14 35  1  0
 15 36  1  1
 16 37  1  0
 17 38  1  0
 17 39  1  0
 18 40  1  1
 19 41  1  0
 19 42  1  0
 21 43  1  0
 25 44  1  0
 27 45  1  0
M  END
$$$$
