PDB_DB08864_99
     RDKit          3D

 46 48  0  0  0  0  0  0  0  0999 V2000
   49.2640  -24.8940   38.2600 C   0  0  0  0  0  0  0  0  0  0  0  0
   52.3030  -25.5890   33.3850 N   0  0  0  0  0  0  0  0  0  0  0  0
   48.6710  -26.9060   39.4220 C   0  0  0  0  0  0  0  0  0  0  0  0
   49.9220  -27.3760   39.1880 C   0  0  0  0  0  0  0  0  0  0  0  0
   50.8680  -26.6400   38.5180 C   0  0  0  0  0  0  0  0  0  0  0  0
   50.5370  -25.4040   38.0430 C   0  0  0  0  0  0  0  0  0  0  0  0
   48.9500  -23.5390   37.7410 C   0  0  0  0  0  0  0  0  0  0  0  0
   48.3110  -25.6510   38.9500 C   0  0  0  0  0  0  0  0  0  0  0  0
   52.2280  -27.2300   38.3390 C   0  0  0  0  0  0  0  0  0  0  0  0
   51.5430  -24.6640   37.3590 N   0  0  0  0  0  0  0  0  0  0  0  0
   52.8320  -24.4830   33.8980 C   0  0  0  0  0  0  0  0  0  0  0  0
   52.5830  -24.1340   35.2270 C   0  0  0  0  0  0  0  0  0  0  0  0
   51.8340  -24.9830   36.0230 C   0  0  0  0  0  0  0  0  0  0  0  0
   51.3640  -26.1260   35.5000 N   0  0  0  0  0  0  0  0  0  0  0  0
   51.6270  -26.3870   34.2190 C   0  0  0  0  0  0  0  0  0  0  0  0
   51.1260  -27.5410   33.6210 N   0  0  0  0  0  0  0  0  0  0  0  0
   49.1750  -30.8700   35.2080 C   0  0  0  0  0  0  0  0  0  0  0  0
   49.6080  -30.8310   33.9050 C   0  0  0  0  0  0  0  0  0  0  0  0
   50.2500  -29.7090   33.4460 C   0  0  0  0  0  0  0  0  0  0  0  0
   50.4500  -28.5980   34.2730 C   0  0  0  0  0  0  0  0  0  0  0  0
   49.9900  -28.6280   35.5670 C   0  0  0  0  0  0  0  0  0  0  0  0
   49.3570  -29.7780   36.0180 C   0  0  0  0  0  0  0  0  0  0  0  0
   47.9930  -33.0400   36.1210 N   0  0  0  0  0  0  0  0  0  0  0  0
   48.4990  -32.0840   35.7470 C   0  0  0  0  0  0  0  0  0  0  0  0
   46.7750  -27.3310   40.9140 C   0  0  0  0  0  0  0  0  0  0  0  0
   47.7740  -27.8400   40.1710 C   0  0  0  0  0  0  0  0  0  0  0  0
   45.3310  -28.9640   42.3680 N   0  0  0  0  0  0  0  0  0  0  0  0
   45.9790  -28.2390   41.7800 C   0  0  0  0  0  0  0  0  0  0  0  0
   50.1876  -28.3812   39.5473 H   0  0  0  0  0  0  0  0  0  0  0  0
   48.7906  -22.8511   38.5845 H   0  0  0  0  0  0  0  0  0  0  0  0
   49.7883  -23.1782   37.1270 H   0  0  0  0  0  0  0  0  0  0  0  0
   48.0384  -23.5837   37.1270 H   0  0  0  0  0  0  0  0  0  0  0  0
   47.2964  -25.2595   39.1153 H   0  0  0  0  0  0  0  0  0  0  0  0
   52.6760  -27.4244   39.3247 H   0  0  0  0  0  0  0  0  0  0  0  0
   52.1475  -28.1741   37.7802 H   0  0  0  0  0  0  0  0  0  0  0  0
   52.8624  -26.5262   37.7802 H   0  0  0  0  0  0  0  0  0  0  0  0
   52.0499  -23.9057   37.8374 H   0  0  0  0  0  0  0  0  0  0  0  0
   53.4688  -23.8397   33.2730 H   0  0  0  0  0  0  0  0  0  0  0  0
   52.9785  -23.1931   35.6374 H   0  0  0  0  0  0  0  0  0  0  0  0
   51.2612  -27.6334   32.6041 H   0  0  0  0  0  0  0  0  0  0  0  0
   49.4419  -31.6894   33.2375 H   0  0  0  0  0  0  0  0  0  0  0  0
   50.6144  -29.6821   32.4085 H   0  0  0  0  0  0  0  0  0  0  0  0
   50.1203  -27.7605   36.2306 H   0  0  0  0  0  0  0  0  0  0  0  0
   48.9908  -29.8148   37.0546 H   0  0  0  0  0  0  0  0  0  0  0  0
   46.5498  -26.2548   40.8809 H   0  0  0  0  0  0  0  0  0  0  0  0
   47.9292  -28.9275   40.1149 H   0  0  0  0  0  0  0  0  0  0  0  0
  3  4  1  0
  4  5  2  0
  1  6  2  0
  5  6  1  0
  1  7  1  0
  1  8  1  0
  3  8  2  0
  5  9  1  0
  6 10  1  0
  2 11  2  0
 11 12  1  0
 10 13  1  0
 12 13  2  0
 13 14  1  0
  2 15  1  0
 14 15  2  0
 15 16  1  0
 17 18  2  0
 18 19  1  0
 16 20  1  0
 19 20  2  0
 20 21  1  0
 17 22  1  0
 21 22  2  0
 17 24  1  0
 23 24  3  0
  3 26  1  0
 25 26  2  0
 25 28  1  0
 27 28  3  0
  4 29  1  0
  7 30  1  0
  7 31  1  0
  7 32  1  0
  8 33  1  0
  9 34  1  0
  9 35  1  0
  9 36  1  0
 10 37  1  0
 11 38  1  0
 12 39  1  0
 16 40  1  0
 18 41  1  0
 19 42  1  0
 21 43  1  0
 22 44  1  0
 25 45  1  0
 26 46  1  0
M  END
>  <PDBID>  (1) 
4G1Q

>  <PDB ID>  (1) 
4G1Q

>  <Generic Name>  (1) 
Rilpivirine

>  <Brand Name>  (1) 
Complera#Edurant#Odefsey

>  <DrugBank ID>  (1) 
DB08864

>  <ATC Codes>  (1) 
nan

>  <Ligand ID>  (1) 
T27

>  <Target Name>  (1) 
Reverse transcriptase/RNaseH

>  <UniProt ID>  (1) 
Q72547

>  <PDB ID.1>  (1) 
4G1Q

>  <Seq. Identity>  (1) 
95%

$$$$
