PDB_DB00452_76
     RDKit          3D

 88 91  0  0  0  0  0  0  0  0999 V2000
  101.0640    4.2720  -59.3150 C   0  0  2  0  0  0  0  0  0  0  0  0
  101.6730    2.9790  -59.5410 O   0  0  0  0  0  0  0  0  0  0  0  0
   99.8570    4.4910  -60.2720 C   0  0  2  0  0  0  0  0  0  0  0  0
   98.8710    3.3830  -60.1380 N   0  0  0  0  0  0  0  0  0  0  0  0
  100.3640    4.6310  -61.7730 C   0  0  1  0  0  0  0  0  0  0  0  0
   99.2550    4.8520  -62.6790 O   0  0  0  0  0  0  0  0  0  0  0  0
  101.3790    5.8160  -61.8730 C   0  0  2  0  0  0  0  0  0  0  0  0
  101.8300    5.9620  -63.2170 O   0  0  0  0  0  0  0  0  0  0  0  0
  102.5900    5.5660  -60.8980 C   0  0  2  0  0  0  0  0  0  0  0  0
  102.0420    5.3960  -59.5150 O   0  0  0  0  0  0  0  0  0  0  0  0
  103.6060    6.7600  -60.9500 C   0  0  0  0  0  0  0  0  0  0  0  0
  104.3020    0.1710  -57.4890 C   0  0  1  0  0  0  0  0  0  0  0  0
  105.2870   -0.3820  -56.5200 N   0  0  0  0  0  0  0  0  0  0  0  0
  102.9720    0.6660  -56.7920 C   0  0  1  0  0  0  0  0  0  0  0  0
  101.9660    1.2530  -57.8100 C   0  0  1  0  0  0  0  0  0  0  0  0
  100.8150    1.7900  -57.0950 O   0  0  0  0  0  0  0  0  0  0  0  0
  102.6250    2.4450  -58.5550 C   0  0  1  0  0  0  0  0  0  0  0  0
  103.9600    1.9930  -59.2450 C   0  0  1  0  0  0  0  0  0  0  0  0
  104.6080    3.1340  -59.9250 N   0  0  0  0  0  0  0  0  0  0  0  0
  104.9670    1.3880  -58.2150 C   0  0  0  0  0  0  0  0  0  0  0  0
   99.5440    1.0780  -56.9960 C   0  0  1  0  0  0  0  0  0  0  0  0
   98.3630    2.0090  -56.9940 C   0  0  1  0  0  0  0  0  0  0  0  0
   97.1950    1.0490  -57.4490 C   0  0  1  0  0  0  0  0  0  0  0  0
   97.8740    0.0230  -58.3490 C   0  0  2  0  0  0  0  0  0  0  0  0
   99.3220    0.1170  -58.0320 O   0  0  0  0  0  0  0  0  0  0  0  0
   97.6610    0.2680  -59.8340 C   0  0  0  0  0  0  0  0  0  0  0  0
   93.6190   -1.1000  -54.4190 C   0  0  1  0  0  0  0  0  0  0  0  0
   94.8040   -0.2650  -53.7990 C   0  0  1  0  0  0  0  0  0  0  0  0
   94.9700    1.0890  -54.5210 C   0  0  2  0  0  0  0  0  0  0  0  0
   95.2240    0.8590  -56.0320 C   0  0  1  0  0  0  0  0  0  0  0  0
   96.5080    0.3430  -56.3390 O   0  0  0  0  0  0  0  0  0  0  0  0
   93.8340   -1.3570  -55.9430 C   0  0  1  0  0  0  0  0  0  0  0  0
   94.1080   -0.0290  -56.5900 O   0  0  0  0  0  0  0  0  0  0  0  0
   95.0010   -2.3950  -56.2180 C   0  0  0  0  0  0  0  0  0  0  0  0
  103.1490    7.9200  -60.1710 N   0  0  0  0  0  0  0  0  0  0  0  0
   98.2360    2.6770  -55.7330 O   0  0  0  0  0  0  0  0  0  0  0  0
   94.5660   -0.0430  -52.4390 O   0  0  0  0  0  0  0  0  0  0  0  0
   93.3880   -2.3810  -53.7790 O   0  0  0  0  0  0  0  0  0  0  0  0
   97.0920   -0.9240  -60.3540 O   0  0  0  0  0  0  0  0  0  0  0  0
  102.3340   -0.4150  -56.1350 O   0  0  0  0  0  0  0  0  0  0  0  0
   95.1900   -2.6240  -57.6870 N   0  0  0  0  0  0  0  0  0  0  0  0
   96.0740    1.9240  -53.9140 N   0  0  0  0  0  0  0  0  0  0  0  0
  100.7222    4.2779  -58.2695 H   0  0  0  0  0  0  0  0  0  0  0  0
   99.3495    5.4259  -59.9920 H   0  0  0  0  0  0  0  0  0  0  0  0
   98.7018    3.1928  -59.1400 H   0  0  0  0  0  0  0  0  0  0  0  0
   97.9864    3.6540  -60.5907 H   0  0  0  0  0  0  0  0  0  0  0  0
  100.8600    3.6931  -62.0633 H   0  0  0  0  0  0  0  0  0  0  0  0
   98.4301    5.0164  -62.1569 H   0  0  0  0  0  0  0  0  0  0  0  0
  100.8789    6.7493  -61.5751 H   0  0  0  0  0  0  0  0  0  0  0  0
  102.7719    6.2669  -63.2177 H   0  0  0  0  0  0  0  0  0  0  0  0
  103.1367    4.6613  -61.2024 H   0  0  0  0  0  0  0  0  0  0  0  0
  104.5708    6.4206  -60.5450 H   0  0  0  0  0  0  0  0  0  0  0  0
  103.6978    7.0763  -61.9995 H   0  0  0  0  0  0  0  0  0  0  0  0
  104.0281   -0.6313  -58.1899 H   0  0  0  0  0  0  0  0  0  0  0  0
  104.9629   -0.2000  -55.5594 H   0  0  0  0  0  0  0  0  0  0  0  0
  105.3782   -1.3977  -56.6650 H   0  0  0  0  0  0  0  0  0  0  0  0
  103.2639    1.4497  -56.0774 H   0  0  0  0  0  0  0  0  0  0  0  0
  101.6671    0.4597  -58.5110 H   0  0  0  0  0  0  0  0  0  0  0  0
  102.8776    3.2370  -57.8346 H   0  0  0  0  0  0  0  0  0  0  0  0
  103.6928    1.2192  -59.9797 H   0  0  0  0  0  0  0  0  0  0  0  0
  104.9792    3.7876  -59.2208 H   0  0  0  0  0  0  0  0  0  0  0  0
  105.3795    2.7895  -60.5141 H   0  0  0  0  0  0  0  0  0  0  0  0
  105.8721    1.0511  -58.7415 H   0  0  0  0  0  0  0  0  0  0  0  0
  105.2381    2.1540  -57.4736 H   0  0  0  0  0  0  0  0  0  0  0  0
   99.6292    0.5495  -56.0350 H   0  0  0  0  0  0  0  0  0  0  0  0
   98.4122    2.8770  -57.6679 H   0  0  0  0  0  0  0  0  0  0  0  0
   96.4055    1.6401  -57.9362 H   0  0  0  0  0  0  0  0  0  0  0  0
   97.4429   -0.9707  -58.1574 H   0  0  0  0  0  0  0  0  0  0  0  0
   96.9765    1.1154  -59.9864 H   0  0  0  0  0  0  0  0  0  0  0  0
   98.6064    0.5148  -60.3394 H   0  0  0  0  0  0  0  0  0  0  0  0
   92.7331   -0.4712  -54.2465 H   0  0  0  0  0  0  0  0  0  0  0  0
   95.7318   -0.8421  -53.9261 H   0  0  0  0  0  0  0  0  0  0  0  0
   94.0336    1.6523  -54.3950 H   0  0  0  0  0  0  0  0  0  0  0  0
   95.2076    1.8445  -56.5205 H   0  0  0  0  0  0  0  0  0  0  0  0
   92.9307   -1.8131  -56.3743 H   0  0  0  0  0  0  0  0  0  0  0  0
   95.9368   -2.0032  -55.7930 H   0  0  0  0  0  0  0  0  0  0  0  0
   94.7320   -3.3528  -55.7487 H   0  0  0  0  0  0  0  0  0  0  0  0
  103.2309    7.7121  -59.1655 H   0  0  0  0  0  0  0  0  0  0  0  0
  103.7304    8.7385  -60.4009 H   0  0  0  0  0  0  0  0  0  0  0  0
   98.3602    2.0238  -54.9995 H   0  0  0  0  0  0  0  0  0  0  0  0
   95.1736   -0.6098  -51.9008 H   0  0  0  0  0  0  0  0  0  0  0  0
   93.4085   -2.2671  -52.7958 H   0  0  0  0  0  0  0  0  0  0  0  0
   96.8124   -1.5097  -59.6064 H   0  0  0  0  0  0  0  0  0  0  0  0
  102.4054   -0.2940  -55.1550 H   0  0  0  0  0  0  0  0  0  0  0  0
   95.8392   -3.4106  -57.8311 H   0  0  0  0  0  0  0  0  0  0  0  0
   94.2817   -2.8447  -58.1197 H   0  0  0  0  0  0  0  0  0  0  0  0
   96.0137    1.8784  -52.8868 H   0  0  0  0  0  0  0  0  0  0  0  0
   96.9876    1.5606  -54.2208 H   0  0  0  0  0  0  0  0  0  0  0  0
  2  1  1  0
  3  1  1  0
  4  3  1  0
  5  3  1  0
  6  5  1  0
  7  5  1  0
  8  7  1  0
  9  7  1  0
 10  1  1  0
 10  9  1  0
 11  9  1  0
 13 12  1  0
 14 12  1  0
 15 14  1  0
 16 15  1  0
 17 15  1  0
 17  2  1  0
 18 17  1  0
 19 18  1  0
 20 18  1  0
 20 12  1  0
 21 16  1  0
 22 21  1  0
 23 22  1  0
 24 23  1  0
 25 24  1  0
 25 21  1  0
 26 24  1  0
 28 27  1  0
 29 28  1  0
 30 29  1  0
 31 30  1  0
 31 23  1  0
 32 27  1  0
 33 32  1  0
 33 30  1  0
 34 32  1  0
 35 11  1  0
 36 22  1  0
 37 28  1  0
 38 27  1  0
 39 26  1  0
 40 14  1  0
 41 34  1  0
 42 29  1  0
  1 43  1  1
  3 44  1  1
  4 45  1  0
  4 46  1  0
  5 47  1  6
  6 48  1  0
  7 49  1  1
  8 50  1  0
  9 51  1  6
 11 52  1  0
 11 53  1  0
 12 54  1  6
 13 55  1  0
 13 56  1  0
 14 57  1  1
 15 58  1  6
 17 59  1  1
 18 60  1  6
 19 61  1  0
 19 62  1  0
 20 63  1  0
 20 64  1  0
 21 65  1  1
 22 66  1  6
 23 67  1  6
 24 68  1  1
 26 69  1  0
 26 70  1  0
 27 71  1  6
 28 72  1  1
 29 73  1  6
 30 74  1  6
 32 75  1  6
 34 76  1  0
 34 77  1  0
 35 78  1  0
 35 79  1  0
 36 80  1  0
 37 81  1  0
 38 82  1  0
 39 83  1  0
 40 84  1  0
 41 85  1  0
 41 86  1  0
 42 87  1  0
 42 88  1  0
M  END
$$$$
