PDB_DB00205_94
     RDKit          3D

 30 31  0  0  0  0  0  0  0  0999 V2000
   29.0140  -27.3900    8.8790 N   0  0  0  0  0  0  0  0  0  0  0  0
   29.7160  -26.2810    8.4340 C   0  0  0  0  0  0  0  0  0  0  0  0
   29.3570  -28.6530    8.4070 C   0  0  0  0  0  0  0  0  0  0  0  0
   30.3520  -28.8150    7.2970 C   0  0  0  0  0  0  0  0  0  0  0  0
   31.0480  -27.5260    6.9100 C   0  0  0  0  0  0  0  0  0  0  0  0
   30.6650  -26.3230    7.4090 N   0  0  0  0  0  0  0  0  0  0  0  0
   30.7740  -30.1050    6.7450 C   0  0  0  0  0  0  0  0  0  0  0  0
   30.1640  -30.5750    5.5550 C   0  0  0  0  0  0  0  0  0  0  0  0
   30.5140  -31.8080    4.9720 C   0  0  0  0  0  0  0  0  0  0  0  0
   31.5300  -32.6410    5.6010 C   0  0  0  0  0  0  0  0  0  0  0  0
   32.1620  -32.2220    6.7790 C   0  0  0  0  0  0  0  0  0  0  0  0
   31.7850  -30.9700    7.3420 C   0  0  0  0  0  0  0  0  0  0  0  0
   28.7040  -29.7520    8.8200 N   0  0  0  0  0  0  0  0  0  0  0  0
   29.3890  -25.0160    8.9540 N   0  0  0  0  0  0  0  0  0  0  0  0
   32.0850  -27.5680    5.8160 C   0  0  0  0  0  0  0  0  0  0  0  0
   33.3830  -26.8110    6.0210 C   0  0  0  0  0  0  0  0  0  0  0  0
   31.8680  -34.0790    4.8320 Cl  0  0  0  0  0  0  0  0  0  0  0  0
   29.3929  -29.9571    5.0717 H   0  0  0  0  0  0  0  0  0  0  0  0
   30.0225  -32.1406    4.0459 H   0  0  0  0  0  0  0  0  0  0  0  0
   32.9314  -32.8457    7.2576 H   0  0  0  0  0  0  0  0  0  0  0  0
   32.2781  -30.6404    8.2684 H   0  0  0  0  0  0  0  0  0  0  0  0
   28.9738  -30.6778    8.4581 H   0  0  0  0  0  0  0  0  0  0  0  0
   27.9336  -29.6688    9.4985 H   0  0  0  0  0  0  0  0  0  0  0  0
   29.8999  -24.1804    8.6352 H   0  0  0  0  0  0  0  0  0  0  0  0
   28.6386  -24.9251    9.6537 H   0  0  0  0  0  0  0  0  0  0  0  0
   32.3467  -28.6245    5.6568 H   0  0  0  0  0  0  0  0  0  0  0  0
   31.6048  -27.0555    4.9694 H   0  0  0  0  0  0  0  0  0  0  0  0
   33.5757  -26.6986    7.0981 H   0  0  0  0  0  0  0  0  0  0  0  0
   34.2099  -27.3685    5.5568 H   0  0  0  0  0  0  0  0  0  0  0  0
   33.3049  -25.8168    5.5568 H   0  0  0  0  0  0  0  0  0  0  0  0
  1  2  2  0
  1  3  1  0
  3  4  2  0
  4  5  1  0
  2  6  1  0
  5  6  2  0
  4  7  1  0
  7  8  2  0
  8  9  1  0
  9 10  2  0
 10 11  1  0
  7 12  1  0
 11 12  2  0
  3 13  1  0
  2 14  1  0
  5 15  1  0
 15 16  1  0
 10 17  1  0
  8 18  1  0
  9 19  1  0
 11 20  1  0
 12 21  1  0
 13 22  1  0
 13 23  1  0
 14 24  1  0
 14 25  1  0
 15 26  1  0
 15 27  1  0
 16 28  1  0
 16 29  1  0
 16 30  1  0
M  END
$$$$
