PDB_DB00722_98
     RDKit          3D

 60 61  0  0  0  0  0  0  0  0999 V2000
  -28.3030  -20.4080  -34.7740 O   0  0  0  0  0  0  0  0  0  0  0  0
  -26.2890  -21.2360  -34.7760 O   0  0  0  0  0  0  0  0  0  0  0  0
  -27.0740  -20.3500  -34.4390 C   0  0  0  0  0  0  0  0  0  0  0  0
  -26.5420  -19.1290  -33.6480 C   0  0  2  0  0  0  0  0  0  0  0  0
  -26.4180  -19.7210  -32.3000 C   0  0  0  0  0  0  0  0  0  0  0  0
  -25.1380  -20.3740  -31.8460 C   0  0  0  0  0  0  0  0  0  0  0  0
  -24.9480  -20.9490  -30.4960 C   0  0  0  0  0  0  0  0  0  0  0  0
  -25.5160  -20.3160  -29.2880 C   0  0  0  0  0  0  0  0  0  0  0  0
  -25.2750  -20.9120  -27.9950 C   0  0  0  0  0  0  0  0  0  0  0  0
  -24.4700  -22.1380  -27.8800 C   0  0  0  0  0  0  0  0  0  0  0  0
  -23.9090  -22.7670  -29.0800 C   0  0  0  0  0  0  0  0  0  0  0  0
  -24.1500  -22.1680  -30.3820 C   0  0  0  0  0  0  0  0  0  0  0  0
  -27.1190  -18.1380  -33.9690 N   0  0  0  0  0  0  0  0  0  0  0  0
  -28.5840  -11.5430  -36.0340 N   0  0  0  0  0  0  0  0  0  0  0  0
  -25.8070  -17.1520  -35.8840 C   0  0  0  0  0  0  0  0  0  0  0  0
  -27.2610  -17.5220  -35.3340 C   0  0  2  0  0  0  0  0  0  0  0  0
  -24.8520  -17.0380  -35.0470 O   0  0  0  0  0  0  0  0  0  0  0  0
  -28.1220  -16.2850  -35.2840 C   0  0  0  0  0  0  0  0  0  0  0  0
  -27.6920  -15.0040  -34.7730 C   0  0  0  0  0  0  0  0  0  0  0  0
  -28.2810  -13.8180  -35.6110 C   0  0  0  0  0  0  0  0  0  0  0  0
  -27.9410  -12.5420  -35.1450 C   0  0  0  0  0  0  0  0  0  0  0  0
  -22.5700  -15.1820  -36.9960 O   0  0  0  0  0  0  0  0  0  0  0  0
  -24.4740  -14.2250  -37.5470 O   0  0  0  0  0  0  0  0  0  0  0  0
  -25.6100  -16.9680  -37.2440 N   0  0  0  0  0  0  0  0  0  0  0  0
  -24.2490  -16.6190  -37.8570 C   0  0  1  0  0  0  0  0  0  0  0  0
  -24.6010  -16.5590  -39.3420 C   0  0  0  0  0  0  0  0  0  0  0  0
  -25.9190  -16.8080  -39.5360 C   0  0  0  0  0  0  0  0  0  0  0  0
  -26.6480  -17.0770  -38.3050 C   0  0  0  0  0  0  0  0  0  0  0  0
  -23.7700  -15.1860  -37.4400 C   0  0  0  0  0  0  0  0  0  0  0  0
  -28.9258  -19.6898  -34.4976 H   0  0  0  0  0  0  0  0  0  0  0  0
  -25.5626  -18.6595  -33.8220 H   0  0  0  0  0  0  0  0  0  0  0  0
  -26.6253  -18.9117  -31.5844 H   0  0  0  0  0  0  0  0  0  0  0  0
  -27.1152  -20.5705  -32.3476 H   0  0  0  0  0  0  0  0  0  0  0  0
  -24.9539  -21.1973  -32.5519 H   0  0  0  0  0  0  0  0  0  0  0  0
  -24.4583  -19.5100  -31.8085 H   0  0  0  0  0  0  0  0  0  0  0  0
  -26.1172  -19.3987  -29.3728 H   0  0  0  0  0  0  0  0  0  0  0  0
  -25.6955  -20.4469  -27.0912 H   0  0  0  0  0  0  0  0  0  0  0  0
  -24.2884  -22.5841  -26.8911 H   0  0  0  0  0  0  0  0  0  0  0  0
  -23.3100  -23.6857  -28.9953 H   0  0  0  0  0  0  0  0  0  0  0  0
  -23.7300  -22.6341  -31.2855 H   0  0  0  0  0  0  0  0  0  0  0  0
  -28.0882  -18.2945  -33.6573 H   0  0  0  0  0  0  0  0  0  0  0  0
  -29.0477  -10.8226  -35.4622 H   0  0  0  0  0  0  0  0  0  0  0  0
  -27.8682  -11.1013  -36.6285 H   0  0  0  0  0  0  0  0  0  0  0  0
  -27.7485  -18.2446  -36.0049 H   0  0  0  0  0  0  0  0  0  0  0  0
  -28.4314  -16.0991  -36.3231 H   0  0  0  0  0  0  0  0  0  0  0  0
  -28.8489  -16.5764  -34.5116 H   0  0  0  0  0  0  0  0  0  0  0  0
  -28.0282  -14.9051  -33.7303 H   0  0  0  0  0  0  0  0  0  0  0  0
  -26.5949  -14.9591  -34.8396 H   0  0  0  0  0  0  0  0  0  0  0  0
  -27.9143  -13.9138  -36.6436 H   0  0  0  0  0  0  0  0  0  0  0  0
  -29.3752  -13.8954  -35.5291 H   0  0  0  0  0  0  0  0  0  0  0  0
  -26.8487  -12.4147  -35.1688 H   0  0  0  0  0  0  0  0  0  0  0  0
  -28.2854  -12.4092  -34.1088 H   0  0  0  0  0  0  0  0  0  0  0  0
  -22.0593  -16.0284  -36.9422 H   0  0  0  0  0  0  0  0  0  0  0  0
  -23.4592  -17.3244  -37.5593 H   0  0  0  0  0  0  0  0  0  0  0  0
  -24.3628  -15.5571  -39.7286 H   0  0  0  0  0  0  0  0  0  0  0  0
  -24.0163  -17.3243  -39.8735 H   0  0  0  0  0  0  0  0  0  0  0  0
  -26.3706  -15.9313  -40.0233 H   0  0  0  0  0  0  0  0  0  0  0  0
  -25.9886  -17.7134  -40.1568 H   0  0  0  0  0  0  0  0  0  0  0  0
  -27.0861  -18.0859  -38.3219 H   0  0  0  0  0  0  0  0  0  0  0  0
  -27.4884  -16.3846  -38.1494 H   0  0  0  0  0  0  0  0  0  0  0  0
  1  3  1  0
  3  2  2  0
  3  4  1  0
  4  5  1  0
  5  6  1  0
  6  7  1  0
  7  8  2  0
  8  9  1  0
  9 10  2  0
 10 11  1  0
  7 12  1  0
 11 12  2  0
  4 13  1  0
 13 16  1  0
 15 16  1  0
 15 17  2  0
 16 18  1  0
 18 19  1  0
 19 20  1  0
 14 21  1  0
 20 21  1  0
 15 24  1  0
 24 25  1  0
 25 26  1  0
 26 27  1  0
 24 28  1  0
 27 28  1  0
 22 29  1  0
 23 29  2  0
 25 29  1  0
  1 30  1  0
  4 31  1  6
  5 32  1  0
  5 33  1  0
  6 34  1  0
  6 35  1  0
  8 36  1  0
  9 37  1  0
 10 38  1  0
 11 39  1  0
 12 40  1  0
 13 41  1  0
 14 42  1  0
 14 43  1  0
 16 44  1  6
 18 45  1  0
 18 46  1  0
 19 47  1  0
 19 48  1  0
 20 49  1  0
 20 50  1  0
 21 51  1  0
 21 52  1  0
 22 53  1  0
 25 54  1  6
 26 55  1  0
 26 56  1  0
 27 57  1  0
 27 58  1  0
 28 59  1  0
 28 60  1  0
M  END
$$$$
