PDB_DB01606_99
     RDKit          3D

 32 34  0  0  0  0  0  0  0  0999 V2000
   31.1680   65.9480   -7.5410 S   0  0  0  0  0  0  0  0  0  0  0  0
   29.4850   65.2000   -7.5400 C   0  0  1  0  0  0  0  0  0  0  0  0
   29.3310   64.6080   -8.9710 C   0  0  2  0  0  0  0  0  0  0  0  0
   31.8640   64.5900   -8.5620 C   0  0  2  0  0  0  0  0  0  0  0  0
   32.6510   65.0840   -9.7880 C   0  0  0  0  0  0  0  0  0  0  0  0
   31.3160   64.9060  -10.5160 C   0  0  0  0  0  0  0  0  0  0  0  0
   28.2940   63.5010   -9.0860 C   0  0  0  0  0  0  0  0  0  0  0  0
   30.7070   64.3020   -9.3770 N   0  0  0  0  0  0  0  0  0  0  0  0
   29.4880   64.1330   -6.4480 C   0  0  0  0  0  0  0  0  0  0  0  0
   28.3760   66.2750   -7.3610 C   0  0  0  0  0  0  0  0  0  0  0  0
   28.6690   67.8540   -4.1820 C   0  0  0  0  0  0  0  0  0  0  0  0
   29.1610   67.7150   -5.4230 C   0  0  0  0  0  0  0  0  0  0  0  0
   28.4240   66.7640   -5.9730 N   0  0  0  0  0  0  0  0  0  0  0  0
   27.4750   66.3130   -5.1260 N   0  0  0  0  0  0  0  0  0  0  0  0
   27.6450   66.9920   -4.0210 N   0  0  0  0  0  0  0  0  0  0  0  0
   31.8930   65.9670   -6.3140 O   0  0  0  0  0  0  0  0  0  0  0  0
   31.1180   67.0700   -8.4220 O   0  0  0  0  0  0  0  0  0  0  0  0
   30.8280   64.8660  -11.5940 O   0  0  0  0  0  0  0  0  0  0  0  0
   27.1210   63.6790   -8.8770 O   0  0  0  0  0  0  0  0  0  0  0  0
   28.6880   62.3110   -9.4060 O   0  0  0  0  0  0  0  0  0  0  0  0
   28.8818   65.3109   -9.6881 H   0  0  0  0  0  0  0  0  0  0  0  0
   32.4066   63.8910   -7.9086 H   0  0  0  0  0  0  0  0  0  0  0  0
   33.0206   66.1182   -9.7262 H   0  0  0  0  0  0  0  0  0  0  0  0
   33.5941   64.6313  -10.1280 H   0  0  0  0  0  0  0  0  0  0  0  0
   29.4866   64.6185   -5.4610 H   0  0  0  0  0  0  0  0  0  0  0  0
   28.5916   63.5033   -6.5481 H   0  0  0  0  0  0  0  0  0  0  0  0
   30.3879   63.5084   -6.5481 H   0  0  0  0  0  0  0  0  0  0  0  0
   28.5519   67.1097   -8.0555 H   0  0  0  0  0  0  0  0  0  0  0  0
   27.3888   65.8395   -7.5749 H   0  0  0  0  0  0  0  0  0  0  0  0
   29.0404   68.5561   -3.4210 H   0  0  0  0  0  0  0  0  0  0  0  0
   29.9932   68.2694   -5.8814 H   0  0  0  0  0  0  0  0  0  0  0  0
   26.4829   62.9271   -8.9645 H   0  0  0  0  0  0  0  0  0  0  0  0
  1  2  1  0
  2  3  1  0
  1  4  1  0
  4  5  1  0
  5  6  1  0
  3  7  1  0
  3  8  1  0
  4  8  1  0
  6  8  1  0
  2  9  1  1
  2 10  1  0
 11 12  2  0
 10 13  1  0
 12 13  1  0
 13 14  1  0
 11 15  1  0
 14 15  2  0
  1 16  2  0
  1 17  2  0
  6 18  2  0
  7 19  1  0
  7 20  2  0
  3 21  1  6
  4 22  1  1
  5 23  1  0
  5 24  1  0
  9 25  1  0
  9 26  1  0
  9 27  1  0
 10 28  1  0
 10 29  1  0
 11 30  1  0
 12 31  1  0
 19 32  1  0
M  END
>  <PDBID>  (1) 
1VM1

>  <PDB ID>  (1) 
1VM1

>  <Generic Name>  (1) 
Tazobactam

>  <Brand Name>  (1) 
Jamp-pip/taz#Mylan-piperacillin and Tazobactam for Injection#Piperacillin / Tazobactam Powder for Injection#Piperacillin Sodium/tazobactam Sodium Powder for Injection#Piperacillin and Tazobactam#Piperacillin and Tazobactam for Injection#Piperacillin, Tazobactam#Piperacillin/tazobactam for Injection#Tazocin#Tazocin Pws IV 2g Piperacillin-.25g Tazobac.#Tazocin Pws IV 3g Piperacillin-.375g Tazobac#Tazocin Pws IV 4g Piperacillin-.5g Tazobac.#Vpi-piperacillin and Tazobactam for Injection#Zerbaxa#Zosyn#Zosyn In Galaxy Containers#Zosyn Pharmacy Bulk Package

>  <DrugBank ID>  (1) 
DB01606

>  <ATC Codes>  (1) 
J01CG02

>  <Ligand ID>  (1) 
TAZ

>  <Target Name>  (1) 
Beta-lactamase TEM

>  <UniProt ID>  (1) 
P62594

>  <PDB ID.1>  (1) 
1VM1

>  <Seq. Identity>  (1) 
66%

$$$$
