PDB_DB01016_99
     RDKit          3D

 61 63  0  0  0  0  0  0  0  0999 V2000
  190.5510  141.5990  124.0090 O   0  0  0  0  0  0  0  0  0  0  0  0
  191.1650  140.0580  126.1030 O   0  0  0  0  0  0  0  0  0  0  0  0
  188.9700  139.8990  127.6890 O   0  0  0  0  0  0  0  0  0  0  0  0
  192.8950  144.8190  129.9600 O   0  0  0  0  0  0  0  0  0  0  0  0
  193.0380  148.3040  135.2200 Cl  0  0  0  0  0  0  0  0  0  0  0  0
  189.7310  140.7660  126.5090 S   0  0  0  0  0  0  0  0  0  0  0  0
  193.7530  143.4250  131.9170 O   0  0  0  0  0  0  0  0  0  0  0  0
  188.6990  141.4410  122.6730 N   0  0  0  0  0  0  0  0  0  0  0  0
  188.7420  140.8410  125.1280 N   0  0  0  0  0  0  0  0  0  0  0  0
  192.2260  146.9930  130.0620 N   0  0  0  0  0  0  0  0  0  0  0  0
  189.4460  141.9270  121.5130 C   0  0  0  0  0  0  0  0  0  0  0  0
  190.1350  143.2320  121.9010 C   0  0  0  0  0  0  0  0  0  0  0  0
  188.4830  142.1360  120.3510 C   0  0  0  0  0  0  0  0  0  0  0  0
  190.8460  143.8760  120.7190 C   0  0  0  0  0  0  0  0  0  0  0  0
  189.2130  142.7490  119.1650 C   0  0  0  0  0  0  0  0  0  0  0  0
  189.8960  144.0640  119.5420 C   0  0  0  0  0  0  0  0  0  0  0  0
  189.4050  141.3130  123.9320 C   0  0  0  0  0  0  0  0  0  0  0  0
  189.9900  142.4730  127.0740 C   0  0  0  0  0  0  0  0  0  0  0  0
  190.3190  145.0770  127.9530 C   0  0  0  0  0  0  0  0  0  0  0  0
  190.4590  146.5130  128.4530 C   0  0  0  0  0  0  0  0  0  0  0  0
  191.1640  143.1560  126.7990 C   0  0  0  0  0  0  0  0  0  0  0  0
  188.9840  143.0950  127.7820 C   0  0  0  0  0  0  0  0  0  0  0  0
  191.3300  144.4610  127.2400 C   0  0  0  0  0  0  0  0  0  0  0  0
  189.1500  144.3950  128.2200 C   0  0  0  0  0  0  0  0  0  0  0  0
  191.9000  146.9600  128.6530 C   0  0  0  0  0  0  0  0  0  0  0  0
  192.7560  145.7760  130.6450 C   0  0  0  0  0  0  0  0  0  0  0  0
  193.1160  145.7300  132.1250 C   0  0  0  0  0  0  0  0  0  0  0  0
  193.5910  144.5710  132.6960 C   0  0  0  0  0  0  0  0  0  0  0  0
  192.9510  146.8610  132.8940 C   0  0  0  0  0  0  0  0  0  0  0  0
  193.9040  144.5420  134.0410 C   0  0  0  0  0  0  0  0  0  0  0  0
  193.2620  146.8350  134.2360 C   0  0  0  0  0  0  0  0  0  0  0  0
  193.7400  145.6750  134.8140 C   0  0  0  0  0  0  0  0  0  0  0  0
  192.5520  142.7500  131.6680 C   0  0  0  0  0  0  0  0  0  0  0  0
  187.7012  141.1971  122.5972 H   0  0  0  0  0  0  0  0  0  0  0  0
  187.7480  140.5713  125.1419 H   0  0  0  0  0  0  0  0  0  0  0  0
  192.0877  147.8436  130.6261 H   0  0  0  0  0  0  0  0  0  0  0  0
  190.2084  141.1988  121.1991 H   0  0  0  0  0  0  0  0  0  0  0  0
  189.3785  143.9324  122.2847 H   0  0  0  0  0  0  0  0  0  0  0  0
  190.8902  143.0023  122.6671 H   0  0  0  0  0  0  0  0  0  0  0  0
  188.0572  141.1664  120.0535 H   0  0  0  0  0  0  0  0  0  0  0  0
  187.6805  142.8178  120.6690 H   0  0  0  0  0  0  0  0  0  0  0  0
  191.2360  144.8577  121.0260 H   0  0  0  0  0  0  0  0  0  0  0  0
  191.6665  143.2150  120.4030 H   0  0  0  0  0  0  0  0  0  0  0  0
  189.9753  142.0399  118.8099 H   0  0  0  0  0  0  0  0  0  0  0  0
  188.4741  142.9589  118.3776 H   0  0  0  0  0  0  0  0  0  0  0  0
  189.1273  144.8015  119.8160 H   0  0  0  0  0  0  0  0  0  0  0  0
  190.4790  144.4133  118.6771 H   0  0  0  0  0  0  0  0  0  0  0  0
  189.9877  147.1827  127.7186 H   0  0  0  0  0  0  0  0  0  0  0  0
  189.9722  146.5562  129.4385 H   0  0  0  0  0  0  0  0  0  0  0  0
  191.9658  142.6626  126.2300 H   0  0  0  0  0  0  0  0  0  0  0  0
  188.0494  142.5567  127.9982 H   0  0  0  0  0  0  0  0  0  0  0  0
  192.2623  145.0030  127.0231 H   0  0  0  0  0  0  0  0  0  0  0  0
  188.3455  144.8888  128.7847 H   0  0  0  0  0  0  0  0  0  0  0  0
  192.0301  147.9658  128.2271 H   0  0  0  0  0  0  0  0  0  0  0  0
  192.5685  146.2469  128.1483 H   0  0  0  0  0  0  0  0  0  0  0  0
  192.5705  147.7860  132.4361 H   0  0  0  0  0  0  0  0  0  0  0  0
  194.2842  143.6159  134.4969 H   0  0  0  0  0  0  0  0  0  0  0  0
  193.9890  145.6536  135.8852 H   0  0  0  0  0  0  0  0  0  0  0  0
  192.0767  142.4828  132.6233 H   0  0  0  0  0  0  0  0  0  0  0  0
  191.8778  143.4014  131.0925 H   0  0  0  0  0  0  0  0  0  0  0  0
  192.7579  141.8354  131.0925 H   0  0  0  0  0  0  0  0  0  0  0  0
  2  6  2  0
  3  6  2  0
  6  9  1  0
  8 11  1  0
 11 12  1  0
 11 13  1  0
 12 14  1  0
 13 15  1  0
 14 16  1  0
 15 16  1  0
  1 17  2  0
  8 17  1  0
  9 17  1  0
  6 18  1  0
 19 20  1  0
 18 21  2  0
 18 22  1  0
 19 23  2  0
 21 23  1  0
 19 24  1  0
 22 24  2  0
 10 25  1  0
 20 25  1  0
  4 26  2  0
 10 26  1  0
 26 27  1  0
  7 28  1  0
 27 28  2  0
 27 29  1  0
 28 30  1  0
  5 31  1  0
 29 31  2  0
 30 32  2  0
 31 32  1  0
  7 33  1  0
  8 34  1  0
  9 35  1  0
 10 36  1  0
 11 37  1  0
 12 38  1  0
 12 39  1  0
 13 40  1  0
 13 41  1  0
 14 42  1  0
 14 43  1  0
 15 44  1  0
 15 45  1  0
 16 46  1  0
 16 47  1  0
 20 48  1  0
 20 49  1  0
 21 50  1  0
 22 51  1  0
 23 52  1  0
 24 53  1  0
 25 54  1  0
 25 55  1  0
 29 56  1  0
 30 57  1  0
 32 58  1  0
 33 59  1  0
 33 60  1  0
 33 61  1  0
M  END
$$$$
