PDB_DB00190_98
     RDKit          3D

 30 30  0  0  0  0  0  0  0  0999 V2000
   53.7940   13.7350   84.1590 N   0  0  0  0  0  0  0  0  0  0  0  0
   52.7850   14.7450   84.2280 N   0  0  0  0  0  0  0  0  0  0  0  0
   53.3600   12.5640   83.8310 C   0  0  2  0  0  0  0  0  0  0  0  0
   52.4510   12.5650   82.5680 C   0  0  0  0  0  0  0  0  0  0  0  0
   52.5730   11.9810   85.0190 C   0  0  0  0  0  0  0  0  0  0  0  0
   51.0060   13.0500   82.7190 C   0  0  0  0  0  0  0  0  0  0  0  0
   50.6360   14.3160   82.2490 C   0  0  0  0  0  0  0  0  0  0  0  0
   49.3390   14.8080   82.3940 C   0  0  0  0  0  0  0  0  0  0  0  0
   50.0200   12.2710   83.3500 C   0  0  0  0  0  0  0  0  0  0  0  0
   48.6900   12.7570   83.5100 C   0  0  0  0  0  0  0  0  0  0  0  0
   48.3670   14.0410   83.0190 C   0  0  0  0  0  0  0  0  0  0  0  0
   47.0990   14.5870   83.1320 O   0  0  0  0  0  0  0  0  0  0  0  0
   48.9970   16.0640   81.9240 O   0  0  0  0  0  0  0  0  0  0  0  0
   54.5660   11.6910   83.5180 C   0  0  0  0  0  0  0  0  0  0  0  0
   54.5560   10.4660   83.8140 O   0  0  0  0  0  0  0  0  0  0  0  0
   55.5890   12.3290   83.1830 O   0  0  0  0  0  0  0  0  0  0  0  0
   54.4928   14.0260   83.4605 H   0  0  0  0  0  0  0  0  0  0  0  0
   52.5758   14.9544   85.2145 H   0  0  0  0  0  0  0  0  0  0  0  0
   53.1210   15.5986   83.7596 H   0  0  0  0  0  0  0  0  0  0  0  0
   52.9347   13.2082   81.8181 H   0  0  0  0  0  0  0  0  0  0  0  0
   52.3561   11.5027   82.2985 H   0  0  0  0  0  0  0  0  0  0  0  0
   53.0286   12.3185   85.9616 H   0  0  0  0  0  0  0  0  0  0  0  0
   51.5295   12.3257   84.9721 H   0  0  0  0  0  0  0  0  0  0  0  0
   52.5987   10.8823   84.9721 H   0  0  0  0  0  0  0  0  0  0  0  0
   51.3911   14.9415   81.7503 H   0  0  0  0  0  0  0  0  0  0  0  0
   50.2795   11.2704   83.7261 H   0  0  0  0  0  0  0  0  0  0  0  0
   47.9267   12.1414   84.0083 H   0  0  0  0  0  0  0  0  0  0  0  0
   46.3760   14.0728   83.5713 H   0  0  0  0  0  0  0  0  0  0  0  0
   48.0720   16.3990   82.0346 H   0  0  0  0  0  0  0  0  0  0  0  0
   55.3425    9.9008   83.6089 H   0  0  0  0  0  0  0  0  0  0  0  0
  1  2  1  0
  1  3  1  0
  3  4  1  0
  3  5  1  0
  4  6  1  0
  6  7  2  0
  7  8  1  0
  6  9  1  0
  9 10  2  0
  8 11  2  0
 10 11  1  0
 11 12  1  0
  8 13  1  0
  3 14  1  6
 14 15  1  0
 14 16  2  0
  1 17  1  0
  2 18  1  0
  2 19  1  0
  4 20  1  0
  4 21  1  0
  5 22  1  0
  5 23  1  0
  5 24  1  0
  7 25  1  0
  9 26  1  0
 10 27  1  0
 12 28  1  0
 13 29  1  0
 15 30  1  0
M  END
$$$$
