PDB_DB01137_96
     RDKit          3D

232244  0  0  0  0  0  0  0  0999 V2000
  200.2460   32.6750   -6.9960 C   0  0  0  0  0  0  0  0  0  0  0  0
  198.2420   33.7620  -14.0930 F   0  0  0  0  0  0  0  0  0  0  0  0
  196.6780   37.5330  -15.9930 N   0  0  0  0  0  0  0  0  0  0  0  0
  200.6820   31.4810   -7.1050 O   0  0  0  0  0  0  0  0  0  0  0  0
  196.1160   36.0770  -14.1070 C   0  0  0  0  0  0  0  0  0  0  0  0
  197.4320   36.3500  -13.5270 N   0  0  0  0  0  0  0  0  0  0  0  0
  197.7160   37.1700  -10.8880 O   0  0  0  0  0  0  0  0  0  0  0  0
  198.1030   37.5770  -13.9730 C   0  0  0  0  0  0  0  0  0  0  0  0
  198.7820   35.4890   -8.9270 N   0  0  0  0  0  0  0  0  0  0  0  0
  199.9730   31.6460   -9.8320 O   0  0  0  0  0  0  0  0  0  0  0  0
  198.3740   36.8660   -8.5710 C   0  0  2  0  0  0  0  0  0  0  0  0
  200.2730   33.3380   -5.9310 O   0  0  0  0  0  0  0  0  0  0  0  0
  197.9600   35.5040  -12.5320 C   0  0  0  0  0  0  0  0  0  0  0  0
  198.6500   35.0390  -10.2320 C   0  0  0  0  0  0  0  0  0  0  0  0
  198.1210   35.9100  -11.2070 C   0  0  0  0  0  0  0  0  0  0  0  0
  196.1560   36.2340  -15.6080 C   0  0  0  0  0  0  0  0  0  0  0  0
  198.0350   37.6810  -15.4890 C   0  0  0  0  0  0  0  0  0  0  0  0
  198.4520   37.7380   -9.7950 C   0  0  0  0  0  0  0  0  0  0  0  0
  199.0490   33.7350  -10.5540 C   0  0  0  0  0  0  0  0  0  0  0  0
  198.3760   34.1840  -12.8040 C   0  0  0  0  0  0  0  0  0  0  0  0
  199.2900   34.6710   -7.9960 C   0  0  0  0  0  0  0  0  0  0  0  0
  198.8920   33.3080  -11.8870 C   0  0  0  0  0  0  0  0  0  0  0  0
  199.3090   37.4600   -7.5300 C   0  0  0  0  0  0  0  0  0  0  0  0
  199.6130   32.8220   -9.5250 C   0  0  0  0  0  0  0  0  0  0  0  0
  196.6760   37.6430  -17.4430 C   0  0  0  0  0  0  0  0  0  0  0  0
  199.7090   33.3810   -8.2060 C   0  0  0  0  0  0  0  0  0  0  0  0
  142.1820  -18.1750   63.8610 C   0  0  0  0  0  0  0  0  0  0  0  0
  136.0300  -17.9330   59.6430 F   0  0  0  0  0  0  0  0  0  0  0  0
  134.9400  -22.3870   57.2390 N   0  0  0  0  0  0  0  0  0  0  0  0
  143.0970  -18.9910   64.1380 O   0  0  0  0  0  0  0  0  0  0  0  0
  135.1030  -20.9380   59.2030 C   0  0  0  0  0  0  0  0  0  0  0  0
  136.4630  -20.5790   58.8100 N   0  0  0  0  0  0  0  0  0  0  0  0
  138.6560  -21.8210   59.8410 O   0  0  0  0  0  0  0  0  0  0  0  0
  136.7630  -20.7220   57.3820 C   0  0  0  0  0  0  0  0  0  0  0  0
  140.4130  -20.5590   61.6170 N   0  0  0  0  0  0  0  0  0  0  0  0
  139.7770  -16.6600   62.8120 O   0  0  0  0  0  0  0  0  0  0  0  0
  140.6600  -21.9620   61.2130 C   0  0  2  0  0  0  0  0  0  0  0  0
  142.1280  -16.9850   64.3220 O   0  0  0  0  0  0  0  0  0  0  0  0
  137.3150  -19.9090   59.7090 C   0  0  0  0  0  0  0  0  0  0  0  0
  139.3080  -19.8790   61.1270 C   0  0  0  0  0  0  0  0  0  0  0  0
  138.4310  -20.5420   60.2460 C   0  0  0  0  0  0  0  0  0  0  0  0
  134.7400  -22.3030   58.6750 C   0  0  0  0  0  0  0  0  0  0  0  0
  136.3320  -22.1060   56.9180 C   0  0  0  0  0  0  0  0  0  0  0  0
  139.3560  -22.6030   60.8190 C   0  0  0  0  0  0  0  0  0  0  0  0
  139.0790  -18.5550   61.5230 C   0  0  0  0  0  0  0  0  0  0  0  0
  137.1250  -18.5780   60.1350 C   0  0  0  0  0  0  0  0  0  0  0  0
  141.2440  -19.9380   62.4660 C   0  0  0  0  0  0  0  0  0  0  0  0
  137.9430  -17.9000   61.0020 C   0  0  0  0  0  0  0  0  0  0  0  0
  141.2210  -22.7720   62.3690 C   0  0  0  0  0  0  0  0  0  0  0  0
  139.9980  -17.8600   62.4630 C   0  0  0  0  0  0  0  0  0  0  0  0
  134.5840  -23.7230   56.7890 C   0  0  0  0  0  0  0  0  0  0  0  0
  141.1120  -18.6470   62.9180 C   0  0  0  0  0  0  0  0  0  0  0  0
  184.9770   28.8070   -2.6090 C   0  0  0  0  0  0  0  0  0  0  0  0
  183.0260   28.6730   -9.8050 F   0  0  0  0  0  0  0  0  0  0  0  0
  183.2650   25.1690  -12.6760 N   0  0  0  0  0  0  0  0  0  0  0  0
  184.5630   29.9850   -2.3420 O   0  0  0  0  0  0  0  0  0  0  0  0
  184.7460   26.3590  -11.1400 C   0  0  0  0  0  0  0  0  0  0  0  0
  183.8350   26.0420  -10.0380 N   0  0  0  0  0  0  0  0  0  0  0  0
  184.8390   24.8570   -7.7510 O   0  0  0  0  0  0  0  0  0  0  0  0
  182.9340   24.9000  -10.2390 C   0  0  0  0  0  0  0  0  0  0  0  0
  185.0610   26.2610   -5.3270 N   0  0  0  0  0  0  0  0  0  0  0  0
  183.8460   30.1930   -5.0520 O   0  0  0  0  0  0  0  0  0  0  0  0
  185.5270   24.8550   -5.3940 C   0  0  2  0  0  0  0  0  0  0  0  0
  185.5510   28.0620   -1.7770 O   0  0  0  0  0  0  0  0  0  0  0  0
  183.9370   26.7400   -8.8200 C   0  0  0  0  0  0  0  0  0  0  0  0
  184.5470   26.8830   -6.4550 C   0  0  0  0  0  0  0  0  0  0  0  0
  184.4600   26.1610   -7.6640 C   0  0  0  0  0  0  0  0  0  0  0  0
  184.0010   26.4000  -12.4500 C   0  0  0  0  0  0  0  0  0  0  0  0
  182.2880   24.9830  -11.6140 C   0  0  0  0  0  0  0  0  0  0  0  0
  185.8550   24.4670   -6.8140 C   0  0  0  0  0  0  0  0  0  0  0  0
  184.1290   28.2180   -6.3730 C   0  0  0  0  0  0  0  0  0  0  0  0
  183.5340   28.0830   -8.6860 C   0  0  0  0  0  0  0  0  0  0  0  0
  185.1530   26.9470   -4.1790 C   0  0  0  0  0  0  0  0  0  0  0  0
  183.6090   28.8210   -7.5350 C   0  0  0  0  0  0  0  0  0  0  0  0
  184.4890   23.8800   -4.8610 C   0  0  0  0  0  0  0  0  0  0  0  0
  184.2280   28.9850   -5.1030 C   0  0  0  0  0  0  0  0  0  0  0  0
  182.5870   25.2460  -13.9600 C   0  0  0  0  0  0  0  0  0  0  0  0
  184.7750   28.2550   -3.9920 C   0  0  0  0  0  0  0  0  0  0  0  0
  151.8890  -14.0640   51.2830 C   0  0  0  0  0  0  0  0  0  0  0  0
  146.0410  -13.5850   46.6790 F   0  0  0  0  0  0  0  0  0  0  0  0
  143.5000  -10.0080   45.7420 N   0  0  0  0  0  0  0  0  0  0  0  0
  152.2860  -15.2300   50.9450 O   0  0  0  0  0  0  0  0  0  0  0  0
  144.2360  -11.2010   47.7800 C   0  0  0  0  0  0  0  0  0  0  0  0
  145.6220  -10.9420   47.3930 N   0  0  0  0  0  0  0  0  0  0  0  0
  147.3730   -9.8910   49.2680 O   0  0  0  0  0  0  0  0  0  0  0  0
  145.8440   -9.7620   46.5540 C   0  0  0  0  0  0  0  0  0  0  0  0
  149.4580  -11.4010   50.3580 N   0  0  0  0  0  0  0  0  0  0  0  0
  150.0360  -15.3320   49.2570 O   0  0  0  0  0  0  0  0  0  0  0  0
  149.2780   -9.9900   50.7650 C   0  0  2  0  0  0  0  0  0  0  0  0
  152.4350  -13.3740   52.1790 O   0  0  0  0  0  0  0  0  0  0  0  0
  146.6690  -11.7040   47.9470 C   0  0  0  0  0  0  0  0  0  0  0  0
  148.6000  -11.9670   49.4260 C   0  0  0  0  0  0  0  0  0  0  0  0
  147.5630  -11.1820   48.8800 C   0  0  0  0  0  0  0  0  0  0  0  0
  143.3280  -11.1880   46.5750 C   0  0  0  0  0  0  0  0  0  0  0  0
  144.8880   -9.7700   45.3710 C   0  0  0  0  0  0  0  0  0  0  0  0
  148.5900   -9.2390   49.6570 C   0  0  0  0  0  0  0  0  0  0  0  0
  148.7850  -13.3020   49.0440 C   0  0  0  0  0  0  0  0  0  0  0  0
  146.8950  -13.0500   47.5960 C   0  0  0  0  0  0  0  0  0  0  0  0
  150.4510  -12.1380   50.8770 C   0  0  0  0  0  0  0  0  0  0  0  0
  147.8910  -13.8450   48.0990 C   0  0  0  0  0  0  0  0  0  0  0  0
  150.6180   -9.3140   51.0050 C   0  0  0  0  0  0  0  0  0  0  0  0
  149.8830  -14.1250   49.6150 C   0  0  0  0  0  0  0  0  0  0  0  0
  142.9060   -8.8370   46.3670 C   0  0  0  0  0  0  0  0  0  0  0  0
  150.7180  -13.4500   50.5700 C   0  0  0  0  0  0  0  0  0  0  0  0
  199.2516   32.2876   -6.7296 H   0  0  0  0  0  0  0  0  0  0  0  0
  200.8221   31.0972   -6.2032 H   0  0  0  0  0  0  0  0  0  0  0  0
  195.8175   35.0478  -13.8586 H   0  0  0  0  0  0  0  0  0  0  0  0
  195.3901   36.7929  -13.6940 H   0  0  0  0  0  0  0  0  0  0  0  0
  197.6046   38.4491  -13.5246 H   0  0  0  0  0  0  0  0  0  0  0  0
  199.1566   37.5491  -13.6583 H   0  0  0  0  0  0  0  0  0  0  0  0
  200.1329   31.1237   -9.0063 H   0  0  0  0  0  0  0  0  0  0  0  0
  197.3505   36.8230   -8.1702 H   0  0  0  0  0  0  0  0  0  0  0  0
  200.2479   32.7208   -5.1573 H   0  0  0  0  0  0  0  0  0  0  0  0
  198.9735   35.8625  -12.7650 H   0  0  0  0  0  0  0  0  0  0  0  0
  197.6362   34.6776  -10.0048 H   0  0  0  0  0  0  0  0  0  0  0  0
  197.1180   35.5270  -10.9678 H   0  0  0  0  0  0  0  0  0  0  0  0
  195.1362   36.1262  -16.0060 H   0  0  0  0  0  0  0  0  0  0  0  0
  196.8203   35.4594  -16.0186 H   0  0  0  0  0  0  0  0  0  0  0  0
  198.6628   36.8906  -15.9262 H   0  0  0  0  0  0  0  0  0  0  0  0
  198.3922   38.6817  -15.7737 H   0  0  0  0  0  0  0  0  0  0  0  0
  199.5059   37.8467  -10.0908 H   0  0  0  0  0  0  0  0  0  0  0  0
  198.0127   38.7168   -9.5523 H   0  0  0  0  0  0  0  0  0  0  0  0
  198.0395   33.3677  -10.3174 H   0  0  0  0  0  0  0  0  0  0  0  0
  199.3888   34.5495  -13.0290 H   0  0  0  0  0  0  0  0  0  0  0  0
  200.1673   35.1989   -7.5939 H   0  0  0  0  0  0  0  0  0  0  0  0
  198.3883   34.4832   -7.3946 H   0  0  0  0  0  0  0  0  0  0  0  0
  199.8864   33.0088  -12.2498 H   0  0  0  0  0  0  0  0  0  0  0  0
  198.1349   32.5125  -11.8239 H   0  0  0  0  0  0  0  0  0  0  0  0
  198.9351   37.2224   -6.5232 H   0  0  0  0  0  0  0  0  0  0  0  0
  200.3159   37.0356   -7.6568 H   0  0  0  0  0  0  0  0  0  0  0  0
  199.3527   38.5518   -7.6568 H   0  0  0  0  0  0  0  0  0  0  0  0
  198.6018   32.4532   -9.2980 H   0  0  0  0  0  0  0  0  0  0  0  0
  196.6567   38.7047  -17.7301 H   0  0  0  0  0  0  0  0  0  0  0  0
  197.5829   37.1701  -17.8478 H   0  0  0  0  0  0  0  0  0  0  0  0
  195.7869   37.1374  -17.8478 H   0  0  0  0  0  0  0  0  0  0  0  0
  198.6987   33.0146   -7.9714 H   0  0  0  0  0  0  0  0  0  0  0  0
  141.6002  -18.5351   64.7223 H   0  0  0  0  0  0  0  0  0  0  0  0
  143.1837  -19.0683   65.1212 H   0  0  0  0  0  0  0  0  0  0  0  0
  135.0341  -20.9451   60.3008 H   0  0  0  0  0  0  0  0  0  0  0  0
  134.4058  -20.1985   58.7823 H   0  0  0  0  0  0  0  0  0  0  0  0
  136.2165  -19.9559   56.8124 H   0  0  0  0  0  0  0  0  0  0  0  0
  137.8430  -20.5955   57.2160 H   0  0  0  0  0  0  0  0  0  0  0  0
  139.7660  -16.6004   63.8001 H   0  0  0  0  0  0  0  0  0  0  0  0
  141.3769  -21.9495   60.3788 H   0  0  0  0  0  0  0  0  0  0  0  0
  142.1293  -17.0141   65.3116 H   0  0  0  0  0  0  0  0  0  0  0  0
  136.7062  -20.2667   60.5525 H   0  0  0  0  0  0  0  0  0  0  0  0
  139.9032  -19.5287   60.2709 H   0  0  0  0  0  0  0  0  0  0  0  0
  139.0436  -20.1700   59.4115 H   0  0  0  0  0  0  0  0  0  0  0  0
  133.6826  -22.5045   58.9013 H   0  0  0  0  0  0  0  0  0  0  0  0
  135.3916  -23.0455   59.1589 H   0  0  0  0  0  0  0  0  0  0  0  0
  136.9672  -22.8577   57.4094 H   0  0  0  0  0  0  0  0  0  0  0  0
  136.4395  -22.1431   55.8239 H   0  0  0  0  0  0  0  0  0  0  0  0
  138.7238  -22.7046   61.7135 H   0  0  0  0  0  0  0  0  0  0  0  0
  139.5760  -23.5868   60.3788 H   0  0  0  0  0  0  0  0  0  0  0  0
  139.6760  -18.1970   60.6713 H   0  0  0  0  0  0  0  0  0  0  0  0
  136.5306  -18.9360   60.9885 H   0  0  0  0  0  0  0  0  0  0  0  0
  141.2528  -20.5625   63.3715 H   0  0  0  0  0  0  0  0  0  0  0  0
  142.1265  -19.8240   61.8193 H   0  0  0  0  0  0  0  0  0  0  0  0
  137.3239  -17.5970   61.8593 H   0  0  0  0  0  0  0  0  0  0  0  0
  138.3634  -17.0891   60.3891 H   0  0  0  0  0  0  0  0  0  0  0  0
  140.9070  -22.3187   63.3208 H   0  0  0  0  0  0  0  0  0  0  0  0
  140.8428  -23.8033   62.3117 H   0  0  0  0  0  0  0  0  0  0  0  0
  142.3195  -22.7806   62.3117 H   0  0  0  0  0  0  0  0  0  0  0  0
  139.3988  -18.2177   63.3133 H   0  0  0  0  0  0  0  0  0  0  0  0
  134.4116  -24.3701   57.6617 H   0  0  0  0  0  0  0  0  0  0  0  0
  133.6677  -23.6736   56.1824 H   0  0  0  0  0  0  0  0  0  0  0  0
  135.4034  -24.1361   56.1824 H   0  0  0  0  0  0  0  0  0  0  0  0
  141.7056  -18.2875   62.0645 H   0  0  0  0  0  0  0  0  0  0  0  0
  185.9510   29.2182   -2.9128 H   0  0  0  0  0  0  0  0  0  0  0  0
  184.5207   30.1053   -1.3602 H   0  0  0  0  0  0  0  0  0  0  0  0
  185.2080   27.3402  -10.9561 H   0  0  0  0  0  0  0  0  0  0  0  0
  185.5192   25.5786  -11.1963 H   0  0  0  0  0  0  0  0  0  0  0  0
  183.5082   23.9649  -10.1621 H   0  0  0  0  0  0  0  0  0  0  0  0
  182.1486   24.9197   -9.4691 H   0  0  0  0  0  0  0  0  0  0  0  0
  183.7579   30.4716   -4.1061 H   0  0  0  0  0  0  0  0  0  0  0  0
  186.4268   24.7975   -4.7639 H   0  0  0  0  0  0  0  0  0  0  0  0
  185.3244   28.3561   -0.8593 H   0  0  0  0  0  0  0  0  0  0  0  0
  182.9314   26.3948   -8.5379 H   0  0  0  0  0  0  0  0  0  0  0  0
  185.5574   27.2205   -6.7293 H   0  0  0  0  0  0  0  0  0  0  0  0
  185.4707   26.4748   -7.9641 H   0  0  0  0  0  0  0  0  0  0  0  0
  184.7223   26.5418  -13.2683 H   0  0  0  0  0  0  0  0  0  0  0  0
  183.2832   27.2329  -12.4158 H   0  0  0  0  0  0  0  0  0  0  0  0
  181.5886   25.8319  -11.6249 H   0  0  0  0  0  0  0  0  0  0  0  0
  181.7694   24.0307  -11.7987 H   0  0  0  0  0  0  0  0  0  0  0  0
  185.9739   23.3744   -6.8603 H   0  0  0  0  0  0  0  0  0  0  0  0
  186.7799   24.9928   -7.0936 H   0  0  0  0  0  0  0  0  0  0  0  0
  185.1394   28.5515   -6.6521 H   0  0  0  0  0  0  0  0  0  0  0  0
  182.5242   27.7517   -8.4023 H   0  0  0  0  0  0  0  0  0  0  0  0
  184.5672   26.3693   -3.4489 H   0  0  0  0  0  0  0  0  0  0  0  0
  186.2456   27.0533   -4.1084 H   0  0  0  0  0  0  0  0  0  0  0  0
  182.5876   29.1530   -7.2971 H   0  0  0  0  0  0  0  0  0  0  0  0
  184.3375   29.6101   -7.7730 H   0  0  0  0  0  0  0  0  0  0  0  0
  184.5037   23.8938   -3.7612 H   0  0  0  0  0  0  0  0  0  0  0  0
  183.4913   24.1751   -5.2181 H   0  0  0  0  0  0  0  0  0  0  0  0
  184.7211   22.8658   -5.2181 H   0  0  0  0  0  0  0  0  0  0  0  0
  185.2391   29.3165   -5.3820 H   0  0  0  0  0  0  0  0  0  0  0  0
  181.5061   25.3688  -13.7971 H   0  0  0  0  0  0  0  0  0  0  0  0
  182.9724   26.1062  -14.5271 H   0  0  0  0  0  0  0  0  0  0  0  0
  182.7697   24.3213  -14.5271 H   0  0  0  0  0  0  0  0  0  0  0  0
  185.7856   28.5871   -4.2722 H   0  0  0  0  0  0  0  0  0  0  0  0
  151.2198  -14.5095   52.0338 H   0  0  0  0  0  0  0  0  0  0  0  0
  152.4682  -15.7651   51.7578 H   0  0  0  0  0  0  0  0  0  0  0  0
  144.1759  -12.1863   48.2654 H   0  0  0  0  0  0  0  0  0  0  0  0
  143.9114  -10.4105   48.4726 H   0  0  0  0  0  0  0  0  0  0  0  0
  145.6745   -8.8543   47.1518 H   0  0  0  0  0  0  0  0  0  0  0  0
  146.8781   -9.7779   46.1794 H   0  0  0  0  0  0  0  0  0  0  0  0
  150.1089  -15.9074   50.0593 H   0  0  0  0  0  0  0  0  0  0  0  0
  148.6851   -9.9792   51.6915 H   0  0  0  0  0  0  0  0  0  0  0  0
  152.1652  -13.7149   53.0684 H   0  0  0  0  0  0  0  0  0  0  0  0
  147.3337  -11.3840   47.1310 H   0  0  0  0  0  0  0  0  0  0  0  0
  147.9301  -12.2876   50.2374 H   0  0  0  0  0  0  0  0  0  0  0  0
  146.9101  -11.5236   49.6967 H   0  0  0  0  0  0  0  0  0  0  0  0
  142.2849  -11.2218   46.9226 H   0  0  0  0  0  0  0  0  0  0  0  0
  143.5867  -12.0630   45.9606 H   0  0  0  0  0  0  0  0  0  0  0  0
  145.2024  -10.5623   44.6757 H   0  0  0  0  0  0  0  0  0  0  0  0
  144.9321   -8.7699   44.9151 H   0  0  0  0  0  0  0  0  0  0  0  0
  149.2623   -9.1856   48.7880 H   0  0  0  0  0  0  0  0  0  0  0  0
  148.3447   -8.2298   50.0194 H   0  0  0  0  0  0  0  0  0  0  0  0
  148.1213  -13.6271   49.8587 H   0  0  0  0  0  0  0  0  0  0  0  0
  147.5634  -12.7262   46.7846 H   0  0  0  0  0  0  0  0  0  0  0  0
  151.3745  -11.5903   50.6379 H   0  0  0  0  0  0  0  0  0  0  0  0
  150.0855  -12.2530   51.9081 H   0  0  0  0  0  0  0  0  0  0  0  0
  148.4933  -14.1872   47.2445 H   0  0  0  0  0  0  0  0  0  0  0  0
  147.3514  -14.6215   48.6610 H   0  0  0  0  0  0  0  0  0  0  0  0
  150.7950   -9.2247   52.0870 H   0  0  0  0  0  0  0  0  0  0  0  0
  151.4189   -9.9159   50.5509 H   0  0  0  0  0  0  0  0  0  0  0  0
  150.6098   -8.3122   50.5509 H   0  0  0  0  0  0  0  0  0  0  0  0
  149.2166  -14.4504   50.4274 H   0  0  0  0  0  0  0  0  0  0  0  0
  142.9579   -8.9393   47.4610 H   0  0  0  0  0  0  0  0  0  0  0  0
  143.4564   -7.9367   46.0564 H   0  0  0  0  0  0  0  0  0  0  0  0
  141.8544   -8.7493   46.0564 H   0  0  0  0  0  0  0  0  0  0  0  0
  150.0523  -13.7757   51.3829 H   0  0  0  0  0  0  0  0  0  0  0  0
  1  4  1  0
  5  6  1  0
  6  8  1  0
  9 11  1  0
  1 12  1  0
  6 13  1  0
  9 14  1  0
  7 15  1  0
 13 15  1  0
 14 15  1  0
  3 16  1  0
  5 16  1  0
  3 17  1  0
  8 17  1  0
  7 18  1  0
 11 18  1  0
 14 19  1  0
  2 20  1  0
 13 20  1  0
  9 21  1  0
 19 22  1  0
 20 22  1  0
 11 23  1  0
 19 24  1  0
 24 10  1  0
  3 25  1  0
  1 26  1  0
 21 26  1  0
 24 26  1  0
 27 30  1  0
 31 32  1  0
 32 34  1  0
 35 37  1  0
 27 38  1  0
 32 39  1  0
 35 40  1  0
 33 41  1  0
 39 41  1  0
 40 41  1  0
 29 42  1  0
 31 42  1  0
 29 43  1  0
 34 43  1  0
 33 44  1  0
 37 44  1  0
 40 45  1  0
 28 46  1  0
 39 46  1  0
 35 47  1  0
 45 48  1  0
 46 48  1  0
 37 49  1  0
 36 50  1  0
 45 50  1  0
 29 51  1  0
 27 52  1  0
 47 52  1  0
 50 52  1  0
 53 56  1  0
 57 58  1  0
 58 60  1  0
 61 63  1  0
 53 64  1  0
 58 65  1  0
 61 66  1  0
 59 67  1  0
 65 67  1  0
 66 67  1  0
 55 68  1  0
 57 68  1  0
 55 69  1  0
 60 69  1  0
 59 70  1  0
 63 70  1  0
 66 71  1  0
 54 72  1  0
 65 72  1  0
 61 73  1  0
 71 74  1  0
 72 74  1  0
 63 75  1  0
 71 76  1  0
 76 62  1  0
 55 77  1  0
 53 78  1  0
 73 78  1  0
 76 78  1  0
 79 82  1  0
 83 84  1  0
 84 86  1  0
 87 89  1  0
 79 90  1  0
 84 91  1  0
 87 92  1  0
 85 93  1  0
 91 93  1  0
 92 93  1  0
 81 94  1  0
 83 94  1  0
 81 95  1  0
 86 95  1  0
 85 96  1  0
 89 96  1  0
 92 97  1  0
 80 98  1  0
 91 98  1  0
 87 99  1  0
 97100  1  0
 98100  1  0
 89101  1  0
 97102  1  0
102 88  1  0
 81103  1  0
 79104  1  0
 99104  1  0
102104  1  0
  1105  1  0
  4106  1  0
  5107  1  0
  5108  1  0
  8109  1  0
  8110  1  0
 10111  1  0
 11112  1  1
 12113  1  0
 13114  1  0
 14115  1  0
 15116  1  0
 16117  1  0
 16118  1  0
 17119  1  0
 17120  1  0
 18121  1  0
 18122  1  0
 19123  1  0
 20124  1  0
 21125  1  0
 21126  1  0
 22127  1  0
 22128  1  0
 23129  1  0
 23130  1  0
 23131  1  0
 24132  1  0
 25133  1  0
 25134  1  0
 25135  1  0
 26136  1  0
 27137  1  0
 30138  1  0
 31139  1  0
 31140  1  0
 34141  1  0
 34142  1  0
 36143  1  0
 37144  1  6
 38145  1  0
 39146  1  0
 40147  1  0
 41148  1  0
 42149  1  0
 42150  1  0
 43151  1  0
 43152  1  0
 44153  1  0
 44154  1  0
 45155  1  0
 46156  1  0
 47157  1  0
 47158  1  0
 48159  1  0
 48160  1  0
 49161  1  0
 49162  1  0
 49163  1  0
 50164  1  0
 51165  1  0
 51166  1  0
 51167  1  0
 52168  1  0
 53169  1  0
 56170  1  0
 57171  1  0
 57172  1  0
 60173  1  0
 60174  1  0
 62175  1  0
 63176  1  1
 64177  1  0
 65178  1  0
 66179  1  0
 67180  1  0
 68181  1  0
 68182  1  0
 69183  1  0
 69184  1  0
 70185  1  0
 70186  1  0
 71187  1  0
 72188  1  0
 73189  1  0
 73190  1  0
 74191  1  0
 74192  1  0
 75193  1  0
 75194  1  0
 75195  1  0
 76196  1  0
 77197  1  0
 77198  1  0
 77199  1  0
 78200  1  0
 79201  1  0
 82202  1  0
 83203  1  0
 83204  1  0
 86205  1  0
 86206  1  0
 88207  1  0
 89208  1  1
 90209  1  0
 91210  1  0
 92211  1  0
 93212  1  0
 94213  1  0
 94214  1  0
 95215  1  0
 95216  1  0
 96217  1  0
 96218  1  0
 97219  1  0
 98220  1  0
 99221  1  0
 99222  1  0
100223  1  0
100224  1  0
101225  1  0
101226  1  0
101227  1  0
102228  1  0
103229  1  0
103230  1  0
103231  1  0
104232  1  0
M  END
>  <PDBID>  (1) 
5EIX

>  <PDB ID>  (1) 
5EIX

>  <Generic Name>  (1) 
Levofloxacin

>  <Brand Name>  (1) 
Act Levofloxacin#Apo-levofloxacin#Auro-levofloxacin#Ava-levofloxacin#Dom-levofloxacin#Iquix#Levaquin#Levaquin 25mg/ml#Levaquin 500mg#Levaquin 5mg/ml#Levaquin 750mg#Levofloxacin#Levofloxacin In 5% Dextrose Injection#Levofloxacin Injection#Mylan-levofloxacin#Ntp-levofloxacin#PHL-levofloxacin#PMS-levofloxacin#Quinsair#Quixin#Sandoz Levofloxacin#Teva-levofloxacin#Cravit#Elequine#Floxel#Leroxacin#Levokacin#Levox#Levoxacin#Mosardal#Nofaxin#Reskuin#Tavanic

>  <DrugBank ID>  (1) 
DB01137

>  <ATC Codes>  (1) 
A02BD10#J01RA05#S01AE05#J01MA12

>  <Ligand ID>  (1) 
LFX

>  <Target Name>  (1) 
DNA topoisomerase 4 subunit A

>  <UniProt ID>  (1) 
P43702

>  <PDB ID.1>  (1) 
5EIX

>  <Seq. Identity>  (1) 
75%

$$$$
