PDB_DB00399_99
     RDKit          3D

 34 34  0  0  0  0  0  0  0  0999 V2000
   15.1450   73.9740   25.4080 O   0  0  0  0  0  0  0  0  0  0  0  0
   15.2950   75.2570   24.5180 P   0  0  0  0  0  5  0  0  0  0  0  0
   14.0870   75.1910   23.4800 O   0  0  0  0  0  0  0  0  0  0  0  0
   16.6600   75.3480   23.9250 O   0  0  0  0  0  0  0  0  0  0  0  0
   14.9460   76.7130   25.6160 C   0  0  2  0  0  0  0  0  0  0  0  0
   16.3150   76.8090   26.7980 P   0  0  0  0  0  5  0  0  0  0  0  0
   15.9700   78.0960   27.7180 O   0  0  0  0  0  0  0  0  0  0  0  0
   17.6110   77.0120   26.0780 O   0  0  0  0  0  0  0  0  0  0  0  0
   16.2370   75.4320   27.6480 O   0  0  0  0  0  0  0  0  0  0  0  0
   13.6780   76.5620   26.2710 O   0  0  0  0  0  0  0  0  0  0  0  0
   14.9750   77.9610   24.7290 C   0  0  0  0  0  0  0  0  0  0  0  0
   14.6560   79.2060   25.3890 N   0  0  0  0  0  0  0  0  0  0  0  0
   13.6030   79.4570   26.0690 C   0  0  0  0  0  0  0  0  0  0  0  0
   13.6450   80.6360   26.4500 N   0  0  0  0  0  0  0  0  0  0  0  0
   14.7230   81.2520   26.0770 C   0  0  0  0  0  0  0  0  0  0  0  0
   15.4110   80.2960   25.3700 C   0  0  0  0  0  0  0  0  0  0  0  0
   15.1749   74.2301   26.3638 H   0  0  0  0  0  0  0  0  0  0  0  0
    0.0000    0.0000    0.0000 H   0  0  0  0  0  0  0  0  0  0  0  0
   13.2300   75.1442   23.9735 H   0  0  0  0  0  0  0  0  0  0  0  0
   17.3325   75.3928   24.6501 H   0  0  0  0  0  0  0  0  0  0  0  0
    0.0000    0.0000    0.0000 H   0  0  0  0  0  0  0  0  0  0  0  0
   16.0370   77.8460   28.6736 H   0  0  0  0  0  0  0  0  0  0  0  0
   18.3405   77.1263   26.7375 H   0  0  0  0  0  0  0  0  0  0  0  0
   16.2488   75.6404   28.6157 H   0  0  0  0  0  0  0  0  0  0  0  0
   13.8094   76.5777   27.2521 H   0  0  0  0  0  0  0  0  0  0  0  0
   15.9865   78.0519   24.3065 H   0  0  0  0  0  0  0  0  0  0  0  0
   14.1884   77.8112   23.9748 H   0  0  0  0  0  0  0  0  0  0  0  0
   12.7125   79.3026   25.4420 H   0  0  0  0  0  0  0  0  0  0  0  0
   13.5505   78.7850   26.9383 H   0  0  0  0  0  0  0  0  0  0  0  0
   12.8314   81.1350   26.0627 H   0  0  0  0  0  0  0  0  0  0  0  0
   14.4818   82.1150   25.4390 H   0  0  0  0  0  0  0  0  0  0  0  0
   15.2990   81.6568   26.9222 H   0  0  0  0  0  0  0  0  0  0  0  0
   16.3822   80.0953   25.8459 H   0  0  0  0  0  0  0  0  0  0  0  0
   15.6115   80.6264   24.3401 H   0  0  0  0  0  0  0  0  0  0  0  0
  1  2  1  0
  2  3  1  0
  2  4  1  0
  2  5  1  0
  5  6  1  0
  6  7  1  0
  6  8  1  0
  6  9  1  0
  5 10  1  1
  5 11  1  0
 11 12  1  0
 12 13  1  0
 13 14  1  0
 14 15  1  0
 12 16  1  0
 15 16  1  0
  1 17  1  0
  2 18  1  0
  3 19  1  0
  4 20  1  0
  6 21  1  0
  7 22  1  0
  8 23  1  1
  9 24  1  0
 10 25  1  0
 11 26  1  0
 11 27  1  0
 13 28  1  0
 13 29  1  0
 14 30  1  0
 15 31  1  0
 15 32  1  0
 16 33  1  0
 16 34  1  0
M  END
>  <PDBID>  (1) 
3N45

>  <PDB ID>  (1) 
3N45

>  <Generic Name>  (1) 
Zoledronic acid

>  <Brand Name>  (1) 
Aclasta#Act Zoledronic Acid#Act Zoledronic Acid Concentrate#PMS-zoledronic Acid#Reclast#Taro-zoledronic Acid#Taro-zoledronic Acid Concentrate#Val-zoledronic Acid#Zoledronic Acid#Zoledronic Acid - A#Zoledronic Acid - Z#Zoledronic Acid Concentrate#Zoledronic Acid Concentrate for Injection#Zoledronic Acid Injection#Zoledronic Acid for Injection#Zoledronic Acid for Injection Concentrate#Zometa#Zometa Concentrate#Zometa Lyophilized Powder

>  <DrugBank ID>  (1) 
DB00399

>  <ATC Codes>  (1) 
M05BB08#M05BA08

>  <Ligand ID>  (1) 
ZOL

>  <Target Name>  (1) 
Farnesyl pyrophosphate synthase

>  <UniProt ID>  (1) 
P14324

>  <PDB ID.1>  (1) 
3N45

>  <Seq. Identity>  (1) 
100%

$$$$
