PDB_DB00625_97
     RDKit          3D

 42 44  0  0  0  0  0  0  0  0999 V2000
   -2.5520  -35.3570   21.8750 Cl  0  0  0  0  0  0  0  0  0  0  0  0
    3.1030  -39.5330   20.6530 F   0  0  0  0  0  0  0  0  0  0  0  0
    1.2910  -39.2200   21.7330 F   0  0  0  0  0  0  0  0  0  0  0  0
    1.2330  -39.5340   19.6260 F   0  0  0  0  0  0  0  0  0  0  0  0
    3.4730  -37.3540   17.0970 O   0  0  0  0  0  0  0  0  0  0  0  0
    2.9980  -37.1980   19.2620 O   0  0  0  0  0  0  0  0  0  0  0  0
    1.2850  -37.0810   17.6750 N   0  0  0  0  0  0  0  0  0  0  0  0
    0.3440  -36.6360   18.6620 C   0  0  1  0  0  0  0  0  0  0  0  0
   -0.9260  -36.1430   18.3080 C   0  0  0  0  0  0  0  0  0  0  0  0
   -1.8100  -35.7430   19.3240 C   0  0  0  0  0  0  0  0  0  0  0  0
   -1.4490  -35.8480   20.6560 C   0  0  0  0  0  0  0  0  0  0  0  0
   -0.2120  -36.3390   21.0180 C   0  0  0  0  0  0  0  0  0  0  0  0
    0.6660  -36.7760   20.0190 C   0  0  0  0  0  0  0  0  0  0  0  0
    2.0460  -37.3860   20.3660 C   0  0  2  0  0  0  0  0  0  0  0  0
    2.6380  -36.8100   21.5930 C   0  0  0  0  0  0  0  0  0  0  0  0
    3.0920  -36.3400   22.5620 C   0  0  0  0  0  0  0  0  0  0  0  0
    3.7560  -35.6460   23.9670 C   0  0  1  0  0  0  0  0  0  0  0  0
    4.1860  -34.5430   23.6190 C   0  0  0  0  0  0  0  0  0  0  0  0
    3.0560  -34.6560   24.2110 C   0  0  0  0  0  0  0  0  0  0  0  0
    1.9130  -38.9380   20.5960 C   0  0  2  0  0  0  0  0  0  0  0  0
    2.6380  -37.2190   17.9350 C   0  0  0  0  0  0  0  0  0  0  0  0
    4.3529  -37.4963   17.5278 H   0  0  0  0  0  0  0  0  0  0  0  0
    0.9583  -38.0085   17.3684 H   0  0  0  0  0  0  0  0  0  0  0  0
    0.7571  -35.6186   18.5971 H   0  0  0  0  0  0  0  0  0  0  0  0
   -0.7631  -35.2690   17.6602 H   0  0  0  0  0  0  0  0  0  0  0  0
   -1.4262  -37.0089   17.8497 H   0  0  0  0  0  0  0  0  0  0  0  0
   -2.0377  -34.6822   19.1428 H   0  0  0  0  0  0  0  0  0  0  0  0
   -2.6314  -36.4691   19.2344 H   0  0  0  0  0  0  0  0  0  0  0  0
   -1.8657  -36.8655   20.6887 H   0  0  0  0  0  0  0  0  0  0  0  0
    0.3023  -35.5394   21.5713 H   0  0  0  0  0  0  0  0  0  0  0  0
   -0.4471  -37.2548   21.5801 H   0  0  0  0  0  0  0  0  0  0  0  0
    1.1455  -35.7861   20.0074 H   0  0  0  0  0  0  0  0  0  0  0  0
    2.5142  -37.7724   22.1111 H   0  0  0  0  0  0  0  0  0  0  0  0
    3.3183  -36.2015   20.9791 H   0  0  0  0  0  0  0  0  0  0  0  0
    2.1382  -36.4962   23.0873 H   0  0  0  0  0  0  0  0  0  0  0  0
    4.0682  -36.7861   22.3210 H   0  0  0  0  0  0  0  0  0  0  0  0
    4.1517  -36.4839   24.5598 H   0  0  0  0  0  0  0  0  0  0  0  0
    5.0422  -34.0928   24.1427 H   0  0  0  0  0  0  0  0  0  0  0  0
    4.5360  -34.0999   22.6750 H   0  0  0  0  0  0  0  0  0  0  0  0
    2.1211  -34.4886   23.6561 H   0  0  0  0  0  0  0  0  0  0  0  0
    2.5936  -34.2232   25.1104 H   0  0  0  0  0  0  0  0  0  0  0  0
    2.5129  -38.3107   17.9862 H   0  0  0  0  0  0  0  0  0  0  0  0
  7  8  1  0
  8  9  1  0
  9 10  1  0
  1 11  1  0
 10 11  1  0
 11 12  1  0
  8 13  1  0
 12 13  1  0
  6 14  1  0
 13 14  1  0
 14 15  1  1
 15 16  1  0
 16 17  1  0
 17 18  1  0
 17 19  1  0
 18 19  1  0
 20  2  1  1
  3 20  1  0
  4 20  1  0
 14 20  1  0
  5 21  1  0
  6 21  1  0
  7 21  1  0
  5 22  1  0
  7 23  1  0
  8 24  1  6
  9 25  1  0
  9 26  1  0
 10 27  1  0
 10 28  1  0
 11 29  1  0
 12 30  1  0
 12 31  1  0
 13 32  1  0
 15 33  1  0
 15 34  1  0
 16 35  1  0
 16 36  1  0
 17 37  1  1
 18 38  1  0
 18 39  1  0
 19 40  1  0
 19 41  1  0
 21 42  1  0
M  END
>  <PDBID>  (1) 
1FK9

>  <PDB ID>  (1) 
1FK9

>  <Generic Name>  (1) 
Efavirenz

>  <Brand Name>  (1) 
Atripla#Auro-efavirenz#Mylan-efavirenz#Sustiva#Sustiva 100mg#Sustiva 200mg#Sustiva 50mg#Sustiva Tablets#Teva-efavirenz#E.F#Efavir#Efavirenz#Efcure#Efferven#Estiva#Evirenz#Stocrin#Viranz

>  <DrugBank ID>  (1) 
DB00625

>  <ATC Codes>  (1) 
J05AR06#J05AG03#J05AR11

>  <Ligand ID>  (1) 
EFZ

>  <Target Name>  (1) 
Reverse transcriptase/RNaseH

>  <UniProt ID>  (1) 
Q72547

>  <PDB ID.1>  (1) 
1FK9

>  <Seq. Identity>  (1) 
95%

$$$$
