PDB_DB00537_99
     RDKit          3D

108114  0  0  0  0  0  0  0  0999 V2000
   32.9050    5.7650   23.4730 O   0  0  0  0  0  0  0  0  0  0  0  0
   33.5010    5.5910   22.3710 C   0  0  0  0  0  0  0  0  0  0  0  0
   32.8510    5.4860   21.2930 O   0  0  0  0  0  0  0  0  0  0  0  0
   35.0160    5.5110   22.3530 C   0  0  0  0  0  0  0  0  0  0  0  0
   35.7400    5.3430   23.6260 C   0  0  0  0  0  0  0  0  0  0  0  0
   37.1850    5.2710   23.6300 N   0  0  0  0  0  0  0  0  0  0  0  0
   37.9570    5.3540   22.3310 C   0  0  0  0  0  0  0  0  0  0  0  0
   39.3590    5.2800   22.3340 C   0  0  0  0  0  0  0  0  0  0  0  0
   40.0930    5.3530   21.1390 C   0  0  0  0  0  0  0  0  0  0  0  0
   41.5510    5.2810   21.2460 N   0  0  0  0  0  0  0  0  0  0  0  0
   42.0560    4.0630   21.7890 C   0  0  0  0  0  0  0  0  0  0  0  0
   43.5450    4.1560   22.0940 C   0  0  0  0  0  0  0  0  0  0  0  0
   44.2900    4.6040   20.9600 N   0  0  0  0  0  0  0  0  0  0  0  0
   43.7920    5.8400   20.4480 C   0  0  0  0  0  0  0  0  0  0  0  0
   42.3070    5.7570   20.1300 C   0  0  0  0  0  0  0  0  0  0  0  0
   39.3810    5.5190   19.9190 C   0  0  0  0  0  0  0  0  0  0  0  0
   39.9880    5.6030   18.7250 F   0  0  0  0  0  0  0  0  0  0  0  0
   37.9820    5.5930   19.9210 C   0  0  0  0  0  0  0  0  0  0  0  0
   37.2640    5.5130   21.1190 C   0  0  0  0  0  0  0  0  0  0  0  0
   35.7550    5.5930   21.1070 C   0  0  0  0  0  0  0  0  0  0  0  0
   35.1550    5.7280   20.0560 O   0  0  0  0  0  0  0  0  0  0  0  0
   37.8620    5.0930   24.8830 C   0  0  2  0  0  0  0  0  0  0  0  0
   38.6270    3.8720   25.3700 C   0  0  0  0  0  0  0  0  0  0  0  0
   37.4140    4.3550   26.1360 C   0  0  0  0  0  0  0  0  0  0  0  0
   35.2430    5.2850   24.4700 H   0  0  0  0  0  0  0  0  0  0  0  0
   39.8340    5.1680   23.1840 H   0  0  0  0  0  0  0  0  0  0  0  0
   41.5720    3.8340   22.6140 H   0  0  0  0  0  0  0  0  0  0  0  0
   41.9270    3.3540   21.1290 H   0  0  0  0  0  0  0  0  0  0  0  0
   43.8730    3.2680   22.3630 H   0  0  0  0  0  0  0  0  0  0  0  0
   43.6810    4.7870   22.8370 H   0  0  0  0  0  0  0  0  0  0  0  0
   45.1730    4.7030   21.1930 H   0  0  0  0  0  0  0  0  0  0  0  0
   44.2840    6.0690   19.6270 H   0  0  0  0  0  0  0  0  0  0  0  0
   43.9380    6.5470   21.1170 H   0  0  0  0  0  0  0  0  0  0  0  0
   42.1920    5.1370   19.3770 H   0  0  0  0  0  0  0  0  0  0  0  0
   41.9810    6.6490   19.8720 H   0  0  0  0  0  0  0  0  0  0  0  0
   37.5000    5.7040   19.0730 H   0  0  0  0  0  0  0  0  0  0  0  0
   38.3450    5.9120   25.1300 H   0  0  0  0  0  0  0  0  0  0  0  0
   38.5000    3.0530   24.8440 H   0  0  0  0  0  0  0  0  0  0  0  0
   39.4960    4.0530   25.7900 H   0  0  0  0  0  0  0  0  0  0  0  0
   37.6010    4.8090   26.9880 H   0  0  0  0  0  0  0  0  0  0  0  0
   36.6040    3.8090   26.0400 H   0  0  0  0  0  0  0  0  0  0  0  0
   33.2210   21.4760   22.1870 O   0  0  0  0  0  0  0  0  0  0  0  0
   32.6880   21.3130   21.0550 C   0  0  0  0  0  0  0  0  0  0  0  0
   31.4490   21.0910   20.9600 O   0  0  0  0  0  0  0  0  0  0  0  0
   33.5390   21.3810   19.7990 C   0  0  0  0  0  0  0  0  0  0  0  0
   32.8890   21.5240   18.4810 C   0  0  0  0  0  0  0  0  0  0  0  0
   33.6960   21.5820   17.2800 N   0  0  0  0  0  0  0  0  0  0  0  0
   35.2040   21.5110   17.3710 C   0  0  0  0  0  0  0  0  0  0  0  0
   35.9830   21.5730   16.2030 C   0  0  0  0  0  0  0  0  0  0  0  0
   37.3860   21.5110   16.2610 C   0  0  0  0  0  0  0  0  0  0  0  0
   38.1100   21.5710   14.9910 N   0  0  0  0  0  0  0  0  0  0  0  0
   37.9610   22.7990   14.2840 C   0  0  0  0  0  0  0  0  0  0  0  0
   38.5820   22.7480   12.8950 C   0  0  0  0  0  0  0  0  0  0  0  0
   39.9290   22.2740   12.9280 N   0  0  0  0  0  0  0  0  0  0  0  0
   40.0290   21.0130   13.5860 C   0  0  0  0  0  0  0  0  0  0  0  0
   39.4550   21.0870   14.9920 C   0  0  0  0  0  0  0  0  0  0  0  0
   38.0020   21.3720   17.5360 C   0  0  0  0  0  0  0  0  0  0  0  0
   39.3310   21.3020   17.6940 F   0  0  0  0  0  0  0  0  0  0  0  0
   37.2200   21.3100   18.6990 C   0  0  0  0  0  0  0  0  0  0  0  0
   35.8230   21.3780   18.6260 C   0  0  0  0  0  0  0  0  0  0  0  0
   34.9880   21.3110   19.8850 C   0  0  0  0  0  0  0  0  0  0  0  0
   35.5230   21.1960   20.9730 O   0  0  0  0  0  0  0  0  0  0  0  0
   33.0540   21.7320   16.0050 C   0  0  2  0  0  0  0  0  0  0  0  0
   33.1140   22.9180   15.0560 C   0  0  0  0  0  0  0  0  0  0  0  0
   31.7840   22.4790   15.6320 C   0  0  0  0  0  0  0  0  0  0  0  0
   31.9110   21.5720   18.4180 H   0  0  0  0  0  0  0  0  0  0  0  0
   35.5420   21.6670   15.3330 H   0  0  0  0  0  0  0  0  0  0  0  0
   37.0080   23.0280   14.2030 H   0  0  0  0  0  0  0  0  0  0  0  0
   38.4210   23.4940   14.7890 H   0  0  0  0  0  0  0  0  0  0  0  0
   38.5710   23.6520   12.5070 H   0  0  0  0  0  0  0  0  0  0  0  0
   38.0460   22.1490   12.3270 H   0  0  0  0  0  0  0  0  0  0  0  0
   40.2480   22.1980   12.0700 H   0  0  0  0  0  0  0  0  0  0  0  0
   40.9760   20.7490   13.6370 H   0  0  0  0  0  0  0  0  0  0  0  0
   39.5330   20.3380   13.0690 H   0  0  0  0  0  0  0  0  0  0  0  0
   40.0170   21.7020   15.5130 H   0  0  0  0  0  0  0  0  0  0  0  0
   39.4810   20.1930   15.4020 H   0  0  0  0  0  0  0  0  0  0  0  0
   37.6570   21.2160   19.5740 H   0  0  0  0  0  0  0  0  0  0  0  0
   33.1150   20.8960   15.4940 H   0  0  0  0  0  0  0  0  0  0  0  0
   33.4880   23.7450   15.4310 H   0  0  0  0  0  0  0  0  0  0  0  0
   33.2610   22.7000   14.1100 H   0  0  0  0  0  0  0  0  0  0  0  0
   31.1870   22.0060   15.0130 H   0  0  0  0  0  0  0  0  0  0  0  0
   31.4080   23.0590   16.3300 H   0  0  0  0  0  0  0  0  0  0  0  0
   33.5301    5.5825   24.2187 H   0  0  0  0  0  0  0  0  0  0  0  0
   33.4434    4.5016   22.5119 H   0  0  0  0  0  0  0  0  0  0  0  0
   31.8948    5.3315   21.4979 H   0  0  0  0  0  0  0  0  0  0  0  0
   35.0750    6.6038   22.4637 H   0  0  0  0  0  0  0  0  0  0  0  0
   35.6859    4.2502   23.5126 H   0  0  0  0  0  0  0  0  0  0  0  0
   38.0145    6.4476   22.4350 H   0  0  0  0  0  0  0  0  0  0  0  0
   39.3015    4.1863   22.2319 H   0  0  0  0  0  0  0  0  0  0  0  0
   40.1400    6.4478   21.2348 H   0  0  0  0  0  0  0  0  0  0  0  0
   39.4467    6.6115   20.0293 H   0  0  0  0  0  0  0  0  0  0  0  0
   37.9240    4.4998   19.8133 H   0  0  0  0  0  0  0  0  0  0  0  0
   37.3241    6.6059   21.2280 H   0  0  0  0  0  0  0  0  0  0  0  0
   35.8121    6.6864   21.2128 H   0  0  0  0  0  0  0  0  0  0  0  0
   34.2065    5.9414   20.2426 H   0  0  0  0  0  0  0  0  0  0  0  0
   32.5596   21.2737   22.8954 H   0  0  0  0  0  0  0  0  0  0  0  0
   32.8767   20.2314   21.1219 H   0  0  0  0  0  0  0  0  0  0  0  0
   31.0560   21.0206   21.8659 H   0  0  0  0  0  0  0  0  0  0  0  0
   33.4882   20.2862   19.7053 H   0  0  0  0  0  0  0  0  0  0  0  0
   32.9456   22.6188   18.5719 H   0  0  0  0  0  0  0  0  0  0  0  0
   35.1578   20.4156   17.2820 H   0  0  0  0  0  0  0  0  0  0  0  0
   36.0278   22.6686   16.2910 H   0  0  0  0  0  0  0  0  0  0  0  0
   37.3408   20.4147   16.1834 H   0  0  0  0  0  0  0  0  0  0  0  0
   37.9559   20.2773   17.4389 H   0  0  0  0  0  0  0  0  0  0  0  0
   37.2686   22.4052   18.7900 H   0  0  0  0  0  0  0  0  0  0  0  0
   35.7745   20.2829   18.5339 H   0  0  0  0  0  0  0  0  0  0  0  0
   34.9404   20.2157   19.7952 H   0  0  0  0  0  0  0  0  0  0  0  0
   34.8527   21.3401   21.6872 H   0  0  0  0  0  0  0  0  0  0  0  0
  1  2  1  0
  2  3  1  0
  2  4  1  0
  4  5  1  0
  5  6  1  0
  6  7  1  0
  7  8  1  0
  8  9  1  0
  9 10  1  0
 10 11  1  0
 11 12  1  0
 12 13  1  0
 13 14  1  0
 10 15  1  0
 14 15  1  0
  9 16  1  0
 16 17  1  0
 16 18  1  0
  7 19  1  0
 18 19  1  0
  4 20  1  0
 19 20  1  0
 20 21  1  0
  6 22  1  0
 22 23  1  0
 22 24  1  0
 23 24  1  0
  5 25  1  0
  8 26  1  0
 11 27  1  0
 11 28  1  0
 12 29  1  0
 12 30  1  0
 13 31  1  0
 14 32  1  0
 14 33  1  0
 15 34  1  0
 15 35  1  0
 18 36  1  0
 22 37  1  1
 23 38  1  0
 23 39  1  0
 24 40  1  0
 24 41  1  0
 43 42  1  0
 43 44  1  0
 43 45  1  0
 45 46  1  0
 46 47  1  0
 47 48  1  0
 48 49  1  0
 49 50  1  0
 50 51  1  0
 51 52  1  0
 52 53  1  0
 53 54  1  0
 54 55  1  0
 51 56  1  0
 55 56  1  0
 50 57  1  0
 57 58  1  0
 57 59  1  0
 48 60  1  0
 59 60  1  0
 45 61  1  0
 60 61  1  0
 61 62  1  0
 47 63  1  0
 63 64  1  0
 63 65  1  0
 64 65  1  0
 46 66  1  0
 49 67  1  0
 52 68  1  0
 52 69  1  0
 53 70  1  0
 53 71  1  0
 54 72  1  0
 55 73  1  0
 55 74  1  0
 56 75  1  0
 56 76  1  0
 59 77  1  0
 63 78  1  6
 64 79  1  0
 64 80  1  0
 65 81  1  0
 65 82  1  0
  1 83  1  0
  2 84  1  0
  3 85  1  0
  4 86  1  0
  5 87  1  0
  7 88  1  0
  8 89  1  0
  9 90  1  0
 16 91  1  0
 18 92  1  0
 19 93  1  0
 20 94  1  0
 21 95  1  0
 42 96  1  0
 43 97  1  0
 44 98  1  0
 45 99  1  0
 46100  1  0
 48101  1  0
 49102  1  0
 50103  1  0
 57104  1  0
 59105  1  0
 60106  1  0
 61107  1  0
 62108  1  0
M  END
>  <PDBID>  (1) 
5BTC

>  <PDB ID>  (1) 
5BTC

>  <Generic Name>  (1) 
Ciprofloxacin

>  <Brand Name>  (1) 
Act Ciprofloxacin#Apo-ciproflox#Auro-ciprofloxacin#Bio-ciprofloxacin#Ciloxan#Cipro#Cipro 100 - Tab 100mg#Cipro 250 - Tab 250mg#Cipro 500 - Tab 500mg#Cipro 750 - Tab 750mg#Cipro HC#Cipro HC Otic Suspension#Cipro I.V. - Liq 10mg/ml#Cipro I.V. Minibags 2mg/ml#Cipro IV 10mg/ml#Cipro Oral Suspension 10%#Cipro Tab 100mg#Cipro Tab 250mg#Cipro Tab 500mg#Cipro Tab 750mg#Cipro XL#Ciprodex#Ciprofloxacin#Ciprofloxacin Extended-release#Ciprofloxacin Hydrochloride#Ciprofloxacin Injection#Ciprofloxacin Injection USP#Ciprofloxacin Injection, USP#Ciprofloxacin Intravenous Infusion#Ciprofloxacin Intravenous Infusion BP#Ciprofloxacin Intravenous Infusion, BP#Ciprofloxacin Omega#Ciprofloxacin Otic#Ciprofloxacin Tablets#Ciprofloxacin Tablets USP - 100 mg#Ciprofloxacin Tablets USP - 250 mg#Ciprofloxacin Tablets USP - 500 mg#Ciprofloxacin Tablets USP - 750 mg#Ciprofloxacin-250#Ciprofloxacin-500#Ciprofloxacin-750#Dom-ciprofloxacin#Ipg-ciprofloxacin#Jamp-ciprofloxacin#Mar-ciprofloxacin#Mint-ciproflox#Mint-ciprofloxacin#Mylan-ciprofloxacin#Mylan-ciprofloxacin XL#Nu-ciproflox#Nu-ciprofloxacin Tablets#Otiprio#Otixal#Otovel#PHL-ciprofloxacin#PMS-ciprofloxacin#PMS-ciprofloxacin 0.3%#PMS-ciprofloxacin XL#Priva-ciprofloxacin#Pro-ciprofloxacin#Proquin XR#Q-ciprofloxacin#Ran-ciproflox#Ran-ciprofloxacin#Ratio-ciprofloxacin#Riva-ciprofloxacin#Sandoz Ciprofloxacin#Septa-ciprofloxacin#Taro-ciprofloxacin#Teva-ciprofloxacin#Van-ciprofloxacin#Bacquinor#Baycip#Ciflox#Cifloxin#Ciprinol#Ciprobay#Ciprocinol#Ciprodar#Ciproxan#Ciproxin#Flociprin#Proquin

>  <DrugBank ID>  (1) 
DB00537

>  <ATC Codes>  (1) 
J01MA02#J01RA11#J01RA12#S02AA15#S03AA07#S01AE03#J01RA10

>  <Ligand ID>  (1) 
CPF

>  <Target Name>  (1) 
DNA gyrase subunit A

>  <UniProt ID>  (1) 
P43700

>  <PDB ID.1>  (1) 
5BTC

>  <Seq. Identity>  (1) 
48%

$$$$
