PDB_DB08901_97
     RDKit          3D

 66 70  0  0  0  0  0  0  0  0999 V2000
   16.2310   -9.9090    7.9150 N   0  0  0  0  0  0  0  0  0  0  0  0
   12.9000   -5.1270   23.2000 N   0  0  0  0  0  0  0  0  0  0  0  0
   17.3260   -9.9860   12.5720 C   0  0  0  0  0  0  0  0  0  0  0  0
   17.2980  -10.2030   14.0150 C   0  0  0  0  0  0  0  0  0  0  0  0
   17.8810  -11.3660   14.6810 C   0  0  0  0  0  0  0  0  0  0  0  0
   17.7750  -11.4770   16.1130 C   0  0  0  0  0  0  0  0  0  0  0  0
   17.1060  -10.4650   16.8650 C   0  0  0  0  0  0  0  0  0  0  0  0
   16.6420   -9.2130   14.7850 C   0  0  0  0  0  0  0  0  0  0  0  0
   14.7600   -7.7420   19.1280 C   0  0  0  0  0  0  0  0  0  0  0  0
   14.1970   -7.0990   21.4420 C   0  0  0  0  0  0  0  0  0  0  0  0
   12.6950   -6.3770   19.5660 C   0  0  0  0  0  0  0  0  0  0  0  0
   12.1430   -5.7110   22.0850 C   0  0  0  0  0  0  0  0  0  0  0  0
   13.8140   -4.0230   22.7780 C   0  0  0  0  0  0  0  0  0  0  0  0
   14.6900   -3.5660   23.9660 C   0  0  0  0  0  0  0  0  0  0  0  0
   12.0190   -4.6430   24.2810 C   0  0  0  0  0  0  0  0  0  0  0  0
   17.8810   -8.3560    6.7910 C   0  0  0  0  0  0  0  0  0  0  0  0
   18.9680   -7.5460    7.0730 C   0  0  0  0  0  0  0  0  0  0  0  0
   19.4380   -7.4590    8.4160 C   0  0  0  0  0  0  0  0  0  0  0  0
   18.9160   -8.1000    9.4720 N   0  0  0  0  0  0  0  0  0  0  0  0
   17.8350   -8.8910    9.1390 N   0  0  0  0  0  0  0  0  0  0  0  0
   17.2570   -9.0790    7.8570 C   0  0  0  0  0  0  0  0  0  0  0  0
   16.1200  -10.2720    9.2430 C   0  0  0  0  0  0  0  0  0  0  0  0
   17.0820   -9.6650    9.9810 C   0  0  0  0  0  0  0  0  0  0  0  0
   17.2530   -9.8180   11.3670 C   0  0  0  0  0  0  0  0  0  0  0  0
   16.5350   -9.3160   16.1960 C   0  0  0  0  0  0  0  0  0  0  0  0
   18.6010  -12.4810   13.9240 C   0  0  0  0  0  0  0  0  0  0  0  0
   15.8260   -8.2210   16.9350 C   0  0  0  0  0  0  0  0  0  0  0  0
   15.4400   -7.2170   16.3280 O   0  0  0  0  0  0  0  0  0  0  0  0
   15.6540   -8.4150   18.2560 N   0  0  0  0  0  0  0  0  0  0  0  0
   15.0600   -7.7600   20.5120 C   0  0  0  0  0  0  0  0  0  0  0  0
   13.0080   -6.3980   21.0010 C   0  0  0  0  0  0  0  0  0  0  0  0
   13.5810   -7.0510   18.6710 C   0  0  0  0  0  0  0  0  0  0  0  0
   11.4650   -5.6670   18.9560 C   0  0  0  0  0  0  0  0  0  0  0  0
   11.6320   -4.3580   19.0130 F   0  0  0  0  0  0  0  0  0  0  0  0
   11.2790   -5.9720   17.6740 F   0  0  0  0  0  0  0  0  0  0  0  0
   10.3470   -6.0030   19.6050 F   0  0  0  0  0  0  0  0  0  0  0  0
   12.8390   -4.0700   25.4790 C   0  0  0  0  0  0  0  0  0  0  0  0
   14.6190   -2.5080   26.1490 C   0  0  0  0  0  0  0  0  0  0  0  0
   13.8310   -3.0380   25.0450 N   0  0  0  0  0  0  0  0  0  0  0  0
   18.2112  -12.3449   16.6291 H   0  0  0  0  0  0  0  0  0  0  0  0
   17.0241  -10.5589   17.9579 H   0  0  0  0  0  0  0  0  0  0  0  0
   16.2040   -8.3415   14.2765 H   0  0  0  0  0  0  0  0  0  0  0  0
   14.4412   -7.1234   22.5143 H   0  0  0  0  0  0  0  0  0  0  0  0
   11.4516   -6.4609   22.4968 H   0  0  0  0  0  0  0  0  0  0  0  0
   11.6308   -4.8744   21.5874 H   0  0  0  0  0  0  0  0  0  0  0  0
   14.4633   -4.3805   21.9652 H   0  0  0  0  0  0  0  0  0  0  0  0
   13.2095   -3.1717   22.4318 H   0  0  0  0  0  0  0  0  0  0  0  0
   15.2677   -4.4221   24.3447 H   0  0  0  0  0  0  0  0  0  0  0  0
   15.3772   -2.7761   23.6286 H   0  0  0  0  0  0  0  0  0  0  0  0
   11.3680   -3.8507   23.8829 H   0  0  0  0  0  0  0  0  0  0  0  0
   11.4250   -5.4935   24.6468 H   0  0  0  0  0  0  0  0  0  0  0  0
   17.5023   -8.4426    5.7619 H   0  0  0  0  0  0  0  0  0  0  0  0
   19.4622   -6.9773    6.2715 H   0  0  0  0  0  0  0  0  0  0  0  0
   20.3054   -6.8087    8.6026 H   0  0  0  0  0  0  0  0  0  0  0  0
   15.3588  -10.9567    9.6451 H   0  0  0  0  0  0  0  0  0  0  0  0
   19.0525  -13.1802   14.6432 H   0  0  0  0  0  0  0  0  0  0  0  0
   17.8799  -13.0200   13.2919 H   0  0  0  0  0  0  0  0  0  0  0  0
   19.3889  -12.0455   13.2919 H   0  0  0  0  0  0  0  0  0  0  0  0
   16.2440   -9.1413   18.6865 H   0  0  0  0  0  0  0  0  0  0  0  0
   15.9580   -8.2831   20.8724 H   0  0  0  0  0  0  0  0  0  0  0  0
   13.3552   -7.0422   17.5945 H   0  0  0  0  0  0  0  0  0  0  0  0
   12.1431   -3.6119   26.1973 H   0  0  0  0  0  0  0  0  0  0  0  0
   13.3960   -4.9020   25.9346 H   0  0  0  0  0  0  0  0  0  0  0  0
   14.1650   -2.8133   27.1033 H   0  0  0  0  0  0  0  0  0  0  0  0
   15.6449   -2.9004   26.0888 H   0  0  0  0  0  0  0  0  0  0  0  0
   14.6424   -1.4099   26.0888 H   0  0  0  0  0  0  0  0  0  0  0  0
  3  4  1  0
  4  5  2  0
  5  6  1  0
  6  7  2  0
  4  8  1  0
  2 12  1  0
  2 13  1  0
 13 14  1  0
  2 15  1  0
 16 17  2  0
 17 18  1  0
 18 19  2  0
 19 20  1  0
  1 21  2  0
 16 21  1  0
 20 21  1  0
  1 22  1  0
 20 23  1  0
 22 23  2  0
  3 24  3  0
 23 24  1  0
  7 25  1  0
  8 25  2  0
  5 26  1  0
 25 27  1  0
 27 28  2  0
  9 29  1  0
 27 29  1  0
  9 30  1  0
 10 30  2  0
 10 31  1  0
 11 31  2  0
 12 31  1  0
  9 32  2  0
 11 32  1  0
 11 33  1  0
 33 34  1  0
 33 35  1  0
 33 36  1  0
 15 37  1  0
 14 39  1  0
 37 39  1  0
 38 39  1  0
  6 40  1  0
  7 41  1  0
  8 42  1  0
 10 43  1  0
 12 44  1  0
 12 45  1  0
 13 46  1  0
 13 47  1  0
 14 48  1  0
 14 49  1  0
 15 50  1  0
 15 51  1  0
 16 52  1  0
 17 53  1  0
 18 54  1  0
 22 55  1  0
 26 56  1  0
 26 57  1  0
 26 58  1  0
 29 59  1  0
 30 60  1  0
 32 61  1  0
 37 62  1  0
 37 63  1  0
 38 64  1  0
 38 65  1  0
 38 66  1  0
M  END
>  <PDBID>  (1) 
3OXZ

>  <PDB ID>  (1) 
3OXZ

>  <Generic Name>  (1) 
Ponatinib

>  <Brand Name>  (1) 
Iclusig

>  <DrugBank ID>  (1) 
DB08901

>  <ATC Codes>  (1) 
L01XE24

>  <Ligand ID>  (1) 
0LI

>  <Target Name>  (1) 
Tyrosine-protein kinase ABL1

>  <UniProt ID>  (1) 
P00519

>  <PDB ID.1>  (1) 
3OXZ

>  <Seq. Identity>  (1) 
95%

$$$$
