PDB_DB01137_99
     RDKit          3D

 46 49  0  0  0  0  0  0  0  0999 V2000
  107.4180    7.7370   37.3120 C   0  0  0  0  0  0  0  0  0  0  0  0
  107.6090   12.9400   42.6550 F   0  0  0  0  0  0  0  0  0  0  0  0
  109.2570   11.6630   47.1610 N   0  0  0  0  0  0  0  0  0  0  0  0
  106.9010    8.4490   36.3850 O   0  0  0  0  0  0  0  0  0  0  0  0
  107.7560   11.9020   45.2410 C   0  0  0  0  0  0  0  0  0  0  0  0
  108.7270   11.1440   44.4520 N   0  0  0  0  0  0  0  0  0  0  0  0
  109.1640    8.5860   43.5040 O   0  0  0  0  0  0  0  0  0  0  0  0
  110.1110   11.0580   44.9260 C   0  0  0  0  0  0  0  0  0  0  0  0
  108.5460    7.8420   40.8710 N   0  0  0  0  0  0  0  0  0  0  0  0
  106.8740   10.5800   38.2700 O   0  0  0  0  0  0  0  0  0  0  0  0
  109.1550    6.8510   41.7920 C   0  0  2  0  0  0  0  0  0  0  0  0
  107.7390    6.5330   37.1570 O   0  0  0  0  0  0  0  0  0  0  0  0
  108.4080   10.7750   43.1310 C   0  0  0  0  0  0  0  0  0  0  0  0
  108.3040    9.1360   41.3120 C   0  0  0  0  0  0  0  0  0  0  0  0
  108.6330    9.4900   42.6380 C   0  0  0  0  0  0  0  0  0  0  0  0
  107.8850   11.5390   46.7000 C   0  0  0  0  0  0  0  0  0  0  0  0
  110.1000   10.7410   46.4140 C   0  0  0  0  0  0  0  0  0  0  0  0
  109.9430    7.5720   42.8540 C   0  0  0  0  0  0  0  0  0  0  0  0
  107.7380   10.0680   40.4330 C   0  0  0  0  0  0  0  0  0  0  0  0
  107.8370   11.6730   42.2070 C   0  0  0  0  0  0  0  0  0  0  0  0
  108.2340    7.5100   39.6070 C   0  0  0  0  0  0  0  0  0  0  0  0
  107.5020   11.3710   40.9140 C   0  0  0  0  0  0  0  0  0  0  0  0
  110.1390    5.9370   41.0790 C   0  0  0  0  0  0  0  0  0  0  0  0
  107.3900    9.7090   39.0350 C   0  0  0  0  0  0  0  0  0  0  0  0
  109.3130   11.3390   48.5760 C   0  0  0  0  0  0  0  0  0  0  0  0
  107.6760    8.3460   38.6650 C   0  0  0  0  0  0  0  0  0  0  0  0
  106.6660    9.3947   36.5599 H   0  0  0  0  0  0  0  0  0  0  0  0
  107.9442   12.9784   45.1149 H   0  0  0  0  0  0  0  0  0  0  0  0
  106.7402   11.6594   44.8957 H   0  0  0  0  0  0  0  0  0  0  0  0
  110.6394   10.2612   44.3820 H   0  0  0  0  0  0  0  0  0  0  0  0
  110.6264   12.0139   44.7510 H   0  0  0  0  0  0  0  0  0  0  0  0
  108.3286    6.2577   42.2103 H   0  0  0  0  0  0  0  0  0  0  0  0
  107.5535   10.4995   46.8402 H   0  0  0  0  0  0  0  0  0  0  0  0
  107.2611   12.2316   47.2841 H   0  0  0  0  0  0  0  0  0  0  0  0
  111.1282   10.8081   46.7992 H   0  0  0  0  0  0  0  0  0  0  0  0
  109.6927    9.7273   46.5428 H   0  0  0  0  0  0  0  0  0  0  0  0
  110.8207    8.0428   42.3871 H   0  0  0  0  0  0  0  0  0  0  0  0
  110.2443    6.8353   43.6133 H   0  0  0  0  0  0  0  0  0  0  0  0
  108.4433    6.4759   39.2959 H   0  0  0  0  0  0  0  0  0  0  0  0
  107.0551   12.1347   40.2604 H   0  0  0  0  0  0  0  0  0  0  0  0
  110.7326    5.3856   41.8231 H   0  0  0  0  0  0  0  0  0  0  0  0
  109.5869    5.2240   40.4491 H   0  0  0  0  0  0  0  0  0  0  0  0
  110.8094    6.5401   40.4491 H   0  0  0  0  0  0  0  0  0  0  0  0
  109.1551   12.2526   49.1679 H   0  0  0  0  0  0  0  0  0  0  0  0
  108.5281   10.6065   48.8158 H   0  0  0  0  0  0  0  0  0  0  0  0
  110.2982   10.9125   48.8158 H   0  0  0  0  0  0  0  0  0  0  0  0
  1  4  1  0
  5  6  1  0
  6  8  1  0
  9 11  1  0
  1 12  2  0
  6 13  1  0
  9 14  1  0
  7 15  1  0
 13 15  1  0
 14 15  2  0
  3 16  1  0
  5 16  1  0
  3 17  1  0
  8 17  1  0
  7 18  1  0
 11 18  1  0
 14 19  1  0
  2 20  1  0
 13 20  2  0
  9 21  1  0
 19 22  2  0
 20 22  1  0
 11 23  1  0
 19 24  1  0
 24 10  2  0
  3 25  1  0
  1 26  1  0
 21 26  2  0
 24 26  1  0
  4 27  1  0
  5 28  1  0
  5 29  1  0
  8 30  1  0
  8 31  1  0
 11 32  1  1
 16 33  1  0
 16 34  1  0
 17 35  1  0
 17 36  1  0
 18 37  1  0
 18 38  1  0
 21 39  1  0
 22 40  1  0
 23 41  1  0
 23 42  1  0
 23 43  1  0
 25 44  1  0
 25 45  1  0
 25 46  1  0
M  END
$$$$
