PDB_DB00207_97
     RDKit          3D

124126  0  0  0  0  0  0  0  0999 V2000
   46.2170  127.2330  124.3670 C   0  0  0  0  0  0  0  0  0  0  0  0
   46.3150  125.7630  124.2780 C   0  0  1  0  0  0  0  0  0  0  0  0
   46.8080  125.3390  122.8760 C   0  0  2  0  0  0  0  0  0  0  0  0
   45.6190  125.1140  121.9200 C   0  0  1  0  0  0  0  0  0  0  0  0
   46.1720  124.8100  120.4990 C   0  0  2  0  0  0  0  0  0  0  0  0
   45.9630  125.9410  119.4770 C   0  0  2  0  0  0  0  0  0  0  0  0
   44.5110  126.1120  119.1000 C   0  0  0  0  0  0  0  0  0  0  0  0
   44.1870  127.3480  118.2050 C   0  0  2  0  0  0  0  0  0  0  0  0
   43.4980  128.4340  118.9980 C   0  0  0  0  0  0  0  0  0  0  0  0
   44.3570  129.0010  120.0470 N   0  0  0  0  0  0  0  0  0  0  0  0
   43.5460  129.4890  121.1700 C   0  0  1  0  0  0  0  0  0  0  0  0
   44.4000  129.5330  122.4640 C   0  0  2  0  0  0  0  0  0  0  0  0
   43.6240  129.4110  123.7940 C   0  0  2  0  0  0  0  0  0  0  0  0
   44.6800  129.0690  124.8940 C   0  0  1  0  0  0  0  0  0  0  0  0
   44.2050  129.1820  126.3090 C   0  0  0  0  0  0  0  0  0  0  0  0
   45.3300  128.9680  127.2970 C   0  0  0  0  0  0  0  0  0  0  0  0
   47.1280  125.2960  125.4870 C   0  0  0  0  0  0  0  0  0  0  0  0
   44.6150  124.0920  122.4120 C   0  0  0  0  0  0  0  0  0  0  0  0
   46.8090  125.6710  118.2500 C   0  0  0  0  0  0  0  0  0  0  0  0
   43.3020  126.9510  117.0380 C   0  0  0  0  0  0  0  0  0  0  0  0
   45.2190  130.0610  119.4730 C   0  0  0  0  0  0  0  0  0  0  0  0
   42.7420  130.7240  120.9610 C   0  0  0  0  0  0  0  0  0  0  0  0
   42.4600  128.4530  123.7740 C   0  0  0  0  0  0  0  0  0  0  0  0
   47.1320  128.0160  124.2110 O   0  0  0  0  0  0  0  0  0  0  0  0
   46.4470  127.1420  120.0920 O   0  0  0  0  0  0  0  0  0  0  0  0
   45.1760  130.7310  122.5060 O   0  0  0  0  0  0  0  0  0  0  0  0
   43.0670  130.6960  124.1520 O   0  0  0  0  0  0  0  0  0  0  0  0
   44.9740  127.6450  124.6720 O   0  0  0  0  0  0  0  0  0  0  0  0
   46.5770  122.9160  119.4440 C   0  0  2  0  0  0  0  0  0  0  0  0
   46.0110  122.0230  118.2760 C   0  0  1  0  0  0  0  0  0  0  0  0
   47.1690  121.2260  117.6860 C   0  0  2  0  0  0  0  0  0  0  0  0
   48.1730  122.2700  117.1960 C   0  0  0  0  0  0  0  0  0  0  0  0
   48.6480  123.2090  118.2600 C   0  0  1  0  0  0  0  0  0  0  0  0
   49.4980  124.3120  117.8020 C   0  0  0  0  0  0  0  0  0  0  0  0
   47.7460  119.2110  116.5000 C   0  0  0  0  0  0  0  0  0  0  0  0
   46.4820  120.8510  115.3430 C   0  0  0  0  0  0  0  0  0  0  0  0
   45.5370  123.6570  119.9860 O   0  0  0  0  0  0  0  0  0  0  0  0
   45.0680  121.1040  118.8050 O   0  0  0  0  0  0  0  0  0  0  0  0
   46.8310  120.2700  116.6880 N   0  0  0  0  0  0  0  0  0  0  0  0
   47.4980  123.8360  118.8920 O   0  0  0  0  0  0  0  0  0  0  0  0
   49.0020  124.4850  123.1340 C   0  0  2  0  0  0  0  0  0  0  0  0
   49.7140  123.3440  123.8300 C   0  0  0  0  0  0  0  0  0  0  0  0
   50.0280  122.1110  122.9880 C   0  0  1  0  0  0  0  0  0  0  0  0
   50.6730  122.6030  121.6840 C   0  0  2  0  0  0  0  0  0  0  0  0
   49.8620  123.6760  121.0270 C   0  0  2  0  0  0  0  0  0  0  0  0
   50.5710  124.2710  119.8140 C   0  0  0  0  0  0  0  0  0  0  0  0
   50.9580  121.1750  123.7500 C   0  0  0  0  0  0  0  0  0  0  0  0
   47.9240  121.0530  123.4930 C   0  0  0  0  0  0  0  0  0  0  0  0
   47.6420  124.1650  122.9620 O   0  0  0  0  0  0  0  0  0  0  0  0
   48.8570  121.4580  122.5170 O   0  0  0  0  0  0  0  0  0  0  0  0
   50.8760  121.5170  120.8150 O   0  0  0  0  0  0  0  0  0  0  0  0
   49.6480  124.7850  121.9180 O   0  0  0  0  0  0  0  0  0  0  0  0
   45.3455  125.2481  124.3481 H   0  0  0  0  0  0  0  0  0  0  0  0
   47.4180  126.1557  122.4626 H   0  0  0  0  0  0  0  0  0  0  0  0
   45.0261  126.0397  121.8807 H   0  0  0  0  0  0  0  0  0  0  0  0
   47.2562  124.6781  120.6297 H   0  0  0  0  0  0  0  0  0  0  0  0
   44.1938  125.2092  118.5576 H   0  0  0  0  0  0  0  0  0  0  0  0
   43.9725  126.2759  120.0451 H   0  0  0  0  0  0  0  0  0  0  0  0
   45.1446  127.7340  117.8255 H   0  0  0  0  0  0  0  0  0  0  0  0
   43.2042  129.2401  118.3096 H   0  0  0  0  0  0  0  0  0  0  0  0
   42.6246  127.9825  119.4913 H   0  0  0  0  0  0  0  0  0  0  0  0
   42.7457  128.7410  121.2707 H   0  0  0  0  0  0  0  0  0  0  0  0
   45.0274  128.6322  122.3948 H   0  0  0  0  0  0  0  0  0  0  0  0
   45.5152  129.7785  124.7987 H   0  0  0  0  0  0  0  0  0  0  0  0
   43.7813  130.1853  126.4635 H   0  0  0  0  0  0  0  0  0  0  0  0
   43.4473  128.4029  126.4790 H   0  0  0  0  0  0  0  0  0  0  0  0
   44.9372  129.0427  128.3218 H   0  0  0  0  0  0  0  0  0  0  0  0
   45.7677  127.9705  127.1439 H   0  0  0  0  0  0  0  0  0  0  0  0
   46.1033  129.7351  127.1439 H   0  0  0  0  0  0  0  0  0  0  0  0
   46.6122  125.5923  126.4123 H   0  0  0  0  0  0  0  0  0  0  0  0
   47.2308  124.2012  125.4590 H   0  0  0  0  0  0  0  0  0  0  0  0
   48.1255  125.7588  125.4590 H   0  0  0  0  0  0  0  0  0  0  0  0
   44.6080  124.0849  123.5120 H   0  0  0  0  0  0  0  0  0  0  0  0
   43.6132  124.3539  122.0407 H   0  0  0  0  0  0  0  0  0  0  0  0
   44.8946  123.0951  122.0407 H   0  0  0  0  0  0  0  0  0  0  0  0
   47.8142  125.3502  118.5610 H   0  0  0  0  0  0  0  0  0  0  0  0
   46.3405  124.8777  117.6489 H   0  0  0  0  0  0  0  0  0  0  0  0
   46.8867  126.5890  117.6489 H   0  0  0  0  0  0  0  0  0  0  0  0
   42.3605  126.5286  117.4189 H   0  0  0  0  0  0  0  0  0  0  0  0
   43.0844  127.8378  116.4246 H   0  0  0  0  0  0  0  0  0  0  0  0
   43.8196  126.1988  116.4246 H   0  0  0  0  0  0  0  0  0  0  0  0
   45.6857  130.6349  120.2871 H   0  0  0  0  0  0  0  0  0  0  0  0
   46.0024  129.6008  118.8529 H   0  0  0  0  0  0  0  0  0  0  0  0
   44.6087  130.7341  118.8529 H   0  0  0  0  0  0  0  0  0  0  0  0
   42.4645  131.1503  121.9363 H   0  0  0  0  0  0  0  0  0  0  0  0
   43.3364  131.4572  120.3961 H   0  0  0  0  0  0  0  0  0  0  0  0
   41.8310  130.4772  120.3961 H   0  0  0  0  0  0  0  0  0  0  0  0
   42.1663  128.2113  124.8061 H   0  0  0  0  0  0  0  0  0  0  0  0
   41.6115  128.9179  123.2506 H   0  0  0  0  0  0  0  0  0  0  0  0
   42.7530  127.5309  123.2506 H   0  0  0  0  0  0  0  0  0  0  0  0
   46.4087  127.0471  121.0767 H   0  0  0  0  0  0  0  0  0  0  0  0
   45.3404  130.9848  123.4487 H   0  0  0  0  0  0  0  0  0  0  0  0
   43.0318  130.7773  125.1380 H   0  0  0  0  0  0  0  0  0  0  0  0
   47.0483  122.2795  120.2073 H   0  0  0  0  0  0  0  0  0  0  0  0
   45.5344  122.6562  117.5132 H   0  0  0  0  0  0  0  0  0  0  0  0
   47.5868  120.5713  118.4650 H   0  0  0  0  0  0  0  0  0  0  0  0
   49.0468  121.7427  116.7857 H   0  0  0  0  0  0  0  0  0  0  0  0
   47.6528  122.8810  116.4436 H   0  0  0  0  0  0  0  0  0  0  0  0
   49.2490  122.5764  118.9299 H   0  0  0  0  0  0  0  0  0  0  0  0
   49.9084  124.8445  118.6726 H   0  0  0  0  0  0  0  0  0  0  0  0
   50.3231  123.9113  117.1949 H   0  0  0  0  0  0  0  0  0  0  0  0
   48.9003  125.0078  117.1949 H   0  0  0  0  0  0  0  0  0  0  0  0
   48.0739  118.8315  117.4790 H   0  0  0  0  0  0  0  0  0  0  0  0
   47.2588  118.4011  115.9373 H   0  0  0  0  0  0  0  0  0  0  0  0
   48.6181  119.5755  115.9373 H   0  0  0  0  0  0  0  0  0  0  0  0
   45.9201  121.7864  115.4823 H   0  0  0  0  0  0  0  0  0  0  0  0
   47.4054  121.0580  114.7822 H   0  0  0  0  0  0  0  0  0  0  0  0
   45.8656  120.1330  114.7822 H   0  0  0  0  0  0  0  0  0  0  0  0
   45.0979  121.1331  119.7941 H   0  0  0  0  0  0  0  0  0  0  0  0
   49.0464  125.3921  123.7547 H   0  0  0  0  0  0  0  0  0  0  0  0
   50.6670  123.7337  124.2172 H   0  0  0  0  0  0  0  0  0  0  0  0
   49.0109  122.9941  124.6002 H   0  0  0  0  0  0  0  0  0  0  0  0
   51.6466  123.0511  121.9318 H   0  0  0  0  0  0  0  0  0  0  0  0
   48.9195  123.1881  120.7377 H   0  0  0  0  0  0  0  0  0  0  0  0
   51.3729  124.9440  120.1516 H   0  0  0  0  0  0  0  0  0  0  0  0
   51.0030  123.4610  119.2079 H   0  0  0  0  0  0  0  0  0  0  0  0
   49.8482  124.8370  119.2079 H   0  0  0  0  0  0  0  0  0  0  0  0
   50.8162  121.3177  124.8315 H   0  0  0  0  0  0  0  0  0  0  0  0
   50.7275  120.1328  123.4843 H   0  0  0  0  0  0  0  0  0  0  0  0
   52.0017  121.3988  123.4843 H   0  0  0  0  0  0  0  0  0  0  0  0
   48.3400  121.2336  124.4952 H   0  0  0  0  0  0  0  0  0  0  0  0
   46.9943  121.6286  123.3727 H   0  0  0  0  0  0  0  0  0  0  0  0
   47.7096  119.9808  123.3727 H   0  0  0  0  0  0  0  0  0  0  0  0
   51.0297  120.6948  121.3446 H   0  0  0  0  0  0  0  0  0  0  0  0
  1  2  1  0
  2  3  1  0
  3  4  1  0
  4  5  1  0
  5  6  1  0
  6  7  1  0
  7  8  1  0
  8  9  1  0
  9 10  1  0
 10 11  1  0
 11 12  1  0
 12 13  1  0
 13 14  1  0
 14 15  1  0
 15 16  1  0
  2 17  1  0
  4 18  1  0
  6 19  1  0
  8 20  1  0
 10 21  1  0
 11 22  1  0
 13 23  1  0
  1 24  2  0
  6 25  1  1
 12 26  1  0
 13 27  1  1
  1 28  1  0
 14 28  1  0
 29 30  1  0
 30 31  1  0
 31 32  1  0
 32 33  1  0
 33 34  1  0
  5 37  1  0
 29 37  1  0
 30 38  1  0
 31 39  1  0
 35 39  1  0
 36 39  1  0
 29 40  1  0
 33 40  1  0
 41 42  1  0
 42 43  1  0
 43 44  1  0
 44 45  1  0
 45 46  1  0
 43 47  1  0
  3 49  1  0
 41 49  1  0
 43 50  1  6
 48 50  1  0
 44 51  1  0
 41 52  1  0
 45 52  1  0
  2 53  1  1
  3 54  1  6
  4 55  1  6
  5 56  1  1
  7 57  1  0
  7 58  1  0
  8 59  1  6
  9 60  1  0
  9 61  1  0
 11 62  1  1
 12 63  1  6
 14 64  1  1
 15 65  1  0
 15 66  1  0
 16 67  1  0
 16 68  1  0
 16 69  1  0
 17 70  1  0
 17 71  1  0
 17 72  1  0
 18 73  1  0
 18 74  1  0
 18 75  1  0
 19 76  1  0
 19 77  1  0
 19 78  1  0
 20 79  1  0
 20 80  1  0
 20 81  1  0
 21 82  1  0
 21 83  1  0
 21 84  1  0
 22 85  1  0
 22 86  1  0
 22 87  1  0
 23 88  1  0
 23 89  1  0
 23 90  1  0
 25 91  1  0
 26 92  1  0
 27 93  1  0
 29 94  1  1
 30 95  1  6
 31 96  1  1
 32 97  1  0
 32 98  1  0
 33 99  1  1
 34100  1  0
 34101  1  0
 34102  1  0
 35103  1  0
 35104  1  0
 35105  1  0
 36106  1  0
 36107  1  0
 36108  1  0
 38109  1  0
 41110  1  1
 42111  1  0
 42112  1  0
 44113  1  1
 45114  1  6
 46115  1  0
 46116  1  0
 46117  1  0
 47118  1  0
 47119  1  0
 47120  1  0
 48121  1  0
 48122  1  0
 48123  1  0
 51124  1  0
M  END
$$$$
