PDB_DB00482_98
     RDKit          3D

 40 42  0  0  0  0  0  0  0  0999 V2000
  133.0080  154.8400   17.9650 S   0  0  0  0  0  0  0  0  0  0  0  0
  132.9320  155.0200   19.7300 C   0  0  0  0  0  0  0  0  0  0  0  0
  132.3150  154.0440   20.4910 C   0  0  0  0  0  0  0  0  0  0  0  0
  132.2540  154.1790   21.8670 C   0  0  0  0  0  0  0  0  0  0  0  0
  132.8090  155.2810   22.5000 C   0  0  0  0  0  0  0  0  0  0  0  0
  133.4200  156.2680   21.7360 C   0  0  0  0  0  0  0  0  0  0  0  0
  133.4850  156.1290   20.3550 C   0  0  0  0  0  0  0  0  0  0  0  0
  132.7010  155.3540   23.8400 N   0  0  0  0  0  0  0  0  0  0  0  0
  133.6020  155.7700   24.7680 C   0  0  0  0  0  0  0  0  0  0  0  0
  134.8920  156.2480   24.5630 C   0  0  0  0  0  0  0  0  0  0  0  0
  135.8140  155.5140   23.8360 C   0  0  0  0  0  0  0  0  0  0  0  0
  137.0950  156.0050   23.6420 C   0  0  0  0  0  0  0  0  0  0  0  0
  137.4600  157.2270   24.1810 C   0  0  0  0  0  0  0  0  0  0  0  0
  138.8570  157.7620   23.9730 C   0  0  0  0  0  0  0  0  0  0  0  0
  136.5410  157.9600   24.9120 C   0  0  0  0  0  0  0  0  0  0  0  0
  135.2600  157.4700   25.1030 C   0  0  0  0  0  0  0  0  0  0  0  0
  133.0130  155.6450   25.9980 C   0  0  0  0  0  0  0  0  0  0  0  0
  131.7490  155.1550   25.8330 C   0  0  0  0  0  0  0  0  0  0  0  0
  130.7320  154.8570   26.9220 C   0  0  0  0  0  0  0  0  0  0  0  0
  130.5430  153.5360   27.0340 F   0  0  0  0  0  0  0  0  0  0  0  0
  131.1670  155.3340   28.0960 F   0  0  0  0  0  0  0  0  0  0  0  0
  129.5650  155.4360   26.6140 F   0  0  0  0  0  0  0  0  0  0  0  0
  131.5680  154.9770   24.5120 N   0  0  0  0  0  0  0  0  0  0  0  0
  131.5770  155.2600   17.2800 N   0  0  0  0  0  0  0  0  0  0  0  0
  134.0830  155.6150   17.4150 O   0  0  0  0  0  0  0  0  0  0  0  0
  133.3920  153.5090   17.5840 O   0  0  0  0  0  0  0  0  0  0  0  0
  131.8736  153.1622   20.0036 H   0  0  0  0  0  0  0  0  0  0  0  0
  131.7584  153.4014   22.4669 H   0  0  0  0  0  0  0  0  0  0  0  0
  133.8504  157.1557   22.2225 H   0  0  0  0  0  0  0  0  0  0  0  0
  133.9791  156.9048   19.7517 H   0  0  0  0  0  0  0  0  0  0  0  0
  135.5291  154.5398   23.4119 H   0  0  0  0  0  0  0  0  0  0  0  0
  137.8235  155.4228   23.0586 H   0  0  0  0  0  0  0  0  0  0  0  0
  139.3295  157.9430   24.9497 H   0  0  0  0  0  0  0  0  0  0  0  0
  139.4507  157.0276   23.4089 H   0  0  0  0  0  0  0  0  0  0  0  0
  138.8083  158.7051   23.4089 H   0  0  0  0  0  0  0  0  0  0  0  0
  136.8282  158.9313   25.3410 H   0  0  0  0  0  0  0  0  0  0  0  0
  134.5316  158.0531   25.6857 H   0  0  0  0  0  0  0  0  0  0  0  0
  133.4811  155.8978   26.9608 H   0  0  0  0  0  0  0  0  0  0  0  0
  130.8887  155.4620   18.0192 H   0  0  0  0  0  0  0  0  0  0  0  0
  131.7089  156.0977   16.6955 H   0  0  0  0  0  0  0  0  0  0  0  0
  1  2  1  0
  2  3  2  0
  3  4  1  0
  4  5  2  0
  5  6  1  0
  2  7  1  0
  6  7  2  0
  5  8  1  0
  8  9  1  0
  9 10  1  0
 10 11  2  0
 11 12  1  0
 12 13  2  0
 13 14  1  0
 13 15  1  0
 10 16  1  0
 15 16  2  0
  9 17  2  0
 17 18  1  0
 18 19  1  0
 19 20  1  0
 19 21  1  0
 19 22  1  0
  8 23  1  0
 18 23  2  0
  1 24  1  0
  1 25  2  0
  1 26  2  0
  3 27  1  0
  4 28  1  0
  6 29  1  0
  7 30  1  0
 11 31  1  0
 12 32  1  0
 14 33  1  0
 14 34  1  0
 14 35  1  0
 15 36  1  0
 16 37  1  0
 17 38  1  0
 24 39  1  0
 24 40  1  0
M  END
$$$$
