PDB_DB00452_77
     RDKit          3D

 88 91  0  0  0  0  0  0  0  0999 V2000
  103.8870    0.3090  -32.6090 C   0  0  2  0  0  0  0  0  0  0  0  0
  104.1960    1.7190  -32.5420 O   0  0  0  0  0  0  0  0  0  0  0  0
  103.3270   -0.1900  -31.2480 C   0  0  2  0  0  0  0  0  0  0  0  0
  102.1580    0.6300  -30.8250 N   0  0  0  0  0  0  0  0  0  0  0  0
  104.4700   -0.1770  -30.1410 C   0  0  1  0  0  0  0  0  0  0  0  0
  103.9690   -0.6570  -28.8700 O   0  0  0  0  0  0  0  0  0  0  0  0
  105.6640   -1.0690  -30.6150 C   0  0  2  0  0  0  0  0  0  0  0  0
  106.6890   -1.0800  -29.6250 O   0  0  0  0  0  0  0  0  0  0  0  0
  106.2160   -0.5350  -31.9890 C   0  0  2  0  0  0  0  0  0  0  0  0
  105.0850   -0.5270  -32.9680 O   0  0  0  0  0  0  0  0  0  0  0  0
  107.3900   -1.4350  -32.5070 C   0  0  0  0  0  0  0  0  0  0  0  0
  104.6730    5.1040  -35.2460 C   0  0  1  0  0  0  0  0  0  0  0  0
  104.9970    5.9000  -36.4610 N   0  0  0  0  0  0  0  0  0  0  0  0
  103.5130    4.0580  -35.4910 C   0  0  1  0  0  0  0  0  0  0  0  0
  103.2100    3.2410  -34.2200 C   0  0  1  0  0  0  0  0  0  0  0  0
  102.1510    2.2930  -34.5170 O   0  0  0  0  0  0  0  0  0  0  0  0
  104.4830    2.4710  -33.7730 C   0  0  1  0  0  0  0  0  0  0  0  0
  105.6620    3.4780  -33.5400 C   0  0  1  0  0  0  0  0  0  0  0  0
  106.8880    2.7580  -33.1440 N   0  0  0  0  0  0  0  0  0  0  0  0
  105.9640    4.3270  -34.8200 C   0  0  0  0  0  0  0  0  0  0  0  0
  100.9270    2.3630  -33.7530 C   0  0  1  0  0  0  0  0  0  0  0  0
   99.7290    2.6950  -34.6160 C   0  0  1  0  0  0  0  0  0  0  0  0
   98.5510    1.9260  -33.8970 C   0  0  1  0  0  0  0  0  0  0  0  0
   99.1990    0.7220  -33.2220 C   0  0  2  0  0  0  0  0  0  0  0  0
  100.6380    1.0320  -33.1490 O   0  0  0  0  0  0  0  0  0  0  0  0
   99.0050   -0.5780  -33.9840 C   0  0  0  0  0  0  0  0  0  0  0  0
   95.0290    4.1240  -30.8160 C   0  0  1  0  0  0  0  0  0  0  0  0
   96.0810    4.9620  -31.6340 C   0  0  1  0  0  0  0  0  0  0  0  0
   96.1370    4.5020  -33.1090 C   0  0  2  0  0  0  0  0  0  0  0  0
   96.4980    3.0000  -33.1820 C   0  0  1  0  0  0  0  0  0  0  0  0
   97.8460    2.7130  -32.8600 O   0  0  0  0  0  0  0  0  0  0  0  0
   95.3540    2.5990  -30.8570 C   0  0  1  0  0  0  0  0  0  0  0  0
   95.5240    2.2110  -32.3010 O   0  0  0  0  0  0  0  0  0  0  0  0
   96.6360    2.2390  -29.9960 C   0  0  0  0  0  0  0  0  0  0  0  0
  107.9280   -0.9630  -33.7900 N   0  0  0  0  0  0  0  0  0  0  0  0
   99.5950    4.1110  -34.7820 O   0  0  0  0  0  0  0  0  0  0  0  0
   95.7460    6.3170  -31.5810 O   0  0  0  0  0  0  0  0  0  0  0  0
   94.9010    4.5120  -29.4240 O   0  0  0  0  0  0  0  0  0  0  0  0
   99.6030   -1.5930  -33.1950 O   0  0  0  0  0  0  0  0  0  0  0  0
  102.3200    4.7260  -35.8600 O   0  0  0  0  0  0  0  0  0  0  0  0
   96.9330    0.7710  -30.0470 N   0  0  0  0  0  0  0  0  0  0  0  0
   97.1090    5.3210  -33.9250 N   0  0  0  0  0  0  0  0  0  0  0  0
  103.1332    0.1942  -33.4019 H   0  0  0  0  0  0  0  0  0  0  0  0
  102.9809   -1.2269  -31.3705 H   0  0  0  0  0  0  0  0  0  0  0  0
  102.1143    0.6606  -29.7964 H   0  0  0  0  0  0  0  0  0  0  0  0
  102.2585    1.5867  -31.1930 H   0  0  0  0  0  0  0  0  0  0  0  0
  104.8126    0.8592  -30.0032 H   0  0  0  0  0  0  0  0  0  0  0  0
  104.4464   -0.1996  -28.1331 H   0  0  0  0  0  0  0  0  0  0  0  0
  105.3131   -2.1017  -30.7580 H   0  0  0  0  0  0  0  0  0  0  0  0
  106.2780   -1.0756  -28.7244 H   0  0  0  0  0  0  0  0  0  0  0  0
  106.6165    0.4818  -31.8635 H   0  0  0  0  0  0  0  0  0  0  0  0
  108.1977   -1.4278  -31.7603 H   0  0  0  0  0  0  0  0  0  0  0  0
  106.9946   -2.4500  -32.6601 H   0  0  0  0  0  0  0  0  0  0  0  0
  104.3288    5.7989  -34.4659 H   0  0  0  0  0  0  0  0  0  0  0  0
  105.3706    6.8179  -36.1805 H   0  0  0  0  0  0  0  0  0  0  0  0
  105.7012    5.3994  -37.0217 H   0  0  0  0  0  0  0  0  0  0  0  0
  103.8533    3.3859  -36.2925 H   0  0  0  0  0  0  0  0  0  0  0  0
  102.8968    3.9163  -33.4101 H   0  0  0  0  0  0  0  0  0  0  0  0
  104.7796    1.7633  -34.5611 H   0  0  0  0  0  0  0  0  0  0  0  0
  105.3481    4.1571  -32.7335 H   0  0  0  0  0  0  0  0  0  0  0  0
  106.9485    2.7225  -32.1164 H   0  0  0  0  0  0  0  0  0  0  0  0
  106.8597    1.7994  -33.5196 H   0  0  0  0  0  0  0  0  0  0  0  0
  106.7691    5.0444  -34.6029 H   0  0  0  0  0  0  0  0  0  0  0  0
  106.2779    3.6606  -35.6370 H   0  0  0  0  0  0  0  0  0  0  0  0
  101.0774    3.1489  -32.9982 H   0  0  0  0  0  0  0  0  0  0  0  0
   99.7839    2.3689  -35.6651 H   0  0  0  0  0  0  0  0  0  0  0  0
   97.7902    1.6754  -34.6509 H   0  0  0  0  0  0  0  0  0  0  0  0
   98.7331    0.5634  -32.2382 H   0  0  0  0  0  0  0  0  0  0  0  0
   97.9330   -0.7834  -34.1207 H   0  0  0  0  0  0  0  0  0  0  0  0
   99.4603   -0.5278  -34.9841 H   0  0  0  0  0  0  0  0  0  0  0  0
   94.0738    4.3395  -31.3171 H   0  0  0  0  0  0  0  0  0  0  0  0
   97.0718    4.8027  -31.1835 H   0  0  0  0  0  0  0  0  0  0  0  0
   95.1389    4.6581  -33.5442 H   0  0  0  0  0  0  0  0  0  0  0  0
   96.3952    2.6869  -34.2315 H   0  0  0  0  0  0  0  0  0  0  0  0
   94.5289    2.0287  -30.4054 H   0  0  0  0  0  0  0  0  0  0  0  0
   97.5001    2.7931  -30.3914 H   0  0  0  0  0  0  0  0  0  0  0  0
   96.4402    2.5169  -28.9499 H   0  0  0  0  0  0  0  0  0  0  0  0
  108.6912   -0.2934  -33.6168 H   0  0  0  0  0  0  0  0  0  0  0  0
  108.2896   -1.7645  -34.3264 H   0  0  0  0  0  0  0  0  0  0  0  0
   99.5539    4.5450  -33.8932 H   0  0  0  0  0  0  0  0  0  0  0  0
   95.6754    6.6027  -30.6358 H   0  0  0  0  0  0  0  0  0  0  0  0
   95.1525    3.7497  -28.8445 H   0  0  0  0  0  0  0  0  0  0  0  0
   99.4785   -1.3817  -32.2358 H   0  0  0  0  0  0  0  0  0  0  0  0
  101.8298    5.0005  -35.0448 H   0  0  0  0  0  0  0  0  0  0  0  0
   97.0076    0.4023  -29.0882 H   0  0  0  0  0  0  0  0  0  0  0  0
   96.1735    0.2841  -30.5440 H   0  0  0  0  0  0  0  0  0  0  0  0
   97.7311    5.8452  -33.2933 H   0  0  0  0  0  0  0  0  0  0  0  0
   97.6712    4.6950  -34.5191 H   0  0  0  0  0  0  0  0  0  0  0  0
  2  1  1  0
  3  1  1  0
  4  3  1  0
  5  3  1  0
  6  5  1  0
  7  5  1  0
  8  7  1  0
  9  7  1  0
 10  9  1  0
 10  1  1  0
 11  9  1  0
 13 12  1  0
 14 12  1  0
 15 14  1  0
 16 15  1  0
 17 15  1  0
 17  2  1  0
 18 17  1  0
 19 18  1  0
 20 18  1  0
 20 12  1  0
 21 16  1  0
 22 21  1  0
 23 22  1  0
 24 23  1  0
 25 24  1  0
 25 21  1  0
 26 24  1  0
 28 27  1  0
 29 28  1  0
 30 29  1  0
 31 30  1  0
 31 23  1  0
 32 27  1  0
 33 30  1  0
 33 32  1  0
 34 32  1  0
 35 11  1  0
 36 22  1  0
 37 28  1  0
 38 27  1  0
 39 26  1  0
 40 14  1  0
 41 34  1  0
 42 29  1  0
  1 43  1  6
  3 44  1  6
  4 45  1  0
  4 46  1  0
  5 47  1  1
  6 48  1  0
  7 49  1  6
  8 50  1  0
  9 51  1  1
 11 52  1  0
 11 53  1  0
 12 54  1  1
 13 55  1  0
 13 56  1  0
 14 57  1  6
 15 58  1  1
 17 59  1  6
 18 60  1  1
 19 61  1  0
 19 62  1  0
 20 63  1  0
 20 64  1  0
 21 65  1  1
 22 66  1  6
 23 67  1  6
 24 68  1  1
 26 69  1  0
 26 70  1  0
 27 71  1  6
 28 72  1  1
 29 73  1  6
 30 74  1  6
 32 75  1  1
 34 76  1  0
 34 77  1  0
 35 78  1  0
 35 79  1  0
 36 80  1  0
 37 81  1  0
 38 82  1  0
 39 83  1  0
 40 84  1  0
 41 85  1  0
 41 86  1  0
 42 87  1  0
 42 88  1  0
M  END
$$$$
