PDB_DB01137_93
     RDKit          3D

 46 49  0  0  0  0  0  0  0  0999 V2000
  200.2460   32.6750   -6.9960 C   0  0  0  0  0  0  0  0  0  0  0  0
  198.2420   33.7620  -14.0930 F   0  0  0  0  0  0  0  0  0  0  0  0
  196.6780   37.5330  -15.9930 N   0  0  0  0  0  0  0  0  0  0  0  0
  200.6820   31.4810   -7.1050 O   0  0  0  0  0  0  0  0  0  0  0  0
  196.1160   36.0770  -14.1070 C   0  0  0  0  0  0  0  0  0  0  0  0
  197.4320   36.3500  -13.5270 N   0  0  0  0  0  0  0  0  0  0  0  0
  197.7160   37.1700  -10.8880 O   0  0  0  0  0  0  0  0  0  0  0  0
  198.1030   37.5770  -13.9730 C   0  0  0  0  0  0  0  0  0  0  0  0
  198.7820   35.4890   -8.9270 N   0  0  0  0  0  0  0  0  0  0  0  0
  199.9730   31.6460   -9.8320 O   0  0  0  0  0  0  0  0  0  0  0  0
  198.3740   36.8660   -8.5710 C   0  0  2  0  0  0  0  0  0  0  0  0
  200.2730   33.3380   -5.9310 O   0  0  0  0  0  0  0  0  0  0  0  0
  197.9600   35.5040  -12.5320 C   0  0  0  0  0  0  0  0  0  0  0  0
  198.6500   35.0390  -10.2320 C   0  0  0  0  0  0  0  0  0  0  0  0
  198.1210   35.9100  -11.2070 C   0  0  0  0  0  0  0  0  0  0  0  0
  196.1560   36.2340  -15.6080 C   0  0  0  0  0  0  0  0  0  0  0  0
  198.0350   37.6810  -15.4890 C   0  0  0  0  0  0  0  0  0  0  0  0
  198.4520   37.7380   -9.7950 C   0  0  0  0  0  0  0  0  0  0  0  0
  199.0490   33.7350  -10.5540 C   0  0  0  0  0  0  0  0  0  0  0  0
  198.3760   34.1840  -12.8040 C   0  0  0  0  0  0  0  0  0  0  0  0
  199.2900   34.6710   -7.9960 C   0  0  0  0  0  0  0  0  0  0  0  0
  198.8920   33.3080  -11.8870 C   0  0  0  0  0  0  0  0  0  0  0  0
  199.3090   37.4600   -7.5300 C   0  0  0  0  0  0  0  0  0  0  0  0
  199.6130   32.8220   -9.5250 C   0  0  0  0  0  0  0  0  0  0  0  0
  196.6760   37.6430  -17.4430 C   0  0  0  0  0  0  0  0  0  0  0  0
  199.7090   33.3810   -8.2060 C   0  0  0  0  0  0  0  0  0  0  0  0
  200.6310   31.0130   -7.9759 H   0  0  0  0  0  0  0  0  0  0  0  0
  195.8175   35.0478  -13.8586 H   0  0  0  0  0  0  0  0  0  0  0  0
  195.3901   36.7929  -13.6940 H   0  0  0  0  0  0  0  0  0  0  0  0
  197.6046   38.4491  -13.5246 H   0  0  0  0  0  0  0  0  0  0  0  0
  199.1566   37.5491  -13.6583 H   0  0  0  0  0  0  0  0  0  0  0  0
  197.3505   36.8230   -8.1702 H   0  0  0  0  0  0  0  0  0  0  0  0
  195.1362   36.1262  -16.0060 H   0  0  0  0  0  0  0  0  0  0  0  0
  196.8203   35.4594  -16.0186 H   0  0  0  0  0  0  0  0  0  0  0  0
  198.6628   36.8906  -15.9262 H   0  0  0  0  0  0  0  0  0  0  0  0
  198.3922   38.6817  -15.7737 H   0  0  0  0  0  0  0  0  0  0  0  0
  199.5059   37.8467  -10.0908 H   0  0  0  0  0  0  0  0  0  0  0  0
  198.0127   38.7168   -9.5523 H   0  0  0  0  0  0  0  0  0  0  0  0
  199.3792   35.0677   -6.9739 H   0  0  0  0  0  0  0  0  0  0  0  0
  199.1788   32.2890  -12.1859 H   0  0  0  0  0  0  0  0  0  0  0  0
  198.9351   37.2224   -6.5232 H   0  0  0  0  0  0  0  0  0  0  0  0
  200.3159   37.0356   -7.6568 H   0  0  0  0  0  0  0  0  0  0  0  0
  199.3527   38.5518   -7.6568 H   0  0  0  0  0  0  0  0  0  0  0  0
  196.6567   38.7047  -17.7301 H   0  0  0  0  0  0  0  0  0  0  0  0
  197.5829   37.1701  -17.8478 H   0  0  0  0  0  0  0  0  0  0  0  0
  195.7869   37.1374  -17.8478 H   0  0  0  0  0  0  0  0  0  0  0  0
  1  4  1  0
  5  6  1  0
  6  8  1  0
  9 11  1  0
  1 12  2  0
  6 13  1  0
  9 14  1  0
  7 15  1  0
 13 15  1  0
 14 15  2  0
  3 16  1  0
  5 16  1  0
  3 17  1  0
  8 17  1  0
  7 18  1  0
 11 18  1  0
 14 19  1  0
  2 20  1  0
 13 20  2  0
  9 21  1  0
 19 22  2  0
 20 22  1  0
 11 23  1  0
 19 24  1  0
 24 10  2  0
  3 25  1  0
  1 26  1  0
 21 26  2  0
 24 26  1  0
  4 27  1  0
  5 28  1  0
  5 29  1  0
  8 30  1  0
  8 31  1  0
 11 32  1  1
 16 33  1  0
 16 34  1  0
 17 35  1  0
 17 36  1  0
 18 37  1  0
 18 38  1  0
 21 39  1  0
 22 40  1  0
 23 41  1  0
 23 42  1  0
 23 43  1  0
 25 44  1  0
 25 45  1  0
 25 46  1  0
M  END
$$$$
