PDB_DB09053_99
     RDKit          3D

 57 61  0  0  0  0  0  0  0  0999 V2000
  -17.8880    4.6450  -18.8150 N   0  0  0  0  0  0  0  0  0  0  0  0
  -16.8740    4.8110  -19.6620 C   0  0  0  0  0  0  0  0  0  0  0  0
  -15.7450    5.4300  -19.3760 N   0  0  0  0  0  0  0  0  0  0  0  0
  -15.5510    5.7860  -18.1270 C   0  0  0  0  0  0  0  0  0  0  0  0
  -16.5410    5.5770  -17.1440 C   0  0  0  0  0  0  0  0  0  0  0  0
  -17.7510    4.9880  -17.5440 C   0  0  0  0  0  0  0  0  0  0  0  0
  -10.1300   10.7880  -20.5380 C   0  0  0  0  0  0  0  0  0  0  0  0
  -18.8270    4.8480  -16.7260 N   0  0  0  0  0  0  0  0  0  0  0  0
  -12.8240    9.1000  -20.9970 O   0  0  0  0  0  0  0  0  0  0  0  0
  -10.4790    9.3260  -20.7830 C   0  0  0  0  0  0  0  0  0  0  0  0
  -21.0590    8.2480   -9.1780 C   0  0  0  0  0  0  0  0  0  0  0  0
  -21.1340    7.8540  -10.5130 C   0  0  0  0  0  0  0  0  0  0  0  0
  -19.9970    7.8370   -8.3820 C   0  0  0  0  0  0  0  0  0  0  0  0
  -20.1180    7.1090  -11.0850 C   0  0  0  0  0  0  0  0  0  0  0  0
  -19.0310    6.9970   -8.9230 C   0  0  0  0  0  0  0  0  0  0  0  0
  -17.4050    4.7700  -12.7110 C   0  0  0  0  0  0  0  0  0  0  0  0
  -17.2160    7.1840  -12.5520 C   0  0  0  0  0  0  0  0  0  0  0  0
  -16.8980    4.8380  -13.9970 C   0  0  0  0  0  0  0  0  0  0  0  0
  -16.7100    7.2510  -13.8250 C   0  0  0  0  0  0  0  0  0  0  0  0
  -10.7360    7.0010  -17.7520 C   0  0  0  0  0  0  0  0  0  0  0  0
  -12.0760    6.3520  -17.3160 C   0  0  0  0  0  0  0  0  0  0  0  0
  -10.8810    8.5210  -17.9630 C   0  0  0  0  0  0  0  0  0  0  0  0
  -13.3220    8.3180  -18.3910 C   0  0  0  0  0  0  0  0  0  0  0  0
  -14.8050    6.5790  -16.2010 N   0  0  0  0  0  0  0  0  0  0  0  0
  -18.0370    5.8750  -10.7130 O   0  0  0  0  0  0  0  0  0  0  0  0
  -11.8610    9.0490  -20.2320 C   0  0  0  0  0  0  0  0  0  0  0  0
  -19.0510    6.6850  -10.2750 C   0  0  0  0  0  0  0  0  0  0  0  0
  -17.5770    5.9520  -11.9980 C   0  0  0  0  0  0  0  0  0  0  0  0
  -16.5580    6.0680  -14.5570 C   0  0  0  0  0  0  0  0  0  0  0  0
  -15.9840    6.0930  -15.9090 C   0  0  0  0  0  0  0  0  0  0  0  0
  -13.2760    6.7860  -18.1860 C   0  0  2  0  0  0  0  0  0  0  0  0
  -14.5220    6.4090  -17.5340 N   0  0  0  0  0  0  0  0  0  0  0  0
  -12.0020    8.7010  -18.9280 N   0  0  0  0  0  0  0  0  0  0  0  0
  -16.9864    4.4010  -20.6765 H   0  0  0  0  0  0  0  0  0  0  0  0
   -9.1590   11.1847  -20.8694 H   0  0  0  0  0  0  0  0  0  0  0  0
  -10.8489   11.4473  -20.0297 H   0  0  0  0  0  0  0  0  0  0  0  0
  -18.7547    5.1056  -15.7314 H   0  0  0  0  0  0  0  0  0  0  0  0
  -19.7149    4.4843  -17.1006 H   0  0  0  0  0  0  0  0  0  0  0  0
   -9.8307    8.5897  -21.2805 H   0  0  0  0  0  0  0  0  0  0  0  0
  -21.8455    8.8883   -8.7521 H   0  0  0  0  0  0  0  0  0  0  0  0
  -22.0085    8.1378  -11.1170 H   0  0  0  0  0  0  0  0  0  0  0  0
  -19.9218    8.1722   -7.3370 H   0  0  0  0  0  0  0  0  0  0  0  0
  -20.1451    6.8533  -12.1545 H   0  0  0  0  0  0  0  0  0  0  0  0
  -18.2465    6.5773   -8.2761 H   0  0  0  0  0  0  0  0  0  0  0  0
  -17.6667    3.8007  -12.2617 H   0  0  0  0  0  0  0  0  0  0  0  0
  -17.3386    8.1051  -11.9633 H   0  0  0  0  0  0  0  0  0  0  0  0
  -16.7626    3.9155  -14.5807 H   0  0  0  0  0  0  0  0  0  0  0  0
  -16.4280    8.2195  -14.2638 H   0  0  0  0  0  0  0  0  0  0  0  0
   -9.9817    6.8197  -16.9722 H   0  0  0  0  0  0  0  0  0  0  0  0
  -10.4312    6.5496  -18.7077 H   0  0  0  0  0  0  0  0  0  0  0  0
  -11.9729    5.2589  -17.3835 H   0  0  0  0  0  0  0  0  0  0  0  0
  -12.2808    6.6860  -16.2882 H   0  0  0  0  0  0  0  0  0  0  0  0
  -11.1147    9.0178  -17.0098 H   0  0  0  0  0  0  0  0  0  0  0  0
   -9.9489    8.9638  -18.3439 H   0  0  0  0  0  0  0  0  0  0  0  0
  -14.1158    8.5836  -19.1047 H   0  0  0  0  0  0  0  0  0  0  0  0
  -13.5390    8.8423  -17.4487 H   0  0  0  0  0  0  0  0  0  0  0  0
  -13.1558    6.2869  -19.1588 H   0  0  0  0  0  0  0  0  0  0  0  0
  1  2  2  0
  2  3  1  0
  3  4  2  0
  4  5  1  0
  1  6  1  0
  5  6  2  0
  6  8  1  0
  7 10  2  3
 11 12  2  0
 11 13  1  0
 12 14  1  0
 13 15  2  0
 16 18  2  0
 17 19  1  0
 20 21  1  0
 20 22  1  0
  9 26  2  0
 10 26  1  0
 14 27  2  0
 15 27  1  0
 25 27  1  0
 16 28  1  0
 17 28  2  0
 25 28  1  0
 18 29  1  0
 19 29  2  0
  5 30  1  0
 24 30  2  0
 29 30  1  0
 21 31  1  0
 23 31  1  0
  4 32  1  0
 24 32  1  0
 31 32  1  0
 22 33  1  0
 23 33  1  0
 26 33  1  0
  2 34  1  0
  7 35  1  0
  7 36  1  0
  8 37  1  0
  8 38  1  0
 10 39  1  0
 11 40  1  0
 12 41  1  0
 13 42  1  0
 14 43  1  0
 15 44  1  0
 16 45  1  0
 17 46  1  0
 18 47  1  0
 19 48  1  0
 20 49  1  0
 20 50  1  0
 21 51  1  0
 21 52  1  0
 22 53  1  0
 22 54  1  0
 23 55  1  0
 23 56  1  0
 31 57  1  6
M  END
>  <PDBID>  (1) 
5P9I

>  <PDB ID>  (1) 
5P9I

>  <Generic Name>  (1) 
Ibrutinib

>  <Brand Name>  (1) 
Imbruvica

>  <DrugBank ID>  (1) 
DB09053

>  <ATC Codes>  (1) 
L01XE27

>  <Ligand ID>  (1) 
100000000

>  <Target Name>  (1) 
Tyrosine-protein kinase BTK

>  <UniProt ID>  (1) 
Q06187

>  <PDB ID.1>  (1) 
5P9I

>  <Seq. Identity>  (1) 
100%

$$$$
