PDB_DB00205_95
     RDKit          3D

 42 43  0  0  0  0  0  0  0  0999 V2000
   28.2550    2.1360    9.7010 N   0  0  0  0  0  0  0  0  0  0  0  0
   29.2990    3.0270    9.3370 C   0  0  0  0  0  0  0  0  0  0  0  0
   28.0280    1.8600   11.0540 C   0  0  0  0  0  0  0  0  0  0  0  0
   28.8830    2.4860   12.1380 C   0  0  0  0  0  0  0  0  0  0  0  0
   29.9630    3.4310   11.6060 C   0  0  0  0  0  0  0  0  0  0  0  0
   30.1420    3.6650   10.2720 N   0  0  0  0  0  0  0  0  0  0  0  0
   28.6830    2.2360   13.5650 C   0  0  0  0  0  0  0  0  0  0  0  0
   27.8600    3.1860   14.3720 C   0  0  0  0  0  0  0  0  0  0  0  0
   27.6170    3.0010   15.7810 C   0  0  0  0  0  0  0  0  0  0  0  0
   28.1710    1.8830   16.4360 C   0  0  0  0  0  0  0  0  0  0  0  0
   28.9840    0.9280   15.6770 C   0  0  0  0  0  0  0  0  0  0  0  0
   29.2220    1.1230   14.2670 C   0  0  0  0  0  0  0  0  0  0  0  0
   27.0400    1.0210   11.4330 N   0  0  0  0  0  0  0  0  0  0  0  0
   29.5400    3.3060    7.9880 N   0  0  0  0  0  0  0  0  0  0  0  0
   30.8810    4.1440   12.5680 C   0  0  0  0  0  0  0  0  0  0  0  0
   30.8590    5.6550   12.5910 C   0  0  0  0  0  0  0  0  0  0  0  0
   27.9760    1.5590   18.0280 Cl  0  0  0  0  0  0  0  0  0  0  0  0
   27.3805    2.5285    9.3240 H   0  0  0  0  0  0  0  0  0  0  0  0
   28.5972    3.8722    9.3930 H   0  0  0  0  0  0  0  0  0  0  0  0
   28.7230    1.0093   10.9971 H   0  0  0  0  0  0  0  0  0  0  0  0
   29.5867    1.6433   12.0696 H   0  0  0  0  0  0  0  0  0  0  0  0
   30.6719    2.5915   11.5539 H   0  0  0  0  0  0  0  0  0  0  0  0
   31.1071    3.3855   10.0453 H   0  0  0  0  0  0  0  0  0  0  0  0
   29.5849    2.8226   13.7942 H   0  0  0  0  0  0  0  0  0  0  0  0
   28.3438    4.1689   14.2726 H   0  0  0  0  0  0  0  0  0  0  0  0
   26.8568    3.0284   13.9491 H   0  0  0  0  0  0  0  0  0  0  0  0
   28.0012    3.8956   16.2929 H   0  0  0  0  0  0  0  0  0  0  0  0
   26.5327    2.8245   15.8371 H   0  0  0  0  0  0  0  0  0  0  0  0
   27.2681    1.2993   16.2033 H   0  0  0  0  0  0  0  0  0  0  0  0
   29.9710    0.9001   16.1617 H   0  0  0  0  0  0  0  0  0  0  0  0
   28.3738    0.0130   15.6993 H   0  0  0  0  0  0  0  0  0  0  0  0
   28.8398    0.2239   13.7615 H   0  0  0  0  0  0  0  0  0  0  0  0
   30.3022    1.3287   14.2381 H   0  0  0  0  0  0  0  0  0  0  0  0
   26.9966    0.9841   12.4614 H   0  0  0  0  0  0  0  0  0  0  0  0
   26.1406    1.3605   11.0633 H   0  0  0  0  0  0  0  0  0  0  0  0
   30.2115    4.0834    7.9128 H   0  0  0  0  0  0  0  0  0  0  0  0
   29.9294    2.4703    7.5288 H   0  0  0  0  0  0  0  0  0  0  0  0
   30.6239    3.7989   13.5803 H   0  0  0  0  0  0  0  0  0  0  0  0
   31.8923    3.8920   12.2163 H   0  0  0  0  0  0  0  0  0  0  0  0
   30.8539    6.0058   13.6336 H   0  0  0  0  0  0  0  0  0  0  0  0
   31.7516    6.0426   12.0781 H   0  0  0  0  0  0  0  0  0  0  0  0
   29.9555    6.0164   12.0781 H   0  0  0  0  0  0  0  0  0  0  0  0
  1  2  1  0
  1  3  1  0
  3  4  1  0
  4  5  1  0
  2  6  1  0
  5  6  1  0
  4  7  1  0
  7  8  1  0
  8  9  1  0
  9 10  1  0
 10 11  1  0
  7 12  1  0
 11 12  1  0
  3 13  1  0
  2 14  1  0
  5 15  1  0
 15 16  1  0
 10 17  1  0
  1 18  1  0
  2 19  1  0
  3 20  1  0
  4 21  1  0
  5 22  1  0
  6 23  1  0
  7 24  1  0
  8 25  1  0
  8 26  1  0
  9 27  1  0
  9 28  1  0
 10 29  1  0
 11 30  1  0
 11 31  1  0
 12 32  1  0
 12 33  1  0
 13 34  1  0
 13 35  1  0
 14 36  1  0
 14 37  1  0
 15 38  1  0
 15 39  1  0
 16 40  1  0
 16 41  1  0
 16 42  1  0
M  END
>  <PDBID>  (1) 
2BLA

>  <PDB ID>  (1) 
2BLA

>  <Generic Name>  (1) 
Pyrimethamine

>  <Brand Name>  (1) 
Daraprim#Fansidar Tablets#Pyrimethamine Leucovorin

>  <DrugBank ID>  (1) 
DB00205

>  <ATC Codes>  (1) 
P01BF04#P01BD01#P01BD51

>  <Ligand ID>  (1) 
CP6

>  <Target Name>  (1) 
Bifunctional dihydrofolate reductase-thymidylate synthase

>  <UniProt ID>  (1) 
P13922

>  <PDB ID.1>  (1) 
2BLA

>  <Seq. Identity>  (1) 
65%

$$$$
