PDB_DB00382_93
     RDKit          3D

 29 31  0  0  0  0  0  0  0  0999 V2000
   -2.6730  -28.5540   26.0230 C   0  0  0  0  0  0  0  0  0  0  0  0
   -3.4870  -29.4620   26.7390 C   0  0  0  0  0  0  0  0  0  0  0  0
   -4.7850  -29.7850   26.2640 C   0  0  0  0  0  0  0  0  0  0  0  0
   -5.2900  -29.1690   25.0110 C   0  0  0  0  0  0  0  0  0  0  0  0
   -4.4220  -28.2540   24.3210 C   0  0  0  0  0  0  0  0  0  0  0  0
   -3.1340  -27.9550   24.8270 C   0  0  0  0  0  0  0  0  0  0  0  0
   -5.5360  -30.6440   26.9590 N   0  0  0  0  0  0  0  0  0  0  0  0
   -6.7680  -31.0060   26.5890 C   0  0  0  0  0  0  0  0  0  0  0  0
   -7.3830  -30.4770   25.3830 C   0  0  0  0  0  0  0  0  0  0  0  0
   -6.6210  -29.5400   24.5820 C   0  0  0  0  0  0  0  0  0  0  0  0
   -7.5210  -32.0210   27.5150 C   0  0  0  0  0  0  0  0  0  0  0  0
   -8.8210  -32.6610   26.9220 C   0  0  0  0  0  0  0  0  0  0  0  0
   -9.6720  -31.5950   26.1840 C   0  0  0  0  0  0  0  0  0  0  0  0
   -8.8480  -30.9600   25.0240 C   0  0  0  0  0  0  0  0  0  0  0  0
   -7.1660  -29.0290   23.4520 N   0  0  0  0  0  0  0  0  0  0  0  0
   -2.4368  -27.7319   26.7147 H   0  0  0  0  0  0  0  0  0  0  0  0
   -1.8463  -29.1903   25.6742 H   0  0  0  0  0  0  0  0  0  0  0  0
   -2.9281  -30.4074   26.8007 H   0  0  0  0  0  0  0  0  0  0  0  0
   -3.6898  -28.9288   27.6795 H   0  0  0  0  0  0  0  0  0  0  0  0
   -4.2749  -28.6628   23.3105 H   0  0  0  0  0  0  0  0  0  0  0  0
   -4.9513  -27.2947   24.4189 H   0  0  0  0  0  0  0  0  0  0  0  0
   -3.1039  -26.8673   24.9880 H   0  0  0  0  0  0  0  0  0  0  0  0
   -2.4650  -28.3808   24.0647 H   0  0  0  0  0  0  0  0  0  0  0  0
   -7.1575  -32.2695   28.5230 H   0  0  0  0  0  0  0  0  0  0  0  0
   -9.0937  -33.7225   27.0160 H   0  0  0  0  0  0  0  0  0  0  0  0
  -10.7070  -31.3262   26.4420 H   0  0  0  0  0  0  0  0  0  0  0  0
   -9.2615  -30.8529   24.0103 H   0  0  0  0  0  0  0  0  0  0  0  0
   -8.1155  -29.3079   23.1664 H   0  0  0  0  0  0  0  0  0  0  0  0
   -6.6309  -28.3616   22.8784 H   0  0  0  0  0  0  0  0  0  0  0  0
  1  2  1  0
  2  3  1  0
  3  4  2  0
  4  5  1  0
  1  6  1  0
  5  6  1  0
  3  7  1  0
  7  8  2  0
  8  9  1  0
  4 10  1  0
  9 10  2  0
  8 11  1  0
 11 12  2  0
 12 13  1  0
  9 14  1  0
 13 14  2  0
 10 15  1  0
  1 16  1  0
  1 17  1  0
  2 18  1  0
  2 19  1  0
  5 20  1  0
  5 21  1  0
  6 22  1  0
  6 23  1  0
 11 24  1  0
 12 25  1  0
 13 26  1  0
 14 27  1  0
 15 28  1  0
 15 29  1  0
M  END
$$$$
