PDB_DB00834_89
     RDKit          3D

 67 71  0  0  0  0  0  0  0  0999 V2000
  -49.6560   34.8390  -15.1870 O   0  0  0  0  0  0  0  0  0  0  0  0
  -49.5900   35.8110  -14.4420 C   0  0  0  0  0  0  0  0  0  0  0  0
  -48.5610   35.8210  -13.3350 C   0  0  0  0  0  0  0  0  0  0  0  0
  -50.4880   36.8850  -14.6400 C   0  0  0  0  0  0  0  0  0  0  0  0
  -50.4750   37.9760  -13.8440 C   0  0  0  0  0  0  0  0  0  0  0  0
  -51.4210   39.1320  -14.0660 C   0  0  0  0  0  0  0  0  0  0  0  0
  -49.4890   38.1100  -12.7750 C   0  0  0  0  0  0  0  0  0  0  0  0
  -48.2650   37.2190  -12.7850 C   0  0  0  0  0  0  0  0  0  0  0  0
  -49.6000   39.0510  -11.8400 C   0  0  0  0  0  0  0  0  0  0  0  0
  -48.4770   39.1090  -10.8210 C   0  0  1  0  0  0  0  0  0  0  0  0
  -47.4070   39.9850  -11.4270 C   0  0  0  0  0  0  0  0  0  0  0  0
  -46.1360   40.0630  -10.8930 C   0  0  0  0  0  0  0  0  0  0  0  0
  -45.1790   40.8560  -11.5000 C   0  0  0  0  0  0  0  0  0  0  0  0
  -45.4750   41.5730  -12.6530 C   0  0  0  0  0  0  0  0  0  0  0  0
  -44.5110   42.3820  -13.2810 N   0  0  0  0  0  0  0  0  0  0  0  0
  -43.1530   42.5050  -12.7520 C   0  0  0  0  0  0  0  0  0  0  0  0
  -44.8550   43.1220  -14.4970 C   0  0  0  0  0  0  0  0  0  0  0  0
  -46.7470   41.4810  -13.1870 C   0  0  0  0  0  0  0  0  0  0  0  0
  -47.6990   40.6920  -12.5750 C   0  0  0  0  0  0  0  0  0  0  0  0
  -48.8960   39.5380   -9.4060 C   0  0  0  0  0  0  0  0  0  0  0  0
  -50.1120   40.4430   -9.4170 C   0  0  2  0  0  0  0  0  0  0  0  0
  -49.6900   41.8480   -9.8630 C   0  0  0  0  0  0  0  0  0  0  0  0
  -50.8150   40.5040   -8.0670 C   0  0  1  0  0  0  0  0  0  0  0  0
  -50.6810   39.2040   -7.3830 C   0  0  0  0  0  0  0  0  0  0  0  0
  -50.5390   38.1590   -6.8540 C   0  0  0  0  0  0  0  0  0  0  0  0
  -50.3040   36.8530   -6.2090 C   0  0  0  0  0  0  0  0  0  0  0  0
  -50.2340   41.5490   -7.2770 O   0  0  0  0  0  0  0  0  0  0  0  0
  -52.3030   40.8080   -8.3900 C   0  0  0  0  0  0  0  0  0  0  0  0
  -52.4090   40.7990   -9.9390 C   0  0  0  0  0  0  0  0  0  0  0  0
  -51.2430   39.8790  -10.3210 C   0  0  1  0  0  0  0  0  0  0  0  0
  -50.7740   39.9830  -11.7650 C   0  0  2  0  0  0  0  0  0  0  0  0
  -51.9160   39.6220  -12.7050 C   0  0  0  0  0  0  0  0  0  0  0  0
  -48.9314   35.1943  -12.5104 H   0  0  0  0  0  0  0  0  0  0  0  0
  -47.6230   35.4379  -13.7634 H   0  0  0  0  0  0  0  0  0  0  0  0
  -51.2156   36.8306  -15.4632 H   0  0  0  0  0  0  0  0  0  0  0  0
  -50.8955   39.9471  -14.5851 H   0  0  0  0  0  0  0  0  0  0  0  0
  -52.2726   38.8090  -14.6828 H   0  0  0  0  0  0  0  0  0  0  0  0
  -47.8918   37.1209  -11.7549 H   0  0  0  0  0  0  0  0  0  0  0  0
  -47.5177   37.6856  -13.4436 H   0  0  0  0  0  0  0  0  0  0  0  0
  -48.1008   38.0926  -10.6327 H   0  0  0  0  0  0  0  0  0  0  0  0
  -45.8847   39.4947   -9.9853 H   0  0  0  0  0  0  0  0  0  0  0  0
  -44.1709   40.9199  -11.0646 H   0  0  0  0  0  0  0  0  0  0  0  0
  -43.1861   42.5020  -11.6525 H   0  0  0  0  0  0  0  0  0  0  0  0
  -42.5447   41.6583  -13.1028 H   0  0  0  0  0  0  0  0  0  0  0  0
  -42.7068   43.4472  -13.1028 H   0  0  0  0  0  0  0  0  0  0  0  0
  -45.3041   44.0882  -14.2235 H   0  0  0  0  0  0  0  0  0  0  0  0
  -43.9452   43.2954  -15.0904 H   0  0  0  0  0  0  0  0  0  0  0  0
  -45.5741   42.5382  -15.0904 H   0  0  0  0  0  0  0  0  0  0  0  0
  -47.0004   42.0378  -14.1012 H   0  0  0  0  0  0  0  0  0  0  0  0
  -48.7073   40.6256  -13.0095 H   0  0  0  0  0  0  0  0  0  0  0  0
  -49.1297   38.6382   -8.8180 H   0  0  0  0  0  0  0  0  0  0  0  0
  -48.0610   40.1008   -8.9633 H   0  0  0  0  0  0  0  0  0  0  0  0
  -49.5023   42.4729   -8.9774 H   0  0  0  0  0  0  0  0  0  0  0  0
  -48.7723   41.7812  -10.4658 H   0  0  0  0  0  0  0  0  0  0  0  0
  -50.4927   42.2979  -10.4658 H   0  0  0  0  0  0  0  0  0  0  0  0
  -50.3259   36.9747   -5.1160 H   0  0  0  0  0  0  0  0  0  0  0  0
  -51.0894   36.1463   -6.5151 H   0  0  0  0  0  0  0  0  0  0  0  0
  -49.3215   36.4644   -6.5151 H   0  0  0  0  0  0  0  0  0  0  0  0
  -50.3502   41.3399   -6.3163 H   0  0  0  0  0  0  0  0  0  0  0  0
  -52.9548   40.0350   -7.9568 H   0  0  0  0  0  0  0  0  0  0  0  0
  -52.6204   41.7728   -7.9677 H   0  0  0  0  0  0  0  0  0  0  0  0
  -53.3723   40.3864  -10.2733 H   0  0  0  0  0  0  0  0  0  0  0  0
  -52.3604   41.7978  -10.3973 H   0  0  0  0  0  0  0  0  0  0  0  0
  -51.5254   38.8228  -10.2001 H   0  0  0  0  0  0  0  0  0  0  0  0
  -50.4724   40.9952  -12.0726 H   0  0  0  0  0  0  0  0  0  0  0  0
  -52.5426   40.5131  -12.8574 H   0  0  0  0  0  0  0  0  0  0  0  0
  -52.4845   38.8025  -12.2411 H   0  0  0  0  0  0  0  0  0  0  0  0
  1  2  2  0
  2  3  1  0
  2  4  1  0
  4  5  2  0
  5  6  1  0
  5  7  1  0
  3  8  1  0
  7  8  1  0
  7  9  2  0
  9 10  1  0
 10 11  1  0
 11 12  2  0
 12 13  1  0
 13 14  2  0
 14 15  1  0
 15 16  1  0
 15 17  1  0
 14 18  1  0
 11 19  1  0
 18 19  2  0
 10 20  1  0
 20 21  1  0
 21 22  1  6
 21 23  1  0
 23 24  1  1
 24 25  3  0
 25 26  1  0
 23 27  1  0
 23 28  1  0
 28 29  1  0
 21 30  1  0
 29 30  1  0
  9 31  1  0
 30 31  1  0
  6 32  1  0
 31 32  1  0
  3 33  1  0
  3 34  1  0
  4 35  1  0
  6 36  1  0
  6 37  1  0
  8 38  1  0
  8 39  1  0
 10 40  1  1
 12 41  1  0
 13 42  1  0
 16 43  1  0
 16 44  1  0
 16 45  1  0
 17 46  1  0
 17 47  1  0
 17 48  1  0
 18 49  1  0
 19 50  1  0
 20 51  1  0
 20 52  1  0
 22 53  1  0
 22 54  1  0
 22 55  1  0
 26 56  1  0
 26 57  1  0
 26 58  1  0
 27 59  1  0
 28 60  1  0
 28 61  1  0
 29 62  1  0
 29 63  1  0
 30 64  1  1
 31 65  1  6
 32 66  1  0
 32 67  1  0
M  END
$$$$
