PDB_DB05812_90
     RDKit          3D

 57 61  0  0  0  0  0  0  0  0999 V2000
   31.4010   76.2670   33.0310 C   0  0  0  0  0  0  0  0  0  0  0  0
   30.7530   77.4400   32.3080 C   0  0  0  0  0  0  0  0  0  0  0  0
   31.2650   77.4650   30.8720 C   0  0  2  0  0  0  0  0  0  0  0  0
   30.8700   78.6560   30.1780 O   0  0  0  0  0  0  0  0  0  0  0  0
   30.7240   76.2470   30.1510 C   0  0  0  0  0  0  0  0  0  0  0  0
   31.1300   74.9870   30.8830 C   0  0  0  0  0  0  0  0  0  0  0  0
   31.5660   73.9680   30.1190 C   0  0  0  0  0  0  0  0  0  0  0  0
   32.0900   72.6620   30.6540 C   0  0  0  0  0  0  0  0  0  0  0  0
   31.8040   72.5200   32.1400 C   0  0  2  0  0  0  0  0  0  0  0  0
   31.9660   73.8260   32.9250 C   0  0  1  0  0  0  0  0  0  0  0  0
   31.0250   74.9220   32.3970 C   0  0  1  0  0  0  0  0  0  0  0  0
   31.8860   73.6430   34.4650 C   0  0  0  0  0  0  0  0  0  0  0  0
   32.4840   72.3500   35.0470 C   0  0  0  0  0  0  0  0  0  0  0  0
   32.2780   71.1270   34.1600 C   0  0  1  0  0  0  0  0  0  0  0  0
   32.7630   71.5350   32.7850 C   0  0  1  0  0  0  0  0  0  0  0  0
   33.0950   70.2590   32.0350 C   0  0  0  0  0  0  0  0  0  0  0  0
   33.7790   69.4660   33.1300 C   0  0  0  0  0  0  0  0  0  0  0  0
   33.0030   69.7840   34.4290 C   0  0  0  0  0  0  0  0  0  0  0  0
   30.7990   70.7750   34.1690 C   0  0  0  0  0  0  0  0  0  0  0  0
   29.5540   74.6430   32.7260 C   0  0  0  0  0  0  0  0  0  0  0  0
   33.7700   69.5960   35.7210 C   0  0  0  0  0  0  0  0  0  0  0  0
   34.9990   68.9460   35.7370 C   0  0  0  0  0  0  0  0  0  0  0  0
   35.6810   68.7360   36.8680 N   0  0  0  0  0  0  0  0  0  0  0  0
   35.1890   69.1290   38.0460 C   0  0  0  0  0  0  0  0  0  0  0  0
   33.9660   69.7650   38.1080 C   0  0  0  0  0  0  0  0  0  0  0  0
   33.2490   69.9800   36.9500 C   0  0  0  0  0  0  0  0  0  0  0  0
   32.4939   76.3852   32.9910 H   0  0  0  0  0  0  0  0  0  0  0  0
   31.0384   76.2660   34.0695 H   0  0  0  0  0  0  0  0  0  0  0  0
   29.6597   77.3191   32.3102 H   0  0  0  0  0  0  0  0  0  0  0  0
   31.0068   78.3825   32.8153 H   0  0  0  0  0  0  0  0  0  0  0  0
   32.3647   77.4532   30.8925 H   0  0  0  0  0  0  0  0  0  0  0  0
   30.6369   79.3589   30.8351 H   0  0  0  0  0  0  0  0  0  0  0  0
   29.6264   76.3062   30.1098 H   0  0  0  0  0  0  0  0  0  0  0  0
   31.1357   76.2197   29.1313 H   0  0  0  0  0  0  0  0  0  0  0  0
   31.5374   74.0988   29.0272 H   0  0  0  0  0  0  0  0  0  0  0  0
   31.6062   71.8340   30.1152 H   0  0  0  0  0  0  0  0  0  0  0  0
   33.1798   72.6382   30.5061 H   0  0  0  0  0  0  0  0  0  0  0  0
   30.7576   72.1841   32.1860 H   0  0  0  0  0  0  0  0  0  0  0  0
   32.9947   74.1705   32.7429 H   0  0  0  0  0  0  0  0  0  0  0  0
   32.4135   74.4901   34.9277 H   0  0  0  0  0  0  0  0  0  0  0  0
   30.8108   73.5872   34.6905 H   0  0  0  0  0  0  0  0  0  0  0  0
   33.5647   72.4994   35.1872 H   0  0  0  0  0  0  0  0  0  0  0  0
   31.9617   72.1519   35.9946 H   0  0  0  0  0  0  0  0  0  0  0  0
   33.6935   72.1215   32.7990 H   0  0  0  0  0  0  0  0  0  0  0  0
   32.1879   69.7529   31.6730 H   0  0  0  0  0  0  0  0  0  0  0  0
   33.6998   70.4044   31.1278 H   0  0  0  0  0  0  0  0  0  0  0  0
   34.6486   68.8010   33.0229 H   0  0  0  0  0  0  0  0  0  0  0  0
   30.4483   70.6915   35.2082 H   0  0  0  0  0  0  0  0  0  0  0  0
   30.2314   71.5631   33.6526 H   0  0  0  0  0  0  0  0  0  0  0  0
   30.6473   69.8157   33.6526 H   0  0  0  0  0  0  0  0  0  0  0  0
   29.4208   74.6177   33.8176 H   0  0  0  0  0  0  0  0  0  0  0  0
   28.9254   75.4379   32.2982 H   0  0  0  0  0  0  0  0  0  0  0  0
   29.2602   73.6731   32.2982 H   0  0  0  0  0  0  0  0  0  0  0  0
   35.4250   68.5923   34.7865 H   0  0  0  0  0  0  0  0  0  0  0  0
   35.7597   68.9453   38.9682 H   0  0  0  0  0  0  0  0  0  0  0  0
   33.5650   70.0988   39.0764 H   0  0  0  0  0  0  0  0  0  0  0  0
   32.2595   70.4580   36.9997 H   0  0  0  0  0  0  0  0  0  0  0  0
  1  2  1  0
  2  3  1  0
  3  4  1  0
  3  5  1  0
  5  6  1  0
  6  7  2  0
  7  8  1  0
  8  9  1  0
  9 10  1  0
  1 11  1  0
  6 11  1  0
 10 11  1  0
 10 12  1  0
 12 13  1  0
 13 14  1  0
  9 15  1  0
 14 15  1  0
 15 16  1  0
 16 17  1  0
 14 18  1  0
 17 18  2  0
 14 19  1  6
 11 20  1  6
 18 21  1  0
 21 22  2  0
 22 23  1  0
 24 23  2  0
 24 25  1  0
 21 26  1  0
 25 26  2  0
  1 27  1  0
  1 28  1  0
  2 29  1  0
  2 30  1  0
  3 31  1  1
  4 32  1  0
  5 33  1  0
  5 34  1  0
  7 35  1  0
  8 36  1  0
  8 37  1  0
  9 38  1  6
 10 39  1  1
 12 40  1  0
 12 41  1  0
 13 42  1  0
 13 43  1  0
 15 44  1  1
 16 45  1  0
 16 46  1  0
 17 47  1  0
 19 48  1  0
 19 49  1  0
 19 50  1  0
 20 51  1  0
 20 52  1  0
 20 53  1  0
 22 54  1  0
 24 55  1  0
 25 56  1  0
 26 57  1  0
M  END
$$$$
