PDB_DB04868_99
     RDKit          3D

 91 95  0  0  0  0  0  0  0  0999 V2000
  -43.7170   23.6320  -18.5490 O   0  0  0  0  0  0  0  0  0  0  0  0
  -43.7140   23.6950  -19.7730 C   0  0  1  0  0  0  0  0  0  0  0  0
  -43.2610   24.7760  -20.4800 N   0  0  0  0  0  0  0  0  0  0  0  0
  -42.7640   25.9970  -19.9780 C   0  0  1  0  0  0  0  0  0  0  0  0
  -42.9980   27.1850  -20.6870 C   0  0  0  0  0  0  0  0  0  0  0  0
  -42.4330   28.4060  -20.2490 C   0  0  0  0  0  0  0  0  0  0  0  0
  -42.7190   29.5640  -20.9290 N   0  0  0  0  0  0  0  0  0  0  0  0
  -42.8170   29.6910  -22.2440 C   0  0  0  0  0  0  0  0  0  0  0  0
  -43.1360   30.9630  -22.5520 C   0  0  0  0  0  0  0  0  0  0  0  0
  -43.3710   31.6240  -23.8840 C   0  0  0  0  0  0  0  0  0  0  0  0
  -43.2100   31.5760  -21.2580 N   0  0  0  0  0  0  0  0  0  0  0  0
  -42.9660   30.7220  -20.3780 C   0  0  0  0  0  0  0  0  0  0  0  0
  -41.6060   28.4050  -19.0940 C   0  0  0  0  0  0  0  0  0  0  0  0
  -41.9180   26.0110  -18.8550 C   0  0  0  0  0  0  0  0  0  0  0  0
  -41.3600   27.2120  -18.3750 C   0  0  0  0  0  0  0  0  0  0  0  0
  -40.4840   27.2000  -17.1050 C   0  0  1  0  0  0  0  0  0  0  0  0
  -39.7310   28.3190  -16.9530 F   0  0  0  0  0  0  0  0  0  0  0  0
  -41.2640   27.1110  -16.0010 F   0  0  0  0  0  0  0  0  0  0  0  0
  -39.6870   26.0950  -17.1120 F   0  0  0  0  0  0  0  0  0  0  0  0
  -44.1420   22.4630  -20.5440 C   0  0  1  0  0  0  0  0  0  0  0  0
  -44.0790   22.4100  -21.9460 C   0  0  0  0  0  0  0  0  0  0  0  0
  -44.3820   21.2290  -22.6360 C   0  0  0  0  0  0  0  0  0  0  0  0
  -44.7640   20.0780  -21.9350 C   0  0  0  0  0  0  0  0  0  0  0  0
  -45.1000   18.7980  -22.7120 C   0  0  0  0  0  0  0  0  0  0  0  0
  -44.8550   20.1280  -20.5340 C   0  0  2  0  0  0  0  0  0  0  0  0
  -44.4740   21.2900  -19.8450 C   0  0  0  0  0  0  0  0  0  0  0  0
  -45.1480   18.9950  -19.8540 N   0  0  0  0  0  0  0  0  0  0  0  0
  -46.1300   18.8090  -18.9620 C   0  0  0  0  0  0  0  0  0  0  0  0
  -47.1730   19.6570  -18.7920 N   0  0  0  0  0  0  0  0  0  0  0  0
  -48.1510   19.3610  -17.8900 C   0  0  0  0  0  0  0  0  0  0  0  0
  -48.0390   18.2270  -17.0650 C   0  0  0  0  0  0  0  0  0  0  0  0
  -46.9420   17.3680  -17.2830 C   0  0  0  0  0  0  0  0  0  0  0  0
  -46.0180   17.6990  -18.2130 N   0  0  0  0  0  0  0  0  0  0  0  0
  -46.7570   16.0860  -16.5700 C   0  0  0  0  0  0  0  0  0  0  0  0
  -47.7810   15.5860  -15.7430 C   0  0  0  0  0  0  0  0  0  0  0  0
  -47.6160   14.3660  -15.0790 C   0  0  0  0  0  0  0  0  0  0  0  0
  -46.4210   13.6650  -15.2810 C   0  0  0  0  0  0  0  0  0  0  0  0
  -45.4210   14.1830  -16.0430 N   0  0  0  0  0  0  0  0  0  0  0  0
  -45.5700   15.3530  -16.7100 C   0  0  0  0  0  0  0  0  0  0  0  0
  -43.6735   24.5461  -18.1714 H   0  0  0  0  0  0  0  0  0  0  0  0
  -44.7236   24.1312  -19.7530 H   0  0  0  0  0  0  0  0  0  0  0  0
  -42.4979   24.4044  -21.0635 H   0  0  0  0  0  0  0  0  0  0  0  0
  -41.8293   25.8468  -20.5381 H   0  0  0  0  0  0  0  0  0  0  0  0
  -42.6325   27.0180  -21.7110 H   0  0  0  0  0  0  0  0  0  0  0  0
  -44.0769   27.3477  -20.5476 H   0  0  0  0  0  0  0  0  0  0  0  0
  -41.5635   28.2377  -20.9014 H   0  0  0  0  0  0  0  0  0  0  0  0
  -41.8547   29.4317  -22.7097 H   0  0  0  0  0  0  0  0  0  0  0  0
  -43.6008   29.0165  -22.6190 H   0  0  0  0  0  0  0  0  0  0  0  0
  -42.0673   31.2157  -22.6151 H   0  0  0  0  0  0  0  0  0  0  0  0
  -43.7356   32.6496  -23.7251 H   0  0  0  0  0  0  0  0  0  0  0  0
  -42.4283   31.6536  -24.4501 H   0  0  0  0  0  0  0  0  0  0  0  0
  -44.1208   31.0518  -24.4501 H   0  0  0  0  0  0  0  0  0  0  0  0
  -42.5188   32.3374  -21.1987 H   0  0  0  0  0  0  0  0  0  0  0  0
  -43.8358   30.6288  -19.7111 H   0  0  0  0  0  0  0  0  0  0  0  0
  -42.0842   31.0411  -19.8031 H   0  0  0  0  0  0  0  0  0  0  0  0
  -40.6245   28.7866  -19.4119 H   0  0  0  0  0  0  0  0  0  0  0  0
  -42.1895   29.0027  -18.3783 H   0  0  0  0  0  0  0  0  0  0  0  0
  -42.4969   25.5824  -18.0236 H   0  0  0  0  0  0  0  0  0  0  0  0
  -41.0342   25.4639  -19.2148 H   0  0  0  0  0  0  0  0  0  0  0  0
  -42.2621   27.3898  -17.7712 H   0  0  0  0  0  0  0  0  0  0  0  0
  -45.1671   22.8573  -20.6050 H   0  0  0  0  0  0  0  0  0  0  0  0
  -44.7724   23.1778  -22.3199 H   0  0  0  0  0  0  0  0  0  0  0  0
  -43.0051   22.5392  -22.1458 H   0  0  0  0  0  0  0  0  0  0  0  0
  -45.2062   21.4678  -23.3242 H   0  0  0  0  0  0  0  0  0  0  0  0
  -43.4155   20.9430  -23.0766 H   0  0  0  0  0  0  0  0  0  0  0  0
  -45.8169   20.3908  -21.9951 H   0  0  0  0  0  0  0  0  0  0  0  0
  -45.3136   17.9843  -22.0033 H   0  0  0  0  0  0  0  0  0  0  0  0
  -45.9823   18.9741  -23.3448 H   0  0  0  0  0  0  0  0  0  0  0  0
  -44.2449   18.5181  -23.3448 H   0  0  0  0  0  0  0  0  0  0  0  0
  -45.8847   20.5134  -20.4997 H   0  0  0  0  0  0  0  0  0  0  0  0
  -43.5930   21.0233  -19.2427 H   0  0  0  0  0  0  0  0  0  0  0  0
  -45.3952   21.5734  -19.3148 H   0  0  0  0  0  0  0  0  0  0  0  0
  -45.3177   18.2874  -20.5830 H   0  0  0  0  0  0  0  0  0  0  0  0
  -45.5531   19.3678  -18.2104 H   0  0  0  0  0  0  0  0  0  0  0  0
  -46.7755   20.5652  -18.5125 H   0  0  0  0  0  0  0  0  0  0  0  0
  -48.2375   20.2303  -17.2216 H   0  0  0  0  0  0  0  0  0  0  0  0
  -49.0133   19.1193  -18.5288 H   0  0  0  0  0  0  0  0  0  0  0  0
  -47.9786   18.5809  -16.0252 H   0  0  0  0  0  0  0  0  0  0  0  0
  -48.9232   17.6181  -17.3048 H   0  0  0  0  0  0  0  0  0  0  0  0
  -47.5180   16.8266  -18.0479 H   0  0  0  0  0  0  0  0  0  0  0  0
  -45.9761   16.9088  -18.8724 H   0  0  0  0  0  0  0  0  0  0  0  0
  -46.3276   16.6249  -15.7125 H   0  0  0  0  0  0  0  0  0  0  0  0
  -47.9622   16.3460  -14.9687 H   0  0  0  0  0  0  0  0  0  0  0  0
  -48.5963   15.3778  -16.4514 H   0  0  0  0  0  0  0  0  0  0  0  0
  -47.6996   14.5664  -14.0006 H   0  0  0  0  0  0  0  0  0  0  0  0
  -48.3929   13.7138  -15.5046 H   0  0  0  0  0  0  0  0  0  0  0  0
  -45.9924   13.4856  -14.2840 H   0  0  0  0  0  0  0  0  0  0  0  0
  -46.7488   12.7977  -15.8728 H   0  0  0  0  0  0  0  0  0  0  0  0
  -44.6132   14.3072  -15.4162 H   0  0  0  0  0  0  0  0  0  0  0  0
  -45.4595   15.1261  -17.7807 H   0  0  0  0  0  0  0  0  0  0  0  0
  -44.8106   16.0058  -16.2549 H   0  0  0  0  0  0  0  0  0  0  0  0
  1  2  1  0
  2  3  1  0
  3  4  1  0
  4  5  1  0
  5  6  1  0
  6  7  1  0
  7  8  1  0
  8  9  1  0
  9 10  1  0
  9 11  1  0
  7 12  1  0
 11 12  1  0
  6 13  1  0
  4 14  1  0
 13 15  1  0
 14 15  1  0
 15 16  1  0
 16 17  1  1
 16 18  1  0
 16 19  1  0
  2 20  1  0
 20 21  1  0
 21 22  1  0
 22 23  1  0
 23 24  1  0
 23 25  1  0
 20 26  1  0
 25 26  1  0
 25 27  1  0
 27 28  1  0
 28 29  1  0
 29 30  1  0
 30 31  1  0
 31 32  1  0
 28 33  1  0
 32 33  1  0
 32 34  1  0
 34 35  1  0
 35 36  1  0
 36 37  1  0
 37 38  1  0
 34 39  1  0
 38 39  1  0
  1 40  1  0
  2 41  1  1
  3 42  1  0
  4 43  1  1
  5 44  1  0
  5 45  1  0
  6 46  1  0
  8 47  1  0
  8 48  1  0
  9 49  1  0
 10 50  1  0
 10 51  1  0
 10 52  1  0
 11 53  1  0
 12 54  1  0
 12 55  1  0
 13 56  1  0
 13 57  1  0
 14 58  1  0
 14 59  1  0
 15 60  1  0
 20 61  1  6
 21 62  1  0
 21 63  1  0
 22 64  1  0
 22 65  1  0
 23 66  1  0
 24 67  1  0
 24 68  1  0
 24 69  1  0
 25 70  1  6
 26 71  1  0
 26 72  1  0
 27 73  1  0
 28 74  1  0
 29 75  1  0
 30 76  1  0
 30 77  1  0
 31 78  1  0
 31 79  1  0
 32 80  1  0
 33 81  1  0
 34 82  1  0
 35 83  1  0
 35 84  1  0
 36 85  1  0
 36 86  1  0
 37 87  1  0
 37 88  1  0
 38 89  1  0
 39 90  1  0
 39 91  1  0
M  END
>  <PDBID>  (1) 
5MO4

>  <PDB ID>  (1) 
5MO4

>  <Generic Name>  (1) 
Nilotinib

>  <Brand Name>  (1) 
Tasigna

>  <DrugBank ID>  (1) 
DB04868

>  <ATC Codes>  (1) 
L01XE08

>  <Ligand ID>  (1) 
NIL

>  <Target Name>  (1) 
Tyrosine-protein kinase ABL1

>  <UniProt ID>  (1) 
P00519

>  <PDB ID.1>  (1) 
5MO4

>  <Seq. Identity>  (1) 
97%

$$$$
