PDB_DB00311_98
     RDKit          3D

 36 37  0  0  0  0  0  0  0  0999 V2000
   -5.4350   -0.3930   16.2740 N   0  0  0  0  0  0  0  0  0  0  0  0
   -3.6220    3.6100   15.2860 C   0  0  1  0  0  0  0  0  0  0  0  0
   -4.7550    4.2550   14.8040 C   0  0  1  0  0  0  0  0  0  0  0  0
   -4.6560    5.4720   14.0860 C   0  0  0  0  0  0  0  0  0  0  0  0
   -3.3160    5.8910   13.8480 C   0  0  0  0  0  0  0  0  0  0  0  0
   -1.8810    7.8730   13.1870 C   0  0  0  0  0  0  0  0  0  0  0  0
   -5.4950    1.0490   18.3050 O   0  0  0  0  0  0  0  0  0  0  0  0
   -7.3680    1.1190   16.7460 O   0  0  0  0  0  0  0  0  0  0  0  0
   -5.9750    0.9350   16.9030 S   0  0  2  0  0  4  0  0  0  0  0  0
   -5.2300    2.2940   16.0620 C   0  0  0  0  0  0  0  0  0  0  0  0
   -3.9160    2.4640   15.9490 N   0  0  0  0  0  0  0  0  0  0  0  0
   -6.1370    3.4830   15.3160 S   0  0  0  0  0  0  0  0  0  0  0  0
   -2.1750    5.2170   14.2850 C   0  0  0  0  0  0  0  0  0  0  0  0
   -2.2870    4.0090   14.9960 C   0  0  0  0  0  0  0  0  0  0  0  0
   -3.1140    7.0290   13.0770 O   0  0  0  0  0  0  0  0  0  0  0  0
   -1.6970    8.4610   14.6020 C   0  0  0  0  0  0  0  0  0  0  0  0
   -5.1696   -1.0457   17.0253 H   0  0  0  0  0  0  0  0  0  0  0  0
   -6.1691   -0.8203   15.6914 H   0  0  0  0  0  0  0  0  0  0  0  0
   -3.7009    4.1745   16.2268 H   0  0  0  0  0  0  0  0  0  0  0  0
   -4.8356    4.8173   15.7460 H   0  0  0  0  0  0  0  0  0  0  0  0
   -5.1570    5.3437   13.1151 H   0  0  0  0  0  0  0  0  0  0  0  0
   -5.1296    6.2486   14.7045 H   0  0  0  0  0  0  0  0  0  0  0  0
   -3.3314    6.4710   14.7826 H   0  0  0  0  0  0  0  0  0  0  0  0
   -1.0053    7.2528   12.9452 H   0  0  0  0  0  0  0  0  0  0  0  0
   -1.9850    8.7132   12.4847 H   0  0  0  0  0  0  0  0  0  0  0  0
   -6.2451    0.8709   18.9261 H   0  0  0  0  0  0  0  0  0  0  0  0
   -7.7959    1.1755   17.6370 H   0  0  0  0  0  0  0  0  0  0  0  0
   -5.2240    2.8705   16.9988 H   0  0  0  0  0  0  0  0  0  0  0  0
   -3.5178    1.6664   15.4331 H   0  0  0  0  0  0  0  0  0  0  0  0
   -1.5745    5.0006   13.3891 H   0  0  0  0  0  0  0  0  0  0  0  0
   -1.7528    5.9051   15.0322 H   0  0  0  0  0  0  0  0  0  0  0  0
   -1.7485    4.1212   15.9486 H   0  0  0  0  0  0  0  0  0  0  0  0
   -1.8634    3.2274   14.3482 H   0  0  0  0  0  0  0  0  0  0  0  0
   -1.9373    7.6932   15.3522 H   0  0  0  0  0  0  0  0  0  0  0  0
   -0.6541    8.7862   14.7312 H   0  0  0  0  0  0  0  0  0  0  0  0
   -2.3685    9.3227   14.7312 H   0  0  0  0  0  0  0  0  0  0  0  0
  2  3  1  0
  3  4  1  0
  4  5  1  0
  1  9  1  0
  9  7  1  1
  8  9  1  0
  9 10  1  0
  2 11  1  0
 10 11  1  0
  3 12  1  0
 10 12  1  0
  5 13  1  0
  2 14  1  0
 13 14  1  0
  5 15  1  0
  6 15  1  0
  6 16  1  0
  1 17  1  0
  1 18  1  0
  2 19  1  1
  3 20  1  6
  4 21  1  0
  4 22  1  0
  5 23  1  0
  6 24  1  0
  6 25  1  0
  7 26  1  0
  8 27  1  0
 10 28  1  0
 11 29  1  0
 13 30  1  0
 13 31  1  0
 14 32  1  0
 14 33  1  0
 16 34  1  0
 16 35  1  0
 16 36  1  0
M  END
>  <PDBID>  (1) 
3DCW

>  <PDB ID>  (1) 
3DCW

>  <Generic Name>  (1) 
Ethoxzolamide

>  <Brand Name>  (1) 
Cardrase#Ethamide

>  <DrugBank ID>  (1) 
DB00311

>  <ATC Codes>  (1) 
nan

>  <Ligand ID>  (1) 
EZL

>  <Target Name>  (1) 
Carbonic anhydrase 1

>  <UniProt ID>  (1) 
P00915

>  <PDB ID.1>  (1) 
3DCW

>  <Seq. Identity>  (1) 
61%

$$$$
