PDB_DB00696_96
     RDKit          3D

 78 85  0  0  0  0  0  0  0  0999 V2000
   19.0050  -68.2620   77.8350 C   0  0  0  0  0  0  0  0  0  0  0  0
   20.2730  -68.0670   78.3190 N   0  0  0  0  0  0  0  0  0  0  0  0
   15.0290  -66.6090   84.5470 O   0  0  0  0  0  0  0  0  0  0  0  0
   19.3600  -67.4800   82.2850 C   0  0  0  0  0  0  0  0  0  0  0  0
   20.7150  -67.4280   81.9550 C   0  0  0  0  0  0  0  0  0  0  0  0
   21.1550  -67.5870   80.6440 C   0  0  0  0  0  0  0  0  0  0  0  0
   20.1990  -67.8230   79.6650 C   0  0  0  0  0  0  0  0  0  0  0  0
   18.8470  -67.8790   80.0030 C   0  0  0  0  0  0  0  0  0  0  0  0
   13.8090  -66.9950   79.4470 C   0  0  0  0  0  0  0  0  0  0  0  0
   14.6140  -67.7220   84.2150 C   0  0  0  0  0  0  0  0  0  0  0  0
   13.5620  -68.1660   86.3950 C   0  0  2  0  0  0  0  0  0  0  0  0
   14.7830  -67.7480   87.2200 C   0  0  0  0  0  0  0  0  0  0  0  0
   15.5100  -65.7300   88.4150 C   0  0  2  0  0  0  0  0  0  0  0  0
   14.6510  -67.7090   80.4190 N   0  0  0  0  0  0  0  0  0  0  0  0
   18.0950  -68.1500   78.8460 C   0  0  0  0  0  0  0  0  0  0  0  0
   12.7230  -67.0000   86.4280 O   0  0  0  0  0  0  0  0  0  0  0  0
   14.7690  -64.8330   89.3750 C   0  0  0  0  0  0  0  0  0  0  0  0
   12.5890  -64.0550   90.2170 C   0  0  0  0  0  0  0  0  0  0  0  0
   11.4350  -63.6030   89.3630 C   0  0  0  0  0  0  0  0  0  0  0  0
   11.4210  -64.4720   88.1220 C   0  0  0  0  0  0  0  0  0  0  0  0
   12.5440  -65.4950   88.3230 C   0  0  1  0  0  0  0  0  0  0  0  0
   13.3460  -65.9070   87.1120 C   0  0  1  0  0  0  0  0  0  0  0  0
   12.8480  -69.3300   87.0490 C   0  0  0  0  0  0  0  0  0  0  0  0
   16.6420  -64.9960   87.6890 C   0  0  0  0  0  0  0  0  0  0  0  0
   17.8780  -64.9650   88.5480 C   0  0  0  0  0  0  0  0  0  0  0  0
   18.4350  -66.1370   89.0480 C   0  0  0  0  0  0  0  0  0  0  0  0
   16.5980  -68.2180   78.9570 C   0  0  0  0  0  0  0  0  0  0  0  0
   13.9060  -68.5200   85.0350 N   0  0  0  0  0  0  0  0  0  0  0  0
   15.7540  -68.4370   87.4690 O   0  0  0  0  0  0  0  0  0  0  0  0
   19.6780  -66.1240   89.6640 C   0  0  0  0  0  0  0  0  0  0  0  0
   20.3750  -64.9380   89.7950 C   0  0  0  0  0  0  0  0  0  0  0  0
   19.8190  -63.7640   89.3250 C   0  0  0  0  0  0  0  0  0  0  0  0
   18.5730  -63.7760   88.7230 C   0  0  0  0  0  0  0  0  0  0  0  0
   16.1060  -67.4620   80.2080 C   0  0  2  0  0  0  0  0  0  0  0  0
   14.5990  -66.4790   87.5760 N   0  0  0  0  0  0  0  0  0  0  0  0
   15.3940  -64.1790   90.1890 O   0  0  0  0  0  0  0  0  0  0  0  0
   14.2150  -67.3550   81.7740 C   0  0  0  0  0  0  0  0  0  0  0  0
   13.4170  -64.8230   89.2960 N   0  0  0  0  0  0  0  0  0  0  0  0
   13.5260  -64.8170   86.2810 O   0  0  0  0  0  0  0  0  0  0  0  0
   14.8590  -68.2800   82.8070 C   0  0  1  0  0  0  0  0  0  0  0  0
   16.3470  -68.2810   82.5840 C   0  0  0  0  0  0  0  0  0  0  0  0
   16.9190  -67.8270   81.4660 C   0  0  0  0  0  0  0  0  0  0  0  0
   18.3900  -67.7080   81.3090 C   0  0  0  0  0  0  0  0  0  0  0  0
   18.7573  -68.4773   76.7851 H   0  0  0  0  0  0  0  0  0  0  0  0
   21.1389  -68.0988   77.7621 H   0  0  0  0  0  0  0  0  0  0  0  0
   19.0520  -67.3389   83.3315 H   0  0  0  0  0  0  0  0  0  0  0  0
   21.4543  -67.2570   82.7514 H   0  0  0  0  0  0  0  0  0  0  0  0
   22.2241  -67.5277   80.3920 H   0  0  0  0  0  0  0  0  0  0  0  0
   13.0764  -66.3738   79.9831 H   0  0  0  0  0  0  0  0  0  0  0  0
   14.4413  -66.3536   78.8155 H   0  0  0  0  0  0  0  0  0  0  0  0
   13.2796  -67.7236   78.8155 H   0  0  0  0  0  0  0  0  0  0  0  0
   16.0395  -66.5014   88.9934 H   0  0  0  0  0  0  0  0  0  0  0  0
   13.1427  -63.1929   90.6172 H   0  0  0  0  0  0  0  0  0  0  0  0
   12.2695  -64.6389   91.0928 H   0  0  0  0  0  0  0  0  0  0  0  0
   10.4906  -63.7204   89.9147 H   0  0  0  0  0  0  0  0  0  0  0  0
   11.5443  -62.5423   89.0928 H   0  0  0  0  0  0  0  0  0  0  0  0
   10.4512  -64.9812   88.0207 H   0  0  0  0  0  0  0  0  0  0  0  0
   11.5696  -63.8786   87.2078 H   0  0  0  0  0  0  0  0  0  0  0  0
   12.1020  -66.4548   88.6287 H   0  0  0  0  0  0  0  0  0  0  0  0
   12.9093  -69.2300   88.1427 H   0  0  0  0  0  0  0  0  0  0  0  0
   11.7924  -69.3332   86.7397 H   0  0  0  0  0  0  0  0  0  0  0  0
   13.3236  -70.2724   86.7397 H   0  0  0  0  0  0  0  0  0  0  0  0
   16.8674  -65.5174   86.7470 H   0  0  0  0  0  0  0  0  0  0  0  0
   16.3242  -63.9637   87.4808 H   0  0  0  0  0  0  0  0  0  0  0  0
   17.8841  -67.0845   88.9541 H   0  0  0  0  0  0  0  0  0  0  0  0
   16.1491  -67.7636   78.0614 H   0  0  0  0  0  0  0  0  0  0  0  0
   16.2986  -69.2730   79.0425 H   0  0  0  0  0  0  0  0  0  0  0  0
   13.5919  -69.4325   84.6749 H   0  0  0  0  0  0  0  0  0  0  0  0
   20.1096  -67.0597   90.0489 H   0  0  0  0  0  0  0  0  0  0  0  0
   21.3668  -64.9288   90.2707 H   0  0  0  0  0  0  0  0  0  0  0  0
   20.3684  -62.8168   89.4296 H   0  0  0  0  0  0  0  0  0  0  0  0
   18.1274  -62.8311   88.3786 H   0  0  0  0  0  0  0  0  0  0  0  0
   16.2620  -66.3875   80.0318 H   0  0  0  0  0  0  0  0  0  0  0  0
   14.5069  -66.3162   81.9876 H   0  0  0  0  0  0  0  0  0  0  0  0
   13.1220  -67.4639   81.8340 H   0  0  0  0  0  0  0  0  0  0  0  0
   13.6604  -64.0032   86.8285 H   0  0  0  0  0  0  0  0  0  0  0  0
   14.4334  -69.2896   82.7091 H   0  0  0  0  0  0  0  0  0  0  0  0
   16.9952  -68.6749   83.3807 H   0  0  0  0  0  0  0  0  0  0  0  0
  1  2  1  0
  4  5  2  0
  5  6  1  0
  2  7  1  0
  6  7  2  0
  7  8  1  0
  3 10  2  0
 11 12  1  0
  9 14  1  0
  1 15  2  0
  8 15  1  0
 11 16  1  0
 13 17  1  0
 18 19  1  0
 19 20  1  0
 20 21  1  0
 16 22  1  0
 21 22  1  0
 11 23  1  0
 13 24  1  0
 24 25  1  0
 25 26  2  0
 15 27  1  0
 10 28  1  0
 11 28  1  6
 12 29  2  0
 26 30  1  0
 30 31  2  0
 31 32  1  0
 25 33  1  0
 32 33  2  0
 14 34  1  0
 27 34  1  0
 12 35  1  0
 13 35  1  0
 22 35  1  0
 17 36  2  0
 14 37  1  0
 17 38  1  0
 18 38  1  0
 21 38  1  0
 22 39  1  6
 10 40  1  0
 37 40  1  0
 40 41  1  0
 34 42  1  0
 41 42  2  0
  4 43  1  0
  8 43  2  0
 42 43  1  0
  1 44  1  0
  2 45  1  0
  4 46  1  0
  5 47  1  0
  6 48  1  0
  9 49  1  0
  9 50  1  0
  9 51  1  0
 13 52  1  1
 18 53  1  0
 18 54  1  0
 19 55  1  0
 19 56  1  0
 20 57  1  0
 20 58  1  0
 21 59  1  1
 23 60  1  0
 23 61  1  0
 23 62  1  0
 24 63  1  0
 24 64  1  0
 26 65  1  0
 27 66  1  0
 27 67  1  0
 28 68  1  0
 30 69  1  0
 31 70  1  0
 32 71  1  0
 33 72  1  0
 34 73  1  6
 37 74  1  0
 37 75  1  0
 39 76  1  0
 40 77  1  1
 41 78  1  0
M  END
$$$$
