PDB_DB00398_96
     RDKit          3D

 70 72  0  0  0  0  0  0  0  0999 V2000
   25.0080   11.0150  -12.7600 C   0  0  0  0  0  0  0  0  0  0  0  0
   25.8970   10.4170  -11.8790 C   0  0  0  0  0  0  0  0  0  0  0  0
   25.4420    9.5260  -10.9240 C   0  0  0  0  0  0  0  0  0  0  0  0
   24.0990    9.2440  -10.8590 C   0  0  0  0  0  0  0  0  0  0  0  0
   27.8030   11.8660  -12.2500 C   0  0  0  0  0  0  0  0  0  0  0  0
   29.9870   13.0080  -12.5190 C   0  0  1  0  0  0  0  0  0  0  0  0
   29.5600   14.3080  -12.2630 C   0  0  0  0  0  0  0  0  0  0  0  0
   30.4060   15.3790  -12.4880 C   0  0  0  0  0  0  0  0  0  0  0  0
   31.6960   15.1510  -12.9420 C   0  0  0  0  0  0  0  0  0  0  0  0
   32.1340   13.8530  -13.1660 C   0  0  0  0  0  0  0  0  0  0  0  0
   31.2940   12.7830  -12.9570 C   0  0  0  0  0  0  0  0  0  0  0  0
   32.5560   16.1860  -13.1360 O   0  0  0  0  0  0  0  0  0  0  0  0
   31.6790   17.1410  -15.2040 C   0  0  0  0  0  0  0  0  0  0  0  0
   31.5100   18.2860  -15.9760 C   0  0  0  0  0  0  0  0  0  0  0  0
   32.5500   19.5980  -14.3970 C   0  0  1  0  0  0  0  0  0  0  0  0
   32.7590   18.5050  -13.5660 C   0  0  0  0  0  0  0  0  0  0  0  0
   32.8370   22.0390  -14.5740 N   0  0  0  0  0  0  0  0  0  0  0  0
   33.2810   23.2760  -13.9330 C   0  0  0  0  0  0  0  0  0  0  0  0
   23.2330    9.8580  -11.7510 C   0  0  0  0  0  0  0  0  0  0  0  0
   23.6680   10.7510  -12.6970 C   0  0  0  0  0  0  0  0  0  0  0  0
   22.7050   11.3970  -13.6660 C   0  0  1  0  0  0  0  0  0  0  0  0
   23.3680   12.2610  -14.5310 F   0  0  0  0  0  0  0  0  0  0  0  0
   22.1900   10.3890  -14.4900 F   0  0  0  0  0  0  0  0  0  0  0  0
   21.7080   12.1270  -12.9850 F   0  0  0  0  0  0  0  0  0  0  0  0
   21.5470    9.5350  -11.6640 Cl  0  0  0  0  0  0  0  0  0  0  0  0
   27.2570   10.6700  -11.9580 N   0  0  0  0  0  0  0  0  0  0  0  0
   29.1590   11.8990  -12.2770 N   0  0  0  0  0  0  0  0  0  0  0  0
   27.1050   12.8430  -12.4700 O   0  0  0  0  0  0  0  0  0  0  0  0
   32.3170   17.2470  -13.9600 C   0  0  0  0  0  0  0  0  0  0  0  0
   31.9250   19.4700  -15.5630 N   0  0  0  0  0  0  0  0  0  0  0  0
   32.9950   20.9100  -13.8920 C   0  0  1  0  0  0  0  0  0  0  0  0
   33.4680   20.9730  -12.7820 O   0  0  0  0  0  0  0  0  0  0  0  0
   25.1191   12.1012  -12.6269 H   0  0  0  0  0  0  0  0  0  0  0  0
   25.2952   10.5769  -13.7273 H   0  0  0  0  0  0  0  0  0  0  0  0
   25.7549   11.2475  -11.1719 H   0  0  0  0  0  0  0  0  0  0  0  0
   25.9628    8.5730  -11.0989 H   0  0  0  0  0  0  0  0  0  0  0  0
   25.6501   10.0339   -9.9707 H   0  0  0  0  0  0  0  0  0  0  0  0
   23.9916    8.1587  -11.0028 H   0  0  0  0  0  0  0  0  0  0  0  0
   23.7951    9.6468   -9.8816 H   0  0  0  0  0  0  0  0  0  0  0  0
   27.8181   12.1204  -11.1799 H   0  0  0  0  0  0  0  0  0  0  0  0
   29.6537   13.1041  -13.5629 H   0  0  0  0  0  0  0  0  0  0  0  0
   28.6672   14.4751  -12.8834 H   0  0  0  0  0  0  0  0  0  0  0  0
   29.4320   14.3173  -11.1705 H   0  0  0  0  0  0  0  0  0  0  0  0
   29.9148   16.0228  -13.2325 H   0  0  0  0  0  0  0  0  0  0  0  0
   30.5584   15.8008  -11.4836 H   0  0  0  0  0  0  0  0  0  0  0  0
   32.0513   15.0915  -11.9027 H   0  0  0  0  0  0  0  0  0  0  0  0
   32.4487   13.8047  -14.2189 H   0  0  0  0  0  0  0  0  0  0  0  0
   32.9033   13.7163  -12.3917 H   0  0  0  0  0  0  0  0  0  0  0  0
   31.7764   12.1399  -12.2062 H   0  0  0  0  0  0  0  0  0  0  0  0
   31.1591   12.3610  -13.9638 H   0  0  0  0  0  0  0  0  0  0  0  0
   30.6770   16.7271  -15.0179 H   0  0  0  0  0  0  0  0  0  0  0  0
   32.3648   16.5206  -15.7997 H   0  0  0  0  0  0  0  0  0  0  0  0
   32.0229   18.0941  -16.9300 H   0  0  0  0  0  0  0  0  0  0  0  0
   30.4168   18.4085  -15.9764 H   0  0  0  0  0  0  0  0  0  0  0  0
   33.5132   19.4057  -14.8922 H   0  0  0  0  0  0  0  0  0  0  0  0
   33.8448   18.4269  -13.4083 H   0  0  0  0  0  0  0  0  0  0  0  0
   32.1400   18.7303  -12.6850 H   0  0  0  0  0  0  0  0  0  0  0  0
   31.8325   22.1394  -14.7782 H   0  0  0  0  0  0  0  0  0  0  0  0
   33.2387   23.1583  -12.8401 H   0  0  0  0  0  0  0  0  0  0  0  0
   34.3145   23.4967  -14.2383 H   0  0  0  0  0  0  0  0  0  0  0  0
   32.6238   24.1036  -14.2383 H   0  0  0  0  0  0  0  0  0  0  0  0
   23.0855   10.6837  -11.0394 H   0  0  0  0  0  0  0  0  0  0  0  0
   23.7964    9.9277  -13.4151 H   0  0  0  0  0  0  0  0  0  0  0  0
   27.6388   10.4109  -11.0371 H   0  0  0  0  0  0  0  0  0  0  0  0
   29.4480   11.5533  -11.3508 H   0  0  0  0  0  0  0  0  0  0  0  0
   26.8185   13.2440  -11.6114 H   0  0  0  0  0  0  0  0  0  0  0  0
   33.2910   17.0889  -14.4461 H   0  0  0  0  0  0  0  0  0  0  0  0
   32.5700   19.8242  -16.2837 H   0  0  0  0  0  0  0  0  0  0  0  0
   33.9757   20.7602  -14.3671 H   0  0  0  0  0  0  0  0  0  0  0  0
   32.7472   20.8770  -12.1102 H   0  0  0  0  0  0  0  0  0  0  0  0
  1  2  1  0
  2  3  1  0
  3  4  1  0
  6  7  1  0
  7  8  1  0
  8  9  1  0
  9 10  1  0
  6 11  1  0
 10 11  1  0
  9 12  1  0
 13 14  1  0
 15 16  1  0
 17 18  1  0
  4 19  1  0
  1 20  1  0
 19 20  1  0
 20 21  1  0
 21 22  1  6
 21 23  1  0
 21 24  1  0
 19 25  1  0
  2 26  1  0
  5 26  1  0
  5 27  1  0
  6 27  1  0
  5 28  1  0
 12 29  1  0
 13 29  1  0
 16 29  1  0
 14 30  1  0
 15 30  1  0
 15 31  1  0
 17 31  1  0
 31 32  1  0
  1 33  1  0
  1 34  1  0
  2 35  1  0
  3 36  1  0
  3 37  1  0
  4 38  1  0
  4 39  1  0
  5 40  1  0
  6 41  1  6
  7 42  1  0
  7 43  1  0
  8 44  1  0
  8 45  1  0
  9 46  1  0
 10 47  1  0
 10 48  1  0
 11 49  1  0
 11 50  1  0
 13 51  1  0
 13 52  1  0
 14 53  1  0
 14 54  1  0
 15 55  1  6
 16 56  1  0
 16 57  1  0
 17 58  1  0
 18 59  1  0
 18 60  1  0
 18 61  1  0
 19 62  1  0
 20 63  1  0
 26 64  1  0
 27 65  1  0
 28 66  1  0
 29 67  1  0
 30 68  1  0
 31 69  1  6
 32 70  1  0
M  END
>  <PDBID>  (1) 
5HI2

>  <PDB ID>  (1) 
5HI2

>  <Generic Name>  (1) 
Sorafenib

>  <Brand Name>  (1) 
Nexavar

>  <DrugBank ID>  (1) 
DB00398

>  <ATC Codes>  (1) 
L01XE05

>  <Ligand ID>  (1) 
BAX

>  <Target Name>  (1) 
Vascular endothelial growth factor receptor 1

>  <UniProt ID>  (1) 
P17948

>  <PDB ID.1>  (1) 
5HI2

>  <Seq. Identity>  (1) 
32%

$$$$
