PDB_DB00783_89
     RDKit          3D

 44 47  0  0  0  0  0  0  0  0999 V2000
  -21.8540   15.8010   43.1070 C   0  0  0  0  0  0  0  0  0  0  0  0
  -22.4600   16.8550   43.7980 C   0  0  0  0  0  0  0  0  0  0  0  0
  -22.4500   18.1610   43.3010 C   0  0  0  0  0  0  0  0  0  0  0  0
  -23.0630   19.1490   44.0230 O   0  0  0  0  0  0  0  0  0  0  0  0
  -21.8590   18.4480   42.0740 C   0  0  0  0  0  0  0  0  0  0  0  0
  -21.2420   17.4310   41.3420 C   0  0  0  0  0  0  0  0  0  0  0  0
  -20.5880   17.7540   40.0130 C   0  0  0  0  0  0  0  0  0  0  0  0
  -19.6310   16.6750   39.5470 C   0  0  0  0  0  0  0  0  0  0  0  0
  -20.3160   15.3230   39.6500 C   0  0  2  0  0  0  0  0  0  0  0  0
  -20.5600   14.9380   41.1170 C   0  0  1  0  0  0  0  0  0  0  0  0
  -21.2500   16.0310   41.8680 C   0  0  0  0  0  0  0  0  0  0  0  0
  -21.2480   13.5780   41.2400 C   0  0  0  0  0  0  0  0  0  0  0  0
  -20.4750   12.4810   40.4900 C   0  0  0  0  0  0  0  0  0  0  0  0
  -20.2010   12.8650   39.0350 C   0  0  1  0  0  0  0  0  0  0  0  0
  -19.4940   14.2100   39.0130 C   0  0  1  0  0  0  0  0  0  0  0  0
  -19.0080   14.3590   37.5830 C   0  0  0  0  0  0  0  0  0  0  0  0
  -18.6890   12.9230   37.1520 C   0  0  0  0  0  0  0  0  0  0  0  0
  -19.1740   12.0210   38.2890 C   0  0  2  0  0  0  0  0  0  0  0  0
  -19.6460   10.7570   37.7890 O   0  0  0  0  0  0  0  0  0  0  0  0
  -21.5290   12.8610   38.2850 C   0  0  0  0  0  0  0  0  0  0  0  0
  -21.8528   14.7895   43.5393 H   0  0  0  0  0  0  0  0  0  0  0  0
  -22.9574   16.6507   44.7576 H   0  0  0  0  0  0  0  0  0  0  0  0
  -23.0654   20.0797   43.6857 H   0  0  0  0  0  0  0  0  0  0  0  0
  -21.8778   19.4752   41.6810 H   0  0  0  0  0  0  0  0  0  0  0  0
  -21.3757   17.8754   39.2549 H   0  0  0  0  0  0  0  0  0  0  0  0
  -20.0038   18.6761   40.1489 H   0  0  0  0  0  0  0  0  0  0  0  0
  -19.3441   16.8637   38.5020 H   0  0  0  0  0  0  0  0  0  0  0  0
  -18.7297   16.6822   40.1776 H   0  0  0  0  0  0  0  0  0  0  0  0
  -21.2698   15.4277   39.1122 H   0  0  0  0  0  0  0  0  0  0  0  0
  -19.5799   14.8177   41.6016 H   0  0  0  0  0  0  0  0  0  0  0  0
  -21.3119   13.3055   42.3038 H   0  0  0  0  0  0  0  0  0  0  0  0
  -22.2500   13.6585   40.7934 H   0  0  0  0  0  0  0  0  0  0  0  0
  -19.5148   12.3118   40.9994 H   0  0  0  0  0  0  0  0  0  0  0  0
  -21.0919   11.5703   40.4904 H   0  0  0  0  0  0  0  0  0  0  0  0
  -18.6135   14.2823   39.6683 H   0  0  0  0  0  0  0  0  0  0  0  0
  -19.7924   14.7939   36.9461 H   0  0  0  0  0  0  0  0  0  0  0  0
  -18.1413   15.0308   37.4968 H   0  0  0  0  0  0  0  0  0  0  0  0
  -19.2173   12.6783   36.2187 H   0  0  0  0  0  0  0  0  0  0  0  0
  -17.6135   12.7894   36.9640 H   0  0  0  0  0  0  0  0  0  0  0  0
  -18.3801   11.7141   38.9858 H   0  0  0  0  0  0  0  0  0  0  0  0
  -19.8677   10.1633   38.5496 H   0  0  0  0  0  0  0  0  0  0  0  0
  -22.3583   12.8585   39.0077 H   0  0  0  0  0  0  0  0  0  0  0  0
  -21.5960   13.7589   37.6532 H   0  0  0  0  0  0  0  0  0  0  0  0
  -21.5906   11.9627   37.6532 H   0  0  0  0  0  0  0  0  0  0  0  0
  1  2  2  0
  2  3  1  0
  3  4  1  0
  3  5  2  0
  5  6  1  0
  6  7  1  0
  7  8  1  0
  8  9  1  0
  9 10  1  0
  1 11  1  0
  6 11  2  0
 10 11  1  0
 10 12  1  0
 12 13  1  0
 13 14  1  0
  9 15  1  0
 14 15  1  0
 15 16  1  0
 16 17  1  0
 14 18  1  0
 17 18  1  0
 18 19  1  0
 14 20  1  6
  1 21  1  0
  2 22  1  0
  4 23  1  0
  5 24  1  0
  7 25  1  0
  7 26  1  0
  8 27  1  0
  8 28  1  0
  9 29  1  6
 10 30  1  1
 12 31  1  0
 12 32  1  0
 13 33  1  0
 13 34  1  0
 15 35  1  1
 16 36  1  0
 16 37  1  0
 17 38  1  0
 17 39  1  0
 18 40  1  1
 19 41  1  0
 20 42  1  0
 20 43  1  0
 20 44  1  0
M  END
$$$$
