PDB_DB00307_99
     RDKit          3D

 54 56  0  0  0  0  0  0  0  0999 V2000
   57.0810    7.4250   40.5310 O   0  0  0  0  0  0  0  0  0  0  0  0
   58.0500    8.2040   40.4470 C   0  0  0  0  0  0  0  0  0  0  0  0
   58.1550    9.1540   41.2350 O   0  0  0  0  0  0  0  0  0  0  0  0
   59.0970    8.0240   39.3810 C   0  0  0  0  0  0  0  0  0  0  0  0
   59.9040    9.1060   39.0310 C   0  0  0  0  0  0  0  0  0  0  0  0
   59.2580    6.7940   38.7300 C   0  0  0  0  0  0  0  0  0  0  0  0
   60.2220    6.6360   37.7340 C   0  0  0  0  0  0  0  0  0  0  0  0
   61.0260    7.7180   37.3990 C   0  0  0  0  0  0  0  0  0  0  0  0
   60.8620    8.9460   38.0410 C   0  0  0  0  0  0  0  0  0  0  0  0
   62.0530    7.5640   36.3160 C   0  0  0  0  0  0  0  0  0  0  0  0
   62.0740    6.4320   35.6440 C   0  0  0  0  0  0  0  0  0  0  0  0
   63.0070    8.6860   35.9780 C   0  0  0  0  0  0  0  0  0  0  0  0
   64.4510    8.5300   36.2680 C   0  0  0  0  0  0  0  0  0  0  0  0
   64.9360    7.2790   36.9530 C   0  0  0  0  0  0  0  0  0  0  0  0
   65.3410    9.5390   35.9060 C   0  0  0  0  0  0  0  0  0  0  0  0
   62.5600    9.8480   35.3410 C   0  0  0  0  0  0  0  0  0  0  0  0
   63.4400   10.8670   34.9740 C   0  0  0  0  0  0  0  0  0  0  0  0
   62.9280   12.1270   34.2980 C   0  0  0  0  0  0  0  0  0  0  0  0
   61.9750   12.8400   35.2590 C   0  0  0  0  0  0  0  0  0  0  0  0
   62.2250   11.7790   32.9850 C   0  0  0  0  0  0  0  0  0  0  0  0
   64.0560   13.0850   33.9810 C   0  0  0  0  0  0  0  0  0  0  0  0
   65.2130   13.1420   34.9420 C   0  0  0  0  0  0  0  0  0  0  0  0
   65.8730   11.7720   34.8970 C   0  0  0  0  0  0  0  0  0  0  0  0
   64.8890   10.7000   35.2810 C   0  0  0  0  0  0  0  0  0  0  0  0
   66.3000   11.5120   33.4590 C   0  0  0  0  0  0  0  0  0  0  0  0
   67.0690   11.7170   35.8430 C   0  0  0  0  0  0  0  0  0  0  0  0
   56.9995    6.6665   39.9000 H   0  0  0  0  0  0  0  0  0  0  0  0
   59.7821   10.0762   39.5348 H   0  0  0  0  0  0  0  0  0  0  0  0
   58.6175    5.9437   39.0071 H   0  0  0  0  0  0  0  0  0  0  0  0
   60.3434    5.6700   37.2221 H   0  0  0  0  0  0  0  0  0  0  0  0
   61.4997    9.7967   37.7587 H   0  0  0  0  0  0  0  0  0  0  0  0
   62.8124    6.2817   34.8426 H   0  0  0  0  0  0  0  0  0  0  0  0
   61.3532    5.6365   35.8839 H   0  0  0  0  0  0  0  0  0  0  0  0
   64.8836    7.4142   38.0434 H   0  0  0  0  0  0  0  0  0  0  0  0
   64.3019    6.4300   36.6579 H   0  0  0  0  0  0  0  0  0  0  0  0
   65.9767    7.0793   36.6579 H   0  0  0  0  0  0  0  0  0  0  0  0
   66.4139    9.4178   36.1161 H   0  0  0  0  0  0  0  0  0  0  0  0
   61.4877    9.9616   35.1238 H   0  0  0  0  0  0  0  0  0  0  0  0
   62.2682   12.6206   36.2962 H   0  0  0  0  0  0  0  0  0  0  0  0
   62.0238   13.9252   35.0859 H   0  0  0  0  0  0  0  0  0  0  0  0
   60.9477   12.4869   35.0859 H   0  0  0  0  0  0  0  0  0  0  0  0
   61.2586   11.3006   33.2021 H   0  0  0  0  0  0  0  0  0  0  0  0
   62.0570   12.6980   32.4043 H   0  0  0  0  0  0  0  0  0  0  0  0
   62.8539   11.0881   32.4043 H   0  0  0  0  0  0  0  0  0  0  0  0
   64.4592   12.8043   32.9968 H   0  0  0  0  0  0  0  0  0  0  0  0
   63.5980   14.0836   34.0359 H   0  0  0  0  0  0  0  0  0  0  0  0
   65.9272   13.9193   34.6326 H   0  0  0  0  0  0  0  0  0  0  0  0
   64.8761   13.3904   35.9593 H   0  0  0  0  0  0  0  0  0  0  0  0
   67.2395   10.9399   33.4532 H   0  0  0  0  0  0  0  0  0  0  0  0
   65.5174   10.9370   32.9424 H   0  0  0  0  0  0  0  0  0  0  0  0
   66.4516   12.4712   32.9424 H   0  0  0  0  0  0  0  0  0  0  0  0
   66.7141   11.7333   36.8841 H   0  0  0  0  0  0  0  0  0  0  0  0
   67.6363   10.7918   35.6635 H   0  0  0  0  0  0  0  0  0  0  0  0
   67.7188   12.5862   35.6635 H   0  0  0  0  0  0  0  0  0  0  0  0
  1  2  1  0
  2  3  2  0
  2  4  1  0
  4  5  2  0
  4  6  1  0
  6  7  2  0
  7  8  1  0
  5  9  1  0
  8  9  2  0
  8 10  1  0
 10 11  2  3
 10 12  1  0
 12 13  2  0
 13 14  1  0
 13 15  1  0
 12 16  1  0
 16 17  2  0
 17 18  1  0
 18 19  1  0
 18 20  1  0
 18 21  1  0
 21 22  1  0
 22 23  1  0
 15 24  2  0
 17 24  1  0
 23 24  1  0
 23 25  1  0
 23 26  1  0
  1 27  1  0
  5 28  1  0
  6 29  1  0
  7 30  1  0
  9 31  1  0
 11 32  1  0
 11 33  1  0
 14 34  1  0
 14 35  1  0
 14 36  1  0
 15 37  1  0
 16 38  1  0
 19 39  1  0
 19 40  1  0
 19 41  1  0
 20 42  1  0
 20 43  1  0
 20 44  1  0
 21 45  1  0
 21 46  1  0
 22 47  1  0
 22 48  1  0
 25 49  1  0
 25 50  1  0
 25 51  1  0
 26 52  1  0
 26 53  1  0
 26 54  1  0
M  END
>  <PDBID>  (1) 
3H0A

>  <PDB ID>  (1) 
3H0A

>  <Generic Name>  (1) 
Bexarotene

>  <Brand Name>  (1) 
Bexarotene#Targretin

>  <DrugBank ID>  (1) 
DB00307

>  <ATC Codes>  (1) 
L01XX25

>  <Ligand ID>  (1) 
9RA

>  <Target Name>  (1) 
Retinoic acid receptor RXR-beta

>  <UniProt ID>  (1) 
P28702

>  <PDB ID.1>  (1) 
3H0A

>  <Seq. Identity>  (1) 
87%

$$$$
