PDB_DB06626_98
     RDKit          3D

 70 73  0  0  0  0  0  0  0  0999 V2000
  -26.0500   -1.5400   -9.1290 O   0  0  0  0  0  0  0  0  0  0  0  0
  -26.8130   -2.1120   -9.9250 C   0  0  0  0  0  0  0  0  0  0  0  0
  -27.7940   -2.9030   -9.4730 N   0  0  0  0  0  0  0  0  0  0  0  0
  -28.0620   -3.1670   -8.0660 C   0  0  0  0  0  0  0  0  0  0  0  0
  -26.6610   -1.9210  -11.4070 C   0  0  0  0  0  0  0  0  0  0  0  0
  -27.8430   -2.0160  -12.2280 C   0  0  0  0  0  0  0  0  0  0  0  0
  -27.7850   -1.8450  -13.6350 C   0  0  0  0  0  0  0  0  0  0  0  0
  -26.5390   -1.5730  -14.2630 C   0  0  0  0  0  0  0  0  0  0  0  0
  -25.3980   -1.6480  -12.0440 C   0  0  0  0  0  0  0  0  0  0  0  0
  -25.3620   -1.4780  -13.4740 C   0  0  0  0  0  0  0  0  0  0  0  0
  -23.9020   -1.5160  -11.1330 S   0  0  0  0  0  0  0  0  0  0  0  0
  -22.9590   -0.2700  -11.9050 C   0  0  0  0  0  0  0  0  0  0  0  0
  -21.5910   -0.5420  -12.2670 C   0  0  0  0  0  0  0  0  0  0  0  0
  -20.7750    0.4570  -12.8950 C   0  0  0  0  0  0  0  0  0  0  0  0
  -23.5120    1.0330  -12.1840 C   0  0  0  0  0  0  0  0  0  0  0  0
  -22.6840    2.0040  -12.8080 C   0  0  0  0  0  0  0  0  0  0  0  0
  -22.9180    3.3130  -13.1930 N   0  0  0  0  0  0  0  0  0  0  0  0
  -21.8720    3.8470  -13.7310 N   0  0  0  0  0  0  0  0  0  0  0  0
  -20.8950    3.0070  -13.7590 C   0  0  0  0  0  0  0  0  0  0  0  0
  -21.3640    1.7410  -13.1560 C   0  0  0  0  0  0  0  0  0  0  0  0
  -19.5650    3.3590  -14.3260 C   0  0  0  0  0  0  0  0  0  0  0  0
  -18.3340    2.7660  -13.9990 C   0  0  0  0  0  0  0  0  0  0  0  0
  -17.0050    3.1500  -14.5720 C   0  0  0  0  0  0  0  0  0  0  0  0
  -16.0980    2.1400  -14.7540 N   0  0  0  0  0  0  0  0  0  0  0  0
  -14.8630    2.4370  -15.2680 C   0  0  0  0  0  0  0  0  0  0  0  0
  -14.4730    3.7600  -15.6240 C   0  0  0  0  0  0  0  0  0  0  0  0
  -15.4110    4.8170  -15.4370 C   0  0  0  0  0  0  0  0  0  0  0  0
  -16.6980    4.5180  -14.9050 C   0  0  0  0  0  0  0  0  0  0  0  0
  -26.3259   -1.7468   -8.2010 H   0  0  0  0  0  0  0  0  0  0  0  0
  -26.1320   -2.9752   -9.9575 H   0  0  0  0  0  0  0  0  0  0  0  0
  -28.6659   -2.5051   -9.8505 H   0  0  0  0  0  0  0  0  0  0  0  0
  -27.4157   -2.5304   -7.4439 H   0  0  0  0  0  0  0  0  0  0  0  0
  -29.1166   -2.9452   -7.8457 H   0  0  0  0  0  0  0  0  0  0  0  0
  -27.8561   -4.2249   -7.8457 H   0  0  0  0  0  0  0  0  0  0  0  0
  -26.4898   -3.0008  -11.5286 H   0  0  0  0  0  0  0  0  0  0  0  0
  -28.2614   -3.0184  -12.0544 H   0  0  0  0  0  0  0  0  0  0  0  0
  -28.4240   -1.1387  -11.9075 H   0  0  0  0  0  0  0  0  0  0  0  0
  -28.1728   -2.7710  -14.0846 H   0  0  0  0  0  0  0  0  0  0  0  0
  -28.3621   -0.9239  -13.8039 H   0  0  0  0  0  0  0  0  0  0  0  0
  -26.3686   -2.3755  -14.9957 H   0  0  0  0  0  0  0  0  0  0  0  0
  -26.6669   -0.5544  -14.6581 H   0  0  0  0  0  0  0  0  0  0  0  0
  -25.2272   -2.7276  -12.1680 H   0  0  0  0  0  0  0  0  0  0  0  0
  -24.6679   -2.2393  -13.8595 H   0  0  0  0  0  0  0  0  0  0  0  0
  -25.0925   -0.4167  -13.5789 H   0  0  0  0  0  0  0  0  0  0  0  0
  -22.6269    0.0891  -10.9197 H   0  0  0  0  0  0  0  0  0  0  0  0
  -21.0742   -0.8284  -11.3392 H   0  0  0  0  0  0  0  0  0  0  0  0
  -21.6988   -1.2964  -13.0603 H   0  0  0  0  0  0  0  0  0  0  0  0
  -19.9028    0.6229  -12.2456 H   0  0  0  0  0  0  0  0  0  0  0  0
  -20.5561    0.0468  -13.8919 H   0  0  0  0  0  0  0  0  0  0  0  0
  -24.3837    0.8820  -12.8377 H   0  0  0  0  0  0  0  0  0  0  0  0
  -23.7177    1.4554  -11.1894 H   0  0  0  0  0  0  0  0  0  0  0  0
  -23.0178    1.6538  -13.7959 H   0  0  0  0  0  0  0  0  0  0  0  0
  -23.6889    3.3273  -13.8760 H   0  0  0  0  0  0  0  0  0  0  0  0
  -22.0971    4.1360  -14.6937 H   0  0  0  0  0  0  0  0  0  0  0  0
  -20.5661    3.3566  -12.7692 H   0  0  0  0  0  0  0  0  0  0  0  0
  -21.6947    1.3884  -14.1441 H   0  0  0  0  0  0  0  0  0  0  0  0
  -19.6707    3.2182  -15.4118 H   0  0  0  0  0  0  0  0  0  0  0  0
  -19.4225    4.3444  -13.8583 H   0  0  0  0  0  0  0  0  0  0  0  0
  -18.2296    2.8932  -12.9114 H   0  0  0  0  0  0  0  0  0  0  0  0
  -18.4663    1.7777  -14.4635 H   0  0  0  0  0  0  0  0  0  0  0  0
  -16.6155    3.3168  -13.5569 H   0  0  0  0  0  0  0  0  0  0  0  0
  -15.9443    1.7037  -13.8337 H   0  0  0  0  0  0  0  0  0  0  0  0
  -14.1323    2.0956  -14.5200 H   0  0  0  0  0  0  0  0  0  0  0  0
  -14.9079    1.9464  -16.2515 H   0  0  0  0  0  0  0  0  0  0  0  0
  -13.5815    4.0074  -15.0290 H   0  0  0  0  0  0  0  0  0  0  0  0
  -14.3296    3.7155  -16.7137 H   0  0  0  0  0  0  0  0  0  0  0  0
  -14.9436    5.5450  -14.7576 H   0  0  0  0  0  0  0  0  0  0  0  0
  -15.6243    5.1614  -16.4597 H   0  0  0  0  0  0  0  0  0  0  0  0
  -17.4402    4.8455  -15.6479 H   0  0  0  0  0  0  0  0  0  0  0  0
  -16.7167    5.0407  -13.9373 H   0  0  0  0  0  0  0  0  0  0  0  0
  1  2  1  0
  2  3  1  0
  3  4  1  0
  2  5  1  0
  5  6  1  0
  6  7  1  0
  7  8  1  0
  5  9  1  0
  8 10  1  0
  9 10  1  0
  9 11  1  0
 11 12  1  0
 12 13  1  0
 13 14  1  0
 12 15  1  0
 15 16  1  0
 16 17  1  0
 17 18  1  0
 18 19  1  0
 14 20  1  0
 16 20  1  0
 19 20  1  0
 19 21  1  0
 21 22  1  0
 22 23  1  0
 23 24  1  0
 24 25  1  0
 25 26  1  0
 26 27  1  0
 23 28  1  0
 27 28  1  0
  1 29  1  0
  2 30  1  0
  3 31  1  0
  4 32  1  0
  4 33  1  0
  4 34  1  0
  5 35  1  0
  6 36  1  0
  6 37  1  0
  7 38  1  0
  7 39  1  0
  8 40  1  0
  8 41  1  0
  9 42  1  0
 10 43  1  0
 10 44  1  0
 12 45  1  0
 13 46  1  0
 13 47  1  0
 14 48  1  0
 14 49  1  0
 15 50  1  0
 15 51  1  0
 16 52  1  0
 17 53  1  0
 18 54  1  0
 19 55  1  0
 20 56  1  0
 21 57  1  0
 21 58  1  0
 22 59  1  0
 22 60  1  0
 23 61  1  0
 24 62  1  0
 25 63  1  0
 25 64  1  0
 26 65  1  0
 26 66  1  0
 27 67  1  0
 27 68  1  0
 28 69  1  0
 28 70  1  0
M  END
>  <PDBID>  (1) 
4AGC

>  <PDB ID>  (1) 
4AGC

>  <Generic Name>  (1) 
Axitinib

>  <Brand Name>  (1) 
Inlyta

>  <DrugBank ID>  (1) 
DB06626

>  <ATC Codes>  (1) 
L01XE17

>  <Ligand ID>  (1) 
AXI

>  <Target Name>  (1) 
Vascular endothelial growth factor receptor 3

>  <UniProt ID>  (1) 
P35916

>  <PDB ID.1>  (1) 
4AGC

>  <Seq. Identity>  (1) 
66%

$$$$
