PDB_DB08912_98
     RDKit          3D

158164  0  0  0  0  0  0  0  0999 V2000
  -22.4790   11.1920   36.3390 C   0  0  0  0  0  0  0  0  0  0  0  0
  -20.9920   10.5430   38.0050 C   0  0  0  0  0  0  0  0  0  0  0  0
  -22.1580   11.0920   37.6200 N   0  0  0  0  0  0  0  0  0  0  0  0
  -20.1180   10.0520   37.0070 C   0  0  0  0  0  0  0  0  0  0  0  0
  -21.6570   10.7510   35.3740 N   0  0  0  0  0  0  0  0  0  0  0  0
  -20.4890   10.1850   35.6810 C   0  0  0  0  0  0  0  0  0  0  0  0
  -23.6830   11.7830   36.0110 N   0  0  0  0  0  0  0  0  0  0  0  0
  -20.7460   10.4630   39.4630 C   0  0  0  0  0  0  0  0  0  0  0  0
  -22.0960   10.6320   40.5920 S   0  0  0  0  0  0  0  0  0  0  0  0
  -21.0110   10.4230   41.8970 C   0  0  0  0  0  0  0  0  0  0  0  0
  -19.7930   10.2560   41.5000 N   0  0  0  0  0  0  0  0  0  0  0  0
  -19.5760   10.2650   40.2000 C   0  0  0  0  0  0  0  0  0  0  0  0
  -21.4350   10.4200   43.3350 C   0  0  1  0  0  0  0  0  0  0  0  0
  -20.4990   11.3180   44.1380 C   0  0  0  0  0  0  0  0  0  0  0  0
  -22.8840   10.8980   43.4550 C   0  0  0  0  0  0  0  0  0  0  0  0
  -21.3220    8.9740   43.8200 C   0  0  0  0  0  0  0  0  0  0  0  0
  -18.2100   10.0670   39.6470 C   0  0  0  0  0  0  0  0  0  0  0  0
  -16.2430    8.6960   39.3380 C   0  0  1  0  0  0  0  0  0  0  0  0
  -17.5230    8.8620   39.8520 C   0  0  0  0  0  0  0  0  0  0  0  0
  -15.6640    9.7100   38.5790 C   0  0  0  0  0  0  0  0  0  0  0  0
  -17.5930   11.0750   38.8980 C   0  0  0  0  0  0  0  0  0  0  0  0
  -16.3340   10.8930   38.3700 C   0  0  0  0  0  0  0  0  0  0  0  0
  -18.0620    7.8530   40.5710 F   0  0  0  0  0  0  0  0  0  0  0  0
  -15.6090    7.4610   39.5360 N   0  0  0  0  0  0  0  0  0  0  0  0
  -14.0180    7.1930   39.8560 S   0  0  1  0  0  4  0  0  0  0  0  0
  -13.4760    6.7270   38.2570 C   0  0  0  0  0  0  0  0  0  0  0  0
  -13.5440    5.1250   36.4500 C   0  0  0  0  0  0  0  0  0  0  0  0
  -13.9340    5.5280   37.7270 C   0  0  0  0  0  0  0  0  0  0  0  0
  -12.7080    5.9240   35.6940 C   0  0  0  0  0  0  0  0  0  0  0  0
  -12.6450    7.5340   37.4880 C   0  0  0  0  0  0  0  0  0  0  0  0
  -12.2580    7.1280   36.2120 C   0  0  0  0  0  0  0  0  0  0  0  0
  -12.2080    8.7130   37.9630 F   0  0  0  0  0  0  0  0  0  0  0  0
  -14.7530    4.7380   38.4460 F   0  0  0  0  0  0  0  0  0  0  0  0
  -13.4100    8.4190   40.2090 O   0  0  0  0  0  0  0  0  0  0  0  0
  -14.0010    6.0410   40.6740 O   0  0  0  0  0  0  0  0  0  0  0  0
  -20.5770   -3.2080   15.6960 C   0  0  0  0  0  0  0  0  0  0  0  0
  -18.7540   -2.5670   14.3720 C   0  0  1  0  0  0  0  0  0  0  0  0
  -19.9860   -3.1060   14.5090 N   0  0  0  0  0  0  0  0  0  0  0  0
  -18.1250   -2.0900   15.5400 C   0  0  0  0  0  0  0  0  0  0  0  0
  -19.9940   -2.7810   16.8110 N   0  0  0  0  0  0  0  0  0  0  0  0
  -18.7810   -2.2300   16.7510 C   0  0  0  0  0  0  0  0  0  0  0  0
  -21.8250   -3.7790   15.7720 N   0  0  0  0  0  0  0  0  0  0  0  0
  -18.1840   -2.4570   13.0010 C   0  0  1  0  0  0  0  0  0  0  0  0
  -19.2200   -2.6830   11.5880 S   0  0  0  0  0  0  0  0  0  0  0  0
  -17.9130   -2.3880   10.5460 C   0  0  0  0  0  0  0  0  0  0  0  0
  -16.8480   -2.1340   11.2050 N   0  0  0  0  0  0  0  0  0  0  0  0
  -16.9120   -2.1440   12.5200 C   0  0  0  0  0  0  0  0  0  0  0  0
  -18.0090   -2.3830    9.0550 C   0  0  1  0  0  0  0  0  0  0  0  0
  -16.8470   -3.1790    8.4700 C   0  0  0  0  0  0  0  0  0  0  0  0
  -19.3550   -2.9800    8.6050 C   0  0  0  0  0  0  0  0  0  0  0  0
  -17.8870   -0.9110    8.6560 C   0  0  0  0  0  0  0  0  0  0  0  0
  -15.6670   -1.8780   13.2820 C   0  0  0  0  0  0  0  0  0  0  0  0
  -13.7760   -0.4720   13.8650 C   0  0  1  0  0  0  0  0  0  0  0  0
  -14.9650   -0.6670   13.1530 C   0  0  0  0  0  0  0  0  0  0  0  0
  -13.3170   -1.4940   14.7100 C   0  0  0  0  0  0  0  0  0  0  0  0
  -15.1730   -2.8890   14.1150 C   0  0  0  0  0  0  0  0  0  0  0  0
  -14.0110   -2.6900   14.8320 C   0  0  0  0  0  0  0  0  0  0  0  0
  -15.4350    0.3140   12.3480 F   0  0  0  0  0  0  0  0  0  0  0  0
  -13.1100    0.7660   13.7720 N   0  0  0  0  0  0  0  0  0  0  0  0
  -11.4820    1.0750   13.8920 S   0  0  1  0  0  4  0  0  0  0  0  0
  -11.3140    1.4570   15.6030 C   0  0  0  0  0  0  0  0  0  0  0  0
  -11.7530    3.0050   17.4100 C   0  0  0  0  0  0  0  0  0  0  0  0
  -11.8370    2.6460   16.0690 C   0  0  0  0  0  0  0  0  0  0  0  0
  -11.1400    2.1540   18.3070 C   0  0  0  0  0  0  0  0  0  0  0  0
  -10.7050    0.6020   16.5120 C   0  0  0  0  0  0  0  0  0  0  0  0
  -10.6190    0.9480   17.8620 C   0  0  0  0  0  0  0  0  0  0  0  0
  -10.1960   -0.5650   16.0870 F   0  0  0  0  0  0  0  0  0  0  0  0
  -12.4200    3.4690   15.1980 F   0  0  0  0  0  0  0  0  0  0  0  0
  -10.7040   -0.0690   13.5790 O   0  0  0  0  0  0  0  0  0  0  0  0
  -11.3030    2.2930   13.1870 O   0  0  0  0  0  0  0  0  0  0  0  0
  -21.9991   12.1808   36.2959 H   0  0  0  0  0  0  0  0  0  0  0  0
  -21.4763    9.5572   38.0659 H   0  0  0  0  0  0  0  0  0  0  0  0
  -22.1693   12.0495   37.9995 H   0  0  0  0  0  0  0  0  0  0  0  0
  -19.1583   10.5754   37.1297 H   0  0  0  0  0  0  0  0  0  0  0  0
  -20.1019    8.9649   37.1743 H   0  0  0  0  0  0  0  0  0  0  0  0
  -22.1875   10.0550   34.8309 H   0  0  0  0  0  0  0  0  0  0  0  0
  -19.7066   10.7819   35.1895 H   0  0  0  0  0  0  0  0  0  0  0  0
  -20.6128    9.1450   35.3448 H   0  0  0  0  0  0  0  0  0  0  0  0
  -24.1895   12.0316   36.8727 H   0  0  0  0  0  0  0  0  0  0  0  0
  -23.5083   12.6341   35.4578 H   0  0  0  0  0  0  0  0  0  0  0  0
  -20.5830   11.5504   39.4952 H   0  0  0  0  0  0  0  0  0  0  0  0
  -21.1729    9.3357   41.8575 H   0  0  0  0  0  0  0  0  0  0  0  0
  -19.2262   11.0099   41.9139 H   0  0  0  0  0  0  0  0  0  0  0  0
  -19.4138   11.3524   40.2346 H   0  0  0  0  0  0  0  0  0  0  0  0
  -20.6680   11.1559   45.2128 H   0  0  0  0  0  0  0  0  0  0  0  0
  -19.4553   11.0747   43.8901 H   0  0  0  0  0  0  0  0  0  0  0  0
  -20.6989   12.3709   43.8901 H   0  0  0  0  0  0  0  0  0  0  0  0
  -23.1539   10.9870   44.5176 H   0  0  0  0  0  0  0  0  0  0  0  0
  -22.9884   11.8782   42.9668 H   0  0  0  0  0  0  0  0  0  0  0  0
  -23.5511   10.1723   42.9668 H   0  0  0  0  0  0  0  0  0  0  0  0
  -21.3205    8.9552   44.9198 H   0  0  0  0  0  0  0  0  0  0  0  0
  -22.1775    8.3934   43.4445 H   0  0  0  0  0  0  0  0  0  0  0  0
  -20.3867    8.5333   43.4445 H   0  0  0  0  0  0  0  0  0  0  0  0
  -17.7763   10.4718   40.5733 H   0  0  0  0  0  0  0  0  0  0  0  0
  -16.6672    8.2543   38.4243 H   0  0  0  0  0  0  0  0  0  0  0  0
  -17.9490    8.4607   38.9207 H   0  0  0  0  0  0  0  0  0  0  0  0
  -14.7139    9.9680   39.0696 H   0  0  0  0  0  0  0  0  0  0  0  0
  -15.6171    9.2701   37.5719 H   0  0  0  0  0  0  0  0  0  0  0  0
  -18.2605   11.2885   38.0502 H   0  0  0  0  0  0  0  0  0  0  0  0
  -17.4320   11.8679   39.6432 H   0  0  0  0  0  0  0  0  0  0  0  0
  -15.6997   11.6934   38.7787 H   0  0  0  0  0  0  0  0  0  0  0  0
  -16.5130   10.8933   37.2847 H   0  0  0  0  0  0  0  0  0  0  0  0
  -16.1123    7.0303   40.3247 H   0  0  0  0  0  0  0  0  0  0  0  0
  -12.6170    6.2026   38.7010 H   0  0  0  0  0  0  0  0  0  0  0  0
  -13.0367    4.1557   36.5651 H   0  0  0  0  0  0  0  0  0  0  0  0
  -14.4866    5.1416   35.8832 H   0  0  0  0  0  0  0  0  0  0  0  0
  -14.8020    6.0495   37.2973 H   0  0  0  0  0  0  0  0  0  0  0  0
  -11.8164    5.3232   35.4615 H   0  0  0  0  0  0  0  0  0  0  0  0
  -13.3406    6.2290   34.8474 H   0  0  0  0  0  0  0  0  0  0  0  0
  -11.7636    7.0330   37.9147 H   0  0  0  0  0  0  0  0  0  0  0  0
  -11.1591    7.0793   36.2157 H   0  0  0  0  0  0  0  0  0  0  0  0
  -12.7338    7.8738   35.5583 H   0  0  0  0  0  0  0  0  0  0  0  0
  -13.3716    8.4964   41.1952 H   0  0  0  0  0  0  0  0  0  0  0  0
  -14.0050    6.3122   41.6261 H   0  0  0  0  0  0  0  0  0  0  0  0
  -20.1217   -4.1993   15.8375 H   0  0  0  0  0  0  0  0  0  0  0  0
  -19.2051   -1.5768   14.2106 H   0  0  0  0  0  0  0  0  0  0  0  0
  -19.9270   -4.0626   14.1318 H   0  0  0  0  0  0  0  0  0  0  0  0
  -17.1639   -2.6176   15.6291 H   0  0  0  0  0  0  0  0  0  0  0  0
  -18.0701   -1.0018   15.3893 H   0  0  0  0  0  0  0  0  0  0  0  0
  -20.6217   -2.0779   17.2263 H   0  0  0  0  0  0  0  0  0  0  0  0
  -18.1277   -2.8391   17.3930 H   0  0  0  0  0  0  0  0  0  0  0  0
  -18.9714   -1.1879   17.0472 H   0  0  0  0  0  0  0  0  0  0  0  0
  -22.0879   -3.8993   16.7606 H   0  0  0  0  0  0  0  0  0  0  0  0
  -22.5110   -3.1680   15.3062 H   0  0  0  0  0  0  0  0  0  0  0  0
  -17.9589   -3.5337   13.0082 H   0  0  0  0  0  0  0  0  0  0  0  0
  -18.1625   -1.3167   10.5363 H   0  0  0  0  0  0  0  0  0  0  0  0
  -16.1438   -2.8329   10.9283 H   0  0  0  0  0  0  0  0  0  0  0  0
  -16.6475   -3.2117   12.5248 H   0  0  0  0  0  0  0  0  0  0  0  0
  -16.2395   -3.5952    9.2871 H   0  0  0  0  0  0  0  0  0  0  0  0
  -17.2393   -3.9989    7.8505 H   0  0  0  0  0  0  0  0  0  0  0  0
  -16.2241   -2.5170    7.8505 H   0  0  0  0  0  0  0  0  0  0  0  0
  -19.9526   -3.2451    9.4896 H   0  0  0  0  0  0  0  0  0  0  0  0
  -19.9012   -2.2397    8.0019 H   0  0  0  0  0  0  0  0  0  0  0  0
  -19.1729   -3.8817    8.0019 H   0  0  0  0  0  0  0  0  0  0  0  0
  -17.8354   -0.2887    9.5616 H   0  0  0  0  0  0  0  0  0  0  0  0
  -16.9739   -0.7672    8.0598 H   0  0  0  0  0  0  0  0  0  0  0  0
  -18.7640   -0.6188    8.0598 H   0  0  0  0  0  0  0  0  0  0  0  0
  -15.0733   -2.3094   12.4626 H   0  0  0  0  0  0  0  0  0  0  0  0
  -14.3468   -0.0384   14.6994 H   0  0  0  0  0  0  0  0  0  0  0  0
  -15.5370   -0.2459   13.9929 H   0  0  0  0  0  0  0  0  0  0  0  0
  -12.3055   -1.7539   14.3646 H   0  0  0  0  0  0  0  0  0  0  0  0
  -13.4286   -1.0481   15.7094 H   0  0  0  0  0  0  0  0  0  0  0  0
  -15.9633   -3.1104   14.8474 H   0  0  0  0  0  0  0  0  0  0  0  0
  -14.8985   -3.6856   13.4078 H   0  0  0  0  0  0  0  0  0  0  0  0
  -13.3164   -3.4915   14.5402 H   0  0  0  0  0  0  0  0  0  0  0  0
  -14.3570   -2.6765   15.8761 H   0  0  0  0  0  0  0  0  0  0  0  0
  -13.3755    1.1336   12.8472 H   0  0  0  0  0  0  0  0  0  0  0  0
  -10.3570    1.9587   15.3970 H   0  0  0  0  0  0  0  0  0  0  0  0
  -11.2077    3.9594   17.4515 H   0  0  0  0  0  0  0  0  0  0  0  0
  -12.8023    3.0135   17.7399 H   0  0  0  0  0  0  0  0  0  0  0  0
  -12.7981    2.1473   16.2627 H   0  0  0  0  0  0  0  0  0  0  0  0
  -10.3083    2.7132   18.7604 H   0  0  0  0  0  0  0  0  0  0  0  0
  -11.9603    1.8491   18.9735 H   0  0  0  0  0  0  0  0  0  0  0  0
   -9.7380    1.0918   16.3249 H   0  0  0  0  0  0  0  0  0  0  0  0
   -9.5499    0.9500   18.1210 H   0  0  0  0  0  0  0  0  0  0  0  0
  -11.2595    0.2011   18.3538 H   0  0  0  0  0  0  0  0  0  0  0  0
  -10.4072   -0.5055   14.4166 H   0  0  0  0  0  0  0  0  0  0  0  0
  -11.1939    3.0352   13.8330 H   0  0  0  0  0  0  0  0  0  0  0  0
  1  3  1  0
  2  3  1  0
  2  4  1  0
  1  5  1  0
  4  6  1  0
  5  6  1  0
  1  7  1  0
  2  8  1  0
  8  9  1  0
  9 10  1  0
 10 11  1  0
  8 12  1  0
 11 12  1  0
 10 13  1  0
 13 14  1  1
 13 15  1  0
 13 16  1  0
 12 17  1  0
 17 19  1  0
 18 19  1  0
 18 20  1  0
 17 21  1  0
 20 22  1  0
 21 22  1  0
 19 23  1  0
 18 24  1  0
 24 25  1  0
 25 26  1  0
 26 28  1  0
 27 28  1  0
 27 29  1  0
 26 30  1  0
 29 31  1  0
 30 31  1  0
 30 32  1  0
 28 33  1  0
 25 34  1  1
 25 35  1  0
 36 38  1  0
 37 38  1  0
 37 39  1  0
 36 40  1  0
 39 41  1  0
 40 41  1  0
 36 42  1  0
 37 43  1  0
 43 44  1  0
 44 45  1  0
 45 46  1  0
 43 47  1  0
 46 47  1  0
 45 48  1  0
 48 49  1  6
 48 50  1  0
 48 51  1  0
 47 52  1  0
 52 54  1  0
 53 54  1  0
 53 55  1  0
 52 56  1  0
 55 57  1  0
 56 57  1  0
 54 58  1  0
 53 59  1  0
 59 60  1  0
 60 61  1  0
 61 63  1  0
 62 63  1  0
 62 64  1  0
 61 65  1  0
 64 66  1  0
 65 66  1  0
 65 67  1  0
 63 68  1  0
 60 69  1  6
 60 70  1  0
  1 71  1  0
  2 72  1  0
  3 73  1  0
  4 74  1  0
  4 75  1  0
  5 76  1  0
  6 77  1  0
  6 78  1  0
  7 79  1  0
  7 80  1  0
  8 81  1  0
 10 82  1  0
 11 83  1  0
 12 84  1  0
 14 85  1  0
 14 86  1  0
 14 87  1  0
 15 88  1  0
 15 89  1  0
 15 90  1  0
 16 91  1  0
 16 92  1  0
 16 93  1  0
 17 94  1  0
 18 95  1  1
 19 96  1  0
 20 97  1  0
 20 98  1  0
 21 99  1  0
 21100  1  0
 22101  1  0
 22102  1  0
 24103  1  0
 26104  1  0
 27105  1  0
 27106  1  0
 28107  1  0
 29108  1  0
 29109  1  0
 30110  1  0
 31111  1  0
 31112  1  0
 34113  1  0
 35114  1  0
 36115  1  0
 37116  1  1
 38117  1  0
 39118  1  0
 39119  1  0
 40120  1  0
 41121  1  0
 41122  1  0
 42123  1  0
 42124  1  0
 43125  1  1
 45126  1  0
 46127  1  0
 47128  1  0
 49129  1  0
 49130  1  0
 49131  1  0
 50132  1  0
 50133  1  0
 50134  1  0
 51135  1  0
 51136  1  0
 51137  1  0
 52138  1  0
 53139  1  6
 54140  1  0
 55141  1  0
 55142  1  0
 56143  1  0
 56144  1  0
 57145  1  0
 57146  1  0
 59147  1  0
 61148  1  0
 62149  1  0
 62150  1  0
 63151  1  0
 64152  1  0
 64153  1  0
 65154  1  0
 66155  1  0
 66156  1  0
 69157  1  0
 70158  1  0
M  END
>  <PDBID>  (1) 
5CSW

>  <PDB ID>  (1) 
5CSW

>  <Generic Name>  (1) 
Dabrafenib

>  <Brand Name>  (1) 
Tafinlar

>  <DrugBank ID>  (1) 
DB08912

>  <ATC Codes>  (1) 
L01XE23

>  <Ligand ID>  (1) 
P06

>  <Target Name>  (1) 
RAF proto-oncogene serine/threonine-protein kinase

>  <UniProt ID>  (1) 
P04049

>  <PDB ID.1>  (1) 
5CSW

>  <Seq. Identity>  (1) 
76%

$$$$
