PDB_DB00513_95
     RDKit          3D

 22 21  0  0  0  0  0  0  0  0999 V2000
   -8.8410   -4.0850    5.3080 C   0  0  0  0  0  0  0  0  0  0  0  0
   -8.7990   -5.2620    4.9980 O   0  0  0  0  0  0  0  0  0  0  0  0
   -9.7440   -3.5030    5.8790 O   0  0  0  0  0  0  0  0  0  0  0  0
   -7.6230   -3.2380    4.9210 C   0  0  0  0  0  0  0  0  0  0  0  0
   -7.2340   -2.3230    6.0840 C   0  0  0  0  0  0  0  0  0  0  0  0
   -5.7830   -1.8720    5.9100 C   0  0  0  0  0  0  0  0  0  0  0  0
   -5.0510   -1.9690    7.2570 C   0  0  0  0  0  0  0  0  0  0  0  0
   -3.6080   -1.5160    7.0620 C   0  0  0  0  0  0  0  0  0  0  0  0
   -2.8030   -1.7430    8.2920 N   0  0  0  0  0  0  0  0  0  0  0  0
   -8.0035   -5.6232    4.5323 H   0  0  0  0  0  0  0  0  0  0  0  0
   -6.7790   -3.9013    4.6807 H   0  0  0  0  0  0  0  0  0  0  0  0
   -7.8737   -2.6226    4.0444 H   0  0  0  0  0  0  0  0  0  0  0  0
   -7.8934   -1.4426    6.0952 H   0  0  0  0  0  0  0  0  0  0  0  0
   -7.3384   -2.8693    7.0330 H   0  0  0  0  0  0  0  0  0  0  0  0
   -5.2837   -2.5193    5.1740 H   0  0  0  0  0  0  0  0  0  0  0  0
   -5.7629   -0.8306    5.5562 H   0  0  0  0  0  0  0  0  0  0  0  0
   -5.5461   -1.3208    7.9950 H   0  0  0  0  0  0  0  0  0  0  0  0
   -5.0725   -3.0065    7.6218 H   0  0  0  0  0  0  0  0  0  0  0  0
   -3.1627   -2.0836    6.2317 H   0  0  0  0  0  0  0  0  0  0  0  0
   -3.6078   -0.4388    6.8390 H   0  0  0  0  0  0  0  0  0  0  0  0
   -3.3901   -1.5775    9.1220 H   0  0  0  0  0  0  0  0  0  0  0  0
   -2.4590   -2.7138    8.3029 H   0  0  0  0  0  0  0  0  0  0  0  0
  1  2  1  0
  1  3  2  0
  1  4  1  0
  4  5  1  0
  5  6  1  0
  6  7  1  0
  7  8  1  0
  8  9  1  0
  2 10  1  0
  4 11  1  0
  4 12  1  0
  5 13  1  0
  5 14  1  0
  6 15  1  0
  6 16  1  0
  7 17  1  0
  7 18  1  0
  8 19  1  0
  8 20  1  0
  9 21  1  0
  9 22  1  0
M  END
>  <PDBID>  (1) 
1PK2

>  <PDB ID>  (1) 
1PK2

>  <Generic Name>  (1) 
Aminocaproic Acid

>  <Brand Name>  (1) 
Amicar#Aminocaproic Acid#Exoden White Tooth#Acepramin#Amocap#Caproamin#Caprocat#Caprolisin#E-Capro#Epsicaprom#Hemocid#Inselon#Ipron#Ipsilon#Kai Nai Yin#Minocap#Plaslloid#Resplamin

>  <DrugBank ID>  (1) 
DB00513

>  <ATC Codes>  (1) 
B02AA01

>  <Ligand ID>  (1) 
ACA

>  <Target Name>  (1) 
Tissue-type plasminogen activator

>  <UniProt ID>  (1) 
P00750

>  <PDB ID.1>  (1) 
1PK2

>  <Seq. Identity>  (1) 
100%

$$$$
