PDB_DB00563_98
     RDKit          3D

 77 79  0  0  0  0  0  0  0  0999 V2000
   13.7900   -8.0710  -15.3750 N   0  0  0  0  0  0  0  0  0  0  0  0
   13.5670   -8.1020  -14.0340 C   0  0  0  0  0  0  0  0  0  0  0  0
   13.3220   -9.3020  -13.4380 N   0  0  0  0  0  0  0  0  0  0  0  0
   13.6170   -6.9460  -13.2890 N   0  0  0  0  0  0  0  0  0  0  0  0
   13.8530   -5.7390  -13.8280 C   0  0  0  0  0  0  0  0  0  0  0  0
   13.8750   -4.5690  -13.1010 N   0  0  0  0  0  0  0  0  0  0  0  0
   14.0970   -5.6660  -15.2410 C   0  0  0  0  0  0  0  0  0  0  0  0
   14.3620   -4.4500  -15.8140 N   0  0  0  0  0  0  0  0  0  0  0  0
   14.5570   -4.4340  -17.1310 C   0  0  0  0  0  0  0  0  0  0  0  0
   14.5080   -5.6550  -17.8760 C   0  0  0  0  0  0  0  0  0  0  0  0
   14.2620   -6.8530  -17.3460 N   0  0  0  0  0  0  0  0  0  0  0  0
   14.0540   -6.8690  -15.9790 C   0  0  0  0  0  0  0  0  0  0  0  0
   14.8270   -3.0620  -17.6710 C   0  0  0  0  0  0  0  0  0  0  0  0
   14.7650   -3.0040  -19.1580 N   0  0  0  0  0  0  0  0  0  0  0  0
   15.9530   -2.9930  -20.0180 C   0  0  0  0  0  0  0  0  0  0  0  0
   10.9830   -3.6320  -20.9860 C   0  0  0  0  0  0  0  0  0  0  0  0
   11.0400   -3.5140  -19.5840 C   0  0  0  0  0  0  0  0  0  0  0  0
   12.2910   -3.2950  -19.0170 C   0  0  0  0  0  0  0  0  0  0  0  0
   13.4950   -3.2140  -19.7500 C   0  0  0  0  0  0  0  0  0  0  0  0
   13.3980   -3.3460  -21.1550 C   0  0  0  0  0  0  0  0  0  0  0  0
   12.1630   -3.5410  -21.7330 C   0  0  0  0  0  0  0  0  0  0  0  0
    9.7410   -3.8570  -21.7510 C   0  0  2  0  0  0  0  0  0  0  0  0
    9.6030   -3.5050  -22.9290 O   0  0  0  0  0  0  0  0  0  0  0  0
    8.6850   -4.2550  -20.9790 N   0  0  0  0  0  0  0  0  0  0  0  0
    7.3350   -4.2060  -21.5260 C   0  0  2  0  0  0  0  0  0  0  0  0
    6.3420   -4.3580  -20.3940 C   0  0  0  0  0  0  0  0  0  0  0  0
    5.1360   -4.2550  -20.6600 O   0  0  0  0  0  0  0  0  0  0  0  0
    6.7960   -4.5330  -19.2370 O   0  0  0  0  0  0  0  0  0  0  0  0
    7.1010   -5.3000  -22.5740 C   0  0  0  0  0  0  0  0  0  0  0  0
    7.2440   -6.6640  -21.9120 C   0  0  0  0  0  0  0  0  0  0  0  0
    7.3410   -7.7990  -22.9150 C   0  0  0  0  0  0  0  0  0  0  0  0
    7.3160   -7.5450  -24.1450 O   0  0  0  0  0  0  0  0  0  0  0  0
    7.4500   -8.9540  -22.4650 O   0  0  0  0  0  0  0  0  0  0  0  0
   14.5957   -8.6852  -15.5609 H   0  0  0  0  0  0  0  0  0  0  0  0
   12.4893   -7.9695  -14.2101 H   0  0  0  0  0  0  0  0  0  0  0  0
   13.3452   -9.1881  -12.4146 H   0  0  0  0  0  0  0  0  0  0  0  0
   12.3938   -9.6444  -13.7244 H   0  0  0  0  0  0  0  0  0  0  0  0
   12.7044   -6.8727  -12.8171 H   0  0  0  0  0  0  0  0  0  0  0  0
   12.7755   -5.6079  -14.0063 H   0  0  0  0  0  0  0  0  0  0  0  0
   13.8708   -4.7898  -12.0950 H   0  0  0  0  0  0  0  0  0  0  0  0
   14.7261   -4.0370  -13.3323 H   0  0  0  0  0  0  0  0  0  0  0  0
   13.0220   -5.5155  -15.4189 H   0  0  0  0  0  0  0  0  0  0  0  0
   13.5655   -3.8297  -15.6099 H   0  0  0  0  0  0  0  0  0  0  0  0
   15.6366   -4.5738  -16.9729 H   0  0  0  0  0  0  0  0  0  0  0  0
   13.7311   -5.5044  -18.6400 H   0  0  0  0  0  0  0  0  0  0  0  0
   15.5667   -5.7678  -18.1524 H   0  0  0  0  0  0  0  0  0  0  0  0
   13.4191   -7.2334  -17.7995 H   0  0  0  0  0  0  0  0  0  0  0  0
   12.9784   -6.7218  -16.1562 H   0  0  0  0  0  0  0  0  0  0  0  0
   14.0775   -2.3692  -17.2608 H   0  0  0  0  0  0  0  0  0  0  0  0
   15.8480   -2.7833  -17.3712 H   0  0  0  0  0  0  0  0  0  0  0  0
   16.8581   -2.9846  -19.3929 H   0  0  0  0  0  0  0  0  0  0  0  0
   15.9543   -3.8912  -20.6530 H   0  0  0  0  0  0  0  0  0  0  0  0
   15.9376   -2.0950  -20.6530 H   0  0  0  0  0  0  0  0  0  0  0  0
   10.8447   -2.5441  -21.0719 H   0  0  0  0  0  0  0  0  0  0  0  0
   10.3935   -2.6720  -19.2958 H   0  0  0  0  0  0  0  0  0  0  0  0
   10.7226   -4.4957  -19.2026 H   0  0  0  0  0  0  0  0  0  0  0  0
   12.2084   -2.3406  -18.4763 H   0  0  0  0  0  0  0  0  0  0  0  0
   12.4414   -4.2428  -18.4794 H   0  0  0  0  0  0  0  0  0  0  0  0
   13.6286   -4.3013  -19.6508 H   0  0  0  0  0  0  0  0  0  0  0  0
   13.8148   -2.4269  -21.5925 H   0  0  0  0  0  0  0  0  0  0  0  0
   13.9330   -4.2840  -21.3646 H   0  0  0  0  0  0  0  0  0  0  0  0
   12.2374   -4.4808  -22.2998 H   0  0  0  0  0  0  0  0  0  0  0  0
   12.0151   -2.5913  -22.2679 H   0  0  0  0  0  0  0  0  0  0  0  0
    9.9735   -4.6576  -22.4686 H   0  0  0  0  0  0  0  0  0  0  0  0
    9.2418   -2.5837  -22.9580 H   0  0  0  0  0  0  0  0  0  0  0  0
    8.8633   -5.2330  -20.7094 H   0  0  0  0  0  0  0  0  0  0  0  0
    7.2006   -3.2368  -22.0286 H   0  0  0  0  0  0  0  0  0  0  0  0
    6.3926   -3.2757  -20.2043 H   0  0  0  0  0  0  0  0  0  0  0  0
    4.6152   -4.2105  -19.8192 H   0  0  0  0  0  0  0  0  0  0  0  0
    6.1125   -4.2696  -18.5710 H   0  0  0  0  0  0  0  0  0  0  0  0
    6.0890   -5.1983  -22.9928 H   0  0  0  0  0  0  0  0  0  0  0  0
    7.8398   -5.2018  -23.3831 H   0  0  0  0  0  0  0  0  0  0  0  0
    8.1550   -6.6614  -21.2955 H   0  0  0  0  0  0  0  0  0  0  0  0
    6.3413   -6.8339  -21.3068 H   0  0  0  0  0  0  0  0  0  0  0  0
    6.2452   -7.8948  -22.9125 H   0  0  0  0  0  0  0  0  0  0  0  0
    7.2199   -6.5688  -24.2785 H   0  0  0  0  0  0  0  0  0  0  0  0
    7.4472   -8.9243  -21.4755 H   0  0  0  0  0  0  0  0  0  0  0  0
  1  2  1  0
  2  3  1  0
  2  4  1  0
  4  5  1  0
  5  6  1  0
  5  7  1  0
  7  8  1  0
  8  9  1  0
  9 10  1  0
 10 11  1  0
  1 12  1  0
  7 12  1  0
 11 12  1  0
  9 13  1  0
 13 14  1  0
 14 15  1  0
 16 17  1  0
 17 18  1  0
 14 19  1  0
 18 19  1  0
 19 20  1  0
 16 21  1  0
 20 21  1  0
 16 22  1  0
 22 23  1  0
 22 24  1  0
 24 25  1  0
 25 26  1  0
 26 27  1  0
 26 28  1  0
 25 29  1  0
 29 30  1  0
 30 31  1  0
 31 32  1  0
 31 33  1  0
  1 34  1  0
  2 35  1  0
  3 36  1  0
  3 37  1  0
  4 38  1  0
  5 39  1  0
  6 40  1  0
  6 41  1  0
  7 42  1  0
  8 43  1  0
  9 44  1  0
 10 45  1  0
 10 46  1  0
 11 47  1  0
 12 48  1  0
 13 49  1  0
 13 50  1  0
 15 51  1  0
 15 52  1  0
 15 53  1  0
 16 54  1  0
 17 55  1  0
 17 56  1  0
 18 57  1  0
 18 58  1  0
 19 59  1  0
 20 60  1  0
 20 61  1  0
 21 62  1  0
 21 63  1  0
 22 64  1  6
 23 65  1  0
 24 66  1  0
 25 67  1  6
 26 68  1  0
 27 69  1  0
 28 70  1  0
 29 71  1  0
 29 72  1  0
 30 73  1  0
 30 74  1  0
 31 75  1  0
 32 76  1  0
 33 77  1  0
M  END
>  <PDBID>  (1) 
3EIG

>  <PDB ID>  (1) 
3EIG

>  <Generic Name>  (1) 
Methotrexate

>  <Brand Name>  (1) 
Apo-methotrexate#Jamp-methotrexate#Methotrexate#Methotrexate Dbl Inj 10mg/ml#Methotrexate Dbl Inj 2.5mg/ml#Methotrexate Dbl Inj 25mg/ml#Methotrexate Injection BP#Methotrexate Injection USP#Methotrexate Injection, BP#Methotrexate Injection, USP#Methotrexate PF/sa Injection#Methotrexate Sod Inj 25mg/ml USP#Methotrexate Sodium#Methotrexate Sodium Inj 20mg#Methotrexate Sodium Inj 25.0mg/ml#Methotrexate Sodium Inj 25mg/ml#Methotrexate Sodium Inj 25mg/ml USP#Methotrexate Sodium Injection#Methotrexate Sodium Injection USP#Methotrexate Tab 2.5mg#Methotrexate Tab 2.5mg USP#Methotrexate Tablets, USP#Methotrexate-liq Im IV Iar Int Ivr 25mg/ml#Methotrexate-pws Im IV Iar Int Ivr 20mg/vial#Metoject#Metoject Subcutaneous#Otrexup#Rasuvo#Ratio-methotrexate Sodium#Rheumatrex Dose Pack#Rheumatrex Tab 2.5mg#Rheumatrex-tab 2.5mg#Trexall#Abitrexate#Alltrex#Artrait#Atrexel#Bendatrexat#Carditrex#Dermotrex#Ebetrex#Emtexate#Ledertrexate#Maxtrex#Meisusheng#Mexate#Rheumatrex#Trexan#Zexate

>  <DrugBank ID>  (1) 
DB00563

>  <ATC Codes>  (1) 
L01BA01#L04AX03

>  <Ligand ID>  (1) 
MTX

>  <Target Name>  (1) 
Dihydrofolate reductase

>  <UniProt ID>  (1) 
P00374

>  <PDB ID.1>  (1) 
3EIG

>  <Seq. Identity>  (1) 
99%

$$$$
