PDB_DB00412_99
     RDKit          3D

 44 46  0  0  0  0  0  0  0  0999 V2000
   -9.9120   15.6970   16.8950 S   0  0  0  0  0  0  0  0  0  0  0  0
  -10.3530   13.5350   18.3130 O   0  0  0  0  0  0  0  0  0  0  0  0
   -6.4130   14.2020   16.3090 O   0  0  0  0  0  0  0  0  0  0  0  0
  -10.0770   22.1050   15.1520 O   0  0  0  0  0  0  0  0  0  0  0  0
   -8.3250   13.6720   17.4000 N   0  0  0  0  0  0  0  0  0  0  0  0
  -12.8340   23.0730   14.4870 N   0  0  0  0  0  0  0  0  0  0  0  0
  -13.7340   22.3570   12.1720 N   0  0  0  0  0  0  0  0  0  0  0  0
   -9.5390   14.1510   17.6250 C   0  0  0  0  0  0  0  0  0  0  0  0
   -7.5780   14.4850   16.6290 C   0  0  0  0  0  0  0  0  0  0  0  0
   -8.2730   15.7830   16.1750 C   0  0  2  0  0  0  0  0  0  0  0  0
   -7.5390   17.0790   16.7330 C   0  0  0  0  0  0  0  0  0  0  0  0
   -8.2020   18.3800   16.2770 C   0  0  0  0  0  0  0  0  0  0  0  0
   -8.3510   18.6650   14.8570 C   0  0  0  0  0  0  0  0  0  0  0  0
   -8.9630   19.8760   14.4290 C   0  0  0  0  0  0  0  0  0  0  0  0
   -9.4530   20.8520   15.4330 C   0  0  0  0  0  0  0  0  0  0  0  0
   -9.2960   20.5410   16.8380 C   0  0  0  0  0  0  0  0  0  0  0  0
   -8.6790   19.3210   17.2610 C   0  0  0  0  0  0  0  0  0  0  0  0
  -10.4450   22.4640   13.7880 C   0  0  0  0  0  0  0  0  0  0  0  0
  -11.5270   23.5510   13.8770 C   0  0  0  0  0  0  0  0  0  0  0  0
  -13.0250   23.2060   15.9810 C   0  0  0  0  0  0  0  0  0  0  0  0
  -13.9450   22.4690   13.5780 C   0  0  0  0  0  0  0  0  0  0  0  0
  -14.6970   21.8270   11.3170 C   0  0  0  0  0  0  0  0  0  0  0  0
  -15.9540   21.3640   11.8090 C   0  0  0  0  0  0  0  0  0  0  0  0
  -16.2200   21.4520   13.2170 C   0  0  0  0  0  0  0  0  0  0  0  0
  -15.2390   21.9950   14.1110 C   0  0  0  0  0  0  0  0  0  0  0  0
   -7.9882   12.7736   17.7747 H   0  0  0  0  0  0  0  0  0  0  0  0
   -8.2710   15.8622   15.0779 H   0  0  0  0  0  0  0  0  0  0  0  0
   -7.5527   17.0444   17.8324 H   0  0  0  0  0  0  0  0  0  0  0  0
   -6.5129   17.0743   16.3366 H   0  0  0  0  0  0  0  0  0  0  0  0
   -7.9889   17.9411   14.1121 H   0  0  0  0  0  0  0  0  0  0  0  0
   -9.0727   20.0882   13.3553 H   0  0  0  0  0  0  0  0  0  0  0  0
   -9.6571   21.2545   17.5933 H   0  0  0  0  0  0  0  0  0  0  0  0
   -8.5688   19.1014   18.3332 H   0  0  0  0  0  0  0  0  0  0  0  0
   -9.5665   22.8506   13.2506 H   0  0  0  0  0  0  0  0  0  0  0  0
  -10.8198   21.5856   13.2421 H   0  0  0  0  0  0  0  0  0  0  0  0
  -11.7333   23.9179   12.8607 H   0  0  0  0  0  0  0  0  0  0  0  0
  -11.1351   24.3369   14.5394 H   0  0  0  0  0  0  0  0  0  0  0  0
  -12.2304   22.6527   16.5029 H   0  0  0  0  0  0  0  0  0  0  0  0
  -12.9785   24.2681   16.2635 H   0  0  0  0  0  0  0  0  0  0  0  0
  -14.0050   22.7940   16.2635 H   0  0  0  0  0  0  0  0  0  0  0  0
  -14.4843   21.7639   10.2396 H   0  0  0  0  0  0  0  0  0  0  0  0
  -16.7053   20.9473   11.1220 H   0  0  0  0  0  0  0  0  0  0  0  0
  -17.1839   21.1001   13.6132 H   0  0  0  0  0  0  0  0  0  0  0  0
  -15.4489   22.0584   15.1889 H   0  0  0  0  0  0  0  0  0  0  0  0
  1  8  1  0
  2  8  2  0
  5  8  1  0
  3  9  2  0
  5  9  1  0
  1 10  1  0
  9 10  1  0
 10 11  1  0
 11 12  1  0
 12 13  2  0
 13 14  1  0
  4 15  1  0
 14 15  2  0
 15 16  1  0
 12 17  1  0
 16 17  2  0
  4 18  1  0
  6 19  1  0
 18 19  1  0
  6 20  1  0
  6 21  1  0
  7 21  2  0
  7 22  1  0
 22 23  2  0
 23 24  1  0
 21 25  1  0
 24 25  2  0
  5 26  1  0
 10 27  1  6
 11 28  1  0
 11 29  1  0
 13 30  1  0
 14 31  1  0
 16 32  1  0
 17 33  1  0
 18 34  1  0
 18 35  1  0
 19 36  1  0
 19 37  1  0
 20 38  1  0
 20 39  1  0
 20 40  1  0
 22 41  1  0
 23 42  1  0
 24 43  1  0
 25 44  1  0
M  END
>  <PDBID>  (1) 
3DZY

>  <PDB ID>  (1) 
3DZY

>  <Generic Name>  (1) 
Rosiglitazone

>  <Brand Name>  (1) 
Apo-rosiglitazone#Avandamet#Avandaryl#Avandia#Avandia 2mg#Avandia 4mg#Avandia 8mg#Dom-rosiglitazone#Mylan-rosiglitazone#PHL-rosiglitazone#PMS-rosiglitazone#PMS-rosiglitazone-metformin#Teva-rosiglitazone#Blutab#DH-Rosidia#Diaben#Diaglinex#Gaudil#Gliximina#Naidi#Rogelin#Roglit#Romerol#Rosit#Rosix#Rossini#Sensulin#Sheng Ao#Sheng Min

>  <DrugBank ID>  (1) 
DB00412

>  <ATC Codes>  (1) 
A10BD03#A10BG02#A10BD04

>  <Ligand ID>  (1) 
BRL,RGZ

>  <Target Name>  (1) 
Peroxisome proliferator-activated receptor gamma

>  <UniProt ID>  (1) 
P37231

>  <PDB ID.1>  (1) 
3DZY

>  <Seq. Identity>  (1) 
97%

$$$$
