PDB_DB00619_95
     RDKit          3D

 68 72  0  0  0  0  0  0  0  0999 V2000
   23.1450   42.2440   -2.1200 C   0  0  0  0  0  0  0  0  0  0  0  0
   22.2270   42.2980   -1.1010 C   0  0  0  0  0  0  0  0  0  0  0  0
   22.5520   41.7520    0.1200 C   0  0  0  0  0  0  0  0  0  0  0  0
   23.7920   41.1710    0.2550 C   0  0  0  0  0  0  0  0  0  0  0  0
   24.7120   41.0910   -0.7060 N   0  0  0  0  0  0  0  0  0  0  0  0
   24.3540   41.6370   -1.8710 C   0  0  0  0  0  0  0  0  0  0  0  0
   21.6270   41.7960    1.2180 C   0  0  0  0  0  0  0  0  0  0  0  0
   20.4890   42.5570    1.1340 C   0  0  0  0  0  0  0  0  0  0  0  0
   19.6740   42.5380    2.2350 C   0  0  0  0  0  0  0  0  0  0  0  0
   19.9470   41.8360    3.3350 N   0  0  0  0  0  0  0  0  0  0  0  0
   21.0780   41.1270    3.3180 C   0  0  0  0  0  0  0  0  0  0  0  0
   21.9390   41.0760    2.2980 N   0  0  0  0  0  0  0  0  0  0  0  0
   21.3800   40.3800    4.4610 N   0  0  0  0  0  0  0  0  0  0  0  0
   20.5510   40.4500    5.5910 C   0  0  0  0  0  0  0  0  0  0  0  0
   20.7290   41.4760    6.4950 C   0  0  0  0  0  0  0  0  0  0  0  0
   19.9330   41.5660    7.6110 C   0  0  0  0  0  0  0  0  0  0  0  0
   18.9550   40.6290    7.8360 C   0  0  0  0  0  0  0  0  0  0  0  0
   18.7720   39.6020    6.9380 C   0  0  0  0  0  0  0  0  0  0  0  0
   19.5660   39.5090    5.8190 C   0  0  0  0  0  0  0  0  0  0  0  0
   17.7610   38.6740    7.2200 N   0  0  0  0  0  0  0  0  0  0  0  0
   17.5030   37.5980    6.4140 C   0  0  0  0  0  0  0  0  0  0  0  0
   16.6440   36.5980    7.0570 C   0  0  0  0  0  0  0  0  0  0  0  0
   16.5460   35.3480    6.4970 C   0  0  0  0  0  0  0  0  0  0  0  0
   15.7360   34.4080    7.0940 C   0  0  0  0  0  0  0  0  0  0  0  0
   15.0320   34.7130    8.2390 C   0  0  0  0  0  0  0  0  0  0  0  0
   15.1440   35.9720    8.7860 C   0  0  0  0  0  0  0  0  0  0  0  0
   15.9490   36.9240    8.1980 C   0  0  0  0  0  0  0  0  0  0  0  0
   14.1630   33.6750    8.8680 C   0  0  0  0  0  0  0  0  0  0  0  0
   12.7720   34.1460    9.1110 N   0  0  0  0  0  0  0  0  0  0  0  0
   12.1190   34.6120    7.8710 C   0  0  0  0  0  0  0  0  0  0  0  0
   10.8450   35.3070    8.2860 C   0  0  0  0  0  0  0  0  0  0  0  0
    9.9960   34.3140    8.9800 N   0  0  0  0  0  0  0  0  0  0  0  0
    8.6520   34.8760    9.2620 C   0  0  0  0  0  0  0  0  0  0  0  0
   10.6320   33.7790   10.2080 C   0  0  0  0  0  0  0  0  0  0  0  0
   11.9460   33.1360    9.8160 C   0  0  0  0  0  0  0  0  0  0  0  0
   17.8870   37.4360    5.2640 O   0  0  0  0  0  0  0  0  0  0  0  0
   21.7830   42.5000    6.2730 C   0  0  0  0  0  0  0  0  0  0  0  0
   22.9203   42.6738   -3.1073 H   0  0  0  0  0  0  0  0  0  0  0  0
   21.2462   42.7706   -1.2578 H   0  0  0  0  0  0  0  0  0  0  0  0
   24.0441   40.7380    1.2343 H   0  0  0  0  0  0  0  0  0  0  0  0
   25.0819   41.5983   -2.6948 H   0  0  0  0  0  0  0  0  0  0  0  0
   20.2457   43.1464    0.2377 H   0  0  0  0  0  0  0  0  0  0  0  0
   18.7482   43.1315    2.2102 H   0  0  0  0  0  0  0  0  0  0  0  0
   22.2142   39.7760    4.4735 H   0  0  0  0  0  0  0  0  0  0  0  0
   20.0793   42.3897    8.3252 H   0  0  0  0  0  0  0  0  0  0  0  0
   18.3196   40.6988    8.7312 H   0  0  0  0  0  0  0  0  0  0  0  0
   19.4166   38.6852    5.1055 H   0  0  0  0  0  0  0  0  0  0  0  0
   17.1896   38.8065    8.0667 H   0  0  0  0  0  0  0  0  0  0  0  0
   17.1071   35.1009    5.5837 H   0  0  0  0  0  0  0  0  0  0  0  0
   15.6500   33.4040    6.6528 H   0  0  0  0  0  0  0  0  0  0  0  0
   14.5858   36.2202    9.7008 H   0  0  0  0  0  0  0  0  0  0  0  0
   16.0342   37.9298    8.6351 H   0  0  0  0  0  0  0  0  0  0  0  0
   14.1250   32.8002    8.2022 H   0  0  0  0  0  0  0  0  0  0  0  0
   14.6015   33.4296    9.8465 H   0  0  0  0  0  0  0  0  0  0  0  0
   12.7767   35.3135    7.3368 H   0  0  0  0  0  0  0  0  0  0  0  0
   11.9082   33.7705    7.1947 H   0  0  0  0  0  0  0  0  0  0  0  0
   11.0772   36.1409    8.9648 H   0  0  0  0  0  0  0  0  0  0  0  0
   10.3232   35.7121    7.4064 H   0  0  0  0  0  0  0  0  0  0  0  0
    8.5017   34.9388   10.3499 H   0  0  0  0  0  0  0  0  0  0  0  0
    8.5755   35.8815    8.8226 H   0  0  0  0  0  0  0  0  0  0  0  0
    7.8825   34.2243    8.8226 H   0  0  0  0  0  0  0  0  0  0  0  0
   10.8152   34.5974   10.9198 H   0  0  0  0  0  0  0  0  0  0  0  0
    9.9736   33.0390   10.6865 H   0  0  0  0  0  0  0  0  0  0  0  0
   11.7567   32.2811    9.1502 H   0  0  0  0  0  0  0  0  0  0  0  0
   12.4727   32.7776   10.7128 H   0  0  0  0  0  0  0  0  0  0  0  0
   22.1541   42.8606    7.2437 H   0  0  0  0  0  0  0  0  0  0  0  0
   22.6133   42.0545    5.7055 H   0  0  0  0  0  0  0  0  0  0  0  0
   21.3616   43.3428    5.7055 H   0  0  0  0  0  0  0  0  0  0  0  0
  1  2  2  0
  2  3  1  0
  3  4  2  0
  4  5  1  0
  1  6  1  0
  5  6  2  0
  3  7  1  0
  7  8  2  0
  8  9  1  0
  9 10  2  0
 10 11  1  0
  7 12  1  0
 11 12  2  0
 11 13  1  0
 13 14  1  0
 14 15  2  0
 15 16  1  0
 16 17  2  0
 17 18  1  0
 14 19  1  0
 18 19  2  0
 18 20  1  0
 20 21  1  0
 21 22  1  0
 22 23  2  0
 23 24  1  0
 24 25  2  0
 25 26  1  0
 22 27  1  0
 26 27  2  0
 25 28  1  0
 28 29  1  0
 29 30  1  0
 30 31  1  0
 31 32  1  0
 32 33  1  0
 32 34  1  0
 29 35  1  0
 34 35  1  0
 21 36  2  0
 15 37  1  0
  1 38  1  0
  2 39  1  0
  4 40  1  0
  6 41  1  0
  8 42  1  0
  9 43  1  0
 13 44  1  0
 16 45  1  0
 17 46  1  0
 19 47  1  0
 20 48  1  0
 23 49  1  0
 24 50  1  0
 26 51  1  0
 27 52  1  0
 28 53  1  0
 28 54  1  0
 30 55  1  0
 30 56  1  0
 31 57  1  0
 31 58  1  0
 33 59  1  0
 33 60  1  0
 33 61  1  0
 34 62  1  0
 34 63  1  0
 35 64  1  0
 35 65  1  0
 37 66  1  0
 37 67  1  0
 37 68  1  0
M  END
$$$$
