PDB_DB01045_97
     RDKit          3D

117121  0  0  0  0  0  0  0  0999 V2000
  -21.1680  -39.4140   64.6120 C   0  0  0  0  0  0  0  0  0  0  0  0
  -21.1650  -39.0360   63.2520 C   0  0  0  0  0  0  0  0  0  0  0  0
  -22.2520  -39.2980   62.4070 C   0  0  0  0  0  0  0  0  0  0  0  0
  -23.3790  -39.9300   62.9090 C   0  0  0  0  0  0  0  0  0  0  0  0
  -24.5450  -40.9770   64.8490 C   0  0  0  0  0  0  0  0  0  0  0  0
  -24.5000  -41.3350   66.2120 C   0  0  0  0  0  0  0  0  0  0  0  0
  -23.4800  -41.1210   67.0870 C   0  0  0  0  0  0  0  0  0  0  0  0
  -22.3430  -40.4660   66.5500 C   0  0  0  0  0  0  0  0  0  0  0  0
  -22.3270  -40.0720   65.1350 C   0  0  0  0  0  0  0  0  0  0  0  0
  -23.4450  -40.3250   64.2450 C   0  0  0  0  0  0  0  0  0  0  0  0
  -25.8120  -41.4430   64.4550 C   0  0  0  0  0  0  0  0  0  0  0  0
  -26.3440  -42.4010   65.2670 C   0  0  2  0  0  0  0  0  0  0  0  0
  -27.8440  -42.3250   65.2450 C   0  0  0  0  0  0  0  0  0  0  0  0
  -23.5460  -41.5450   68.5240 C   0  0  0  0  0  0  0  0  0  0  0  0
  -18.6780  -38.1060   63.2030 C   0  0  0  0  0  0  0  0  0  0  0  0
  -17.6780  -37.3810   62.2900 C   0  0  0  0  0  0  0  0  0  0  0  0
  -17.2110  -38.1400   61.2150 C   0  0  0  0  0  0  0  0  0  0  0  0
  -16.4900  -39.4830   61.4080 C   0  0  0  0  0  0  0  0  0  0  0  0
  -16.3840  -40.2140   60.2160 C   0  0  0  0  0  0  0  0  0  0  0  0
  -16.3600  -41.7190   60.1390 C   0  0  1  0  0  0  0  0  0  0  0  0
  -17.4490  -42.3660   60.9730 C   0  0  1  0  0  0  0  0  0  0  0  0
  -17.6660  -43.8070   60.6000 C   0  0  2  0  0  0  0  0  0  0  0  0
  -18.6530  -44.4990   61.5160 C   0  0  2  0  0  0  0  0  0  0  0  0
  -20.0850  -44.1120   61.2980 C   0  0  2  0  0  0  0  0  0  0  0  0
  -20.9500  -45.1030   62.0730 C   0  0  1  0  0  0  0  0  0  0  0  0
  -22.1790  -44.4910   62.6960 C   0  0  1  0  0  0  0  0  0  0  0  0
  -22.9470  -45.5910   63.4140 C   0  0  2  0  0  0  0  0  0  0  0  0
  -24.3550  -45.2710   63.8620 C   0  0  0  0  0  0  0  0  0  0  0  0
  -24.8210  -43.9640   64.0200 C   0  0  0  0  0  0  0  0  0  0  0  0
  -18.0050  -35.9350   61.9700 C   0  0  0  0  0  0  0  0  0  0  0  0
  -16.4900  -42.0100   58.6850 C   0  0  0  0  0  0  0  0  0  0  0  0
  -16.3880  -44.5960   60.6910 C   0  0  0  0  0  0  0  0  0  0  0  0
  -20.4580  -44.1280   59.8390 C   0  0  0  0  0  0  0  0  0  0  0  0
  -21.7650  -43.3890   63.6370 C   0  0  0  0  0  0  0  0  0  0  0  0
  -20.9290  -47.4830   61.4690 C   0  0  0  0  0  0  0  0  0  0  0  0
  -21.5690  -48.5710   60.6800 C   0  0  0  0  0  0  0  0  0  0  0  0
  -22.2830  -47.2600   64.9830 C   0  0  0  0  0  0  0  0  0  0  0  0
  -26.3700  -40.0730   55.9080 C   0  0  0  0  0  0  0  0  0  0  0  0
  -24.1080  -40.3150   56.9790 C   0  0  0  0  0  0  0  0  0  0  0  0
  -23.4950  -40.5970   58.3200 C   0  0  0  0  0  0  0  0  0  0  0  0
  -24.6300  -38.4480   58.8840 C   0  0  0  0  0  0  0  0  0  0  0  0
  -25.8130  -39.0640   58.1360 C   0  0  0  0  0  0  0  0  0  0  0  0
  -22.2810  -38.7270   60.9700 C   0  0  0  0  0  0  0  0  0  0  0  0
  -20.0250  -38.3540   62.6020 N   0  0  0  0  0  0  0  0  0  0  0  0
  -22.4190  -39.5420   59.9130 N   0  0  0  0  0  0  0  0  0  0  0  0
  -23.5790  -39.4170   59.1240 N   0  0  0  0  0  0  0  0  0  0  0  0
  -25.5180  -40.0630   57.1270 N   0  0  0  0  0  0  0  0  0  0  0  0
  -20.1260  -39.1700   65.4330 O   0  0  0  0  0  0  0  0  0  0  0  0
  -21.2370  -40.1970   67.3650 O   0  0  0  0  0  0  0  0  0  0  0  0
  -25.8580  -42.0430   66.5520 O   0  0  0  0  0  0  0  0  0  0  0  0
  -26.3790  -41.0330   63.4480 O   0  0  0  0  0  0  0  0  0  0  0  0
  -25.9100  -43.7020   64.8800 O   0  0  0  0  0  0  0  0  0  0  0  0
  -22.2420  -45.9430   64.5410 O   0  0  0  0  0  0  0  0  0  0  0  0
  -21.2870  -46.1480   61.2230 O   0  0  0  0  0  0  0  0  0  0  0  0
  -20.1440  -47.7850   62.3540 O   0  0  0  0  0  0  0  0  0  0  0  0
  -18.2830  -44.2360   62.8270 O   0  0  0  0  0  0  0  0  0  0  0  0
  -17.1290  -42.2910   62.3200 O   0  0  0  0  0  0  0  0  0  0  0  0
  -18.3680  -38.4520   64.3420 O   0  0  0  0  0  0  0  0  0  0  0  0
  -24.4210  -40.1680   62.0780 O   0  0  0  0  0  0  0  0  0  0  0  0
  -28.2253  -42.3057   66.2766 H   0  0  0  0  0  0  0  0  0  0  0  0
  -28.1571  -41.4098   64.7211 H   0  0  0  0  0  0  0  0  0  0  0  0
  -28.2480  -43.2038   64.7211 H   0  0  0  0  0  0  0  0  0  0  0  0
  -23.4093  -40.6668   69.1721 H   0  0  0  0  0  0  0  0  0  0  0  0
  -24.5260  -42.0015   68.7270 H   0  0  0  0  0  0  0  0  0  0  0  0
  -22.7511  -42.2778   68.7270 H   0  0  0  0  0  0  0  0  0  0  0  0
  -17.3648  -37.7628   60.1932 H   0  0  0  0  0  0  0  0  0  0  0  0
  -16.0998  -39.8327   62.3752 H   0  0  0  0  0  0  0  0  0  0  0  0
  -16.3136  -39.6510   59.2736 H   0  0  0  0  0  0  0  0  0  0  0  0
  -15.4367  -42.1422   60.5615 H   0  0  0  0  0  0  0  0  0  0  0  0
  -18.3792  -41.8142   60.7723 H   0  0  0  0  0  0  0  0  0  0  0  0
  -18.0513  -43.7805   59.5700 H   0  0  0  0  0  0  0  0  0  0  0  0
  -18.6097  -45.5736   61.2850 H   0  0  0  0  0  0  0  0  0  0  0  0
  -20.2430  -43.0826   61.6521 H   0  0  0  0  0  0  0  0  0  0  0  0
  -20.3575  -45.4677   62.9250 H   0  0  0  0  0  0  0  0  0  0  0  0
  -22.8335  -44.0462   61.9320 H   0  0  0  0  0  0  0  0  0  0  0  0
  -23.0478  -46.3855   62.6600 H   0  0  0  0  0  0  0  0  0  0  0  0
  -25.0422  -46.1037   64.0726 H   0  0  0  0  0  0  0  0  0  0  0  0
  -24.3398  -43.1387   63.4746 H   0  0  0  0  0  0  0  0  0  0  0  0
  -18.1323  -35.3720   62.9064 H   0  0  0  0  0  0  0  0  0  0  0  0
  -17.1839  -35.4940   61.3858 H   0  0  0  0  0  0  0  0  0  0  0  0
  -18.9359  -35.8902   61.3858 H   0  0  0  0  0  0  0  0  0  0  0  0
  -16.9352  -43.0066   58.5489 H   0  0  0  0  0  0  0  0  0  0  0  0
  -17.1355  -41.2529   58.2158 H   0  0  0  0  0  0  0  0  0  0  0  0
  -15.4954  -41.9856   58.2158 H   0  0  0  0  0  0  0  0  0  0  0  0
  -16.1299  -44.7553   61.7484 H   0  0  0  0  0  0  0  0  0  0  0  0
  -16.5217  -45.5690   60.1956 H   0  0  0  0  0  0  0  0  0  0  0  0
  -15.5781  -44.0405   60.1956 H   0  0  0  0  0  0  0  0  0  0  0  0
  -21.5526  -44.1750   59.7409 H   0  0  0  0  0  0  0  0  0  0  0  0
  -20.0854  -43.2130   59.3552 H   0  0  0  0  0  0  0  0  0  0  0  0
  -20.0084  -45.0077   59.3552 H   0  0  0  0  0  0  0  0  0  0  0  0
  -21.8920  -43.7271   64.6760 H   0  0  0  0  0  0  0  0  0  0  0  0
  -20.7096  -43.1337   63.4609 H   0  0  0  0  0  0  0  0  0  0  0  0
  -22.3912  -42.5019   63.4609 H   0  0  0  0  0  0  0  0  0  0  0  0
  -22.0053  -49.3128   61.3651 H   0  0  0  0  0  0  0  0  0  0  0  0
  -22.3614  -48.1467   60.0459 H   0  0  0  0  0  0  0  0  0  0  0  0
  -20.8132  -49.0575   60.0459 H   0  0  0  0  0  0  0  0  0  0  0  0
  -22.2836  -47.2778   66.0829 H   0  0  0  0  0  0  0  0  0  0  0  0
  -23.1967  -47.7444   64.6080 H   0  0  0  0  0  0  0  0  0  0  0  0
  -21.4012  -47.8002   64.6080 H   0  0  0  0  0  0  0  0  0  0  0  0
  -27.4300  -40.0854   56.2016 H   0  0  0  0  0  0  0  0  0  0  0  0
  -26.1656  -39.1724   55.3104 H   0  0  0  0  0  0  0  0  0  0  0  0
  -26.1445  -40.9686   55.3104 H   0  0  0  0  0  0  0  0  0  0  0  0
  -23.6244  -39.4321   56.5355 H   0  0  0  0  0  0  0  0  0  0  0  0
  -23.9631  -41.1870   56.3244 H   0  0  0  0  0  0  0  0  0  0  0  0
  -24.0397  -41.4175   58.8100 H   0  0  0  0  0  0  0  0  0  0  0  0
  -22.4419  -40.8891   58.1949 H   0  0  0  0  0  0  0  0  0  0  0  0
  -24.2215  -37.6213   58.2843 H   0  0  0  0  0  0  0  0  0  0  0  0
  -24.9922  -38.0892   59.8587 H   0  0  0  0  0  0  0  0  0  0  0  0
  -26.4677  -39.5344   58.8844 H   0  0  0  0  0  0  0  0  0  0  0  0
  -26.2609  -38.2270   57.5803 H   0  0  0  0  0  0  0  0  0  0  0  0
  -22.1876  -37.6423   60.8129 H   0  0  0  0  0  0  0  0  0  0  0  0
  -20.1733  -38.0164   61.6403 H   0  0  0  0  0  0  0  0  0  0  0  0
  -20.1667  -39.4511   66.3814 H   0  0  0  0  0  0  0  0  0  0  0  0
  -20.4440  -39.7395   66.9882 H   0  0  0  0  0  0  0  0  0  0  0  0
  -18.9139  -44.6844   63.4442 H   0  0  0  0  0  0  0  0  0  0  0  0
  -17.9357  -42.4801   62.8618 H   0  0  0  0  0  0  0  0  0  0  0  0
  -25.2338  -40.6183   62.4196 H   0  0  0  0  0  0  0  0  0  0  0  0
  1  2  1  0
  2  3  2  0
  3  4  1  0
  5  6  2  0
  6  7  1  0
  7  8  2  0
  1  9  2  0
  8  9  1  0
  4 10  2  0
  5 10  1  0
  9 10  1  0
  5 11  1  0
 11 12  1  0
 12 13  1  1
  7 14  1  0
 15 16  1  0
 16 17  2  0
 17 18  1  0
 18 19  2  0
 19 20  1  0
 20 21  1  0
 21 22  1  0
 22 23  1  0
 23 24  1  0
 24 25  1  0
 25 26  1  0
 26 27  1  0
 27 28  1  0
 28 29  2  0
 16 30  1  0
 20 31  1  0
 22 32  1  0
 24 33  1  0
 26 34  1  0
 35 36  1  0
 39 40  1  0
 41 42  1  0
  3 43  1  0
  2 44  1  0
 15 44  1  0
 43 45  2  0
 40 46  1  0
 41 46  1  0
 45 46  1  0
 38 47  1  0
 39 47  1  0
 42 47  1  0
  1 48  1  0
  8 49  1  0
  6 50  1  0
 12 50  1  0
 11 51  2  0
 12 52  1  0
 29 52  1  0
 27 53  1  0
 37 53  1  0
 25 54  1  0
 35 54  1  0
 35 55  2  0
 23 56  1  0
 21 57  1  0
 15 58  2  0
  4 59  1  0
 13 60  1  0
 13 61  1  0
 13 62  1  0
 14 63  1  0
 14 64  1  0
 14 65  1  0
 17 66  1  0
 18 67  1  0
 19 68  1  0
 20 69  1  1
 21 70  1  1
 22 71  1  6
 23 72  1  1
 24 73  1  1
 25 74  1  1
 26 75  1  6
 27 76  1  6
 28 77  1  0
 29 78  1  0
 30 79  1  0
 30 80  1  0
 30 81  1  0
 31 82  1  0
 31 83  1  0
 31 84  1  0
 32 85  1  0
 32 86  1  0
 32 87  1  0
 33 88  1  0
 33 89  1  0
 33 90  1  0
 34 91  1  0
 34 92  1  0
 34 93  1  0
 36 94  1  0
 36 95  1  0
 36 96  1  0
 37 97  1  0
 37 98  1  0
 37 99  1  0
 38100  1  0
 38101  1  0
 38102  1  0
 39103  1  0
 39104  1  0
 40105  1  0
 40106  1  0
 41107  1  0
 41108  1  0
 42109  1  0
 42110  1  0
 43111  1  0
 44112  1  0
 48113  1  0
 49114  1  0
 56115  1  0
 57116  1  0
 59117  1  0
M  END
$$$$
