PDB_DB00398_99
     RDKit          3D

 48 50  0  0  0  0  0  0  0  0999 V2000
   26.3000   23.0600   33.4880 C   0  0  0  0  0  0  0  0  0  0  0  0
   26.5270   22.0590   34.4220 C   0  0  0  0  0  0  0  0  0  0  0  0
   27.2160   20.9090   33.9970 C   0  0  0  0  0  0  0  0  0  0  0  0
   27.6570   20.7200   32.6830 C   0  0  0  0  0  0  0  0  0  0  0  0
   25.0010   22.8570   36.1800 C   0  0  0  0  0  0  0  0  0  0  0  0
   23.6440   23.1580   38.1460 C   0  0  0  0  0  0  0  0  0  0  0  0
   23.7370   23.5620   39.4630 C   0  0  0  0  0  0  0  0  0  0  0  0
   22.6200   24.1060   40.0910 C   0  0  0  0  0  0  0  0  0  0  0  0
   21.4190   24.2600   39.4500 C   0  0  0  0  0  0  0  0  0  0  0  0
   21.3100   23.8740   38.1470 C   0  0  0  0  0  0  0  0  0  0  0  0
   22.4270   23.3250   37.5340 C   0  0  0  0  0  0  0  0  0  0  0  0
   20.2980   24.6840   40.1440 O   0  0  0  0  0  0  0  0  0  0  0  0
   20.8090   27.0980   39.9440 C   0  0  0  0  0  0  0  0  0  0  0  0
   20.2470   28.3760   40.0430 C   0  0  0  0  0  0  0  0  0  0  0  0
   18.1720   27.5350   40.7810 C   0  0  0  0  0  0  0  0  0  0  0  0
   18.6480   26.2120   40.6670 C   0  0  0  0  0  0  0  0  0  0  0  0
   16.3820   29.0800   41.3800 N   0  0  0  0  0  0  0  0  0  0  0  0
   15.0470   29.4020   41.8520 C   0  0  0  0  0  0  0  0  0  0  0  0
   27.4200   21.7420   31.7450 C   0  0  0  0  0  0  0  0  0  0  0  0
   26.7200   22.9520   32.1850 C   0  0  0  0  0  0  0  0  0  0  0  0
   26.4330   24.0790   31.2050 C   0  0  0  0  0  0  0  0  0  0  0  0
   25.6430   23.6890   30.2510 F   0  0  0  0  0  0  0  0  0  0  0  0
   25.9040   25.1090   31.7580 F   0  0  0  0  0  0  0  0  0  0  0  0
   27.5590   24.5000   30.7230 F   0  0  0  0  0  0  0  0  0  0  0  0
   27.9360   21.5870   30.0520 Cl  0  0  0  0  0  0  0  0  0  0  0  0
   26.0470   22.1110   35.7280 N   0  0  0  0  0  0  0  0  0  0  0  0
   24.7680   22.7310   37.5000 N   0  0  0  0  0  0  0  0  0  0  0  0
   24.3710   23.5730   35.4360 O   0  0  0  0  0  0  0  0  0  0  0  0
   19.9570   26.0200   40.2190 C   0  0  0  0  0  0  0  0  0  0  0  0
   18.9760   28.5650   40.4480 N   0  0  0  0  0  0  0  0  0  0  0  0
   16.7850   27.8040   41.2370 C   0  0  0  0  0  0  0  0  0  0  0  0
   16.0640   26.8500   41.4790 O   0  0  0  0  0  0  0  0  0  0  0  0
   25.7664   23.9694   33.8015 H   0  0  0  0  0  0  0  0  0  0  0  0
   27.4182   20.1186   34.7348 H   0  0  0  0  0  0  0  0  0  0  0  0
   28.1762   19.7955   32.3902 H   0  0  0  0  0  0  0  0  0  0  0  0
   24.6848   23.4550   40.0109 H   0  0  0  0  0  0  0  0  0  0  0  0
   22.7048   24.4239   41.1406 H   0  0  0  0  0  0  0  0  0  0  0  0
   20.3644   23.9943   37.5980 H   0  0  0  0  0  0  0  0  0  0  0  0
   22.3307   23.0018   36.4870 H   0  0  0  0  0  0  0  0  0  0  0  0
   21.8625   26.9479   39.6654 H   0  0  0  0  0  0  0  0  0  0  0  0
   20.8605   29.2511   39.7827 H   0  0  0  0  0  0  0  0  0  0  0  0
   18.0066   25.3560   40.9236 H   0  0  0  0  0  0  0  0  0  0  0  0
   17.0337   29.8437   41.1500 H   0  0  0  0  0  0  0  0  0  0  0  0
   15.0376   29.4043   42.9520 H   0  0  0  0  0  0  0  0  0  0  0  0
   14.7567   30.3959   41.4808 H   0  0  0  0  0  0  0  0  0  0  0  0
   14.3355   28.6497   41.4808 H   0  0  0  0  0  0  0  0  0  0  0  0
   26.5323   21.5258   36.4229 H   0  0  0  0  0  0  0  0  0  0  0  0
   25.4966   22.2757   38.0681 H   0  0  0  0  0  0  0  0  0  0  0  0
  1  2  2  0
  2  3  1  0
  3  4  2  0
  6  7  2  0
  7  8  1  0
  8  9  2  0
  9 10  1  0
  6 11  1  0
 10 11  2  0
  9 12  1  0
 13 14  2  0
 15 16  1  0
 17 18  1  0
  4 19  1  0
  1 20  1  0
 19 20  2  0
 20 21  1  0
 21 22  1  0
 21 23  1  0
 21 24  1  0
 19 25  1  0
  2 26  1  0
  5 26  1  0
  5 27  1  0
  6 27  1  0
  5 28  2  0
 12 29  1  0
 13 29  1  0
 16 29  2  0
 14 30  1  0
 15 30  2  0
 15 31  1  0
 17 31  1  0
 31 32  2  0
  1 33  1  0
  3 34  1  0
  4 35  1  0
  7 36  1  0
  8 37  1  0
 10 38  1  0
 11 39  1  0
 13 40  1  0
 14 41  1  0
 16 42  1  0
 17 43  1  0
 18 44  1  0
 18 45  1  0
 18 46  1  0
 26 47  1  0
 27 48  1  0
M  END
>  <PDBID>  (1) 
3WZE

>  <PDB ID>  (1) 
3WZE

>  <Generic Name>  (1) 
Sorafenib

>  <Brand Name>  (1) 
Nexavar

>  <DrugBank ID>  (1) 
DB00398

>  <ATC Codes>  (1) 
L01XE05

>  <Ligand ID>  (1) 
BAX

>  <Target Name>  (1) 
Vascular endothelial growth factor receptor 3

>  <UniProt ID>  (1) 
P35916

>  <PDB ID.1>  (1) 
3WZE

>  <Seq. Identity>  (1) 
67%

$$$$
