PDB_DB00558_83
     RDKit          3D

 43 43  0  0  0  0  0  0  0  0999 V2000
   36.9430   38.3940   62.3250 C   0  0  0  0  0  0  0  0  0  0  0  0
   37.7660   39.3430   62.2240 O   0  0  0  0  0  0  0  0  0  0  0  0
   35.7360   38.5950   62.6580 O   0  0  0  0  0  0  0  0  0  0  0  0
   37.3910   37.1490   62.0170 C   0  0  0  0  0  0  0  0  0  0  0  0
   36.7440   35.9410   62.7320 C   0  0  0  0  0  0  0  0  0  0  0  0
   37.4210   34.6780   62.3920 C   0  0  1  0  0  0  0  0  0  0  0  0
   38.8380   34.7350   62.4340 C   0  0  1  0  0  0  0  0  0  0  0  0
   39.3860   33.3980   61.8720 N   0  0  0  0  0  0  0  0  0  0  0  0
   39.9140   32.3760   62.7080 C   0  0  0  0  0  0  0  0  0  0  0  0
   39.9840   32.5130   63.9150 O   0  0  0  0  0  0  0  0  0  0  0  0
   40.3930   31.1220   62.0380 C   0  0  0  0  0  0  0  0  0  0  0  0
   39.3940   35.8600   61.7010 C   0  0  1  0  0  0  0  0  0  0  0  0
   38.8470   37.0570   62.2680 O   0  0  0  0  0  0  0  0  0  0  0  0
   40.9290   35.9680   61.7440 C   0  0  2  0  0  0  0  0  0  0  0  0
   41.3250   36.2540   63.0210 O   0  0  0  0  0  0  0  0  0  0  0  0
   41.4520   37.1000   60.8660 C   0  0  2  0  0  0  0  0  0  0  0  0
   41.1000   36.8690   59.5530 O   0  0  0  0  0  0  0  0  0  0  0  0
   42.9590   37.3000   60.9670 C   0  0  0  0  0  0  0  0  0  0  0  0
   43.7810   36.3280   60.3730 O   0  0  0  0  0  0  0  0  0  0  0  0
   36.8550   33.5480   63.2980 N   0  0  0  0  0  0  0  0  0  0  0  0
   36.4900   32.2310   62.8280 C   0  0  0  0  0  0  0  0  0  0  0  0
   36.6940   31.8850   61.5640 N   0  0  0  0  0  0  0  0  0  0  0  0
   36.3930   31.2970   63.7330 N   0  0  0  0  0  0  0  0  0  0  0  0
   38.7031   39.1598   61.9623 H   0  0  0  0  0  0  0  0  0  0  0  0
   35.8826   36.0156   63.4121 H   0  0  0  0  0  0  0  0  0  0  0  0
   37.2016   34.4637   61.3356 H   0  0  0  0  0  0  0  0  0  0  0  0
   39.1445   34.8848   63.4798 H   0  0  0  0  0  0  0  0  0  0  0  0
   39.3669   33.2441   60.8537 H   0  0  0  0  0  0  0  0  0  0  0  0
   40.6753   30.3829   62.8022 H   0  0  0  0  0  0  0  0  0  0  0  0
   39.5884   30.7114   61.4103 H   0  0  0  0  0  0  0  0  0  0  0  0
   41.2665   31.3523   61.4103 H   0  0  0  0  0  0  0  0  0  0  0  0
   39.1288   35.7104   60.6440 H   0  0  0  0  0  0  0  0  0  0  0  0
   41.3263   35.0075   61.3840 H   0  0  0  0  0  0  0  0  0  0  0  0
   40.7138   35.8126   63.6627 H   0  0  0  0  0  0  0  0  0  0  0  0
   40.9870   38.0261   61.2350 H   0  0  0  0  0  0  0  0  0  0  0  0
   40.2727   36.3261   59.5238 H   0  0  0  0  0  0  0  0  0  0  0  0
   43.1961   38.2653   60.4959 H   0  0  0  0  0  0  0  0  0  0  0  0
   43.1799   37.2363   62.0427 H   0  0  0  0  0  0  0  0  0  0  0  0
   44.2290   35.7983   61.0793 H   0  0  0  0  0  0  0  0  0  0  0  0
   36.4304   30.9439   61.2387 H   0  0  0  0  0  0  0  0  0  0  0  0
   37.1160   32.5574   60.9077 H   0  0  0  0  0  0  0  0  0  0  0  0
   36.1361   30.3382   63.4581 H   0  0  0  0  0  0  0  0  0  0  0  0
   36.5733   31.5181   64.7227 H   0  0  0  0  0  0  0  0  0  0  0  0
  1  2  1  0
  1  3  2  0
  1  4  1  0
  4  5  2  0
  5  6  1  0
  6  7  1  0
  7  8  1  0
  8  9  1  0
  9 10  2  0
  9 11  1  0
  7 12  1  0
  4 13  1  0
 12 13  1  0
 12 14  1  0
 14 15  1  0
 14 16  1  0
 16 17  1  0
 16 18  1  0
 18 19  1  0
  6 20  1  0
 20 21  2  3
 21 22  1  0
 21 23  1  0
  2 24  1  0
  5 25  1  0
  6 26  1  6
  7 27  1  1
  8 28  1  0
 11 29  1  0
 11 30  1  0
 11 31  1  0
 12 32  1  6
 14 33  1  6
 15 34  1  0
 16 35  1  1
 17 36  1  0
 18 37  1  0
 18 38  1  0
 19 39  1  0
 22 40  1  0
 22 41  1  0
 23 42  1  0
 23 43  1  0
M  END
$$$$
