PDB_DB01229_89
     RDKit          3D

113119  0  0  0  0  0  0  0  0999 V2000
   61.0150  -44.3530   73.1840 O   0  0  0  0  0  0  0  0  0  0  0  0
   61.3620  -44.3430   74.5810 C   0  0  1  0  0  0  0  0  0  0  0  0
   62.9620  -44.0380   74.6460 C   0  0  1  0  0  0  0  0  0  0  0  0
   63.0480  -42.7180   73.9820 O   0  0  0  0  0  0  0  0  0  0  0  0
   63.6140  -42.6520   72.6880 C   0  0  0  0  0  0  0  0  0  0  0  0
   64.0650  -43.6090   72.1040 O   0  0  0  0  0  0  0  0  0  0  0  0
   63.6220  -41.3160   72.1520 C   0  0  0  0  0  0  0  0  0  0  0  0
   64.0300  -40.1300   72.7760 C   0  0  0  0  0  0  0  0  0  0  0  0
   63.9490  -38.9220   72.0340 C   0  0  0  0  0  0  0  0  0  0  0  0
   63.5520  -38.7780   70.8540 C   0  0  0  0  0  0  0  0  0  0  0  0
   63.1160  -39.9330   70.1440 C   0  0  0  0  0  0  0  0  0  0  0  0
   63.1320  -41.2890   70.7740 C   0  0  0  0  0  0  0  0  0  0  0  0
   63.6770  -43.9050   76.0970 C   0  0  2  0  0  0  0  0  0  0  0  0
   64.6870  -42.6560   76.2300 C   0  0  2  0  0  0  0  0  0  0  0  0
   63.9890  -41.3510   76.0870 O   0  0  0  0  0  0  0  0  0  0  0  0
   63.0950  -40.8900   77.0250 C   0  0  0  0  0  0  0  0  0  0  0  0
   62.7830  -41.4650   78.0260 O   0  0  0  0  0  0  0  0  0  0  0  0
   62.5750  -39.5360   76.5950 C   0  0  0  0  0  0  0  0  0  0  0  0
   65.8610  -42.5010   75.2290 C   0  0  0  0  0  0  0  0  0  0  0  0
   66.8560  -42.5000   76.2780 O   0  0  0  0  0  0  0  0  0  0  0  0
   65.8310  -42.6400   77.2840 C   0  0  2  0  0  0  0  0  0  0  0  0
   66.0440  -43.9120   78.1700 C   0  0  0  0  0  0  0  0  0  0  0  0
   64.8830  -44.8960   78.1320 C   0  0  2  0  0  0  0  0  0  0  0  0
   65.2070  -46.0510   78.9480 O   0  0  0  0  0  0  0  0  0  0  0  0
   64.4450  -45.3040   76.6430 C   0  0  2  0  0  0  0  0  0  0  0  0
   65.7130  -45.6920   75.8240 C   0  0  0  0  0  0  0  0  0  0  0  0
   63.5940  -46.6840   76.6780 C   0  0  0  0  0  0  0  0  0  0  0  0
   64.0610  -47.6770   76.1450 O   0  0  0  0  0  0  0  0  0  0  0  0
   62.2140  -46.7790   77.3420 C   0  0  2  0  0  0  0  0  0  0  0  0
   61.7210  -48.1740   77.1650 O   0  0  0  0  0  0  0  0  0  0  0  0
   61.5900  -49.0070   78.2590 C   0  0  0  0  0  0  0  0  0  0  0  0
   61.8420  -48.7090   79.3850 O   0  0  0  0  0  0  0  0  0  0  0  0
   61.0860  -50.3590   77.8320 C   0  0  0  0  0  0  0  0  0  0  0  0
   61.2540  -45.7570   76.7270 C   0  0  0  0  0  0  0  0  0  0  0  0
   60.7500  -44.7280   77.5170 C   0  0  0  0  0  0  0  0  0  0  0  0
   59.9120  -43.6400   76.7770 C   0  0  1  0  0  0  0  0  0  0  0  0
   59.7150  -42.4040   77.5500 O   0  0  0  0  0  0  0  0  0  0  0  0
   58.6110  -42.2980   78.2760 C   0  0  0  0  0  0  0  0  0  0  0  0
   57.7380  -43.1020   78.3920 O   0  0  0  0  0  0  0  0  0  0  0  0
   58.5680  -40.9200   78.9870 C   0  0  2  0  0  0  0  0  0  0  0  0
   57.3540  -40.8400   79.7100 O   0  0  0  0  0  0  0  0  0  0  0  0
   58.7020  -39.8140   77.9110 C   0  0  1  0  0  0  0  0  0  0  0  0
   57.6880  -40.0810   76.8970 N   0  0  0  0  0  0  0  0  0  0  0  0
   57.8120  -39.6900   75.6070 C   0  0  0  0  0  0  0  0  0  0  0  0
   58.7790  -39.0640   75.1860 O   0  0  0  0  0  0  0  0  0  0  0  0
   56.6840  -40.1140   74.7340 C   0  0  0  0  0  0  0  0  0  0  0  0
   55.3590  -39.7260   74.9330 C   0  0  0  0  0  0  0  0  0  0  0  0
   54.3260  -40.1750   74.0680 C   0  0  0  0  0  0  0  0  0  0  0  0
   54.6450  -41.0380   72.9830 C   0  0  0  0  0  0  0  0  0  0  0  0
   55.9570  -41.4300   72.7780 C   0  0  0  0  0  0  0  0  0  0  0  0
   56.9820  -40.9930   73.6250 C   0  0  0  0  0  0  0  0  0  0  0  0
   58.6170  -38.4060   78.5370 C   0  0  0  0  0  0  0  0  0  0  0  0
   59.8180  -37.7820   78.9200 C   0  0  0  0  0  0  0  0  0  0  0  0
   59.8080  -36.4900   79.5080 C   0  0  0  0  0  0  0  0  0  0  0  0
   58.5860  -35.8250   79.7080 C   0  0  0  0  0  0  0  0  0  0  0  0
   57.4020  -36.4340   79.3320 C   0  0  0  0  0  0  0  0  0  0  0  0
   57.4030  -37.7320   78.7420 C   0  0  0  0  0  0  0  0  0  0  0  0
   60.5960  -43.2120   75.4210 C   0  0  0  0  0  0  0  0  0  0  0  0
   61.0200  -44.5170   79.0010 C   0  0  0  0  0  0  0  0  0  0  0  0
   60.9040  -45.8290   75.1610 C   0  0  0  0  0  0  0  0  0  0  0  0
   59.3400  -46.1050   74.9950 C   0  0  0  0  0  0  0  0  0  0  0  0
   61.5360  -46.9530   74.3090 C   0  0  0  0  0  0  0  0  0  0  0  0
   60.0300  -44.3814   73.0888 H   0  0  0  0  0  0  0  0  0  0  0  0
   63.4889  -44.8963   74.2036 H   0  0  0  0  0  0  0  0  0  0  0  0
   64.4024  -40.1344   73.8110 H   0  0  0  0  0  0  0  0  0  0  0  0
   64.2716  -38.0081   72.5544 H   0  0  0  0  0  0  0  0  0  0  0  0
   63.5406  -37.7858   70.3793 H   0  0  0  0  0  0  0  0  0  0  0  0
   62.7595  -39.8252   69.1090 H   0  0  0  0  0  0  0  0  0  0  0  0
   62.8016  -42.1942   70.2434 H   0  0  0  0  0  0  0  0  0  0  0  0
   62.8137  -43.7214   76.7535 H   0  0  0  0  0  0  0  0  0  0  0  0
   62.3433  -38.9326   77.4851 H   0  0  0  0  0  0  0  0  0  0  0  0
   63.3402  -39.0234   75.9936 H   0  0  0  0  0  0  0  0  0  0  0  0
   61.6634  -39.6674   75.9936 H   0  0  0  0  0  0  0  0  0  0  0  0
   65.9584  -43.3488   74.5350 H   0  0  0  0  0  0  0  0  0  0  0  0
   65.8421  -41.6633   74.5163 H   0  0  0  0  0  0  0  0  0  0  0  0
   65.7192  -41.9087   78.0981 H   0  0  0  0  0  0  0  0  0  0  0  0
   66.9482  -44.4305   77.8186 H   0  0  0  0  0  0  0  0  0  0  0  0
   66.1316  -43.5639   79.2098 H   0  0  0  0  0  0  0  0  0  0  0  0
   63.9992  -44.3952   78.5540 H   0  0  0  0  0  0  0  0  0  0  0  0
   65.1389  -45.8082   79.9054 H   0  0  0  0  0  0  0  0  0  0  0  0
   66.5324  -45.9427   76.5137 H   0  0  0  0  0  0  0  0  0  0  0  0
   65.4879  -46.5624   75.1901 H   0  0  0  0  0  0  0  0  0  0  0  0
   66.0135  -44.8447   75.1901 H   0  0  0  0  0  0  0  0  0  0  0  0
   62.2798  -46.5462   78.4151 H   0  0  0  0  0  0  0  0  0  0  0  0
   60.8604  -50.9642   78.7224 H   0  0  0  0  0  0  0  0  0  0  0  0
   60.1730  -50.2368   77.2307 H   0  0  0  0  0  0  0  0  0  0  0  0
   61.8562  -50.8643   77.2307 H   0  0  0  0  0  0  0  0  0  0  0  0
   58.9371  -44.1224   76.6133 H   0  0  0  0  0  0  0  0  0  0  0  0
   59.3946  -40.7891   79.7009 H   0  0  0  0  0  0  0  0  0  0  0  0
   57.5467  -40.8527   80.6810 H   0  0  0  0  0  0  0  0  0  0  0  0
   59.6919  -39.8320   77.4317 H   0  0  0  0  0  0  0  0  0  0  0  0
   56.8376  -40.5910   77.1757 H   0  0  0  0  0  0  0  0  0  0  0  0
   55.1102  -39.0615   75.7735 H   0  0  0  0  0  0  0  0  0  0  0  0
   53.2862  -39.8576   74.2358 H   0  0  0  0  0  0  0  0  0  0  0  0
   53.8516  -41.3929   72.3088 H   0  0  0  0  0  0  0  0  0  0  0  0
   56.1977  -42.0956   71.9359 H   0  0  0  0  0  0  0  0  0  0  0  0
   58.0173  -41.3191   73.4466 H   0  0  0  0  0  0  0  0  0  0  0  0
   60.7751  -38.3007   78.7622 H   0  0  0  0  0  0  0  0  0  0  0  0
   60.7526  -36.0113   79.8058 H   0  0  0  0  0  0  0  0  0  0  0  0
   58.5710  -34.8232   80.1622 H   0  0  0  0  0  0  0  0  0  0  0  0
   56.4478  -35.9102   79.4902 H   0  0  0  0  0  0  0  0  0  0  0  0
   56.4541  -38.2043   78.4480 H   0  0  0  0  0  0  0  0  0  0  0  0
   61.3283  -42.4257   75.6567 H   0  0  0  0  0  0  0  0  0  0  0  0
   59.7611  -42.9041   74.7744 H   0  0  0  0  0  0  0  0  0  0  0  0
   60.2888  -45.0884   79.5916 H   0  0  0  0  0  0  0  0  0  0  0  0
   62.0361  -44.8628   79.2416 H   0  0  0  0  0  0  0  0  0  0  0  0
   60.9301  -43.4474   79.2416 H   0  0  0  0  0  0  0  0  0  0  0  0
   58.8747  -46.1871   75.9884 H   0  0  0  0  0  0  0  0  0  0  0  0
   58.8779  -45.2745   74.4411 H   0  0  0  0  0  0  0  0  0  0  0  0
   59.1900  -47.0435   74.4411 H   0  0  0  0  0  0  0  0  0  0  0  0
   61.9661  -47.7180   74.9722 H   0  0  0  0  0  0  0  0  0  0  0  0
   60.7630  -47.4107   73.6742 H   0  0  0  0  0  0  0  0  0  0  0  0
   62.3287  -46.5303   73.6742 H   0  0  0  0  0  0  0  0  0  0  0  0
  2  1  1  6
  2  3  1  0
  3  4  1  0
  4  5  1  0
  5  6  2  0
  5  7  1  0
  7  8  2  0
  8  9  1  0
  9 10  2  0
 10 11  1  0
  7 12  1  0
 11 12  2  0
  3 13  1  0
 13 14  1  0
 14 15  1  1
 15 16  1  0
 16 17  2  0
 16 18  1  0
 14 19  1  0
 19 20  1  0
 14 21  1  0
 20 21  1  0
 21 22  1  0
 22 23  1  0
 23 24  1  0
 13 25  1  0
 23 25  1  0
 25 26  1  6
 25 27  1  0
 27 28  2  0
 27 29  1  0
 29 30  1  0
 30 31  1  0
 31 32  2  0
 31 33  1  0
 29 34  1  0
 34 35  2  0
 35 36  1  0
 36 37  1  0
 37 38  1  0
 38 39  2  0
 38 40  1  0
 40 41  1  0
 40 42  1  0
 42 43  1  0
 43 44  1  0
 44 45  2  0
 44 46  1  0
 46 47  2  0
 47 48  1  0
 48 49  2  0
 49 50  1  0
 46 51  1  0
 50 51  2  0
 42 52  1  0
 52 53  2  0
 53 54  1  0
 54 55  2  0
 55 56  1  0
 52 57  1  0
 56 57  2  0
  2 58  1  0
 36 58  1  0
 35 59  1  0
  2 60  1  0
 34 60  1  0
 60 61  1  0
 60 62  1  0
  1 63  1  0
  3 64  1  6
  8 65  1  0
  9 66  1  0
 10 67  1  0
 11 68  1  0
 12 69  1  0
 13 70  1  1
 18 71  1  0
 18 72  1  0
 18 73  1  0
 19 74  1  0
 19 75  1  0
 21 76  1  1
 22 77  1  0
 22 78  1  0
 23 79  1  1
 24 80  1  0
 26 81  1  0
 26 82  1  0
 26 83  1  0
 29 84  1  1
 33 85  1  0
 33 86  1  0
 33 87  1  0
 36 88  1  6
 40 89  1  1
 41 90  1  0
 42 91  1  6
 43 92  1  0
 47 93  1  0
 48 94  1  0
 49 95  1  0
 50 96  1  0
 51 97  1  0
 53 98  1  0
 54 99  1  0
 55100  1  0
 56101  1  0
 57102  1  0
 58103  1  0
 58104  1  0
 59105  1  0
 59106  1  0
 59107  1  0
 61108  1  0
 61109  1  0
 61110  1  0
 62111  1  0
 62112  1  0
 62113  1  0
M  END
$$$$
