PDB_DB00701_97
     RDKit          3D

 70 72  0  0  0  0  0  0  0  0999 V2000
   12.4560   18.0160   19.7620 C   0  0  0  0  0  0  0  0  0  0  0  0
   14.4290   18.7200   20.8760 C   0  0  0  0  0  0  0  0  0  0  0  0
   14.6150   20.5140   18.2890 C   0  0  0  0  0  0  0  0  0  0  0  0
   13.8340   18.5760   19.4830 C   0  0  2  0  0  0  0  0  0  0  0  0
   15.1800   22.6440   17.1740 C   0  0  2  0  0  0  0  0  0  0  0  0
   15.6420   23.7670   18.0870 C   0  0  1  0  0  0  0  0  0  0  0  0
   14.4840   23.1260   15.9110 C   0  0  0  0  0  0  0  0  0  0  0  0
   14.0720   21.9840   14.9890 C   0  0  0  0  0  0  0  0  0  0  0  0
   12.7980   21.4770   14.9830 C   0  0  0  0  0  0  0  0  0  0  0  0
   15.0220   21.3710   14.1580 C   0  0  0  0  0  0  0  0  0  0  0  0
   12.4520   20.3800   14.2270 C   0  0  0  0  0  0  0  0  0  0  0  0
   14.6940   20.2900   13.3760 C   0  0  0  0  0  0  0  0  0  0  0  0
   13.4110   19.8100   13.4310 C   0  0  0  0  0  0  0  0  0  0  0  0
   16.7590   24.6690   17.5750 C   0  0  0  0  0  0  0  0  0  0  0  0
   19.0180   24.3960   18.5690 C   0  0  0  0  0  0  0  0  0  0  0  0
   18.6750   23.8240   19.9270 C   0  0  0  0  0  0  0  0  0  0  0  0
   19.5070   25.0860   15.3930 C   0  0  0  0  0  0  0  0  0  0  0  0
   18.7370   26.0010   14.6500 C   0  0  0  0  0  0  0  0  0  0  0  0
   19.2680   27.1610   14.1740 C   0  0  0  0  0  0  0  0  0  0  0  0
   20.6050   27.4550   14.3740 C   0  0  0  0  0  0  0  0  0  0  0  0
   21.4030   26.5730   15.1280 C   0  0  0  0  0  0  0  0  0  0  0  0
   20.8550   25.3770   15.6600 C   0  0  0  0  0  0  0  0  0  0  0  0
   18.6000   22.2940   19.9200 C   0  0  0  0  0  0  0  0  0  0  0  0
   19.6840   24.2860   20.9880 C   0  0  0  0  0  0  0  0  0  0  0  0
   13.2970   18.3110   21.8450 C   0  0  0  0  0  0  0  0  0  0  0  0
   14.2780   21.7450   17.9010 N   0  0  0  0  0  0  0  0  0  0  0  0
   18.0690   24.0060   17.5200 N   0  0  0  0  0  0  0  0  0  0  0  0
   21.1080   28.6900   14.0090 N   0  0  0  0  0  0  0  0  0  0  0  0
   13.5750   19.8880   18.8630 O   0  0  0  0  0  0  0  0  0  0  0  0
   15.7730   19.9990   18.1850 O   0  0  0  0  0  0  0  0  0  0  0  0
   14.4720   24.5600   18.4230 O   0  0  0  0  0  0  0  0  0  0  0  0
   17.6060   23.4010   15.1600 O   0  0  0  0  0  0  0  0  0  0  0  0
   19.7300   22.6620   16.2780 O   0  0  0  0  0  0  0  0  0  0  0  0
   12.0980   18.4530   21.0540 O   0  0  0  0  0  0  0  0  0  0  0  0
   18.7070   23.6850   16.0520 S   0  0  0  0  0  0  0  0  0  0  0  0
   11.7359   18.3928   19.0207 H   0  0  0  0  0  0  0  0  0  0  0  0
   12.4538   16.9178   19.6997 H   0  0  0  0  0  0  0  0  0  0  0  0
   15.2974   18.0554   20.9950 H   0  0  0  0  0  0  0  0  0  0  0  0
   14.7839   19.7434   21.0674 H   0  0  0  0  0  0  0  0  0  0  0  0
   14.4990   17.9881   18.8333 H   0  0  0  0  0  0  0  0  0  0  0  0
   16.0929   22.1178   16.8581 H   0  0  0  0  0  0  0  0  0  0  0  0
   16.1057   23.2765   18.9556 H   0  0  0  0  0  0  0  0  0  0  0  0
   13.5829   23.6873   16.1990 H   0  0  0  0  0  0  0  0  0  0  0  0
   15.1985   23.7547   15.3594 H   0  0  0  0  0  0  0  0  0  0  0  0
   12.0285   21.9620   15.6016 H   0  0  0  0  0  0  0  0  0  0  0  0
   16.0493   21.7635   14.1321 H   0  0  0  0  0  0  0  0  0  0  0  0
   11.4314   19.9711   14.2609 H   0  0  0  0  0  0  0  0  0  0  0  0
   15.4431   19.8208   12.7213 H   0  0  0  0  0  0  0  0  0  0  0  0
   13.1424   18.9385   12.8159 H   0  0  0  0  0  0  0  0  0  0  0  0
   16.4969   25.0067   16.5615 H   0  0  0  0  0  0  0  0  0  0  0  0
   16.8494   25.5058   18.2832 H   0  0  0  0  0  0  0  0  0  0  0  0
   19.0247   25.4934   18.6437 H   0  0  0  0  0  0  0  0  0  0  0  0
   20.0019   23.9946   18.2847 H   0  0  0  0  0  0  0  0  0  0  0  0
   17.6753   24.2069   20.1798 H   0  0  0  0  0  0  0  0  0  0  0  0
   17.6798   25.7731   14.4490 H   0  0  0  0  0  0  0  0  0  0  0  0
   18.6292   27.8696   13.6264 H   0  0  0  0  0  0  0  0  0  0  0  0
   22.4615   26.8135   15.3063 H   0  0  0  0  0  0  0  0  0  0  0  0
   21.4700   24.6953   16.2659 H   0  0  0  0  0  0  0  0  0  0  0  0
   18.5818   21.9230   20.9554 H   0  0  0  0  0  0  0  0  0  0  0  0
   17.6851   21.9741   19.3998 H   0  0  0  0  0  0  0  0  0  0  0  0
   19.4792   21.8862   19.3998 H   0  0  0  0  0  0  0  0  0  0  0  0
   19.2733   24.0980   21.9910 H   0  0  0  0  0  0  0  0  0  0  0  0
   20.6247   23.7289   20.8666 H   0  0  0  0  0  0  0  0  0  0  0  0
   19.8769   25.3621   20.8666 H   0  0  0  0  0  0  0  0  0  0  0  0
   13.4246   17.2710   22.1798 H   0  0  0  0  0  0  0  0  0  0  0  0
   13.2782   18.9225   22.7592 H   0  0  0  0  0  0  0  0  0  0  0  0
   13.3311   22.0830   18.1246 H   0  0  0  0  0  0  0  0  0  0  0  0
   22.1039   28.9054   14.1594 H   0  0  0  0  0  0  0  0  0  0  0  0
   20.4868   29.3947   13.5867 H   0  0  0  0  0  0  0  0  0  0  0  0
   14.3849   24.6190   19.4074 H   0  0  0  0  0  0  0  0  0  0  0  0
  1  4  1  0
  2  4  1  0
  5  6  1  0
  5  7  1  0
  7  8  1  0
  8  9  2  0
  8 10  1  0
  9 11  1  0
 10 12  2  0
 11 13  2  0
 12 13  1  0
  6 14  1  0
 15 16  1  0
 17 18  2  0
 18 19  1  0
 19 20  2  0
 20 21  1  0
 17 22  1  0
 21 22  2  0
 16 23  1  0
 16 24  1  0
  2 25  1  0
  3 26  1  0
  5 26  1  0
 14 27  1  0
 15 27  1  0
 20 28  1  0
  3 29  1  0
  4 29  1  0
  3 30  2  0
  6 31  1  0
  1 34  1  0
 25 34  1  0
 17 35  1  0
 27 35  1  0
 32 35  2  0
 33 35  2  0
  1 36  1  0
  1 37  1  0
  2 38  1  0
  2 39  1  0
  4 40  1  6
  5 41  1  6
  6 42  1  1
  7 43  1  0
  7 44  1  0
  9 45  1  0
 10 46  1  0
 11 47  1  0
 12 48  1  0
 13 49  1  0
 14 50  1  0
 14 51  1  0
 15 52  1  0
 15 53  1  0
 16 54  1  0
 18 55  1  0
 19 56  1  0
 21 57  1  0
 22 58  1  0
 23 59  1  0
 23 60  1  0
 23 61  1  0
 24 62  1  0
 24 63  1  0
 24 64  1  0
 25 65  1  0
 25 66  1  0
 26 67  1  0
 28 68  1  0
 28 69  1  0
 31 70  1  0
M  END
>  <PDBID>  (1) 
3NU3

>  <PDB ID>  (1) 
3NU3

>  <Generic Name>  (1) 
Amprenavir

>  <Brand Name>  (1) 
Agenerase#Agemerase#Prozei

>  <DrugBank ID>  (1) 
DB00701

>  <ATC Codes>  (1) 
J05AE05

>  <Ligand ID>  (1) 
478

>  <Target Name>  (1) 
Pol polyprotein

>  <UniProt ID>  (1) 
Q72874

>  <PDB ID.1>  (1) 
3NU3

>  <Seq. Identity>  (1) 
94%

$$$$
