PDB_DB00523_97
     RDKit          3D

 62 62  0  0  0  0  0  0  0  0999 V2000
   43.4880   13.9930   82.3340 C   0  0  2  0  0  0  0  0  0  0  0  0
   44.6270   14.7210   81.6230 C   0  0  0  0  0  0  0  0  0  0  0  0
   44.4520   16.2310   81.6100 C   0  0  0  0  0  0  0  0  0  0  0  0
   44.3590   16.7600   83.0310 C   0  0  0  0  0  0  0  0  0  0  0  0
   43.3240   16.0110   83.8390 C   0  0  0  0  0  0  0  0  0  0  0  0
   42.9200   14.7530   83.5310 C   0  0  0  0  0  0  0  0  0  0  0  0
   41.9320   14.0160   84.3660 C   0  0  0  0  0  0  0  0  0  0  0  0
   40.7920   14.5010   84.8720 C   0  0  0  0  0  0  0  0  0  0  0  0
   39.9230   13.6030   85.6750 C   0  0  0  0  0  0  0  0  0  0  0  0
   38.8710   14.0070   86.4020 C   0  0  0  0  0  0  0  0  0  0  0  0
   38.3950   15.3820   86.5380 C   0  0  0  0  0  0  0  0  0  0  0  0
   37.4240   15.5470   87.4330 C   0  0  0  0  0  0  0  0  0  0  0  0
   36.7540   16.8280   87.7240 C   0  0  0  0  0  0  0  0  0  0  0  0
   35.6200   16.7240   88.4570 C   0  0  0  0  0  0  0  0  0  0  0  0
   34.6760   17.7720   88.9170 C   0  0  0  0  0  0  0  0  0  0  0  0
   44.0590   12.6670   82.8300 C   0  0  0  0  0  0  0  0  0  0  0  0
   42.3580   13.7190   81.3420 C   0  0  0  0  0  0  0  0  0  0  0  0
   42.8030   16.7540   85.0370 C   0  0  0  0  0  0  0  0  0  0  0  0
   40.2000   12.1320   85.6780 C   0  0  0  0  0  0  0  0  0  0  0  0
   37.3130   18.1180   87.1830 C   0  0  0  0  0  0  0  0  0  0  0  0
   33.8830   17.4530   89.8300 O   0  0  0  0  0  0  0  0  0  0  0  0
   34.6460   18.9140   88.4070 O   0  0  0  0  0  0  0  0  0  0  0  0
   45.5700   14.4821   82.1365 H   0  0  0  0  0  0  0  0  0  0  0  0
   44.6311   14.3818   80.5766 H   0  0  0  0  0  0  0  0  0  0  0  0
   45.3140   16.6925   81.1061 H   0  0  0  0  0  0  0  0  0  0  0  0
   43.5253   16.4806   81.0725 H   0  0  0  0  0  0  0  0  0  0  0  0
   45.3394   16.6497   83.5175 H   0  0  0  0  0  0  0  0  0  0  0  0
   44.0590   17.8173   82.9847 H   0  0  0  0  0  0  0  0  0  0  0  0
   42.5280   16.4228   83.2011 H   0  0  0  0  0  0  0  0  0  0  0  0
   43.7152   14.3412   84.1698 H   0  0  0  0  0  0  0  0  0  0  0  0
   41.6278   13.1545   83.7534 H   0  0  0  0  0  0  0  0  0  0  0  0
   42.5151   13.9228   85.2940 H   0  0  0  0  0  0  0  0  0  0  0  0
   41.0609   15.3509   85.5165 H   0  0  0  0  0  0  0  0  0  0  0  0
   40.1853   14.7316   83.9839 H   0  0  0  0  0  0  0  0  0  0  0  0
   40.5797   13.7461   86.5458 H   0  0  0  0  0  0  0  0  0  0  0  0
   38.0136   13.4436   86.0052 H   0  0  0  0  0  0  0  0  0  0  0  0
   39.2718   13.8478   87.4139 H   0  0  0  0  0  0  0  0  0  0  0  0
   39.2464   16.0118   86.8356 H   0  0  0  0  0  0  0  0  0  0  0  0
   37.9704   15.6624   85.5627 H   0  0  0  0  0  0  0  0  0  0  0  0
   36.6222   14.8590   87.1269 H   0  0  0  0  0  0  0  0  0  0  0  0
   37.9862   15.3993   88.3669 H   0  0  0  0  0  0  0  0  0  0  0  0
   36.1656   16.7302   86.7998 H   0  0  0  0  0  0  0  0  0  0  0  0
   34.9901   16.0328   87.8778 H   0  0  0  0  0  0  0  0  0  0  0  0
   36.0964   16.5255   89.4284 H   0  0  0  0  0  0  0  0  0  0  0  0
   33.9436   17.4421   88.1656 H   0  0  0  0  0  0  0  0  0  0  0  0
   44.0629   12.6580   83.9300 H   0  0  0  0  0  0  0  0  0  0  0  0
   43.4379   11.8385   82.4587 H   0  0  0  0  0  0  0  0  0  0  0  0
   45.0877   12.5490   82.4587 H   0  0  0  0  0  0  0  0  0  0  0  0
   41.4328   13.4946   81.8930 H   0  0  0  0  0  0  0  0  0  0  0  0
   42.2023   14.6054   80.7095 H   0  0  0  0  0  0  0  0  0  0  0  0
   42.6256   12.8597   80.7095 H   0  0  0  0  0  0  0  0  0  0  0  0
   43.1505   16.2584   85.9555 H   0  0  0  0  0  0  0  0  0  0  0  0
   43.1739   17.7894   85.0162 H   0  0  0  0  0  0  0  0  0  0  0  0
   41.7032   16.7581   85.0162 H   0  0  0  0  0  0  0  0  0  0  0  0
   40.2675   11.7737   86.7158 H   0  0  0  0  0  0  0  0  0  0  0  0
   39.3854   11.6044   85.1602 H   0  0  0  0  0  0  0  0  0  0  0  0
   41.1507   11.9368   85.1602 H   0  0  0  0  0  0  0  0  0  0  0  0
   37.5972   18.7737   88.0192 H   0  0  0  0  0  0  0  0  0  0  0  0
   38.1991   17.9040   86.5674 H   0  0  0  0  0  0  0  0  0  0  0  0
   36.5509   18.6182   86.5674 H   0  0  0  0  0  0  0  0  0  0  0  0
   34.3059   17.6231   90.7088 H   0  0  0  0  0  0  0  0  0  0  0  0
   34.6281   19.5956   89.1248 H   0  0  0  0  0  0  0  0  0  0  0  0
  1  2  1  0
  2  3  1  0
  3  4  1  0
  4  5  1  0
  1  6  1  0
  5  6  1  0
  6  7  1  0
  7  8  1  0
  8  9  1  0
  9 10  1  0
 10 11  1  0
 11 12  1  0
 12 13  1  0
 13 14  1  0
 14 15  1  0
  1 16  1  1
  1 17  1  0
  5 18  1  0
  9 19  1  0
 13 20  1  0
 15 21  1  0
 15 22  1  0
  2 23  1  0
  2 24  1  0
  3 25  1  0
  3 26  1  0
  4 27  1  0
  4 28  1  0
  5 29  1  0
  6 30  1  0
  7 31  1  0
  7 32  1  0
  8 33  1  0
  8 34  1  0
  9 35  1  0
 10 36  1  0
 10 37  1  0
 11 38  1  0
 11 39  1  0
 12 40  1  0
 12 41  1  0
 13 42  1  0
 14 43  1  0
 14 44  1  0
 15 45  1  0
 16 46  1  0
 16 47  1  0
 16 48  1  0
 17 49  1  0
 17 50  1  0
 17 51  1  0
 18 52  1  0
 18 53  1  0
 18 54  1  0
 19 55  1  0
 19 56  1  0
 19 57  1  0
 20 58  1  0
 20 59  1  0
 20 60  1  0
 21 61  1  0
 22 62  1  0
M  END
>  <PDBID>  (1) 
5M24

>  <PDB ID>  (1) 
5M24

>  <Generic Name>  (1) 
Alitretinoin

>  <Brand Name>  (1) 
Panretin#Toctino

>  <DrugBank ID>  (1) 
DB00523

>  <ATC Codes>  (1) 
D11AH04#L01XX22

>  <Ligand ID>  (1) 
9CR

>  <Target Name>  (1) 
Retinoic acid receptor gamma

>  <UniProt ID>  (1) 
P13631

>  <PDB ID.1>  (1) 
5M24

>  <Seq. Identity>  (1) 
93%

$$$$
