PDB_DB00586_95
     RDKit          3D

 30 31  0  0  0  0  0  0  0  0999 V2000
   58.6680   46.2570   79.6080 C   0  0  0  0  0  0  0  0  0  0  0  0
   58.8730   45.1310   78.7660 C   0  0  0  0  0  0  0  0  0  0  0  0
   60.4940   44.9640   78.1570 Cl  0  0  0  0  0  0  0  0  0  0  0  0
   57.7850   44.3290   78.3470 C   0  0  0  0  0  0  0  0  0  0  0  0
   56.4750   44.7220   78.8010 C   0  0  0  0  0  0  0  0  0  0  0  0
   55.0500   43.8280   78.3660 Cl  0  0  0  0  0  0  0  0  0  0  0  0
   56.2870   45.8500   79.6220 C   0  0  0  0  0  0  0  0  0  0  0  0
   57.3850   46.6200   80.0230 C   0  0  0  0  0  0  0  0  0  0  0  0
   57.8220   43.1470   77.5060 N   0  0  0  0  0  0  0  0  0  0  0  0
   58.4110   41.9010   75.4690 C   0  0  0  0  0  0  0  0  0  0  0  0
   58.3430   43.1030   76.1960 C   0  0  0  0  0  0  0  0  0  0  0  0
   58.7140   44.3140   75.5830 C   0  0  0  0  0  0  0  0  0  0  0  0
   59.1750   44.3310   74.2690 C   0  0  0  0  0  0  0  0  0  0  0  0
   59.2710   43.1410   73.5530 C   0  0  0  0  0  0  0  0  0  0  0  0
   58.9020   41.9380   74.1460 C   0  0  0  0  0  0  0  0  0  0  0  0
   57.8820   40.6040   76.0040 C   0  0  0  0  0  0  0  0  0  0  0  0
   56.3900   40.5600   76.0700 C   0  0  0  0  0  0  0  0  0  0  0  0
   55.6860   39.8690   75.3340 O   0  0  0  0  0  0  0  0  0  0  0  0
   55.8720   41.3620   77.0130 O   0  0  0  0  0  0  0  0  0  0  0  0
   59.5327   46.8516   79.9378 H   0  0  0  0  0  0  0  0  0  0  0  0
   55.2741   46.1272   79.9494 H   0  0  0  0  0  0  0  0  0  0  0  0
   57.2383   47.5045   80.6603 H   0  0  0  0  0  0  0  0  0  0  0  0
   57.4387   42.2738   77.8953 H   0  0  0  0  0  0  0  0  0  0  0  0
   58.6392   45.2556   76.1467 H   0  0  0  0  0  0  0  0  0  0  0  0
   59.4626   45.2825   73.7980 H   0  0  0  0  0  0  0  0  0  0  0  0
   59.6393   43.1520   72.5165 H   0  0  0  0  0  0  0  0  0  0  0  0
   58.9941   41.0019   73.5757 H   0  0  0  0  0  0  0  0  0  0  0  0
   58.2273   39.7893   75.3505 H   0  0  0  0  0  0  0  0  0  0  0  0
   58.2583   40.4964   77.0320 H   0  0  0  0  0  0  0  0  0  0  0  0
   54.7010   39.8871   75.4315 H   0  0  0  0  0  0  0  0  0  0  0  0
  1  2  2  0
  2  3  1  0
  2  4  1  0
  4  5  2  0
  5  6  1  0
  5  7  1  0
  1  8  1  0
  7  8  2  0
  4  9  1  0
  9 11  1  0
 10 11  2  0
 11 12  1  0
 12 13  2  0
 13 14  1  0
 10 15  1  0
 14 15  2  0
 10 16  1  0
 16 17  1  0
 17 18  1  0
 17 19  2  0
  1 20  1  0
  7 21  1  0
  8 22  1  0
  9 23  1  0
 12 24  1  0
 13 25  1  0
 14 26  1  0
 15 27  1  0
 16 28  1  0
 16 29  1  0
 18 30  1  0
M  END
$$$$
