PDB_DB00755_89
     RDKit          3D

 50 50  0  0  0  0  0  0  0  0999 V2000
   68.4000   59.7750  100.9560 C   0  0  0  0  0  0  0  0  0  0  0  0
   69.3740   59.4990  102.1500 C   0  0  0  0  0  0  0  0  0  0  0  0
   70.8130   59.2960  101.7900 C   0  0  0  0  0  0  0  0  0  0  0  0
   71.0010   58.1610  100.8280 C   0  0  0  0  0  0  0  0  0  0  0  0
   69.9830   58.1520   99.6680 C   0  0  0  0  0  0  0  0  0  0  0  0
   68.7880   58.8790   99.7040 C   0  0  0  0  0  0  0  0  0  0  0  0
   67.7650   58.9160   98.6150 C   0  0  0  0  0  0  0  0  0  0  0  0
   67.9610   59.1850   97.3260 C   0  0  0  0  0  0  0  0  0  0  0  0
   66.9950   59.2240   96.2500 C   0  0  0  0  0  0  0  0  0  0  0  0
   67.4380   59.5070   94.9890 C   0  0  0  0  0  0  0  0  0  0  0  0
   68.8190   59.7960   94.5910 C   0  0  0  0  0  0  0  0  0  0  0  0
   69.0770   59.9990   93.2790 C   0  0  0  0  0  0  0  0  0  0  0  0
   70.3980   60.2780   92.7140 C   0  0  0  0  0  0  0  0  0  0  0  0
   70.4780   60.4140   91.3590 C   0  0  0  0  0  0  0  0  0  0  0  0
   71.6420   60.6560   90.4820 C   0  0  0  0  0  0  0  0  0  0  0  0
   68.5180   61.2700  100.6040 C   0  0  0  0  0  0  0  0  0  0  0  0
   66.9300   59.4780  101.4020 C   0  0  0  0  0  0  0  0  0  0  0  0
   70.5160   57.2500   98.5500 C   0  0  0  0  0  0  0  0  0  0  0  0
   65.5080   58.9310   96.5170 C   0  0  0  0  0  0  0  0  0  0  0  0
   71.6290   60.3720   93.6480 C   0  0  0  0  0  0  0  0  0  0  0  0
   71.5880   60.2140   89.3210 O   0  0  0  0  0  0  0  0  0  0  0  0
   72.6600   61.2650   90.9070 O   0  0  0  0  0  0  0  0  0  0  0  0
   69.3166   60.3567  102.8363 H   0  0  0  0  0  0  0  0  0  0  0  0
   69.0414   58.5473  102.5900 H   0  0  0  0  0  0  0  0  0  0  0  0
   71.1965   60.2183  101.3292 H   0  0  0  0  0  0  0  0  0  0  0  0
   71.3608   59.0517  102.7121 H   0  0  0  0  0  0  0  0  0  0  0  0
   72.0123   58.2321  100.4012 H   0  0  0  0  0  0  0  0  0  0  0  0
   70.8478   57.2314  101.3957 H   0  0  0  0  0  0  0  0  0  0  0  0
   66.7295   58.6952   98.9133 H   0  0  0  0  0  0  0  0  0  0  0  0
   68.9995   59.4081   97.0401 H   0  0  0  0  0  0  0  0  0  0  0  0
   66.6812   59.5193   94.1908 H   0  0  0  0  0  0  0  0  0  0  0  0
   69.6237   59.8464   95.3393 H   0  0  0  0  0  0  0  0  0  0  0  0
   68.2274   59.9506   92.5819 H   0  0  0  0  0  0  0  0  0  0  0  0
   69.5162   60.3294   90.8319 H   0  0  0  0  0  0  0  0  0  0  0  0
   68.5647   61.8621  101.5299 H   0  0  0  0  0  0  0  0  0  0  0  0
   69.4321   61.4371  100.0154 H   0  0  0  0  0  0  0  0  0  0  0  0
   67.6414   61.5784  100.0154 H   0  0  0  0  0  0  0  0  0  0  0  0
   66.8753   59.4669  102.5006 H   0  0  0  0  0  0  0  0  0  0  0  0
   66.2628   60.2595  101.0095 H   0  0  0  0  0  0  0  0  0  0  0  0
   66.6185   58.4988  101.0095 H   0  0  0  0  0  0  0  0  0  0  0  0
   71.0285   56.3827   98.9916 H   0  0  0  0  0  0  0  0  0  0  0  0
   69.6778   56.9030   97.9279 H   0  0  0  0  0  0  0  0  0  0  0  0
   71.2243   57.8168   97.9279 H   0  0  0  0  0  0  0  0  0  0  0  0
   65.3302   58.8960   97.6020 H   0  0  0  0  0  0  0  0  0  0  0  0
   64.8918   59.7250   96.0699 H   0  0  0  0  0  0  0  0  0  0  0  0
   65.2391   57.9626   96.0699 H   0  0  0  0  0  0  0  0  0  0  0  0
   71.2967   60.3466   94.6963 H   0  0  0  0  0  0  0  0  0  0  0  0
   72.3009   59.5225   93.4557 H   0  0  0  0  0  0  0  0  0  0  0  0
   72.1641   61.3136   93.4557 H   0  0  0  0  0  0  0  0  0  0  0  0
   73.4316   61.4189   90.3061 H   0  0  0  0  0  0  0  0  0  0  0  0
  1  2  1  0
  2  3  1  0
  3  4  1  0
  4  5  1  0
  1  6  1  0
  5  6  2  0
  6  7  1  0
  7  8  2  0
  8  9  1  0
  9 10  2  0
 10 11  1  0
 11 12  2  0
 12 13  1  0
 13 14  2  0
 14 15  1  0
  1 16  1  0
  1 17  1  0
  5 18  1  0
  9 19  1  0
 13 20  1  0
 15 21  2  0
 15 22  1  0
  2 23  1  0
  2 24  1  0
  3 25  1  0
  3 26  1  0
  4 27  1  0
  4 28  1  0
  7 29  1  0
  8 30  1  0
 10 31  1  0
 11 32  1  0
 12 33  1  0
 14 34  1  0
 16 35  1  0
 16 36  1  0
 16 37  1  0
 17 38  1  0
 17 39  1  0
 17 40  1  0
 18 41  1  0
 18 42  1  0
 18 43  1  0
 19 44  1  0
 19 45  1  0
 19 46  1  0
 20 47  1  0
 20 48  1  0
 20 49  1  0
 22 50  1  0
M  END
$$$$
