PDB_DB08809_98
     RDKit          3D

 10  9  0  0  0  0  0  0  0  0999 V2000
   57.1180   44.6190   80.9310 C   0  0  2  0  0  0  0  0  0  0  0  0
   55.5740   44.4910   80.7670 C   0  0  0  0  0  0  0  0  0  0  0  0
   55.0510   43.8820   79.8990 O   0  0  0  0  0  0  0  0  0  0  0  0
   57.6580   45.4670   82.3890 Cl  0  0  0  0  0  0  0  0  0  0  0  0
   57.8560   45.3500   79.5020 Cl  0  0  0  0  0  0  0  0  0  0  0  0
   54.8320   45.0800   81.6980 O   0  0  0  0  0  0  0  0  0  0  0  0
   57.4619   43.5806   81.0474 H   0  0  0  0  0  0  0  0  0  0  0  0
   55.5659   45.3937   80.1385 H   0  0  0  0  0  0  0  0  0  0  0  0
   54.4586   43.1922   80.2905 H   0  0  0  0  0  0  0  0  0  0  0  0
   55.1601   44.8196   82.5950 H   0  0  0  0  0  0  0  0  0  0  0  0
  1  2  1  0
  2  3  1  0
  1  4  1  0
  1  5  1  0
  2  6  1  0
  1  7  1  1
  2  8  1  0
  3  9  1  0
  6 10  1  0
M  END
>  <PDBID>  (1) 
2BU8

>  <PDB ID>  (1) 
2BU8

>  <Generic Name>  (1) 
Dichloroacetic Acid

>  <Brand Name>  (1) 
Bichloracetic Acid 100%

>  <DrugBank ID>  (1) 
DB08809

>  <ATC Codes>  (1) 
nan

>  <Ligand ID>  (1) 
TF4

>  <Target Name>  (1) 
[Pyruvate dehydrogenase (acetyl-transferring)] kinase isozyme 1, mitochondrial

>  <UniProt ID>  (1) 
Q15118

>  <PDB ID.1>  (1) 
2BU8

>  <Seq. Identity>  (1) 
70%

$$$$
