PDB_DB09462_96
     RDKit          3D

 14 13  0  0  0  0  0  0  0  0999 V2000
   41.4200  -27.4300    7.9630 C   0  0  0  0  0  0  0  0  0  0  0  0
   42.1730  -26.2550    8.1700 O   0  0  0  0  0  0  0  0  0  0  0  0
   41.6710  -28.4120    9.1030 C   0  0  0  0  0  0  0  0  0  0  0  0
   42.7020  -27.9310    9.9410 O   0  0  0  0  0  0  0  0  0  0  0  0
   42.0500  -29.7790    8.5420 C   0  0  0  0  0  0  0  0  0  0  0  0
   40.8960  -30.4360    8.0610 O   0  0  0  0  0  0  0  0  0  0  0  0
   40.3501  -27.1767    7.9281 H   0  0  0  0  0  0  0  0  0  0  0  0
   41.7226  -27.8925    7.0119 H   0  0  0  0  0  0  0  0  0  0  0  0
   42.2752  -26.0955    9.1417 H   0  0  0  0  0  0  0  0  0  0  0  0
   40.7490  -28.5118    9.6946 H   0  0  0  0  0  0  0  0  0  0  0  0
   42.4411  -28.0527   10.8882 H   0  0  0  0  0  0  0  0  0  0  0  0
   42.7666  -29.6494    7.7176 H   0  0  0  0  0  0  0  0  0  0  0  0
   42.5068  -30.3844    9.3388 H   0  0  0  0  0  0  0  0  0  0  0  0
   40.3501  -30.7468    8.8262 H   0  0  0  0  0  0  0  0  0  0  0  0
  1  2  1  0
  1  3  1  0
  3  4  1  0
  3  5  1  0
  5  6  1  0
  1  7  1  0
  1  8  1  0
  2  9  1  0
  3 10  1  0
  4 11  1  0
  5 12  1  0
  5 13  1  0
  6 14  1  0
M  END
$$$$
