PDB_DB01137_94
     RDKit          3D

 46 49  0  0  0  0  0  0  0  0999 V2000
  -37.3720   56.4300  -33.0180 C   0  0  0  0  0  0  0  0  0  0  0  0
  -37.9480   57.0460  -40.1930 F   0  0  0  0  0  0  0  0  0  0  0  0
  -41.3450   53.5010  -41.9970 N   0  0  0  0  0  0  0  0  0  0  0  0
  -37.4620   55.7180  -32.0300 O   0  0  0  0  0  0  0  0  0  0  0  0
  -40.2730   55.6040  -41.1770 C   0  0  0  0  0  0  0  0  0  0  0  0
  -39.3600   54.6720  -40.4620 N   0  0  0  0  0  0  0  0  0  0  0  0
  -39.6080   53.2780  -38.0270 O   0  0  0  0  0  0  0  0  0  0  0  0
  -38.9560   53.4410  -41.1920 C   0  0  0  0  0  0  0  0  0  0  0  0
  -38.7930   54.1970  -35.5820 N   0  0  0  0  0  0  0  0  0  0  0  0
  -37.0030   57.7960  -35.3820 O   0  0  0  0  0  0  0  0  0  0  0  0
  -39.6260   53.0170  -35.5990 C   0  0  2  0  0  0  0  0  0  0  0  0
  -37.5220   57.6360  -32.7690 O   0  0  0  0  0  0  0  0  0  0  0  0
  -38.8310   55.1130  -39.2040 C   0  0  0  0  0  0  0  0  0  0  0  0
  -38.5980   54.9170  -36.7410 C   0  0  0  0  0  0  0  0  0  0  0  0
  -39.0490   54.4100  -37.9930 C   0  0  0  0  0  0  0  0  0  0  0  0
  -41.5940   54.9110  -41.5900 C   0  0  0  0  0  0  0  0  0  0  0  0
  -39.9210   53.2510  -42.4000 C   0  0  0  0  0  0  0  0  0  0  0  0
  -39.6970   52.3850  -37.0320 C   0  0  0  0  0  0  0  0  0  0  0  0
  -37.9490   56.1720  -36.7010 C   0  0  0  0  0  0  0  0  0  0  0  0
  -38.1870   56.3590  -39.1210 C   0  0  0  0  0  0  0  0  0  0  0  0
  -38.3700   54.6780  -34.3740 C   0  0  0  0  0  0  0  0  0  0  0  0
  -37.7930   56.9030  -37.8950 C   0  0  0  0  0  0  0  0  0  0  0  0
  -41.0550   53.4150  -35.0630 C   0  0  0  0  0  0  0  0  0  0  0  0
  -37.5240   56.6590  -35.4480 C   0  0  0  0  0  0  0  0  0  0  0  0
  -42.4500   52.8380  -42.7590 C   0  0  0  0  0  0  0  0  0  0  0  0
  -37.7230   55.9210  -34.2640 C   0  0  0  0  0  0  0  0  0  0  0  0
  -37.3584   54.7372  -32.1156 H   0  0  0  0  0  0  0  0  0  0  0  0
  -40.5070   56.4508  -40.5151 H   0  0  0  0  0  0  0  0  0  0  0  0
  -39.7656   55.9452  -42.0914 H   0  0  0  0  0  0  0  0  0  0  0  0
  -37.9226   53.5453  -41.5541 H   0  0  0  0  0  0  0  0  0  0  0  0
  -39.0086   52.5690  -40.5235 H   0  0  0  0  0  0  0  0  0  0  0  0
  -39.1917   52.2448  -34.9470 H   0  0  0  0  0  0  0  0  0  0  0  0
  -42.0393   55.4571  -42.4347 H   0  0  0  0  0  0  0  0  0  0  0  0
  -42.2787   54.9144  -40.7291 H   0  0  0  0  0  0  0  0  0  0  0  0
  -39.8291   52.2210  -42.7750 H   0  0  0  0  0  0  0  0  0  0  0  0
  -39.6472   53.9729  -43.1835 H   0  0  0  0  0  0  0  0  0  0  0  0
  -40.6555   51.8540  -37.1286 H   0  0  0  0  0  0  0  0  0  0  0  0
  -38.8298   51.7151  -37.1274 H   0  0  0  0  0  0  0  0  0  0  0  0
  -38.5399   54.0785  -33.4675 H   0  0  0  0  0  0  0  0  0  0  0  0
  -37.3567   57.9122  -37.8623 H   0  0  0  0  0  0  0  0  0  0  0  0
  -41.0477   53.4130  -33.9630 H   0  0  0  0  0  0  0  0  0  0  0  0
  -41.3160   54.4200  -35.4261 H   0  0  0  0  0  0  0  0  0  0  0  0
  -41.7979   52.6896  -35.4261 H   0  0  0  0  0  0  0  0  0  0  0  0
  -43.1733   52.4040  -42.0529 H   0  0  0  0  0  0  0  0  0  0  0  0
  -42.9564   53.5816  -43.3920 H   0  0  0  0  0  0  0  0  0  0  0  0
  -42.0322   52.0413  -43.3920 H   0  0  0  0  0  0  0  0  0  0  0  0
  1  4  1  0
  5  6  1  0
  6  8  1  0
  9 11  1  0
  1 12  2  0
  6 13  1  0
  9 14  1  0
  7 15  1  0
 13 15  1  0
 14 15  2  0
  3 16  1  0
  5 16  1  0
  3 17  1  0
  8 17  1  0
  7 18  1  0
 11 18  1  0
 14 19  1  0
  2 20  1  0
 13 20  2  0
  9 21  1  0
 19 22  2  0
 20 22  1  0
 11 23  1  0
 10 24  2  0
 19 24  1  0
  3 25  1  0
  1 26  1  0
 21 26  2  0
 24 26  1  0
  4 27  1  0
  5 28  1  0
  5 29  1  0
  8 30  1  0
  8 31  1  0
 11 32  1  1
 16 33  1  0
 16 34  1  0
 17 35  1  0
 17 36  1  0
 18 37  1  0
 18 38  1  0
 21 39  1  0
 22 40  1  0
 23 41  1  0
 23 42  1  0
 23 43  1  0
 25 44  1  0
 25 45  1  0
 25 46  1  0
M  END
$$$$
