PDB_DB00360_97
     RDKit          3D

 38 39  0  0  0  0  0  0  0  0999 V2000
   -4.8370   21.7930    8.0010 N   0  0  0  0  0  0  0  0  0  0  0  0
   -3.8580   20.9680    8.4830 C   0  0  0  0  0  0  0  0  0  0  0  0
   -4.0930   19.7480    8.9280 N   0  0  0  0  0  0  0  0  0  0  0  0
   -2.5630   21.4530    8.4820 N   0  0  0  0  0  0  0  0  0  0  0  0
   -2.1730   22.7620    8.0280 C   0  0  0  0  0  0  0  0  0  0  0  0
   -0.9830   23.0640    8.0750 O   0  0  0  0  0  0  0  0  0  0  0  0
   -3.2620   23.5610    7.5370 C   0  0  0  0  0  0  0  0  0  0  0  0
   -4.5880   23.0840    7.5370 C   0  0  0  0  0  0  0  0  0  0  0  0
   -2.9810   24.9140    7.0430 N   0  0  0  0  0  0  0  0  0  0  0  0
   -5.6180   23.8380    7.0670 N   0  0  0  0  0  0  0  0  0  0  0  0
   -4.1690   25.8890    7.1640 C   0  0  2  0  0  0  0  0  0  0  0  0
   -5.4140   25.2270    6.5510 C   0  0  0  0  0  0  0  0  0  0  0  0
   -3.6450   27.2240    6.5110 C   0  0  1  0  0  0  0  0  0  0  0  0
   -3.2290   27.0210    5.1550 O   0  0  0  0  0  0  0  0  0  0  0  0
   -4.6780   28.4220    6.4860 C   0  0  2  0  0  0  0  0  0  0  0  0
   -5.1480   28.8270    7.8510 C   0  0  0  0  0  0  0  0  0  0  0  0
   -5.7800   28.0280    5.6620 O   0  0  0  0  0  0  0  0  0  0  0  0
   -5.2700   21.2884    7.2144 H   0  0  0  0  0  0  0  0  0  0  0  0
   -4.0190   21.3681    9.4949 H   0  0  0  0  0  0  0  0  0  0  0  0
   -4.0922   19.7521    9.9580 H   0  0  0  0  0  0  0  0  0  0  0  0
   -5.0109   19.4289    8.5867 H   0  0  0  0  0  0  0  0  0  0  0  0
   -2.2476   21.3964    9.4609 H   0  0  0  0  0  0  0  0  0  0  0  0
   -2.3133   23.1566    9.0452 H   0  0  0  0  0  0  0  0  0  0  0  0
   -0.6980   23.1363    9.0203 H   0  0  0  0  0  0  0  0  0  0  0  0
   -3.1126   23.1456    6.5295 H   0  0  0  0  0  0  0  0  0  0  0  0
   -4.7294   23.4770    8.5546 H   0  0  0  0  0  0  0  0  0  0  0  0
   -2.1918   25.2976    7.5823 H   0  0  0  0  0  0  0  0  0  0  0  0
   -6.0379   23.3023    6.2939 H   0  0  0  0  0  0  0  0  0  0  0  0
   -4.5041   26.1355    8.1823 H   0  0  0  0  0  0  0  0  0  0  0  0
   -5.2937   25.1864    5.4584 H   0  0  0  0  0  0  0  0  0  0  0  0
   -6.2922   25.8272    6.8311 H   0  0  0  0  0  0  0  0  0  0  0  0
   -2.8092   27.5025    7.1697 H   0  0  0  0  0  0  0  0  0  0  0  0
   -2.3393   26.5869    5.1442 H   0  0  0  0  0  0  0  0  0  0  0  0
   -4.1759   29.3113    6.0772 H   0  0  0  0  0  0  0  0  0  0  0  0
   -4.5477   28.3097    8.6139 H   0  0  0  0  0  0  0  0  0  0  0  0
   -5.0343   29.9146    7.9702 H   0  0  0  0  0  0  0  0  0  0  0  0
   -6.2068   28.5538    7.9702 H   0  0  0  0  0  0  0  0  0  0  0  0
   -6.5401   27.7563    6.2352 H   0  0  0  0  0  0  0  0  0  0  0  0
  1  2  1  0
  2  3  1  0
  2  4  1  0
  4  5  1  0
  5  6  1  0
  5  7  1  0
  1  8  1  0
  7  8  1  0
  7  9  1  0
  8 10  1  0
  9 11  1  0
 10 12  1  0
 11 12  1  0
 11 13  1  0
 13 14  1  0
 13 15  1  0
 15 16  1  0
 15 17  1  0
  1 18  1  0
  2 19  1  0
  3 20  1  0
  3 21  1  0
  4 22  1  0
  5 23  1  0
  6 24  1  0
  7 25  1  0
  8 26  1  0
  9 27  1  0
 10 28  1  0
 11 29  1  1
 12 30  1  0
 12 31  1  0
 13 32  1  1
 14 33  1  0
 15 34  1  6
 16 35  1  0
 16 36  1  0
 16 37  1  0
 17 38  1  0
M  END
>  <PDBID>  (1) 
1KW0

>  <PDB ID>  (1) 
1KW0

>  <Generic Name>  (1) 
Sapropterin

>  <Brand Name>  (1) 
Kuvan#BH4#Biopten

>  <DrugBank ID>  (1) 
DB00360

>  <ATC Codes>  (1) 
A16AX07

>  <Ligand ID>  (1) 
BH4,BHS,H4B,THB

>  <Target Name>  (1) 
Tryptophan 5-hydroxylase 1

>  <UniProt ID>  (1) 
P17752

>  <PDB ID.1>  (1) 
1KW0

>  <Seq. Identity>  (1) 
65%

$$$$
