PDB_DB00674_99
     RDKit          3D

 42 45  0  0  0  0  0  0  0  0999 V2000
   -9.6990  -43.4080   32.4090 C   0  0  0  0  0  0  0  0  0  0  0  0
   -8.5070  -43.1600   32.9410 C   0  0  0  0  0  0  0  0  0  0  0  0
   -7.2150  -43.7890   32.4760 C   0  0  1  0  0  0  0  0  0  0  0  0
   -7.5140  -45.1090   31.7730 C   0  0  0  0  0  0  0  0  0  0  0  0
   -8.6190  -44.9810   30.7300 C   0  0  1  0  0  0  0  0  0  0  0  0
   -9.9290  -44.3330   31.2230 C   0  0  1  0  0  0  0  0  0  0  0  0
   -8.1850  -44.2210   29.5900 O   0  0  0  0  0  0  0  0  0  0  0  0
   -9.3180  -42.6300   27.9300 C   0  0  0  0  0  0  0  0  0  0  0  0
  -10.5070  -41.9130   27.7330 C   0  0  0  0  0  0  0  0  0  0  0  0
  -11.5720  -41.9400   28.6500 C   0  0  0  0  0  0  0  0  0  0  0  0
  -12.6840  -42.7100   30.8080 C   0  0  0  0  0  0  0  0  0  0  0  0
  -13.1180  -44.1010   31.0540 N   0  0  0  0  0  0  0  0  0  0  0  0
  -12.2660  -44.7480   32.0580 C   0  0  0  0  0  0  0  0  0  0  0  0
  -11.0180  -45.3810   31.4570 C   0  0  0  0  0  0  0  0  0  0  0  0
   -9.2000  -43.4300   29.1520 C   0  0  0  0  0  0  0  0  0  0  0  0
  -10.2990  -43.4630   30.0830 C   0  0  0  0  0  0  0  0  0  0  0  0
  -11.5260  -42.6830   29.8340 C   0  0  0  0  0  0  0  0  0  0  0  0
   -8.3430  -41.6700   25.9660 C   0  0  0  0  0  0  0  0  0  0  0  0
   -8.2840  -42.6030   27.0370 O   0  0  0  0  0  0  0  0  0  0  0  0
   -6.4910  -42.8850   31.6190 O   0  0  0  0  0  0  0  0  0  0  0  0
  -14.4930  -44.0840   31.5840 C   0  0  0  0  0  0  0  0  0  0  0  0
  -10.5749  -42.9133   32.8541 H   0  0  0  0  0  0  0  0  0  0  0  0
   -8.4577  -42.4476   33.7777 H   0  0  0  0  0  0  0  0  0  0  0  0
   -6.5758  -43.9967   33.3468 H   0  0  0  0  0  0  0  0  0  0  0  0
   -6.5977  -45.4580   31.2744 H   0  0  0  0  0  0  0  0  0  0  0  0
   -7.8576  -45.8226   32.5364 H   0  0  0  0  0  0  0  0  0  0  0  0
   -8.8339  -46.0292   30.4750 H   0  0  0  0  0  0  0  0  0  0  0  0
  -10.6105  -41.3040   26.8228 H   0  0  0  0  0  0  0  0  0  0  0  0
  -12.4762  -41.3543   28.4279 H   0  0  0  0  0  0  0  0  0  0  0  0
  -13.5240  -42.1371   30.3883 H   0  0  0  0  0  0  0  0  0  0  0  0
  -12.3601  -42.2637   31.7598 H   0  0  0  0  0  0  0  0  0  0  0  0
  -11.9562  -43.9924   32.7949 H   0  0  0  0  0  0  0  0  0  0  0  0
  -12.8547  -45.5538   32.5207 H   0  0  0  0  0  0  0  0  0  0  0  0
  -11.2792  -45.8488   30.4963 H   0  0  0  0  0  0  0  0  0  0  0  0
  -10.6337  -46.1339   32.1610 H   0  0  0  0  0  0  0  0  0  0  0  0
   -8.4075  -40.6496   26.3718 H   0  0  0  0  0  0  0  0  0  0  0  0
   -7.4372  -41.7626   25.3488 H   0  0  0  0  0  0  0  0  0  0  0  0
   -9.2299  -41.8759   25.3488 H   0  0  0  0  0  0  0  0  0  0  0  0
   -5.9781  -42.2446   32.1730 H   0  0  0  0  0  0  0  0  0  0  0  0
  -14.4622  -44.0844   32.6836 H   0  0  0  0  0  0  0  0  0  0  0  0
  -15.0105  -43.1794   31.2320 H   0  0  0  0  0  0  0  0  0  0  0  0
  -15.0327  -44.9755   31.2320 H   0  0  0  0  0  0  0  0  0  0  0  0
  1  2  2  0
  2  3  1  0
  3  4  1  0
  4  5  1  0
  6  1  1  1
  5  6  1  0
  5  7  1  0
  8  9  2  0
  9 10  1  0
 11 12  1  0
 12 13  1  0
  6 14  1  0
 13 14  1  0
  7 15  1  0
  8 15  1  0
  6 16  1  0
 15 16  2  0
 10 17  2  0
 11 17  1  0
 16 17  1  0
  8 19  1  0
 18 19  1  0
  3 20  1  0
 12 21  1  0
  1 22  1  0
  2 23  1  0
  3 24  1  1
  4 25  1  0
  4 26  1  0
  5 27  1  6
  9 28  1  0
 10 29  1  0
 11 30  1  0
 11 31  1  0
 13 32  1  0
 13 33  1  0
 14 34  1  0
 14 35  1  0
 18 36  1  0
 18 37  1  0
 18 38  1  0
 20 39  1  0
 21 40  1  0
 21 41  1  0
 21 42  1  0
M  END
$$$$
