PDB_DB01137_90
     RDKit          3D

 46 49  0  0  0  0  0  0  0  0999 V2000
  151.8890  -14.0640   51.2830 C   0  0  0  0  0  0  0  0  0  0  0  0
  146.0410  -13.5850   46.6790 F   0  0  0  0  0  0  0  0  0  0  0  0
  143.5000  -10.0080   45.7420 N   0  0  0  0  0  0  0  0  0  0  0  0
  152.2860  -15.2300   50.9450 O   0  0  0  0  0  0  0  0  0  0  0  0
  144.2360  -11.2010   47.7800 C   0  0  0  0  0  0  0  0  0  0  0  0
  145.6220  -10.9420   47.3930 N   0  0  0  0  0  0  0  0  0  0  0  0
  147.3730   -9.8910   49.2680 O   0  0  0  0  0  0  0  0  0  0  0  0
  145.8440   -9.7620   46.5540 C   0  0  0  0  0  0  0  0  0  0  0  0
  149.4580  -11.4010   50.3580 N   0  0  0  0  0  0  0  0  0  0  0  0
  150.0360  -15.3320   49.2570 O   0  0  0  0  0  0  0  0  0  0  0  0
  149.2780   -9.9900   50.7650 C   0  0  2  0  0  0  0  0  0  0  0  0
  152.4350  -13.3740   52.1790 O   0  0  0  0  0  0  0  0  0  0  0  0
  146.6690  -11.7040   47.9470 C   0  0  0  0  0  0  0  0  0  0  0  0
  148.6000  -11.9670   49.4260 C   0  0  0  0  0  0  0  0  0  0  0  0
  147.5630  -11.1820   48.8800 C   0  0  0  0  0  0  0  0  0  0  0  0
  143.3280  -11.1880   46.5750 C   0  0  0  0  0  0  0  0  0  0  0  0
  144.8880   -9.7700   45.3710 C   0  0  0  0  0  0  0  0  0  0  0  0
  148.5900   -9.2390   49.6570 C   0  0  0  0  0  0  0  0  0  0  0  0
  148.7850  -13.3020   49.0440 C   0  0  0  0  0  0  0  0  0  0  0  0
  146.8950  -13.0500   47.5960 C   0  0  0  0  0  0  0  0  0  0  0  0
  150.4510  -12.1380   50.8770 C   0  0  0  0  0  0  0  0  0  0  0  0
  147.8910  -13.8450   48.0990 C   0  0  0  0  0  0  0  0  0  0  0  0
  150.6180   -9.3140   51.0050 C   0  0  0  0  0  0  0  0  0  0  0  0
  149.8830  -14.1250   49.6150 C   0  0  0  0  0  0  0  0  0  0  0  0
  142.9060   -8.8370   46.3670 C   0  0  0  0  0  0  0  0  0  0  0  0
  150.7180  -13.4500   50.5700 C   0  0  0  0  0  0  0  0  0  0  0  0
  151.8137  -15.7258   50.2300 H   0  0  0  0  0  0  0  0  0  0  0  0
  144.1759  -12.1863   48.2654 H   0  0  0  0  0  0  0  0  0  0  0  0
  143.9114  -10.4105   48.4726 H   0  0  0  0  0  0  0  0  0  0  0  0
  145.6745   -8.8543   47.1518 H   0  0  0  0  0  0  0  0  0  0  0  0
  146.8781   -9.7779   46.1794 H   0  0  0  0  0  0  0  0  0  0  0  0
  148.6851   -9.9792   51.6915 H   0  0  0  0  0  0  0  0  0  0  0  0
  142.2849  -11.2218   46.9226 H   0  0  0  0  0  0  0  0  0  0  0  0
  143.5867  -12.0630   45.9606 H   0  0  0  0  0  0  0  0  0  0  0  0
  145.2024  -10.5623   44.6757 H   0  0  0  0  0  0  0  0  0  0  0  0
  144.9321   -8.7699   44.9151 H   0  0  0  0  0  0  0  0  0  0  0  0
  149.2623   -9.1856   48.7880 H   0  0  0  0  0  0  0  0  0  0  0  0
  148.3447   -8.2298   50.0194 H   0  0  0  0  0  0  0  0  0  0  0  0
  151.1082  -11.6499   51.6117 H   0  0  0  0  0  0  0  0  0  0  0  0
  147.9914  -14.8901   47.7708 H   0  0  0  0  0  0  0  0  0  0  0  0
  150.7950   -9.2247   52.0870 H   0  0  0  0  0  0  0  0  0  0  0  0
  151.4189   -9.9159   50.5509 H   0  0  0  0  0  0  0  0  0  0  0  0
  150.6098   -8.3122   50.5509 H   0  0  0  0  0  0  0  0  0  0  0  0
  142.9579   -8.9393   47.4610 H   0  0  0  0  0  0  0  0  0  0  0  0
  143.4564   -7.9367   46.0564 H   0  0  0  0  0  0  0  0  0  0  0  0
  141.8544   -8.7493   46.0564 H   0  0  0  0  0  0  0  0  0  0  0  0
  1  4  1  0
  5  6  1  0
  6  8  1  0
  9 11  1  0
  1 12  2  0
  6 13  1  0
  9 14  1  0
  7 15  1  0
 13 15  1  0
 14 15  2  0
  3 16  1  0
  5 16  1  0
  3 17  1  0
  8 17  1  0
  7 18  1  0
 11 18  1  0
 14 19  1  0
  2 20  1  0
 13 20  2  0
  9 21  1  0
 19 22  2  0
 20 22  1  0
 11 23  1  0
 19 24  1  0
 24 10  2  0
  3 25  1  0
  1 26  1  0
 21 26  2  0
 24 26  1  0
  4 27  1  0
  5 28  1  0
  5 29  1  0
  8 30  1  0
  8 31  1  0
 11 32  1  1
 16 33  1  0
 16 34  1  0
 17 35  1  0
 17 36  1  0
 18 37  1  0
 18 38  1  0
 21 39  1  0
 22 40  1  0
 23 41  1  0
 23 42  1  0
 23 43  1  0
 25 44  1  0
 25 45  1  0
 25 46  1  0
M  END
$$$$
