PDB_DB00311_96
     RDKit          3D

144148  0  0  0  0  0  0  0  0999 V2000
   32.9870    8.4420   18.4240 N   0  0  0  0  0  0  0  0  0  0  0  0
   36.6040    8.9220   20.7360 C   0  0  0  0  0  0  0  0  0  0  0  0
   36.9790   10.2680   20.3000 C   0  0  0  0  0  0  0  0  0  0  0  0
   38.2630   10.7380   20.5290 C   0  0  0  0  0  0  0  0  0  0  0  0
   39.2010    9.9130   21.1520 C   0  0  0  0  0  0  0  0  0  0  0  0
   41.2230   11.2390   20.6100 C   0  0  0  0  0  0  0  0  0  0  0  0
   32.7880   10.9950   18.7310 O   0  0  0  0  0  0  0  0  0  0  0  0
   32.3230    9.4870   20.4550 O   0  0  0  0  0  0  0  0  0  0  0  0
   33.1670    9.7430   19.3210 S   0  0  1  0  0  4  0  0  0  0  0  0
   34.7640    9.7850   19.7990 C   0  0  0  0  0  0  0  0  0  0  0  0
   35.3140    8.7090   20.4050 N   0  0  0  0  0  0  0  0  0  0  0  0
   35.7760   11.1910   19.5750 S   0  0  0  0  0  0  0  0  0  0  0  0
   38.8570    8.6210   21.5550 C   0  0  0  0  0  0  0  0  0  0  0  0
   37.5750    8.1380   21.3550 C   0  0  0  0  0  0  0  0  0  0  0  0
   40.4930   10.3040   21.4100 O   0  0  0  0  0  0  0  0  0  0  0  0
   42.5900   10.6700   20.2760 C   0  0  0  0  0  0  0  0  0  0  0  0
   30.6440   -9.6930  -22.2550 N   0  0  0  0  0  0  0  0  0  0  0  0
   34.1830  -10.0450  -24.8940 C   0  0  0  0  0  0  0  0  0  0  0  0
   34.7460  -11.2840  -24.3380 C   0  0  0  0  0  0  0  0  0  0  0  0
   36.0780  -11.6390  -24.6220 C   0  0  0  0  0  0  0  0  0  0  0  0
   36.8610  -10.8020  -25.4440 C   0  0  0  0  0  0  0  0  0  0  0  0
   38.6470  -12.2890  -26.2250 C   0  0  0  0  0  0  0  0  0  0  0  0
   30.6060  -12.2210  -22.5080 O   0  0  0  0  0  0  0  0  0  0  0  0
   30.1050  -10.7620  -24.3130 O   0  0  0  0  0  0  0  0  0  0  0  0
   30.9230  -10.9710  -23.1540 S   0  0  1  0  0  4  0  0  0  0  0  0
   32.4930  -10.9100  -23.7250 C   0  0  0  0  0  0  0  0  0  0  0  0
   32.9060   -9.8940  -24.5020 N   0  0  0  0  0  0  0  0  0  0  0  0
   33.6540  -12.1510  -23.3920 S   0  0  0  0  0  0  0  0  0  0  0  0
   36.3280   -9.6400  -25.9710 C   0  0  0  0  0  0  0  0  0  0  0  0
   35.0120   -9.2880  -25.7080 C   0  0  0  0  0  0  0  0  0  0  0  0
   38.1670  -11.0220  -25.7670 O   0  0  0  0  0  0  0  0  0  0  0  0
   39.4810  -12.9340  -25.1290 C   0  0  0  0  0  0  0  0  0  0  0  0
    5.2330   16.2170  -17.8630 N   0  0  0  0  0  0  0  0  0  0  0  0
    4.5810   19.4790  -15.0420 C   0  0  0  0  0  0  0  0  0  0  0  0
    3.3580   20.0220  -15.6540 C   0  0  0  0  0  0  0  0  0  0  0  0
    2.9490   21.3270  -15.3380 C   0  0  0  0  0  0  0  0  0  0  0  0
    3.6980   22.1000  -14.4290 C   0  0  0  0  0  0  0  0  0  0  0  0
    2.1080   24.0180  -14.0190 C   0  0  0  0  0  0  0  0  0  0  0  0
    2.6760   16.1280  -17.8720 O   0  0  0  0  0  0  0  0  0  0  0  0
    3.9520   15.3450  -15.9940 O   0  0  0  0  0  0  0  0  0  0  0  0
    3.8610   16.2990  -17.0600 S   0  0  1  0  0  4  0  0  0  0  0  0
    3.8140   17.8180  -16.3560 C   0  0  0  0  0  0  0  0  0  0  0  0
    4.7830   18.2100  -15.4940 N   0  0  0  0  0  0  0  0  0  0  0  0
    2.5380   18.9680  -16.7050 S   0  0  0  0  0  0  0  0  0  0  0  0
    4.8650   21.5890  -13.8510 C   0  0  0  0  0  0  0  0  0  0  0  0
    5.2880   20.2970  -14.1580 C   0  0  0  0  0  0  0  0  0  0  0  0
    3.3920   23.3950  -14.0770 O   0  0  0  0  0  0  0  0  0  0  0  0
    2.1120   25.2290  -14.9280 C   0  0  0  0  0  0  0  0  0  0  0  0
    5.0180  -16.8800   18.7550 N   0  0  0  0  0  0  0  0  0  0  0  0
    3.8800  -20.3280   16.4500 C   0  0  0  0  0  0  0  0  0  0  0  0
    2.5910  -20.6090   17.1020 C   0  0  0  0  0  0  0  0  0  0  0  0
    1.9920  -21.8510   16.9500 C   0  0  0  0  0  0  0  0  0  0  0  0
    2.5990  -22.8490   16.1710 C   0  0  0  0  0  0  0  0  0  0  0  0
    0.7810  -24.5920   16.4260 C   0  0  0  0  0  0  0  0  0  0  0  0
    2.5040  -16.4690   18.8630 O   0  0  0  0  0  0  0  0  0  0  0  0
    3.7810  -16.0920   16.8430 O   0  0  0  0  0  0  0  0  0  0  0  0
    3.5920  -16.9100   18.0220 S   0  0  1  0  0  4  0  0  0  0  0  0
    3.3200  -18.4680   17.5380 C   0  0  0  0  0  0  0  0  0  0  0  0
    4.2360  -19.0540   16.7500 N   0  0  0  0  0  0  0  0  0  0  0  0
    1.8910  -19.3740   18.0140 S   0  0  0  0  0  0  0  0  0  0  0  0
    3.8220  -22.5790   15.5470 C   0  0  0  0  0  0  0  0  0  0  0  0
    4.4540  -21.3400   15.6820 C   0  0  0  0  0  0  0  0  0  0  0  0
    2.0560  -24.1090   15.9950 O   0  0  0  0  0  0  0  0  0  0  0  0
    0.9820  -25.8380   17.2390 C   0  0  0  0  0  0  0  0  0  0  0  0
   32.8731    7.6186   19.0323 H   0  0  0  0  0  0  0  0  0  0  0  0
   32.1526    8.5477   17.8294 H   0  0  0  0  0  0  0  0  0  0  0  0
   36.2877    9.3254   21.7092 H   0  0  0  0  0  0  0  0  0  0  0  0
   36.6578   10.6721   21.2714 H   0  0  0  0  0  0  0  0  0  0  0  0
   38.6812   11.0134   19.5496 H   0  0  0  0  0  0  0  0  0  0  0  0
   38.1126   11.5494   21.2564 H   0  0  0  0  0  0  0  0  0  0  0  0
   38.8910   10.3016   22.1333 H   0  0  0  0  0  0  0  0  0  0  0  0
   40.6704   11.4331   19.6789 H   0  0  0  0  0  0  0  0  0  0  0  0
   41.3464   12.1781   21.1693 H   0  0  0  0  0  0  0  0  0  0  0  0
   32.5897   11.6502   19.4462 H   0  0  0  0  0  0  0  0  0  0  0  0
   32.8342    9.6421   21.2885 H   0  0  0  0  0  0  0  0  0  0  0  0
   34.4602   10.1817   20.7790 H   0  0  0  0  0  0  0  0  0  0  0  0
   35.2633    7.9041   19.7643 H   0  0  0  0  0  0  0  0  0  0  0  0
   39.5372    7.9355   21.0282 H   0  0  0  0  0  0  0  0  0  0  0  0
   38.9306    8.6772   22.6511 H   0  0  0  0  0  0  0  0  0  0  0  0
   37.1803    7.8764   22.3479 H   0  0  0  0  0  0  0  0  0  0  0  0
   37.7314    7.3265   20.6291 H   0  0  0  0  0  0  0  0  0  0  0  0
   43.1309   10.4449   21.2070 H   0  0  0  0  0  0  0  0  0  0  0  0
   42.4697    9.7472   19.6895 H   0  0  0  0  0  0  0  0  0  0  0  0
   43.1600   11.4056   19.6895 H   0  0  0  0  0  0  0  0  0  0  0  0
   30.7010   -9.9539  -21.2602 H   0  0  0  0  0  0  0  0  0  0  0  0
   31.3466   -8.9685  -22.4607 H   0  0  0  0  0  0  0  0  0  0  0  0
   33.8448  -10.5976  -25.7830 H   0  0  0  0  0  0  0  0  0  0  0  0
   34.4091  -11.8363  -25.2276 H   0  0  0  0  0  0  0  0  0  0  0  0
   36.6002  -11.7187  -23.6572 H   0  0  0  0  0  0  0  0  0  0  0  0
   35.9784  -12.5610  -25.2136 H   0  0  0  0  0  0  0  0  0  0  0  0
   36.5247  -11.3586  -26.3312 H   0  0  0  0  0  0  0  0  0  0  0  0
   37.7940  -12.9392  -26.4690 H   0  0  0  0  0  0  0  0  0  0  0  0
   39.2646  -12.1470  -27.1241 H   0  0  0  0  0  0  0  0  0  0  0  0
   30.6362  -12.1018  -21.5257 H   0  0  0  0  0  0  0  0  0  0  0  0
   29.1858  -10.5271  -24.0302 H   0  0  0  0  0  0  0  0  0  0  0  0
   32.1890  -11.4715  -24.6207 H   0  0  0  0  0  0  0  0  0  0  0  0
   32.8230   -9.0150  -23.9716 H   0  0  0  0  0  0  0  0  0  0  0  0
   36.9546   -8.8123  -25.6074 H   0  0  0  0  0  0  0  0  0  0  0  0
   36.3201   -9.8391  -27.0528 H   0  0  0  0  0  0  0  0  0  0  0  0
   34.5105   -9.2318  -26.6854 H   0  0  0  0  0  0  0  0  0  0  0  0
   35.1404   -8.3746  -25.1087 H   0  0  0  0  0  0  0  0  0  0  0  0
   39.0909  -12.6323  -24.1458 H   0  0  0  0  0  0  0  0  0  0  0  0
   39.4282  -14.0286  -25.2242 H   0  0  0  0  0  0  0  0  0  0  0  0
   40.5272  -12.6077  -25.2242 H   0  0  0  0  0  0  0  0  0  0  0  0
    6.0179   16.1701  -17.1977 H   0  0  0  0  0  0  0  0  0  0  0  0
    5.2342   15.3744  -18.4554 H   0  0  0  0  0  0  0  0  0  0  0  0
    3.9870   19.0859  -14.2038 H   0  0  0  0  0  0  0  0  0  0  0  0
    2.7646   19.6325  -14.8137 H   0  0  0  0  0  0  0  0  0  0  0  0
    2.9202   21.8883  -16.2836 H   0  0  0  0  0  0  0  0  0  0  0  0
    1.9954   21.1723  -14.8120 H   0  0  0  0  0  0  0  0  0  0  0  0
    3.1069   21.6927  -13.5955 H   0  0  0  0  0  0  0  0  0  0  0  0
    1.3370   23.3078  -14.3526 H   0  0  0  0  0  0  0  0  0  0  0  0
    1.8884   24.3265  -12.9862 H   0  0  0  0  0  0  0  0  0  0  0  0
    1.8872   16.0142  -17.2847 H   0  0  0  0  0  0  0  0  0  0  0  0
    3.9070   15.8164  -15.1246 H   0  0  0  0  0  0  0  0  0  0  0  0
    3.2317   17.4108  -15.5163 H   0  0  0  0  0  0  0  0  0  0  0  0
    5.6927   18.1693  -15.9754 H   0  0  0  0  0  0  0  0  0  0  0  0
    5.6832   22.2668  -14.1358 H   0  0  0  0  0  0  0  0  0  0  0  0
    4.6099   21.5238  -12.7830 H   0  0  0  0  0  0  0  0  0  0  0  0
    5.3333   19.7524  -13.2033 H   0  0  0  0  0  0  0  0  0  0  0  0
    6.2207   20.4836  -14.7104 H   0  0  0  0  0  0  0  0  0  0  0  0
    2.1150   26.1448  -14.3187 H   0  0  0  0  0  0  0  0  0  0  0  0
    3.0101   25.2080  -15.5628 H   0  0  0  0  0  0  0  0  0  0  0  0
    1.2138   25.2139  -15.5628 H   0  0  0  0  0  0  0  0  0  0  0  0
    4.8795  -16.8829   19.7756 H   0  0  0  0  0  0  0  0  0  0  0  0
    5.5629  -17.7097   18.4801 H   0  0  0  0  0  0  0  0  0  0  0  0
    3.3494  -19.9692   15.5557 H   0  0  0  0  0  0  0  0  0  0  0  0
    2.0604  -20.2440   16.2103 H   0  0  0  0  0  0  0  0  0  0  0  0
    1.8749  -22.2691   17.9607 H   0  0  0  0  0  0  0  0  0  0  0  0
    1.0808  -21.6157   16.3805 H   0  0  0  0  0  0  0  0  0  0  0  0
    2.0646  -22.4808   15.2829 H   0  0  0  0  0  0  0  0  0  0  0  0
    0.2846  -23.8264   17.0404 H   0  0  0  0  0  0  0  0  0  0  0  0
    0.1522  -24.8152   15.5515 H   0  0  0  0  0  0  0  0  0  0  0  0
    2.7591  -16.5724   19.8140 H   0  0  0  0  0  0  0  0  0  0  0  0
    3.9953  -15.1647   17.1156 H   0  0  0  0  0  0  0  0  0  0  0  0
    2.7901  -18.0989   16.6475 H   0  0  0  0  0  0  0  0  0  0  0  0
    5.1426  -19.0644   17.2387 H   0  0  0  0  0  0  0  0  0  0  0  0
    4.5327  -23.3317   15.9189 H   0  0  0  0  0  0  0  0  0  0  0  0
    3.5505  -22.5903   14.4811 H   0  0  0  0  0  0  0  0  0  0  0  0
    4.5717  -20.9350   14.6661 H   0  0  0  0  0  0  0  0  0  0  0  0
    5.3646  -21.5895   16.2465 H   0  0  0  0  0  0  0  0  0  0  0  0
    0.9416  -25.5879   18.3094 H   0  0  0  0  0  0  0  0  0  0  0  0
    0.1891  -26.5626   17.0016 H   0  0  0  0  0  0  0  0  0  0  0  0
    1.9625  -26.2765   17.0016 H   0  0  0  0  0  0  0  0  0  0  0  0
  2  3  1  0
  3  4  1  0
  4  5  1  0
  1  9  1  0
  9  7  1  6
  8  9  1  0
  9 10  1  0
  2 11  1  0
 10 11  1  0
  3 12  1  0
 10 12  1  0
  5 13  1  0
  2 14  1  0
 13 14  1  0
  5 15  1  0
  6 15  1  0
  6 16  1  0
 18 19  1  0
 19 20  1  0
 20 21  1  0
 17 25  1  0
 25 23  1  1
 24 25  1  0
 25 26  1  0
 18 27  1  0
 26 27  1  0
 19 28  1  0
 26 28  1  0
 21 29  1  0
 18 30  1  0
 29 30  1  0
 21 31  1  0
 22 31  1  0
 22 32  1  0
 34 35  1  0
 35 36  1  0
 36 37  1  0
 33 41  1  0
 41 39  1  6
 40 41  1  0
 41 42  1  0
 34 43  1  0
 42 43  1  0
 35 44  1  0
 42 44  1  0
 37 45  1  0
 34 46  1  0
 45 46  1  0
 37 47  1  0
 38 47  1  0
 38 48  1  0
 50 51  1  0
 51 52  1  0
 52 53  1  0
 49 57  1  0
 57 55  1  1
 56 57  1  0
 57 58  1  0
 50 59  1  0
 58 59  1  0
 51 60  1  0
 58 60  1  0
 53 61  1  0
 50 62  1  0
 61 62  1  0
 53 63  1  0
 54 63  1  0
 54 64  1  0
  1 65  1  0
  1 66  1  0
  2 67  1  0
  3 68  1  0
  4 69  1  0
  4 70  1  0
  5 71  1  0
  6 72  1  0
  6 73  1  0
  7 74  1  0
  8 75  1  0
 10 76  1  0
 11 77  1  0
 13 78  1  0
 13 79  1  0
 14 80  1  0
 14 81  1  0
 16 82  1  0
 16 83  1  0
 16 84  1  0
 17 85  1  0
 17 86  1  0
 18 87  1  0
 19 88  1  0
 20 89  1  0
 20 90  1  0
 21 91  1  0
 22 92  1  0
 22 93  1  0
 23 94  1  0
 24 95  1  0
 26 96  1  0
 27 97  1  0
 29 98  1  0
 29 99  1  0
 30100  1  0
 30101  1  0
 32102  1  0
 32103  1  0
 32104  1  0
 33105  1  0
 33106  1  0
 34107  1  0
 35108  1  0
 36109  1  0
 36110  1  0
 37111  1  0
 38112  1  0
 38113  1  0
 39114  1  0
 40115  1  0
 42116  1  0
 43117  1  0
 45118  1  0
 45119  1  0
 46120  1  0
 46121  1  0
 48122  1  0
 48123  1  0
 48124  1  0
 49125  1  0
 49126  1  0
 50127  1  0
 51128  1  0
 52129  1  0
 52130  1  0
 53131  1  0
 54132  1  0
 54133  1  0
 55134  1  0
 56135  1  0
 58136  1  0
 59137  1  0
 61138  1  0
 61139  1  0
 62140  1  0
 62141  1  0
 64142  1  0
 64143  1  0
 64144  1  0
M  END
>  <PDBID>  (1) 
5JN9

>  <PDB ID>  (1) 
5JN9

>  <Generic Name>  (1) 
Ethoxzolamide

>  <Brand Name>  (1) 
Cardrase#Ethamide

>  <DrugBank ID>  (1) 
DB00311

>  <ATC Codes>  (1) 
nan

>  <Ligand ID>  (1) 
EZL

>  <Target Name>  (1) 
Carbonic anhydrase 4

>  <UniProt ID>  (1) 
P22748

>  <PDB ID.1>  (1) 
5JN9

>  <Seq. Identity>  (1) 
100%

$$$$
