PDB_DB00712_99
     RDKit          3D

 90 92  0  0  0  0  0  0  0  0999 V2000
  141.2380  150.1960   69.1260 C   0  0  0  0  0  0  0  0  0  0  0  0
  140.4160  149.1050   68.8890 C   0  0  0  0  0  0  0  0  0  0  0  0
  140.8590  148.0500   68.1020 C   0  0  0  0  0  0  0  0  0  0  0  0
  142.1280  148.1000   67.5450 C   0  0  0  0  0  0  0  0  0  0  0  0
  142.9510  149.1920   67.7780 C   0  0  0  0  0  0  0  0  0  0  0  0
  142.5070  150.2410   68.5690 C   0  0  0  0  0  0  0  0  0  0  0  0
  140.0420  146.9530   67.8580 C   0  0  0  0  0  0  0  0  0  0  0  0
  139.9280  146.4620   66.5660 C   0  0  0  0  0  0  0  0  0  0  0  0
  139.1120  145.3700   66.3050 C   0  0  0  0  0  0  0  0  0  0  0  0
  138.4110  144.7590   67.3340 C   0  0  0  0  0  0  0  0  0  0  0  0
  138.5290  145.2470   68.6230 C   0  0  0  0  0  0  0  0  0  0  0  0
  139.3380  146.3400   68.8860 C   0  0  0  0  0  0  0  0  0  0  0  0
  137.5250  143.5620   67.0580 C   0  0  2  0  0  0  0  0  0  0  0  0
  138.1540  142.7100   65.9770 C   0  0  0  0  0  0  0  0  0  0  0  0
  136.1440  144.0040   66.6240 C   0  0  0  0  0  0  0  0  0  0  0  0
  135.8420  144.0170   65.4020 O   0  0  0  0  0  0  0  0  0  0  0  0
  135.2940  144.3530   67.4850 O   0  0  0  0  0  0  0  0  0  0  0  0
  139.4270  146.7900   70.1420 F   0  0  0  0  0  0  0  0  0  0  0  0
  136.8650  158.1500   24.8880 C   0  0  0  0  0  0  0  0  0  0  0  0
  135.6340  157.5380   25.0650 C   0  0  0  0  0  0  0  0  0  0  0  0
  135.3740  156.3080   24.4790 C   0  0  0  0  0  0  0  0  0  0  0  0
  136.3480  155.6930   23.7090 C   0  0  0  0  0  0  0  0  0  0  0  0
  137.5790  156.3030   23.5290 C   0  0  0  0  0  0  0  0  0  0  0  0
  137.8380  157.5300   24.1190 C   0  0  0  0  0  0  0  0  0  0  0  0
  134.1460  155.6830   24.6470 C   0  0  0  0  0  0  0  0  0  0  0  0
  133.4970  155.1460   23.5460 C   0  0  0  0  0  0  0  0  0  0  0  0
  132.2710  154.5150   23.6930 C   0  0  0  0  0  0  0  0  0  0  0  0
  131.6940  154.4180   24.9470 C   0  0  0  0  0  0  0  0  0  0  0  0
  132.3420  154.9510   26.0470 C   0  0  0  0  0  0  0  0  0  0  0  0
  133.5630  155.5830   25.9000 C   0  0  0  0  0  0  0  0  0  0  0  0
  130.3590  153.7340   25.1320 C   0  0  2  0  0  0  0  0  0  0  0  0
  129.4980  154.5810   26.0430 C   0  0  0  0  0  0  0  0  0  0  0  0
  130.5770  152.3810   25.7710 C   0  0  0  0  0  0  0  0  0  0  0  0
  131.1260  151.4550   25.1210 O   0  0  0  0  0  0  0  0  0  0  0  0
  130.2070  152.1790   26.9550 O   0  0  0  0  0  0  0  0  0  0  0  0
  134.1690  156.0890   26.9790 F   0  0  0  0  0  0  0  0  0  0  0  0
  140.6999  151.0840   68.7628 H   0  0  0  0  0  0  0  0  0  0  0  0
  141.4376  150.1328   70.2059 H   0  0  0  0  0  0  0  0  0  0  0  0
  140.1627  148.6811   69.8719 H   0  0  0  0  0  0  0  0  0  0  0  0
  139.5983  149.5347   68.2918 H   0  0  0  0  0  0  0  0  0  0  0  0
  140.4476  148.5434   67.2091 H   0  0  0  0  0  0  0  0  0  0  0  0
  142.6682  147.2135   67.9086 H   0  0  0  0  0  0  0  0  0  0  0  0
  141.9250  148.1656   66.4659 H   0  0  0  0  0  0  0  0  0  0  0  0
  143.8661  148.8045   68.2496 H   0  0  0  0  0  0  0  0  0  0  0  0
  143.0486  149.6507   66.7830 H   0  0  0  0  0  0  0  0  0  0  0  0
  142.5502  151.1481   67.9483 H   0  0  0  0  0  0  0  0  0  0  0  0
  143.1711  150.1982   69.4448 H   0  0  0  0  0  0  0  0  0  0  0  0
  139.1915  147.6267   67.6770 H   0  0  0  0  0  0  0  0  0  0  0  0
  139.5578  147.2901   65.9438 H   0  0  0  0  0  0  0  0  0  0  0  0
  140.9368  146.0786   66.3529 H   0  0  0  0  0  0  0  0  0  0  0  0
  138.3661  145.7017   65.5677 H   0  0  0  0  0  0  0  0  0  0  0  0
  139.8261  144.5934   65.9937 H   0  0  0  0  0  0  0  0  0  0  0  0
  139.2608  144.0836   67.5119 H   0  0  0  0  0  0  0  0  0  0  0  0
  137.5150  145.5180   68.9523 H   0  0  0  0  0  0  0  0  0  0  0  0
  139.0364  144.4281   69.1539 H   0  0  0  0  0  0  0  0  0  0  0  0
  138.4872  147.0133   68.7049 H   0  0  0  0  0  0  0  0  0  0  0  0
  137.4253  142.9753   67.9831 H   0  0  0  0  0  0  0  0  0  0  0  0
  138.7464  141.9076   66.4409 H   0  0  0  0  0  0  0  0  0  0  0  0
  137.3638  142.2681   65.3522 H   0  0  0  0  0  0  0  0  0  0  0  0
  138.8090  143.3350   65.3522 H   0  0  0  0  0  0  0  0  0  0  0  0
  136.5004  145.0418   66.5470 H   0  0  0  0  0  0  0  0  0  0  0  0
  134.8576  144.0594   65.3058 H   0  0  0  0  0  0  0  0  0  0  0  0
  135.6616  144.2021   68.3917 H   0  0  0  0  0  0  0  0  0  0  0  0
  136.6705  159.1295   24.4267 H   0  0  0  0  0  0  0  0  0  0  0  0
  137.2988  158.1479   25.8988 H   0  0  0  0  0  0  0  0  0  0  0  0
  135.4989  157.4068   26.1488 H   0  0  0  0  0  0  0  0  0  0  0  0
  134.9412  158.2147   24.5434 H   0  0  0  0  0  0  0  0  0  0  0  0
  134.9871  156.8164   23.5835 H   0  0  0  0  0  0  0  0  0  0  0  0
  136.5439  154.7131   24.1688 H   0  0  0  0  0  0  0  0  0  0  0  0
  135.9128  155.7011   22.6988 H   0  0  0  0  0  0  0  0  0  0  0  0
  138.3385  155.6026   23.9066 H   0  0  0  0  0  0  0  0  0  0  0  0
  137.5923  156.5323   22.4532 H   0  0  0  0  0  0  0  0  0  0  0  0
  138.0908  158.2261   23.3057 H   0  0  0  0  0  0  0  0  0  0  0  0
  138.6265  157.2971   24.8497 H   0  0  0  0  0  0  0  0  0  0  0  0
  133.6348  156.6426   24.4803 H   0  0  0  0  0  0  0  0  0  0  0  0
  133.3437  155.9721   22.8360 H   0  0  0  0  0  0  0  0  0  0  0  0
  134.1634  154.3260   23.2402 H   0  0  0  0  0  0  0  0  0  0  0  0
  131.5563  155.0547   23.0543 H   0  0  0  0  0  0  0  0  0  0  0  0
  132.4891  153.4692   23.4307 H   0  0  0  0  0  0  0  0  0  0  0  0
  132.2076  153.4589   25.1092 H   0  0  0  0  0  0  0  0  0  0  0  0
  131.6564  155.6877   26.4912 H   0  0  0  0  0  0  0  0  0  0  0  0
  132.5922  154.0615   26.6439 H   0  0  0  0  0  0  0  0  0  0  0  0
  133.0475  156.5409   25.7366 H   0  0  0  0  0  0  0  0  0  0  0  0
  129.8642  153.6070   24.1578 H   0  0  0  0  0  0  0  0  0  0  0  0
  129.7345  154.3483   27.0918 H   0  0  0  0  0  0  0  0  0  0  0  0
  129.6966  155.6455   25.8498 H   0  0  0  0  0  0  0  0  0  0  0  0
  128.4369  154.3650   25.8498 H   0  0  0  0  0  0  0  0  0  0  0  0
  129.5921  152.0513   25.4088 H   0  0  0  0  0  0  0  0  0  0  0  0
  131.5161  150.7970   25.7495 H   0  0  0  0  0  0  0  0  0  0  0  0
  130.8816  152.5473   27.5789 H   0  0  0  0  0  0  0  0  0  0  0  0
  1  2  1  0
  2  3  1  0
  3  4  1  0
  4  5  1  0
  1  6  1  0
  5  6  1  0
  3  7  1  0
  7  8  1  0
  8  9  1  0
  9 10  1  0
 10 11  1  0
  7 12  1  0
 11 12  1  0
 10 13  1  0
 13 14  1  0
 13 15  1  0
 15 16  1  0
 15 17  1  0
 12 18  1  0
 19 20  1  0
 20 21  1  0
 21 22  1  0
 22 23  1  0
 19 24  1  0
 23 24  1  0
 21 25  1  0
 25 26  1  0
 26 27  1  0
 27 28  1  0
 28 29  1  0
 25 30  1  0
 29 30  1  0
 28 31  1  0
 31 32  1  0
 31 33  1  0
 33 34  1  0
 33 35  1  0
 30 36  1  0
  1 37  1  0
  1 38  1  0
  2 39  1  0
  2 40  1  0
  3 41  1  0
  4 42  1  0
  4 43  1  0
  5 44  1  0
  5 45  1  0
  6 46  1  0
  6 47  1  0
  7 48  1  0
  8 49  1  0
  8 50  1  0
  9 51  1  0
  9 52  1  0
 10 53  1  0
 11 54  1  0
 11 55  1  0
 12 56  1  0
 13 57  1  1
 14 58  1  0
 14 59  1  0
 14 60  1  0
 15 61  1  0
 16 62  1  0
 17 63  1  0
 19 64  1  0
 19 65  1  0
 20 66  1  0
 20 67  1  0
 21 68  1  0
 22 69  1  0
 22 70  1  0
 23 71  1  0
 23 72  1  0
 24 73  1  0
 24 74  1  0
 25 75  1  0
 26 76  1  0
 26 77  1  0
 27 78  1  0
 27 79  1  0
 28 80  1  0
 29 81  1  0
 29 82  1  0
 30 83  1  0
 31 84  1  6
 32 85  1  0
 32 86  1  0
 32 87  1  0
 33 88  1  0
 34 89  1  0
 35 90  1  0
M  END
>  <PDBID>  (1) 
5JVZ

>  <PDB ID>  (1) 
5JVZ

>  <Generic Name>  (1) 
Flurbiprofen

>  <Brand Name>  (1) 
Ansaid Tablets 100 mg#Ansaid Tablets 50 mg#Antiphlamine Pain Relieving#Apo-flurbiprofen Fc Tablets 100mg#Apo-flurbiprofen Fc Tablets 50mg#Flurbiprofen#Flurbiprofen Sodium#Flurbiprofen-100 Tab 100mg#Flurbiprofen-50 Tab 50mg#Froben#Froben SR#Froben Tab 100mg#Froben Tab 50mg#Froben-SR Cap 200mg#Novo-flurprofen SR#Nu-flurbiprofen Tab 100mg#Nu-flurbiprofen Tab 50mg#Ocufen#Ocufen Oph Soln 0.03%#Ratio-flurbiprofen Tablets 100mg#Ratio-flurbiprofen Tablets 50mg#Teva-flurbiprofen#Acustop Cataplasma#Adofeed#Ansaid#Antadys#Cebutid#Flurofen#Ocuflur#Stayban#Strefen#Strepfen#Strepsils#Strepsils Intensive#TransAct#Urbifen#Zepolas

>  <DrugBank ID>  (1) 
DB00712

>  <ATC Codes>  (1) 
M02AA19#R02AX01#M01AE09#S01BC04

>  <Ligand ID>  (1) 
FLP,FLR

>  <Target Name>  (1) 
Prostaglandin G/H synthase 2

>  <UniProt ID>  (1) 
P35354

>  <PDB ID.1>  (1) 
5JVZ

>  <Seq. Identity>  (1) 
85%

$$$$
