PDB_DB01092_95
     RDKit          3D

 85 90  0  0  0  0  0  0  0  0999 V2000
  -25.7320    7.2870  -37.1630 C   0  0  2  0  0  0  0  0  0  0  0  0
  -27.1980    7.7110  -37.0050 C   0  0  0  0  0  0  0  0  0  0  0  0
  -27.3360    8.9450  -36.1650 C   0  0  1  0  0  0  0  0  0  0  0  0
  -26.6670    8.7600  -34.8180 C   0  0  0  0  0  0  0  0  0  0  0  0
  -25.1910    8.2750  -34.9330 C   0  0  1  0  0  0  0  0  0  0  0  0
  -24.5550    8.0600  -33.5480 C   0  0  0  0  0  0  0  0  0  0  0  0
  -24.9420    6.7490  -32.8880 C   0  0  0  0  0  0  0  0  0  0  0  0
  -24.5930    5.5660  -33.7800 C   0  0  2  0  0  0  0  0  0  0  0  0
  -25.4080    5.6900  -35.0780 C   0  0  1  0  0  0  0  0  0  0  0  0
  -24.9790    7.0000  -35.8250 C   0  0  1  0  0  0  0  0  0  0  0  0
  -25.1130    4.3950  -35.9030 C   0  0  1  0  0  0  0  0  0  0  0  0
  -25.3470    3.1150  -35.1090 C   0  0  0  0  0  0  0  0  0  0  0  0
  -24.5510    2.9730  -33.8290 C   0  0  1  0  0  0  0  0  0  0  0  0
  -24.7740    4.2610  -32.9860 C   0  0  2  0  0  0  0  0  0  0  0  0
  -26.1760    4.0370  -32.4010 C   0  0  0  0  0  0  0  0  0  0  0  0
  -26.3250    2.5290  -32.1980 C   0  0  0  0  0  0  0  0  0  0  0  0
  -25.2790    1.8180  -33.0790 C   0  0  2  0  0  0  0  0  0  0  0  0
  -23.1010    2.6300  -34.1120 C   0  0  0  0  0  0  0  0  0  0  0  0
  -23.4590    6.8010  -36.1680 C   0  0  0  0  0  0  0  0  0  0  0  0
  -24.4430    0.8540  -32.3050 C   0  0  0  0  0  0  0  0  0  0  0  0
  -24.0230    1.1670  -30.8870 C   0  0  0  0  0  0  0  0  0  0  0  0
  -24.1270   -0.4270  -32.5570 C   0  0  0  0  0  0  0  0  0  0  0  0
  -23.3520   -0.9370  -31.3870 C   0  0  0  0  0  0  0  0  0  0  0  0
  -27.1800   11.2890  -36.6270 C   0  0  2  0  0  0  0  0  0  0  0  0
  -27.0780   12.0240  -37.9860 C   0  0  1  0  0  0  0  0  0  0  0  0
  -28.2180   11.6120  -38.9080 C   0  0  1  0  0  0  0  0  0  0  0  0
  -29.5310   12.0620  -38.2560 C   0  0  2  0  0  0  0  0  0  0  0  0
  -29.6920   11.4620  -36.8130 C   0  0  2  0  0  0  0  0  0  0  0  0
  -30.4000   12.5150  -35.9430 C   0  0  0  0  0  0  0  0  0  0  0  0
  -25.0350    8.3480  -37.7600 O   0  0  0  0  0  0  0  0  0  0  0  0
  -26.6220   10.0080  -36.7940 O   0  0  0  0  0  0  0  0  0  0  0  0
  -24.4860    9.2790  -35.6060 O   0  0  0  0  0  0  0  0  0  0  0  0
  -26.0220    4.3420  -36.9740 O   0  0  0  0  0  0  0  0  0  0  0  0
  -23.9400    4.2520  -31.8660 O   0  0  0  0  0  0  0  0  0  0  0  0
  -23.3290    6.3050  -37.4640 O   0  0  0  0  0  0  0  0  0  0  0  0
  -23.2070    0.0810  -30.4720 O   0  0  0  0  0  0  0  0  0  0  0  0
  -22.8650   -2.0110  -31.1210 O   0  0  0  0  0  0  0  0  0  0  0  0
  -27.1870   13.3770  -37.6470 O   0  0  0  0  0  0  0  0  0  0  0  0
  -28.0230   12.3540  -40.0780 O   0  0  0  0  0  0  0  0  0  0  0  0
  -30.6010   11.5340  -38.9950 O   0  0  0  0  0  0  0  0  0  0  0  0
  -28.4780   11.1320  -36.0950 O   0  0  0  0  0  0  0  0  0  0  0  0
  -25.7577    6.3562  -37.7486 H   0  0  0  0  0  0  0  0  0  0  0  0
  -27.6199    7.9100  -38.0012 H   0  0  0  0  0  0  0  0  0  0  0  0
  -27.7366    6.8944  -36.5019 H   0  0  0  0  0  0  0  0  0  0  0  0
  -28.4099    9.1529  -36.0484 H   0  0  0  0  0  0  0  0  0  0  0  0
  -26.6793    9.7224  -34.2854 H   0  0  0  0  0  0  0  0  0  0  0  0
  -27.2272    7.9837  -34.2762 H   0  0  0  0  0  0  0  0  0  0  0  0
  -23.4612    8.0799  -33.6628 H   0  0  0  0  0  0  0  0  0  0  0  0
  -24.9273    8.8657  -32.8982 H   0  0  0  0  0  0  0  0  0  0  0  0
  -24.4015    6.6527  -31.9348 H   0  0  0  0  0  0  0  0  0  0  0  0
  -26.0285    6.7502  -32.7162 H   0  0  0  0  0  0  0  0  0  0  0  0
  -23.5378    5.5546  -34.0905 H   0  0  0  0  0  0  0  0  0  0  0  0
  -26.4911    5.7701  -34.9034 H   0  0  0  0  0  0  0  0  0  0  0  0
  -24.0577    4.4475  -36.2089 H   0  0  0  0  0  0  0  0  0  0  0  0
  -26.4147    3.0714  -34.8479 H   0  0  0  0  0  0  0  0  0  0  0  0
  -25.0091    2.2958  -35.7607 H   0  0  0  0  0  0  0  0  0  0  0  0
  -26.2749    4.5616  -31.4392 H   0  0  0  0  0  0  0  0  0  0  0  0
  -26.9547    4.4271  -33.0729 H   0  0  0  0  0  0  0  0  0  0  0  0
  -26.1544    2.2771  -31.1409 H   0  0  0  0  0  0  0  0  0  0  0  0
  -27.3389    2.2067  -32.4774 H   0  0  0  0  0  0  0  0  0  0  0  0
  -25.7075    1.1342  -33.8266 H   0  0  0  0  0  0  0  0  0  0  0  0
  -22.5621    2.5025  -33.1615 H   0  0  0  0  0  0  0  0  0  0  0  0
  -23.0514    1.6953  -34.6899 H   0  0  0  0  0  0  0  0  0  0  0  0
  -22.6379    3.4434  -34.6899 H   0  0  0  0  0  0  0  0  0  0  0  0
  -22.9380    7.7669  -36.0926 H   0  0  0  0  0  0  0  0  0  0  0  0
  -23.0171    6.0854  -35.4590 H   0  0  0  0  0  0  0  0  0  0  0  0
  -23.4529    2.1072  -30.8559 H   0  0  0  0  0  0  0  0  0  0  0  0
  -24.8940    1.2919  -30.2269 H   0  0  0  0  0  0  0  0  0  0  0  0
  -24.3910   -0.9964  -33.4604 H   0  0  0  0  0  0  0  0  0  0  0  0
  -26.6475   11.9260  -35.9054 H   0  0  0  0  0  0  0  0  0  0  0  0
  -26.1465   11.7924  -38.5232 H   0  0  0  0  0  0  0  0  0  0  0  0
  -28.2494   10.5294  -39.1002 H   0  0  0  0  0  0  0  0  0  0  0  0
  -29.5220   13.1614  -38.2213 H   0  0  0  0  0  0  0  0  0  0  0  0
  -30.2329   10.5178  -36.9736 H   0  0  0  0  0  0  0  0  0  0  0  0
  -30.2415   12.2793  -34.8803 H   0  0  0  0  0  0  0  0  0  0  0  0
  -29.9870   13.5104  -36.1633 H   0  0  0  0  0  0  0  0  0  0  0  0
  -31.4777   12.5082  -36.1633 H   0  0  0  0  0  0  0  0  0  0  0  0
  -24.6529    8.9296  -37.0558 H   0  0  0  0  0  0  0  0  0  0  0  0
  -24.0618    9.8832  -34.9464 H   0  0  0  0  0  0  0  0  0  0  0  0
  -26.9453    4.2882  -36.6208 H   0  0  0  0  0  0  0  0  0  0  0  0
  -24.4915    4.2580  -31.0438 H   0  0  0  0  0  0  0  0  0  0  0  0
  -23.0782    5.3480  -37.4275 H   0  0  0  0  0  0  0  0  0  0  0  0
  -27.1945   13.4707  -36.6615 H   0  0  0  0  0  0  0  0  0  0  0  0
  -27.7786   13.2839  -39.8421 H   0  0  0  0  0  0  0  0  0  0  0  0
  -31.2933   11.1924  -38.3752 H   0  0  0  0  0  0  0  0  0  0  0  0
  1  2  1  0
  2  3  1  0
  3  4  1  0
  4  5  1  0
  5  6  1  0
  6  7  1  0
  7  8  1  0
  8  9  1  0
  1 10  1  0
  5 10  1  0
  9 10  1  0
  9 11  1  0
 11 12  1  0
 12 13  1  0
  8 14  1  0
 13 14  1  0
 14 15  1  0
 15 16  1  0
 13 17  1  0
 16 17  1  0
 13 18  1  6
 10 19  1  6
 17 20  1  0
 20 21  1  0
 20 22  2  0
 22 23  1  0
 24 25  1  0
 25 26  1  0
 26 27  1  0
 27 28  1  0
 28 29  1  0
  1 30  1  0
  3 31  1  0
 24 31  1  0
  5 32  1  6
 11 33  1  0
 14 34  1  1
 19 35  1  0
 21 36  1  0
 23 36  1  0
 23 37  2  0
 25 38  1  0
 26 39  1  0
 27 40  1  0
 24 41  1  0
 28 41  1  0
  1 42  1  6
  2 43  1  0
  2 44  1  0
  3 45  1  1
  4 46  1  0
  4 47  1  0
  6 48  1  0
  6 49  1  0
  7 50  1  0
  7 51  1  0
  8 52  1  6
  9 53  1  1
 11 54  1  6
 12 55  1  0
 12 56  1  0
 15 57  1  0
 15 58  1  0
 16 59  1  0
 16 60  1  0
 17 61  1  6
 18 62  1  0
 18 63  1  0
 18 64  1  0
 19 65  1  0
 19 66  1  0
 21 67  1  0
 21 68  1  0
 22 69  1  0
 24 70  1  1
 25 71  1  6
 26 72  1  6
 27 73  1  1
 28 74  1  6
 29 75  1  0
 29 76  1  0
 29 77  1  0
 30 78  1  0
 32 79  1  0
 33 80  1  0
 34 81  1  0
 35 82  1  0
 38 83  1  0
 39 84  1  0
 40 85  1  0
M  END
>  <PDBID>  (1) 
4XE5

>  <PDB ID>  (1) 
4XE5

>  <Generic Name>  (1) 
Ouabain

>  <Brand Name>  (1) 
Strodival

>  <DrugBank ID>  (1) 
DB01092

>  <ATC Codes>  (1) 
C01AC01

>  <Ligand ID>  (1) 
OBN

>  <Target Name>  (1) 
Sodium/potassium-transporting ATPase subunit alpha-1

>  <UniProt ID>  (1) 
P05023

>  <PDB ID.1>  (1) 
4XE5

>  <Seq. Identity>  (1) 
93%

$$$$
