PDB_DB00558_81
     RDKit          3D

 43 43  0  0  0  0  0  0  0  0999 V2000
    9.0320   51.7770  110.5640 C   0  0  0  0  0  0  0  0  0  0  0  0
    8.3490   50.7910  110.1910 O   0  0  0  0  0  0  0  0  0  0  0  0
   10.0650   51.6160  111.2730 O   0  0  0  0  0  0  0  0  0  0  0  0
    8.6560   53.0140  110.1620 C   0  0  0  0  0  0  0  0  0  0  0  0
    9.2700   54.1730  110.9800 C   0  0  0  0  0  0  0  0  0  0  0  0
    8.8380   55.4900  110.4920 C   0  0  1  0  0  0  0  0  0  0  0  0
    7.4500   55.5820  110.2600 C   0  0  1  0  0  0  0  0  0  0  0  0
    7.1040   56.9470  109.5730 N   0  0  0  0  0  0  0  0  0  0  0  0
    6.5340   58.0230  110.3470 C   0  0  0  0  0  0  0  0  0  0  0  0
    6.3180   57.8890  111.5400 O   0  0  0  0  0  0  0  0  0  0  0  0
    6.2020   59.3290  109.6880 C   0  0  0  0  0  0  0  0  0  0  0  0
    6.8920   54.4650  109.5100 C   0  0  1  0  0  0  0  0  0  0  0  0
    7.1720   53.2030  110.1550 O   0  0  0  0  0  0  0  0  0  0  0  0
    5.3860   54.5780  109.2570 C   0  0  2  0  0  0  0  0  0  0  0  0
    4.6830   54.2970  110.3980 O   0  0  0  0  0  0  0  0  0  0  0  0
    4.9940   53.6180  108.1470 C   0  0  2  0  0  0  0  0  0  0  0  0
    5.4590   54.1440  106.9600 O   0  0  0  0  0  0  0  0  0  0  0  0
    3.5040   53.3350  108.0520 C   0  0  0  0  0  0  0  0  0  0  0  0
    2.6480   54.4370  108.0010 O   0  0  0  0  0  0  0  0  0  0  0  0
    9.3230   56.5990  111.4670 N   0  0  0  0  0  0  0  0  0  0  0  0
    9.7350   57.8990  110.9890 C   0  0  0  0  0  0  0  0  0  0  0  0
    9.8700   58.1360  109.6920 N   0  0  0  0  0  0  0  0  0  0  0  0
    9.9500   58.8440  111.8540 N   0  0  0  0  0  0  0  0  0  0  0  0
    7.5414   50.9300  109.6355 H   0  0  0  0  0  0  0  0  0  0  0  0
    9.9525   54.0284  111.8305 H   0  0  0  0  0  0  0  0  0  0  0  0
    9.3064   55.6355  109.5074 H   0  0  0  0  0  0  0  0  0  0  0  0
    6.9728   55.5330  111.2499 H   0  0  0  0  0  0  0  0  0  0  0  0
    7.2838   57.0764  108.5671 H   0  0  0  0  0  0  0  0  0  0  0  0
    6.0086   60.0898  110.4586 H   0  0  0  0  0  0  0  0  0  0  0  0
    7.0474   59.6487  109.0611 H   0  0  0  0  0  0  0  0  0  0  0  0
    5.3065   59.2062  109.0611 H   0  0  0  0  0  0  0  0  0  0  0  0
    7.3919   54.5054  108.5310 H   0  0  0  0  0  0  0  0  0  0  0  0
    5.1463   55.6080  108.9543 H   0  0  0  0  0  0  0  0  0  0  0  0
    5.2358   54.5180  111.1890 H   0  0  0  0  0  0  0  0  0  0  0  0
    5.4484   52.6423  108.3740 H   0  0  0  0  0  0  0  0  0  0  0  0
    6.1024   54.8718  107.1511 H   0  0  0  0  0  0  0  0  0  0  0  0
    3.3368   52.7434  107.1398 H   0  0  0  0  0  0  0  0  0  0  0  0
    3.2517   52.8228  108.9922 H   0  0  0  0  0  0  0  0  0  0  0  0
    2.4248   54.7244  108.9217 H   0  0  0  0  0  0  0  0  0  0  0  0
   10.1645   59.0678  109.3667 H   0  0  0  0  0  0  0  0  0  0  0  0
    9.6804   57.3883  109.0094 H   0  0  0  0  0  0  0  0  0  0  0  0
   10.2443   59.7778  111.5341 H   0  0  0  0  0  0  0  0  0  0  0  0
    9.8262   58.6595  112.8597 H   0  0  0  0  0  0  0  0  0  0  0  0
  1  2  1  0
  1  3  2  0
  1  4  1  0
  4  5  2  0
  5  6  1  0
  6  7  1  0
  7  8  1  0
  8  9  1  0
  9 10  2  0
  9 11  1  0
  7 12  1  0
  4 13  1  0
 12 13  1  0
 12 14  1  0
 14 15  1  0
 14 16  1  0
 16 17  1  0
 16 18  1  0
 18 19  1  0
  6 20  1  0
 20 21  2  3
 21 22  1  0
 21 23  1  0
  2 24  1  0
  5 25  1  0
  6 26  1  6
  7 27  1  1
  8 28  1  0
 11 29  1  0
 11 30  1  0
 11 31  1  0
 12 32  1  6
 14 33  1  6
 15 34  1  0
 16 35  1  1
 17 36  1  0
 18 37  1  0
 18 38  1  0
 19 39  1  0
 22 40  1  0
 22 41  1  0
 23 42  1  0
 23 43  1  0
M  END
$$$$
