PDB_DB01204_98
     RDKit          3D

 60 62  0  0  0  0  0  0  0  0999 V2000
   26.0130   99.1000   27.9540 O   0  0  0  0  0  0  0  0  0  0  0  0
   25.2730   99.8700   28.9060 C   0  0  0  0  0  0  0  0  0  0  0  0
   26.2050  100.3680   29.9970 C   0  0  0  0  0  0  0  0  0  0  0  0
   25.8160   99.8440   31.2890 N   0  0  0  0  0  0  0  0  0  0  0  0
   26.7780   99.0860   32.0470 C   0  0  0  0  0  0  0  0  0  0  0  0
   26.5590   99.2100   33.5460 C   0  0  0  0  0  0  0  0  0  0  0  0
   26.6110  100.5750   34.0180 N   0  0  0  0  0  0  0  0  0  0  0  0
   27.7480  101.0830   34.5400 C   0  0  0  0  0  0  0  0  0  0  0  0
   28.9450  100.4000   34.3520 C   0  0  0  0  0  0  0  0  0  0  0  0
   30.1190  100.9290   34.8730 C   0  0  0  0  0  0  0  0  0  0  0  0
   27.7240  102.2940   35.2510 C   0  0  0  0  0  0  0  0  0  0  0  0
   26.5290  102.9970   35.4560 C   0  0  0  0  0  0  0  0  0  0  0  0
   25.4490  102.5470   34.9900 O   0  0  0  0  0  0  0  0  0  0  0  0
   26.5380  104.2110   36.1720 C   0  0  0  0  0  0  0  0  0  0  0  0
   25.3440  104.9120   36.3600 C   0  0  0  0  0  0  0  0  0  0  0  0
   24.1790  104.4080   35.8470 O   0  0  0  0  0  0  0  0  0  0  0  0
   25.3320  106.1120   37.0620 C   0  0  0  0  0  0  0  0  0  0  0  0
   26.5190  106.6200   37.5780 C   0  0  0  0  0  0  0  0  0  0  0  0
   27.7110  105.9240   37.4030 C   0  0  0  0  0  0  0  0  0  0  0  0
   28.8650  106.4470   37.9270 O   0  0  0  0  0  0  0  0  0  0  0  0
   27.7280  104.7180   36.6920 C   0  0  0  0  0  0  0  0  0  0  0  0
   28.9200  104.0050   36.4870 C   0  0  0  0  0  0  0  0  0  0  0  0
   30.0200  104.4110   36.9420 O   0  0  0  0  0  0  0  0  0  0  0  0
   28.9060  102.8110   35.7730 C   0  0  0  0  0  0  0  0  0  0  0  0
   30.0980  102.1280   35.5880 C   0  0  0  0  0  0  0  0  0  0  0  0
   31.2450  102.6430   36.0930 N   0  0  0  0  0  0  0  0  0  0  0  0
   32.4990  101.9760   35.7980 C   0  0  0  0  0  0  0  0  0  0  0  0
   33.6830  102.9150   35.9650 C   0  0  0  0  0  0  0  0  0  0  0  0
   34.0500  103.5120   34.6940 N   0  0  0  0  0  0  0  0  0  0  0  0
   33.3980  104.7190   34.2350 C   0  0  0  0  0  0  0  0  0  0  0  0
   33.6880  105.9110   35.1440 C   0  0  0  0  0  0  0  0  0  0  0  0
   32.5320  106.2280   35.9330 O   0  0  0  0  0  0  0  0  0  0  0  0
   26.6141   98.4746   28.4311 H   0  0  0  0  0  0  0  0  0  0  0  0
   24.8099  100.7300   28.4000 H   0  0  0  0  0  0  0  0  0  0  0  0
   24.4906   99.2402   29.3547 H   0  0  0  0  0  0  0  0  0  0  0  0
   27.2309  100.0421   29.7705 H   0  0  0  0  0  0  0  0  0  0  0  0
   26.1490  101.4660   30.0322 H   0  0  0  0  0  0  0  0  0  0  0  0
   25.5372  100.6473   31.8703 H   0  0  0  0  0  0  0  0  0  0  0  0
   26.6954   98.0262   31.7640 H   0  0  0  0  0  0  0  0  0  0  0  0
   27.7768   99.4864   31.8188 H   0  0  0  0  0  0  0  0  0  0  0  0
   25.5710   98.7929   33.7907 H   0  0  0  0  0  0  0  0  0  0  0  0
   27.3734   98.6614   34.0418 H   0  0  0  0  0  0  0  0  0  0  0  0
   25.7707  101.1674   33.9555 H   0  0  0  0  0  0  0  0  0  0  0  0
   28.9618   99.4507   33.7965 H   0  0  0  0  0  0  0  0  0  0  0  0
   31.0713  100.3998   34.7213 H   0  0  0  0  0  0  0  0  0  0  0  0
   23.3286  104.8982   35.9756 H   0  0  0  0  0  0  0  0  0  0  0  0
   24.3878  106.6570   37.2085 H   0  0  0  0  0  0  0  0  0  0  0  0
   26.5157  107.5740   38.1256 H   0  0  0  0  0  0  0  0  0  0  0  0
   29.7229  105.9663   37.8127 H   0  0  0  0  0  0  0  0  0  0  0  0
   31.2269  103.4923   36.6755 H   0  0  0  0  0  0  0  0  0  0  0  0
   32.6198  101.1234   36.4824 H   0  0  0  0  0  0  0  0  0  0  0  0
   32.4719  101.6378   34.7516 H   0  0  0  0  0  0  0  0  0  0  0  0
   33.4140  103.7121   36.6737 H   0  0  0  0  0  0  0  0  0  0  0  0
   34.5396  102.3386   36.3445 H   0  0  0  0  0  0  0  0  0  0  0  0
   35.0570  103.7220   34.7463 H   0  0  0  0  0  0  0  0  0  0  0  0
   33.7554  104.9513   33.2209 H   0  0  0  0  0  0  0  0  0  0  0  0
   32.3124  104.5419   34.2454 H   0  0  0  0  0  0  0  0  0  0  0  0
   34.5262  105.6628   35.8117 H   0  0  0  0  0  0  0  0  0  0  0  0
   33.9466  106.7808   34.5222 H   0  0  0  0  0  0  0  0  0  0  0  0
   32.7611  106.1652   36.8941 H   0  0  0  0  0  0  0  0  0  0  0  0
  1  2  1  0
  2  3  1  0
  3  4  1  0
  4  5  1  0
  5  6  1  0
  6  7  1  0
  7  8  1  0
  8  9  2  0
  9 10  1  0
  8 11  1  0
 11 12  1  0
 12 13  2  0
 12 14  1  0
 14 15  2  0
 15 16  1  0
 15 17  1  0
 17 18  2  0
 18 19  1  0
 19 20  1  0
 14 21  1  0
 19 21  2  0
 21 22  1  0
 22 23  2  0
 11 24  2  0
 22 24  1  0
 10 25  2  0
 24 25  1  0
 25 26  1  0
 26 27  1  0
 27 28  1  0
 28 29  1  0
 29 30  1  0
 30 31  1  0
 31 32  1  0
  1 33  1  0
  2 34  1  0
  2 35  1  0
  3 36  1  0
  3 37  1  0
  4 38  1  0
  5 39  1  0
  5 40  1  0
  6 41  1  0
  6 42  1  0
  7 43  1  0
  9 44  1  0
 10 45  1  0
 16 46  1  0
 17 47  1  0
 18 48  1  0
 20 49  1  0
 26 50  1  0
 27 51  1  0
 27 52  1  0
 28 53  1  0
 28 54  1  0
 29 55  1  0
 30 56  1  0
 30 57  1  0
 31 58  1  0
 31 59  1  0
 32 60  1  0
M  END
$$$$
