PDB_DB01117_99
     RDKit          3D

 45 48  0  0  0  0  0  0  0  0999 V2000
  199.9930  -27.8130   79.1260 O   0  0  0  0  0  0  0  0  0  0  0  0
  200.5160  -30.7940   83.4630 O   0  0  0  0  0  0  0  0  0  0  0  0
  200.1210  -28.4880   80.1940 C   0  0  0  0  0  0  0  0  0  0  0  0
  200.1350  -27.9260   81.4840 C   0  0  0  0  0  0  0  0  0  0  0  0
  200.2560  -28.7390   82.6030 C   0  0  0  0  0  0  0  0  0  0  0  0
  200.3890  -30.0930   82.4420 C   0  0  0  0  0  0  0  0  0  0  0  0
  200.5020  -32.0540   81.0080 C   0  0  0  0  0  0  0  0  0  0  0  0
  200.5040  -32.6290   79.7450 C   0  0  0  0  0  0  0  0  0  0  0  0
  200.3740  -31.7960   78.6500 C   0  0  0  0  0  0  0  0  0  0  0  0
  200.2510  -30.4270   78.8020 C   0  0  0  0  0  0  0  0  0  0  0  0
  200.2540  -29.8640   80.0590 C   0  0  0  0  0  0  0  0  0  0  0  0
  200.3790  -30.6680   81.1720 C   0  0  0  0  0  0  0  0  0  0  0  0
  200.2630  -28.2170   83.8750 O   0  0  0  0  0  0  0  0  0  0  0  0
  200.5750  -25.5310   80.7420 C   0  0  0  0  0  0  0  0  0  0  0  0
  200.1090  -24.1140   81.0040 C   0  0  0  0  0  0  0  0  0  0  0  0
  198.5880  -24.0880   81.1250 C   0  0  0  0  0  0  0  0  0  0  0  0
  198.2030  -24.8430   82.3810 C   0  0  0  0  0  0  0  0  0  0  0  0
  198.5050  -26.2890   82.0780 C   0  0  0  0  0  0  0  0  0  0  0  0
  199.9860  -26.4830   81.7890 C   0  0  0  0  0  0  0  0  0  0  0  0
  196.2890  -18.5770   81.6150 Cl  0  0  0  0  0  0  0  0  0  0  0  0
  198.0780  -22.7150   81.2400 C   0  0  0  0  0  0  0  0  0  0  0  0
  198.9230  -21.6240   81.0900 C   0  0  0  0  0  0  0  0  0  0  0  0
  198.3770  -20.3530   81.2100 C   0  0  0  0  0  0  0  0  0  0  0  0
  197.0080  -20.2030   81.4600 C   0  0  0  0  0  0  0  0  0  0  0  0
  196.1690  -21.3020   81.5990 C   0  0  0  0  0  0  0  0  0  0  0  0
  196.7200  -22.5700   81.4880 C   0  0  0  0  0  0  0  0  0  0  0  0
  200.5986  -32.6971   81.8952 H   0  0  0  0  0  0  0  0  0  0  0  0
  200.6062  -33.7170   79.6190 H   0  0  0  0  0  0  0  0  0  0  0  0
  200.3683  -32.2298   77.6392 H   0  0  0  0  0  0  0  0  0  0  0  0
  200.1503  -29.7846   77.9148 H   0  0  0  0  0  0  0  0  0  0  0  0
  200.3505  -28.8185   84.6564 H   0  0  0  0  0  0  0  0  0  0  0  0
  200.2446  -25.8430   79.7403 H   0  0  0  0  0  0  0  0  0  0  0  0
  201.6728  -25.5652   80.8024 H   0  0  0  0  0  0  0  0  0  0  0  0
  200.5568  -23.7488   81.9400 H   0  0  0  0  0  0  0  0  0  0  0  0
  200.4196  -23.4678   80.1698 H   0  0  0  0  0  0  0  0  0  0  0  0
  198.1568  -24.5451   80.2222 H   0  0  0  0  0  0  0  0  0  0  0  0
  198.7983  -24.4955   83.2383 H   0  0  0  0  0  0  0  0  0  0  0  0
  197.1467  -24.6894   82.6468 H   0  0  0  0  0  0  0  0  0  0  0  0
  198.2229  -26.9054   82.9443 H   0  0  0  0  0  0  0  0  0  0  0  0
  197.9302  -26.5904   81.1899 H   0  0  0  0  0  0  0  0  0  0  0  0
  200.5955  -26.2026   82.6607 H   0  0  0  0  0  0  0  0  0  0  0  0
  199.9943  -21.7624   80.8821 H   0  0  0  0  0  0  0  0  0  0  0  0
  199.0191  -19.4656   81.1088 H   0  0  0  0  0  0  0  0  0  0  0  0
  195.0942  -21.1696   81.7923 H   0  0  0  0  0  0  0  0  0  0  0  0
  196.0818  -23.4594   81.5963 H   0  0  0  0  0  0  0  0  0  0  0  0
  1  3  2  0
  3  4  1  0
  4  5  2  0
  2  6  2  0
  5  6  1  0
  7  8  1  0
  8  9  2  0
  9 10  1  0
  3 11  1  0
 10 11  2  0
  6 12  1  0
  7 12  2  0
 11 12  1  0
  5 13  1  0
 14 15  1  0
 15 16  1  0
 16 17  1  0
 17 18  1  0
  4 19  1  0
 14 19  1  0
 18 19  1  0
 16 21  1  0
 21 22  2  0
 22 23  1  0
 20 24  1  0
 23 24  2  0
 24 25  1  0
 21 26  1  0
 25 26  2  0
  7 27  1  0
  8 28  1  0
  9 29  1  0
 10 30  1  0
 13 31  1  0
 14 32  1  0
 14 33  1  0
 15 34  1  0
 15 35  1  0
 16 36  1  0
 17 37  1  0
 17 38  1  0
 18 39  1  0
 18 40  1  0
 19 41  1  0
 22 42  1  0
 23 43  1  0
 25 44  1  0
 26 45  1  0
M  END
>  <PDBID>  (1) 
4PD4

>  <PDB ID>  (1) 
4PD4

>  <Generic Name>  (1) 
Atovaquone

>  <Brand Name>  (1) 
Atovaquone#Atovaquone Proguanil#Atovaquone and Proguanil HCl#Atovaquone and Proguanil Hydrochloride#Atovaquone and Proguanil Hydrochloride Pediatric#Malarone#Malarone Pediatric#Mepron#Mepron Tab 250mg#Mylan-atovaquone/proguanil#Teva-atovaquone Proguanil

>  <DrugBank ID>  (1) 
DB01117

>  <ATC Codes>  (1) 
P01AX06

>  <Ligand ID>  (1) 
AOQ

>  <Target Name>  (1) 
Cytochrome b

>  <UniProt ID>  (1) 
Q02768

>  <PDB ID.1>  (1) 
4PD4

>  <Seq. Identity>  (1) 
42%

$$$$
