PDB_DB00140_93
     RDKit          3D

 47 49  0  0  0  0  0  0  0  0999 V2000
   -1.3540   19.8690   41.7550 N   0  0  0  0  0  0  0  0  0  0  0  0
   -1.7430   18.5940   41.4430 C   0  0  0  0  0  0  0  0  0  0  0  0
   -2.1830   18.2860   40.2930 O   0  0  0  0  0  0  0  0  0  0  0  0
   -1.6960   17.5960   42.3270 N   0  0  0  0  0  0  0  0  0  0  0  0
   -1.2580   17.7470   43.5930 C   0  0  0  0  0  0  0  0  0  0  0  0
   -1.1950   16.7470   44.3870 O   0  0  0  0  0  0  0  0  0  0  0  0
   -0.8150   19.0940   44.0080 C   0  0  0  0  0  0  0  0  0  0  0  0
   -0.3920   19.3540   45.2800 N   0  0  0  0  0  0  0  0  0  0  0  0
    0.0140   20.6300   45.6160 C   0  0  0  0  0  0  0  0  0  0  0  0
    0.5200   20.8840   46.8860 C   0  0  0  0  0  0  0  0  0  0  0  0
    0.9450   22.1490   47.2820 C   0  0  0  0  0  0  0  0  0  0  0  0
    1.4640   22.3730   48.6980 C   0  0  0  0  0  0  0  0  0  0  0  0
    0.8940   23.2280   46.2620 C   0  0  0  0  0  0  0  0  0  0  0  0
    1.3520   24.6310   46.5640 C   0  0  0  0  0  0  0  0  0  0  0  0
    0.4220   23.0070   44.9670 C   0  0  0  0  0  0  0  0  0  0  0  0
   -0.0200   21.7430   44.6190 C   0  0  0  0  0  0  0  0  0  0  0  0
   -0.4600   21.4970   43.3250 N   0  0  0  0  0  0  0  0  0  0  0  0
   -0.8750   20.1700   42.9910 C   0  0  0  0  0  0  0  0  0  0  0  0
   -0.5630   22.5670   42.3420 C   0  0  0  0  0  0  0  0  0  0  0  0
    0.4590   22.3980   41.2700 C   0  0  2  0  0  0  0  0  0  0  0  0
    1.7370   22.5330   41.8760 O   0  0  0  0  0  0  0  0  0  0  0  0
    0.2190   23.4850   40.2520 C   0  0  2  0  0  0  0  0  0  0  0  0
   -1.0690   23.3560   39.6660 O   0  0  0  0  0  0  0  0  0  0  0  0
    1.2260   23.4160   39.1260 C   0  0  2  0  0  0  0  0  0  0  0  0
    2.5000   23.6900   39.7040 O   0  0  0  0  0  0  0  0  0  0  0  0
    0.8750   24.4270   38.0110 C   0  0  0  0  0  0  0  0  0  0  0  0
    0.9090   25.7740   38.5740 O   0  0  0  0  0  0  0  0  0  0  0  0
   -2.0105   16.6622   42.0269 H   0  0  0  0  0  0  0  0  0  0  0  0
    0.5870   20.0540   47.6048 H   0  0  0  0  0  0  0  0  0  0  0  0
    0.7045   22.0452   49.4230 H   0  0  0  0  0  0  0  0  0  0  0  0
    2.3869   21.7931   48.8463 H   0  0  0  0  0  0  0  0  0  0  0  0
    1.6751   23.4423   48.8463 H   0  0  0  0  0  0  0  0  0  0  0  0
    1.3990   24.7748   47.6535 H   0  0  0  0  0  0  0  0  0  0  0  0
    2.3495   24.7926   46.1295 H   0  0  0  0  0  0  0  0  0  0  0  0
    0.6419   25.3500   46.1295 H   0  0  0  0  0  0  0  0  0  0  0  0
    0.4018   23.8264   44.2334 H   0  0  0  0  0  0  0  0  0  0  0  0
   -1.5661   22.5476   41.8909 H   0  0  0  0  0  0  0  0  0  0  0  0
   -0.3901   23.5289   42.8469 H   0  0  0  0  0  0  0  0  0  0  0  0
    0.4012   21.4182   40.7734 H   0  0  0  0  0  0  0  0  0  0  0  0
    1.6379   22.5225   42.8610 H   0  0  0  0  0  0  0  0  0  0  0  0
    0.3098   24.4404   40.7895 H   0  0  0  0  0  0  0  0  0  0  0  0
   -1.7512   23.2877   40.3802 H   0  0  0  0  0  0  0  0  0  0  0  0
    1.2253   22.4245   38.6496 H   0  0  0  0  0  0  0  0  0  0  0  0
    2.4249   23.6739   40.6910 H   0  0  0  0  0  0  0  0  0  0  0  0
    1.6086   24.3480   37.1951 H   0  0  0  0  0  0  0  0  0  0  0  0
   -0.1273   24.2124   37.6118 H   0  0  0  0  0  0  0  0  0  0  0  0
    0.9076   25.7187   39.5625 H   0  0  0  0  0  0  0  0  0  0  0  0
  1  2  1  0
  2  3  2  0
  2  4  1  0
  4  5  1  0
  5  6  2  0
  5  7  1  0
  7  8  2  0
  8  9  1  0
  9 10  2  0
 10 11  1  0
 11 12  1  0
 11 13  2  0
 13 14  1  0
 13 15  1  0
  9 16  1  0
 15 16  2  0
 16 17  1  0
  1 18  2  0
  7 18  1  0
 17 18  1  0
 17 19  1  0
 19 20  1  0
 20 21  1  0
 20 22  1  0
 22 23  1  0
 22 24  1  0
 24 25  1  0
 24 26  1  0
 26 27  1  0
  4 28  1  0
 10 29  1  0
 12 30  1  0
 12 31  1  0
 12 32  1  0
 14 33  1  0
 14 34  1  0
 14 35  1  0
 15 36  1  0
 19 37  1  0
 19 38  1  0
 20 39  1  6
 21 40  1  0
 22 41  1  1
 23 42  1  0
 24 43  1  6
 25 44  1  0
 26 45  1  0
 26 46  1  0
 27 47  1  0
M  END
$$$$
