PDB_DB00255_99
     RDKit          3D

108110  0  0  0  0  0  0  0  0999 V2000
   -4.7290   -1.2470   22.0110 C   0  0  0  0  0  0  0  0  0  0  0  0
   -3.2390   -1.5110   21.9880 C   0  0  0  0  0  0  0  0  0  0  0  0
   -2.9240   -2.9710   21.6910 C   0  0  0  0  0  0  0  0  0  0  0  0
   -3.7210   -3.6960   20.6240 C   0  0  0  0  0  0  0  0  0  0  0  0
   -3.3830   -3.6440   19.2760 C   0  0  0  0  0  0  0  0  0  0  0  0
   -4.1630   -4.3280   18.3500 C   0  0  0  0  0  0  0  0  0  0  0  0
   -5.2710   -5.0550   18.7690 C   0  0  0  0  0  0  0  0  0  0  0  0
   -6.0670   -5.7460   17.8450 O   0  0  0  0  0  0  0  0  0  0  0  0
   -5.6090   -5.1100   20.1080 C   0  0  0  0  0  0  0  0  0  0  0  0
   -4.8340   -4.4290   21.0280 C   0  0  0  0  0  0  0  0  0  0  0  0
   -1.9490   -3.6380   22.3650 C   0  0  0  0  0  0  0  0  0  0  0  0
   -1.1390   -2.9950   23.4820 C   0  0  1  0  0  0  0  0  0  0  0  0
   -1.7950   -2.7500   24.6800 C   0  0  0  0  0  0  0  0  0  0  0  0
   -1.1340   -2.1820   25.7510 C   0  0  0  0  0  0  0  0  0  0  0  0
    0.2070   -1.8750   25.6440 C   0  0  0  0  0  0  0  0  0  0  0  0
    0.8650   -1.3020   26.7500 O   0  0  0  0  0  0  0  0  0  0  0  0
    0.8840   -2.1330   24.4570 C   0  0  0  0  0  0  0  0  0  0  0  0
    0.2140   -2.6990   23.3770 C   0  0  0  0  0  0  0  0  0  0  0  0
   -1.6890   -5.0910   22.0280 C   0  0  0  0  0  0  0  0  0  0  0  0
   -0.4500   -5.2280   21.1760 C   0  0  0  0  0  0  0  0  0  0  0  0
    5.3340    1.1460   -6.3990 C   0  0  0  0  0  0  0  0  0  0  0  0
    5.9720    2.1840   -5.5040 C   0  0  0  0  0  0  0  0  0  0  0  0
    5.1040    3.4280   -5.4450 C   0  0  0  0  0  0  0  0  0  0  0  0
    3.6190    3.2420   -5.2090 C   0  0  0  0  0  0  0  0  0  0  0  0
    3.1160    3.0570   -3.9290 C   0  0  0  0  0  0  0  0  0  0  0  0
    1.7500    2.8740   -3.7550 C   0  0  0  0  0  0  0  0  0  0  0  0
    0.8960    2.8720   -4.8520 C   0  0  0  0  0  0  0  0  0  0  0  0
   -0.4880    2.6920   -4.6790 O   0  0  0  0  0  0  0  0  0  0  0  0
    1.4000    3.0560   -6.1290 C   0  0  0  0  0  0  0  0  0  0  0  0
    2.7600    3.2370   -6.3070 C   0  0  0  0  0  0  0  0  0  0  0  0
    5.6290    4.6720   -5.5920 C   0  0  0  0  0  0  0  0  0  0  0  0
    7.1100    4.8860   -5.8730 C   0  0  0  0  0  0  0  0  0  0  0  0
    7.5640    4.5720   -7.1480 C   0  0  0  0  0  0  0  0  0  0  0  0
    8.8910    4.7450   -7.4990 C   0  0  0  0  0  0  0  0  0  0  0  0
    9.7790    5.2590   -6.5740 C   0  0  0  0  0  0  0  0  0  0  0  0
   11.1290    5.4340   -6.9360 O   0  0  0  0  0  0  0  0  0  0  0  0
    9.3360    5.5880   -5.2920 C   0  0  0  0  0  0  0  0  0  0  0  0
    8.0010    5.4090   -4.9430 C   0  0  0  0  0  0  0  0  0  0  0  0
    4.7030    5.8710   -5.5230 C   0  0  0  0  0  0  0  0  0  0  0  0
    4.8470    6.5820   -4.1950 C   0  0  0  0  0  0  0  0  0  0  0  0
   -5.0745   -1.1858   23.0535 H   0  0  0  0  0  0  0  0  0  0  0  0
   -4.9411   -0.2973   21.4981 H   0  0  0  0  0  0  0  0  0  0  0  0
   -5.2545   -2.0660   21.4981 H   0  0  0  0  0  0  0  0  0  0  0  0
   -2.7788   -0.8830   21.2109 H   0  0  0  0  0  0  0  0  0  0  0  0
   -2.8356   -1.2715   22.9829 H   0  0  0  0  0  0  0  0  0  0  0  0
   -3.6562   -3.2834   22.4502 H   0  0  0  0  0  0  0  0  0  0  0  0
   -4.3593   -2.8091   20.4982 H   0  0  0  0  0  0  0  0  0  0  0  0
   -3.3942   -2.5837   18.9835 H   0  0  0  0  0  0  0  0  0  0  0  0
   -2.4134   -4.1616   19.2314 H   0  0  0  0  0  0  0  0  0  0  0  0
   -4.5287   -3.5804   17.6307 H   0  0  0  0  0  0  0  0  0  0  0  0
   -3.4813   -5.1053   17.9743 H   0  0  0  0  0  0  0  0  0  0  0  0
   -5.9028   -4.1629   18.6461 H   0  0  0  0  0  0  0  0  0  0  0  0
   -6.7190   -6.3120   18.3294 H   0  0  0  0  0  0  0  0  0  0  0  0
   -6.6328   -4.7178   20.1973 H   0  0  0  0  0  0  0  0  0  0  0  0
   -5.4597   -6.1673   20.3721 H   0  0  0  0  0  0  0  0  0  0  0  0
   -4.4712   -5.1781   21.7471 H   0  0  0  0  0  0  0  0  0  0  0  0
   -5.5190   -3.6490   21.3918 H   0  0  0  0  0  0  0  0  0  0  0  0
   -1.2063   -3.2957   21.6294 H   0  0  0  0  0  0  0  0  0  0  0  0
   -1.4297   -1.9982   23.1190 H   0  0  0  0  0  0  0  0  0  0  0  0
   -2.6379   -2.0838   24.4441 H   0  0  0  0  0  0  0  0  0  0  0  0
   -2.0183   -3.7636   25.0444 H   0  0  0  0  0  0  0  0  0  0  0  0
   -1.6577   -1.2440   25.9876 H   0  0  0  0  0  0  0  0  0  0  0  0
   -1.1544   -2.9749   26.5132 H   0  0  0  0  0  0  0  0  0  0  0  0
   -0.0522   -0.8706   25.2778 H   0  0  0  0  0  0  0  0  0  0  0  0
    0.4665   -1.6490   27.5872 H   0  0  0  0  0  0  0  0  0  0  0  0
    1.2900   -1.1717   24.1089 H   0  0  0  0  0  0  0  0  0  0  0  0
    1.6024   -2.9152   24.7436 H   0  0  0  0  0  0  0  0  0  0  0  0
    0.7290   -3.6421   23.1415 H   0  0  0  0  0  0  0  0  0  0  0  0
    0.2431   -1.9062   22.6150 H   0  0  0  0  0  0  0  0  0  0  0  0
   -1.5509   -5.6587   22.9600 H   0  0  0  0  0  0  0  0  0  0  0  0
   -2.5496   -5.4831   21.4662 H   0  0  0  0  0  0  0  0  0  0  0  0
    0.4325   -5.3256   21.8253 H   0  0  0  0  0  0  0  0  0  0  0  0
   -0.5387   -6.1218   20.5410 H   0  0  0  0  0  0  0  0  0  0  0  0
   -0.3412   -4.3364   20.5410 H   0  0  0  0  0  0  0  0  0  0  0  0
    4.8578    0.3712   -5.7802 H   0  0  0  0  0  0  0  0  0  0  0  0
    4.5748    1.6261   -7.0340 H   0  0  0  0  0  0  0  0  0  0  0  0
    6.1052    0.6855   -7.0340 H   0  0  0  0  0  0  0  0  0  0  0  0
    6.0846    1.7708   -4.4908 H   0  0  0  0  0  0  0  0  0  0  0  0
    6.9580    2.4525   -5.9110 H   0  0  0  0  0  0  0  0  0  0  0  0
    4.9394    3.3646   -6.5308 H   0  0  0  0  0  0  0  0  0  0  0  0
    3.7377    2.1540   -5.3196 H   0  0  0  0  0  0  0  0  0  0  0  0
    3.6142    2.1685   -3.5138 H   0  0  0  0  0  0  0  0  0  0  0  0
    3.3159    4.0164   -3.4295 H   0  0  0  0  0  0  0  0  0  0  0  0
    1.6227    1.9031   -3.2539 H   0  0  0  0  0  0  0  0  0  0  0  0
    1.4461    3.7766   -3.2046 H   0  0  0  0  0  0  0  0  0  0  0  0
    1.0252    1.7841   -4.9506 H   0  0  0  0  0  0  0  0  0  0  0  0
   -0.6989    2.6646   -3.7121 H   0  0  0  0  0  0  0  0  0  0  0  0
    1.1162    2.1696   -6.7153 H   0  0  0  0  0  0  0  0  0  0  0  0
    0.9693    4.0194   -6.4394 H   0  0  0  0  0  0  0  0  0  0  0  0
    2.8864    4.2063   -6.8115 H   0  0  0  0  0  0  0  0  0  0  0  0
    3.0621    2.3328   -6.8558 H   0  0  0  0  0  0  0  0  0  0  0  0
    5.8278    4.7159   -4.5110 H   0  0  0  0  0  0  0  0  0  0  0  0
    7.3209    3.8576   -5.5446 H   0  0  0  0  0  0  0  0  0  0  0  0
    7.3356    3.5078   -7.3070 H   0  0  0  0  0  0  0  0  0  0  0  0
    7.0512    5.3162   -7.7751 H   0  0  0  0  0  0  0  0  0  0  0  0
    9.2745    3.7577   -7.7960 H   0  0  0  0  0  0  0  0  0  0  0  0
    8.8525    5.5207   -8.2780 H   0  0  0  0  0  0  0  0  0  0  0  0
   10.0047    4.2406   -6.2247 H   0  0  0  0  0  0  0  0  0  0  0  0
   11.6831    5.5058   -6.1188 H   0  0  0  0  0  0  0  0  0  0  0  0
    9.9301    4.9865   -4.5882 H   0  0  0  0  0  0  0  0  0  0  0  0
    9.4583    6.6807   -5.2585 H   0  0  0  0  0  0  0  0  0  0  0  0
    7.6130    6.3956   -4.6494 H   0  0  0  0  0  0  0  0  0  0  0  0
    8.0418    4.6339   -4.1635 H   0  0  0  0  0  0  0  0  0  0  0  0
    4.9545    6.5687   -6.3353 H   0  0  0  0  0  0  0  0  0  0  0  0
    3.6648    5.5226   -5.6270 H   0  0  0  0  0  0  0  0  0  0  0  0
    4.7012    5.8622   -3.3760 H   0  0  0  0  0  0  0  0  0  0  0  0
    5.8525    7.0220   -4.1218 H   0  0  0  0  0  0  0  0  0  0  0  0
    4.0920    7.3786   -4.1218 H   0  0  0  0  0  0  0  0  0  0  0  0
  1  2  1  0
  2  3  1  0
  3  4  1  0
  4  5  1  0
  5  6  1  0
  6  7  1  0
  7  8  1  0
  7  9  1  0
  4 10  1  0
  9 10  1  0
  3 11  1  0
 11 12  1  0
 12 13  1  0
 13 14  1  0
 14 15  1  0
 15 16  1  0
 15 17  1  0
 12 18  1  0
 17 18  1  0
 11 19  1  0
 19 20  1  0
 21 22  1  0
 22 23  1  0
 23 24  1  0
 24 25  1  0
 25 26  1  0
 26 27  1  0
 27 28  1  0
 27 29  1  0
 24 30  1  0
 29 30  1  0
 23 31  1  0
 31 32  1  0
 32 33  1  0
 33 34  1  0
 34 35  1  0
 35 36  1  0
 35 37  1  0
 32 38  1  0
 37 38  1  0
 31 39  1  0
 39 40  1  0
  1 41  1  0
  1 42  1  0
  1 43  1  0
  2 44  1  0
  2 45  1  0
  3 46  1  0
  4 47  1  0
  5 48  1  0
  5 49  1  0
  6 50  1  0
  6 51  1  0
  7 52  1  0
  8 53  1  0
  9 54  1  0
  9 55  1  0
 10 56  1  0
 10 57  1  0
 11 58  1  0
 12 59  1  6
 13 60  1  0
 13 61  1  0
 14 62  1  0
 14 63  1  0
 15 64  1  0
 16 65  1  0
 17 66  1  0
 17 67  1  0
 18 68  1  0
 18 69  1  0
 19 70  1  0
 19 71  1  0
 20 72  1  0
 20 73  1  0
 20 74  1  0
 21 75  1  0
 21 76  1  0
 21 77  1  0
 22 78  1  0
 22 79  1  0
 23 80  1  0
 24 81  1  0
 25 82  1  0
 25 83  1  0
 26 84  1  0
 26 85  1  0
 27 86  1  0
 28 87  1  0
 29 88  1  0
 29 89  1  0
 30 90  1  0
 30 91  1  0
 31 92  1  0
 32 93  1  0
 33 94  1  0
 33 95  1  0
 34 96  1  0
 34 97  1  0
 35 98  1  0
 36 99  1  0
 37100  1  0
 37101  1  0
 38102  1  0
 38103  1  0
 39104  1  0
 39105  1  0
 40106  1  0
 40107  1  0
 40108  1  0
M  END
>  <PDBID>  (1) 
4ZN7

>  <PDB ID>  (1) 
4ZN7

>  <Generic Name>  (1) 
Diethylstilbestrol

>  <Brand Name>  (1) 
Honvol Ampoules 250mg#Honvol Tablets 100mg#Stilbestrol 0.5mg Tablet#Stilbestrol 1.0mg Tablet#Stilbestrol Tab 1mg#Stilbestrol Tablets 0.1 mg#Stilbestrol Tablets 0.5 mg#Stilbestrol Tablets 1.0 mg#Stilboestrol Tab 0.1mg#Stilboestrol Tab 0.5mg#Distilbene#Stilbestrol#Stilbetin

>  <DrugBank ID>  (1) 
DB00255

>  <ATC Codes>  (1) 
L02AA01#G03CC05#L02AA04#G03CB02

>  <Ligand ID>  (1) 
DES

>  <Target Name>  (1) 
Estrogen receptor

>  <UniProt ID>  (1) 
P03372

>  <PDB ID.1>  (1) 
4ZN7

>  <Seq. Identity>  (1) 
93%

$$$$
