PDB_DB00862_99
     RDKit          3D

164170  0  0  0  0  0  0  0  0999 V2000
   30.5490    4.8870   -0.1590 C   0  0  0  0  0  0  0  0  0  0  0  0
   29.6160    4.1470   -1.1200 C   0  0  0  0  0  0  0  0  0  0  0  0
   28.3150    4.0590   -0.5200 O   0  0  0  0  0  0  0  0  0  0  0  0
   27.3910    3.5780   -1.3960 C   0  0  0  0  0  0  0  0  0  0  0  0
   27.7690    2.6910   -2.3970 C   0  0  0  0  0  0  0  0  0  0  0  0
   26.8090    2.1630   -3.2530 C   0  0  0  0  0  0  0  0  0  0  0  0
   25.4740    2.5220   -3.1050 C   0  0  0  0  0  0  0  0  0  0  0  0
   25.0950    3.4120   -2.1070 C   0  0  0  0  0  0  0  0  0  0  0  0
   26.0560    3.9420   -1.2520 C   0  0  0  0  0  0  0  0  0  0  0  0
   24.2950    1.8390   -4.2030 S   0  0  1  0  0  4  0  0  0  0  0  0
   23.9580    0.4470   -3.7610 O   0  0  0  0  0  0  0  0  0  0  0  0
   23.0510    2.6750   -4.2180 O   0  0  0  0  0  0  0  0  0  0  0  0
   22.3080    2.9420   -9.9710 C   0  0  0  0  0  0  0  0  0  0  0  0
   24.9910    1.8090   -5.6780 N   0  0  0  0  0  0  0  0  0  0  0  0
   24.7100    0.5790   -6.4350 C   0  0  0  0  0  0  0  0  0  0  0  0
   23.3930    0.6520   -7.2120 C   0  0  0  0  0  0  0  0  0  0  0  0
   23.3950    1.8510   -8.0600 N   0  0  0  0  0  0  0  0  0  0  0  0
   23.3980    3.0170   -7.1670 C   0  0  0  0  0  0  0  0  0  0  0  0
   24.7310    3.0550   -6.4170 C   0  0  0  0  0  0  0  0  0  0  0  0
   22.1820    1.8660   -8.8900 C   0  0  0  0  0  0  0  0  0  0  0  0
   25.6890    4.8360   -0.2510 C   0  0  0  0  0  0  0  0  0  0  0  0
   26.3530    6.0640   -0.1460 N   0  0  0  0  0  0  0  0  0  0  0  0
   25.9790    6.9310    0.8860 C   0  0  0  0  0  0  0  0  0  0  0  0
   24.9670    6.5090    1.7370 C   0  0  0  0  0  0  0  0  0  0  0  0
   24.3750    5.2570    1.5370 N   0  0  0  0  0  0  0  0  0  0  0  0
   24.7210    4.5110    0.6210 N   0  0  0  0  0  0  0  0  0  0  0  0
   26.5500    8.0090    1.0500 O   0  0  0  0  0  0  0  0  0  0  0  0
   24.3370    7.0570    2.8470 C   0  0  0  0  0  0  0  0  0  0  0  0
   23.4190    6.2170    3.3180 N   0  0  0  0  0  0  0  0  0  0  0  0
   23.4200    5.1270    2.5540 C   0  0  0  0  0  0  0  0  0  0  0  0
   24.6430    8.4280    3.4520 C   0  0  0  0  0  0  0  0  0  0  0  0
   22.5700    3.8670    2.7220 C   0  0  0  0  0  0  0  0  0  0  0  0
   23.4250    2.6950    3.2110 C   0  0  0  0  0  0  0  0  0  0  0  0
   24.0980    3.0160    4.5480 C   0  0  0  0  0  0  0  0  0  0  0  0
   63.8230   32.9420   25.6280 C   0  0  0  0  0  0  0  0  0  0  0  0
   64.1620   31.9110   24.5500 C   0  0  0  0  0  0  0  0  0  0  0  0
   63.6480   30.6330   24.9530 O   0  0  0  0  0  0  0  0  0  0  0  0
   63.8510   29.7010   23.9820 C   0  0  0  0  0  0  0  0  0  0  0  0
   65.0210   29.7160   23.2300 C   0  0  0  0  0  0  0  0  0  0  0  0
   65.2320   28.7420   22.2600 C   0  0  0  0  0  0  0  0  0  0  0  0
   64.2760   27.7560   22.0440 C   0  0  0  0  0  0  0  0  0  0  0  0
   63.1050   27.7390   22.7950 C   0  0  0  0  0  0  0  0  0  0  0  0
   62.8950   28.7150   23.7630 C   0  0  0  0  0  0  0  0  0  0  0  0
   64.5520   26.5670   20.7900 S   0  0  1  0  0  4  0  0  0  0  0  0
   65.3110   25.3980   21.3440 O   0  0  0  0  0  0  0  0  0  0  0  0
   63.2410   26.0830   20.2450 O   0  0  0  0  0  0  0  0  0  0  0  0
   64.6740   26.2540   14.5250 C   0  0  0  0  0  0  0  0  0  0  0  0
   65.4330   27.3080   19.6320 N   0  0  0  0  0  0  0  0  0  0  0  0
   66.3740   26.4010   18.9570 C   0  0  0  0  0  0  0  0  0  0  0  0
   65.6670   25.5320   17.9150 C   0  0  0  0  0  0  0  0  0  0  0  0
   64.9890   26.4040   16.9460 N   0  0  0  0  0  0  0  0  0  0  0  0
   63.9240   27.1200   17.6610 C   0  0  0  0  0  0  0  0  0  0  0  0
   64.5600   28.0430   18.7020 C   0  0  0  0  0  0  0  0  0  0  0  0
   64.4040   25.5860   15.8750 C   0  0  0  0  0  0  0  0  0  0  0  0
   61.7200   28.7100   24.5070 C   0  0  0  0  0  0  0  0  0  0  0  0
   60.9650   29.8840   24.6120 N   0  0  0  0  0  0  0  0  0  0  0  0
   59.7770   29.8350   25.3480 C   0  0  0  0  0  0  0  0  0  0  0  0
   59.4340   28.6220   25.9290 C   0  0  0  0  0  0  0  0  0  0  0  0
   60.2700   27.5140   25.7610 N   0  0  0  0  0  0  0  0  0  0  0  0
   61.3090   27.5800   25.1040 N   0  0  0  0  0  0  0  0  0  0  0  0
   59.0670   30.8320   25.4700 O   0  0  0  0  0  0  0  0  0  0  0  0
   58.3840   28.1870   26.7270 C   0  0  0  0  0  0  0  0  0  0  0  0
   58.5430   26.9050   27.0450 N   0  0  0  0  0  0  0  0  0  0  0  0
   59.6670   26.4730   26.4770 C   0  0  0  0  0  0  0  0  0  0  0  0
   57.2050   29.0530   27.1760 C   0  0  0  0  0  0  0  0  0  0  0  0
   60.2840   25.0760   26.5630 C   0  0  0  0  0  0  0  0  0  0  0  0
   61.4890   25.0630   27.5070 C   0  0  0  0  0  0  0  0  0  0  0  0
   61.1540   25.7290   28.8440 C   0  0  0  0  0  0  0  0  0  0  0  0
   30.2623    4.6596    0.8783 H   0  0  0  0  0  0  0  0  0  0  0  0
   31.5858    4.5630   -0.3323 H   0  0  0  0  0  0  0  0  0  0  0  0
   30.4696    5.9704   -0.3323 H   0  0  0  0  0  0  0  0  0  0  0  0
   29.5494    4.6982   -2.0696 H   0  0  0  0  0  0  0  0  0  0  0  0
   30.0063    3.1381   -1.3197 H   0  0  0  0  0  0  0  0  0  0  0  0
   27.5900    4.4239   -2.0704 H   0  0  0  0  0  0  0  0  0  0  0  0
   28.5027    3.2157   -3.0266 H   0  0  0  0  0  0  0  0  0  0  0  0
   28.1221    1.8120   -1.8378 H   0  0  0  0  0  0  0  0  0  0  0  0
   27.1031    2.4471   -4.2742 H   0  0  0  0  0  0  0  0  0  0  0  0
   26.8118    1.0910   -3.0063 H   0  0  0  0  0  0  0  0  0  0  0  0
   25.3247    1.6811   -2.4118 H   0  0  0  0  0  0  0  0  0  0  0  0
   24.6092    4.2630   -2.6068 H   0  0  0  0  0  0  0  0  0  0  0  0
   24.4716    2.7977   -1.4406 H   0  0  0  0  0  0  0  0  0  0  0  0
   26.2101    4.7817   -1.9457 H   0  0  0  0  0  0  0  0  0  0  0  0
   23.9486    0.4080   -2.7718 H   0  0  0  0  0  0  0  0  0  0  0  0
   22.7694    2.8643   -3.2880 H   0  0  0  0  0  0  0  0  0  0  0  0
   22.4234    3.9274   -9.4959 H   0  0  0  0  0  0  0  0  0  0  0  0
   23.1876    2.7316  -10.5971 H   0  0  0  0  0  0  0  0  0  0  0  0
   21.4035    2.9405  -10.5971 H   0  0  0  0  0  0  0  0  0  0  0  0
   25.5304    0.4092   -7.1479 H   0  0  0  0  0  0  0  0  0  0  0  0
   24.6237   -0.2446   -5.7110 H   0  0  0  0  0  0  0  0  0  0  0  0
   23.2882   -0.2435   -7.8422 H   0  0  0  0  0  0  0  0  0  0  0  0
   22.5511    0.7018   -6.5058 H   0  0  0  0  0  0  0  0  0  0  0  0
   23.2794    3.9369   -7.7584 H   0  0  0  0  0  0  0  0  0  0  0  0
   22.5662    2.9436   -6.4509 H   0  0  0  0  0  0  0  0  0  0  0  0
   24.7120    3.8921   -5.7037 H   0  0  0  0  0  0  0  0  0  0  0  0
   25.5323    3.1792   -7.1603 H   0  0  0  0  0  0  0  0  0  0  0  0
   21.3090    2.0842   -8.2573 H   0  0  0  0  0  0  0  0  0  0  0  0
   22.0563    0.8833   -9.3680 H   0  0  0  0  0  0  0  0  0  0  0  0
   26.4257    4.3797    0.4266 H   0  0  0  0  0  0  0  0  0  0  0  0
   27.3554    5.8600   -0.0254 H   0  0  0  0  0  0  0  0  0  0  0  0
   25.2308    7.3940    0.2259 H   0  0  0  0  0  0  0  0  0  0  0  0
   24.2185    6.9687    1.0749 H   0  0  0  0  0  0  0  0  0  0  0  0
   23.8757    4.3391    0.0581 H   0  0  0  0  0  0  0  0  0  0  0  0
   26.6449    8.1881    2.0190 H   0  0  0  0  0  0  0  0  0  0  0  0
   23.5815    7.5153    2.1919 H   0  0  0  0  0  0  0  0  0  0  0  0
   23.6461    5.9617    4.2897 H   0  0  0  0  0  0  0  0  0  0  0  0
   24.1778    4.6698    3.2072 H   0  0  0  0  0  0  0  0  0  0  0  0
   24.6270    8.3563    4.5495 H   0  0  0  0  0  0  0  0  0  0  0  0
   25.6376    8.7612    3.1208 H   0  0  0  0  0  0  0  0  0  0  0  0
   23.8845    9.1525    3.1208 H   0  0  0  0  0  0  0  0  0  0  0  0
   21.7746    4.0639    3.4559 H   0  0  0  0  0  0  0  0  0  0  0  0
   22.1348    3.6029    1.7469 H   0  0  0  0  0  0  0  0  0  0  0  0
   22.7826    1.8109    3.3365 H   0  0  0  0  0  0  0  0  0  0  0  0
   24.2101    2.5034    2.4647 H   0  0  0  0  0  0  0  0  0  0  0  0
   23.4417    2.7029    5.3734 H   0  0  0  0  0  0  0  0  0  0  0  0
   25.0546    2.4772    4.6157 H   0  0  0  0  0  0  0  0  0  0  0  0
   24.2813    4.0985    4.6157 H   0  0  0  0  0  0  0  0  0  0  0  0
   63.9700   32.4948   26.6222 H   0  0  0  0  0  0  0  0  0  0  0  0
   64.4808   33.8168   25.5185 H   0  0  0  0  0  0  0  0  0  0  0  0
   62.7744   33.2557   25.5185 H   0  0  0  0  0  0  0  0  0  0  0  0
   63.7033   32.2096   23.5958 H   0  0  0  0  0  0  0  0  0  0  0  0
   65.2527   31.8508   24.4208 H   0  0  0  0  0  0  0  0  0  0  0  0
   63.3698   30.3624   23.2465 H   0  0  0  0  0  0  0  0  0  0  0  0
   65.0579   30.6888   22.7178 H   0  0  0  0  0  0  0  0  0  0  0  0
   65.8047   29.5091   23.9737 H   0  0  0  0  0  0  0  0  0  0  0  0
   65.3651   29.2698   21.3041 H   0  0  0  0  0  0  0  0  0  0  0  0
   66.0918   28.1784   22.6513 H   0  0  0  0  0  0  0  0  0  0  0  0
   64.7659   27.1169   22.7934 H   0  0  0  0  0  0  0  0  0  0  0  0
   62.2686   27.8092   22.0840 H   0  0  0  0  0  0  0  0  0  0  0  0
   63.1881   26.8109   23.3796 H   0  0  0  0  0  0  0  0  0  0  0  0
   62.4074   29.3545   23.0125 H   0  0  0  0  0  0  0  0  0  0  0  0
   65.2903   25.4300   22.3333 H   0  0  0  0  0  0  0  0  0  0  0  0
   62.6344   25.8591   20.9947 H   0  0  0  0  0  0  0  0  0  0  0  0
   65.0816   27.2623   14.6898 H   0  0  0  0  0  0  0  0  0  0  0  0
   65.4000   25.6534   13.9574 H   0  0  0  0  0  0  0  0  0  0  0  0
   63.7346   26.3265   13.9574 H   0  0  0  0  0  0  0  0  0  0  0  0
   67.1498   26.9990   18.4565 H   0  0  0  0  0  0  0  0  0  0  0  0
   66.8177   25.7384   19.7147 H   0  0  0  0  0  0  0  0  0  0  0  0
   66.4063   24.9061   17.3938 H   0  0  0  0  0  0  0  0  0  0  0  0
   64.9299   24.8830   18.4105 H   0  0  0  0  0  0  0  0  0  0  0  0
   63.3371   27.7171   16.9475 H   0  0  0  0  0  0  0  0  0  0  0  0
   63.2593   26.3987   18.1589 H   0  0  0  0  0  0  0  0  0  0  0  0
   63.7608   28.5329   19.2775 H   0  0  0  0  0  0  0  0  0  0  0  0
   65.1771   28.7814   18.1690 H   0  0  0  0  0  0  0  0  0  0  0  0
   63.3187   25.4977   16.0310 H   0  0  0  0  0  0  0  0  0  0  0  0
   64.8564   24.5834   15.8876 H   0  0  0  0  0  0  0  0  0  0  0  0
   62.2876   28.9947   25.4053 H   0  0  0  0  0  0  0  0  0  0  0  0
   61.5666   30.5974   25.0479 H   0  0  0  0  0  0  0  0  0  0  0  0
   59.2251   29.5554   24.4385 H   0  0  0  0  0  0  0  0  0  0  0  0
   58.8813   28.3428   25.0198 H   0  0  0  0  0  0  0  0  0  0  0  0
   61.2174   26.8790   24.3549 H   0  0  0  0  0  0  0  0  0  0  0  0
   58.9302   31.0241   26.4315 H   0  0  0  0  0  0  0  0  0  0  0  0
   57.8219   27.8943   25.8279 H   0  0  0  0  0  0  0  0  0  0  0  0
   58.6082   26.8048   28.0680 H   0  0  0  0  0  0  0  0  0  0  0  0
   60.2323   26.7632   27.3749 H   0  0  0  0  0  0  0  0  0  0  0  0
   57.1677   29.0804   28.2750 H   0  0  0  0  0  0  0  0  0  0  0  0
   57.3316   30.0744   26.7879 H   0  0  0  0  0  0  0  0  0  0  0  0
   56.2682   28.6267   26.7879 H   0  0  0  0  0  0  0  0  0  0  0  0
   59.5268   24.3713   26.9372 H   0  0  0  0  0  0  0  0  0  0  0  0
   60.6235   24.7815   25.5590 H   0  0  0  0  0  0  0  0  0  0  0  0
   61.7892   24.0208   27.6909 H   0  0  0  0  0  0  0  0  0  0  0  0
   62.3074   25.6255   27.0338 H   0  0  0  0  0  0  0  0  0  0  0  0
   61.4808   25.0793   29.6693 H   0  0  0  0  0  0  0  0  0  0  0  0
   61.6726   26.6967   28.9117 H   0  0  0  0  0  0  0  0  0  0  0  0
   60.0679   25.8895   28.9117 H   0  0  0  0  0  0  0  0  0  0  0  0
  1  2  1  0
  2  3  1  0
  3  4  1  0
  4  5  1  0
  5  6  1  0
  6  7  1  0
  7  8  1  0
  4  9  1  0
  8  9  1  0
  7 10  1  0
 10 11  1  1
 10 12  1  0
 10 14  1  0
 14 15  1  0
 15 16  1  0
 16 17  1  0
 17 18  1  0
 14 19  1  0
 18 19  1  0
 13 20  1  0
 17 20  1  0
  9 21  1  0
 21 22  1  0
 22 23  1  0
 23 24  1  0
 24 25  1  0
 21 26  1  0
 25 26  1  0
 23 27  1  0
 24 28  1  0
 28 29  1  0
 25 30  1  0
 29 30  1  0
 28 31  1  0
 30 32  1  0
 32 33  1  0
 33 34  1  0
 35 36  1  0
 36 37  1  0
 37 38  1  0
 38 39  1  0
 39 40  1  0
 40 41  1  0
 41 42  1  0
 38 43  1  0
 42 43  1  0
 41 44  1  0
 44 45  1  1
 44 46  1  0
 44 48  1  0
 48 49  1  0
 49 50  1  0
 50 51  1  0
 51 52  1  0
 48 53  1  0
 52 53  1  0
 47 54  1  0
 51 54  1  0
 43 55  1  0
 55 56  1  0
 56 57  1  0
 57 58  1  0
 58 59  1  0
 55 60  1  0
 59 60  1  0
 57 61  1  0
 58 62  1  0
 62 63  1  0
 59 64  1  0
 63 64  1  0
 62 65  1  0
 64 66  1  0
 66 67  1  0
 67 68  1  0
  1 69  1  0
  1 70  1  0
  1 71  1  0
  2 72  1  0
  2 73  1  0
  4 74  1  0
  5 75  1  0
  5 76  1  0
  6 77  1  0
  6 78  1  0
  7 79  1  0
  8 80  1  0
  8 81  1  0
  9 82  1  0
 11 83  1  0
 12 84  1  0
 13 85  1  0
 13 86  1  0
 13 87  1  0
 15 88  1  0
 15 89  1  0
 16 90  1  0
 16 91  1  0
 18 92  1  0
 18 93  1  0
 19 94  1  0
 19 95  1  0
 20 96  1  0
 20 97  1  0
 21 98  1  0
 22 99  1  0
 23100  1  0
 24101  1  0
 26102  1  0
 27103  1  0
 28104  1  0
 29105  1  0
 30106  1  0
 31107  1  0
 31108  1  0
 31109  1  0
 32110  1  0
 32111  1  0
 33112  1  0
 33113  1  0
 34114  1  0
 34115  1  0
 34116  1  0
 35117  1  0
 35118  1  0
 35119  1  0
 36120  1  0
 36121  1  0
 38122  1  0
 39123  1  0
 39124  1  0
 40125  1  0
 40126  1  0
 41127  1  0
 42128  1  0
 42129  1  0
 43130  1  0
 45131  1  0
 46132  1  0
 47133  1  0
 47134  1  0
 47135  1  0
 49136  1  0
 49137  1  0
 50138  1  0
 50139  1  0
 52140  1  0
 52141  1  0
 53142  1  0
 53143  1  0
 54144  1  0
 54145  1  0
 55146  1  0
 56147  1  0
 57148  1  0
 58149  1  0
 60150  1  0
 61151  1  0
 62152  1  0
 63153  1  0
 64154  1  0
 65155  1  0
 65156  1  0
 65157  1  0
 66158  1  0
 66159  1  0
 67160  1  0
 67161  1  0
 68162  1  0
 68163  1  0
 68164  1  0
M  END
>  <PDBID>  (1) 
3B2R

>  <PDB ID>  (1) 
3B2R

>  <Generic Name>  (1) 
Vardenafil

>  <Brand Name>  (1) 
Levitra#Staxyn#Vivanza

>  <DrugBank ID>  (1) 
DB00862

>  <ATC Codes>  (1) 
G04BE09

>  <Ligand ID>  (1) 
VDN

>  <Target Name>  (1) 
cGMP-specific 3',5'-cyclic phosphodiesterase

>  <UniProt ID>  (1) 
O76074

>  <PDB ID.1>  (1) 
3B2R

>  <Seq. Identity>  (1) 
94%

$$$$
