PDB_DB01157_92
     RDKit          3D

 50 52  0  0  0  0  0  0  0  0999 V2000
   17.6500   19.1810   21.7740 N   0  0  0  0  0  0  0  0  0  0  0  0
   16.6270   18.3550   22.5030 C   0  0  0  0  0  0  0  0  0  0  0  0
   17.0280   17.5090   23.7010 N   0  0  0  0  0  0  0  0  0  0  0  0
   18.3970   17.5130   24.1370 C   0  0  0  0  0  0  0  0  0  0  0  0
   19.0380   19.1890   22.2200 C   0  0  0  0  0  0  0  0  0  0  0  0
   19.4440   18.3690   23.4020 C   0  0  0  0  0  0  0  0  0  0  0  0
   20.9450   18.3920   23.8890 C   0  0  0  0  0  0  0  0  0  0  0  0
   21.9780   19.2350   23.1290 C   0  0  0  0  0  0  0  0  0  0  0  0
   21.5440   20.0680   21.9180 C   0  0  0  0  0  0  0  0  0  0  0  0
   20.0750   20.0660   21.4380 C   0  0  0  0  0  0  0  0  0  0  0  0
   23.4380   19.2430   23.6160 C   0  0  0  0  0  0  0  0  0  0  0  0
   24.2820   19.9660   22.7170 N   0  0  0  0  0  0  0  0  0  0  0  0
   24.2150   21.3950   22.6580 C   0  0  0  0  0  0  0  0  0  0  0  0
   25.2100   22.1610   21.7790 C   0  0  0  0  0  0  0  0  0  0  0  0
   25.1380   23.6940   21.7390 C   0  0  0  0  0  0  0  0  0  0  0  0
   24.0830   24.4570   22.5660 C   0  0  0  0  0  0  0  0  0  0  0  0
   23.0800   23.6770   23.4500 C   0  0  0  0  0  0  0  0  0  0  0  0
   23.1580   22.1440   23.4890 C   0  0  0  0  0  0  0  0  0  0  0  0
   21.3860   17.6470   25.1500 C   0  0  0  0  0  0  0  0  0  0  0  0
   26.0430   24.3930   20.9320 O   0  0  0  0  0  0  0  0  0  0  0  0
   24.0090   25.8620   22.4980 O   0  0  0  0  0  0  0  0  0  0  0  0
   22.1180   24.3600   24.2290 O   0  0  0  0  0  0  0  0  0  0  0  0
   26.9690   23.6670   20.1700 C   0  0  0  0  0  0  0  0  0  0  0  0
   24.8430   26.6670   23.2990 C   0  0  0  0  0  0  0  0  0  0  0  0
   20.8470   23.8040   24.4610 C   0  0  0  0  0  0  0  0  0  0  0  0
   15.2610   18.3580   22.0530 N   0  0  0  0  0  0  0  0  0  0  0  0
   18.7620   16.6380   25.2130 N   0  0  0  0  0  0  0  0  0  0  0  0
   22.2885   20.6758   21.3830 H   0  0  0  0  0  0  0  0  0  0  0  0
   19.7650   20.6652   20.5692 H   0  0  0  0  0  0  0  0  0  0  0  0
   23.4822   19.7165   24.6079 H   0  0  0  0  0  0  0  0  0  0  0  0
   23.7932   18.2031   23.6647 H   0  0  0  0  0  0  0  0  0  0  0  0
   24.9404   19.4574   22.1098 H   0  0  0  0  0  0  0  0  0  0  0  0
   25.9633   21.6211   21.1865 H   0  0  0  0  0  0  0  0  0  0  0  0
   22.4535   21.5771   24.1153 H   0  0  0  0  0  0  0  0  0  0  0  0
   21.0562   18.2042   26.0393 H   0  0  0  0  0  0  0  0  0  0  0  0
   20.9366   16.6430   25.1588 H   0  0  0  0  0  0  0  0  0  0  0  0
   22.4824   17.5580   25.1588 H   0  0  0  0  0  0  0  0  0  0  0  0
   27.6548   23.1293   20.8412 H   0  0  0  0  0  0  0  0  0  0  0  0
   26.4352   22.9442   19.5354 H   0  0  0  0  0  0  0  0  0  0  0  0
   27.5435   24.3578   19.5354 H   0  0  0  0  0  0  0  0  0  0  0  0
   24.6358   26.4670   24.3606 H   0  0  0  0  0  0  0  0  0  0  0  0
   25.8959   26.4350   23.0809 H   0  0  0  0  0  0  0  0  0  0  0  0
   24.6484   27.7274   23.0809 H   0  0  0  0  0  0  0  0  0  0  0  0
   20.6724   23.7276   25.5444 H   0  0  0  0  0  0  0  0  0  0  0  0
   20.0773   24.4476   24.0100 H   0  0  0  0  0  0  0  0  0  0  0  0
   20.7973   22.8019   24.0100 H   0  0  0  0  0  0  0  0  0  0  0  0
   14.5546   17.7946   22.5475 H   0  0  0  0  0  0  0  0  0  0  0  0
   14.9891   18.9236   21.2363 H   0  0  0  0  0  0  0  0  0  0  0  0
   19.7347   16.6152   25.5509 H   0  0  0  0  0  0  0  0  0  0  0  0
   18.0514   16.0324   25.6479 H   0  0  0  0  0  0  0  0  0  0  0  0
  1  2  2  0
  2  3  1  0
  3  4  2  0
  1  5  1  0
  4  6  1  0
  5  6  2  0
  6  7  1  0
  7  8  2  0
  8  9  1  0
  5 10  1  0
  9 10  2  0
  8 11  1  0
 11 12  1  0
 12 13  1  0
 13 14  2  0
 14 15  1  0
 15 16  2  0
 16 17  1  0
 13 18  1  0
 17 18  2  0
  7 19  1  0
 15 20  1  0
 16 21  1  0
 17 22  1  0
 20 23  1  0
 21 24  1  0
 22 25  1  0
  2 26  1  0
  4 27  1  0
  9 28  1  0
 10 29  1  0
 11 30  1  0
 11 31  1  0
 12 32  1  0
 14 33  1  0
 18 34  1  0
 19 35  1  0
 19 36  1  0
 19 37  1  0
 23 38  1  0
 23 39  1  0
 23 40  1  0
 24 41  1  0
 24 42  1  0
 24 43  1  0
 25 44  1  0
 25 45  1  0
 25 46  1  0
 26 47  1  0
 26 48  1  0
 27 49  1  0
 27 50  1  0
M  END
$$$$
