PDB_DB03849_96
     RDKit          3D

 50 52  0  0  0  0  0  0  0  0999 V2000
    4.8130   -1.3650   50.2200 O   0  0  0  0  0  0  0  0  0  0  0  0
    5.8210   -0.8910   50.7960 C   0  0  0  0  0  0  0  0  0  0  0  0
    6.8400   -0.5550   50.1540 O   0  0  0  0  0  0  0  0  0  0  0  0
    5.8100   -0.7200   52.2980 C   0  0  0  0  0  0  0  0  0  0  0  0
    4.7630   -1.6530   52.9040 C   0  0  0  0  0  0  0  0  0  0  0  0
    4.8530   -1.7420   54.4290 C   0  0  0  0  0  0  0  0  0  0  0  0
    7.2080   -0.9850   52.8760 C   0  0  0  0  0  0  0  0  0  0  0  0
    7.2400   -1.1090   54.4060 C   0  0  0  0  0  0  0  0  0  0  0  0
    6.2450   -2.1510   54.9150 C   0  0  0  0  0  0  0  0  0  0  0  0
    6.6010   -3.4350   54.2890 C   0  0  0  0  0  0  0  0  0  0  0  0
    6.8620   -4.4290   53.7510 N   0  0  0  0  0  0  0  0  0  0  0  0
    6.2310   -2.3160   56.4300 C   0  0  0  0  0  0  0  0  0  0  0  0
    6.9860   -1.5460   57.3250 C   0  0  0  0  0  0  0  0  0  0  0  0
    6.9030   -1.7740   58.7080 C   0  0  0  0  0  0  0  0  0  0  0  0
    6.0700   -2.7780   59.2140 C   0  0  0  0  0  0  0  0  0  0  0  0
    5.9360   -3.0620   60.5590 O   0  0  0  0  0  0  0  0  0  0  0  0
    6.7500   -2.4350   61.5490 C   0  0  0  0  0  0  0  0  0  0  0  0
    5.3320   -3.5430   58.3370 C   0  0  0  0  0  0  0  0  0  0  0  0
    5.4140   -3.3130   56.9610 C   0  0  0  0  0  0  0  0  0  0  0  0
    4.5120   -4.5200   58.8540 O   0  0  0  0  0  0  0  0  0  0  0  0
    3.5830   -5.2390   58.0310 C   0  0  0  0  0  0  0  0  0  0  0  0
    2.8280   -6.2450   58.8820 C   0  0  0  0  0  0  0  0  0  0  0  0
    1.5820   -5.5100   59.3500 C   0  0  0  0  0  0  0  0  0  0  0  0
    1.2780   -4.4380   58.3290 C   0  0  0  0  0  0  0  0  0  0  0  0
    2.5150   -4.3100   57.4580 C   0  0  0  0  0  0  0  0  0  0  0  0
    7.6244   -0.1829   50.6297 H   0  0  0  0  0  0  0  0  0  0  0  0
    5.5417    0.3159   52.5529 H   0  0  0  0  0  0  0  0  0  0  0  0
    3.7637   -1.2818   52.6328 H   0  0  0  0  0  0  0  0  0  0  0  0
    4.9490   -2.6606   52.5039 H   0  0  0  0  0  0  0  0  0  0  0  0
    4.6068   -0.7578   54.8542 H   0  0  0  0  0  0  0  0  0  0  0  0
    4.1448   -2.5162   54.7592 H   0  0  0  0  0  0  0  0  0  0  0  0
    7.5878   -1.9232   52.4453 H   0  0  0  0  0  0  0  0  0  0  0  0
    7.8294   -0.1157   52.6149 H   0  0  0  0  0  0  0  0  0  0  0  0
    8.2531   -1.4029   54.7177 H   0  0  0  0  0  0  0  0  0  0  0  0
    6.9605   -0.1344   54.8326 H   0  0  0  0  0  0  0  0  0  0  0  0
    7.6489   -0.7567   56.9410 H   0  0  0  0  0  0  0  0  0  0  0  0
    7.4975   -1.1585   59.3991 H   0  0  0  0  0  0  0  0  0  0  0  0
    6.3891   -2.7130   62.5502 H   0  0  0  0  0  0  0  0  0  0  0  0
    7.7923   -2.7659   61.4300 H   0  0  0  0  0  0  0  0  0  0  0  0
    6.6961   -1.3428   61.4300 H   0  0  0  0  0  0  0  0  0  0  0  0
    4.8175   -3.9358   56.2781 H   0  0  0  0  0  0  0  0  0  0  0  0
    4.1647   -5.7130   57.2266 H   0  0  0  0  0  0  0  0  0  0  0  0
    2.5547   -7.1278   58.2854 H   0  0  0  0  0  0  0  0  0  0  0  0
    3.4334   -6.6091   59.7251 H   0  0  0  0  0  0  0  0  0  0  0  0
    0.7372   -6.2107   59.4220 H   0  0  0  0  0  0  0  0  0  0  0  0
    1.7439   -5.0652   60.3430 H   0  0  0  0  0  0  0  0  0  0  0  0
    0.4113   -4.7300   57.7178 H   0  0  0  0  0  0  0  0  0  0  0  0
    1.0334   -3.4824   58.8159 H   0  0  0  0  0  0  0  0  0  0  0  0
    2.8762   -3.2711   57.4702 H   0  0  0  0  0  0  0  0  0  0  0  0
    2.2842   -4.5829   56.4177 H   0  0  0  0  0  0  0  0  0  0  0  0
  1  2  2  0
  2  3  1  0
  2  4  1  0
  4  5  1  0
  5  6  1  0
  4  7  1  0
  7  8  1  0
  6  9  1  0
  8  9  1  0
  9 10  1  0
 10 11  3  0
  9 12  1  0
 12 13  2  0
 13 14  1  0
 14 15  2  0
 15 16  1  0
 16 17  1  0
 15 18  1  0
 12 19  1  0
 18 19  2  0
 18 20  1  0
 20 21  1  0
 21 22  1  0
 22 23  1  0
 23 24  1  0
 21 25  1  0
 24 25  1  0
  3 26  1  0
  4 27  1  0
  5 28  1  0
  5 29  1  0
  6 30  1  0
  6 31  1  0
  7 32  1  0
  7 33  1  0
  8 34  1  0
  8 35  1  0
 13 36  1  0
 14 37  1  0
 17 38  1  0
 17 39  1  0
 17 40  1  0
 19 41  1  0
 21 42  1  0
 22 43  1  0
 22 44  1  0
 23 45  1  0
 23 46  1  0
 24 47  1  0
 24 48  1  0
 25 49  1  0
 25 50  1  0
M  END
$$$$
