PDB_DB01092_99
     RDKit          3D

 85 90  0  0  0  0  0  0  0  0999 V2000
  -26.3960  -19.0990   74.6690 C   0  0  2  0  0  0  0  0  0  0  0  0
  -27.9050  -19.3420   74.7150 C   0  0  0  0  0  0  0  0  0  0  0  0
  -28.2100  -20.3120   75.8420 C   0  0  1  0  0  0  0  0  0  0  0  0
  -27.4620  -21.6100   75.5740 C   0  0  0  0  0  0  0  0  0  0  0  0
  -25.9510  -21.4110   75.4250 C   0  0  1  0  0  0  0  0  0  0  0  0
  -25.2690  -22.7470   75.1730 C   0  0  0  0  0  0  0  0  0  0  0  0
  -25.6680  -23.2930   73.8150 C   0  0  0  0  0  0  0  0  0  0  0  0
  -25.3310  -22.2780   72.7220 C   0  0  2  0  0  0  0  0  0  0  0  0
  -25.9980  -20.9160   72.9380 C   0  0  1  0  0  0  0  0  0  0  0  0
  -25.6290  -20.3770   74.3270 C   0  0  1  0  0  0  0  0  0  0  0  0
  -25.5570  -20.0460   71.7540 C   0  0  1  0  0  0  0  0  0  0  0  0
  -26.2620  -20.5630   70.5080 C   0  0  0  0  0  0  0  0  0  0  0  0
  -25.8260  -21.9770   70.1400 C   0  0  1  0  0  0  0  0  0  0  0  0
  -25.5500  -22.9070   71.3430 C   0  0  2  0  0  0  0  0  0  0  0  0
  -26.6650  -23.9430   71.4350 C   0  0  0  0  0  0  0  0  0  0  0  0
  -27.4940  -23.8500   70.1760 C   0  0  0  0  0  0  0  0  0  0  0  0
  -27.0150  -22.6260   69.4230 C   0  0  2  0  0  0  0  0  0  0  0  0
  -24.5910  -21.8050   69.2530 C   0  0  0  0  0  0  0  0  0  0  0  0
  -24.1160  -20.1600   74.2110 C   0  0  0  0  0  0  0  0  0  0  0  0
  -26.7240  -23.1300   68.0570 C   0  0  0  0  0  0  0  0  0  0  0  0
  -25.7380  -24.2390   67.7120 C   0  0  0  0  0  0  0  0  0  0  0  0
  -27.4020  -22.6550   67.0260 C   0  0  0  0  0  0  0  0  0  0  0  0
  -26.9570  -23.4640   65.9010 C   0  0  0  0  0  0  0  0  0  0  0  0
  -28.2980  -20.0190   78.2670 C   0  0  2  0  0  0  0  0  0  0  0  0
  -27.5660  -19.1450   79.2690 C   0  0  1  0  0  0  0  0  0  0  0  0
  -27.7650  -17.6720   78.9010 C   0  0  1  0  0  0  0  0  0  0  0  0
  -29.2460  -17.3190   78.7390 C   0  0  2  0  0  0  0  0  0  0  0  0
  -29.9450  -18.3320   77.8330 C   0  0  2  0  0  0  0  0  0  0  0  0
  -31.4490  -18.1250   77.8010 C   0  0  0  0  0  0  0  0  0  0  0  0
  -25.9480  -18.6020   75.9400 O   0  0  0  0  0  0  0  0  0  0  0  0
  -27.6830  -19.7160   77.0210 O   0  0  0  0  0  0  0  0  0  0  0  0
  -25.4270  -20.9290   76.6630 O   0  0  0  0  0  0  0  0  0  0  0  0
  -25.8020  -18.6360   71.8960 O   0  0  0  0  0  0  0  0  0  0  0  0
  -24.3510  -23.6210   71.0630 O   0  0  0  0  0  0  0  0  0  0  0  0
  -23.7360  -18.8000   73.9650 O   0  0  0  0  0  0  0  0  0  0  0  0
  -26.0670  -24.5070   66.3520 O   0  0  0  0  0  0  0  0  0  0  0  0
  -27.2790  -23.3000   64.7480 O   0  0  0  0  0  0  0  0  0  0  0  0
  -28.0640  -19.4390   80.5760 O   0  0  0  0  0  0  0  0  0  0  0  0
  -27.1660  -16.8330   79.8910 O   0  0  0  0  0  0  0  0  0  0  0  0
  -29.3650  -16.0060   78.1770 O   0  0  0  0  0  0  0  0  0  0  0  0
  -29.6880  -19.6740   78.2670 O   0  0  0  0  0  0  0  0  0  0  0  0
  -26.1981  -18.3586   73.8799 H   0  0  0  0  0  0  0  0  0  0  0  0
  -28.4274  -18.3907   74.8944 H   0  0  0  0  0  0  0  0  0  0  0  0
  -28.2452  -19.7628   73.7573 H   0  0  0  0  0  0  0  0  0  0  0  0
  -29.2864  -20.5198   75.9328 H   0  0  0  0  0  0  0  0  0  0  0  0
  -27.6437  -22.2986   76.4123 H   0  0  0  0  0  0  0  0  0  0  0  0
  -27.8358  -22.0141   74.6216 H   0  0  0  0  0  0  0  0  0  0  0  0
  -24.1781  -22.6090   75.2025 H   0  0  0  0  0  0  0  0  0  0  0  0
  -25.5794  -23.4600   75.9510 H   0  0  0  0  0  0  0  0  0  0  0  0
  -25.1218  -24.2285   73.6240 H   0  0  0  0  0  0  0  0  0  0  0  0
  -26.7512  -23.4845   73.8075 H   0  0  0  0  0  0  0  0  0  0  0  0
  -24.2611  -22.0297   72.7819 H   0  0  0  0  0  0  0  0  0  0  0  0
  -27.0975  -20.9493   72.9470 H   0  0  0  0  0  0  0  0  0  0  0  0
  -24.4622  -20.1335   71.6922 H   0  0  0  0  0  0  0  0  0  0  0  0
  -27.3468  -20.5636   70.6901 H   0  0  0  0  0  0  0  0  0  0  0  0
  -25.9950  -19.9005   69.6714 H   0  0  0  0  0  0  0  0  0  0  0  0
  -26.2321  -24.9504   71.5233 H   0  0  0  0  0  0  0  0  0  0  0  0
  -27.2909  -23.7530   72.3194 H   0  0  0  0  0  0  0  0  0  0  0  0
  -27.3517  -24.7515   69.5620 H   0  0  0  0  0  0  0  0  0  0  0  0
  -28.5649  -23.7713   70.4147 H   0  0  0  0  0  0  0  0  0  0  0  0
  -27.7525  -21.8114   69.3725 H   0  0  0  0  0  0  0  0  0  0  0  0
  -23.6997  -21.6809   69.8855 H   0  0  0  0  0  0  0  0  0  0  0  0
  -24.4689  -22.6948   68.6179 H   0  0  0  0  0  0  0  0  0  0  0  0
  -24.7167  -20.9157   68.6179 H   0  0  0  0  0  0  0  0  0  0  0  0
  -23.6475  -20.4846   75.1519 H   0  0  0  0  0  0  0  0  0  0  0  0
  -23.7777  -20.7453   73.3433 H   0  0  0  0  0  0  0  0  0  0  0  0
  -24.6977  -23.8959   67.8125 H   0  0  0  0  0  0  0  0  0  0  0  0
  -25.8078  -25.1182   68.3693 H   0  0  0  0  0  0  0  0  0  0  0  0
  -28.1353  -21.8351   67.0199 H   0  0  0  0  0  0  0  0  0  0  0  0
  -28.2397  -21.0941   78.4925 H   0  0  0  0  0  0  0  0  0  0  0  0
  -26.4850  -19.3480   79.2533 H   0  0  0  0  0  0  0  0  0  0  0  0
  -27.2746  -17.5027   77.9310 H   0  0  0  0  0  0  0  0  0  0  0  0
  -29.7263  -17.3446   79.7283 H   0  0  0  0  0  0  0  0  0  0  0  0
  -29.5367  -18.1740   76.8239 H   0  0  0  0  0  0  0  0  0  0  0  0
  -31.8338  -18.0720   78.8301 H   0  0  0  0  0  0  0  0  0  0  0  0
  -31.6789  -17.1867   77.2748 H   0  0  0  0  0  0  0  0  0  0  0  0
  -31.9238  -18.9663   77.2748 H   0  0  0  0  0  0  0  0  0  0  0  0
  -26.3981  -19.1013   76.6668 H   0  0  0  0  0  0  0  0  0  0  0  0
  -25.9014  -21.3654   77.4144 H   0  0  0  0  0  0  0  0  0  0  0  0
  -25.8424  -18.4033   72.8574 H   0  0  0  0  0  0  0  0  0  0  0  0
  -23.9152  -23.8805   71.9132 H   0  0  0  0  0  0  0  0  0  0  0  0
  -23.6054  -18.3326   74.8279 H   0  0  0  0  0  0  0  0  0  0  0  0
  -27.4440  -19.0729   81.2554 H   0  0  0  0  0  0  0  0  0  0  0  0
  -27.4034  -17.1655   80.7928 H   0  0  0  0  0  0  0  0  0  0  0  0
  -29.4254  -15.3392   78.9062 H   0  0  0  0  0  0  0  0  0  0  0  0
  1  2  1  0
  2  3  1  0
  3  4  1  0
  4  5  1  0
  5  6  1  0
  6  7  1  0
  7  8  1  0
  8  9  1  0
  1 10  1  0
  5 10  1  0
  9 10  1  0
  9 11  1  0
 11 12  1  0
 12 13  1  0
  8 14  1  0
 13 14  1  0
 14 15  1  0
 15 16  1  0
 13 17  1  0
 16 17  1  0
 13 18  1  6
 10 19  1  6
 17 20  1  0
 20 21  1  0
 20 22  2  0
 22 23  1  0
 24 25  1  0
 25 26  1  0
 26 27  1  0
 27 28  1  0
 28 29  1  0
  1 30  1  0
  3 31  1  0
 24 31  1  0
  5 32  1  1
 11 33  1  0
 14 34  1  6
 19 35  1  0
 21 36  1  0
 23 36  1  0
 23 37  2  0
 25 38  1  0
 26 39  1  0
 27 40  1  0
 24 41  1  0
 28 41  1  0
  1 42  1  6
  2 43  1  0
  2 44  1  0
  3 45  1  1
  4 46  1  0
  4 47  1  0
  6 48  1  0
  6 49  1  0
  7 50  1  0
  7 51  1  0
  8 52  1  6
  9 53  1  1
 11 54  1  6
 12 55  1  0
 12 56  1  0
 15 57  1  0
 15 58  1  0
 16 59  1  0
 16 60  1  0
 17 61  1  6
 18 62  1  0
 18 63  1  0
 18 64  1  0
 19 65  1  0
 19 66  1  0
 21 67  1  0
 21 68  1  0
 22 69  1  0
 24 70  1  1
 25 71  1  1
 26 72  1  6
 27 73  1  1
 28 74  1  6
 29 75  1  0
 29 76  1  0
 29 77  1  0
 30 78  1  0
 32 79  1  0
 33 80  1  0
 34 81  1  0
 35 82  1  0
 38 83  1  0
 39 84  1  0
 40 85  1  0
M  END
$$$$
