PDB_DB06145_99
     RDKit          3D

133136  0  0  0  0  0  0  0  0999 V2000
   66.5590  130.5610   90.2110 C   0  0  0  0  0  0  0  0  0  0  0  0
   68.0060  130.1340   90.2590 C   0  0  0  0  0  0  0  0  0  0  0  0
   68.5570  130.8770   89.2670 O   0  0  0  0  0  0  0  0  0  0  0  0
   68.5550  136.4100   91.8060 C   0  0  0  0  0  0  0  0  0  0  0  0
   68.0540  135.3680   92.7880 C   0  0  0  0  0  0  0  0  0  0  0  0
   67.8490  133.9590   92.2260 C   0  0  2  0  0  0  0  0  0  0  0  0
   66.7990  133.0960   93.0190 C   0  0  1  0  0  0  0  0  0  0  0  0
   66.6340  131.7710   92.2460 C   0  0  2  0  0  0  0  0  0  0  0  0
   66.2770  131.8770   90.8790 C   0  0  2  0  0  0  0  0  0  0  0  0
   64.6740  132.2360   90.7750 C   0  0  0  0  0  0  0  0  0  0  0  0
   64.0440  132.2960   89.3500 C   0  0  2  0  0  0  0  0  0  0  0  0
   64.6610  133.1650   88.2240 C   0  0  2  0  0  0  0  0  0  0  0  0
   64.7070  134.6530   88.7310 C   0  0  0  0  0  0  0  0  0  0  0  0
   65.8020  135.4450   88.7000 C   0  0  0  0  0  0  0  0  0  0  0  0
   65.9250  136.7980   89.2860 C   0  0  0  0  0  0  0  0  0  0  0  0
   67.1640  137.4850   89.1190 C   0  0  0  0  0  0  0  0  0  0  0  0
   67.3720  138.9100   89.7520 C   0  0  0  0  0  0  0  0  0  0  0  0
   68.3810  138.6200   90.9570 C   0  0  1  0  0  0  0  0  0  0  0  0
   68.8060  139.6910   91.9980 C   0  0  0  0  0  0  0  0  0  0  0  0
   66.2590  133.2480   95.2080 C   0  0  0  0  0  0  0  0  0  0  0  0
   62.5460  132.6200   89.4130 C   0  0  0  0  0  0  0  0  0  0  0  0
   69.5070  136.1410   91.0690 O   0  0  0  0  0  0  0  0  0  0  0  0
   69.1290  133.3210   92.3150 O   0  0  0  0  0  0  0  0  0  0  0  0
   67.9680  137.4660   91.8320 O   0  0  0  0  0  0  0  0  0  0  0  0
   67.2990  132.8270   94.3510 O   0  0  0  0  0  0  0  0  0  0  0  0
   65.8350  130.0270   94.0630 C   0  0  2  0  0  0  0  0  0  0  0  0
   64.5280  129.4050   94.6700 C   0  0  1  0  0  0  0  0  0  0  0  0
   65.0380  128.4020   95.8220 C   0  0  2  0  0  0  0  0  0  0  0  0
   65.7570  127.1900   95.2200 C   0  0  1  0  0  0  0  0  0  0  0  0
   66.9660  128.0840   94.5760 C   0  0  1  0  0  0  0  0  0  0  0  0
   67.8960  127.1110   93.8570 C   0  0  0  0  0  0  0  0  0  0  0  0
   64.1670  127.9260   97.8600 C   0  0  0  0  0  0  0  0  0  0  0  0
   62.7930  128.6040   96.7510 C   0  0  0  0  0  0  0  0  0  0  0  0
   65.5550  130.8820   92.9750 O   0  0  0  0  0  0  0  0  0  0  0  0
   63.8460  130.5230   95.1720 O   0  0  0  0  0  0  0  0  0  0  0  0
   63.9160  127.6820   96.5080 N   0  0  0  0  0  0  0  0  0  0  0  0
   66.0990  126.3110   96.3510 O   0  0  0  0  0  0  0  0  0  0  0  0
   66.6370  128.9400   93.6140 O   0  0  0  0  0  0  0  0  0  0  0  0
   66.2910  125.0860   95.9420 C   0  0  1  0  0  0  0  0  0  0  0  0
   67.7940  124.7010   95.7690 C   0  0  0  0  0  0  0  0  0  0  0  0
   68.5070  124.5010   97.1620 C   0  0  1  0  0  0  0  0  0  0  0  0
   67.6500  123.5740   98.0200 C   0  0  2  0  0  0  0  0  0  0  0  0
   66.1840  124.1290   98.1490 C   0  0  2  0  0  0  0  0  0  0  0  0
   65.2430  123.1920   99.0280 C   0  0  0  0  0  0  0  0  0  0  0  0
   69.9590  124.0090   96.9850 C   0  0  0  0  0  0  0  0  0  0  0  0
   68.5800  125.7810   97.7260 O   0  0  0  0  0  0  0  0  0  0  0  0
   68.2090  123.4010   99.2880 O   0  0  0  0  0  0  0  0  0  0  0  0
   65.5420  124.3250   96.8120 O   0  0  0  0  0  0  0  0  0  0  0  0
   64.8390  132.3750   86.0460 C   0  0  2  0  0  0  0  0  0  0  0  0
   64.2290  130.8740   86.2180 C   0  0  0  0  0  0  0  0  0  0  0  0
   64.9600  130.0300   85.2610 C   0  0  0  0  0  0  0  0  0  0  0  0
   64.9330  130.8000   83.7690 C   0  0  1  0  0  0  0  0  0  0  0  0
   65.1430  132.4220   83.7410 C   0  0  1  0  0  0  0  0  0  0  0  0
   64.7450  133.1920   82.4920 C   0  0  0  0  0  0  0  0  0  0  0  0
   66.1710  130.7000   81.1270 C   0  0  0  0  0  0  0  0  0  0  0  0
   66.8190  129.2890   82.9830 C   0  0  0  0  0  0  0  0  0  0  0  0
   64.1590  133.2170   86.7860 O   0  0  0  0  0  0  0  0  0  0  0  0
   65.6850  130.1600   82.4770 N   0  0  0  0  0  0  0  0  0  0  0  0
   64.4600  133.0980   84.8550 O   0  0  0  0  0  0  0  0  0  0  0  0
   66.2584  130.6396   89.1558 H   0  0  0  0  0  0  0  0  0  0  0  0
   65.9889  129.8000   90.7641 H   0  0  0  0  0  0  0  0  0  0  0  0
   68.4898  129.4065   90.9274 H   0  0  0  0  0  0  0  0  0  0  0  0
   68.7840  135.3002   93.6081 H   0  0  0  0  0  0  0  0  0  0  0  0
   67.0563  135.7105   93.1000 H   0  0  0  0  0  0  0  0  0  0  0  0
   67.4542  134.0393   91.2024 H   0  0  0  0  0  0  0  0  0  0  0  0
   65.8375  133.6227   93.1093 H   0  0  0  0  0  0  0  0  0  0  0  0
   67.6387  131.3231   92.2478 H   0  0  0  0  0  0  0  0  0  0  0  0
   66.8558  132.6706   90.3838 H   0  0  0  0  0  0  0  0  0  0  0  0
   64.1268  131.4714   91.3459 H   0  0  0  0  0  0  0  0  0  0  0  0
   64.5892  133.2615   91.1639 H   0  0  0  0  0  0  0  0  0  0  0  0
   64.2878  131.2720   89.0306 H   0  0  0  0  0  0  0  0  0  0  0  0
   65.5960  132.6028   88.0833 H   0  0  0  0  0  0  0  0  0  0  0  0
   63.7801  135.0806   89.1409 H   0  0  0  0  0  0  0  0  0  0  0  0
   66.6894  135.0439   88.1885 H   0  0  0  0  0  0  0  0  0  0  0  0
   65.0888  137.2588   89.8323 H   0  0  0  0  0  0  0  0  0  0  0  0
   67.9772  137.0164   88.5453 H   0  0  0  0  0  0  0  0  0  0  0  0
   67.8143  139.6060   89.0240 H   0  0  0  0  0  0  0  0  0  0  0  0
   66.4332  139.3836   90.0752 H   0  0  0  0  0  0  0  0  0  0  0  0
   69.2381  138.4778   90.2823 H   0  0  0  0  0  0  0  0  0  0  0  0
   68.6499  139.2977   93.0133 H   0  0  0  0  0  0  0  0  0  0  0  0
   69.8694  139.9357   91.8590 H   0  0  0  0  0  0  0  0  0  0  0  0
   68.1998  140.5983   91.8590 H   0  0  0  0  0  0  0  0  0  0  0  0
   66.5724  133.1211   96.2547 H   0  0  0  0  0  0  0  0  0  0  0  0
   66.0341  134.3080   95.0185 H   0  0  0  0  0  0  0  0  0  0  0  0
   65.3601  132.6429   95.0185 H   0  0  0  0  0  0  0  0  0  0  0  0
   62.2296  132.6884   90.4643 H   0  0  0  0  0  0  0  0  0  0  0  0
   62.3570  133.5798   88.9100 H   0  0  0  0  0  0  0  0  0  0  0  0
   61.9772  131.8241   88.9100 H   0  0  0  0  0  0  0  0  0  0  0  0
   69.3719  133.1999   93.2671 H   0  0  0  0  0  0  0  0  0  0  0  0
   66.3456  130.6322   94.8266 H   0  0  0  0  0  0  0  0  0  0  0  0
   63.8721  128.8406   93.9909 H   0  0  0  0  0  0  0  0  0  0  0  0
   65.6367  129.0533   96.4757 H   0  0  0  0  0  0  0  0  0  0  0  0
   65.2883  126.4988   94.5040 H   0  0  0  0  0  0  0  0  0  0  0  0
   67.3660  128.6567   95.4257 H   0  0  0  0  0  0  0  0  0  0  0  0
   68.4571  126.5240   94.5990 H   0  0  0  0  0  0  0  0  0  0  0  0
   67.3014  126.4332   93.2269 H   0  0  0  0  0  0  0  0  0  0  0  0
   68.5999  127.6744   93.2269 H   0  0  0  0  0  0  0  0  0  0  0  0
   63.5130  127.2902   98.4749 H   0  0  0  0  0  0  0  0  0  0  0  0
   65.2189  127.6960   98.0850 H   0  0  0  0  0  0  0  0  0  0  0  0
   63.9668  128.9840   98.0850 H   0  0  0  0  0  0  0  0  0  0  0  0
   62.6457  128.7249   97.8344 H   0  0  0  0  0  0  0  0  0  0  0  0
   63.0173  129.5819   96.3000 H   0  0  0  0  0  0  0  0  0  0  0  0
   61.8775  128.1936   96.3000 H   0  0  0  0  0  0  0  0  0  0  0  0
   63.8595  130.5008   96.1617 H   0  0  0  0  0  0  0  0  0  0  0  0
   65.9543  124.9138   94.9091 H   0  0  0  0  0  0  0  0  0  0  0  0
   67.8587  123.7636   95.1971 H   0  0  0  0  0  0  0  0  0  0  0  0
   68.3000  125.5210   95.2384 H   0  0  0  0  0  0  0  0  0  0  0  0
   67.6153  122.5952   97.5192 H   0  0  0  0  0  0  0  0  0  0  0  0
   66.2893  125.0993   98.6564 H   0  0  0  0  0  0  0  0  0  0  0  0
   65.4320  123.3802  100.0952 H   0  0  0  0  0  0  0  0  0  0  0  0
   64.1898  123.4107   98.7980 H   0  0  0  0  0  0  0  0  0  0  0  0
   65.4573  122.1379   98.7980 H   0  0  0  0  0  0  0  0  0  0  0  0
   70.4166  123.8539   97.9732 H   0  0  0  0  0  0  0  0  0  0  0  0
   69.9594  123.0606   96.4278 H   0  0  0  0  0  0  0  0  0  0  0  0
   70.5359  124.7618   96.4278 H   0  0  0  0  0  0  0  0  0  0  0  0
   68.5758  125.7073   98.7132 H   0  0  0  0  0  0  0  0  0  0  0  0
   67.5315  123.6107   99.9787 H   0  0  0  0  0  0  0  0  0  0  0  0
   65.9101  132.1695   86.1895 H   0  0  0  0  0  0  0  0  0  0  0  0
   64.3862  130.5124   87.2449 H   0  0  0  0  0  0  0  0  0  0  0  0
   63.1456  130.8541   86.0287 H   0  0  0  0  0  0  0  0  0  0  0  0
   65.9997  129.8997   85.5957 H   0  0  0  0  0  0  0  0  0  0  0  0
   64.4909  129.0376   85.1888 H   0  0  0  0  0  0  0  0  0  0  0  0
   63.8690  130.5555   83.6342 H   0  0  0  0  0  0  0  0  0  0  0  0
   66.2408  132.4549   83.8017 H   0  0  0  0  0  0  0  0  0  0  0  0
   64.2578  134.1346   82.7821 H   0  0  0  0  0  0  0  0  0  0  0  0
   65.6425  133.4117   81.8951 H   0  0  0  0  0  0  0  0  0  0  0  0
   64.0468  132.5869   81.8951 H   0  0  0  0  0  0  0  0  0  0  0  0
   66.8982  131.5080   81.2956 H   0  0  0  0  0  0  0  0  0  0  0  0
   66.6494  129.8889   80.5584 H   0  0  0  0  0  0  0  0  0  0  0  0
   65.3142  131.0906   80.5584 H   0  0  0  0  0  0  0  0  0  0  0  0
   66.8187  129.2892   84.0830 H   0  0  0  0  0  0  0  0  0  0  0  0
   66.6832  128.2608   82.6165 H   0  0  0  0  0  0  0  0  0  0  0  0
   67.7774  129.6854   82.6165 H   0  0  0  0  0  0  0  0  0  0  0  0
  1  2  1  0
  2  3  2  0
  4  5  1  0
  5  6  1  0
  6  7  1  0
  7  8  1  0
  1  9  1  0
  8  9  1  0
  9 10  1  0
 10 11  1  0
 11 12  1  0
 12 13  1  0
 13 14  2  0
 14 15  1  0
 15 16  2  0
 16 17  1  0
 17 18  1  0
 18 19  1  0
 11 21  1  0
  4 22  2  0
  6 23  1  0
  4 24  1  0
 18 24  1  0
  7 25  1  0
 20 25  1  0
 26 27  1  0
 27 28  1  0
 28 29  1  0
 29 30  1  0
 30 31  1  0
  8 34  1  0
 26 34  1  0
 27 35  1  0
 28 36  1  0
 32 36  1  0
 33 36  1  0
 29 37  1  0
 26 38  1  0
 30 38  1  0
 37 39  1  0
 39 40  1  0
 40 41  1  0
 41 42  1  0
 42 43  1  0
 43 44  1  0
 41 45  1  0
 41 46  1  1
 42 47  1  0
 39 48  1  0
 43 48  1  0
 49 50  1  0
 50 51  1  0
 51 52  1  0
 52 53  1  0
 53 54  1  0
 12 57  1  0
 49 57  1  0
 52 58  1  0
 55 58  1  0
 56 58  1  0
 49 59  1  0
 53 59  1  0
  1 60  1  0
  1 61  1  0
  2 62  1  0
  5 63  1  0
  5 64  1  0
  6 65  1  6
  7 66  1  1
  8 67  1  6
  9 68  1  6
 10 69  1  0
 10 70  1  0
 11 71  1  6
 12 72  1  6
 13 73  1  0
 14 74  1  0
 15 75  1  0
 16 76  1  0
 17 77  1  0
 17 78  1  0
 18 79  1  6
 19 80  1  0
 19 81  1  0
 19 82  1  0
 20 83  1  0
 20 84  1  0
 20 85  1  0
 21 86  1  0
 21 87  1  0
 21 88  1  0
 23 89  1  0
 26 90  1  1
 27 91  1  6
 28 92  1  1
 29 93  1  6
 30 94  1  1
 31 95  1  0
 31 96  1  0
 31 97  1  0
 32 98  1  0
 32 99  1  0
 32100  1  0
 33101  1  0
 33102  1  0
 33103  1  0
 35104  1  0
 39105  1  6
 40106  1  0
 40107  1  0
 42108  1  6
 43109  1  1
 44110  1  0
 44111  1  0
 44112  1  0
 45113  1  0
 45114  1  0
 45115  1  0
 46116  1  0
 47117  1  0
 49118  1  1
 50119  1  0
 50120  1  0
 51121  1  0
 51122  1  0
 52123  1  6
 53124  1  1
 54125  1  0
 54126  1  0
 54127  1  0
 55128  1  0
 55129  1  0
 55130  1  0
 56131  1  0
 56132  1  0
 56133  1  0
M  END
>  <PDBID>  (1) 
1KD1

>  <PDB ID>  (1) 
1KD1

>  <Generic Name>  (1) 
Spiramycin

>  <Brand Name>  (1) 
Rovamycine 250 Capsule 750000 Unit#Rovamycine 500 Capsule 1500000 Unit

>  <DrugBank ID>  (1) 
DB06145

>  <ATC Codes>  (1) 
J01FA02#J01RA04

>  <Ligand ID>  (1) 
SPR

>  <Target Name>  (1) 
50S ribosomal protein L3

>  <UniProt ID>  (1) 
Q9A1X4

>  <PDB ID.1>  (1) 
1KD1

>  <Seq. Identity>  (1) 
31%

$$$$
