PDB_DB00147_98
     RDKit          3D

 57 57  0  0  0  0  0  0  0  0999 V2000
   16.0850   -1.0290   31.4250 O   0  0  0  0  0  0  0  0  0  0  0  0
   16.3190   -2.4180   31.6030 C   0  0  0  0  0  0  0  0  0  0  0  0
   15.0780   -3.2410   31.2450 C   0  0  0  0  0  0  0  0  0  0  0  0
   14.7310   -3.3920   29.8780 C   0  0  0  0  0  0  0  0  0  0  0  0
   13.5910   -4.1550   29.5330 N   0  0  0  0  0  0  0  0  0  0  0  0
   12.8020   -4.7610   30.5040 C   0  0  0  0  0  0  0  0  0  0  0  0
   13.1120   -4.6190   31.9090 C   0  0  0  0  0  0  0  0  0  0  0  0
   14.2750   -3.8500   32.3010 C   0  0  0  0  0  0  0  0  0  0  0  0
   14.6900   -3.6940   33.7680 C   0  0  0  0  0  3  0  0  0  0  0  0
   13.5260   -3.6210   34.5790 O   0  0  0  0  0  0  0  0  0  0  0  0
   12.2710   -5.2370   32.8550 O   0  0  0  0  0  0  0  0  0  0  0  0
   11.5850   -5.5970   30.0820 C   0  0  0  0  0  0  0  0  0  0  0  0
   -1.8250   -0.3500    7.3430 O   0  0  0  0  0  0  0  0  0  0  0  0
   -1.0820   -0.7610    6.2030 C   0  0  0  0  0  0  0  0  0  0  0  0
    0.0090   -1.7880    6.5610 C   0  0  0  0  0  0  0  0  0  0  0  0
    0.2520   -2.1570    7.9320 C   0  0  0  0  0  0  0  0  0  0  0  0
    1.2800   -3.1140    8.2380 N   0  0  0  0  0  0  0  0  0  0  0  0
    2.0730   -3.7100    7.2070 C   0  0  0  0  0  0  0  0  0  0  0  0
    1.8440   -3.3620    5.8230 C   0  0  0  0  0  0  0  0  0  0  0  0
    0.8100   -2.3850    5.4990 C   0  0  0  0  0  0  0  0  0  0  0  0
    0.5300   -1.9730    4.0480 C   0  0  0  0  0  0  0  0  0  0  0  0
    1.2210   -2.4980    3.1580 O   0  0  0  0  0  0  0  0  0  0  0  0
    2.6220   -3.9550    4.8190 O   0  0  0  0  0  0  0  0  0  0  0  0
    3.1560   -4.7180    7.5780 C   0  0  0  0  0  0  0  0  0  0  0  0
   16.0112   -0.5908   32.3096 H   0  0  0  0  0  0  0  0  0  0  0  0
   17.1530   -2.7269   30.9556 H   0  0  0  0  0  0  0  0  0  0  0  0
   16.5612   -2.5968   32.6610 H   0  0  0  0  0  0  0  0  0  0  0  0
   14.4595   -2.3331   31.3017 H   0  0  0  0  0  0  0  0  0  0  0  0
   14.5751   -2.3812   29.4730 H   0  0  0  0  0  0  0  0  0  0  0  0
   15.5678   -3.9704   29.4594 H   0  0  0  0  0  0  0  0  0  0  0  0
   12.9696   -3.5263   29.0043 H   0  0  0  0  0  0  0  0  0  0  0  0
   13.4333   -5.6605   30.4556 H   0  0  0  0  0  0  0  0  0  0  0  0
   13.7285   -5.5289   31.8649 H   0  0  0  0  0  0  0  0  0  0  0  0
   13.6565   -2.9419   32.3544 H   0  0  0  0  0  0  0  0  0  0  0  0
   15.2965   -4.5597   34.0725 H   0  0  0  0  0  0  0  0  0  0  0  0
   13.7874   -3.6374   35.5337 H   0  0  0  0  0  0  0  0  0  0  0  0
   12.5791   -5.0106   33.7682 H   0  0  0  0  0  0  0  0  0  0  0  0
   11.0595   -5.9580   30.9784 H   0  0  0  0  0  0  0  0  0  0  0  0
   10.9033   -4.9756   29.4827 H   0  0  0  0  0  0  0  0  0  0  0  0
   11.9204   -6.4562   29.4827 H   0  0  0  0  0  0  0  0  0  0  0  0
   -1.3425   -0.6169    8.1652 H   0  0  0  0  0  0  0  0  0  0  0  0
   -1.7710   -1.2147    5.4754 H   0  0  0  0  0  0  0  0  0  0  0  0
   -0.5864    0.1271    5.7838 H   0  0  0  0  0  0  0  0  0  0  0  0
    0.7450   -0.9753    6.6493 H   0  0  0  0  0  0  0  0  0  0  0  0
    0.5052   -1.2325    8.4716 H   0  0  0  0  0  0  0  0  0  0  0  0
   -0.6744   -2.6709    8.2282 H   0  0  0  0  0  0  0  0  0  0  0  0
    1.9375   -2.6416    8.8748 H   0  0  0  0  0  0  0  0  0  0  0  0
    1.3450   -4.5302    7.1212 H   0  0  0  0  0  0  0  0  0  0  0  0
    1.1042   -4.1720    5.7418 H   0  0  0  0  0  0  0  0  0  0  0  0
    1.5459   -1.5734    5.5978 H   0  0  0  0  0  0  0  0  0  0  0  0
   -0.5216   -2.2148    3.8341 H   0  0  0  0  0  0  0  0  0  0  0  0
    0.7854   -0.9039    4.0064 H   0  0  0  0  0  0  0  0  0  0  0  0
    1.9366   -3.0417    3.5734 H   0  0  0  0  0  0  0  0  0  0  0  0
    3.3368   -4.4999    5.2340 H   0  0  0  0  0  0  0  0  0  0  0  0
    3.2317   -4.7884    8.6731 H   0  0  0  0  0  0  0  0  0  0  0  0
    2.8968   -5.7037    7.1642 H   0  0  0  0  0  0  0  0  0  0  0  0
    4.1206   -4.3888    7.1642 H   0  0  0  0  0  0  0  0  0  0  0  0
  1  2  1  0
  2  3  1  0
  3  4  1  0
  4  5  1  0
  5  6  1  0
  6  7  1  0
  3  8  1  0
  7  8  1  0
  8  9  1  0
  9 10  1  0
  7 11  1  0
  6 12  1  0
 13 14  1  0
 14 15  1  0
 15 16  1  0
 16 17  1  0
 17 18  1  0
 18 19  1  0
 15 20  1  0
 19 20  1  0
 20 21  1  0
 21 22  1  0
 19 23  1  0
 18 24  1  0
  1 25  1  0
  2 26  1  0
  2 27  1  0
  3 28  1  0
  4 29  1  0
  4 30  1  0
  5 31  1  0
  6 32  1  0
  7 33  1  0
  8 34  1  0
  9 35  1  1
 10 36  1  0
 11 37  1  0
 12 38  1  0
 12 39  1  0
 12 40  1  0
 13 41  1  0
 14 42  1  0
 14 43  1  0
 15 44  1  0
 16 45  1  0
 16 46  1  0
 17 47  1  0
 18 48  1  0
 19 49  1  0
 20 50  1  0
 21 51  1  0
 21 52  1  0
 22 53  1  0
 23 54  1  0
 24 55  1  0
 24 56  1  0
 24 57  1  0
M  RAD  1   9   2
M  END
>  <PDBID>  (1) 
1TD2

>  <PDB ID>  (1) 
1TD2

>  <Generic Name>  (1) 
Pyridoxal

>  <Brand Name>  (1) 
nan

>  <DrugBank ID>  (1) 
DB00147

>  <ATC Codes>  (1) 
nan

>  <Ligand ID>  (1) 
PXL

>  <Target Name>  (1) 
Pyridoxal kinase

>  <UniProt ID>  (1) 
O00764

>  <PDB ID.1>  (1) 
1TD2

>  <Seq. Identity>  (1) 
36%

$$$$
