PDB_DB08910_95
     RDKit          3D

 31 33  0  0  0  0  0  0  0  0999 V2000
   -1.6970    0.5750  -11.3150 C   0  0  0  0  0  0  0  0  0  0  0  0
   -1.9280   -0.6380  -10.6440 C   0  0  0  0  0  0  0  0  0  0  0  0
   -3.1490   -0.8970  -10.0150 C   0  0  0  0  0  0  0  0  0  0  0  0
   -4.1020    0.1170  -10.0680 C   0  0  0  0  0  0  0  0  0  0  0  0
   -3.8530    1.3310  -10.7110 C   0  0  0  0  0  0  0  0  0  0  0  0
   -2.6620    1.5980  -11.3660 C   0  0  0  0  0  0  0  0  0  0  0  0
   -5.4960    0.2110   -9.5010 C   0  0  0  0  0  0  0  0  0  0  0  0
   -6.0010    1.4630   -9.8280 N   0  0  0  0  0  0  0  0  0  0  0  0
   -5.0840    2.1690  -10.5570 C   0  0  0  0  0  0  0  0  0  0  0  0
   -2.4850    2.7870  -12.0120 N   0  0  0  0  0  0  0  0  0  0  0  0
   -5.1710    3.2890  -11.0510 O   0  0  0  0  0  0  0  0  0  0  0  0
   -7.3360    1.9650   -9.5140 C   0  0  1  0  0  0  0  0  0  0  0  0
   -5.9930   -0.7440   -8.8810 O   0  0  0  0  0  0  0  0  0  0  0  0
   -7.2450    3.0590   -8.4200 C   0  0  0  0  0  0  0  0  0  0  0  0
   -8.0160    2.5080  -10.7580 C   0  0  0  0  0  0  0  0  0  0  0  0
   -8.9130    3.5230  -10.6320 N   0  0  0  0  0  0  0  0  0  0  0  0
   -9.2770    4.1170   -9.4650 C   0  0  0  0  0  0  0  0  0  0  0  0
   -8.6580    3.6390   -8.1670 C   0  0  0  0  0  0  0  0  0  0  0  0
   -7.7660    1.9950  -11.8450 O   0  0  0  0  0  0  0  0  0  0  0  0
  -10.1200    5.0000   -9.4280 O   0  0  0  0  0  0  0  0  0  0  0  0
   -0.7304    0.7299  -11.8167 H   0  0  0  0  0  0  0  0  0  0  0  0
   -1.1331   -1.3977  -10.6132 H   0  0  0  0  0  0  0  0  0  0  0  0
   -3.3467   -1.8514   -9.5050 H   0  0  0  0  0  0  0  0  0  0  0  0
   -3.2360    3.4919  -12.0083 H   0  0  0  0  0  0  0  0  0  0  0  0
   -1.6004    2.9795  -12.5033 H   0  0  0  0  0  0  0  0  0  0  0  0
   -7.9441    1.1311   -9.1334 H   0  0  0  0  0  0  0  0  0  0  0  0
   -6.8552    2.6190   -7.4902 H   0  0  0  0  0  0  0  0  0  0  0  0
   -6.5687    3.8605   -8.7519 H   0  0  0  0  0  0  0  0  0  0  0  0
   -9.3542    3.8712  -11.4951 H   0  0  0  0  0  0  0  0  0  0  0  0
   -9.2963    2.8582   -7.7278 H   0  0  0  0  0  0  0  0  0  0  0  0
   -8.5736    4.4925   -7.4782 H   0  0  0  0  0  0  0  0  0  0  0  0
  1  2  2  0
  2  3  1  0
  3  4  2  0
  4  5  1  0
  1  6  1  0
  5  6  2  0
  4  7  1  0
  7  8  1  0
  5  9  1  0
  8  9  1  0
  6 10  1  0
  9 11  2  0
  8 12  1  0
  7 13  2  0
 12 14  1  0
 12 15  1  0
 15 16  1  0
 16 17  1  0
 14 18  1  0
 17 18  1  0
 15 19  2  0
 17 20  2  0
  1 21  1  0
  2 22  1  0
  3 23  1  0
 10 24  1  0
 10 25  1  0
 12 26  1  1
 14 27  1  0
 14 28  1  0
 16 29  1  0
 18 30  1  0
 18 31  1  0
M  END
>  <PDBID>  (1) 
4CI3

>  <PDB ID>  (1) 
4CI3

>  <Generic Name>  (1) 
Pomalidomide

>  <Brand Name>  (1) 
Pomalyst#Imnovid

>  <DrugBank ID>  (1) 
DB08910

>  <ATC Codes>  (1) 
L04AX06

>  <Ligand ID>  (1) 
Y70

>  <Target Name>  (1) 
Protein cereblon

>  <UniProt ID>  (1) 
Q96SW2

>  <PDB ID.1>  (1) 
4CI3

>  <Seq. Identity>  (1) 
86%

$$$$
