PDB_DB00558_78
     RDKit          3D

 43 43  0  0  0  0  0  0  0  0999 V2000
   39.7220   -1.2080  102.9820 C   0  0  0  0  0  0  0  0  0  0  0  0
   40.9150   -1.5330  102.7370 O   0  0  0  0  0  0  0  0  0  0  0  0
   39.0540   -0.5050  102.1750 O   0  0  0  0  0  0  0  0  0  0  0  0
   39.1330   -1.5920  104.1250 C   0  0  0  0  0  0  0  0  0  0  0  0
   39.7890   -2.8320  104.7590 C   0  0  0  0  0  0  0  0  0  0  0  0
   39.0510   -3.3740  105.9060 C   0  0  1  0  0  0  0  0  0  0  0  0
   37.6460   -3.3620  105.7940 C   0  0  1  0  0  0  0  0  0  0  0  0
   37.0760   -3.5480  107.2370 N   0  0  0  0  0  0  0  0  0  0  0  0
   36.5960   -4.8490  107.6170 C   0  0  0  0  0  0  0  0  0  0  0  0
   36.6380   -5.7810  106.8280 O   0  0  0  0  0  0  0  0  0  0  0  0
   36.0480   -5.0600  108.9990 C   0  0  0  0  0  0  0  0  0  0  0  0
   37.0690   -2.2040  105.1360 C   0  0  1  0  0  0  0  0  0  0  0  0
   37.7200   -1.9650  103.8740 O   0  0  0  0  0  0  0  0  0  0  0  0
   35.5650   -2.3340  104.8730 C   0  0  2  0  0  0  0  0  0  0  0  0
   35.3520   -3.2220  103.8530 O   0  0  0  0  0  0  0  0  0  0  0  0
   34.9840   -0.9880  104.4790 C   0  0  2  0  0  0  0  0  0  0  0  0
   35.4090   -0.0520  105.3930 O   0  0  0  0  0  0  0  0  0  0  0  0
   33.4630   -0.9610  104.3620 C   0  0  0  0  0  0  0  0  0  0  0  0
   32.6950   -1.3090  105.4810 O   0  0  0  0  0  0  0  0  0  0  0  0
   39.5330   -4.8270  106.2190 N   0  0  0  0  0  0  0  0  0  0  0  0
   39.7880   -5.2900  107.5690 C   0  0  0  0  0  0  0  0  0  0  0  0
   39.6910   -4.4620  108.6060 N   0  0  0  0  0  0  0  0  0  0  0  0
   40.1260   -6.5410  107.7460 N   0  0  0  0  0  0  0  0  0  0  0  0
   41.4205   -2.0854  103.3846 H   0  0  0  0  0  0  0  0  0  0  0  0
   40.7258   -3.2719  104.3862 H   0  0  0  0  0  0  0  0  0  0  0  0
   39.2827   -2.6845  106.7311 H   0  0  0  0  0  0  0  0  0  0  0  0
   37.3587   -4.1831  105.1207 H   0  0  0  0  0  0  0  0  0  0  0  0
   37.0449   -2.7592  107.8987 H   0  0  0  0  0  0  0  0  0  0  0  0
   36.8049   -4.7686  109.7420 H   0  0  0  0  0  0  0  0  0  0  0  0
   35.1461   -4.4448  109.1337 H   0  0  0  0  0  0  0  0  0  0  0  0
   35.7915   -6.1212  109.1337 H   0  0  0  0  0  0  0  0  0  0  0  0
   37.2233   -1.3659  105.8315 H   0  0  0  0  0  0  0  0  0  0  0  0
   35.0761   -2.6901  105.7918 H   0  0  0  0  0  0  0  0  0  0  0  0
   35.1385   -4.1123  104.2297 H   0  0  0  0  0  0  0  0  0  0  0  0
   35.3489   -0.7626  103.4660 H   0  0  0  0  0  0  0  0  0  0  0  0
   35.2545   -0.3922  106.3098 H   0  0  0  0  0  0  0  0  0  0  0  0
   33.1783    0.0634  104.0800 H   0  0  0  0  0  0  0  0  0  0  0  0
   33.2379   -1.7493  103.6285 H   0  0  0  0  0  0  0  0  0  0  0  0
   33.1931   -1.0833  106.3063 H   0  0  0  0  0  0  0  0  0  0  0  0
   39.8754   -4.8064  109.5590 H   0  0  0  0  0  0  0  0  0  0  0  0
   39.4315   -3.4766  108.4557 H   0  0  0  0  0  0  0  0  0  0  0  0
   40.3125   -6.8947  108.6952 H   0  0  0  0  0  0  0  0  0  0  0  0
   40.2057   -7.1725  106.9362 H   0  0  0  0  0  0  0  0  0  0  0  0
  1  2  1  0
  1  3  2  0
  1  4  1  0
  4  5  2  0
  5  6  1  0
  6  7  1  0
  7  8  1  0
  8  9  1  0
  9 10  2  0
  9 11  1  0
  7 12  1  0
  4 13  1  0
 12 13  1  0
 12 14  1  0
 14 15  1  0
 14 16  1  0
 16 17  1  0
 16 18  1  0
 18 19  1  0
  6 20  1  0
 20 21  2  3
 21 22  1  0
 21 23  1  0
  2 24  1  0
  5 25  1  0
  6 26  1  1
  7 27  1  6
  8 28  1  0
 11 29  1  0
 11 30  1  0
 11 31  1  0
 12 32  1  1
 14 33  1  1
 15 34  1  0
 16 35  1  6
 17 36  1  0
 18 37  1  0
 18 38  1  0
 19 39  1  0
 22 40  1  0
 22 41  1  0
 23 42  1  0
 23 43  1  0
M  END
$$$$
