PDB_DB00755_88
     RDKit          3D

 50 50  0  0  0  0  0  0  0  0999 V2000
   35.1460   17.7620   40.3220 C   0  0  0  0  0  0  0  0  0  0  0  0
   33.7280   17.2720   40.7670 C   0  0  0  0  0  0  0  0  0  0  0  0
   32.6600   17.2590   39.7050 C   0  0  0  0  0  0  0  0  0  0  0  0
   32.4830   18.5890   39.0470 C   0  0  0  0  0  0  0  0  0  0  0  0
   33.8020   19.3090   38.7120 C   0  0  0  0  0  0  0  0  0  0  0  0
   35.0250   18.9560   39.2750 C   0  0  0  0  0  0  0  0  0  0  0  0
   36.3440   19.6110   38.9890 C   0  0  0  0  0  0  0  0  0  0  0  0
   36.9180   19.7980   37.7990 C   0  0  0  0  0  0  0  0  0  0  0  0
   38.1890   20.4160   37.4750 C   0  0  0  0  0  0  0  0  0  0  0  0
   38.5460   20.4990   36.1610 C   0  0  0  0  0  0  0  0  0  0  0  0
   37.7650   20.0010   35.0270 C   0  0  0  0  0  0  0  0  0  0  0  0
   38.2270   20.2040   33.7820 C   0  0  0  0  0  0  0  0  0  0  0  0
   37.5430   19.7660   32.5730 C   0  0  0  0  0  0  0  0  0  0  0  0
   38.1180   20.0910   31.3810 C   0  0  0  0  0  0  0  0  0  0  0  0
   37.6770   19.8460   29.9860 C   0  0  0  0  0  0  0  0  0  0  0  0
   35.8760   16.5620   39.6780 C   0  0  0  0  0  0  0  0  0  0  0  0
   35.9380   18.2260   41.5860 C   0  0  0  0  0  0  0  0  0  0  0  0
   33.5100   20.4130   37.7080 C   0  0  0  0  0  0  0  0  0  0  0  0
   39.1050   20.9700   38.5830 C   0  0  0  0  0  0  0  0  0  0  0  0
   36.2030   18.9950   32.6950 C   0  0  0  0  0  0  0  0  0  0  0  0
   38.0570   20.6510   29.0990 O   0  0  0  0  0  0  0  0  0  0  0  0
   36.9220   18.8820   29.7060 O   0  0  0  0  0  0  0  0  0  0  0  0
   33.8331   16.2456   41.1485 H   0  0  0  0  0  0  0  0  0  0  0  0
   33.3875   18.0034   41.5148 H   0  0  0  0  0  0  0  0  0  0  0  0
   32.9362   16.5209   38.9375 H   0  0  0  0  0  0  0  0  0  0  0  0
   31.7089   17.0018   40.1942 H   0  0  0  0  0  0  0  0  0  0  0  0
   31.9247   18.4391   38.1111 H   0  0  0  0  0  0  0  0  0  0  0  0
   31.9482   19.2279   39.7653 H   0  0  0  0  0  0  0  0  0  0  0  0
   36.9029   19.9800   39.8616 H   0  0  0  0  0  0  0  0  0  0  0  0
   36.3424   19.4291   36.9372 H   0  0  0  0  0  0  0  0  0  0  0  0
   39.5068   20.9835   35.9329 H   0  0  0  0  0  0  0  0  0  0  0  0
   36.8160   19.4696   35.1917 H   0  0  0  0  0  0  0  0  0  0  0  0
   39.1835   20.7352   33.6683 H   0  0  0  0  0  0  0  0  0  0  0  0
   39.0742   20.6277   31.4683 H   0  0  0  0  0  0  0  0  0  0  0  0
   36.2739   15.9080   40.4679 H   0  0  0  0  0  0  0  0  0  0  0  0
   35.1696   15.9951   39.0538 H   0  0  0  0  0  0  0  0  0  0  0  0
   36.7042   16.9287   39.0538 H   0  0  0  0  0  0  0  0  0  0  0  0
   35.3998   17.9107   42.4921 H   0  0  0  0  0  0  0  0  0  0  0  0
   36.9399   17.7721   41.5780 H   0  0  0  0  0  0  0  0  0  0  0  0
   36.0319   19.3220   41.5780 H   0  0  0  0  0  0  0  0  0  0  0  0
   33.2645   21.3412   38.2448 H   0  0  0  0  0  0  0  0  0  0  0  0
   34.3954   20.5779   37.0765 H   0  0  0  0  0  0  0  0  0  0  0  0
   32.6588   20.1186   37.0765 H   0  0  0  0  0  0  0  0  0  0  0  0
   38.6848   20.7159   39.5673 H   0  0  0  0  0  0  0  0  0  0  0  0
   40.1069   20.5263   38.4864 H   0  0  0  0  0  0  0  0  0  0  0  0
   39.1773   22.0634   38.4864 H   0  0  0  0  0  0  0  0  0  0  0  0
   35.9569   18.8534   33.7577 H   0  0  0  0  0  0  0  0  0  0  0  0
   35.4029   19.5708   32.2069 H   0  0  0  0  0  0  0  0  0  0  0  0
   36.2987   18.0139   32.2069 H   0  0  0  0  0  0  0  0  0  0  0  0
   36.6368   18.7323   28.7699 H   0  0  0  0  0  0  0  0  0  0  0  0
  1  2  1  0
  2  3  1  0
  3  4  1  0
  4  5  1  0
  1  6  1  0
  5  6  2  0
  6  7  1  0
  7  8  2  0
  8  9  1  0
  9 10  2  0
 10 11  1  0
 11 12  2  0
 12 13  1  0
 13 14  2  0
 14 15  1  0
  1 16  1  0
  1 17  1  0
  5 18  1  0
  9 19  1  0
 13 20  1  0
 15 21  2  0
 15 22  1  0
  2 23  1  0
  2 24  1  0
  3 25  1  0
  3 26  1  0
  4 27  1  0
  4 28  1  0
  7 29  1  0
  8 30  1  0
 10 31  1  0
 11 32  1  0
 12 33  1  0
 14 34  1  0
 16 35  1  0
 16 36  1  0
 16 37  1  0
 17 38  1  0
 17 39  1  0
 17 40  1  0
 18 41  1  0
 18 42  1  0
 18 43  1  0
 19 44  1  0
 19 45  1  0
 19 46  1  0
 20 47  1  0
 20 48  1  0
 20 49  1  0
 22 50  1  0
M  END
$$$$
