PDB_DB01283_92
     RDKit          3D

 33 34  0  0  0  0  0  0  0  0999 V2000
 -100.0030  -33.8020   27.3760 O   0  0  0  0  0  0  0  0  0  0  0  0
 -100.9420  -34.5450   27.5970 C   0  0  0  0  0  0  0  0  0  0  0  0
 -100.8300  -35.4550   28.5600 O   0  0  0  0  0  0  0  0  0  0  0  0
 -102.2140  -34.4320   26.7890 C   0  0  0  0  0  0  0  0  0  0  0  0
 -102.9140  -33.1170   27.0560 C   0  0  0  0  0  0  0  0  0  0  0  0
 -104.0000  -33.0650   27.9210 C   0  0  0  0  0  0  0  0  0  0  0  0
 -104.6400  -31.8510   28.1570 C   0  0  0  0  0  0  0  0  0  0  0  0
 -105.8160  -31.8000   29.0970 C   0  0  0  0  0  0  0  0  0  0  0  0
 -104.2050  -30.6850   27.5300 C   0  0  0  0  0  0  0  0  0  0  0  0
 -103.1180  -30.6830   26.6600 C   0  0  0  0  0  0  0  0  0  0  0  0
 -102.4510  -31.8700   26.3940 C   0  0  0  0  0  0  0  0  0  0  0  0
 -101.3960  -31.9170   25.5520 N   0  0  0  0  0  0  0  0  0  0  0  0
 -100.9640  -30.8550   24.8340 C   0  0  0  0  0  0  0  0  0  0  0  0
  -99.6460  -30.2470   25.1240 C   0  0  0  0  0  0  0  0  0  0  0  0
  -98.6350  -30.9100   26.4420 Cl  0  0  0  0  0  0  0  0  0  0  0  0
  -99.2110  -29.1660   24.3650 C   0  0  0  0  0  0  0  0  0  0  0  0
 -100.0010  -28.6540   23.3330 C   0  0  0  0  0  0  0  0  0  0  0  0
 -101.2450  -29.1940   23.0180 C   0  0  0  0  0  0  0  0  0  0  0  0
 -101.7600  -30.2770   23.7230 C   0  0  0  0  0  0  0  0  0  0  0  0
 -102.9650  -30.7880   23.4060 F   0  0  0  0  0  0  0  0  0  0  0  0
 -101.5839  -36.0670   28.7528 H   0  0  0  0  0  0  0  0  0  0  0  0
 -101.9669  -34.4967   25.7191 H   0  0  0  0  0  0  0  0  0  0  0  0
 -102.8871  -35.2517   27.0806 H   0  0  0  0  0  0  0  0  0  0  0  0
 -104.3533  -33.9804   28.4181 H   0  0  0  0  0  0  0  0  0  0  0  0
 -105.4557  -31.8156   30.1362 H   0  0  0  0  0  0  0  0  0  0  0  0
 -106.3866  -30.8763   28.9206 H   0  0  0  0  0  0  0  0  0  0  0  0
 -106.4644  -32.6709   28.9206 H   0  0  0  0  0  0  0  0  0  0  0  0
 -104.7344  -29.7413   27.7276 H   0  0  0  0  0  0  0  0  0  0  0  0
 -102.7900  -29.7459   26.1864 H   0  0  0  0  0  0  0  0  0  0  0  0
 -100.8930  -32.8101   25.4511 H   0  0  0  0  0  0  0  0  0  0  0  0
  -98.2338  -28.7089   24.5797 H   0  0  0  0  0  0  0  0  0  0  0  0
  -99.6288  -27.7978   22.7513 H   0  0  0  0  0  0  0  0  0  0  0  0
 -101.8313  -28.7563   22.1967 H   0  0  0  0  0  0  0  0  0  0  0  0
  1  2  2  0
  2  3  1  0
  2  4  1  0
  4  5  1  0
  5  6  2  0
  6  7  1  0
  7  8  1  0
  7  9  2  0
  9 10  1  0
  5 11  1  0
 10 11  2  0
 11 12  1  0
 12 13  1  0
 13 14  2  0
 14 15  1  0
 14 16  1  0
 16 17  2  0
 17 18  1  0
 13 19  1  0
 18 19  2  0
 19 20  1  0
  3 21  1  0
  4 22  1  0
  4 23  1  0
  6 24  1  0
  8 25  1  0
  8 26  1  0
  8 27  1  0
  9 28  1  0
 10 29  1  0
 12 30  1  0
 16 31  1  0
 17 32  1  0
 18 33  1  0
M  END
$$$$
