PDB_DB00205_97
     RDKit          3D

 84 86  0  0  0  0  0  0  0  0999 V2000
   29.8760    4.1050   56.3530 N   0  0  0  0  0  0  0  0  0  0  0  0
   29.3430    5.0480   55.4730 C   0  0  1  0  0  0  0  0  0  0  0  0
   29.5330    4.1550   57.6870 C   0  0  1  0  0  0  0  0  0  0  0  0
   28.5300    5.1440   58.1820 C   0  0  1  0  0  0  0  0  0  0  0  0
   28.0470    6.1130   57.1470 C   0  0  1  0  0  0  0  0  0  0  0  0
   28.4140    6.0290   55.8370 N   0  0  0  0  0  0  0  0  0  0  0  0
   28.1050    5.2380   59.5600 C   0  0  0  0  0  0  0  0  0  0  0  0
   28.7100    6.0880   60.5010 C   0  0  0  0  0  0  0  0  0  0  0  0
   28.2730    6.1450   61.8450 C   0  0  0  0  0  0  0  0  0  0  0  0
   27.1820    5.3060   62.2940 C   0  0  0  0  0  0  0  0  0  0  0  0
   26.5410    4.4530   61.4010 C   0  0  0  0  0  0  0  0  0  0  0  0
   26.9930    4.4190   60.0470 C   0  0  0  0  0  0  0  0  0  0  0  0
   30.0320    3.2590   58.5670 N   0  0  0  0  0  0  0  0  0  0  0  0
   29.7100    4.9790   54.1210 N   0  0  0  0  0  0  0  0  0  0  0  0
   27.0510    7.1590   57.5690 C   0  0  0  0  0  0  0  0  0  0  0  0
   25.6780    7.1840   56.9350 C   0  0  0  0  0  0  0  0  0  0  0  0
   26.7810    5.4560   63.9000 Cl  0  0  0  0  0  0  0  0  0  0  0  0
   29.0140  -27.3900    8.8790 N   0  0  0  0  0  0  0  0  0  0  0  0
   29.7160  -26.2810    8.4340 C   0  0  1  0  0  0  0  0  0  0  0  0
   29.3570  -28.6530    8.4070 C   0  0  1  0  0  0  0  0  0  0  0  0
   30.3520  -28.8150    7.2970 C   0  0  1  0  0  0  0  0  0  0  0  0
   31.0480  -27.5260    6.9100 C   0  0  1  0  0  0  0  0  0  0  0  0
   30.6650  -26.3230    7.4090 N   0  0  0  0  0  0  0  0  0  0  0  0
   30.7740  -30.1050    6.7450 C   0  0  0  0  0  0  0  0  0  0  0  0
   30.1640  -30.5750    5.5550 C   0  0  0  0  0  0  0  0  0  0  0  0
   30.5140  -31.8080    4.9720 C   0  0  0  0  0  0  0  0  0  0  0  0
   31.5300  -32.6410    5.6010 C   0  0  0  0  0  0  0  0  0  0  0  0
   32.1620  -32.2220    6.7790 C   0  0  0  0  0  0  0  0  0  0  0  0
   31.7850  -30.9700    7.3420 C   0  0  0  0  0  0  0  0  0  0  0  0
   28.7040  -29.7520    8.8200 N   0  0  0  0  0  0  0  0  0  0  0  0
   29.3890  -25.0160    8.9540 N   0  0  0  0  0  0  0  0  0  0  0  0
   32.0850  -27.5680    5.8160 C   0  0  0  0  0  0  0  0  0  0  0  0
   33.3830  -26.8110    6.0210 C   0  0  0  0  0  0  0  0  0  0  0  0
   31.8680  -34.0790    4.8320 Cl  0  0  0  0  0  0  0  0  0  0  0  0
   29.5944    3.1773   56.0053 H   0  0  0  0  0  0  0  0  0  0  0  0
   28.5205    4.3584   55.2322 H   0  0  0  0  0  0  0  0  0  0  0  0
   30.3387    4.8820   57.8669 H   0  0  0  0  0  0  0  0  0  0  0  0
   29.3432    5.8349   58.4493 H   0  0  0  0  0  0  0  0  0  0  0  0
   28.9136    6.7599   57.3483 H   0  0  0  0  0  0  0  0  0  0  0  0
   28.8131    6.9409   55.5724 H   0  0  0  0  0  0  0  0  0  0  0  0
   28.8082    4.4369   59.8315 H   0  0  0  0  0  0  0  0  0  0  0  0
   29.7726    5.8056   60.5337 H   0  0  0  0  0  0  0  0  0  0  0  0
   28.4353    7.0845   60.1247 H   0  0  0  0  0  0  0  0  0  0  0  0
   29.1423    5.8952   62.4710 H   0  0  0  0  0  0  0  0  0  0  0  0
   27.8586    7.1604   61.9301 H   0  0  0  0  0  0  0  0  0  0  0  0
   26.4664    6.1037   62.0457 H   0  0  0  0  0  0  0  0  0  0  0  0
   26.6368    3.4328   61.8009 H   0  0  0  0  0  0  0  0  0  0  0  0
   25.5186    4.8531   61.3334 H   0  0  0  0  0  0  0  0  0  0  0  0
   26.1236    4.6892   59.4296 H   0  0  0  0  0  0  0  0  0  0  0  0
   27.4177    3.4065   59.9804 H   0  0  0  0  0  0  0  0  0  0  0  0
   29.8511    3.5838   59.5276 H   0  0  0  0  0  0  0  0  0  0  0  0
   29.5779    2.3459   58.4221 H   0  0  0  0  0  0  0  0  0  0  0  0
   30.7198    4.7892   54.0486 H   0  0  0  0  0  0  0  0  0  0  0  0
   29.1845    4.2221   53.6608 H   0  0  0  0  0  0  0  0  0  0  0  0
   26.9004    7.0379   58.6519 H   0  0  0  0  0  0  0  0  0  0  0  0
   27.5078    8.1002   57.2291 H   0  0  0  0  0  0  0  0  0  0  0  0
   24.9105    7.1980   57.7229 H   0  0  0  0  0  0  0  0  0  0  0  0
   25.5788    8.0841   56.3105 H   0  0  0  0  0  0  0  0  0  0  0  0
   25.5461    6.2881   56.3105 H   0  0  0  0  0  0  0  0  0  0  0  0
   29.1135  -27.4160    9.9039 H   0  0  0  0  0  0  0  0  0  0  0  0
   30.5051  -26.4840    9.1729 H   0  0  0  0  0  0  0  0  0  0  0  0
   28.5429  -28.5984    7.6693 H   0  0  0  0  0  0  0  0  0  0  0  0
   29.7673  -29.3618    6.5426 H   0  0  0  0  0  0  0  0  0  0  0  0
   30.3485  -27.4004    6.0704 H   0  0  0  0  0  0  0  0  0  0  0  0
   30.2827  -25.7789    6.6225 H   0  0  0  0  0  0  0  0  0  0  0  0
   30.0018  -30.6128    7.3414 H   0  0  0  0  0  0  0  0  0  0  0  0
   29.0851  -30.6283    5.7628 H   0  0  0  0  0  0  0  0  0  0  0  0
   30.5308  -29.8551    4.8085 H   0  0  0  0  0  0  0  0  0  0  0  0
   29.5945  -32.4096    4.9218 H   0  0  0  0  0  0  0  0  0  0  0  0
   30.9760  -31.5178    4.0168 H   0  0  0  0  0  0  0  0  0  0  0  0
   32.3083  -32.1412    5.0057 H   0  0  0  0  0  0  0  0  0  0  0  0
   31.9717  -32.9917    7.5414 H   0  0  0  0  0  0  0  0  0  0  0  0
   33.2129  -32.0809    6.4861 H   0  0  0  0  0  0  0  0  0  0  0  0
   32.7058  -30.3704    7.3926 H   0  0  0  0  0  0  0  0  0  0  0  0
   31.2854  -31.2863    8.2696 H   0  0  0  0  0  0  0  0  0  0  0  0
   28.6896  -29.7762    9.8496 H   0  0  0  0  0  0  0  0  0  0  0  0
   27.7379  -29.7316    8.4635 H   0  0  0  0  0  0  0  0  0  0  0  0
   29.3990  -25.0548    9.9832 H   0  0  0  0  0  0  0  0  0  0  0  0
   30.0785  -24.3228    8.6298 H   0  0  0  0  0  0  0  0  0  0  0  0
   32.3467  -28.6245    5.6568 H   0  0  0  0  0  0  0  0  0  0  0  0
   31.6048  -27.0555    4.9694 H   0  0  0  0  0  0  0  0  0  0  0  0
   33.5757  -26.6986    7.0981 H   0  0  0  0  0  0  0  0  0  0  0  0
   34.2099  -27.3685    5.5568 H   0  0  0  0  0  0  0  0  0  0  0  0
   33.3049  -25.8168    5.5568 H   0  0  0  0  0  0  0  0  0  0  0  0
  1  2  1  0
  1  3  1  0
  3  4  1  0
  4  5  1  0
  2  6  1  0
  5  6  1  0
  4  7  1  0
  7  8  1  0
  8  9  1  0
  9 10  1  0
 10 11  1  0
  7 12  1  0
 11 12  1  0
  3 13  1  0
  2 14  1  0
  5 15  1  0
 15 16  1  0
 10 17  1  0
 18 19  1  0
 18 20  1  0
 20 21  1  0
 21 22  1  0
 19 23  1  0
 22 23  1  0
 21 24  1  0
 24 25  1  0
 25 26  1  0
 26 27  1  0
 27 28  1  0
 24 29  1  0
 28 29  1  0
 20 30  1  0
 19 31  1  0
 22 32  1  0
 32 33  1  0
 27 34  1  0
  1 35  1  0
  2 36  1  1
  3 37  1  1
  4 38  1  6
  5 39  1  1
  6 40  1  0
  7 41  1  0
  8 42  1  0
  8 43  1  0
  9 44  1  0
  9 45  1  0
 10 46  1  0
 11 47  1  0
 11 48  1  0
 12 49  1  0
 12 50  1  0
 13 51  1  0
 13 52  1  0
 14 53  1  0
 14 54  1  0
 15 55  1  0
 15 56  1  0
 16 57  1  0
 16 58  1  0
 16 59  1  0
 18 60  1  0
 19 61  1  1
 20 62  1  1
 21 63  1  6
 22 64  1  1
 23 65  1  0
 24 66  1  0
 25 67  1  0
 25 68  1  0
 26 69  1  0
 26 70  1  0
 27 71  1  0
 28 72  1  0
 28 73  1  0
 29 74  1  0
 29 75  1  0
 30 76  1  0
 30 77  1  0
 31 78  1  0
 31 79  1  0
 32 80  1  0
 32 81  1  0
 33 82  1  0
 33 83  1  0
 33 84  1  0
M  END
>  <PDBID>  (1) 
1J3J

>  <PDB ID>  (1) 
1J3J

>  <Generic Name>  (1) 
Pyrimethamine

>  <Brand Name>  (1) 
Daraprim#Fansidar Tablets#Pyrimethamine Leucovorin

>  <DrugBank ID>  (1) 
DB00205

>  <ATC Codes>  (1) 
P01BF04#P01BD01#P01BD51

>  <Ligand ID>  (1) 
CP6

>  <Target Name>  (1) 
Dihydrofolate reductase

>  <UniProt ID>  (1) 
P00374

>  <PDB ID.1>  (1) 
1J3J

>  <Seq. Identity>  (1) 
30%

$$$$
