PDB_DB03849_98
     RDKit          3D

124128  0  0  0  0  0  0  0  0999 V2000
   14.0820    5.8760   18.9490 O   0  0  0  0  0  0  0  0  0  0  0  0
   12.9580    6.1930   18.4940 C   0  0  0  0  0  0  0  0  0  0  0  0
   11.9790    6.3800   19.2400 O   0  0  0  0  0  0  0  0  0  0  0  0
   12.7620    6.3720   17.0060 C   0  0  1  0  0  0  0  0  0  0  0  0
   14.1000    6.6980   16.3470 C   0  0  0  0  0  0  0  0  0  0  0  0
   13.9840    6.7830   14.8250 C   0  0  0  0  0  0  0  0  0  0  0  0
   12.1490    5.1170   16.3770 C   0  0  0  0  0  0  0  0  0  0  0  0
   12.0620    5.2080   14.8430 C   0  0  0  0  0  0  0  0  0  0  0  0
   13.4250    5.4970   14.2070 C   0  0  2  0  0  0  0  0  0  0  0  0
   14.3230    4.3810   14.5570 C   0  0  0  0  0  0  0  0  0  0  0  0
   15.0350    3.5150   14.8530 N   0  0  0  0  0  0  0  0  0  0  0  0
   13.4010    5.6650   12.6950 C   0  0  0  0  0  0  0  0  0  0  0  0
   12.2390    5.6860   11.9170 C   0  0  0  0  0  0  0  0  0  0  0  0
   12.3110    5.8530   10.5250 C   0  0  0  0  0  0  0  0  0  0  0  0
   13.5500    6.0030    9.9000 C   0  0  0  0  0  0  0  0  0  0  0  0
   13.7090    6.1690    8.5440 O   0  0  0  0  0  0  0  0  0  0  0  0
   12.6080    6.1300    7.6360 C   0  0  0  0  0  0  0  0  0  0  0  0
   14.6980    5.9850   10.6630 C   0  0  0  0  0  0  0  0  0  0  0  0
   14.6230    5.8190   12.0450 C   0  0  0  0  0  0  0  0  0  0  0  0
   15.9040    6.1370   10.0270 O   0  0  0  0  0  0  0  0  0  0  0  0
   17.1450    6.2900   10.7230 C   0  0  1  0  0  0  0  0  0  0  0  0
   18.2450    6.4290    9.6820 C   0  0  0  0  0  0  0  0  0  0  0  0
   18.3420    7.9250    9.4170 C   0  0  0  0  0  0  0  0  0  0  0  0
   17.8980    8.6320   10.6890 C   0  0  0  0  0  0  0  0  0  0  0  0
   17.1920    7.5830   11.5340 C   0  0  0  0  0  0  0  0  0  0  0  0
    4.8130   -1.3650   50.2200 O   0  0  0  0  0  0  0  0  0  0  0  0
    5.8210   -0.8910   50.7960 C   0  0  0  0  0  0  0  0  0  0  0  0
    6.8400   -0.5550   50.1540 O   0  0  0  0  0  0  0  0  0  0  0  0
    5.8100   -0.7200   52.2980 C   0  0  1  0  0  0  0  0  0  0  0  0
    4.7630   -1.6530   52.9040 C   0  0  0  0  0  0  0  0  0  0  0  0
    4.8530   -1.7420   54.4290 C   0  0  0  0  0  0  0  0  0  0  0  0
    7.2080   -0.9850   52.8760 C   0  0  0  0  0  0  0  0  0  0  0  0
    7.2400   -1.1090   54.4060 C   0  0  0  0  0  0  0  0  0  0  0  0
    6.2450   -2.1510   54.9150 C   0  0  2  0  0  0  0  0  0  0  0  0
    6.6010   -3.4350   54.2890 C   0  0  0  0  0  0  0  0  0  0  0  0
    6.8620   -4.4290   53.7510 N   0  0  0  0  0  0  0  0  0  0  0  0
    6.2310   -2.3160   56.4300 C   0  0  0  0  0  0  0  0  0  0  0  0
    6.9860   -1.5460   57.3250 C   0  0  0  0  0  0  0  0  0  0  0  0
    6.9030   -1.7740   58.7080 C   0  0  0  0  0  0  0  0  0  0  0  0
    6.0700   -2.7780   59.2140 C   0  0  0  0  0  0  0  0  0  0  0  0
    5.9360   -3.0620   60.5590 O   0  0  0  0  0  0  0  0  0  0  0  0
    6.7500   -2.4350   61.5490 C   0  0  0  0  0  0  0  0  0  0  0  0
    5.3320   -3.5430   58.3370 C   0  0  0  0  0  0  0  0  0  0  0  0
    5.4140   -3.3130   56.9610 C   0  0  0  0  0  0  0  0  0  0  0  0
    4.5120   -4.5200   58.8540 O   0  0  0  0  0  0  0  0  0  0  0  0
    3.5830   -5.2390   58.0310 C   0  0  1  0  0  0  0  0  0  0  0  0
    2.8280   -6.2450   58.8820 C   0  0  0  0  0  0  0  0  0  0  0  0
    1.5820   -5.5100   59.3500 C   0  0  0  0  0  0  0  0  0  0  0  0
    1.2780   -4.4380   58.3290 C   0  0  0  0  0  0  0  0  0  0  0  0
    2.5150   -4.3100   57.4580 C   0  0  0  0  0  0  0  0  0  0  0  0
   14.0518    5.8845   19.9385 H   0  0  0  0  0  0  0  0  0  0  0  0
   12.6915    5.1290   18.4110 H   0  0  0  0  0  0  0  0  0  0  0  0
   12.2689    6.3246   20.1850 H   0  0  0  0  0  0  0  0  0  0  0  0
   12.0640    7.2063   16.8422 H   0  0  0  0  0  0  0  0  0  0  0  0
   14.4583    7.6648   16.7303 H   0  0  0  0  0  0  0  0  0  0  0  0
   14.8039    5.8881   16.5891 H   0  0  0  0  0  0  0  0  0  0  0  0
   13.3152    7.6177   14.5681 H   0  0  0  0  0  0  0  0  0  0  0  0
   14.9954    6.9364   14.4205 H   0  0  0  0  0  0  0  0  0  0  0  0
   12.7701    4.2493   16.6441 H   0  0  0  0  0  0  0  0  0  0  0  0
   11.1244    5.0159   16.7641 H   0  0  0  0  0  0  0  0  0  0  0  0
   11.6829    4.2525   14.4515 H   0  0  0  0  0  0  0  0  0  0  0  0
   11.3861    6.0381   14.5897 H   0  0  0  0  0  0  0  0  0  0  0  0
   13.4938    3.6679   14.4392 H   0  0  0  0  0  0  0  0  0  0  0  0
   15.1526    4.8869   14.0415 H   0  0  0  0  0  0  0  0  0  0  0  0
   15.0884    3.4501   15.8796 H   0  0  0  0  0  0  0  0  0  0  0  0
   14.6749    2.6287   14.4712 H   0  0  0  0  0  0  0  0  0  0  0  0
   13.4631    4.5736   12.5727 H   0  0  0  0  0  0  0  0  0  0  0  0
   11.7262    4.7288   12.0924 H   0  0  0  0  0  0  0  0  0  0  0  0
   11.7386    6.6077   12.2488 H   0  0  0  0  0  0  0  0  0  0  0  0
   11.8340    4.9699   10.0749 H   0  0  0  0  0  0  0  0  0  0  0  0
   11.8286    6.8284   10.3638 H   0  0  0  0  0  0  0  0  0  0  0  0
   13.6188    4.9123    9.7745 H   0  0  0  0  0  0  0  0  0  0  0  0
   11.6660    6.0966    8.2031 H   0  0  0  0  0  0  0  0  0  0  0  0
   12.6230    7.0292    7.0026 H   0  0  0  0  0  0  0  0  0  0  0  0
   12.6866    5.2341    7.0026 H   0  0  0  0  0  0  0  0  0  0  0  0
   14.6305    7.0755   10.7903 H   0  0  0  0  0  0  0  0  0  0  0  0
   15.1017    6.7038   12.4901 H   0  0  0  0  0  0  0  0  0  0  0  0
   15.0932    4.8352   12.1904 H   0  0  0  0  0  0  0  0  0  0  0  0
   17.2630    5.4233   11.3900 H   0  0  0  0  0  0  0  0  0  0  0  0
   19.1982    6.0417   10.0712 H   0  0  0  0  0  0  0  0  0  0  0  0
   18.0260    5.8584    8.7674 H   0  0  0  0  0  0  0  0  0  0  0  0
   19.3794    8.1992    9.1749 H   0  0  0  0  0  0  0  0  0  0  0  0
   17.7087    8.2146    8.5655 H   0  0  0  0  0  0  0  0  0  0  0  0
   18.7701    9.0314   11.2274 H   0  0  0  0  0  0  0  0  0  0  0  0
   17.2335    9.4795   10.4651 H   0  0  0  0  0  0  0  0  0  0  0  0
   16.1701    7.9160   11.7682 H   0  0  0  0  0  0  0  0  0  0  0  0
   17.7290    7.4251   12.4809 H   0  0  0  0  0  0  0  0  0  0  0  0
    4.1598   -1.6722   50.8975 H   0  0  0  0  0  0  0  0  0  0  0  0
    6.2301   -1.9052   50.9146 H   0  0  0  0  0  0  0  0  0  0  0  0
    7.5641   -0.3162   50.7855 H   0  0  0  0  0  0  0  0  0  0  0  0
    5.5417    0.3159   52.5529 H   0  0  0  0  0  0  0  0  0  0  0  0
    3.7637   -1.2818   52.6328 H   0  0  0  0  0  0  0  0  0  0  0  0
    4.9490   -2.6606   52.5039 H   0  0  0  0  0  0  0  0  0  0  0  0
    4.6068   -0.7578   54.8542 H   0  0  0  0  0  0  0  0  0  0  0  0
    4.1448   -2.5162   54.7592 H   0  0  0  0  0  0  0  0  0  0  0  0
    7.5878   -1.9232   52.4453 H   0  0  0  0  0  0  0  0  0  0  0  0
    7.8294   -0.1157   52.6149 H   0  0  0  0  0  0  0  0  0  0  0  0
    8.2531   -1.4029   54.7177 H   0  0  0  0  0  0  0  0  0  0  0  0
    6.9605   -0.1344   54.8326 H   0  0  0  0  0  0  0  0  0  0  0  0
    7.6451   -3.3212   54.6159 H   0  0  0  0  0  0  0  0  0  0  0  0
    5.6145   -3.8400   54.5587 H   0  0  0  0  0  0  0  0  0  0  0  0
    7.0536   -5.1588   54.4521 H   0  0  0  0  0  0  0  0  0  0  0  0
    6.0686   -4.7190   53.1616 H   0  0  0  0  0  0  0  0  0  0  0  0
    7.0551   -3.0411   56.3586 H   0  0  0  0  0  0  0  0  0  0  0  0
    8.0412   -1.6829   57.0459 H   0  0  0  0  0  0  0  0  0  0  0  0
    6.5519   -0.5414   57.2137 H   0  0  0  0  0  0  0  0  0  0  0  0
    7.9219   -2.0077   59.0505 H   0  0  0  0  0  0  0  0  0  0  0  0
    6.4345   -0.8520   59.0828 H   0  0  0  0  0  0  0  0  0  0  0  0
    6.8973   -3.4996   59.1440 H   0  0  0  0  0  0  0  0  0  0  0  0
    6.3891   -2.7130   62.5502 H   0  0  0  0  0  0  0  0  0  0  0  0
    7.7923   -2.7659   61.4300 H   0  0  0  0  0  0  0  0  0  0  0  0
    6.6961   -1.3428   61.4300 H   0  0  0  0  0  0  0  0  0  0  0  0
    4.5026   -2.8240   58.4078 H   0  0  0  0  0  0  0  0  0  0  0  0
    4.3916   -3.0863   56.6243 H   0  0  0  0  0  0  0  0  0  0  0  0
    5.9016   -4.2306   56.6000 H   0  0  0  0  0  0  0  0  0  0  0  0
    4.1647   -5.7130   57.2266 H   0  0  0  0  0  0  0  0  0  0  0  0
    2.5547   -7.1278   58.2854 H   0  0  0  0  0  0  0  0  0  0  0  0
    3.4334   -6.6091   59.7251 H   0  0  0  0  0  0  0  0  0  0  0  0
    0.7372   -6.2107   59.4220 H   0  0  0  0  0  0  0  0  0  0  0  0
    1.7439   -5.0652   60.3430 H   0  0  0  0  0  0  0  0  0  0  0  0
    0.4113   -4.7300   57.7178 H   0  0  0  0  0  0  0  0  0  0  0  0
    1.0334   -3.4824   58.8159 H   0  0  0  0  0  0  0  0  0  0  0  0
    2.8762   -3.2711   57.4702 H   0  0  0  0  0  0  0  0  0  0  0  0
    2.2842   -4.5829   56.4177 H   0  0  0  0  0  0  0  0  0  0  0  0
  1  2  1  0
  2  3  1  0
  2  4  1  0
  4  5  1  0
  5  6  1  0
  4  7  1  0
  7  8  1  0
  6  9  1  0
  8  9  1  0
  9 10  1  6
 10 11  1  0
  9 12  1  0
 12 13  1  0
 13 14  1  0
 14 15  1  0
 15 16  1  0
 16 17  1  0
 15 18  1  0
 12 19  1  0
 18 19  1  0
 18 20  1  0
 20 21  1  0
 21 22  1  0
 22 23  1  0
 23 24  1  0
 21 25  1  0
 24 25  1  0
 26 27  1  0
 27 28  1  0
 27 29  1  0
 29 30  1  0
 30 31  1  0
 29 32  1  0
 32 33  1  0
 31 34  1  0
 33 34  1  0
 34 35  1  6
 35 36  1  0
 34 37  1  0
 37 38  1  0
 38 39  1  0
 39 40  1  0
 40 41  1  0
 41 42  1  0
 40 43  1  0
 37 44  1  0
 43 44  1  0
 43 45  1  0
 45 46  1  0
 46 47  1  0
 47 48  1  0
 48 49  1  0
 46 50  1  0
 49 50  1  0
  1 51  1  0
  2 52  1  0
  3 53  1  0
  4 54  1  1
  5 55  1  0
  5 56  1  0
  6 57  1  0
  6 58  1  0
  7 59  1  0
  7 60  1  0
  8 61  1  0
  8 62  1  0
 10 63  1  0
 10 64  1  0
 11 65  1  0
 11 66  1  0
 12 67  1  0
 13 68  1  0
 13 69  1  0
 14 70  1  0
 14 71  1  0
 15 72  1  0
 17 73  1  0
 17 74  1  0
 17 75  1  0
 18 76  1  0
 19 77  1  0
 19 78  1  0
 21 79  1  1
 22 80  1  0
 22 81  1  0
 23 82  1  0
 23 83  1  0
 24 84  1  0
 24 85  1  0
 25 86  1  0
 25 87  1  0
 26 88  1  0
 27 89  1  0
 28 90  1  0
 29 91  1  6
 30 92  1  0
 30 93  1  0
 31 94  1  0
 31 95  1  0
 32 96  1  0
 32 97  1  0
 33 98  1  0
 33 99  1  0
 35100  1  0
 35101  1  0
 36102  1  0
 36103  1  0
 37104  1  0
 38105  1  0
 38106  1  0
 39107  1  0
 39108  1  0
 40109  1  0
 42110  1  0
 42111  1  0
 42112  1  0
 43113  1  0
 44114  1  0
 44115  1  0
 46116  1  6
 47117  1  0
 47118  1  0
 48119  1  0
 48120  1  0
 49121  1  0
 49122  1  0
 50123  1  0
 50124  1  0
M  END
>  <PDBID>  (1) 
1XOM

>  <PDB ID>  (1) 
1XOM

>  <Generic Name>  (1) 
Cilomilast

>  <Brand Name>  (1) 
nan

>  <DrugBank ID>  (1) 
DB03849

>  <ATC Codes>  (1) 
nan

>  <Ligand ID>  (1) 
CIO

>  <Target Name>  (1) 
cAMP-specific 3',5'-cyclic phosphodiesterase 4B

>  <UniProt ID>  (1) 
Q07343

>  <PDB ID.1>  (1) 
1XOM

>  <Seq. Identity>  (1) 
85%

$$$$
