PDB_DB04573_99
     RDKit          3D

 45 48  0  0  0  0  0  0  0  0999 V2000
    6.4300    4.9350   -6.0160 C   0  0  1  0  0  0  0  0  0  0  0  0
    5.7770    3.7030   -6.6690 C   0  0  0  0  0  0  0  0  0  0  0  0
    4.2920    3.6790   -6.3260 C   0  0  0  0  0  0  0  0  0  0  0  0
    4.0520    3.7320   -4.8100 C   0  0  2  0  0  0  0  0  0  0  0  0
    4.5210    2.4400   -4.1660 C   0  0  0  0  0  0  0  0  0  0  0  0
    2.6320    4.0220   -4.3710 C   0  0  1  0  0  0  0  0  0  0  0  0
    1.7760    2.8750   -4.4650 O   0  0  0  0  0  0  0  0  0  0  0  0
    2.8170    4.4800   -2.9070 C   0  0  2  0  0  0  0  0  0  0  0  0
    1.8620    5.4700   -2.5220 O   0  0  0  0  0  0  0  0  0  0  0  0
    4.2370    5.0220   -2.8010 C   0  0  0  0  0  0  0  0  0  0  0  0
    4.7360    4.9550   -4.2420 C   0  0  1  0  0  0  0  0  0  0  0  0
    6.2260    4.9390   -4.4960 C   0  0  2  0  0  0  0  0  0  0  0  0
    6.8860    6.1580   -3.8710 C   0  0  0  0  0  0  0  0  0  0  0  0
    8.3860    6.0280   -4.0130 C   0  0  0  0  0  0  0  0  0  0  0  0
    8.7760    5.6530   -5.4150 C   0  0  0  0  0  0  0  0  0  0  0  0
   10.1000    5.8410   -5.7570 C   0  0  0  0  0  0  0  0  0  0  0  0
   10.5430    5.5150   -7.0280 C   0  0  0  0  0  0  0  0  0  0  0  0
   11.8410    5.6940   -7.3280 O   0  0  0  0  0  0  0  0  0  0  0  0
    9.6650    4.9980   -7.9620 C   0  0  0  0  0  0  0  0  0  0  0  0
    8.3300    4.8050   -7.6220 C   0  0  0  0  0  0  0  0  0  0  0  0
    7.8740    5.1130   -6.3470 C   0  0  0  0  0  0  0  0  0  0  0  0
    5.9077    5.7978   -6.4551 H   0  0  0  0  0  0  0  0  0  0  0  0
    5.9012    3.7565   -7.7607 H   0  0  0  0  0  0  0  0  0  0  0  0
    6.2572    2.7880   -6.2920 H   0  0  0  0  0  0  0  0  0  0  0  0
    3.8052    4.5477   -6.7934 H   0  0  0  0  0  0  0  0  0  0  0  0
    3.8705    2.7361   -6.7045 H   0  0  0  0  0  0  0  0  0  0  0  0
    4.4842    2.5415   -3.0713 H   0  0  0  0  0  0  0  0  0  0  0  0
    3.8651    1.6146   -4.4800 H   0  0  0  0  0  0  0  0  0  0  0  0
    5.5536    2.2276   -4.4800 H   0  0  0  0  0  0  0  0  0  0  0  0
    2.1365    4.7695   -5.0080 H   0  0  0  0  0  0  0  0  0  0  0  0
    1.5425    2.5621   -3.5553 H   0  0  0  0  0  0  0  0  0  0  0  0
    2.6554    3.6339   -2.2228 H   0  0  0  0  0  0  0  0  0  0  0  0
    1.8160    5.5177   -1.5342 H   0  0  0  0  0  0  0  0  0  0  0  0
    4.2387    6.0573   -2.4293 H   0  0  0  0  0  0  0  0  0  0  0  0
    4.8660    4.4576   -2.0968 H   0  0  0  0  0  0  0  0  0  0  0  0
    4.4828    5.9062   -4.7330 H   0  0  0  0  0  0  0  0  0  0  0  0
    6.6864    4.0487   -4.0429 H   0  0  0  0  0  0  0  0  0  0  0  0
    6.5436    7.0680   -4.3854 H   0  0  0  0  0  0  0  0  0  0  0  0
    6.6161    6.2240   -2.8067 H   0  0  0  0  0  0  0  0  0  0  0  0
    8.8540    6.9900   -3.7570 H   0  0  0  0  0  0  0  0  0  0  0  0
    8.7293    5.2328   -3.3349 H   0  0  0  0  0  0  0  0  0  0  0  0
   10.8048    6.2506   -5.0184 H   0  0  0  0  0  0  0  0  0  0  0  0
   12.1762    5.4667   -8.2314 H   0  0  0  0  0  0  0  0  0  0  0  0
   10.0206    4.7401   -8.9705 H   0  0  0  0  0  0  0  0  0  0  0  0
    7.6294    4.4049   -8.3697 H   0  0  0  0  0  0  0  0  0  0  0  0
  1  2  1  0
  2  3  1  0
  3  4  1  0
  4  5  1  1
  4  6  1  0
  6  7  1  0
  6  8  1  0
  8  9  1  0
  8 10  1  0
  4 11  1  0
 10 11  1  0
  1 12  1  0
 11 12  1  0
 12 13  1  0
 13 14  1  0
 14 15  1  0
 15 16  2  0
 16 17  1  0
 17 18  1  0
 17 19  2  0
 19 20  1  0
  1 21  1  0
 15 21  1  0
 20 21  2  0
  1 22  1  6
  2 23  1  0
  2 24  1  0
  3 25  1  0
  3 26  1  0
  5 27  1  0
  5 28  1  0
  5 29  1  0
  6 30  1  6
  7 31  1  0
  8 32  1  1
  9 33  1  0
 10 34  1  0
 10 35  1  0
 11 36  1  6
 12 37  1  1
 13 38  1  0
 13 39  1  0
 14 40  1  0
 14 41  1  0
 16 42  1  0
 18 43  1  0
 19 44  1  0
 20 45  1  0
M  END
$$$$
