PDB_DB04868_97
     RDKit          3D

 61 65  0  0  0  0  0  0  0  0999 V2000
   22.9930   12.5330   86.4300 O   0  0  0  0  0  0  0  0  0  0  0  0
   23.4830   12.4820   87.5510 C   0  0  0  0  0  0  0  0  0  0  0  0
   23.0200   11.6350   88.5060 N   0  0  0  0  0  0  0  0  0  0  0  0
   21.8470   10.8690   88.3780 C   0  0  0  0  0  0  0  0  0  0  0  0
   21.2270   10.3580   89.5190 C   0  0  0  0  0  0  0  0  0  0  0  0
   20.0680    9.5700   89.4430 C   0  0  0  0  0  0  0  0  0  0  0  0
   19.4190    9.1250   90.6260 N   0  0  0  0  0  0  0  0  0  0  0  0
   19.9910    8.8320   91.8610 C   0  0  0  0  0  0  0  0  0  0  0  0
   18.9960    8.4430   92.7170 C   0  0  0  0  0  0  0  0  0  0  0  0
   19.2000    8.0560   94.1780 C   0  0  0  0  0  0  0  0  0  0  0  0
   17.7800    8.4700   92.0490 N   0  0  0  0  0  0  0  0  0  0  0  0
   18.0900    8.8830   90.8170 C   0  0  0  0  0  0  0  0  0  0  0  0
   19.5860    9.2450   88.1590 C   0  0  0  0  0  0  0  0  0  0  0  0
   21.3430   10.4780   87.1060 C   0  0  0  0  0  0  0  0  0  0  0  0
   20.2160    9.6870   86.9790 C   0  0  0  0  0  0  0  0  0  0  0  0
   19.6820    9.3030   85.5860 C   0  0  0  0  0  0  0  0  0  0  0  0
   20.6700    8.9870   84.6720 F   0  0  0  0  0  0  0  0  0  0  0  0
   18.9410    8.1490   85.6490 F   0  0  0  0  0  0  0  0  0  0  0  0
   18.9250   10.2690   85.0240 F   0  0  0  0  0  0  0  0  0  0  0  0
   24.8270   13.1270   87.7530 C   0  0  0  0  0  0  0  0  0  0  0  0
   25.6120   12.9010   88.9030 C   0  0  0  0  0  0  0  0  0  0  0  0
   26.9280   13.3880   89.0390 C   0  0  0  0  0  0  0  0  0  0  0  0
   27.5570   14.0530   87.9750 C   0  0  0  0  0  0  0  0  0  0  0  0
   28.9960   14.5540   88.1610 C   0  0  0  0  0  0  0  0  0  0  0  0
   26.8350   14.2210   86.7560 C   0  0  0  0  0  0  0  0  0  0  0  0
   25.4920   13.7540   86.6670 C   0  0  0  0  0  0  0  0  0  0  0  0
   27.3600   15.0760   85.7610 N   0  0  0  0  0  0  0  0  0  0  0  0
   26.8420   16.3890   85.7150 C   0  0  0  0  0  0  0  0  0  0  0  0
   25.9880   16.9840   86.5400 N   0  0  0  0  0  0  0  0  0  0  0  0
   25.5750   18.2440   86.2390 C   0  0  0  0  0  0  0  0  0  0  0  0
   25.9980   18.8880   85.1430 C   0  0  0  0  0  0  0  0  0  0  0  0
   26.8530   18.2350   84.3190 C   0  0  0  0  0  0  0  0  0  0  0  0
   27.2850   17.0100   84.6130 N   0  0  0  0  0  0  0  0  0  0  0  0
   27.4470   18.8380   83.1080 C   0  0  0  0  0  0  0  0  0  0  0  0
   27.1930   20.1930   82.7870 C   0  0  0  0  0  0  0  0  0  0  0  0
   27.8090   20.7510   81.6720 C   0  0  0  0  0  0  0  0  0  0  0  0
   28.6750   19.9550   80.9110 C   0  0  0  0  0  0  0  0  0  0  0  0
   28.9420   18.6630   81.2140 N   0  0  0  0  0  0  0  0  0  0  0  0
   28.3400   18.1150   82.2950 C   0  0  0  0  0  0  0  0  0  0  0  0
   23.5611   11.5480   89.3781 H   0  0  0  0  0  0  0  0  0  0  0  0
   21.6590   10.5791   90.5062 H   0  0  0  0  0  0  0  0  0  0  0  0
   21.0609    8.9013   92.1072 H   0  0  0  0  0  0  0  0  0  0  0  0
   18.7858    8.8418   94.8267 H   0  0  0  0  0  0  0  0  0  0  0  0
   18.6862    7.1047   94.3805 H   0  0  0  0  0  0  0  0  0  0  0  0
   20.2752    7.9423   94.3805 H   0  0  0  0  0  0  0  0  0  0  0  0
   17.3385    9.0165   90.0248 H   0  0  0  0  0  0  0  0  0  0  0  0
   18.6831    8.6223   88.0751 H   0  0  0  0  0  0  0  0  0  0  0  0
   21.8648   10.8146   86.1980 H   0  0  0  0  0  0  0  0  0  0  0  0
   25.1784   12.3193   89.7298 H   0  0  0  0  0  0  0  0  0  0  0  0
   27.4667   13.2455   89.9874 H   0  0  0  0  0  0  0  0  0  0  0  0
   29.2210   14.6324   89.2349 H   0  0  0  0  0  0  0  0  0  0  0  0
   29.6944   13.8461   87.6907 H   0  0  0  0  0  0  0  0  0  0  0  0
   29.1038   15.5425   87.6907 H   0  0  0  0  0  0  0  0  0  0  0  0
   24.9490   13.8845   85.7193 H   0  0  0  0  0  0  0  0  0  0  0  0
   28.0846   14.7574   85.1019 H   0  0  0  0  0  0  0  0  0  0  0  0
   24.8717   18.7503   86.9165 H   0  0  0  0  0  0  0  0  0  0  0  0
   25.6628   19.9116   84.9197 H   0  0  0  0  0  0  0  0  0  0  0  0
   26.5175   20.7965   83.4111 H   0  0  0  0  0  0  0  0  0  0  0  0
   27.6198   21.7980   81.3928 H   0  0  0  0  0  0  0  0  0  0  0  0
   29.1591   20.3993   80.0288 H   0  0  0  0  0  0  0  0  0  0  0  0
   28.5564   17.0665   82.5475 H   0  0  0  0  0  0  0  0  0  0  0  0
  1  2  2  0
  2  3  1  0
  3  4  1  0
  4  5  2  0
  5  6  1  0
  6  7  1  0
  7  8  1  0
  8  9  2  0
  9 10  1  0
  9 11  1  0
  7 12  1  0
 11 12  2  0
  6 13  2  0
  4 14  1  0
 13 15  1  0
 14 15  2  0
 15 16  1  0
 16 17  1  0
 16 18  1  0
 16 19  1  0
  2 20  1  0
 20 21  2  0
 21 22  1  0
 22 23  2  0
 23 24  1  0
 23 25  1  0
 20 26  1  0
 25 26  2  0
 25 27  1  0
 27 28  1  0
 28 29  2  0
 29 30  1  0
 30 31  2  0
 31 32  1  0
 28 33  1  0
 32 33  2  0
 32 34  1  0
 34 35  2  0
 35 36  1  0
 36 37  2  0
 37 38  1  0
 34 39  1  0
 38 39  2  0
  3 40  1  0
  5 41  1  0
  8 42  1  0
 10 43  1  0
 10 44  1  0
 10 45  1  0
 12 46  1  0
 13 47  1  0
 14 48  1  0
 21 49  1  0
 22 50  1  0
 24 51  1  0
 24 52  1  0
 24 53  1  0
 26 54  1  0
 27 55  1  0
 30 56  1  0
 31 57  1  0
 35 58  1  0
 36 59  1  0
 37 60  1  0
 39 61  1  0
M  END
$$$$
