PDB_DB01127_99
     RDKit          3D

 39 41  0  0  0  0  0  0  0  0999 V2000
   41.3160    6.6840   50.1960 C   0  0  0  0  0  0  0  0  0  0  0  0
   41.8010    7.9870   50.1340 C   0  0  0  0  0  0  0  0  0  0  0  0
   40.8620    6.5660   55.0730 Cl  0  0  0  0  0  0  0  0  0  0  0  0
   40.1740    2.5230   50.0380 C   0  0  0  0  0  0  0  0  0  0  0  0
   41.1320    2.6040   51.0000 C   0  0  0  0  0  0  0  0  0  0  0  0
   41.8900    6.3310   47.8940 C   0  0  0  0  0  0  0  0  0  0  0  0
   41.3620    5.8570   49.0830 C   0  0  0  0  0  0  0  0  0  0  0  0
   42.3730    7.6290   47.8250 C   0  0  0  0  0  0  0  0  0  0  0  0
   43.0470    8.2080   46.2710 Cl  0  0  0  0  0  0  0  0  0  0  0  0
   42.6010    6.1960   55.0790 C   0  0  0  0  0  0  0  0  0  0  0  0
   43.3100    6.5760   56.1960 C   0  0  0  0  0  0  0  0  0  0  0  0
   44.6600    6.3120   56.2640 C   0  0  0  0  0  0  0  0  0  0  0  0
   45.2940    5.6640   55.2100 C   0  0  0  0  0  0  0  0  0  0  0  0
   45.5550    6.8240   57.7330 Cl  0  0  0  0  0  0  0  0  0  0  0  0
   39.2390    3.4190   50.3620 N   0  0  0  0  0  0  0  0  0  0  0  0
   41.4600    4.0250   53.1350 C   0  0  0  0  0  0  0  0  0  0  0  0
   42.4280    5.1640   52.8260 C   0  0  1  0  0  0  0  0  0  0  0  0
   41.7130    6.3510   52.4770 O   0  0  0  0  0  0  0  0  0  0  0  0
   43.2130    5.5410   54.0230 C   0  0  0  0  0  0  0  0  0  0  0  0
   40.7390    3.5980   51.9210 N   0  0  0  0  0  0  0  0  0  0  0  0
   39.5740    4.0620   51.4790 C   0  0  0  0  0  0  0  0  0  0  0  0
   40.7400    6.1480   51.4740 C   0  0  0  0  0  0  0  0  0  0  0  0
   42.3310    8.4630   48.9390 C   0  0  0  0  0  0  0  0  0  0  0  0
   44.5770    5.2810   54.0820 C   0  0  0  0  0  0  0  0  0  0  0  0
   41.7656    8.6349   51.0222 H   0  0  0  0  0  0  0  0  0  0  0  0
   40.1704    1.8523   49.1661 H   0  0  0  0  0  0  0  0  0  0  0  0
   42.0507    2.0012   51.0510 H   0  0  0  0  0  0  0  0  0  0  0  0
   41.9262    5.6805   47.0077 H   0  0  0  0  0  0  0  0  0  0  0  0
   40.9800    4.8273   49.1450 H   0  0  0  0  0  0  0  0  0  0  0  0
   42.8024    7.0865   57.0277 H   0  0  0  0  0  0  0  0  0  0  0  0
   46.3719    5.4525   55.2690 H   0  0  0  0  0  0  0  0  0  0  0  0
   42.0259    3.1712   53.5360 H   0  0  0  0  0  0  0  0  0  0  0  0
   40.7246    4.3810   53.8715 H   0  0  0  0  0  0  0  0  0  0  0  0
   43.0711    4.8031   52.0098 H   0  0  0  0  0  0  0  0  0  0  0  0
   38.9801    4.8529   51.9604 H   0  0  0  0  0  0  0  0  0  0  0  0
   39.8157    6.6875   51.7283 H   0  0  0  0  0  0  0  0  0  0  0  0
   40.4897    5.0812   51.3772 H   0  0  0  0  0  0  0  0  0  0  0  0
   42.7145    9.4920   48.8747 H   0  0  0  0  0  0  0  0  0  0  0  0
   45.0838    4.7777   53.2454 H   0  0  0  0  0  0  0  0  0  0  0  0
  1  2  2  0
  4  5  2  0
  1  7  1  0
  6  7  2  0
  6  8  1  0
  8  9  1  0
  3 10  1  0
 10 11  2  0
 11 12  1  0
 12 13  2  0
 12 14  1  0
  4 15  1  0
 16 17  1  0
 17 18  1  0
 10 19  1  0
 17 19  1  0
  5 20  1  0
 16 20  1  0
 20 21  1  0
 21 15  2  0
  1 22  1  0
 18 22  1  0
  2 23  1  0
  8 23  2  0
 13 24  1  0
 19 24  2  0
  2 25  1  0
  4 26  1  0
  5 27  1  0
  6 28  1  0
  7 29  1  0
 11 30  1  0
 13 31  1  0
 16 32  1  0
 16 33  1  0
 17 34  1  6
 21 35  1  0
 22 36  1  0
 22 37  1  0
 23 38  1  0
 24 39  1  0
M  END
$$$$
