PDB_DB01229_96
     RDKit          3D

113119  0  0  0  0  0  0  0  0999 V2000
  -26.0320  -34.2520  -27.9570 O   0  0  0  0  0  0  0  0  0  0  0  0
  -25.8230  -33.9820  -26.5590 C   0  0  1  0  0  0  0  0  0  0  0  0
  -25.0750  -32.5350  -26.4850 C   0  0  1  0  0  0  0  0  0  0  0  0
  -26.0620  -31.6480  -27.1420 O   0  0  0  0  0  0  0  0  0  0  0  0
  -25.7660  -31.1540  -28.4330 C   0  0  0  0  0  0  0  0  0  0  0  0
  -24.7360  -31.3860  -29.0200 O   0  0  0  0  0  0  0  0  0  0  0  0
  -26.8130  -30.3190  -28.9620 C   0  0  0  0  0  0  0  0  0  0  0  0
  -27.4930  -29.2700  -28.3300 C   0  0  0  0  0  0  0  0  0  0  0  0
  -28.4950  -28.5830  -29.0660 C   0  0  0  0  0  0  0  0  0  0  0  0
  -28.8550  -28.7990  -30.2470 C   0  0  0  0  0  0  0  0  0  0  0  0
  -28.2170  -29.8500  -30.9650 C   0  0  0  0  0  0  0  0  0  0  0  0
  -27.1390  -30.6790  -30.3420 C   0  0  0  0  0  0  0  0  0  0  0  0
  -24.7360  -31.9000  -25.0310 C   0  0  2  0  0  0  0  0  0  0  0  0
  -25.0950  -30.3360  -24.8870 C   0  0  2  0  0  0  0  0  0  0  0  0
  -26.5530  -30.0780  -25.0260 O   0  0  0  0  0  0  0  0  0  0  0  0
  -27.4660  -30.5030  -24.0890 C   0  0  0  0  0  0  0  0  0  0  0  0
  -27.2050  -31.1100  -23.0930 O   0  0  0  0  0  0  0  0  0  0  0  0
  -28.8530  -30.0730  -24.5140 C   0  0  0  0  0  0  0  0  0  0  0  0
  -24.4940  -29.3100  -25.8820 C   0  0  0  0  0  0  0  0  0  0  0  0
  -23.8790  -28.5330  -24.8290 O   0  0  0  0  0  0  0  0  0  0  0  0
  -24.4000  -29.4330  -23.8280 C   0  0  2  0  0  0  0  0  0  0  0  0
  -23.2660  -30.0560  -22.9480 C   0  0  0  0  0  0  0  0  0  0  0  0
  -23.2090  -31.5770  -22.9960 C   0  0  2  0  0  0  0  0  0  0  0  0
  -22.0990  -32.0410  -22.1850 O   0  0  0  0  0  0  0  0  0  0  0  0
  -23.1610  -32.1630  -24.4890 C   0  0  2  0  0  0  0  0  0  0  0  0
  -22.0740  -31.4000  -25.3040 C   0  0  0  0  0  0  0  0  0  0  0  0
  -22.6010  -33.6850  -24.4650 C   0  0  0  0  0  0  0  0  0  0  0  0
  -21.5320  -33.9270  -25.0010 O   0  0  0  0  0  0  0  0  0  0  0  0
  -23.3770  -34.8340  -23.8070 C   0  0  2  0  0  0  0  0  0  0  0  0
  -22.5840  -36.0820  -23.9940 O   0  0  0  0  0  0  0  0  0  0  0  0
  -22.0080  -36.7060  -22.9050 C   0  0  0  0  0  0  0  0  0  0  0  0
  -22.0850  -36.3320  -21.7760 O   0  0  0  0  0  0  0  0  0  0  0  0
  -21.2560  -37.9340  -23.3410 C   0  0  0  0  0  0  0  0  0  0  0  0
  -24.7740  -34.9540  -24.4210 C   0  0  0  0  0  0  0  0  0  0  0  0
  -25.8940  -34.7200  -23.6280 C   0  0  0  0  0  0  0  0  0  0  0  0
  -27.2680  -34.7030  -24.3650 C   0  0  1  0  0  0  0  0  0  0  0  0
  -28.3610  -34.1000  -23.5870 O   0  0  0  0  0  0  0  0  0  0  0  0
  -29.1250  -34.9080  -22.8650 C   0  0  0  0  0  0  0  0  0  0  0  0
  -29.0310  -36.0920  -22.7570 O   0  0  0  0  0  0  0  0  0  0  0  0
  -30.2340  -34.0960  -22.1470 C   0  0  2  0  0  0  0  0  0  0  0  0
  -31.0450  -35.0060  -21.4280 O   0  0  0  0  0  0  0  0  0  0  0  0
  -31.0230  -33.3000  -23.2160 C   0  0  1  0  0  0  0  0  0  0  0  0
  -31.4410  -34.2560  -24.2360 N   0  0  0  0  0  0  0  0  0  0  0  0
  -31.6740  -33.9090  -25.5230 C   0  0  0  0  0  0  0  0  0  0  0  0
  -31.5700  -32.7590  -25.9370 O   0  0  0  0  0  0  0  0  0  0  0  0
  -32.0380  -35.0520  -26.4030 C   0  0  0  0  0  0  0  0  0  0  0  0
  -33.1610  -35.8560  -26.2080 C   0  0  0  0  0  0  0  0  0  0  0  0
  -33.4470  -36.9400  -27.0800 C   0  0  0  0  0  0  0  0  0  0  0  0
  -32.5730  -37.2150  -28.1680 C   0  0  0  0  0  0  0  0  0  0  0  0
  -31.4550  -36.4230  -28.3690 C   0  0  0  0  0  0  0  0  0  0  0  0
  -31.1640  -35.3530  -27.5160 C   0  0  0  0  0  0  0  0  0  0  0  0
  -32.1820  -32.5020  -22.5830 C   0  0  0  0  0  0  0  0  0  0  0  0
  -31.9310  -31.1750  -22.1920 C   0  0  0  0  0  0  0  0  0  0  0  0
  -32.9530  -30.3890  -21.5970 C   0  0  0  0  0  0  0  0  0  0  0  0
  -34.2300  -30.9410  -21.3990 C   0  0  0  0  0  0  0  0  0  0  0  0
  -34.4830  -32.2460  -21.7830 C   0  0  0  0  0  0  0  0  0  0  0  0
  -33.4620  -33.0420  -22.3800 C   0  0  0  0  0  0  0  0  0  0  0  0
  -27.1850  -33.8920  -25.7160 C   0  0  0  0  0  0  0  0  0  0  0  0
  -25.8910  -34.3880  -22.1410 C   0  0  0  0  0  0  0  0  0  0  0  0
  -24.9360  -35.2630  -25.9890 C   0  0  0  0  0  0  0  0  0  0  0  0
  -25.6850  -36.6630  -26.1630 C   0  0  0  0  0  0  0  0  0  0  0  0
  -23.6630  -35.4540  -26.8440 C   0  0  0  0  0  0  0  0  0  0  0  0
  -26.6349  -35.0309  -28.0561 H   0  0  0  0  0  0  0  0  0  0  0  0
  -24.0750  -32.6474  -26.9293 H   0  0  0  0  0  0  0  0  0  0  0  0
  -27.2578  -28.9864  -27.2935 H   0  0  0  0  0  0  0  0  0  0  0  0
  -29.0142  -27.7686  -28.5395 H   0  0  0  0  0  0  0  0  0  0  0  0
  -29.6434  -28.1923  -30.7165 H   0  0  0  0  0  0  0  0  0  0  0  0
  -28.5237  -30.0570  -32.0009 H   0  0  0  0  0  0  0  0  0  0  0  0
  -26.6318  -31.4943  -30.8787 H   0  0  0  0  0  0  0  0  0  0  0  0
  -25.4124  -32.4702  -24.3773 H   0  0  0  0  0  0  0  0  0  0  0  0
  -29.4674  -29.8825  -23.6217 H   0  0  0  0  0  0  0  0  0  0  0  0
  -28.7840  -29.1541  -25.1147 H   0  0  0  0  0  0  0  0  0  0  0  0
  -29.3160  -30.8698  -25.1147 H   0  0  0  0  0  0  0  0  0  0  0  0
  -23.7678  -29.7520  -26.5800 H   0  0  0  0  0  0  0  0  0  0  0  0
  -25.1661  -28.8033  -26.5902 H   0  0  0  0  0  0  0  0  0  0  0  0
  -25.0433  -29.0754  -23.0105 H   0  0  0  0  0  0  0  0  0  0  0  0
  -22.3005  -29.6625  -23.2987 H   0  0  0  0  0  0  0  0  0  0  0  0
  -23.4834  -29.7786  -21.9060 H   0  0  0  0  0  0  0  0  0  0  0  0
  -24.1478  -31.9659  -22.5747 H   0  0  0  0  0  0  0  0  0  0  0  0
  -22.3279  -31.9453  -21.2266 H   0  0  0  0  0  0  0  0  0  0  0  0
  -21.3742  -30.9088  -24.6119 H   0  0  0  0  0  0  0  0  0  0  0  0
  -21.5242  -32.1114  -25.9377 H   0  0  0  0  0  0  0  0  0  0  0  0
  -22.5562  -30.6412  -25.9377 H   0  0  0  0  0  0  0  0  0  0  0  0
  -23.5177  -34.6461  -22.7323 H   0  0  0  0  0  0  0  0  0  0  0  0
  -20.9158  -38.4896  -22.4547 H   0  0  0  0  0  0  0  0  0  0  0  0
  -21.9171  -38.5742  -23.9436 H   0  0  0  0  0  0  0  0  0  0  0  0
  -20.3853  -37.6361  -23.9436 H   0  0  0  0  0  0  0  0  0  0  0  0
  -27.4902  -35.7669  -24.5344 H   0  0  0  0  0  0  0  0  0  0  0  0
  -29.8252  -33.3697  -21.4291 H   0  0  0  0  0  0  0  0  0  0  0  0
  -30.9186  -34.8642  -20.4564 H   0  0  0  0  0  0  0  0  0  0  0  0
  -30.3983  -32.5290  -23.6907 H   0  0  0  0  0  0  0  0  0  0  0  0
  -31.5646  -35.2416  -23.9635 H   0  0  0  0  0  0  0  0  0  0  0  0
  -33.8362  -35.6471  -25.3651 H   0  0  0  0  0  0  0  0  0  0  0  0
  -34.3386  -37.5628  -26.9150 H   0  0  0  0  0  0  0  0  0  0  0  0
  -32.7845  -38.0539  -28.8474 H   0  0  0  0  0  0  0  0  0  0  0  0
  -30.7843  -36.6389  -29.2137 H   0  0  0  0  0  0  0  0  0  0  0  0
  -30.2684  -34.7390  -27.6920 H   0  0  0  0  0  0  0  0  0  0  0  0
  -30.9324  -30.7411  -22.3487 H   0  0  0  0  0  0  0  0  0  0  0  0
  -32.7460  -29.3525  -21.2924 H   0  0  0  0  0  0  0  0  0  0  0  0
  -35.0266  -30.3371  -20.9398 H   0  0  0  0  0  0  0  0  0  0  0  0
  -35.4839  -32.6744  -21.6258 H   0  0  0  0  0  0  0  0  0  0  0  0
  -33.6768  -34.0779  -22.6812 H   0  0  0  0  0  0  0  0  0  0  0  0
  -27.3514  -32.8321  -25.4733 H   0  0  0  0  0  0  0  0  0  0  0  0
  -27.9436  -34.3547  -26.3644 H   0  0  0  0  0  0  0  0  0  0  0  0
  -25.8994  -35.3202  -21.5572 H   0  0  0  0  0  0  0  0  0  0  0  0
  -24.9876  -33.8102  -21.8961 H   0  0  0  0  0  0  0  0  0  0  0  0
  -26.7838  -33.7939  -21.8961 H   0  0  0  0  0  0  0  0  0  0  0  0
  -25.9102  -37.0840  -25.1720 H   0  0  0  0  0  0  0  0  0  0  0  0
  -26.6222  -36.5109  -26.7184 H   0  0  0  0  0  0  0  0  0  0  0  0
  -25.0384  -37.3583  -26.7184 H   0  0  0  0  0  0  0  0  0  0  0  0
  -22.7935  -35.5845  -26.1830 H   0  0  0  0  0  0  0  0  0  0  0  0
  -23.7779  -36.3450  -27.4788 H   0  0  0  0  0  0  0  0  0  0  0  0
  -23.5114  -34.5685  -27.4788 H   0  0  0  0  0  0  0  0  0  0  0  0
  2  1  1  6
  2  3  1  0
  3  4  1  0
  4  5  1  0
  5  6  2  0
  5  7  1  0
  7  8  2  0
  8  9  1  0
  9 10  2  0
 10 11  1  0
  7 12  1  0
 11 12  2  0
  3 13  1  0
 13 14  1  0
 14 15  1  1
 15 16  1  0
 16 17  2  0
 16 18  1  0
 14 19  1  0
 19 20  1  0
 14 21  1  0
 20 21  1  0
 21 22  1  0
 22 23  1  0
 23 24  1  0
 13 25  1  0
 23 25  1  0
 25 26  1  6
 25 27  1  0
 27 28  2  0
 27 29  1  0
 29 30  1  0
 30 31  1  0
 31 32  2  0
 31 33  1  0
 29 34  1  0
 34 35  2  0
 35 36  1  0
 36 37  1  0
 37 38  1  0
 38 39  2  0
 38 40  1  0
 40 41  1  0
 40 42  1  0
 42 43  1  0
 43 44  1  0
 44 45  2  0
 44 46  1  0
 46 47  2  0
 47 48  1  0
 48 49  2  0
 49 50  1  0
 46 51  1  0
 50 51  2  0
 42 52  1  0
 52 53  2  0
 53 54  1  0
 54 55  2  0
 55 56  1  0
 52 57  1  0
 56 57  2  0
  2 58  1  0
 36 58  1  0
 35 59  1  0
  2 60  1  0
 34 60  1  0
 60 61  1  0
 60 62  1  0
  1 63  1  0
  3 64  1  6
  8 65  1  0
  9 66  1  0
 10 67  1  0
 11 68  1  0
 12 69  1  0
 13 70  1  1
 18 71  1  0
 18 72  1  0
 18 73  1  0
 19 74  1  0
 19 75  1  0
 21 76  1  1
 22 77  1  0
 22 78  1  0
 23 79  1  1
 24 80  1  0
 26 81  1  0
 26 82  1  0
 26 83  1  0
 29 84  1  1
 33 85  1  0
 33 86  1  0
 33 87  1  0
 36 88  1  6
 40 89  1  1
 41 90  1  0
 42 91  1  6
 43 92  1  0
 47 93  1  0
 48 94  1  0
 49 95  1  0
 50 96  1  0
 51 97  1  0
 53 98  1  0
 54 99  1  0
 55100  1  0
 56101  1  0
 57102  1  0
 58103  1  0
 58104  1  0
 59105  1  0
 59106  1  0
 59107  1  0
 61108  1  0
 61109  1  0
 61110  1  0
 62111  1  0
 62112  1  0
 62113  1  0
M  END
$$$$
