PDB_DB00755_98
     RDKit          3D

 50 50  0  0  0  0  0  0  0  0999 V2000
   83.8340   59.2030   14.6860 C   0  0  0  0  0  0  0  0  0  0  0  0
   84.2210   60.6770   14.7650 C   0  0  0  0  0  0  0  0  0  0  0  0
   85.5360   60.9680   14.0610 C   0  0  0  0  0  0  0  0  0  0  0  0
   85.4240   60.6680   12.5730 C   0  0  0  0  0  0  0  0  0  0  0  0
   84.8810   59.2700   12.3570 C   0  0  0  0  0  0  0  0  0  0  0  0
   83.9930   58.6820   13.2680 C   0  0  0  0  0  0  0  0  0  0  0  0
   83.1250   57.5530   12.9310 C   0  0  0  0  0  0  0  0  0  0  0  0
   82.8050   57.1830   11.5550 C   0  0  0  0  0  0  0  0  0  0  0  0
   81.9260   56.0400   11.3250 C   0  0  0  0  0  0  0  0  0  0  0  0
   80.7900   56.2130   10.4240 C   0  0  0  0  0  0  0  0  0  0  0  0
   80.9450   57.0000    9.2000 C   0  0  0  0  0  0  0  0  0  0  0  0
   79.8740   56.9410    8.2040 C   0  0  0  0  0  0  0  0  0  0  0  0
   79.6340   58.0560    7.2830 C   0  0  0  0  0  0  0  0  0  0  0  0
   78.8480   57.7860    6.1490 C   0  0  0  0  0  0  0  0  0  0  0  0
   78.7020   58.6930    5.0040 C   0  0  0  0  0  0  0  0  0  0  0  0
   82.3660   59.0750   15.0600 C   0  0  0  0  0  0  0  0  0  0  0  0
   84.6570   58.3370   15.6330 C   0  0  0  0  0  0  0  0  0  0  0  0
   85.3520   58.5540   11.1250 C   0  0  0  0  0  0  0  0  0  0  0  0
   82.1710   54.7290   12.0240 C   0  0  0  0  0  0  0  0  0  0  0  0
   80.2090   59.4150    7.5680 C   0  0  0  0  0  0  0  0  0  0  0  0
   78.7240   58.1940    3.8650 O   0  0  0  0  0  0  0  0  0  0  0  0
   78.5290   59.9320    5.1400 O   0  0  0  0  0  0  0  0  0  0  0  0
   83.4278   61.2764   14.2943 H   0  0  0  0  0  0  0  0  0  0  0  0
   84.3442   60.9355   15.8271 H   0  0  0  0  0  0  0  0  0  0  0  0
   85.7924   62.0289   14.1977 H   0  0  0  0  0  0  0  0  0  0  0  0
   86.3195   60.3287   14.4940 H   0  0  0  0  0  0  0  0  0  0  0  0
   84.7453   61.3969   12.1061 H   0  0  0  0  0  0  0  0  0  0  0  0
   86.4231   60.7377   12.1181 H   0  0  0  0  0  0  0  0  0  0  0  0
   82.6950   56.9573   13.7496 H   0  0  0  0  0  0  0  0  0  0  0  0
   83.2175   57.7533   10.7097 H   0  0  0  0  0  0  0  0  0  0  0  0
   79.8202   55.7530   10.6647 H   0  0  0  0  0  0  0  0  0  0  0  0
   81.8399   57.6176    9.0334 H   0  0  0  0  0  0  0  0  0  0  0  0
   79.2386   56.0450    8.1456 H   0  0  0  0  0  0  0  0  0  0  0  0
   78.3053   56.8297    6.1176 H   0  0  0  0  0  0  0  0  0  0  0  0
   82.2661   59.0663   16.1554 H   0  0  0  0  0  0  0  0  0  0  0  0
   81.8068   59.9278   14.6476 H   0  0  0  0  0  0  0  0  0  0  0  0
   81.9629   58.1383   14.6476 H   0  0  0  0  0  0  0  0  0  0  0  0
   84.4111   58.5957   16.6735 H   0  0  0  0  0  0  0  0  0  0  0  0
   84.4258   57.2765   15.4544 H   0  0  0  0  0  0  0  0  0  0  0  0
   85.7279   58.5139   15.4544 H   0  0  0  0  0  0  0  0  0  0  0  0
   85.9350   57.6678   11.4162 H   0  0  0  0  0  0  0  0  0  0  0  0
   84.4828   58.2411   10.5279 H   0  0  0  0  0  0  0  0  0  0  0  0
   85.9835   59.2283   10.5279 H   0  0  0  0  0  0  0  0  0  0  0  0
   82.1422   54.8830   13.1128 H   0  0  0  0  0  0  0  0  0  0  0  0
   81.3920   54.0082   11.7349 H   0  0  0  0  0  0  0  0  0  0  0  0
   83.1577   54.3381   11.7349 H   0  0  0  0  0  0  0  0  0  0  0  0
   80.2726   59.5654    8.6558 H   0  0  0  0  0  0  0  0  0  0  0  0
   81.2148   59.4871    7.1284 H   0  0  0  0  0  0  0  0  0  0  0  0
   79.5604   60.1871    7.1284 H   0  0  0  0  0  0  0  0  0  0  0  0
   78.4350   60.5093    4.3413 H   0  0  0  0  0  0  0  0  0  0  0  0
  1  2  1  0
  2  3  1  0
  3  4  1  0
  4  5  1  0
  1  6  1  0
  5  6  2  0
  6  7  1  0
  7  8  2  0
  8  9  1  0
  9 10  2  0
 10 11  1  0
 11 12  2  0
 12 13  1  0
 13 14  2  0
 14 15  1  0
  1 16  1  0
  1 17  1  0
  5 18  1  0
  9 19  1  0
 13 20  1  0
 15 21  2  0
 15 22  1  0
  2 23  1  0
  2 24  1  0
  3 25  1  0
  3 26  1  0
  4 27  1  0
  4 28  1  0
  7 29  1  0
  8 30  1  0
 10 31  1  0
 11 32  1  0
 12 33  1  0
 14 34  1  0
 16 35  1  0
 16 36  1  0
 16 37  1  0
 17 38  1  0
 17 39  1  0
 17 40  1  0
 18 41  1  0
 18 42  1  0
 18 43  1  0
 19 44  1  0
 19 45  1  0
 19 46  1  0
 20 47  1  0
 20 48  1  0
 20 49  1  0
 22 50  1  0
M  END
$$$$
