PDB_DB00759_94
     RDKit          3D

 56 59  0  0  0  0  0  0  0  0999 V2000
  -57.4680   87.2430   79.5920 C   0  0  0  0  0  0  0  0  0  0  0  0
  -57.8500   86.0930   79.7240 O   0  0  0  0  0  0  0  0  0  0  0  0
  -57.1640   88.1460   80.7050 C   0  0  0  0  0  0  0  0  0  0  0  0
  -56.6050   87.6530   81.9720 C   0  0  0  0  0  0  0  0  0  0  0  0
  -55.4000   87.8090   82.2280 O   0  0  0  0  0  0  0  0  0  0  0  0
  -57.4260   87.0730   82.8370 N   0  0  0  0  0  0  0  0  0  0  0  0
  -57.4330   89.5030   80.5410 C   0  0  0  0  0  0  0  0  0  0  0  0
  -57.1310   90.3300   81.5630 O   0  0  0  0  0  0  0  0  0  0  0  0
  -58.0860   90.0480   79.2750 C   0  0  1  0  0  0  0  0  0  0  0  0
  -57.4960   91.3720   78.9910 N   0  0  0  0  0  0  0  0  0  0  0  0
  -56.2530   91.4240   78.2100 C   0  0  0  0  0  0  0  0  0  0  0  0
  -58.4350   92.4090   78.5500 C   0  0  0  0  0  0  0  0  0  0  0  0
  -58.1420   89.1310   78.0200 C   0  0  2  0  0  0  0  0  0  0  0  0
  -59.6020   88.7590   77.7230 C   0  0  0  0  0  0  0  0  0  0  0  0
  -59.7240   88.1210   76.3320 C   0  0  2  0  0  0  0  0  0  0  0  0
  -61.1430   87.6790   75.9140 C   0  0  2  0  0  0  0  0  0  0  0  0
  -62.1690   88.8060   76.0070 C   0  0  0  0  0  0  0  0  0  0  0  0
  -61.5700   86.6820   76.8520 O   0  0  0  0  0  0  0  0  0  0  0  0
  -61.1230   87.0430   74.5190 C   0  0  0  0  0  0  0  0  0  0  0  0
  -62.1720   87.2290   73.6230 C   0  0  0  0  0  0  0  0  0  0  0  0
  -62.1120   86.7060   72.3420 C   0  0  0  0  0  0  0  0  0  0  0  0
  -61.0050   85.9850   71.9280 C   0  0  0  0  0  0  0  0  0  0  0  0
  -59.9440   85.7670   72.8040 C   0  0  0  0  0  0  0  0  0  0  0  0
  -58.8760   85.0580   72.3420 O   0  0  0  0  0  0  0  0  0  0  0  0
  -59.9870   86.2870   74.1280 C   0  0  0  0  0  0  0  0  0  0  0  0
  -58.8770   86.0380   75.0860 C   0  0  0  0  0  0  0  0  0  0  0  0
  -58.1030   85.0850   74.9400 O   0  0  0  0  0  0  0  0  0  0  0  0
  -58.7280   86.9790   76.2340 C   0  0  0  0  0  0  0  0  0  0  0  0
  -57.6770   86.8430   77.0930 C   0  0  0  0  0  0  0  0  0  0  0  0
  -56.8420   85.7780   77.0950 O   0  0  0  0  0  0  0  0  0  0  0  0
  -57.3000   87.8570   78.1720 C   0  0  2  0  0  0  0  0  0  0  0  0
  -55.9210   88.1690   78.0170 O   0  0  0  0  0  0  0  0  0  0  0  0
  -57.0629   86.7178   83.7330 H   0  0  0  0  0  0  0  0  0  0  0  0
  -58.4268   86.9777   82.6128 H   0  0  0  0  0  0  0  0  0  0  0  0
  -57.3079   91.3008   81.4831 H   0  0  0  0  0  0  0  0  0  0  0  0
  -59.1596   90.1166   79.5044 H   0  0  0  0  0  0  0  0  0  0  0  0
  -55.3918   91.4600   78.8934 H   0  0  0  0  0  0  0  0  0  0  0  0
  -56.1806   90.5281   77.5759 H   0  0  0  0  0  0  0  0  0  0  0  0
  -56.2557   92.3228   77.5759 H   0  0  0  0  0  0  0  0  0  0  0  0
  -58.8790   92.8993   79.4289 H   0  0  0  0  0  0  0  0  0  0  0  0
  -57.8993   93.1555   77.9452 H   0  0  0  0  0  0  0  0  0  0  0  0
  -59.2308   91.9498   77.9452 H   0  0  0  0  0  0  0  0  0  0  0  0
  -57.7115   89.6988   77.1820 H   0  0  0  0  0  0  0  0  0  0  0  0
  -59.9544   88.0440   78.4810 H   0  0  0  0  0  0  0  0  0  0  0  0
  -60.2135   89.6730   77.7492 H   0  0  0  0  0  0  0  0  0  0  0  0
  -59.4903   88.9134   75.6057 H   0  0  0  0  0  0  0  0  0  0  0  0
  -62.3729   89.0299   77.0645 H   0  0  0  0  0  0  0  0  0  0  0  0
  -61.7725   89.7046   75.5117 H   0  0  0  0  0  0  0  0  0  0  0  0
  -63.1008   88.4954   75.5117 H   0  0  0  0  0  0  0  0  0  0  0  0
  -61.4279   87.0138   77.7738 H   0  0  0  0  0  0  0  0  0  0  0  0
  -63.0595   87.7984   73.9363 H   0  0  0  0  0  0  0  0  0  0  0  0
  -62.9506   86.8647   71.6480 H   0  0  0  0  0  0  0  0  0  0  0  0
  -60.9631   85.5833   70.9048 H   0  0  0  0  0  0  0  0  0  0  0  0
  -58.1035   84.8833   72.9360 H   0  0  0  0  0  0  0  0  0  0  0  0
  -56.0954   85.7356   77.7438 H   0  0  0  0  0  0  0  0  0  0  0  0
  -55.5018   88.2638   78.9089 H   0  0  0  0  0  0  0  0  0  0  0  0
  2  1  2  0
  3  1  1  0
  4  3  1  0
  5  4  2  0
  6  4  1  0
  7  3  2  0
  8  7  1  0
  9  7  1  0
 10  9  1  0
 11 10  1  0
 12 10  1  0
 13  9  1  0
 14 13  1  0
 15 14  1  0
 16 15  1  0
 17 16  1  0
 16 18  1  1
 19 16  1  0
 20 19  2  0
 21 20  1  0
 22 21  2  0
 23 22  1  0
 24 23  1  0
 25 19  1  0
 25 23  2  0
 26 25  1  0
 27 26  2  0
 28 26  1  0
 28 15  1  0
 29 28  2  0
 30 29  1  0
 31 29  1  0
 31 13  1  0
 31  1  1  0
 31 32  1  6
  6 33  1  0
  6 34  1  0
  8 35  1  0
  9 36  1  1
 11 37  1  0
 11 38  1  0
 11 39  1  0
 12 40  1  0
 12 41  1  0
 12 42  1  0
 13 43  1  6
 14 44  1  0
 14 45  1  0
 15 46  1  6
 17 47  1  0
 17 48  1  0
 17 49  1  0
 18 50  1  0
 20 51  1  0
 21 52  1  0
 22 53  1  0
 24 54  1  0
 30 55  1  0
 32 56  1  0
M  END
$$$$
