PDB_DB00819_91
     RDKit          3D

 27 27  0  0  0  0  0  0  0  0999 V2000
   -5.0120    2.2110   16.1310 C   0  0  0  0  0  0  0  0  0  0  0  0
   -4.4160    4.0180   14.9440 C   0  0  0  0  0  0  0  0  0  0  0  0
   -5.1680    5.7640   13.6410 C   0  0  0  0  0  0  0  0  0  0  0  0
   -4.6670    6.9100   12.7870 C   0  0  0  0  0  0  0  0  0  0  0  0
   -5.0980   -0.4120   16.2950 N   0  0  0  0  0  0  0  0  0  0  0  0
   -3.3660    3.4000   15.3680 N   0  0  0  0  0  0  0  0  0  0  0  0
   -3.7160    2.3010   16.0840 N   0  0  0  0  0  0  0  0  0  0  0  0
   -4.1580    5.0620   14.1790 N   0  0  0  0  0  0  0  0  0  0  0  0
   -5.4430    0.9180   18.4030 O   0  0  0  0  0  0  0  0  0  0  0  0
   -7.2490    0.9930   16.8390 O   0  0  0  0  0  0  0  0  0  0  0  0
   -6.3740    5.5610   13.7610 O   0  0  0  0  0  0  0  0  0  0  0  0
   -5.7750    0.8600   16.9770 S   0  0  1  0  0  4  0  0  0  0  0  0
   -5.9310    3.4180   15.3460 S   0  0  0  0  0  0  0  0  0  0  0  0
   -5.0050    1.6244   15.2005 H   0  0  0  0  0  0  0  0  0  0  0  0
   -4.3947    4.6646   15.8336 H   0  0  0  0  0  0  0  0  0  0  0  0
   -5.1581    5.1039   12.7611 H   0  0  0  0  0  0  0  0  0  0  0  0
   -4.3115    7.7233   13.4367 H   0  0  0  0  0  0  0  0  0  0  0  0
   -3.8399    6.5598   12.1520 H   0  0  0  0  0  0  0  0  0  0  0  0
   -5.4858    7.2793   12.1520 H   0  0  0  0  0  0  0  0  0  0  0  0
   -4.7570   -1.0527   17.0259 H   0  0  0  0  0  0  0  0  0  0  0  0
   -5.7922   -0.8977   15.7092 H   0  0  0  0  0  0  0  0  0  0  0  0
   -2.7944    3.1108   14.5614 H   0  0  0  0  0  0  0  0  0  0  0  0
   -3.3421    2.3806   17.0405 H   0  0  0  0  0  0  0  0  0  0  0  0
   -3.6085    5.7205   14.7494 H   0  0  0  0  0  0  0  0  0  0  0  0
   -6.2630    0.7747   18.9388 H   0  0  0  0  0  0  0  0  0  0  0  0
   -7.6625    1.0303   17.7377 H   0  0  0  0  0  0  0  0  0  0  0  0
   -6.6080    5.5216   14.7221 H   0  0  0  0  0  0  0  0  0  0  0  0
  3  4  1  0
  2  6  1  0
  1  7  1  0
  6  7  1  0
  2  8  1  0
  3  8  1  0
  3 11  1  0
  1 12  1  0
  5 12  1  0
 12  9  1  1
 10 12  1  0
  1 13  1  0
  2 13  1  0
  1 14  1  0
  2 15  1  0
  3 16  1  0
  4 17  1  0
  4 18  1  0
  4 19  1  0
  5 20  1  0
  5 21  1  0
  6 22  1  0
  7 23  1  0
  8 24  1  0
  9 25  1  0
 10 26  1  0
 11 27  1  0
M  END
>  <PDBID>  (1) 
1YDB

>  <PDB ID>  (1) 
1YDB

>  <Generic Name>  (1) 
Acetazolamide

>  <Brand Name>  (1) 
Acetazolam#Acetazolamide#Acetazolamide for Injection, USP#Diamox IV 500mg#Diamox Pws 500mg/vial#Diamox Sequels#Diamox Src 500mg#Diamox Tab 250mg#Diamox Tablets 250mg#Novo-zolamide Tab 250mg#Acemit#Acemox#Acetak#Acetamide#Acetazolamax#Azm#Azol#Azomid#Carbinib#Defiltran#Diabo#Diacarb#Diamox#Diamox Depot#Diazomid#Diluran#Diuramid#Défiltran#Edemox#Glaumox#Glaupax#Glupax#Huma-Zolamide#Iopar-SR#Medene#Oculten#Uramox#Zolmide#Ödemin

>  <DrugBank ID>  (1) 
DB00819

>  <ATC Codes>  (1) 
S01EC01

>  <Ligand ID>  (1) 
AZM

>  <Target Name>  (1) 
Carbonic anhydrase 3

>  <UniProt ID>  (1) 
P07451

>  <PDB ID.1>  (1) 
1YDB

>  <Seq. Identity>  (1) 
59%

$$$$
