PDB_DB00452_89
     RDKit          3D

 88 91  0  0  0  0  0  0  0  0999 V2000
   -4.0850  137.3560  212.2250 C   0  0  2  0  0  0  0  0  0  0  0  0
   -2.8180  136.7310  212.0760 O   0  0  0  0  0  0  0  0  0  0  0  0
   -3.7500  138.6710  212.9230 C   0  0  2  0  0  0  0  0  0  0  0  0
   -2.7920  139.3880  212.1260 N   0  0  0  0  0  0  0  0  0  0  0  0
   -3.1970  138.4740  214.2660 C   0  0  1  0  0  0  0  0  0  0  0  0
   -3.5840  139.6200  214.9790 O   0  0  0  0  0  0  0  0  0  0  0  0
   -3.6790  137.2980  214.9370 C   0  0  2  0  0  0  0  0  0  0  0  0
   -2.7250  136.2700  214.8160 O   0  0  0  0  0  0  0  0  0  0  0  0
   -4.9450  136.6790  214.4420 C   0  0  2  0  0  0  0  0  0  0  0  0
   -5.0730  136.6700  212.9370 O   0  0  0  0  0  0  0  0  0  0  0  0
   -6.1300  137.2570  215.1760 C   0  0  0  0  0  0  0  0  0  0  0  0
   -0.9960  133.6970  209.9570 C   0  0  1  0  0  0  0  0  0  0  0  0
   -0.5120  132.4990  209.2770 N   0  0  0  0  0  0  0  0  0  0  0  0
   -1.7010  134.7280  209.0880 C   0  0  1  0  0  0  0  0  0  0  0  0
   -1.8690  136.0440  209.8910 C   0  0  1  0  0  0  0  0  0  0  0  0
   -2.3900  137.1230  209.1240 O   0  0  0  0  0  0  0  0  0  0  0  0
   -2.8020  135.7550  211.0400 C   0  0  1  0  0  0  0  0  0  0  0  0
   -2.5290  134.4600  211.8050 C   0  0  1  0  0  0  0  0  0  0  0  0
   -3.7870  134.0970  212.3630 N   0  0  0  0  0  0  0  0  0  0  0  0
   -1.9310  133.2690  211.0380 C   0  0  0  0  0  0  0  0  0  0  0  0
   -1.5050  137.9910  208.3950 C   0  0  1  0  0  0  0  0  0  0  0  0
   -2.1530  138.2910  207.0950 C   0  0  1  0  0  0  0  0  0  0  0  0
   -2.5290  139.6680  207.0820 C   0  0  1  0  0  0  0  0  0  0  0  0
   -1.7040  140.2910  208.1330 C   0  0  2  0  0  0  0  0  0  0  0  0
   -1.2110  139.2850  208.9790 O   0  0  0  0  0  0  0  0  0  0  0  0
   -2.5290  141.2400  208.9590 C   0  0  0  0  0  0  0  0  0  0  0  0
   -4.1040  142.3250  203.2910 C   0  0  1  0  0  0  0  0  0  0  0  0
   -3.8820  140.9710  202.7400 C   0  0  1  0  0  0  0  0  0  0  0  0
   -3.4910  139.9410  203.6270 C   0  0  2  0  0  0  0  0  0  0  0  0
   -3.6130  140.1320  205.1110 C   0  0  1  0  0  0  0  0  0  0  0  0
   -2.3540  140.2110  205.7760 O   0  0  0  0  0  0  0  0  0  0  0  0
   -4.5400  142.4120  204.7480 C   0  0  1  0  0  0  0  0  0  0  0  0
   -4.5310  141.2450  205.5070 O   0  0  0  0  0  0  0  0  0  0  0  0
   -3.6950  143.4160  205.5050 C   0  0  0  0  0  0  0  0  0  0  0  0
   -6.2320  137.0480  216.6320 N   0  0  0  0  0  0  0  0  0  0  0  0
   -1.2060  138.0120  206.1440 O   0  0  0  0  0  0  0  0  0  0  0  0
   -5.1220  140.5050  202.2230 O   0  0  0  0  0  0  0  0  0  0  0  0
   -2.9680  143.1410  203.0870 O   0  0  0  0  0  0  0  0  0  0  0  0
   -3.8680  140.9820  209.0200 O   0  0  0  0  0  0  0  0  0  0  0  0
   -1.0010  134.8560  207.9480 O   0  0  0  0  0  0  0  0  0  0  0  0
   -2.2920  143.1210  205.7010 N   0  0  0  0  0  0  0  0  0  0  0  0
   -2.0850  139.6940  203.3350 N   0  0  0  0  0  0  0  0  0  0  0  0
   -4.5512  137.4355  211.2318 H   0  0  0  0  0  0  0  0  0  0  0  0
   -4.6871  139.2367  213.0316 H   0  0  0  0  0  0  0  0  0  0  0  0
   -2.1322  139.8818  212.7439 H   0  0  0  0  0  0  0  0  0  0  0  0
   -2.2748  138.7246  211.5316 H   0  0  0  0  0  0  0  0  0  0  0  0
   -2.1086  138.3283  214.2017 H   0  0  0  0  0  0  0  0  0  0  0  0
   -3.5233  139.4403  215.9507 H   0  0  0  0  0  0  0  0  0  0  0  0
   -3.8692  137.6732  215.9534 H   0  0  0  0  0  0  0  0  0  0  0  0
   -2.4468  135.9702  215.7176 H   0  0  0  0  0  0  0  0  0  0  0  0
   -4.9146  135.6064  214.6840 H   0  0  0  0  0  0  0  0  0  0  0  0
   -6.1182  138.3436  215.0050 H   0  0  0  0  0  0  0  0  0  0  0  0
   -6.9911  136.7085  214.7666 H   0  0  0  0  0  0  0  0  0  0  0  0
   -0.0950  134.2075  210.3280 H   0  0  0  0  0  0  0  0  0  0  0  0
   -0.2288  131.7980  209.9765 H   0  0  0  0  0  0  0  0  0  0  0  0
   -1.2627  132.1119  208.6874 H   0  0  0  0  0  0  0  0  0  0  0  0
   -2.7189  134.4186  208.8084 H   0  0  0  0  0  0  0  0  0  0  0  0
   -0.8717  136.3646  210.2267 H   0  0  0  0  0  0  0  0  0  0  0  0
   -3.7475  135.7187  210.4790 H   0  0  0  0  0  0  0  0  0  0  0  0
   -1.7280  134.6770  212.5271 H   0  0  0  0  0  0  0  0  0  0  0  0
   -3.7247  134.1150  213.3910 H   0  0  0  0  0  0  0  0  0  0  0  0
   -4.5065  134.7647  212.0509 H   0  0  0  0  0  0  0  0  0  0  0  0
   -1.3822  132.6322  211.7475 H   0  0  0  0  0  0  0  0  0  0  0  0
   -2.7618  132.7248  210.5652 H   0  0  0  0  0  0  0  0  0  0  0  0
   -0.5533  137.4407  208.3577 H   0  0  0  0  0  0  0  0  0  0  0  0
   -3.0639  137.7021  206.9120 H   0  0  0  0  0  0  0  0  0  0  0  0
   -3.5918  139.8490  207.3004 H   0  0  0  0  0  0  0  0  0  0  0  0
   -0.8812  140.8437  207.6560 H   0  0  0  0  0  0  0  0  0  0  0  0
   -2.1364  141.2183  209.9863 H   0  0  0  0  0  0  0  0  0  0  0  0
   -2.4410  142.2161  208.4595 H   0  0  0  0  0  0  0  0  0  0  0  0
   -4.9707  142.6902  202.7205 H   0  0  0  0  0  0  0  0  0  0  0  0
   -3.0536  141.1267  202.0333 H   0  0  0  0  0  0  0  0  0  0  0  0
   -4.2091  139.1298  203.4366 H   0  0  0  0  0  0  0  0  0  0  0  0
   -4.0947  139.2085  205.4648 H   0  0  0  0  0  0  0  0  0  0  0  0
   -5.5957  142.7008  204.6382 H   0  0  0  0  0  0  0  0  0  0  0  0
   -3.7544  144.3692  204.9593 H   0  0  0  0  0  0  0  0  0  0  0  0
   -4.1174  143.4160  206.5207 H   0  0  0  0  0  0  0  0  0  0  0  0
   -5.8352  137.8611  217.1242 H   0  0  0  0  0  0  0  0  0  0  0  0
   -7.2218  136.9373  216.8945 H   0  0  0  0  0  0  0  0  0  0  0  0
   -0.3569  137.7618  206.5873 H   0  0  0  0  0  0  0  0  0  0  0  0
   -5.7274  140.2775  202.9725 H   0  0  0  0  0  0  0  0  0  0  0  0
   -2.5934  143.4101  203.9630 H   0  0  0  0  0  0  0  0  0  0  0  0
   -4.1508  140.9275  209.9672 H   0  0  0  0  0  0  0  0  0  0  0  0
   -0.0502  135.0299  208.1623 H   0  0  0  0  0  0  0  0  0  0  0  0
   -2.0878  143.0781  206.7096 H   0  0  0  0  0  0  0  0  0  0  0  0
   -2.0678  142.2145  205.2664 H   0  0  0  0  0  0  0  0  0  0  0  0
   -1.5620  139.6021  204.2176 H   0  0  0  0  0  0  0  0  0  0  0  0
   -1.9951  138.8243  202.7905 H   0  0  0  0  0  0  0  0  0  0  0  0
  2  1  1  0
  3  1  1  0
  4  3  1  0
  5  3  1  0
  6  5  1  0
  7  5  1  0
  8  7  1  0
  9  7  1  0
 10  1  1  0
 10  9  1  0
 11  9  1  0
 13 12  1  0
 14 12  1  0
 15 14  1  0
 16 15  1  0
 17 15  1  0
 17  2  1  0
 18 17  1  0
 19 18  1  0
 20 18  1  0
 20 12  1  0
 21 16  1  0
 22 21  1  0
 23 22  1  0
 24 23  1  0
 25 24  1  0
 25 21  1  0
 26 24  1  0
 28 27  1  0
 29 28  1  0
 30 29  1  0
 31 30  1  0
 31 23  1  0
 32 27  1  0
 33 30  1  0
 33 32  1  0
 34 32  1  0
 35 11  1  0
 36 22  1  0
 37 28  1  0
 38 27  1  0
 39 26  1  0
 40 14  1  0
 41 34  1  0
 42 29  1  0
  1 43  1  6
  3 44  1  1
  4 45  1  0
  4 46  1  0
  5 47  1  6
  6 48  1  0
  7 49  1  1
  8 50  1  0
  9 51  1  1
 11 52  1  0
 11 53  1  0
 12 54  1  1
 13 55  1  0
 13 56  1  0
 14 57  1  6
 15 58  1  1
 17 59  1  6
 18 60  1  1
 19 61  1  0
 19 62  1  0
 20 63  1  0
 20 64  1  0
 21 65  1  6
 22 66  1  6
 23 67  1  1
 24 68  1  6
 26 69  1  0
 26 70  1  0
 27 71  1  6
 28 72  1  6
 29 73  1  6
 30 74  1  1
 32 75  1  6
 34 76  1  0
 34 77  1  0
 35 78  1  0
 35 79  1  0
 36 80  1  0
 37 81  1  0
 38 82  1  0
 39 83  1  0
 40 84  1  0
 41 85  1  0
 41 86  1  0
 42 87  1  0
 42 88  1  0
M  END
$$$$
