PDB_DB00642_97
     RDKit          3D

288296  0  0  0  0  0  0  0  0999 V2000
   41.0240  -21.0190  -42.0710 C   0  0  0  0  0  0  0  0  0  0  0  0
   42.2330  -20.4870  -42.5100 C   0  0  0  0  0  0  0  0  0  0  0  0
   42.6000  -19.1860  -42.1910 C   0  0  0  0  0  0  0  0  0  0  0  0
   41.7500  -18.4000  -41.4150 C   0  0  1  0  0  0  0  0  0  0  0  0
   40.5290  -18.9140  -40.9510 C   0  0  0  0  0  0  0  0  0  0  0  0
   40.1650  -20.2410  -41.2760 C   0  0  0  0  0  0  0  0  0  0  0  0
   40.6770  -22.4480  -42.4910 C   0  0  0  0  0  0  0  0  0  0  0  0
   41.2920  -23.5250  -41.6160 C   0  0  0  0  0  0  0  0  0  0  0  0
   42.7940  -23.6370  -41.7640 C   0  0  0  0  0  0  0  0  0  0  0  0
   43.5080  -24.0630  -42.8900 C   0  0  0  0  0  0  0  0  0  0  0  0
   44.8500  -24.0190  -42.5780 N   0  0  0  0  0  0  0  0  0  0  0  0
   44.9710  -23.5480  -41.3100 C   0  0  0  0  0  0  0  0  0  0  0  0
   43.7260  -23.3080  -40.7710 C   0  0  0  0  0  0  0  0  0  0  0  0
   43.6950  -22.8040  -39.3660 C   0  0  0  0  0  0  0  0  0  0  0  0
   42.6060  -22.5660  -38.7690 O   0  0  0  0  0  0  0  0  0  0  0  0
   44.8830  -22.5970  -38.7110 N   0  0  0  0  0  0  0  0  0  0  0  0
   46.0600  -22.8700  -39.3130 C   0  0  0  0  0  0  0  0  0  0  0  0
   46.1180  -23.3360  -40.5980 N   0  0  0  0  0  0  0  0  0  0  0  0
   47.1940  -22.6650  -38.6020 N   0  0  0  0  0  0  0  0  0  0  0  0
   42.1900  -16.9890  -41.1690 C   0  0  1  0  0  0  0  0  0  0  0  0
   43.3080  -16.6670  -41.5480 O   0  0  0  0  0  0  0  0  0  0  0  0
   41.3130  -16.1120  -40.7050 N   0  0  0  0  0  0  0  0  0  0  0  0
   41.6250  -14.7070  -40.4520 C   0  0  1  0  0  0  0  0  0  0  0  0
   41.3100  -13.8340  -41.6960 C   0  0  0  0  0  0  0  0  0  0  0  0
   39.9260  -14.1180  -42.2530 C   0  0  0  0  0  0  0  0  0  0  0  0
   39.5750  -13.2930  -43.4740 C   0  0  0  0  0  0  0  0  0  0  0  0
   39.1290  -13.8800  -44.4880 O   0  0  0  0  0  0  0  0  0  0  0  0
   39.7040  -12.0500  -43.4220 O   0  0  0  0  0  0  0  0  0  0  0  0
   40.8030  -14.2170  -39.2870 C   0  0  0  0  0  0  0  0  0  0  0  0
   39.7910  -14.8560  -38.8940 O   0  0  0  0  0  0  0  0  0  0  0  0
   41.1720  -13.1550  -38.7730 O   0  0  0  0  0  0  0  0  0  0  0  0
    6.3680   -1.5870  -19.5360 C   0  0  0  0  0  0  0  0  0  0  0  0
    6.1510   -1.9930  -18.2140 C   0  0  0  0  0  0  0  0  0  0  0  0
    5.4290   -3.1570  -17.9460 C   0  0  0  0  0  0  0  0  0  0  0  0
    4.9450   -3.9490  -19.0030 C   0  0  1  0  0  0  0  0  0  0  0  0
    5.1510   -3.5360  -20.3280 C   0  0  0  0  0  0  0  0  0  0  0  0
    5.8570   -2.3520  -20.5880 C   0  0  0  0  0  0  0  0  0  0  0  0
    7.1530   -0.3060  -19.8000 C   0  0  0  0  0  0  0  0  0  0  0  0
    8.4320   -0.5560  -20.5900 C   0  0  0  0  0  0  0  0  0  0  0  0
    9.5280   -1.1730  -19.7400 C   0  0  0  0  0  0  0  0  0  0  0  0
   10.0740   -0.6480  -18.5550 C   0  0  0  0  0  0  0  0  0  0  0  0
   11.0530   -1.4620  -18.0800 N   0  0  0  0  0  0  0  0  0  0  0  0
   11.1270   -2.4910  -18.9690 C   0  0  0  0  0  0  0  0  0  0  0  0
   10.2220   -2.3470  -20.0010 C   0  0  0  0  0  0  0  0  0  0  0  0
   10.2110   -3.4220  -21.0350 C   0  0  0  0  0  0  0  0  0  0  0  0
    9.4500   -3.4050  -22.0280 O   0  0  0  0  0  0  0  0  0  0  0  0
   11.0800   -4.4420  -20.8870 N   0  0  0  0  0  0  0  0  0  0  0  0
   11.9500   -4.5090  -19.8350 C   0  0  0  0  0  0  0  0  0  0  0  0
   11.9700   -3.5470  -18.8910 N   0  0  0  0  0  0  0  0  0  0  0  0
   12.8280   -5.5540  -19.7200 N   0  0  0  0  0  0  0  0  0  0  0  0
    4.1480   -5.1910  -18.6890 C   0  0  0  0  0  0  0  0  0  0  0  0
    3.1470   -5.4220  -19.3620 O   0  0  0  0  0  0  0  0  0  0  0  0
    4.5140   -5.9960  -17.6830 N   0  0  0  0  0  0  0  0  0  0  0  0
    3.7490   -7.1770  -17.3060 C   0  0  1  0  0  0  0  0  0  0  0  0
    4.1860   -8.3510  -18.1780 C   0  0  0  0  0  0  0  0  0  0  0  0
    3.0790   -9.4060  -18.1730 C   0  0  0  0  0  0  0  0  0  0  0  0
    3.5400  -10.8120  -18.5150 C   0  0  0  0  0  0  0  0  0  0  0  0
    3.1000  -11.7790  -17.8410 O   0  0  0  0  0  0  0  0  0  0  0  0
    4.3350  -10.9890  -19.4650 O   0  0  0  0  0  0  0  0  0  0  0  0
    4.0180   -7.4930  -15.8720 C   0  0  1  0  0  0  0  0  0  0  0  0
    5.1050   -7.0800  -15.4030 O   0  0  0  0  0  0  0  0  0  0  0  0
    3.2080   -8.1950  -15.2220 O   0  0  0  0  0  0  0  0  0  0  0  0
   29.2820  -55.7660  -26.1070 C   0  0  0  0  0  0  0  0  0  0  0  0
   29.6550  -55.5330  -24.7760 C   0  0  0  0  0  0  0  0  0  0  0  0
   28.9610  -56.1210  -23.6980 C   0  0  0  0  0  0  0  0  0  0  0  0
   27.8680  -56.9650  -23.9950 C   0  0  0  0  0  0  0  0  0  0  0  0
   27.4740  -57.1920  -25.3270 C   0  0  0  0  0  0  0  0  0  0  0  0
   28.1860  -56.5960  -26.3820 C   0  0  0  0  0  0  0  0  0  0  0  0
   30.0850  -55.1340  -27.2390 C   0  0  0  0  0  0  0  0  0  0  0  0
   29.3970  -53.9500  -27.9150 C   0  0  0  0  0  0  0  0  0  0  0  0
   28.1510  -54.3510  -28.6850 C   0  0  0  0  0  0  0  0  0  0  0  0
   28.0950  -55.1450  -29.8300 C   0  0  0  0  0  0  0  0  0  0  0  0
   26.7810  -55.2570  -30.2150 N   0  0  0  0  0  0  0  0  0  0  0  0
   26.0260  -54.5480  -29.3340 C   0  0  0  0  0  0  0  0  0  0  0  0
   26.8390  -53.9810  -28.3740 C   0  0  0  0  0  0  0  0  0  0  0  0
   26.1580  -53.1650  -27.3240 C   0  0  0  0  0  0  0  0  0  0  0  0
   26.8270  -52.5850  -26.4300 O   0  0  0  0  0  0  0  0  0  0  0  0
   24.7930  -53.0690  -27.3630 N   0  0  0  0  0  0  0  0  0  0  0  0
   24.0710  -53.6560  -28.3470 C   0  0  0  0  0  0  0  0  0  0  0  0
   24.6670  -54.4000  -29.3210 N   0  0  0  0  0  0  0  0  0  0  0  0
   22.7260  -53.5000  -28.3620 N   0  0  0  0  0  0  0  0  0  0  0  0
   27.1420  -57.6450  -22.8920 C   0  0  1  0  0  0  0  0  0  0  0  0
   26.2090  -58.3750  -23.1600 O   0  0  0  0  0  0  0  0  0  0  0  0
   27.6200  -57.5580  -21.6590 N   0  0  0  0  0  0  0  0  0  0  0  0
   26.9310  -58.1980  -20.5370 C   0  0  1  0  0  0  0  0  0  0  0  0
   27.4670  -59.6180  -20.2950 C   0  0  0  0  0  0  0  0  0  0  0  0
   28.9840  -59.6310  -20.1690 C   0  0  0  0  0  0  0  0  0  0  0  0
   29.5620  -61.0140  -19.9800 C   0  0  0  0  0  0  0  0  0  0  0  0
   28.9330  -61.8560  -19.2800 O   0  0  0  0  0  0  0  0  0  0  0  0
   30.6700  -61.2580  -20.5310 O   0  0  0  0  0  0  0  0  0  0  0  0
   27.0710  -57.3810  -19.2830 C   0  0  0  0  0  0  0  0  0  0  0  0
   27.9970  -56.5270  -19.2130 O   0  0  0  0  0  0  0  0  0  0  0  0
   26.2830  -57.6120  -18.3500 O   0  0  0  0  0  0  0  0  0  0  0  0
   48.3810  -41.6100   12.7340 C   0  0  0  0  0  0  0  0  0  0  0  0
   49.4300  -41.9280   11.8700 C   0  0  0  0  0  0  0  0  0  0  0  0
   50.2310  -40.9250   11.3150 C   0  0  0  0  0  0  0  0  0  0  0  0
   49.9970  -39.5830   11.6300 C   0  0  0  0  0  0  0  0  0  0  0  0
   48.9680  -39.2740   12.5260 C   0  0  0  0  0  0  0  0  0  0  0  0
   48.1520  -40.2730   13.0660 C   0  0  0  0  0  0  0  0  0  0  0  0
   47.5160  -42.6970   13.3490 C   0  0  0  0  0  0  0  0  0  0  0  0
   46.6510  -43.4430   12.3380 C   0  0  0  0  0  0  0  0  0  0  0  0
   45.4350  -42.6450   11.8810 C   0  0  0  0  0  0  0  0  0  0  0  0
   44.4100  -42.1320   12.6850 C   0  0  0  0  0  0  0  0  0  0  0  0
   43.4870  -41.5140   11.9250 N   0  0  0  0  0  0  0  0  0  0  0  0
   43.9030  -41.6390   10.6490 C   0  0  0  0  0  0  0  0  0  0  0  0
   45.0950  -42.3300   10.5730 C   0  0  0  0  0  0  0  0  0  0  0  0
   45.6750  -42.5450    9.2230 C   0  0  0  0  0  0  0  0  0  0  0  0
   46.7530  -43.1740    9.0630 O   0  0  0  0  0  0  0  0  0  0  0  0
   44.9970  -42.0300    8.1580 N   0  0  0  0  0  0  0  0  0  0  0  0
   43.8290  -41.3410    8.3230 C   0  0  0  0  0  0  0  0  0  0  0  0
   43.2870  -41.1500    9.5480 N   0  0  0  0  0  0  0  0  0  0  0  0
   43.1700  -40.8340    7.2360 N   0  0  0  0  0  0  0  0  0  0  0  0
   50.8630  -38.4870   11.0590 C   0  0  0  0  0  0  0  0  0  0  0  0
   52.0480  -38.7170   10.8400 O   0  0  0  0  0  0  0  0  0  0  0  0
   50.3340  -37.2870   10.7900 N   0  0  0  0  0  0  0  0  0  0  0  0
   51.0800  -36.1330   10.2920 C   0  0  1  0  0  0  0  0  0  0  0  0
   51.0800  -36.2160    8.7580 C   0  0  0  0  0  0  0  0  0  0  0  0
   52.4460  -36.0350    8.0790 C   0  0  0  0  0  0  0  0  0  0  0  0
   52.4130  -35.0840    6.8850 C   0  0  0  0  0  0  0  0  0  0  0  0
   51.7420  -35.3810    5.8640 O   0  0  0  0  0  0  0  0  0  0  0  0
   53.0680  -34.0130    6.9320 O   0  0  0  0  0  0  0  0  0  0  0  0
   50.3300  -34.8900   10.7310 C   0  0  1  0  0  0  0  0  0  0  0  0
   49.1070  -34.9880   10.9780 O   0  0  0  0  0  0  0  0  0  0  0  0
   50.8700  -33.7680   10.7720 O   0  0  0  0  0  0  0  0  0  0  0  0
   41.5196  -21.3977  -41.1649 H   0  0  0  0  0  0  0  0  0  0  0  0
   43.0243  -21.1410  -42.1148 H   0  0  0  0  0  0  0  0  0  0  0  0
   42.0944  -20.4388  -43.6002 H   0  0  0  0  0  0  0  0  0  0  0  0
   43.5576  -19.2473  -41.6532 H   0  0  0  0  0  0  0  0  0  0  0  0
   42.6043  -18.6746  -43.1649 H   0  0  0  0  0  0  0  0  0  0  0  0
   41.2515  -18.0389  -42.3267 H   0  0  0  0  0  0  0  0  0  0  0  0
   40.5501  -18.8475  -39.8532 H   0  0  0  0  0  0  0  0  0  0  0  0
   39.7765  -18.3041  -41.4723 H   0  0  0  0  0  0  0  0  0  0  0  0
   39.2011  -20.1884  -41.8033 H   0  0  0  0  0  0  0  0  0  0  0  0
   40.1741  -20.7568  -40.3045 H   0  0  0  0  0  0  0  0  0  0  0  0
   39.5833  -22.5605  -42.4577 H   0  0  0  0  0  0  0  0  0  0  0  0
   41.0917  -22.5883  -43.5001 H   0  0  0  0  0  0  0  0  0  0  0  0
   41.0617  -23.2939  -40.5655 H   0  0  0  0  0  0  0  0  0  0  0  0
   40.8625  -24.4861  -41.9351 H   0  0  0  0  0  0  0  0  0  0  0  0
   42.7528  -24.6735  -41.3980 H   0  0  0  0  0  0  0  0  0  0  0  0
   43.2177  -25.0915  -43.1504 H   0  0  0  0  0  0  0  0  0  0  0  0
   43.2917  -23.4137  -43.7511 H   0  0  0  0  0  0  0  0  0  0  0  0
   45.2544  -24.9643  -42.6398 H   0  0  0  0  0  0  0  0  0  0  0  0
   45.0026  -22.5183  -41.6955 H   0  0  0  0  0  0  0  0  0  0  0  0
   43.6898  -24.3410  -40.3947 H   0  0  0  0  0  0  0  0  0  0  0  0
   43.7179  -21.7687  -39.7369 H   0  0  0  0  0  0  0  0  0  0  0  0
   42.7523  -22.5980  -37.7904 H   0  0  0  0  0  0  0  0  0  0  0  0
   44.9079  -21.5995  -38.4556 H   0  0  0  0  0  0  0  0  0  0  0  0
   46.0108  -23.9038  -38.9403 H   0  0  0  0  0  0  0  0  0  0  0  0
   46.6149  -24.2376  -40.5631 H   0  0  0  0  0  0  0  0  0  0  0  0
   46.9798  -22.7037  -37.5953 H   0  0  0  0  0  0  0  0  0  0  0  0
   47.8820  -23.3952  -38.8349 H   0  0  0  0  0  0  0  0  0  0  0  0
   42.5433  -16.8529  -40.1362 H   0  0  0  0  0  0  0  0  0  0  0  0
   43.8873  -16.5001  -40.7627 H   0  0  0  0  0  0  0  0  0  0  0  0
   40.5354  -16.1091  -41.3805 H   0  0  0  0  0  0  0  0  0  0  0  0
   42.6985  -14.6244  -40.2266 H   0  0  0  0  0  0  0  0  0  0  0  0
   41.3671  -12.7735  -41.4096 H   0  0  0  0  0  0  0  0  0  0  0  0
   42.0469  -14.0749  -42.4763 H   0  0  0  0  0  0  0  0  0  0  0  0
   39.8746  -15.1820  -42.5274 H   0  0  0  0  0  0  0  0  0  0  0  0
   39.2042  -13.8493  -41.4676 H   0  0  0  0  0  0  0  0  0  0  0  0
   40.6002  -13.4175  -43.8528 H   0  0  0  0  0  0  0  0  0  0  0  0
   38.5549  -14.6356  -44.2060 H   0  0  0  0  0  0  0  0  0  0  0  0
   39.7340  -11.7606  -42.4757 H   0  0  0  0  0  0  0  0  0  0  0  0
   40.1702  -13.6390  -39.9766 H   0  0  0  0  0  0  0  0  0  0  0  0
   39.7721  -14.8679  -37.9043 H   0  0  0  0  0  0  0  0  0  0  0  0
   41.1431  -13.2381  -37.7869 H   0  0  0  0  0  0  0  0  0  0  0  0
    7.2991   -2.1721  -19.5628 H   0  0  0  0  0  0  0  0  0  0  0  0
    7.1427   -2.1232  -17.7561 H   0  0  0  0  0  0  0  0  0  0  0  0
    5.5048   -1.1992  -17.8112 H   0  0  0  0  0  0  0  0  0  0  0  0
    6.0823   -3.8023  -17.3404 H   0  0  0  0  0  0  0  0  0  0  0  0
    4.5097   -2.7787  -17.4752 H   0  0  0  0  0  0  0  0  0  0  0  0
    3.9929   -3.3986  -18.9795 H   0  0  0  0  0  0  0  0  0  0  0  0
    5.6939   -4.3480  -20.8338 H   0  0  0  0  0  0  0  0  0  0  0  0
    4.1354   -3.3107  -20.6854 H   0  0  0  0  0  0  0  0  0  0  0  0
    5.1775   -1.6972  -21.1532 H   0  0  0  0  0  0  0  0  0  0  0  0
    6.7637   -2.7105  -21.0973 H   0  0  0  0  0  0  0  0  0  0  0  0
    6.5162    0.3865  -20.3701 H   0  0  0  0  0  0  0  0  0  0  0  0
    7.4399    0.1163  -18.8256 H   0  0  0  0  0  0  0  0  0  0  0  0
    8.2049   -1.2381  -21.4226 H   0  0  0  0  0  0  0  0  0  0  0  0
    8.7970    0.4164  -20.9524 H   0  0  0  0  0  0  0  0  0  0  0  0
   10.2865   -0.6353  -20.3277 H   0  0  0  0  0  0  0  0  0  0  0  0
   10.4980    0.3458  -18.7612 H   0  0  0  0  0  0  0  0  0  0  0  0
    9.2777   -0.5716  -17.8000 H   0  0  0  0  0  0  0  0  0  0  0  0
   11.9505   -0.9587  -18.0351 H   0  0  0  0  0  0  0  0  0  0  0  0
   10.3762   -3.0468  -18.3882 H   0  0  0  0  0  0  0  0  0  0  0  0
   10.9679   -1.7783  -20.5757 H   0  0  0  0  0  0  0  0  0  0  0  0
    9.4483   -3.9674  -20.4598 H   0  0  0  0  0  0  0  0  0  0  0  0
    8.5087   -3.3840  -21.7221 H   0  0  0  0  0  0  0  0  0  0  0  0
   10.5120   -5.3002  -20.8457 H   0  0  0  0  0  0  0  0  0  0  0  0
   12.6982   -3.9522  -20.4183 H   0  0  0  0  0  0  0  0  0  0  0  0
   12.9253   -3.1620  -18.8820 H   0  0  0  0  0  0  0  0  0  0  0  0
   12.9956   -5.7535  -18.7235 H   0  0  0  0  0  0  0  0  0  0  0  0
   12.4304   -6.3881  -20.1750 H   0  0  0  0  0  0  0  0  0  0  0  0
    3.5365   -4.6184  -17.9761 H   0  0  0  0  0  0  0  0  0  0  0  0
    2.3796   -5.5991  -18.7621 H   0  0  0  0  0  0  0  0  0  0  0  0
    5.4603   -6.3304  -17.9144 H   0  0  0  0  0  0  0  0  0  0  0  0
    2.6738   -6.9925  -17.4475 H   0  0  0  0  0  0  0  0  0  0  0  0
    4.3605   -8.0028  -19.2067 H   0  0  0  0  0  0  0  0  0  0  0  0
    5.1172   -8.7838  -17.7836 H   0  0  0  0  0  0  0  0  0  0  0  0
    2.6307   -9.4273  -17.1687 H   0  0  0  0  0  0  0  0  0  0  0  0
    2.3673   -9.1129  -18.9589 H   0  0  0  0  0  0  0  0  0  0  0  0
    4.3814  -10.7065  -17.8144 H   0  0  0  0  0  0  0  0  0  0  0  0
    3.1917  -11.5775  -16.8761 H   0  0  0  0  0  0  0  0  0  0  0  0
    5.2363  -11.1897  -19.1080 H   0  0  0  0  0  0  0  0  0  0  0  0
    4.5041   -8.4335  -16.1704 H   0  0  0  0  0  0  0  0  0  0  0  0
    5.0647   -7.0953  -14.4139 H   0  0  0  0  0  0  0  0  0  0  0  0
    3.3605   -8.0628  -14.2528 H   0  0  0  0  0  0  0  0  0  0  0  0
   29.9513  -56.6382  -26.1419 H   0  0  0  0  0  0  0  0  0  0  0  0
   30.7012  -55.8607  -24.6860 H   0  0  0  0  0  0  0  0  0  0  0  0
   29.4212  -54.4655  -24.6507 H   0  0  0  0  0  0  0  0  0  0  0  0
   29.6882  -56.7163  -23.1264 H   0  0  0  0  0  0  0  0  0  0  0  0
   28.5141  -55.2707  -23.1621 H   0  0  0  0  0  0  0  0  0  0  0  0
   27.1873  -56.1026  -23.9406 H   0  0  0  0  0  0  0  0  0  0  0  0
   27.5162  -58.2791  -25.4897 H   0  0  0  0  0  0  0  0  0  0  0  0
   26.4869  -56.7099  -25.3842 H   0  0  0  0  0  0  0  0  0  0  0  0
   27.4642  -55.9911  -26.9504 H   0  0  0  0  0  0  0  0  0  0  0  0
   28.6419  -57.4548  -26.8965 H   0  0  0  0  0  0  0  0  0  0  0  0
   31.0441  -54.7859  -26.8280 H   0  0  0  0  0  0  0  0  0  0  0  0
   30.2054  -55.9094  -28.0098 H   0  0  0  0  0  0  0  0  0  0  0  0
   29.1123  -53.2213  -27.1417 H   0  0  0  0  0  0  0  0  0  0  0  0
   30.1084  -53.5236  -28.6375 H   0  0  0  0  0  0  0  0  0  0  0  0
   28.2498  -53.4530  -29.3126 H   0  0  0  0  0  0  0  0  0  0  0  0
   28.6798  -54.6772  -30.6357 H   0  0  0  0  0  0  0  0  0  0  0  0
   28.5143  -56.1403  -29.6212 H   0  0  0  0  0  0  0  0  0  0  0  0
   26.6608  -54.8764  -31.1645 H   0  0  0  0  0  0  0  0  0  0  0  0
   25.9132  -55.4456  -28.7083 H   0  0  0  0  0  0  0  0  0  0  0  0
   26.9455  -53.0802  -28.9963 H   0  0  0  0  0  0  0  0  0  0  0  0
   26.0761  -54.0562  -26.6845 H   0  0  0  0  0  0  0  0  0  0  0  0
   26.5014  -52.8673  -25.5387 H   0  0  0  0  0  0  0  0  0  0  0  0
   24.4484  -53.4621  -26.4755 H   0  0  0  0  0  0  0  0  0  0  0  0
   24.1831  -52.7544  -28.9671 H   0  0  0  0  0  0  0  0  0  0  0  0
   24.4058  -53.9743  -30.2218 H   0  0  0  0  0  0  0  0  0  0  0  0
   22.3743  -53.4592  -27.3948 H   0  0  0  0  0  0  0  0  0  0  0  0
   22.4872  -52.6257  -28.8513 H   0  0  0  0  0  0  0  0  0  0  0  0
   26.4527  -56.7908  -22.8191 H   0  0  0  0  0  0  0  0  0  0  0  0
   25.7933  -58.7002  -22.3224 H   0  0  0  0  0  0  0  0  0  0  0  0
   28.5700  -57.9551  -21.6844 H   0  0  0  0  0  0  0  0  0  0  0  0
   25.8650  -58.2643  -20.8002 H   0  0  0  0  0  0  0  0  0  0  0  0
   27.0284  -60.0116  -19.3662 H   0  0  0  0  0  0  0  0  0  0  0  0
   27.1882  -60.2423  -21.1567 H   0  0  0  0  0  0  0  0  0  0  0  0
   29.4130  -59.1966  -21.0840 H   0  0  0  0  0  0  0  0  0  0  0  0
   29.2387  -59.0488  -19.2711 H   0  0  0  0  0  0  0  0  0  0  0  0
   30.0968  -60.6679  -19.0832 H   0  0  0  0  0  0  0  0  0  0  0  0
   29.0783  -61.6615  -18.3202 H   0  0  0  0  0  0  0  0  0  0  0  0
   31.3581  -61.4095  -19.8356 H   0  0  0  0  0  0  0  0  0  0  0  0
   27.7423  -58.1435  -18.8612 H   0  0  0  0  0  0  0  0  0  0  0  0
   28.2011  -56.3387  -18.2627 H   0  0  0  0  0  0  0  0  0  0  0  0
   26.7461  -57.4762  -17.4856 H   0  0  0  0  0  0  0  0  0  0  0  0
   49.0599  -41.7073   13.5940 H   0  0  0  0  0  0  0  0  0  0  0  0
   50.1041  -42.5949   12.4275 H   0  0  0  0  0  0  0  0  0  0  0  0
   48.9074  -42.3359   10.9922 H   0  0  0  0  0  0  0  0  0  0  0  0
   51.2663  -41.1446   11.6147 H   0  0  0  0  0  0  0  0  0  0  0  0
   49.9900  -40.9764   10.2429 H   0  0  0  0  0  0  0  0  0  0  0  0
   49.2889  -39.5096   10.7915 H   0  0  0  0  0  0  0  0  0  0  0  0
   49.4399  -38.7628   13.3781 H   0  0  0  0  0  0  0  0  0  0  0  0
   48.2664  -38.7057   11.8977 H   0  0  0  0  0  0  0  0  0  0  0  0
   47.1207  -40.0412   12.7616 H   0  0  0  0  0  0  0  0  0  0  0  0
   48.3790  -40.2345   14.1416 H   0  0  0  0  0  0  0  0  0  0  0  0
   48.1748  -43.4248   13.8453 H   0  0  0  0  0  0  0  0  0  0  0  0
   46.8305  -42.2008   14.0518 H   0  0  0  0  0  0  0  0  0  0  0  0
   47.2666  -43.6769   11.4569 H   0  0  0  0  0  0  0  0  0  0  0  0
   46.2776  -44.3505   12.8350 H   0  0  0  0  0  0  0  0  0  0  0  0
   44.8688  -43.5797   11.7555 H   0  0  0  0  0  0  0  0  0  0  0  0
   43.9338  -42.9563   13.2362 H   0  0  0  0  0  0  0  0  0  0  0  0
   44.8380  -41.4052   13.3911 H   0  0  0  0  0  0  0  0  0  0  0  0
   42.5674  -41.9619   12.0459 H   0  0  0  0  0  0  0  0  0  0  0  0
   44.4571  -40.6928   10.7370 H   0  0  0  0  0  0  0  0  0  0  0  0
   44.5409  -43.2766   10.4891 H   0  0  0  0  0  0  0  0  0  0  0  0
   46.2376  -41.6042    9.3149 H   0  0  0  0  0  0  0  0  0  0  0  0
   47.1382  -43.3988    9.9468 H   0  0  0  0  0  0  0  0  0  0  0  0
   45.6476  -41.3897    7.6810 H   0  0  0  0  0  0  0  0  0  0  0  0
   43.2617  -42.2776    8.2180 H   0  0  0  0  0  0  0  0  0  0  0  0
   42.3462  -41.5685    9.5243 H   0  0  0  0  0  0  0  0  0  0  0  0
   42.3933  -40.2365    7.5533 H   0  0  0  0  0  0  0  0  0  0  0  0
   43.8231  -40.2754    6.6683 H   0  0  0  0  0  0  0  0  0  0  0  0
   51.1154  -38.1560   12.0772 H   0  0  0  0  0  0  0  0  0  0  0  0
   52.5303  -38.8106   11.6995 H   0  0  0  0  0  0  0  0  0  0  0  0
   49.5994  -37.4619   10.0895 H   0  0  0  0  0  0  0  0  0  0  0  0
   52.1125  -36.1083   10.6705 H   0  0  0  0  0  0  0  0  0  0  0  0
   50.6899  -37.2044    8.4734 H   0  0  0  0  0  0  0  0  0  0  0  0
   50.4610  -35.3746    8.4132 H   0  0  0  0  0  0  0  0  0  0  0  0
   53.1535  -35.6370    8.8213 H   0  0  0  0  0  0  0  0  0  0  0  0
   52.7505  -37.0210    7.6981 H   0  0  0  0  0  0  0  0  0  0  0  0
   53.2897  -35.5916    6.4565 H   0  0  0  0  0  0  0  0  0  0  0  0
   50.8728  -35.7657    6.1408 H   0  0  0  0  0  0  0  0  0  0  0  0
   53.2218  -33.7615    7.8771 H   0  0  0  0  0  0  0  0  0  0  0  0
   50.0993  -34.6583    9.6807 H   0  0  0  0  0  0  0  0  0  0  0  0
   48.9681  -34.9991   11.9582 H   0  0  0  0  0  0  0  0  0  0  0  0
   50.9997  -33.4985   11.7157 H   0  0  0  0  0  0  0  0  0  0  0  0
  1  2  1  0
  2  3  1  0
  3  4  1  0
  4  5  1  0
  1  6  1  0
  5  6  1  0
  1  7  1  0
  7  8  1  0
  8  9  1  0
  9 10  1  0
 10 11  1  0
 11 12  1  0
  9 13  1  0
 12 13  1  0
 13 14  1  0
 14 15  1  0
 14 16  1  0
 16 17  1  0
 12 18  1  0
 17 18  1  0
 17 19  1  0
  4 20  1  0
 20 21  1  0
 20 22  1  0
 22 23  1  0
 23 24  1  0
 24 25  1  0
 25 26  1  0
 26 27  1  0
 26 28  1  0
 23 29  1  0
 29 30  1  0
 29 31  1  0
 32 33  1  0
 33 34  1  0
 34 35  1  0
 35 36  1  0
 32 37  1  0
 36 37  1  0
 32 38  1  0
 38 39  1  0
 39 40  1  0
 40 41  1  0
 41 42  1  0
 42 43  1  0
 40 44  1  0
 43 44  1  0
 44 45  1  0
 45 46  1  0
 45 47  1  0
 47 48  1  0
 43 49  1  0
 48 49  1  0
 48 50  1  0
 35 51  1  0
 51 52  1  0
 51 53  1  0
 53 54  1  0
 54 55  1  0
 55 56  1  0
 56 57  1  0
 57 58  1  0
 57 59  1  0
 54 60  1  0
 60 61  1  0
 60 62  1  0
 63 64  1  0
 64 65  1  0
 65 66  1  0
 66 67  1  0
 63 68  1  0
 67 68  1  0
 63 69  1  0
 69 70  1  0
 70 71  1  0
 71 72  1  0
 72 73  1  0
 73 74  1  0
 71 75  1  0
 74 75  1  0
 75 76  1  0
 76 77  1  0
 76 78  1  0
 78 79  1  0
 74 80  1  0
 79 80  1  0
 79 81  1  0
 66 82  1  0
 82 83  1  0
 82 84  1  0
 84 85  1  0
 85 86  1  0
 86 87  1  0
 87 88  1  0
 88 89  1  0
 88 90  1  0
 85 91  1  0
 91 92  1  0
 91 93  1  0
 94 95  1  0
 95 96  1  0
 96 97  1  0
 97 98  1  0
 94 99  1  0
 98 99  1  0
 94100  1  0
100101  1  0
101102  1  0
102103  1  0
103104  1  0
104105  1  0
102106  1  0
105106  1  0
106107  1  0
107108  1  0
107109  1  0
109110  1  0
105111  1  0
110111  1  0
110112  1  0
 97113  1  0
113114  1  0
113115  1  0
115116  1  0
116117  1  0
117118  1  0
118119  1  0
119120  1  0
119121  1  0
116122  1  0
122123  1  0
122124  1  0
  1125  1  0
  2126  1  0
  2127  1  0
  3128  1  0
  3129  1  0
  4130  1  1
  5131  1  0
  5132  1  0
  6133  1  0
  6134  1  0
  7135  1  0
  7136  1  0
  8137  1  0
  8138  1  0
  9139  1  0
 10140  1  0
 10141  1  0
 11142  1  0
 12143  1  0
 13144  1  0
 14145  1  0
 15146  1  0
 16147  1  0
 17148  1  0
 18149  1  0
 19150  1  0
 19151  1  0
 20152  1  1
 21153  1  0
 22154  1  0
 23155  1  1
 24156  1  0
 24157  1  0
 25158  1  0
 25159  1  0
 26160  1  0
 27161  1  0
 28162  1  0
 29163  1  0
 30164  1  0
 31165  1  0
 32166  1  0
 33167  1  0
 33168  1  0
 34169  1  0
 34170  1  0
 35171  1  6
 36172  1  0
 36173  1  0
 37174  1  0
 37175  1  0
 38176  1  0
 38177  1  0
 39178  1  0
 39179  1  0
 40180  1  0
 41181  1  0
 41182  1  0
 42183  1  0
 43184  1  0
 44185  1  0
 45186  1  0
 46187  1  0
 47188  1  0
 48189  1  0
 49190  1  0
 50191  1  0
 50192  1  0
 51193  1  0
 52194  1  0
 53195  1  0
 54196  1  1
 55197  1  0
 55198  1  0
 56199  1  0
 56200  1  0
 57201  1  0
 58202  1  0
 59203  1  0
 60204  1  1
 61205  1  0
 62206  1  0
 63207  1  0
 64208  1  0
 64209  1  0
 65210  1  0
 65211  1  0
 66212  1  0
 67213  1  0
 67214  1  0
 68215  1  0
 68216  1  0
 69217  1  0
 69218  1  0
 70219  1  0
 70220  1  0
 71221  1  0
 72222  1  0
 72223  1  0
 73224  1  0
 74225  1  0
 75226  1  0
 76227  1  0
 77228  1  0
 78229  1  0
 79230  1  0
 80231  1  0
 81232  1  0
 81233  1  0
 82234  1  1
 83235  1  0
 84236  1  0
 85237  1  6
 86238  1  0
 86239  1  0
 87240  1  0
 87241  1  0
 88242  1  0
 89243  1  0
 90244  1  0
 91245  1  0
 92246  1  0
 93247  1  0
 94248  1  0
 95249  1  0
 95250  1  0
 96251  1  0
 96252  1  0
 97253  1  0
 98254  1  0
 98255  1  0
 99256  1  0
 99257  1  0
100258  1  0
100259  1  0
101260  1  0
101261  1  0
102262  1  0
103263  1  0
103264  1  0
104265  1  0
105266  1  0
106267  1  0
107268  1  0
108269  1  0
109270  1  0
110271  1  0
111272  1  0
112273  1  0
112274  1  0
113275  1  0
114276  1  0
115277  1  0
116278  1  1
117279  1  0
117280  1  0
118281  1  0
118282  1  0
119283  1  0
120284  1  0
121285  1  0
122286  1  1
123287  1  0
124288  1  0
M  END
>  <PDBID>  (1) 
3K2H

>  <PDB ID>  (1) 
3K2H

>  <Generic Name>  (1) 
Pemetrexed

>  <Brand Name>  (1) 
Act Pemetrexed#Alimta#Pemetrexed#Pemetrexed Disodium for Injection#Taro-pemetrexed

>  <DrugBank ID>  (1) 
DB00642

>  <ATC Codes>  (1) 
L01BA04

>  <Ligand ID>  (1) 
LYA

>  <Target Name>  (1) 
Thymidylate synthase

>  <UniProt ID>  (1) 
P04818

>  <PDB ID.1>  (1) 
3K2H

>  <Seq. Identity>  (1) 
56%

$$$$
