PDB_DB00558_95
     RDKit          3D

102102  0  0  0  0  0  0  0  0999 V2000
   66.3680  -26.3190  -12.8660 C   0  0  0  0  0  0  0  0  0  0  0  0
   66.1920  -27.2230  -12.0020 O   0  0  0  0  0  0  0  0  0  0  0  0
   65.7230  -25.2320  -12.8320 O   0  0  0  0  0  0  0  0  0  0  0  0
   67.3300  -26.5030  -13.8110 C   0  0  2  0  0  0  0  0  0  0  0  0
   66.9470  -26.0890  -15.2280 C   0  0  0  0  0  0  0  0  0  0  0  0
   67.9770  -26.6010  -16.1040 C   0  0  1  0  0  0  0  0  0  0  0  0
   67.8660  -27.9810  -16.2390 C   0  0  1  0  0  0  0  0  0  0  0  0
   69.1400  -28.5360  -16.9240 N   0  0  0  0  0  0  0  0  0  0  0  0
   69.0390  -29.0370  -18.2850 C   0  0  0  0  0  0  0  0  0  0  0  0
   67.9740  -29.0600  -18.8870 O   0  0  0  0  0  0  0  0  0  0  0  0
   70.2610  -29.5400  -18.9730 C   0  0  0  0  0  0  0  0  0  0  0  0
   67.5200  -28.6570  -15.0090 C   0  0  2  0  0  0  0  0  0  0  0  0
   67.8530  -27.9050  -13.8260 O   0  0  0  0  0  0  0  0  0  0  0  0
   67.9860  -30.1620  -14.9970 C   0  0  2  0  0  0  0  0  0  0  0  0
   66.9980  -31.0160  -15.6730 O   0  0  0  0  0  0  0  0  0  0  0  0
   68.4890  -30.6940  -13.5690 C   0  0  2  0  0  0  0  0  0  0  0  0
   69.7220  -30.1740  -13.2990 O   0  0  0  0  0  0  0  0  0  0  0  0
   68.5470  -32.1880  -13.4270 C   0  0  0  0  0  0  0  0  0  0  0  0
   69.5360  -32.8370  -14.1540 O   0  0  0  0  0  0  0  0  0  0  0  0
   67.7760  -25.9410  -17.4840 N   0  0  0  0  0  0  0  0  0  0  0  0
   68.7950  -25.9050  -18.4980 C   0  0  2  0  0  0  0  0  0  0  0  0
   70.0410  -25.6540  -18.1460 N   0  0  0  0  0  0  0  0  0  0  0  0
   68.4060  -25.7270  -19.7280 N   0  0  0  0  0  0  0  0  0  0  0  0
   66.2490   17.1680   -3.6140 C   0  0  0  0  0  0  0  0  0  0  0  0
   65.8990   18.0660   -2.7950 O   0  0  0  0  0  0  0  0  0  0  0  0
   65.7640   17.1330   -4.7860 O   0  0  0  0  0  0  0  0  0  0  0  0
   67.2010   16.2570   -3.2250 C   0  0  2  0  0  0  0  0  0  0  0  0
   66.9910   14.8230   -3.7160 C   0  0  0  0  0  0  0  0  0  0  0  0
   68.0000   13.9340   -3.1960 C   0  0  1  0  0  0  0  0  0  0  0  0
   68.0600   13.9240   -1.8050 C   0  0  1  0  0  0  0  0  0  0  0  0
   69.2720   13.0450   -1.3820 N   0  0  0  0  0  0  0  0  0  0  0  0
   69.0590   11.7530   -0.7730 C   0  0  0  0  0  0  0  0  0  0  0  0
   70.0010   11.0510   -0.4510 O   0  0  0  0  0  0  0  0  0  0  0  0
   67.6770   11.2600   -0.5450 C   0  0  0  0  0  0  0  0  0  0  0  0
   68.2190   15.2360   -1.2210 C   0  0  1  0  0  0  0  0  0  0  0  0
   67.3140   16.2100   -1.7510 O   0  0  0  0  0  0  0  0  0  0  0  0
   68.0150   15.2550    0.3430 C   0  0  2  0  0  0  0  0  0  0  0  0
   66.6850   14.8270    0.8130 O   0  0  0  0  0  0  0  0  0  0  0  0
   68.5160   16.6420    0.9520 C   0  0  2  0  0  0  0  0  0  0  0  0
   69.7530   16.9050    0.4380 O   0  0  0  0  0  0  0  0  0  0  0  0
   68.5800   16.6800    2.4410 C   0  0  0  0  0  0  0  0  0  0  0  0
   69.6480   16.0200    3.0410 O   0  0  0  0  0  0  0  0  0  0  0  0
   67.6810   12.5130   -3.7230 N   0  0  0  0  0  0  0  0  0  0  0  0
   68.7000   11.5140   -3.9580 C   0  0  2  0  0  0  0  0  0  0  0  0
   69.9700   11.8600   -4.0230 N   0  0  0  0  0  0  0  0  0  0  0  0
   68.3360   10.3130   -4.3150 N   0  0  0  0  0  0  0  0  0  0  0  0
   65.5824  -26.7655  -13.4932 H   0  0  0  0  0  0  0  0  0  0  0  0
   66.2680  -26.8324  -11.0955 H   0  0  0  0  0  0  0  0  0  0  0  0
   65.5675  -24.9699  -11.8901 H   0  0  0  0  0  0  0  0  0  0  0  0
   68.1236  -25.8114  -13.4917 H   0  0  0  0  0  0  0  0  0  0  0  0
   65.9714  -26.5195  -15.4980 H   0  0  0  0  0  0  0  0  0  0  0  0
   66.8646  -24.9953  -15.3117 H   0  0  0  0  0  0  0  0  0  0  0  0
   68.9702  -26.3747  -15.6888 H   0  0  0  0  0  0  0  0  0  0  0  0
   67.0084  -28.1961  -16.8935 H   0  0  0  0  0  0  0  0  0  0  0  0
   69.8356  -27.7764  -16.9314 H   0  0  0  0  0  0  0  0  0  0  0  0
   68.8422  -30.0478  -17.8983 H   0  0  0  0  0  0  0  0  0  0  0  0
   67.2277  -29.0761  -18.2368 H   0  0  0  0  0  0  0  0  0  0  0  0
   71.0046  -29.8461  -18.2224 H   0  0  0  0  0  0  0  0  0  0  0  0
   69.9984  -30.4032  -19.6023 H   0  0  0  0  0  0  0  0  0  0  0  0
   70.6822  -28.7421  -19.6023 H   0  0  0  0  0  0  0  0  0  0  0  0
   66.4216  -28.7062  -14.9772 H   0  0  0  0  0  0  0  0  0  0  0  0
   68.9086  -30.2226  -15.5929 H   0  0  0  0  0  0  0  0  0  0  0  0
   66.4517  -31.4882  -14.9958 H   0  0  0  0  0  0  0  0  0  0  0  0
   67.7310  -30.3534  -12.8482 H   0  0  0  0  0  0  0  0  0  0  0  0
   69.8500  -30.1200  -12.3188 H   0  0  0  0  0  0  0  0  0  0  0  0
   68.7077  -32.4176  -12.3633 H   0  0  0  0  0  0  0  0  0  0  0  0
   67.5940  -32.5584  -13.8326 H   0  0  0  0  0  0  0  0  0  0  0  0
   70.1797  -33.2594  -13.5316 H   0  0  0  0  0  0  0  0  0  0  0  0
   66.9697  -26.4190  -17.9109 H   0  0  0  0  0  0  0  0  0  0  0  0
   69.0174  -26.9778  -18.5958 H   0  0  0  0  0  0  0  0  0  0  0  0
   70.1113  -25.6398  -17.1185 H   0  0  0  0  0  0  0  0  0  0  0  0
   70.6585  -26.3875  -18.5223 H   0  0  0  0  0  0  0  0  0  0  0  0
   67.4694  -25.2984  -19.7333 H   0  0  0  0  0  0  0  0  0  0  0  0
   69.0704  -25.1062  -20.2118 H   0  0  0  0  0  0  0  0  0  0  0  0
   65.4321   16.5238   -3.2567 H   0  0  0  0  0  0  0  0  0  0  0  0
   66.0272   17.7372   -1.8700 H   0  0  0  0  0  0  0  0  0  0  0  0
   64.7780   17.0618   -4.7331 H   0  0  0  0  0  0  0  0  0  0  0  0
   68.1190   16.6294   -3.7031 H   0  0  0  0  0  0  0  0  0  0  0  0
   66.0017   14.4733   -3.3858 H   0  0  0  0  0  0  0  0  0  0  0  0
   67.0606   14.8201   -4.8138 H   0  0  0  0  0  0  0  0  0  0  0  0
   68.9851   14.2858   -3.5364 H   0  0  0  0  0  0  0  0  0  0  0  0
   67.1015   13.5272   -1.4391 H   0  0  0  0  0  0  0  0  0  0  0  0
   69.8307   12.8829   -2.2320 H   0  0  0  0  0  0  0  0  0  0  0  0
   69.0506   11.2851   -1.7685 H   0  0  0  0  0  0  0  0  0  0  0  0
   70.0584   11.0083    0.5364 H   0  0  0  0  0  0  0  0  0  0  0  0
   67.4857   11.1918    0.5361 H   0  0  0  0  0  0  0  0  0  0  0  0
   66.9590   11.9574   -1.0011 H   0  0  0  0  0  0  0  0  0  0  0  0
   67.5625   10.2656   -1.0011 H   0  0  0  0  0  0  0  0  0  0  0  0
   69.2570   15.4926   -1.4795 H   0  0  0  0  0  0  0  0  0  0  0  0
   68.6578   14.4609    0.7506 H   0  0  0  0  0  0  0  0  0  0  0  0
   66.6706   14.8224    1.8029 H   0  0  0  0  0  0  0  0  0  0  0  0
   67.7735   17.4033    0.6708 H   0  0  0  0  0  0  0  0  0  0  0  0
   70.3958   17.0417    1.1784 H   0  0  0  0  0  0  0  0  0  0  0  0
   68.6285   17.7361    2.7450 H   0  0  0  0  0  0  0  0  0  0  0  0
   67.6824   16.1426    2.7810 H   0  0  0  0  0  0  0  0  0  0  0  0
   69.5589   16.0751    4.0254 H   0  0  0  0  0  0  0  0  0  0  0  0
   67.0279   12.0980   -3.0432 H   0  0  0  0  0  0  0  0  0  0  0  0
   68.8328   11.2952   -2.8882 H   0  0  0  0  0  0  0  0  0  0  0  0
   70.3471   11.9627   -3.0700 H   0  0  0  0  0  0  0  0  0  0  0  0
   70.4988   11.1324   -4.5249 H   0  0  0  0  0  0  0  0  0  0  0  0
   68.1631    9.7427   -3.4749 H   0  0  0  0  0  0  0  0  0  0  0  0
   67.4739   10.3680   -4.8760 H   0  0  0  0  0  0  0  0  0  0  0  0
  1  2  1  0
  1  3  1  0
  1  4  1  0
  4  5  1  0
  5  6  1  0
  6  7  1  0
  7  8  1  0
  8  9  1  0
  9 10  1  0
  9 11  1  0
  7 12  1  0
  4 13  1  0
 12 13  1  0
 12 14  1  0
 14 15  1  0
 14 16  1  0
 16 17  1  0
 16 18  1  0
 18 19  1  0
  6 20  1  0
 20 21  1  0
 21 22  1  0
 21 23  1  0
 24 25  1  0
 24 26  1  0
 24 27  1  0
 27 28  1  0
 28 29  1  0
 29 30  1  0
 30 31  1  0
 31 32  1  0
 32 33  1  0
 32 34  1  0
 30 35  1  0
 27 36  1  0
 35 36  1  0
 35 37  1  0
 37 38  1  0
 37 39  1  0
 39 40  1  0
 39 41  1  0
 41 42  1  0
 29 43  1  0
 43 44  1  0
 44 45  1  0
 44 46  1  0
  1 47  1  0
  2 48  1  0
  3 49  1  0
  4 50  1  1
  5 51  1  0
  5 52  1  0
  6 53  1  1
  7 54  1  6
  8 55  1  0
  9 56  1  0
 10 57  1  0
 11 58  1  0
 11 59  1  0
 11 60  1  0
 12 61  1  6
 14 62  1  6
 15 63  1  0
 16 64  1  1
 17 65  1  0
 18 66  1  0
 18 67  1  0
 19 68  1  0
 20 69  1  0
 21 70  1  6
 22 71  1  0
 22 72  1  0
 23 73  1  0
 23 74  1  0
 24 75  1  0
 25 76  1  0
 26 77  1  0
 27 78  1  6
 28 79  1  0
 28 80  1  0
 29 81  1  6
 30 82  1  1
 31 83  1  0
 32 84  1  0
 33 85  1  0
 34 86  1  0
 34 87  1  0
 34 88  1  0
 35 89  1  1
 37 90  1  1
 38 91  1  0
 39 92  1  6
 40 93  1  0
 41 94  1  0
 41 95  1  0
 42 96  1  0
 43 97  1  0
 44 98  1  1
 45 99  1  0
 45100  1  0
 46101  1  0
 46102  1  0
M  END
>  <PDBID>  (1) 
4CPN

>  <PDB ID>  (1) 
4CPN

>  <Generic Name>  (1) 
Zanamivir

>  <Brand Name>  (1) 
Relenza

>  <DrugBank ID>  (1) 
DB00558

>  <ATC Codes>  (1) 
J05AH01

>  <Ligand ID>  (1) 
ZMR

>  <Target Name>  (1) 
Neuraminidase

>  <UniProt ID>  (1) 
P27907

>  <PDB ID.1>  (1) 
4CPN

>  <Seq. Identity>  (1) 
86%

$$$$
