PDB_DB01197_96
     RDKit          3D

 29 29  0  0  0  0  0  0  0  0999 V2000
   38.6210    7.5690   74.9730 O   0  0  0  0  0  0  0  0  0  0  0  0
   39.5070    8.4620   75.1580 C   0  0  0  0  0  0  0  0  0  0  0  0
   39.7100    9.5630   74.1240 C   0  0  1  0  0  0  0  0  0  0  0  0
   39.9330    8.8600   72.7810 C   0  0  0  0  0  0  0  0  0  0  0  0
   40.1940    9.9940   71.4170 S   0  0  0  0  0  0  0  0  0  0  0  0
   38.5130   10.5180   74.1490 C   0  0  0  0  0  0  0  0  0  0  0  0
   40.2710    8.4250   76.2570 N   0  0  0  0  0  0  0  0  0  0  0  0
   40.1250    7.3500   77.2970 C   0  0  2  0  0  0  0  0  0  0  0  0
   38.7020    7.2820   77.8910 C   0  0  0  0  0  0  0  0  0  0  0  0
   37.9300    8.2150   77.8630 O   0  0  0  0  0  0  0  0  0  0  0  0
   38.3750    6.1490   78.4090 O   0  0  0  0  0  0  0  0  0  0  0  0
   41.3630    9.3900   76.6340 C   0  0  0  0  0  0  0  0  0  0  0  0
   41.9160    8.8950   77.9170 C   0  0  0  0  0  0  0  0  0  0  0  0
   41.1650    7.6640   78.3410 C   0  0  0  0  0  0  0  0  0  0  0  0
   40.5847   10.1972   74.3306 H   0  0  0  0  0  0  0  0  0  0  0  0
   40.8174    8.2119   72.8695 H   0  0  0  0  0  0  0  0  0  0  0  0
   39.0194    8.2894   72.5580 H   0  0  0  0  0  0  0  0  0  0  0  0
   40.4809   11.2404   71.9079 H   0  0  0  0  0  0  0  0  0  0  0  0
   38.2397   10.7361   75.1919 H   0  0  0  0  0  0  0  0  0  0  0  0
   38.7799   11.4540   73.6365 H   0  0  0  0  0  0  0  0  0  0  0  0
   37.6597   10.0498   73.6365 H   0  0  0  0  0  0  0  0  0  0  0  0
   40.2776    6.3523   76.8595 H   0  0  0  0  0  0  0  0  0  0  0  0
   37.0269    8.1223   78.2579 H   0  0  0  0  0  0  0  0  0  0  0  0
   42.1449    9.4046   75.8604 H   0  0  0  0  0  0  0  0  0  0  0  0
   40.9803   10.4170   76.7281 H   0  0  0  0  0  0  0  0  0  0  0  0
   42.9804    8.6495   77.7877 H   0  0  0  0  0  0  0  0  0  0  0  0
   41.8117    9.6733   78.6873 H   0  0  0  0  0  0  0  0  0  0  0  0
   40.6751    7.8443   79.3092 H   0  0  0  0  0  0  0  0  0  0  0  0
   41.8600    6.8177   78.4446 H   0  0  0  0  0  0  0  0  0  0  0  0
  1  2  2  0
  2  3  1  0
  3  4  1  0
  4  5  1  0
  3  6  1  0
  2  7  1  0
  7  8  1  0
  8  9  1  0
  9 10  1  0
  9 11  2  0
  7 12  1  0
 12 13  1  0
  8 14  1  0
 13 14  1  0
  3 15  1  1
  4 16  1  0
  4 17  1  0
  5 18  1  0
  6 19  1  0
  6 20  1  0
  6 21  1  0
  8 22  1  6
 10 23  1  0
 12 24  1  0
 12 25  1  0
 13 26  1  0
 13 27  1  0
 14 28  1  0
 14 29  1  0
M  END
$$$$
