PDB_DB01199_97
     RDKit          3D

 86 92  0  0  0  0  0  0  0  0999 V2000
   32.1770  112.8200  100.4460 N   0  0  0  0  0  0  0  0  0  0  0  0
   31.5490  111.9240  101.3680 C   0  0  0  0  0  0  0  0  0  0  0  0
   31.8700  110.4720  101.1840 C   0  0  0  0  0  0  0  0  0  0  0  0
   33.1600  110.1620  100.4910 C   0  0  0  0  0  0  0  0  0  0  0  0
   34.0570  111.2090  100.1480 C   0  0  0  0  0  0  0  0  0  0  0  0
   33.6890  112.6340  100.4610 C   0  0  2  0  0  0  0  0  0  0  0  0
   33.4990  108.8170  100.1780 C   0  0  0  0  0  0  0  0  0  0  0  0
   34.7220  108.5180   99.5130 C   0  0  0  0  0  0  0  0  0  0  0  0
   35.6160  109.5720   99.1710 C   0  0  0  0  0  0  0  0  0  0  0  0
   35.2770  110.9180   99.4880 C   0  0  0  0  0  0  0  0  0  0  0  0
   36.8440  109.2620   98.5140 O   0  0  0  0  0  0  0  0  0  0  0  0
   37.3790  110.4190   97.8770 C   0  0  0  0  0  0  0  0  0  0  0  0
   37.0800  110.6680   96.5190 C   0  0  0  0  0  0  0  0  0  0  0  0
   37.5730  111.7900   95.8980 C   0  0  0  0  0  0  0  0  0  0  0  0
   38.3810  112.6860   96.6230 C   0  0  0  0  0  0  0  0  0  0  0  0
   38.6840  112.4370   97.9610 C   0  0  0  0  0  0  0  0  0  0  0  0
   38.1840  111.3120   98.5990 C   0  0  0  0  0  0  0  0  0  0  0  0
   39.5380  113.4920   98.7190 C   0  0  0  0  0  0  0  0  0  0  0  0
   40.7450  113.0130   99.5820 C   0  0  1  0  0  0  0  0  0  0  0  0
   41.8880  112.4500   98.9030 N   0  0  0  0  0  0  0  0  0  0  0  0
   42.7500  113.3700   98.1890 C   0  0  0  0  0  0  0  0  0  0  0  0
   42.4620  114.8520   98.2640 C   0  0  0  0  0  0  0  0  0  0  0  0
   41.9090  115.2790   99.5780 C   0  0  0  0  0  0  0  0  0  0  0  0
   41.1030  114.3530  100.2880 C   0  0  0  0  0  0  0  0  0  0  0  0
   42.1940  116.5620  100.1250 C   0  0  0  0  0  0  0  0  0  0  0  0
   41.6700  116.9100  101.3600 C   0  0  0  0  0  0  0  0  0  0  0  0
   40.8420  115.9750  102.0760 C   0  0  0  0  0  0  0  0  0  0  0  0
   40.5470  114.6980  101.5080 C   0  0  0  0  0  0  0  0  0  0  0  0
   39.8360  113.7200  102.2350 O   0  0  0  0  0  0  0  0  0  0  0  0
   38.4510  113.6380  102.0690 C   0  0  0  0  0  0  0  0  0  0  0  0
   37.8440  112.3780  102.2850 C   0  0  0  0  0  0  0  0  0  0  0  0
   36.4620  112.2400  102.1950 C   0  0  0  0  0  0  0  0  0  0  0  0
   35.6840  113.3370  101.8930 C   0  0  0  0  0  0  0  0  0  0  0  0
   36.2870  114.6160  101.6870 C   0  0  0  0  0  0  0  0  0  0  0  0
   37.6620  114.7610  101.7820 C   0  0  0  0  0  0  0  0  0  0  0  0
   34.1830  113.1740  101.8240 C   0  0  0  0  0  0  0  0  0  0  0  0
   35.0720  107.1850   99.2180 O   0  0  0  0  0  0  0  0  0  0  0  0
   34.0890  106.2130   98.9150 C   0  0  0  0  0  0  0  0  0  0  0  0
   36.2730  109.7980   95.8100 O   0  0  0  0  0  0  0  0  0  0  0  0
   41.9460  118.1590  101.9000 O   0  0  0  0  0  0  0  0  0  0  0  0
   41.9160  119.2770  101.1100 C   0  0  0  0  0  0  0  0  0  0  0  0
   40.3170  116.3250  103.3110 O   0  0  0  0  0  0  0  0  0  0  0  0
   31.3470  114.0250  100.5370 C   0  0  0  0  0  0  0  0  0  0  0  0
   41.4580  111.3820   97.9800 C   0  0  0  0  0  0  0  0  0  0  0  0
   42.7080  111.7720   99.9380 C   0  0  0  0  0  0  0  0  0  0  0  0
   31.8583  112.2124  102.3834 H   0  0  0  0  0  0  0  0  0  0  0  0
   30.4679  112.0173  101.1875 H   0  0  0  0  0  0  0  0  0  0  0  0
   31.9044  110.0072  102.1804 H   0  0  0  0  0  0  0  0  0  0  0  0
   31.0811  110.0776  100.5267 H   0  0  0  0  0  0  0  0  0  0  0  0
   34.2004  113.2018   99.6698 H   0  0  0  0  0  0  0  0  0  0  0  0
   32.8121  108.0024  100.4513 H   0  0  0  0  0  0  0  0  0  0  0  0
   35.9639  111.7343   99.2199 H   0  0  0  0  0  0  0  0  0  0  0  0
   37.3379  111.9868   94.8416 H   0  0  0  0  0  0  0  0  0  0  0  0
   38.7755  113.5875   96.1314 H   0  0  0  0  0  0  0  0  0  0  0  0
   38.4157  111.1225   99.6575 H   0  0  0  0  0  0  0  0  0  0  0  0
   39.9373  114.1853   97.9641 H   0  0  0  0  0  0  0  0  0  0  0  0
   38.8395  113.9145   99.4563 H   0  0  0  0  0  0  0  0  0  0  0  0
   40.4716  112.1535  100.2117 H   0  0  0  0  0  0  0  0  0  0  0  0
   43.7699  113.2200   98.5729 H   0  0  0  0  0  0  0  0  0  0  0  0
   42.5818  113.1218   97.1307 H   0  0  0  0  0  0  0  0  0  0  0  0
   43.3994  115.3992   98.0854 H   0  0  0  0  0  0  0  0  0  0  0  0
   41.7002  115.0746   97.5024 H   0  0  0  0  0  0  0  0  0  0  0  0
   42.8257  117.2722   99.5714 H   0  0  0  0  0  0  0  0  0  0  0  0
   38.4671  111.5039  102.5251 H   0  0  0  0  0  0  0  0  0  0  0  0
   35.9926  111.2597  102.3642 H   0  0  0  0  0  0  0  0  0  0  0  0
   35.6583  115.4876  101.4524 H   0  0  0  0  0  0  0  0  0  0  0  0
   38.1291  115.7459  101.6339 H   0  0  0  0  0  0  0  0  0  0  0  0
   33.7167  114.1544  102.0011 H   0  0  0  0  0  0  0  0  0  0  0  0
   33.8995  112.4364  102.5892 H   0  0  0  0  0  0  0  0  0  0  0  0
   33.6764  105.8051   99.8495 H   0  0  0  0  0  0  0  0  0  0  0  0
   33.2818  106.6779   98.3300 H   0  0  0  0  0  0  0  0  0  0  0  0
   34.5448  105.4006   98.3300 H   0  0  0  0  0  0  0  0  0  0  0  0
   36.0671  109.9779   94.8585 H   0  0  0  0  0  0  0  0  0  0  0  0
   41.8919  120.1745  101.7455 H   0  0  0  0  0  0  0  0  0  0  0  0
   42.8138  119.3014  100.4749 H   0  0  0  0  0  0  0  0  0  0  0  0
   41.0182  119.2532  100.4749 H   0  0  0  0  0  0  0  0  0  0  0  0
   39.7472  115.6845  103.8062 H   0  0  0  0  0  0  0  0  0  0  0  0
   31.1759  114.2734  101.5949 H   0  0  0  0  0  0  0  0  0  0  0  0
   31.8608  114.8624  100.0422 H   0  0  0  0  0  0  0  0  0  0  0  0
   30.3815  113.8434  100.0422 H   0  0  0  0  0  0  0  0  0  0  0  0
   41.1089  110.5149   98.5598 H   0  0  0  0  0  0  0  0  0  0  0  0
   40.6391  111.7529   97.3461 H   0  0  0  0  0  0  0  0  0  0  0  0
   42.3054  111.0821   97.3461 H   0  0  0  0  0  0  0  0  0  0  0  0
   42.3532  112.0653  100.9371 H   0  0  0  0  0  0  0  0  0  0  0  0
   42.6169  110.6819   99.8220 H   0  0  0  0  0  0  0  0  0  0  0  0
   43.7615  112.0663   99.8220 H   0  0  0  0  0  0  0  0  0  0  0  0
  1  2  1  0
  2  3  1  0
  3  4  1  0
  4  5  2  0
  1  6  1  0
  5  6  1  0
  4  7  1  0
  7  8  2  0
  8  9  1  0
  5 10  1  0
  9 10  2  0
  9 11  1  0
 11 12  1  0
 12 13  2  0
 13 14  1  0
 14 15  2  0
 15 16  1  0
 12 17  1  0
 16 17  2  0
 16 18  1  0
 18 19  1  0
 19 20  1  0
 20 21  1  0
 21 22  1  0
 22 23  1  0
 19 24  1  0
 23 24  2  0
 23 25  1  0
 25 26  2  0
 26 27  1  0
 24 28  1  0
 27 28  2  0
 28 29  1  0
 29 30  1  0
 30 31  2  0
 31 32  1  0
 32 33  2  0
 33 34  1  0
 30 35  1  0
 34 35  2  0
  6 36  1  0
 33 36  1  0
  8 37  1  0
 37 38  1  0
 13 39  1  0
 26 40  1  0
 40 41  1  0
 27 42  1  0
  1 43  1  0
 20 44  1  0
 20 45  1  0
  2 46  1  0
  2 47  1  0
  3 48  1  0
  3 49  1  0
  6 50  1  6
  7 51  1  0
 10 52  1  0
 14 53  1  0
 15 54  1  0
 17 55  1  0
 18 56  1  0
 18 57  1  0
 19 58  1  1
 21 59  1  0
 21 60  1  0
 22 61  1  0
 22 62  1  0
 25 63  1  0
 31 64  1  0
 32 65  1  0
 34 66  1  0
 35 67  1  0
 36 68  1  0
 36 69  1  0
 38 70  1  0
 38 71  1  0
 38 72  1  0
 39 73  1  0
 41 74  1  0
 41 75  1  0
 41 76  1  0
 42 77  1  0
 43 78  1  0
 43 79  1  0
 43 80  1  0
 44 81  1  0
 44 82  1  0
 44 83  1  0
 45 84  1  0
 45 85  1  0
 45 86  1  0
M  CHG  1  20   1
M  END
$$$$
