PDB_DB01194_97
     RDKit          3D

 52 53  0  0  0  0  0  0  0  0999 V2000
    0.6630   37.8550   22.0150 C   0  0  0  0  0  0  0  0  0  0  0  0
    3.8590   35.6170   18.6050 C   0  0  0  0  0  0  0  0  0  0  0  0
    4.7060   35.8980   19.8680 C   0  0  1  0  0  0  0  0  0  0  0  0
    2.3400   35.3690   18.6830 C   0  0  2  0  0  0  0  0  0  0  0  0
    1.9010   35.0770   20.1330 C   0  0  0  0  0  0  0  0  0  0  0  0
    7.3100   35.9950   16.7560 S   0  0  0  0  0  4  0  0  0  0  0  0
    1.0710   39.0800   22.8340 C   0  0  0  0  0  0  0  0  0  0  0  0
    3.2840   32.3460   17.4210 C   0  0  0  0  0  0  0  0  0  0  0  0
    2.1310   32.8140   18.3230 C   0  0  0  0  0  0  0  0  0  0  0  0
    6.4210   36.2290   19.4930 S   0  0  0  0  0  0  0  0  0  0  0  0
    7.1250   34.9090   15.5060 N   0  0  0  0  0  0  0  0  0  0  0  0
    7.5270   37.3600   15.9770 O   0  0  0  0  0  0  0  0  0  0  0  0
    8.5510   35.4710   17.5840 O   0  0  0  0  0  0  0  0  0  0  0  0
    5.9270   35.8850   17.8310 C   0  0  0  0  0  0  0  0  0  0  0  0
    4.6580   35.6100   17.5270 C   0  0  0  0  0  0  0  0  0  0  0  0
    3.9340   35.9460   21.4910 S   0  0  2  0  0  4  0  0  0  0  0  0
    4.4310   37.2230   22.2880 O   0  0  0  0  0  0  0  0  0  0  0  0
    4.2010   34.6370   22.3620 O   0  0  0  0  0  0  0  0  0  0  0  0
    2.2460   36.0870   21.1820 N   0  0  0  0  0  0  0  0  0  0  0  0
    1.7690   34.2050   17.9020 N   0  0  0  0  0  0  0  0  0  0  0  0
    1.7530   37.4810   21.0310 C   0  0  0  0  0  0  0  0  0  0  0  0
    1.3040   38.6950   24.2040 O   0  0  0  0  0  0  0  0  0  0  0  0
    0.2150   38.2580   25.0580 C   0  0  0  0  0  0  0  0  0  0  0  0
    1.1760   34.2390   17.1340 H   0  0  0  0  0  0  0  0  0  0  0  0
    0.4848   37.0090   22.6951 H   0  0  0  0  0  0  0  0  0  0  0  0
   -0.2528   38.0936   21.4543 H   0  0  0  0  0  0  0  0  0  0  0  0
    4.0411   34.5386   18.7228 H   0  0  0  0  0  0  0  0  0  0  0  0
    4.9321   34.8250   19.9551 H   0  0  0  0  0  0  0  0  0  0  0  0
    1.9602   36.3040   18.2454 H   0  0  0  0  0  0  0  0  0  0  0  0
    0.8064   34.9685   20.1291 H   0  0  0  0  0  0  0  0  0  0  0  0
    2.4655   34.1769   20.4180 H   0  0  0  0  0  0  0  0  0  0  0  0
    1.9920   39.5103   22.4137 H   0  0  0  0  0  0  0  0  0  0  0  0
    0.2639   39.8265   22.7983 H   0  0  0  0  0  0  0  0  0  0  0  0
    4.1231   32.0054   18.0455 H   0  0  0  0  0  0  0  0  0  0  0  0
    2.9393   31.5166   16.7860 H   0  0  0  0  0  0  0  0  0  0  0  0
    3.6149   33.1810   16.7860 H   0  0  0  0  0  0  0  0  0  0  0  0
    1.2646   32.1471   18.2021 H   0  0  0  0  0  0  0  0  0  0  0  0
    2.4329   32.7945   19.3806 H   0  0  0  0  0  0  0  0  0  0  0  0
    6.9645   33.9670   15.8905 H   0  0  0  0  0  0  0  0  0  0  0  0
    6.3190   35.1855   14.9274 H   0  0  0  0  0  0  0  0  0  0  0  0
    7.6441   38.0965   16.6281 H   0  0  0  0  0  0  0  0  0  0  0  0
    8.3597   35.5518   18.5520 H   0  0  0  0  0  0  0  0  0  0  0  0
    6.1356   34.8167   17.9901 H   0  0  0  0  0  0  0  0  0  0  0  0
    4.6144   34.6141   17.0618 H   0  0  0  0  0  0  0  0  0  0  0  0
    4.3012   36.3923   16.8410 H   0  0  0  0  0  0  0  0  0  0  0  0
    4.3643   37.0515   23.2607 H   0  0  0  0  0  0  0  0  0  0  0  0
    4.1544   34.8656   23.3241 H   0  0  0  0  0  0  0  0  0  0  0  0
    1.3559   37.5998   20.0121 H   0  0  0  0  0  0  0  0  0  0  0  0
    2.6064   38.1457   21.2309 H   0  0  0  0  0  0  0  0  0  0  0  0
    0.5062   38.3749   26.1123 H   0  0  0  0  0  0  0  0  0  0  0  0
   -0.6778   38.8675   24.8545 H   0  0  0  0  0  0  0  0  0  0  0  0
   -0.0088   37.2004   24.8545 H   0  0  0  0  0  0  0  0  0  0  0  0
  2  3  1  0
  2  4  1  0
  4  5  1  0
  1  7  1  0
  8  9  1  0
  3 10  1  0
  6 11  1  0
  6 12  1  0
  6 13  1  0
  6 14  1  0
 10 14  1  0
  2 15  1  0
 14 15  1  0
  3 16  1  0
 16 17  1  1
 16 18  1  0
  5 19  1  0
 16 19  1  0
  4 20  1  0
  9 20  1  0
  1 21  1  0
 19 21  1  0
  7 22  1  0
 22 23  1  0
 20 24  1  0
  1 25  1  0
  1 26  1  0
  2 27  1  0
  3 28  1  1
  4 29  1  6
  5 30  1  0
  5 31  1  0
  7 32  1  0
  7 33  1  0
  8 34  1  0
  8 35  1  0
  8 36  1  0
  9 37  1  0
  9 38  1  0
 11 39  1  0
 11 40  1  0
 12 41  1  0
 13 42  1  0
 14 43  1  0
 15 44  1  0
 15 45  1  0
 17 46  1  0
 18 47  1  0
 21 48  1  0
 21 49  1  0
 23 50  1  0
 23 51  1  0
 23 52  1  0
M  END
>  <PDBID>  (1) 
3ZNC

>  <PDB ID>  (1) 
3ZNC

>  <Generic Name>  (1) 
Brinzolamide

>  <Brand Name>  (1) 
Azarga#Azopt#Sandoz Brinzolamide#Simbrinza

>  <DrugBank ID>  (1) 
DB01194

>  <ATC Codes>  (1) 
S01EC54#S01EC04

>  <Ligand ID>  (1) 
BZ1

>  <Target Name>  (1) 
Carbonic anhydrase 2

>  <UniProt ID>  (1) 
P00918

>  <PDB ID.1>  (1) 
3ZNC

>  <Seq. Identity>  (1) 
35%

$$$$
