PDB_DB09063_99
     RDKit          3D

 94 97  0  0  0  0  0  0  0  0999 V2000
  -27.8260    8.7850   -7.1560 C   0  0  0  0  0  0  0  0  0  0  0  0
  -26.6010    7.8280   -7.1320 C   0  0  1  0  0  0  0  0  0  0  0  0
  -26.8650    6.5500   -7.9830 C   0  0  0  0  0  0  0  0  0  0  0  0
  -25.4870    8.5920   -7.6500 O   0  0  0  0  0  0  0  0  0  0  0  0
  -24.1230    8.2730   -7.5080 C   0  0  0  0  0  0  0  0  0  0  0  0
  -23.6270    7.2280   -6.7040 C   0  0  0  0  0  0  0  0  0  0  0  0
  -22.2450    6.9710   -6.5660 C   0  0  1  0  0  0  0  0  0  0  0  0
  -21.7800    5.7880   -5.6670 C   0  0  2  0  0  0  0  0  0  0  0  0
  -21.7210    4.4570   -6.4900 C   0  0  0  0  0  0  0  0  0  0  0  0
  -21.1750    3.2740   -5.6310 C   0  0  0  0  0  0  0  0  0  0  0  0
  -21.9330    3.1980   -4.3490 N   0  0  0  0  0  0  0  0  0  0  0  0
  -21.9580    4.4250   -3.5020 C   0  0  0  0  0  0  0  0  0  0  0  0
  -22.5470    5.6270   -4.3120 C   0  0  0  0  0  0  0  0  0  0  0  0
  -21.3350    7.7610   -7.3130 C   0  0  0  0  0  0  0  0  0  0  0  0
  -19.8020    7.5940   -7.2480 C   0  0  0  0  0  0  0  0  0  0  0  0
  -21.8430    8.7800   -8.1450 C   0  0  0  0  0  0  0  0  0  0  0  0
  -23.2250    9.0640   -8.2320 C   0  0  0  0  0  0  0  0  0  0  0  0
  -23.7730   10.0520   -9.0150 N   0  0  0  0  0  0  0  0  0  0  0  0
  -23.1950   11.2120   -9.4020 C   0  0  0  0  0  0  0  0  0  0  0  0
  -23.7330   12.0060  -10.3610 N   0  0  0  0  0  0  0  0  0  0  0  0
  -23.0750   13.1070  -10.7830 C   0  0  0  0  0  0  0  0  0  0  0  0
  -21.8610   13.4650  -10.1760 C   0  0  1  0  0  0  0  0  0  0  0  0
  -21.0310   14.9090  -10.6640 Cl  0  0  0  0  0  0  0  0  0  0  0  0
  -21.3470   12.6810   -9.1410 C   0  0  0  0  0  0  0  0  0  0  0  0
  -20.1650   12.9820   -8.5220 N   0  0  0  0  0  0  0  0  0  0  0  0
  -19.5070   12.2680   -7.5370 C   0  0  1  0  0  0  0  0  0  0  0  0
  -20.2020   11.4350   -6.6220 C   0  0  0  0  0  0  0  0  0  0  0  0
  -19.5380   10.7450   -5.5920 C   0  0  0  0  0  0  0  0  0  0  0  0
  -18.1570   10.8990   -5.4210 C   0  0  0  0  0  0  0  0  0  0  0  0
  -17.4580   11.7640   -6.2750 C   0  0  0  0  0  0  0  0  0  0  0  0
  -18.1010   12.4280   -7.3470 C   0  0  1  0  0  0  0  0  0  0  0  0
  -17.1110   13.5470   -8.3390 S   0  0  1  0  0  4  0  0  0  0  0  0
  -17.9420   14.5970   -8.9150 O   0  0  0  0  0  0  0  0  0  0  0  0
  -16.0350   14.0540   -7.4940 O   0  0  0  0  0  0  0  0  0  0  0  0
  -16.4330   12.5510   -9.6970 C   0  0  1  0  0  0  0  0  0  0  0  0
  -15.3000   11.6340   -9.1600 C   0  0  0  0  0  0  0  0  0  0  0  0
  -17.5050   11.7990  -10.5280 C   0  0  0  0  0  0  0  0  0  0  0  0
  -22.0520   11.5870   -8.8150 N   0  0  0  0  0  0  0  0  0  0  0  0
  -28.1275    9.0206   -6.1247 H   0  0  0  0  0  0  0  0  0  0  0  0
  -27.5557    9.7135   -7.6801 H   0  0  0  0  0  0  0  0  0  0  0  0
  -28.6615    8.2980   -7.6801 H   0  0  0  0  0  0  0  0  0  0  0  0
  -26.3934    7.4697   -6.1129 H   0  0  0  0  0  0  0  0  0  0  0  0
  -27.0417    5.6944   -7.3146 H   0  0  0  0  0  0  0  0  0  0  0  0
  -27.7494    6.7083   -8.6176 H   0  0  0  0  0  0  0  0  0  0  0  0
  -25.9903    6.3449   -8.6176 H   0  0  0  0  0  0  0  0  0  0  0  0
  -24.0502    8.9638   -6.6550 H   0  0  0  0  0  0  0  0  0  0  0  0
  -24.0062    7.4164   -5.6888 H   0  0  0  0  0  0  0  0  0  0  0  0
  -23.9698    6.3378   -7.2518 H   0  0  0  0  0  0  0  0  0  0  0  0
  -22.2062    7.6458   -5.6981 H   0  0  0  0  0  0  0  0  0  0  0  0
  -20.7613    6.0497   -5.3450 H   0  0  0  0  0  0  0  0  0  0  0  0
  -22.7341    4.2074   -6.8382 H   0  0  0  0  0  0  0  0  0  0  0  0
  -21.0394    4.6081   -7.3401 H   0  0  0  0  0  0  0  0  0  0  0  0
  -21.2970    2.3317   -6.1853 H   0  0  0  0  0  0  0  0  0  0  0  0
  -20.1087    3.4385   -5.4168 H   0  0  0  0  0  0  0  0  0  0  0  0
  -22.9083    2.9594   -4.5787 H   0  0  0  0  0  0  0  0  0  0  0  0
  -22.5835    4.2424   -2.6158 H   0  0  0  0  0  0  0  0  0  0  0  0
  -20.9311    4.6690   -3.1922 H   0  0  0  0  0  0  0  0  0  0  0  0
  -22.4420    6.5497   -3.7224 H   0  0  0  0  0  0  0  0  0  0  0  0
  -23.6100    5.4354   -4.5199 H   0  0  0  0  0  0  0  0  0  0  0  0
  -21.2906    8.4887   -6.4893 H   0  0  0  0  0  0  0  0  0  0  0  0
  -19.4812    7.5591   -6.1964 H   0  0  0  0  0  0  0  0  0  0  0  0
  -19.5134    6.6591   -7.7506 H   0  0  0  0  0  0  0  0  0  0  0  0
  -19.3188    8.4448   -7.7506 H   0  0  0  0  0  0  0  0  0  0  0  0
  -21.3583    9.7121   -7.8191 H   0  0  0  0  0  0  0  0  0  0  0  0
  -21.6279    8.3838   -9.1484 H   0  0  0  0  0  0  0  0  0  0  0  0
  -23.1381    9.7491   -7.3758 H   0  0  0  0  0  0  0  0  0  0  0  0
  -24.0286    9.5796   -9.8939 H   0  0  0  0  0  0  0  0  0  0  0  0
  -22.6236   10.6709  -10.1706 H   0  0  0  0  0  0  0  0  0  0  0  0
  -23.8778   11.4120  -11.1899 H   0  0  0  0  0  0  0  0  0  0  0  0
  -22.8668   12.9639  -11.8536 H   0  0  0  0  0  0  0  0  0  0  0  0
  -23.7512   13.9307  -10.5106 H   0  0  0  0  0  0  0  0  0  0  0  0
  -21.3114   12.8918  -10.9372 H   0  0  0  0  0  0  0  0  0  0  0  0
  -20.8059   12.0663   -9.8754 H   0  0  0  0  0  0  0  0  0  0  0  0
  -19.4818   13.0553   -9.2893 H   0  0  0  0  0  0  0  0  0  0  0  0
  -19.6174   13.1178   -6.8473 H   0  0  0  0  0  0  0  0  0  0  0  0
  -20.9515   12.0737   -6.1318 H   0  0  0  0  0  0  0  0  0  0  0  0
  -20.5424   10.6133   -7.2693 H   0  0  0  0  0  0  0  0  0  0  0  0
  -20.0108   11.0531   -4.6478 H   0  0  0  0  0  0  0  0  0  0  0  0
  -19.6391    9.6907   -5.8891 H   0  0  0  0  0  0  0  0  0  0  0  0
  -17.9978   11.2614   -4.3947 H   0  0  0  0  0  0  0  0  0  0  0  0
  -17.7494    9.9058   -5.6607 H   0  0  0  0  0  0  0  0  0  0  0  0
  -17.0291   12.5502   -5.6363 H   0  0  0  0  0  0  0  0  0  0  0  0
  -16.7764   11.0775   -6.7986 H   0  0  0  0  0  0  0  0  0  0  0  0
  -18.2875   13.2960   -6.6975 H   0  0  0  0  0  0  0  0  0  0  0  0
  -18.3590   15.1239   -8.1880 H   0  0  0  0  0  0  0  0  0  0  0  0
  -16.2806   13.9383   -6.5420 H   0  0  0  0  0  0  0  0  0  0  0  0
  -15.9925   13.2429  -10.4300 H   0  0  0  0  0  0  0  0  0  0  0  0
  -15.3112   11.6431   -8.0601 H   0  0  0  0  0  0  0  0  0  0  0  0
  -15.4583   10.6066   -9.5198 H   0  0  0  0  0  0  0  0  0  0  0  0
  -14.3282   12.0029   -9.5198 H   0  0  0  0  0  0  0  0  0  0  0  0
  -18.2134   11.3021   -9.8488 H   0  0  0  0  0  0  0  0  0  0  0  0
  -18.0468   12.5160  -11.1623 H   0  0  0  0  0  0  0  0  0  0  0  0
  -17.0152   11.0455  -11.1623 H   0  0  0  0  0  0  0  0  0  0  0  0
  -22.2771   11.6920   -7.8154 H   0  0  0  0  0  0  0  0  0  0  0  0
  1  2  1  0
  2  3  1  0
  2  4  1  0
  4  5  1  0
  5  6  1  0
  6  7  1  0
  7  8  1  0
  8  9  1  0
  9 10  1  0
 10 11  1  0
 11 12  1  0
  8 13  1  0
 12 13  1  0
  7 14  1  0
 14 15  1  0
 14 16  1  0
  5 17  1  0
 16 17  1  0
 17 18  1  0
 18 19  1  0
 19 20  1  0
 20 21  1  0
 21 22  1  0
 22 23  1  0
 22 24  1  0
 24 25  1  0
 25 26  1  0
 26 27  1  0
 27 28  1  0
 28 29  1  0
 29 30  1  0
 26 31  1  0
 30 31  1  0
 31 32  1  0
 32 33  1  6
 32 34  1  0
 32 35  1  0
 35 36  1  0
 35 37  1  0
 19 38  1  0
 24 38  1  0
  1 39  1  0
  1 40  1  0
  1 41  1  0
  2 42  1  1
  3 43  1  0
  3 44  1  0
  3 45  1  0
  5 46  1  0
  6 47  1  0
  6 48  1  0
  7 49  1  1
  8 50  1  1
  9 51  1  0
  9 52  1  0
 10 53  1  0
 10 54  1  0
 11 55  1  0
 12 56  1  0
 12 57  1  0
 13 58  1  0
 13 59  1  0
 14 60  1  0
 15 61  1  0
 15 62  1  0
 15 63  1  0
 16 64  1  0
 16 65  1  0
 17 66  1  0
 18 67  1  0
 19 68  1  0
 20 69  1  0
 21 70  1  0
 21 71  1  0
 22 72  1  6
 24 73  1  0
 25 74  1  0
 26 75  1  6
 27 76  1  0
 27 77  1  0
 28 78  1  0
 28 79  1  0
 29 80  1  0
 29 81  1  0
 30 82  1  0
 30 83  1  0
 31 84  1  6
 33 85  1  0
 34 86  1  0
 35 87  1  6
 36 88  1  0
 36 89  1  0
 36 90  1  0
 37 91  1  0
 37 92  1  0
 37 93  1  0
 38 94  1  0
M  END
>  <PDBID>  (1) 
4MKC

>  <PDB ID>  (1) 
4MKC

>  <Generic Name>  (1) 
Ceritinib

>  <Brand Name>  (1) 
Zykadia

>  <DrugBank ID>  (1) 
DB09063

>  <ATC Codes>  (1) 
L01XE28

>  <Ligand ID>  (1) 
4MK

>  <Target Name>  (1) 
ALK tyrosine kinase receptor

>  <UniProt ID>  (1) 
Q9UM73

>  <PDB ID.1>  (1) 
4MKC

>  <Seq. Identity>  (1) 
99%

$$$$
