PDB_DB00586_99
     RDKit          3D

176180  0  0  0  0  0  0  0  0999 V2000
   26.3130   21.4050   17.7120 C   0  0  0  0  0  0  0  0  0  0  0  0
   26.0650   22.5110   16.8680 C   0  0  2  0  0  0  0  0  0  0  0  0
   24.4170   22.7030   16.4320 Cl  0  0  0  0  0  0  0  0  0  0  0  0
   27.1280   23.2650   16.3120 C   0  0  0  0  0  0  0  0  0  0  0  0
   28.4560   22.8360   16.6490 C   0  0  0  0  0  0  0  0  0  0  0  0
   29.8440   23.6630   16.0410 Cl  0  0  0  0  0  0  0  0  0  0  0  0
   28.6920   21.7250   17.4800 C   0  0  0  0  0  0  0  0  0  0  0  0
   27.6180   21.0160   18.0140 C   0  0  0  0  0  0  0  0  0  0  0  0
   27.0580   24.4310   15.4370 N   0  0  0  0  0  0  0  0  0  0  0  0
   26.4170   25.6220   13.3530 C   0  0  1  0  0  0  0  0  0  0  0  0
   26.5330   24.4420   14.1270 C   0  0  1  0  0  0  0  0  0  0  0  0
   26.2130   23.2070   13.5520 C   0  0  0  0  0  0  0  0  0  0  0  0
   25.7520   23.1340   12.2350 C   0  0  0  0  0  0  0  0  0  0  0  0
   25.6000   24.2930   11.4810 C   0  0  0  0  0  0  0  0  0  0  0  0
   25.9280   25.5250   12.0390 C   0  0  0  0  0  0  0  0  0  0  0  0
   26.8840   26.9640   13.8140 C   0  0  0  0  0  0  0  0  0  0  0  0
   28.3600   27.0230   13.9800 C   0  0  0  0  0  0  0  0  0  0  0  0
   29.1070   27.6800   13.2600 O   0  0  0  0  0  0  0  0  0  0  0  0
   28.8090   26.2650   14.9980 O   0  0  0  0  0  0  0  0  0  0  0  0
   70.5420   13.9760    9.0020 C   0  0  0  0  0  0  0  0  0  0  0  0
   70.6760   14.8590    7.8920 C   0  0  2  0  0  0  0  0  0  0  0  0
   72.2650   15.5600    7.6470 Cl  0  0  0  0  0  0  0  0  0  0  0  0
   69.5450   15.2500    7.1600 C   0  0  0  0  0  0  0  0  0  0  0  0
   68.2740   14.7470    7.5870 C   0  0  0  0  0  0  0  0  0  0  0  0
   66.8090   15.1730    6.7550 Cl  0  0  0  0  0  0  0  0  0  0  0  0
   68.1500   13.8900    8.6880 C   0  0  0  0  0  0  0  0  0  0  0  0
   69.2780   13.5050    9.3980 C   0  0  0  0  0  0  0  0  0  0  0  0
   69.5260   16.1240    6.0180 N   0  0  0  0  0  0  0  0  0  0  0  0
   70.0960   18.2480    4.9120 C   0  0  1  0  0  0  0  0  0  0  0  0
   70.0440   17.4320    6.0480 C   0  0  1  0  0  0  0  0  0  0  0  0
   70.4300   17.9480    7.2980 C   0  0  0  0  0  0  0  0  0  0  0  0
   70.8960   19.2390    7.4230 C   0  0  0  0  0  0  0  0  0  0  0  0
   70.9800   20.0370    6.3040 C   0  0  0  0  0  0  0  0  0  0  0  0
   70.5920   19.5440    5.0610 C   0  0  0  0  0  0  0  0  0  0  0  0
   69.5550   17.8410    3.5660 C   0  0  0  0  0  0  0  0  0  0  0  0
   68.0650   17.6440    3.5270 C   0  0  0  0  0  0  0  0  0  0  0  0
   67.2900   18.4270    2.9920 O   0  0  0  0  0  0  0  0  0  0  0  0
   67.6380   16.5110    4.1340 O   0  0  0  0  0  0  0  0  0  0  0  0
   14.0290   53.8040   71.2840 C   0  0  0  0  0  0  0  0  0  0  0  0
   13.9660   52.9240   70.1750 C   0  0  2  0  0  0  0  0  0  0  0  0
   12.4260   52.1920   69.8900 Cl  0  0  0  0  0  0  0  0  0  0  0  0
   15.1200   52.5550   69.4780 C   0  0  0  0  0  0  0  0  0  0  0  0
   16.3680   53.1030   69.9530 C   0  0  0  0  0  0  0  0  0  0  0  0
   17.8890   52.7400   69.2050 Cl  0  0  0  0  0  0  0  0  0  0  0  0
   16.4190   53.9650   71.0570 C   0  0  0  0  0  0  0  0  0  0  0  0
   15.2480   54.3170   71.7220 C   0  0  0  0  0  0  0  0  0  0  0  0
   15.1820   51.6810   68.3310 N   0  0  0  0  0  0  0  0  0  0  0  0
   14.7990   49.6030   67.0960 C   0  0  1  0  0  0  0  0  0  0  0  0
   14.7760   50.3350   68.2880 C   0  0  1  0  0  0  0  0  0  0  0  0
   14.4260   49.6950   69.4890 C   0  0  0  0  0  0  0  0  0  0  0  0
   14.0730   48.3300   69.5060 C   0  0  0  0  0  0  0  0  0  0  0  0
   14.0660   47.6000   68.3230 C   0  0  0  0  0  0  0  0  0  0  0  0
   14.4200   48.2320   67.1300 C   0  0  0  0  0  0  0  0  0  0  0  0
   15.3120   50.1770   65.8070 C   0  0  0  0  0  0  0  0  0  0  0  0
   16.7940   50.2900   65.7620 C   0  0  0  0  0  0  0  0  0  0  0  0
   17.5110   49.5040   65.1590 O   0  0  0  0  0  0  0  0  0  0  0  0
   17.2880   51.3370   66.4560 O   0  0  0  0  0  0  0  0  0  0  0  0
   58.6680   46.2570   79.6080 C   0  0  0  0  0  0  0  0  0  0  0  0
   58.8730   45.1310   78.7660 C   0  0  1  0  0  0  0  0  0  0  0  0
   60.4940   44.9640   78.1570 Cl  0  0  0  0  0  0  0  0  0  0  0  0
   57.7850   44.3290   78.3470 C   0  0  0  0  0  0  0  0  0  0  0  0
   56.4750   44.7220   78.8010 C   0  0  0  0  0  0  0  0  0  0  0  0
   55.0500   43.8280   78.3660 Cl  0  0  0  0  0  0  0  0  0  0  0  0
   56.2870   45.8500   79.6220 C   0  0  0  0  0  0  0  0  0  0  0  0
   57.3850   46.6200   80.0230 C   0  0  0  0  0  0  0  0  0  0  0  0
   57.8220   43.1470   77.5060 N   0  0  0  0  0  0  0  0  0  0  0  0
   58.4110   41.9010   75.4690 C   0  0  1  0  0  0  0  0  0  0  0  0
   58.3430   43.1030   76.1960 C   0  0  1  0  0  0  0  0  0  0  0  0
   58.7140   44.3140   75.5830 C   0  0  0  0  0  0  0  0  0  0  0  0
   59.1750   44.3310   74.2690 C   0  0  0  0  0  0  0  0  0  0  0  0
   59.2710   43.1410   73.5530 C   0  0  0  0  0  0  0  0  0  0  0  0
   58.9020   41.9380   74.1460 C   0  0  0  0  0  0  0  0  0  0  0  0
   57.8820   40.6040   76.0040 C   0  0  0  0  0  0  0  0  0  0  0  0
   56.3900   40.5600   76.0700 C   0  0  0  0  0  0  0  0  0  0  0  0
   55.6860   39.8690   75.3340 O   0  0  0  0  0  0  0  0  0  0  0  0
   55.8720   41.3620   77.0130 O   0  0  0  0  0  0  0  0  0  0  0  0
   25.8215   21.6257   18.6710 H   0  0  0  0  0  0  0  0  0  0  0  0
   25.9360   20.5573   17.1210 H   0  0  0  0  0  0  0  0  0  0  0  0
   26.3193   23.5192   17.2269 H   0  0  0  0  0  0  0  0  0  0  0  0
   27.1186   23.9264   17.1909 H   0  0  0  0  0  0  0  0  0  0  0  0
   28.4653   22.1744   15.7703 H   0  0  0  0  0  0  0  0  0  0  0  0
   29.2851   21.0088   16.8924 H   0  0  0  0  0  0  0  0  0  0  0  0
   29.1694   22.1680   18.3664 H   0  0  0  0  0  0  0  0  0  0  0  0
   27.7189   21.0612   19.1084 H   0  0  0  0  0  0  0  0  0  0  0  0
   27.7053   20.0262   17.5421 H   0  0  0  0  0  0  0  0  0  0  0  0
   26.5073   25.1290   15.9570 H   0  0  0  0  0  0  0  0  0  0  0  0
   27.4426   25.4794   12.9818 H   0  0  0  0  0  0  0  0  0  0  0  0
   25.5243   24.6089   14.5327 H   0  0  0  0  0  0  0  0  0  0  0  0
   27.1234   22.5915   13.6014 H   0  0  0  0  0  0  0  0  0  0  0  0
   25.3401   22.8816   14.1370 H   0  0  0  0  0  0  0  0  0  0  0  0
   26.4572   22.4909   11.6881 H   0  0  0  0  0  0  0  0  0  0  0  0
   24.7192   22.7735   12.3509 H   0  0  0  0  0  0  0  0  0  0  0  0
   26.2232   24.1734   10.5825 H   0  0  0  0  0  0  0  0  0  0  0  0
   24.5125   24.3606   11.3305 H   0  0  0  0  0  0  0  0  0  0  0  0
   25.0154   26.1379   11.9999 H   0  0  0  0  0  0  0  0  0  0  0  0
   26.7940   25.8378   11.4372 H   0  0  0  0  0  0  0  0  0  0  0  0
   26.5814   27.7176   13.0721 H   0  0  0  0  0  0  0  0  0  0  0  0
   26.4276   27.1595   14.7956 H   0  0  0  0  0  0  0  0  0  0  0  0
   28.4702   26.1600   13.3069 H   0  0  0  0  0  0  0  0  0  0  0  0
   29.7187   28.2180   13.8226 H   0  0  0  0  0  0  0  0  0  0  0  0
   28.5594   26.6864   15.8583 H   0  0  0  0  0  0  0  0  0  0  0  0
   71.1497   13.0884    8.7721 H   0  0  0  0  0  0  0  0  0  0  0  0
   70.8460   14.6044    9.8522 H   0  0  0  0  0  0  0  0  0  0  0  0
   70.6287   14.3688    6.9084 H   0  0  0  0  0  0  0  0  0  0  0  0
   69.6693   14.3774    6.5019 H   0  0  0  0  0  0  0  0  0  0  0  0
   68.1516   15.6175    8.2482 H   0  0  0  0  0  0  0  0  0  0  0  0
   67.4789   14.3875    9.4036 H   0  0  0  0  0  0  0  0  0  0  0  0
   67.8013   12.9489    8.2378 H   0  0  0  0  0  0  0  0  0  0  0  0
   69.3200   12.4065    9.3598 H   0  0  0  0  0  0  0  0  0  0  0  0
   69.1298   13.9656   10.3859 H   0  0  0  0  0  0  0  0  0  0  0  0
   70.0410   15.6313    5.2744 H   0  0  0  0  0  0  0  0  0  0  0  0
   69.0805   18.6120    5.1269 H   0  0  0  0  0  0  0  0  0  0  0  0
   71.0449   17.0410    5.8130 H   0  0  0  0  0  0  0  0  0  0  0  0
   69.5501   17.8690    7.9534 H   0  0  0  0  0  0  0  0  0  0  0  0
   71.3184   17.3471    7.5421 H   0  0  0  0  0  0  0  0  0  0  0  0
   70.2319   19.7523    8.1339 H   0  0  0  0  0  0  0  0  0  0  0  0
   71.9445   19.1087    7.7290 H   0  0  0  0  0  0  0  0  0  0  0  0
   70.3596   20.9239    6.5004 H   0  0  0  0  0  0  0  0  0  0  0  0
   72.0629   20.1896    6.1860 H   0  0  0  0  0  0  0  0  0  0  0  0
   71.4757   19.6146    4.4098 H   0  0  0  0  0  0  0  0  0  0  0  0
   69.7126   20.1616    4.8263 H   0  0  0  0  0  0  0  0  0  0  0  0
   69.8173   18.6239    2.8392 H   0  0  0  0  0  0  0  0  0  0  0  0
   70.0060   16.8660    3.3292 H   0  0  0  0  0  0  0  0  0  0  0  0
   67.9674   18.1946    4.4743 H   0  0  0  0  0  0  0  0  0  0  0  0
   66.7944   18.9278    3.6875 H   0  0  0  0  0  0  0  0  0  0  0  0
   67.6815   16.6264    5.1163 H   0  0  0  0  0  0  0  0  0  0  0  0
   13.3970   54.6688   71.0339 H   0  0  0  0  0  0  0  0  0  0  0  0
   13.7207   53.1614   72.1219 H   0  0  0  0  0  0  0  0  0  0  0  0
   14.1314   53.4540   69.2254 H   0  0  0  0  0  0  0  0  0  0  0  0
   14.9938   53.4205   68.8109 H   0  0  0  0  0  0  0  0  0  0  0  0
   16.4918   52.2399   70.6236 H   0  0  0  0  0  0  0  0  0  0  0  0
   17.0753   53.4894   71.8007 H   0  0  0  0  0  0  0  0  0  0  0  0
   16.7554   54.9161   70.6187 H   0  0  0  0  0  0  0  0  0  0  0  0
   15.1697   55.4131   71.6734 H   0  0  0  0  0  0  0  0  0  0  0  0
   15.3730   53.8695   72.7191 H   0  0  0  0  0  0  0  0  0  0  0  0
   14.6264   52.1527   67.6032 H   0  0  0  0  0  0  0  0  0  0  0  0
   15.8437   49.3190   67.2906 H   0  0  0  0  0  0  0  0  0  0  0  0
   13.7451   50.6528   68.0729 H   0  0  0  0  0  0  0  0  0  0  0  0
   15.2872   49.8042   70.1646 H   0  0  0  0  0  0  0  0  0  0  0  0
   13.4845   50.1929   69.7642 H   0  0  0  0  0  0  0  0  0  0  0  0
   14.7779   47.8279   70.1850 H   0  0  0  0  0  0  0  0  0  0  0  0
   13.0131   48.3461   69.8000 H   0  0  0  0  0  0  0  0  0  0  0  0
   14.7622   46.7595   68.4601 H   0  0  0  0  0  0  0  0  0  0  0  0
   13.0055   47.3457   68.1792 H   0  0  0  0  0  0  0  0  0  0  0  0
   13.5544   48.1332   66.4585 H   0  0  0  0  0  0  0  0  0  0  0  0
   15.3575   47.7223   66.8631 H   0  0  0  0  0  0  0  0  0  0  0  0
   14.9862   49.5273   64.9813 H   0  0  0  0  0  0  0  0  0  0  0  0
   14.9048   51.1951   65.7188 H   0  0  0  0  0  0  0  0  0  0  0  0
   16.8690   49.6659   66.6647 H   0  0  0  0  0  0  0  0  0  0  0  0
   18.0147   48.9519   65.8083 H   0  0  0  0  0  0  0  0  0  0  0  0
   17.2040   51.1590   67.4262 H   0  0  0  0  0  0  0  0  0  0  0  0
   59.2526   46.0749   80.5218 H   0  0  0  0  0  0  0  0  0  0  0  0
   58.9609   47.0984   78.9628 H   0  0  0  0  0  0  0  0  0  0  0  0
   58.6060   45.7384   77.8887 H   0  0  0  0  0  0  0  0  0  0  0  0
   57.9055   43.6987   79.2404 H   0  0  0  0  0  0  0  0  0  0  0  0
   56.3536   45.3507   77.9066 H   0  0  0  0  0  0  0  0  0  0  0  0
   55.6073   46.5252   79.0815 H   0  0  0  0  0  0  0  0  0  0  0  0
   55.9274   45.4154   80.5664 H   0  0  0  0  0  0  0  0  0  0  0  0
   57.3922   46.6184   81.1230 H   0  0  0  0  0  0  0  0  0  0  0  0
   57.2171   47.5872   79.5268 H   0  0  0  0  0  0  0  0  0  0  0  0
   58.3585   42.4475   78.0387 H   0  0  0  0  0  0  0  0  0  0  0  0
   57.3904   42.0695   75.0949 H   0  0  0  0  0  0  0  0  0  0  0  0
   59.3478   42.9143   76.6020 H   0  0  0  0  0  0  0  0  0  0  0  0
   57.8292   44.9667   75.6146 H   0  0  0  0  0  0  0  0  0  0  0  0
   59.5997   44.6205   76.1589 H   0  0  0  0  0  0  0  0  0  0  0  0
   58.4994   44.9893   73.7032 H   0  0  0  0  0  0  0  0  0  0  0  0
   60.2222   44.6520   74.3708 H   0  0  0  0  0  0  0  0  0  0  0  0
   58.6435   43.2585   72.6572 H   0  0  0  0  0  0  0  0  0  0  0  0
   60.3544   43.0251   73.4018 H   0  0  0  0  0  0  0  0  0  0  0  0
   59.7924   41.2925   74.1245 H   0  0  0  0  0  0  0  0  0  0  0  0
   58.0260   41.6346   73.5539 H   0  0  0  0  0  0  0  0  0  0  0  0
   58.2273   39.7893   75.3505 H   0  0  0  0  0  0  0  0  0  0  0  0
   58.2583   40.4964   77.0320 H   0  0  0  0  0  0  0  0  0  0  0  0
   56.3336   41.3873   75.3472 H   0  0  0  0  0  0  0  0  0  0  0  0
   55.0989   39.2927   75.8848 H   0  0  0  0  0  0  0  0  0  0  0  0
   56.1005   41.0082   77.9090 H   0  0  0  0  0  0  0  0  0  0  0  0
  1  2  1  0
  2  3  1  0
  2  4  1  0
  4  5  1  0
  5  6  1  0
  5  7  1  0
  1  8  1  0
  7  8  1  0
  4  9  1  0
  9 11  1  0
 10 11  1  0
 11 12  1  0
 12 13  1  0
 13 14  1  0
 10 15  1  0
 14 15  1  0
 10 16  1  0
 16 17  1  0
 17 18  1  0
 17 19  1  0
 20 21  1  0
 21 22  1  0
 21 23  1  0
 23 24  1  0
 24 25  1  0
 24 26  1  0
 20 27  1  0
 26 27  1  0
 23 28  1  0
 28 30  1  0
 29 30  1  0
 30 31  1  0
 31 32  1  0
 32 33  1  0
 29 34  1  0
 33 34  1  0
 29 35  1  0
 35 36  1  0
 36 37  1  0
 36 38  1  0
 39 40  1  0
 40 41  1  0
 40 42  1  0
 42 43  1  0
 43 44  1  0
 43 45  1  0
 39 46  1  0
 45 46  1  0
 42 47  1  0
 47 49  1  0
 48 49  1  0
 49 50  1  0
 50 51  1  0
 51 52  1  0
 48 53  1  0
 52 53  1  0
 48 54  1  0
 54 55  1  0
 55 56  1  0
 55 57  1  0
 58 59  1  0
 59 60  1  0
 59 61  1  0
 61 62  1  0
 62 63  1  0
 62 64  1  0
 58 65  1  0
 64 65  1  0
 61 66  1  0
 66 68  1  0
 67 68  1  0
 68 69  1  0
 69 70  1  0
 70 71  1  0
 67 72  1  0
 71 72  1  0
 67 73  1  0
 73 74  1  0
 74 75  1  0
 74 76  1  0
  1 77  1  0
  1 78  1  0
  2 79  1  1
  4 80  1  0
  5 81  1  0
  7 82  1  0
  7 83  1  0
  8 84  1  0
  8 85  1  0
  9 86  1  0
 10 87  1  1
 11 88  1  1
 12 89  1  0
 12 90  1  0
 13 91  1  0
 13 92  1  0
 14 93  1  0
 14 94  1  0
 15 95  1  0
 15 96  1  0
 16 97  1  0
 16 98  1  0
 17 99  1  0
 18100  1  0
 19101  1  0
 20102  1  0
 20103  1  0
 21104  1  6
 23105  1  0
 24106  1  0
 26107  1  0
 26108  1  0
 27109  1  0
 27110  1  0
 28111  1  0
 29112  1  6
 30113  1  6
 31114  1  0
 31115  1  0
 32116  1  0
 32117  1  0
 33118  1  0
 33119  1  0
 34120  1  0
 34121  1  0
 35122  1  0
 35123  1  0
 36124  1  0
 37125  1  0
 38126  1  0
 39127  1  0
 39128  1  0
 40129  1  6
 42130  1  0
 43131  1  0
 45132  1  0
 45133  1  0
 46134  1  0
 46135  1  0
 47136  1  0
 48137  1  6
 49138  1  6
 50139  1  0
 50140  1  0
 51141  1  0
 51142  1  0
 52143  1  0
 52144  1  0
 53145  1  0
 53146  1  0
 54147  1  0
 54148  1  0
 55149  1  0
 56150  1  0
 57151  1  0
 58152  1  0
 58153  1  0
 59154  1  1
 61155  1  0
 62156  1  0
 64157  1  0
 64158  1  0
 65159  1  0
 65160  1  0
 66161  1  0
 67162  1  1
 68163  1  1
 69164  1  0
 69165  1  0
 70166  1  0
 70167  1  0
 71168  1  0
 71169  1  0
 72170  1  0
 72171  1  0
 73172  1  0
 73173  1  0
 74174  1  0
 75175  1  0
 76176  1  0
M  END
>  <PDBID>  (1) 
1PXX

>  <PDB ID>  (1) 
1PXX

>  <Generic Name>  (1) 
Diclofenac

>  <Brand Name>  (1) 
Act Diclo-miso#Apo-diclo#Apo-diclo Rapide 50 Mg Tablets#Apo-diclo SR#Apo-diclofenac#Apo-diclofenac Ophthalmic#Arthrotec#Arthrotec 50#Arthrotec 75#Ava-diclofenac#Ava-diclofenac SR#Cambia#Cataflam#Diclo Gel 1% With Xrylix Sheets#Diclofenac#Diclofenac EC#Diclofenac Ect 25mg#Diclofenac Ect 50mg#Diclofenac K#Diclofenac Misoprostol#Diclofenac Potassium#Diclofenac Potassium for Oral Solution#Diclofenac SR#Diclofenac Sodium#Diclofenac Sodium 3 Percent#Diclofenac Sodium D/r#Diclofenac Sodium Delayed Release#Diclofenac Sodium Delayed Release Delayed Release#Diclofenac Sodium Dr#Diclofenac Sodium Extended-release#Diclofenac Sodium and Misoprostol#Diclofenac Sodium and Misoprostol Delayed-release#Diclofenac Topical Solution#Diclofenac-SR#Diclotec#Diclozor#Dipentocaine Topical Cream Compounding Kit#Dom-diclofenac#Dom-diclofenac-SR#Dyloject#Flector#Gapeam Budibac#Gd-diclofenac/misoprostol 50#Gd-diclofenac/misoprostol 75#Infla-eze#Klofensaid II#Lexixryl#Ntp-diclofenac Potassium#Ntp-diclofenac Sodium#Ntp-diclofenac Sodium SR#Nu-diclo Enteric Coated Tab 25mg#Nu-diclo Enteric Coated Tab 50mg#Nu-diclo Rapide#Nu-diclo SR - Srt 100mg#Nu-diclo SR - Srt 75mg#PMS-diclofenac#PMS-diclofenac K#PMS-diclofenac-SR#PMS-diclofenac-misoprostol#Pennsaid#Penta-diclofenac - 25mg#Penta-diclofenac - 50mg#Previdolrx Analgesic Pak#Previdolrx Plus Analgesic Pak#Pro-diclo Rapide - 50#Rho-diclofenac#Riva-diclofenac 100mg SR Tablets#Riva-diclofenac 50mg Tablets#Riva-diclofenac 75mg SR Tablets#Riva-diclofenac-K 50mg Tablets#Sandoz Diclofenac#Sandoz Diclofenac Misoprostol#Sandoz Diclofenac Ophtha#Sandoz-diclofenac#Sandoz-diclofenac Rapide#Sandoz-diclofenac SR#Solaraze#Taro-diclofenac#Taro-diclofenac Tab 25mg#Taro-diclofenac Tab 50mg#Teva-diclofenac#Teva-diclofenac EC#Teva-diclofenac SR#Teva-diclofenac-K#Vofenal 0.1%#Voltaren#Voltaren Emulgel#Voltaren Emulgel Extra Strength#Voltaren Emulgel Joint Pain#Voltaren Ophtha#Voltaren Rapide Tablets 50mg#Voltaren SR 75 Tab#Voltaren SR Tab 100mg#Voltaren Sup 100mg#Voltaren Sup 50mg#Voltaren Tab 25mg#Voltaren Tab 50mg#Voltaren XR#Xrylix#Zipsor#Zorvolex#Aclonac#Allvoran#Ecofenac#Effekton#Nu-Diclo#Primofenac#Prophenatin#Rhumalgan#Voltaren Emulgel#Voltarol

>  <DrugBank ID>  (1) 
DB00586

>  <ATC Codes>  (1) 
M01AB05#S01BC03#M01AB55#M02AA15#D11AX18#S01CC01

>  <Ligand ID>  (1) 
DIF

>  <Target Name>  (1) 
Prostaglandin G/H synthase 1

>  <UniProt ID>  (1) 
P23219

>  <PDB ID.1>  (1) 
1PXX

>  <Seq. Identity>  (1) 
61%

$$$$
