PDB_DB09078_99
     RDKit          3D

 49 52  0  0  0  0  0  0  0  0999 V2000
    0.6530  -10.0590   23.2490 C   0  0  0  0  0  0  0  0  0  0  0  0
    0.2630   -8.8490   22.5910 O   0  0  0  0  0  0  0  0  0  0  0  0
    0.4880   -8.6700   21.2500 C   0  0  0  0  0  0  0  0  0  0  0  0
    1.3110   -9.4980   20.5030 C   0  0  0  0  0  0  0  0  0  0  0  0
    1.5080   -9.2940   19.1280 C   0  0  0  0  0  0  0  0  0  0  0  0
    2.3330  -10.1050   18.4270 N   0  0  0  0  0  0  0  0  0  0  0  0
    2.5520   -9.8650   17.1520 C   0  0  0  0  0  0  0  0  0  0  0  0
    1.8960   -8.8720   16.4280 C   0  0  0  0  0  0  0  0  0  0  0  0
    1.0270   -8.0230   17.0730 C   0  0  0  0  0  0  0  0  0  0  0  0
    0.8230   -8.2380   18.4680 C   0  0  0  0  0  0  0  0  0  0  0  0
   -0.0030   -7.3920   19.2240 C   0  0  0  0  0  0  0  0  0  0  0  0
   -0.1680   -7.5900   20.5970 C   0  0  0  0  0  0  0  0  0  0  0  0
   -0.9670   -6.5940   21.3450 C   0  0  0  0  0  0  0  0  0  0  0  0
   -1.1540   -5.4960   20.8250 O   0  0  0  0  0  0  0  0  0  0  0  0
   -1.3120   -6.7410   22.6380 N   0  0  0  0  0  0  0  0  0  0  0  0
    0.3060   -7.0350   16.4720 O   0  0  0  0  0  0  0  0  0  0  0  0
    0.5420   -6.6780   15.1650 C   0  0  0  0  0  0  0  0  0  0  0  0
    0.0590   -7.4300   14.1070 C   0  0  0  0  0  0  0  0  0  0  0  0
    0.2810   -6.9860   12.7950 C   0  0  0  0  0  0  0  0  0  0  0  0
    1.0510   -5.8290   12.5900 C   0  0  0  0  0  0  0  0  0  0  0  0
    1.4420   -5.0470   13.6720 C   0  0  0  0  0  0  0  0  0  0  0  0
    1.2210   -5.5080   14.9600 C   0  0  0  0  0  0  0  0  0  0  0  0
    1.2100   -5.3560   11.2640 N   0  0  0  0  0  0  0  0  0  0  0  0
    2.2850   -4.6180   10.8340 C   0  0  0  0  0  0  0  0  0  0  0  0
    3.2670   -4.4220   11.5240 O   0  0  0  0  0  0  0  0  0  0  0  0
    2.1180   -4.1480    9.5630 N   0  0  0  0  0  0  0  0  0  0  0  0
    3.0380   -3.2160    8.9030 C   0  0  0  0  0  0  0  0  0  0  0  0
    4.3850   -3.7080    8.4680 C   0  0  0  0  0  0  0  0  0  0  0  0
    3.3040   -3.4620    7.4280 C   0  0  0  0  0  0  0  0  0  0  0  0
   -0.2830   -7.9180   11.4650 Cl  0  0  0  0  0  0  0  0  0  0  0  0
    0.6067   -9.9152   24.3386 H   0  0  0  0  0  0  0  0  0  0  0  0
   -0.0288  -10.8713   22.9570 H   0  0  0  0  0  0  0  0  0  0  0  0
    1.6809  -10.3203   22.9570 H   0  0  0  0  0  0  0  0  0  0  0  0
    1.8225  -10.3357   20.9997 H   0  0  0  0  0  0  0  0  0  0  0  0
    3.2954  -10.4837   16.6279 H   0  0  0  0  0  0  0  0  0  0  0  0
    2.0719   -8.7675   15.3472 H   0  0  0  0  0  0  0  0  0  0  0  0
   -0.5276   -6.5617   18.7287 H   0  0  0  0  0  0  0  0  0  0  0  0
   -1.8701   -6.0140   23.1080 H   0  0  0  0  0  0  0  0  0  0  0  0
   -1.0178   -7.5805   23.1573 H   0  0  0  0  0  0  0  0  0  0  0  0
   -0.4918   -8.3638   14.2932 H   0  0  0  0  0  0  0  0  0  0  0  0
    1.9224   -4.0713   13.5066 H   0  0  0  0  0  0  0  0  0  0  0  0
    1.5925   -4.9316   15.8201 H   0  0  0  0  0  0  0  0  0  0  0  0
    0.4732   -5.5797   10.5799 H   0  0  0  0  0  0  0  0  0  0  0  0
    1.2940   -4.4682    9.0345 H   0  0  0  0  0  0  0  0  0  0  0  0
    2.7010   -2.3665    9.5152 H   0  0  0  0  0  0  0  0  0  0  0  0
    5.2571   -3.0397    8.5218 H   0  0  0  0  0  0  0  0  0  0  0  0
    5.0220   -4.5636    8.7369 H   0  0  0  0  0  0  0  0  0  0  0  0
    2.8278   -4.3104    6.9147 H   0  0  0  0  0  0  0  0  0  0  0  0
    3.2241   -2.8649    6.5076 H   0  0  0  0  0  0  0  0  0  0  0  0
  1  2  1  0
  2  3  1  0
  3  4  2  0
  4  5  1  0
  5  6  2  0
  6  7  1  0
  7  8  2  0
  8  9  1  0
  5 10  1  0
  9 10  2  0
 10 11  1  0
  3 12  1  0
 11 12  2  0
 12 13  1  0
 13 14  2  0
 13 15  1  0
  9 16  1  0
 16 17  1  0
 17 18  2  0
 18 19  1  0
 19 20  2  0
 20 21  1  0
 17 22  1  0
 21 22  2  0
 20 23  1  0
 23 24  1  0
 24 25  2  0
 24 26  1  0
 26 27  1  0
 27 28  1  0
 27 29  1  0
 28 29  1  0
 19 30  1  0
  1 31  1  0
  1 32  1  0
  1 33  1  0
  4 34  1  0
  7 35  1  0
  8 36  1  0
 11 37  1  0
 15 38  1  0
 15 39  1  0
 18 40  1  0
 21 41  1  0
 22 42  1  0
 23 43  1  0
 26 44  1  0
 27 45  1  0
 28 46  1  0
 28 47  1  0
 29 48  1  0
 29 49  1  0
M  END
>  <PDBID>  (1) 
3WZD

>  <PDB ID>  (1) 
3WZD

>  <Generic Name>  (1) 
Lenvatinib

>  <Brand Name>  (1) 
Lenvima

>  <DrugBank ID>  (1) 
DB09078

>  <ATC Codes>  (1) 
L01XE29

>  <Ligand ID>  (1) 
LEV

>  <Target Name>  (1) 
Vascular endothelial growth factor receptor 3

>  <UniProt ID>  (1) 
P35916

>  <PDB ID.1>  (1) 
3WZD

>  <Seq. Identity>  (1) 
67%

$$$$
