PDB_DB00284_97
     RDKit          3D

 85 88  0  0  0  0  0  0  0  0999 V2000
  -51.5590    4.7950  -64.5580 C   0  0  2  0  0  0  0  0  0  0  0  0
  -50.2990    4.3360  -63.8490 C   0  0  1  0  0  0  0  0  0  0  0  0
  -49.1160    4.2620  -64.8120 C   0  0  2  0  0  0  0  0  0  0  0  0
  -49.3260    3.2140  -65.8610 C   0  0  1  0  0  0  0  0  0  0  0  0
  -50.7130    3.3020  -66.3690 C   0  0  0  0  0  0  0  0  0  0  0  0
  -51.1570    2.3580  -67.4560 C   0  0  0  0  0  0  0  0  0  0  0  0
  -51.5090    4.3630  -65.9860 C   0  0  0  0  0  0  0  0  0  0  0  0
  -49.9920    5.2130  -62.8400 O   0  0  0  0  0  0  0  0  0  0  0  0
  -47.9570    4.0520  -64.0980 O   0  0  0  0  0  0  0  0  0  0  0  0
  -48.4710    3.3940  -66.9310 O   0  0  0  0  0  0  0  0  0  0  0  0
  -51.7390    1.2390  -66.8740 O   0  0  0  0  0  0  0  0  0  0  0  0
  -55.2190    8.3600  -65.5580 C   0  0  2  0  0  0  0  0  0  0  0  0
  -55.4170    7.2490  -64.5790 C   0  0  1  0  0  0  0  0  0  0  0  0
  -54.0810    6.9790  -63.9110 C   0  0  2  0  0  0  0  0  0  0  0  0
  -53.0910    6.6160  -64.9500 C   0  0  1  0  0  0  0  0  0  0  0  0
  -53.0310    7.7510  -65.9140 C   0  0  1  0  0  0  0  0  0  0  0  0
  -52.0760    7.4430  -67.0110 C   0  0  0  0  0  0  0  0  0  0  0  0
  -51.7800    6.2630  -64.4060 N   0  0  0  0  0  0  0  0  0  0  0  0
  -56.4050    7.5770  -63.6770 O   0  0  0  0  0  0  0  0  0  0  0  0
  -54.2340    5.9280  -62.8890 O   0  0  0  0  0  0  0  0  0  0  0  0
  -54.2760    7.9660  -66.5140 O   0  0  0  0  0  0  0  0  0  0  0  0
  -55.9880   13.3150  -64.4360 C   0  0  2  0  0  0  0  0  0  0  0  0
  -56.6740   12.3600  -63.5220 C   0  0  1  0  0  0  0  0  0  0  0  0
  -55.9110   11.0450  -63.4840 C   0  0  2  0  0  0  0  0  0  0  0  0
  -55.6470   10.5580  -64.8810 C   0  0  1  0  0  0  0  0  0  0  0  0
  -55.0630   11.6700  -65.6700 C   0  0  1  0  0  0  0  0  0  0  0  0
  -54.9390   11.2390  -67.0840 C   0  0  0  0  0  0  0  0  0  0  0  0
  -56.7680   12.9230  -62.2620 O   0  0  0  0  0  0  0  0  0  0  0  0
  -56.6090   10.1180  -62.7560 O   0  0  0  0  0  0  0  0  0  0  0  0
  -54.7270    9.4840  -64.8710 O   0  0  0  0  0  0  0  0  0  0  0  0
  -55.9070   12.7640  -65.6830 O   0  0  0  0  0  0  0  0  0  0  0  0
  -55.4790   12.2790  -67.8060 O   0  0  0  0  0  0  0  0  0  0  0  0
  -52.2690   16.8580  -63.5030 C   0  0  0  0  0  0  0  0  0  0  0  0
  -53.5650   16.7780  -62.6670 C   0  0  1  0  0  0  0  0  0  0  0  0
  -54.5060   15.5580  -62.7390 C   0  0  2  0  0  0  0  0  0  0  0  0
  -54.5220   14.9610  -64.0810 C   0  0  1  0  0  0  0  0  0  0  0  0
  -53.2500   15.2660  -64.9010 C   0  0  1  0  0  0  0  0  0  0  0  0
  -53.5730   14.9380  -66.4220 C   0  0  0  0  0  0  0  0  0  0  0  0
  -51.3190   15.9930  -62.9930 O   0  0  0  0  0  0  0  0  0  0  0  0
  -53.2590   17.0840  -61.2220 O   0  0  0  0  0  0  0  0  0  0  0  0
  -55.7960   15.9330  -62.4290 O   0  0  0  0  0  0  0  0  0  0  0  0
  -54.6960   13.5810  -63.9790 O   0  0  0  0  0  0  0  0  0  0  0  0
  -52.5570   16.5270  -64.8220 O   0  0  0  0  0  0  0  0  0  0  0  0
  -52.3560   14.5920  -67.0200 O   0  0  0  0  0  0  0  0  0  0  0  0
  -52.4308    4.3181  -64.0864 H   0  0  0  0  0  0  0  0  0  0  0  0
  -50.4876    3.3317  -63.4417 H   0  0  0  0  0  0  0  0  0  0  0  0
  -49.0286    5.2196  -65.3463 H   0  0  0  0  0  0  0  0  0  0  0  0
  -49.1297    2.2342  -65.4012 H   0  0  0  0  0  0  0  0  0  0  0  0
  -51.8906    2.8604  -68.1037 H   0  0  0  0  0  0  0  0  0  0  0  0
  -50.2899    2.0536  -68.0606 H   0  0  0  0  0  0  0  0  0  0  0  0
  -52.1107    4.8938  -66.7385 H   0  0  0  0  0  0  0  0  0  0  0  0
  -50.1450    4.7759  -61.9650 H   0  0  0  0  0  0  0  0  0  0  0  0
  -48.1554    4.0880  -63.1288 H   0  0  0  0  0  0  0  0  0  0  0  0
  -47.5593    3.5859  -66.5962 H   0  0  0  0  0  0  0  0  0  0  0  0
  -51.6968    1.3201  -65.8882 H   0  0  0  0  0  0  0  0  0  0  0  0
  -56.1723    8.6016  -66.0508 H   0  0  0  0  0  0  0  0  0  0  0  0
  -55.7546    6.3305  -65.0813 H   0  0  0  0  0  0  0  0  0  0  0  0
  -53.7175    7.8791  -63.3936 H   0  0  0  0  0  0  0  0  0  0  0  0
  -53.4125    5.6973  -65.4625 H   0  0  0  0  0  0  0  0  0  0  0  0
  -52.7169    8.6397  -65.3470 H   0  0  0  0  0  0  0  0  0  0  0  0
  -51.1122    7.1322  -66.5816 H   0  0  0  0  0  0  0  0  0  0  0  0
  -52.4803    6.6297  -67.6315 H   0  0  0  0  0  0  0  0  0  0  0  0
  -51.9289    8.3393  -67.6315 H   0  0  0  0  0  0  0  0  0  0  0  0
  -51.7431    6.5145  -63.4079 H   0  0  0  0  0  0  0  0  0  0  0  0
  -56.0616    7.4630  -62.7555 H   0  0  0  0  0  0  0  0  0  0  0  0
  -54.1750    6.3331  -61.9876 H   0  0  0  0  0  0  0  0  0  0  0  0
  -56.5631   14.2522  -64.4667 H   0  0  0  0  0  0  0  0  0  0  0  0
  -57.6901   12.1514  -63.8880 H   0  0  0  0  0  0  0  0  0  0  0  0
  -54.9398   11.2032  -62.9922 H   0  0  0  0  0  0  0  0  0  0  0  0
  -56.5944   10.2152  -65.3225 H   0  0  0  0  0  0  0  0  0  0  0  0
  -54.0951   11.9312  -65.2173 H   0  0  0  0  0  0  0  0  0  0  0  0
  -53.8836   11.0847  -67.3530 H   0  0  0  0  0  0  0  0  0  0  0  0
  -55.4488   10.2838  -67.2781 H   0  0  0  0  0  0  0  0  0  0  0  0
  -56.6504   12.2187  -61.5763 H   0  0  0  0  0  0  0  0  0  0  0  0
  -56.4788   10.2910  -61.7900 H   0  0  0  0  0  0  0  0  0  0  0  0
  -55.8341   12.9629  -67.1844 H   0  0  0  0  0  0  0  0  0  0  0  0
  -54.1729   17.5327  -63.1876 H   0  0  0  0  0  0  0  0  0  0  0  0
  -54.1276   14.8196  -62.0168 H   0  0  0  0  0  0  0  0  0  0  0  0
  -55.3641   15.4182  -64.6213 H   0  0  0  0  0  0  0  0  0  0  0  0
  -52.5093   14.6272  -64.3977 H   0  0  0  0  0  0  0  0  0  0  0  0
  -54.2811   14.0988  -66.4879 H   0  0  0  0  0  0  0  0  0  0  0  0
  -54.0335   15.8004  -66.9262 H   0  0  0  0  0  0  0  0  0  0  0  0
  -53.8243   16.5187  -60.6381 H   0  0  0  0  0  0  0  0  0  0  0  0
  -55.9032   15.9642  -61.4453 H   0  0  0  0  0  0  0  0  0  0  0  0
  -51.6854   14.4013  -66.3171 H   0  0  0  0  0  0  0  0  0  0  0  0
  1  2  1  0
  2  3  1  0
  3  4  1  0
  4  5  1  0
  5  6  1  0
  1  7  1  0
  5  7  2  0
  2  8  1  0
  3  9  1  0
  4 10  1  0
  6 11  1  0
 12 13  1  0
 13 14  1  0
 14 15  1  0
 15 16  1  0
 16 17  1  0
  1 18  1  0
 15 18  1  0
 13 19  1  0
 14 20  1  0
 12 21  1  0
 16 21  1  0
 22 23  1  0
 23 24  1  0
 24 25  1  0
 25 26  1  0
 26 27  1  0
 23 28  1  0
 24 29  1  0
 12 30  1  0
 25 30  1  0
 22 31  1  0
 26 31  1  0
 27 32  1  0
 33 34  1  0
 34 35  1  0
 35 36  1  0
 36 37  1  0
 37 38  1  0
 33 39  2  0
 34 40  1  0
 35 41  1  0
 22 42  1  0
 36 42  1  0
 33 43  1  0
 37 43  1  0
 38 44  1  0
  1 45  1  1
  2 46  1  1
  3 47  1  6
  4 48  1  1
  6 49  1  0
  6 50  1  0
  7 51  1  0
  8 52  1  0
  9 53  1  0
 10 54  1  0
 11 55  1  0
 12 56  1  6
 13 57  1  6
 14 58  1  1
 15 59  1  6
 16 60  1  1
 17 61  1  0
 17 62  1  0
 17 63  1  0
 18 64  1  0
 19 65  1  0
 20 66  1  0
 22 67  1  6
 23 68  1  6
 24 69  1  1
 25 70  1  6
 26 71  1  1
 27 72  1  0
 27 73  1  0
 28 74  1  0
 29 75  1  0
 32 76  1  0
 34 77  1  6
 35 78  1  1
 36 79  1  6
 37 80  1  1
 38 81  1  0
 38 82  1  0
 40 83  1  0
 41 84  1  0
 44 85  1  0
M  END
$$$$
