PDB_DB01201_98
     RDKit          3D

127132  0  0  0  0  0  0  0  0999 V2000
  135.9050  122.6650   40.6800 C   0  0  0  0  0  0  0  0  0  0  0  0
  136.3220  121.2620   40.2790 C   0  0  0  0  0  0  0  0  0  0  0  0
  137.7460  120.8610   40.3140 C   0  0  0  0  0  0  0  0  0  0  0  0
  138.7480  121.7700   40.8740 C   0  0  0  0  0  0  0  0  0  0  0  0
  139.4370  124.1200   41.8360 C   0  0  0  0  0  0  0  0  0  0  0  0
  139.0210  125.4880   42.1530 C   0  0  0  0  0  0  0  0  0  0  0  0
  137.6940  126.0070   42.1450 C   0  0  0  0  0  0  0  0  0  0  0  0
  136.5880  125.0540   41.7020 C   0  0  0  0  0  0  0  0  0  0  0  0
  136.9600  123.5960   41.2360 C   0  0  0  0  0  0  0  0  0  0  0  0
  138.4130  123.1080   41.3190 C   0  0  0  0  0  0  0  0  0  0  0  0
  140.8150  124.0550   42.0770 C   0  0  0  0  0  0  0  0  0  0  0  0
  141.3210  125.4440   42.3840 C   0  0  2  0  0  0  0  0  0  0  0  0
  142.1120  125.5340   43.6680 C   0  0  0  0  0  0  0  0  0  0  0  0
  137.3390  127.4160   42.5370 C   0  0  0  0  0  0  0  0  0  0  0  0
  134.0880  120.0200   40.0560 C   0  0  0  0  0  0  0  0  0  0  0  0
  133.6100  118.7330   39.3970 C   0  0  0  0  0  0  0  0  0  0  0  0
  133.3900  118.5470   38.0410 C   0  0  0  0  0  0  0  0  0  0  0  0
  133.5510  119.4630   36.8910 C   0  0  0  0  0  0  0  0  0  0  0  0
  134.4580  119.2610   35.9390 C   0  0  0  0  0  0  0  0  0  0  0  0
  134.7420  120.0970   34.7220 C   0  0  1  0  0  0  0  0  0  0  0  0
  135.7650  121.2750   35.0230 C   0  0  1  0  0  0  0  0  0  0  0  0
  136.7330  121.8420   33.9010 C   0  0  2  0  0  0  0  0  0  0  0  0
  137.6980  122.9770   34.3550 C   0  0  2  0  0  0  0  0  0  0  0  0
  138.7500  122.7570   35.5070 C   0  0  2  0  0  0  0  0  0  0  0  0
  139.5850  124.1240   35.7600 C   0  0  1  0  0  0  0  0  0  0  0  0
  139.9110  124.5040   37.2480 C   0  0  1  0  0  0  0  0  0  0  0  0
  140.7920  125.8190   37.4230 C   0  0  2  0  0  0  0  0  0  0  0  0
  141.1270  126.2010   38.9290 C   0  0  0  0  0  0  0  0  0  0  0  0
  142.0060  125.5620   39.7460 C   0  0  0  0  0  0  0  0  0  0  0  0
  133.3950  117.6310   40.3810 C   0  0  0  0  0  0  0  0  0  0  0  0
  135.2110  119.0380   33.6680 C   0  0  0  0  0  0  0  0  0  0  0  0
  135.9510  122.3790   32.6420 C   0  0  0  0  0  0  0  0  0  0  0  0
  139.7020  121.5540   35.2310 C   0  0  0  0  0  0  0  0  0  0  0  0
  138.5700  124.6590   37.9430 C   0  0  0  0  0  0  0  0  0  0  0  0
  140.9310  124.9090   33.8050 C   0  0  0  0  0  0  0  0  0  0  0  0
  142.2480  124.7610   33.1840 C   0  0  0  0  0  0  0  0  0  0  0  0
  140.2560  128.3220   37.1300 C   0  0  0  0  0  0  0  0  0  0  0  0
  139.1030  113.5300   36.8880 C   0  0  0  0  0  0  0  0  0  0  0  0
  139.7310  115.5620   38.5380 C   0  0  0  0  0  0  0  0  0  0  0  0
  139.0970  116.6230   39.4470 C   0  0  0  0  0  0  0  0  0  0  0  0
  137.0110  116.7730   37.9600 C   0  0  0  0  0  0  0  0  0  0  0  0
  137.5800  115.7190   37.0080 C   0  0  0  0  0  0  0  0  0  0  0  0
  138.2950  119.5850   39.7260 C   0  0  0  0  0  0  0  0  0  0  0  0
  140.4730  112.9320   37.2360 C   0  0  0  0  0  0  0  0  0  0  0  0
  139.1940  113.7330   35.3490 C   0  0  0  0  0  0  0  0  0  0  0  0
  140.6360  111.9300   36.1300 C   0  0  0  0  0  0  0  0  0  0  0  0
  140.3150  112.7560   34.8890 C   0  0  0  0  0  0  0  0  0  0  0  0
  135.3970  120.2600   39.8070 N   0  0  0  0  0  0  0  0  0  0  0  0
  137.5660  118.6850   39.1700 N   0  0  0  0  0  0  0  0  0  0  0  0
  138.1590  117.5060   38.6080 N   0  0  0  0  0  0  0  0  0  0  0  0
  138.5890  114.7550   37.7730 N   0  0  0  0  0  0  0  0  0  0  0  0
  134.6500  123.0800   40.5130 O   0  0  0  0  0  0  0  0  0  0  0  0
  135.3680  125.4300   41.7030 O   0  0  0  0  0  0  0  0  0  0  0  0
  140.1000  126.2750   42.4660 O   0  0  0  0  0  0  0  0  0  0  0  0
  141.6420  123.1020   42.0270 O   0  0  0  0  0  0  0  0  0  0  0  0
  142.2440  125.9710   41.2160 O   0  0  0  0  0  0  0  0  0  0  0  0
  140.0080  126.9330   36.6770 O   0  0  0  0  0  0  0  0  0  0  0  0
  140.8080  124.1210   34.9440 O   0  0  0  0  0  0  0  0  0  0  0  0
  140.0560  125.6110   33.3950 O   0  0  0  0  0  0  0  0  0  0  0  0
  136.9370  124.1480   34.7330 O   0  0  0  0  0  0  0  0  0  0  0  0
  134.9610  122.3210   35.5840 O   0  0  0  0  0  0  0  0  0  0  0  0
  133.3400  120.6910   40.7110 O   0  0  0  0  0  0  0  0  0  0  0  0
  140.0480  121.2630   40.9060 O   0  0  0  0  0  0  0  0  0  0  0  0
  141.4282  125.4562   44.5261 H   0  0  0  0  0  0  0  0  0  0  0  0
  142.8434  124.7133   43.7064 H   0  0  0  0  0  0  0  0  0  0  0  0
  142.6403  126.4981   43.7064 H   0  0  0  0  0  0  0  0  0  0  0  0
  137.3185  127.4973   43.6338 H   0  0  0  0  0  0  0  0  0  0  0  0
  138.0904  128.1097   42.1319 H   0  0  0  0  0  0  0  0  0  0  0  0
  136.3486  127.6708   42.1319 H   0  0  0  0  0  0  0  0  0  0  0  0
  133.0330  117.5416   37.7733 H   0  0  0  0  0  0  0  0  0  0  0  0
  132.8964  120.3442   36.8202 H   0  0  0  0  0  0  0  0  0  0  0  0
  135.0829  118.3636   36.0579 H   0  0  0  0  0  0  0  0  0  0  0  0
  133.8751  120.6611   34.3476 H   0  0  0  0  0  0  0  0  0  0  0  0
  136.5314  120.8295   35.6743 H   0  0  0  0  0  0  0  0  0  0  0  0
  137.3376  120.9573   33.6525 H   0  0  0  0  0  0  0  0  0  0  0  0
  138.3161  123.0534   33.4483 H   0  0  0  0  0  0  0  0  0  0  0  0
  138.1938  122.5009   36.4208 H   0  0  0  0  0  0  0  0  0  0  0  0
  138.8927  124.9197   35.4475 H   0  0  0  0  0  0  0  0  0  0  0  0
  140.5330  123.7105   37.6878 H   0  0  0  0  0  0  0  0  0  0  0  0
  141.7953  125.6629   36.9999 H   0  0  0  0  0  0  0  0  0  0  0  0
  140.5959  127.0667   39.3514 H   0  0  0  0  0  0  0  0  0  0  0  0
  142.5752  124.7126   39.3403 H   0  0  0  0  0  0  0  0  0  0  0  0
  133.4731  118.0312   41.4026 H   0  0  0  0  0  0  0  0  0  0  0  0
  132.3952  117.1969   40.2327 H   0  0  0  0  0  0  0  0  0  0  0  0
  134.1583  116.8529   40.2327 H   0  0  0  0  0  0  0  0  0  0  0  0
  135.6035  118.1518   34.1882 H   0  0  0  0  0  0  0  0  0  0  0  0
  134.3583  118.7455   33.0377 H   0  0  0  0  0  0  0  0  0  0  0  0
  136.0007  119.4728   33.0377 H   0  0  0  0  0  0  0  0  0  0  0  0
  135.0863  122.9728   32.9733 H   0  0  0  0  0  0  0  0  0  0  0  0
  136.6189  123.0099   32.0371 H   0  0  0  0  0  0  0  0  0  0  0  0
  135.6021  121.5291   32.0371 H   0  0  0  0  0  0  0  0  0  0  0  0
  140.0399  121.1270   36.1868 H   0  0  0  0  0  0  0  0  0  0  0  0
  139.1647  120.7857   34.6557 H   0  0  0  0  0  0  0  0  0  0  0  0
  140.5733  121.9004   34.6557 H   0  0  0  0  0  0  0  0  0  0  0  0
  138.7177  124.6419   39.0329 H   0  0  0  0  0  0  0  0  0  0  0  0
  138.1135  125.6159   37.6498 H   0  0  0  0  0  0  0  0  0  0  0  0
  137.9072  123.8315   37.6498 H   0  0  0  0  0  0  0  0  0  0  0  0
  143.0152  124.6748   33.9675 H   0  0  0  0  0  0  0  0  0  0  0  0
  142.2590  123.8560   32.5589 H   0  0  0  0  0  0  0  0  0  0  0  0
  142.4596  125.6410   32.5589 H   0  0  0  0  0  0  0  0  0  0  0  0
  140.2616  128.3536   38.2295 H   0  0  0  0  0  0  0  0  0  0  0  0
  141.2294  128.6639   36.7484 H   0  0  0  0  0  0  0  0  0  0  0  0
  139.4611  128.9796   36.7484 H   0  0  0  0  0  0  0  0  0  0  0  0
  138.2745  112.8606   37.1626 H   0  0  0  0  0  0  0  0  0  0  0  0
  140.3852  116.0542   37.8033 H   0  0  0  0  0  0  0  0  0  0  0  0
  140.3210  114.8643   39.1505 H   0  0  0  0  0  0  0  0  0  0  0  0
  138.5229  116.1294   40.2450 H   0  0  0  0  0  0  0  0  0  0  0  0
  139.8848  117.2432   39.8994 H   0  0  0  0  0  0  0  0  0  0  0  0
  136.3883  117.4836   37.3967 H   0  0  0  0  0  0  0  0  0  0  0  0
  136.3918  116.2891   38.7297 H   0  0  0  0  0  0  0  0  0  0  0  0
  136.7536  115.1220   36.5949 H   0  0  0  0  0  0  0  0  0  0  0  0
  138.1237  116.2298   36.1996 H   0  0  0  0  0  0  0  0  0  0  0  0
  139.3807  119.4155   39.7761 H   0  0  0  0  0  0  0  0  0  0  0  0
  141.2652  113.6947   37.2104 H   0  0  0  0  0  0  0  0  0  0  0  0
  140.5385  112.5058   38.2480 H   0  0  0  0  0  0  0  0  0  0  0  0
  138.2378  113.4813   34.8670 H   0  0  0  0  0  0  0  0  0  0  0  0
  139.4134  114.7764   35.0784 H   0  0  0  0  0  0  0  0  0  0  0  0
  141.6643  111.5410   36.0940 H   0  0  0  0  0  0  0  0  0  0  0  0
  139.9969  111.0420   36.2440 H   0  0  0  0  0  0  0  0  0  0  0  0
  139.9570  112.1098   34.0740 H   0  0  0  0  0  0  0  0  0  0  0  0
  141.1971  113.2856   34.4999 H   0  0  0  0  0  0  0  0  0  0  0  0
  135.8183  119.5914   39.1463 H   0  0  0  0  0  0  0  0  0  0  0  0
  134.3927  123.9981   40.7793 H   0  0  0  0  0  0  0  0  0  0  0  0
  134.6571  124.8047   41.4139 H   0  0  0  0  0  0  0  0  0  0  0  0
  136.8963  124.2106   35.7202 H   0  0  0  0  0  0  0  0  0  0  0  0
  134.9985  122.2722   36.5721 H   0  0  0  0  0  0  0  0  0  0  0  0
  140.7855  121.8143   41.2697 H   0  0  0  0  0  0  0  0  0  0  0  0
  1  2  1  0
  2  3  2  0
  3  4  1  0
  5  6  2  0
  6  7  1  0
  7  8  2  0
  1  9  2  0
  8  9  1  0
  4 10  2  0
  5 10  1  0
  9 10  1  0
  5 11  1  0
 11 12  1  0
 12 13  1  1
  7 14  1  0
 15 16  1  0
 16 17  2  0
 17 18  1  0
 18 19  2  0
 19 20  1  0
 20 21  1  0
 21 22  1  0
 22 23  1  0
 23 24  1  0
 24 25  1  0
 25 26  1  0
 26 27  1  0
 27 28  1  0
 28 29  2  0
 16 30  1  0
 20 31  1  0
 22 32  1  0
 24 33  1  0
 26 34  1  0
 35 36  1  0
 39 40  1  0
 41 42  1  0
  3 43  1  0
 38 44  1  0
 38 45  1  0
 44 46  1  0
 45 47  1  0
 46 47  1  0
  2 48  1  0
 15 48  1  0
 43 49  2  0
 40 50  1  0
 41 50  1  0
 49 50  1  0
 38 51  1  0
 39 51  1  0
 42 51  1  0
  1 52  1  0
  8 53  1  0
  6 54  1  0
 12 54  1  0
 11 55  2  0
 12 56  1  0
 29 56  1  0
 27 57  1  0
 37 57  1  0
 25 58  1  0
 35 58  1  0
 35 59  2  0
 23 60  1  0
 21 61  1  0
 15 62  2  0
  4 63  1  0
 13 64  1  0
 13 65  1  0
 13 66  1  0
 14 67  1  0
 14 68  1  0
 14 69  1  0
 17 70  1  0
 18 71  1  0
 19 72  1  0
 20 73  1  6
 21 74  1  1
 22 75  1  6
 23 76  1  6
 24 77  1  1
 25 78  1  6
 26 79  1  1
 27 80  1  6
 28 81  1  0
 29 82  1  0
 30 83  1  0
 30 84  1  0
 30 85  1  0
 31 86  1  0
 31 87  1  0
 31 88  1  0
 32 89  1  0
 32 90  1  0
 32 91  1  0
 33 92  1  0
 33 93  1  0
 33 94  1  0
 34 95  1  0
 34 96  1  0
 34 97  1  0
 36 98  1  0
 36 99  1  0
 36100  1  0
 37101  1  0
 37102  1  0
 37103  1  0
 38104  1  0
 39105  1  0
 39106  1  0
 40107  1  0
 40108  1  0
 41109  1  0
 41110  1  0
 42111  1  0
 42112  1  0
 43113  1  0
 44114  1  0
 44115  1  0
 45116  1  0
 45117  1  0
 46118  1  0
 46119  1  0
 47120  1  0
 47121  1  0
 48122  1  0
 52123  1  0
 53124  1  0
 60125  1  0
 61126  1  0
 63127  1  0
M  END
$$$$
