PDB_DB04787_99
     RDKit          3D

104108  0  0  0  0  0  0  0  0999 V2000
   13.9170   16.3870   23.1170 C   0  0  0  0  0  0  0  0  0  0  0  0
   14.1570   14.9140   23.5410 C   0  0  2  0  0  0  0  0  0  0  0  0
   14.4320   14.8910   25.0270 C   0  0  1  0  0  0  0  0  0  0  0  0
   13.4220   15.0410   26.0090 C   0  0  0  0  0  0  0  0  0  0  0  0
   13.7220   15.0260   27.3760 C   0  0  1  0  0  0  0  0  0  0  0  0
   15.0530   14.9410   27.7950 C   0  0  0  0  0  0  0  0  0  0  0  0
   16.0760   14.8050   26.8570 C   0  0  0  0  0  0  0  0  0  0  0  0
   15.7540   14.7770   25.4950 C   0  0  0  0  0  0  0  0  0  0  0  0
   16.8000   14.6390   24.6000 N   0  0  0  0  0  0  0  0  0  0  0  0
   16.5790   14.6080   23.2480 C   0  0  0  0  0  0  0  0  0  0  0  0
   17.7710   14.4990   22.1450 S   0  0  0  0  0  0  0  0  0  0  0  0
   15.3490   14.6660   22.7250 O   0  0  0  0  0  0  0  0  0  0  0  0
   12.6120   15.2640   28.2980 C   0  0  2  0  0  0  0  0  0  0  0  0
   11.2380   14.9770   28.1640 C   0  0  0  0  0  0  0  0  0  0  0  0
   10.5960   15.5690   29.2830 C   0  0  0  0  0  0  0  0  0  0  0  0
   11.5500   16.1990   30.0470 C   0  0  0  0  0  0  0  0  0  0  0  0
   12.7780   16.0510   29.4440 N   0  0  0  0  0  0  0  0  0  0  0  0
   14.0210   16.6250   30.0040 C   0  0  0  0  0  0  0  0  0  0  0  0
   11.3960   16.9050   31.2610 C   0  0  0  0  0  0  0  0  0  0  0  0
   11.3320   17.5040   32.2390 N   0  0  0  0  0  0  0  0  0  0  0  0
   13.0610   13.9700   23.0370 C   0  0  0  0  0  0  0  0  0  0  0  0
   27.9100   -8.7070   13.2440 C   0  0  0  0  0  0  0  0  0  0  0  0
   27.0420   -7.6010   12.6150 C   0  0  2  0  0  0  0  0  0  0  0  0
   27.5070   -7.3030   11.2130 C   0  0  0  0  0  0  0  0  0  0  0  0
   27.2660   -8.1820   10.1470 C   0  0  0  0  0  0  0  0  0  0  0  0
   27.7170   -7.8830    8.8510 C   0  0  1  0  0  0  0  0  0  0  0  0
   28.4620   -6.7160    8.6060 C   0  0  0  0  0  0  0  0  0  0  0  0
   28.7080   -5.8390    9.6620 C   0  0  0  0  0  0  0  0  0  0  0  0
   28.2110   -6.1310   10.9450 C   0  0  0  0  0  0  0  0  0  0  0  0
   28.4590   -5.2270   11.9780 N   0  0  0  0  0  0  0  0  0  0  0  0
   28.0470   -5.4560   13.2670 C   0  0  0  0  0  0  0  0  0  0  0  0
   28.3710   -4.4440   14.5110 S   0  0  0  0  0  0  0  0  0  0  0  0
   27.3360   -6.5590   13.5750 O   0  0  0  0  0  0  0  0  0  0  0  0
   27.4520   -8.9030    7.8370 C   0  0  1  0  0  0  0  0  0  0  0  0
   26.3970   -9.8090    7.7550 C   0  0  0  0  0  0  0  0  0  0  0  0
   26.6740  -10.6270    6.6380 C   0  0  0  0  0  0  0  0  0  0  0  0
   27.8810  -10.2380    6.1080 C   0  0  0  0  0  0  0  0  0  0  0  0
   28.3410   -9.1820    6.8320 N   0  0  0  0  0  0  0  0  0  0  0  0
   29.6380   -8.5450    6.5510 C   0  0  0  0  0  0  0  0  0  0  0  0
   28.5950  -10.7450    4.9860 C   0  0  0  0  0  0  0  0  0  0  0  0
   29.2160  -11.1420    4.0840 N   0  0  0  0  0  0  0  0  0  0  0  0
   25.5470   -7.9140   12.6530 C   0  0  0  0  0  0  0  0  0  0  0  0
   13.8147   17.0148   24.0144 H   0  0  0  0  0  0  0  0  0  0  0  0
   14.7695   16.7397   22.5180 H   0  0  0  0  0  0  0  0  0  0  0  0
   12.9966   16.4508   22.5180 H   0  0  0  0  0  0  0  0  0  0  0  0
   14.5830   15.9805   25.0159 H   0  0  0  0  0  0  0  0  0  0  0  0
   12.9358   16.0072   25.8088 H   0  0  0  0  0  0  0  0  0  0  0  0
   12.8347   14.1191   25.8862 H   0  0  0  0  0  0  0  0  0  0  0  0
   13.6508   13.9283   27.3796 H   0  0  0  0  0  0  0  0  0  0  0  0
   15.2650   15.8582   28.3641 H   0  0  0  0  0  0  0  0  0  0  0  0
   15.0839   13.9861   28.3401 H   0  0  0  0  0  0  0  0  0  0  0  0
   16.7643   15.6498   27.0073 H   0  0  0  0  0  0  0  0  0  0  0  0
   16.4777   13.7997   27.0517 H   0  0  0  0  0  0  0  0  0  0  0  0
   15.8656   15.8702   25.4461 H   0  0  0  0  0  0  0  0  0  0  0  0
   17.4383   15.4286   24.7733 H   0  0  0  0  0  0  0  0  0  0  0  0
   16.6459   15.7054   23.2119 H   0  0  0  0  0  0  0  0  0  0  0  0
   18.9771   14.3887   22.7854 H   0  0  0  0  0  0  0  0  0  0  0  0
   13.0608   14.3569   27.8670 H   0  0  0  0  0  0  0  0  0  0  0  0
   10.8484   15.4075   27.2297 H   0  0  0  0  0  0  0  0  0  0  0  0
   11.0580   13.8924   28.1275 H   0  0  0  0  0  0  0  0  0  0  0  0
    9.8515   16.3022   28.9393 H   0  0  0  0  0  0  0  0  0  0  0  0
   10.0844   14.7976   29.8773 H   0  0  0  0  0  0  0  0  0  0  0  0
   11.7141   15.2682   30.6097 H   0  0  0  0  0  0  0  0  0  0  0  0
   13.9727   16.6027   31.1027 H   0  0  0  0  0  0  0  0  0  0  0  0
   14.8839   16.0342   29.6629 H   0  0  0  0  0  0  0  0  0  0  0  0
   14.1308   17.6650   29.6629 H   0  0  0  0  0  0  0  0  0  0  0  0
   10.4635   17.3621   30.8984 H   0  0  0  0  0  0  0  0  0  0  0  0
   11.8246   16.0538   31.8104 H   0  0  0  0  0  0  0  0  0  0  0  0
   11.4007   16.8609   33.0406 H   0  0  0  0  0  0  0  0  0  0  0  0
   12.1052   18.1835   32.2767 H   0  0  0  0  0  0  0  0  0  0  0  0
   12.5401   13.5213   23.8957 H   0  0  0  0  0  0  0  0  0  0  0  0
   12.3418   14.5359   22.4267 H   0  0  0  0  0  0  0  0  0  0  0  0
   13.5141   13.1749   22.4267 H   0  0  0  0  0  0  0  0  0  0  0  0
   27.8552   -8.6371   14.3404 H   0  0  0  0  0  0  0  0  0  0  0  0
   27.5408   -9.6914   12.9204 H   0  0  0  0  0  0  0  0  0  0  0  0
   28.9539   -8.5824   12.9204 H   0  0  0  0  0  0  0  0  0  0  0  0
   28.4585   -7.8147   11.4198 H   0  0  0  0  0  0  0  0  0  0  0  0
   27.7232   -9.1434   10.4240 H   0  0  0  0  0  0  0  0  0  0  0  0
   26.1720   -8.1406   10.0398 H   0  0  0  0  0  0  0  0  0  0  0  0
   26.7865   -7.3302    8.6547 H   0  0  0  0  0  0  0  0  0  0  0  0
   29.4402   -7.0335    8.2156 H   0  0  0  0  0  0  0  0  0  0  0  0
   27.8263   -6.1348    7.9218 H   0  0  0  0  0  0  0  0  0  0  0  0
   29.8006   -5.7526    9.7560 H   0  0  0  0  0  0  0  0  0  0  0  0
   28.1541   -4.9331    9.3747 H   0  0  0  0  0  0  0  0  0  0  0  0
   29.1536   -6.6402   11.1943 H   0  0  0  0  0  0  0  0  0  0  0  0
   29.4817   -5.1122   12.0196 H   0  0  0  0  0  0  0  0  0  0  0  0
   28.9803   -6.0022   13.4683 H   0  0  0  0  0  0  0  0  0  0  0  0
   28.1620   -5.0969   15.6971 H   0  0  0  0  0  0  0  0  0  0  0  0
   28.0336   -9.6329    8.4192 H   0  0  0  0  0  0  0  0  0  0  0  0
   26.3429  -10.4169    8.6702 H   0  0  0  0  0  0  0  0  0  0  0  0
   25.4307   -9.2944    7.6484 H   0  0  0  0  0  0  0  0  0  0  0  0
   26.7275  -11.6799    6.9519 H   0  0  0  0  0  0  0  0  0  0  0  0
   25.8783  -10.5238    5.8855 H   0  0  0  0  0  0  0  0  0  0  0  0
   27.3602   -9.5461    5.4297 H   0  0  0  0  0  0  0  0  0  0  0  0
   30.1388   -8.2991    7.4990 H   0  0  0  0  0  0  0  0  0  0  0  0
   30.2682   -9.2361    5.9720 H   0  0  0  0  0  0  0  0  0  0  0  0
   29.4763   -7.6238    5.9720 H   0  0  0  0  0  0  0  0  0  0  0  0
   28.2358  -11.7621    5.2018 H   0  0  0  0  0  0  0  0  0  0  0  0
   28.3859   -9.8170    4.4336 H   0  0  0  0  0  0  0  0  0  0  0  0
   30.0326  -11.6640    4.4326 H   0  0  0  0  0  0  0  0  0  0  0  0
   28.6293  -11.7651    3.5109 H   0  0  0  0  0  0  0  0  0  0  0  0
   25.2135   -7.9838   13.6989 H   0  0  0  0  0  0  0  0  0  0  0  0
   24.9916   -7.1127   12.1437 H   0  0  0  0  0  0  0  0  0  0  0  0
   25.3596   -8.8708   12.1437 H   0  0  0  0  0  0  0  0  0  0  0  0
  2  1  1  6
  2  3  1  0
  3  4  1  0
  4  5  1  0
  5  6  1  0
  6  7  1  0
  3  8  1  0
  7  8  1  0
  8  9  1  0
  9 10  1  0
 10 11  1  0
  2 12  1  0
 10 12  1  0
  5 13  1  0
 13 14  1  0
 14 15  1  0
 15 16  1  0
 13 17  1  0
 16 17  1  0
 17 18  1  0
 16 19  1  0
 19 20  1  0
  2 21  1  0
 23 22  1  1
 23 24  1  0
 24 25  1  0
 25 26  1  0
 26 27  1  0
 27 28  1  0
 24 29  1  0
 28 29  1  0
 29 30  1  0
 30 31  1  0
 31 32  1  0
 23 33  1  0
 31 33  1  0
 26 34  1  0
 34 35  1  0
 35 36  1  0
 36 37  1  0
 34 38  1  0
 37 38  1  0
 38 39  1  0
 37 40  1  0
 40 41  1  0
 23 42  1  0
  1 43  1  0
  1 44  1  0
  1 45  1  0
  3 46  1  1
  4 47  1  0
  4 48  1  0
  5 49  1  1
  6 50  1  0
  6 51  1  0
  7 52  1  0
  7 53  1  0
  8 54  1  0
  9 55  1  0
 10 56  1  0
 11 57  1  0
 13 58  1  1
 14 59  1  0
 14 60  1  0
 15 61  1  0
 15 62  1  0
 16 63  1  0
 18 64  1  0
 18 65  1  0
 18 66  1  0
 19 67  1  0
 19 68  1  0
 20 69  1  0
 20 70  1  0
 21 71  1  0
 21 72  1  0
 21 73  1  0
 22 74  1  0
 22 75  1  0
 22 76  1  0
 24 77  1  0
 25 78  1  0
 25 79  1  0
 26 80  1  6
 27 81  1  0
 27 82  1  0
 28 83  1  0
 28 84  1  0
 29 85  1  0
 30 86  1  0
 31 87  1  0
 32 88  1  0
 34 89  1  6
 35 90  1  0
 35 91  1  0
 36 92  1  0
 36 93  1  0
 37 94  1  0
 39 95  1  0
 39 96  1  0
 39 97  1  0
 40 98  1  0
 40 99  1  0
 41100  1  0
 41101  1  0
 42102  1  0
 42103  1  0
 42104  1  0
M  END
>  <PDBID>  (1) 
1ZUC

>  <PDB ID>  (1) 
1ZUC

>  <Generic Name>  (1) 
Tanaproget

>  <Brand Name>  (1) 
nan

>  <DrugBank ID>  (1) 
DB04787

>  <ATC Codes>  (1) 
nan

>  <Ligand ID>  (1) 
T98

>  <Target Name>  (1) 
Progesterone receptor

>  <UniProt ID>  (1) 
P06401

>  <PDB ID.1>  (1) 
1ZUC

>  <Seq. Identity>  (1) 
97%

$$$$
