PDB_DB00841_99
     RDKit          3D

114116  0  0  0  0  0  0  0  0999 V2000
  -33.7660  -16.8350   25.3140 O   0  0  0  0  0  0  0  0  0  0  0  0
  -32.4660  -16.4570   25.2260 C   0  0  0  0  0  0  0  0  0  0  0  0
  -31.5250  -17.0630   26.0610 C   0  0  0  0  0  0  0  0  0  0  0  0
  -30.1860  -16.6850   25.9850 C   0  0  0  0  0  0  0  0  0  0  0  0
  -32.0840  -15.4730   24.3070 C   0  0  0  0  0  0  0  0  0  0  0  0
  -30.7370  -15.0880   24.2290 C   0  0  0  0  0  0  0  0  0  0  0  0
  -29.7880  -15.7000   25.0670 C   0  0  0  0  0  0  0  0  0  0  0  0
  -28.3300  -15.2850   24.9830 C   0  0  0  0  0  0  0  0  0  0  0  0
  -27.4190  -16.4870   25.1550 C   0  0  0  0  0  0  0  0  0  0  0  0
  -25.9800  -16.2530   24.7080 C   0  0  1  0  0  0  0  0  0  0  0  0
  -25.7930  -16.8260   23.3030 C   0  0  0  0  0  0  0  0  0  0  0  0
  -25.5360  -14.8690   24.8250 N   0  0  0  0  0  0  0  0  0  0  0  0
  -24.1160  -14.5860   25.0400 C   0  0  0  0  0  0  0  0  0  0  0  0
  -23.8870  -13.0910   25.2820 C   0  0  0  0  0  0  0  0  0  0  0  0
  -22.4480  -12.6630   25.5140 C   0  0  0  0  0  0  0  0  0  0  0  0
  -21.7860  -13.0280   26.6860 C   0  0  0  0  0  0  0  0  0  0  0  0
  -20.4670  -12.6220   26.9180 C   0  0  0  0  0  0  0  0  0  0  0  0
  -19.8030  -12.9810   28.0610 O   0  0  0  0  0  0  0  0  0  0  0  0
  -19.7850  -11.7900   25.9040 C   0  0  0  0  0  0  0  0  0  0  0  0
  -18.4930  -11.3950   26.1210 O   0  0  0  0  0  0  0  0  0  0  0  0
  -20.4780  -11.4320   24.7490 C   0  0  0  0  0  0  0  0  0  0  0  0
  -21.7960  -11.8650   24.5680 C   0  0  0  0  0  0  0  0  0  0  0  0
   19.1750  -13.4290   17.7850 O   0  0  0  0  0  0  0  0  0  0  0  0
   17.8660  -13.0720   17.7030 C   0  0  0  0  0  0  0  0  0  0  0  0
   17.3110  -12.6170   16.5010 C   0  0  0  0  0  0  0  0  0  0  0  0
   15.9680  -12.2520   16.4440 C   0  0  0  0  0  0  0  0  0  0  0  0
   17.0990  -13.1560   18.8510 C   0  0  0  0  0  0  0  0  0  0  0  0
   15.7560  -12.7800   18.7990 C   0  0  0  0  0  0  0  0  0  0  0  0
   15.1900  -12.3300   17.6050 C   0  0  0  0  0  0  0  0  0  0  0  0
   13.7340  -11.9340   17.5880 C   0  0  0  0  0  0  0  0  0  0  0  0
   12.8620  -13.1560   17.8690 C   0  0  0  0  0  0  0  0  0  0  0  0
   11.3740  -12.8460   17.7770 C   0  0  1  0  0  0  0  0  0  0  0  0
   10.5960  -14.1540   17.9680 C   0  0  0  0  0  0  0  0  0  0  0  0
   10.9560  -11.8240   18.7420 N   0  0  0  0  0  0  0  0  0  0  0  0
    9.6240  -11.2110   18.7020 C   0  0  0  0  0  0  0  0  0  0  0  0
    9.2190  -10.6120   20.0530 C   0  0  0  0  0  0  0  0  0  0  0  0
    7.7910  -10.0990   20.0690 C   0  0  0  0  0  0  0  0  0  0  0  0
    7.2410   -9.5000   18.9250 C   0  0  0  0  0  0  0  0  0  0  0  0
    5.9270   -9.0510   18.9640 C   0  0  0  0  0  0  0  0  0  0  0  0
    5.3140   -8.4710   17.9160 O   0  0  0  0  0  0  0  0  0  0  0  0
    5.1260   -9.1930   20.1860 C   0  0  0  0  0  0  0  0  0  0  0  0
    3.8550   -8.7080   20.1290 O   0  0  0  0  0  0  0  0  0  0  0  0
    5.6950   -9.7930   21.3110 C   0  0  0  0  0  0  0  0  0  0  0  0
    7.0300  -10.2220   21.2440 C   0  0  0  0  0  0  0  0  0  0  0  0
  -34.0241  -16.9100   26.2668 H   0  0  0  0  0  0  0  0  0  0  0  0
  -32.6403  -15.6808   25.9857 H   0  0  0  0  0  0  0  0  0  0  0  0
  -31.8502  -16.8768   27.0952 H   0  0  0  0  0  0  0  0  0  0  0  0
  -31.5147  -18.1079   25.7173 H   0  0  0  0  0  0  0  0  0  0  0  0
  -29.9005  -16.3229   26.9837 H   0  0  0  0  0  0  0  0  0  0  0  0
  -29.6863  -17.5928   25.6160 H   0  0  0  0  0  0  0  0  0  0  0  0
  -32.3712  -15.8375   23.3097 H   0  0  0  0  0  0  0  0  0  0  0  0
  -32.5915  -14.5675   24.6711 H   0  0  0  0  0  0  0  0  0  0  0  0
  -30.4127  -15.2697   23.1937 H   0  0  0  0  0  0  0  0  0  0  0  0
  -30.7485  -14.0438   24.5747 H   0  0  0  0  0  0  0  0  0  0  0  0
  -29.6180  -16.4769   24.3071 H   0  0  0  0  0  0  0  0  0  0  0  0
  -28.1411  -14.8264   24.0012 H   0  0  0  0  0  0  0  0  0  0  0  0
  -28.1205  -14.5646   25.7875 H   0  0  0  0  0  0  0  0  0  0  0  0
  -27.4085  -16.7617   26.2201 H   0  0  0  0  0  0  0  0  0  0  0  0
  -27.8230  -17.2829   24.5121 H   0  0  0  0  0  0  0  0  0  0  0  0
  -25.3200  -16.7905   25.4048 H   0  0  0  0  0  0  0  0  0  0  0  0
  -25.4525  -17.8695   23.3749 H   0  0  0  0  0  0  0  0  0  0  0  0
  -26.7498  -16.7890   22.7616 H   0  0  0  0  0  0  0  0  0  0  0  0
  -25.0422  -16.2317   22.7616 H   0  0  0  0  0  0  0  0  0  0  0  0
  -25.8086  -14.3917   23.9539 H   0  0  0  0  0  0  0  0  0  0  0  0
  -23.7649  -15.1506   25.9164 H   0  0  0  0  0  0  0  0  0  0  0  0
  -23.5579  -14.8859   24.1408 H   0  0  0  0  0  0  0  0  0  0  0  0
  -24.2614  -12.5472   24.4022 H   0  0  0  0  0  0  0  0  0  0  0  0
  -24.4181  -12.8589   26.2169 H   0  0  0  0  0  0  0  0  0  0  0  0
  -22.8005  -11.7414   26.0001 H   0  0  0  0  0  0  0  0  0  0  0  0
  -22.3864  -12.6371   27.5207 H   0  0  0  0  0  0  0  0  0  0  0  0
  -21.6922  -14.1193   26.5847 H   0  0  0  0  0  0  0  0  0  0  0  0
  -20.8345  -11.7132   27.4169 H   0  0  0  0  0  0  0  0  0  0  0  0
  -20.3282  -12.6971   28.8507 H   0  0  0  0  0  0  0  0  0  0  0  0
  -20.1473  -10.8809   26.4063 H   0  0  0  0  0  0  0  0  0  0  0  0
  -18.3230  -11.3430   27.0949 H   0  0  0  0  0  0  0  0  0  0  0  0
  -20.4963  -10.3326   24.7161 H   0  0  0  0  0  0  0  0  0  0  0  0
  -19.9270  -11.9491   23.9496 H   0  0  0  0  0  0  0  0  0  0  0  0
  -21.8077  -12.4320   23.6255 H   0  0  0  0  0  0  0  0  0  0  0  0
  -22.3605  -10.9230   24.6301 H   0  0  0  0  0  0  0  0  0  0  0  0
   19.4385  -13.5009   18.7366 H   0  0  0  0  0  0  0  0  0  0  0  0
   18.1310  -12.0388   17.9718 H   0  0  0  0  0  0  0  0  0  0  0  0
   17.8924  -11.7337   16.1980 H   0  0  0  0  0  0  0  0  0  0  0  0
   17.3579  -13.5035   15.8514 H   0  0  0  0  0  0  0  0  0  0  0  0
   15.9331  -11.2067   16.1032 H   0  0  0  0  0  0  0  0  0  0  0  0
   15.5202  -13.0040   15.7776 H   0  0  0  0  0  0  0  0  0  0  0  0
   17.1270  -14.2050   19.1807 H   0  0  0  0  0  0  0  0  0  0  0  0
   17.5533  -12.4151   19.5253 H   0  0  0  0  0  0  0  0  0  0  0  0
   15.1713  -13.6570   19.1136 H   0  0  0  0  0  0  0  0  0  0  0  0
   15.7257  -11.8855   19.4385 H   0  0  0  0  0  0  0  0  0  0  0  0
   14.9105  -13.3625   17.3484 H   0  0  0  0  0  0  0  0  0  0  0  0
   13.5539  -11.1716   18.3602 H   0  0  0  0  0  0  0  0  0  0  0  0
   13.4800  -11.5265   16.5983 H   0  0  0  0  0  0  0  0  0  0  0  0
   13.1050  -13.9387   17.1353 H   0  0  0  0  0  0  0  0  0  0  0  0
   13.0711  -13.4857   18.8974 H   0  0  0  0  0  0  0  0  0  0  0  0
   11.1564  -12.4231   16.7851 H   0  0  0  0  0  0  0  0  0  0  0  0
   10.4760  -14.3557   19.0427 H   0  0  0  0  0  0  0  0  0  0  0  0
    9.6051  -14.0630   17.4991 H   0  0  0  0  0  0  0  0  0  0  0  0
   11.1489  -14.9813   17.4991 H   0  0  0  0  0  0  0  0  0  0  0  0
   11.0470  -12.2538   19.6736 H   0  0  0  0  0  0  0  0  0  0  0  0
    9.6250  -10.4115   17.9465 H   0  0  0  0  0  0  0  0  0  0  0  0
    8.8982  -11.9988   18.4519 H   0  0  0  0  0  0  0  0  0  0  0  0
    9.3214  -11.3882   20.8256 H   0  0  0  0  0  0  0  0  0  0  0  0
    9.8796   -9.7534   20.2440 H   0  0  0  0  0  0  0  0  0  0  0  0
    8.1478   -9.1166   20.4119 H   0  0  0  0  0  0  0  0  0  0  0  0
    7.8709   -8.6317   18.6817 H   0  0  0  0  0  0  0  0  0  0  0  0
    7.2189  -10.3147   18.1862 H   0  0  0  0  0  0  0  0  0  0  0  0
    6.2741   -8.0650   19.3067 H   0  0  0  0  0  0  0  0  0  0  0  0
    4.6356   -7.8291   18.2444 H   0  0  0  0  0  0  0  0  0  0  0  0
    5.4843   -8.2132   20.5347 H   0  0  0  0  0  0  0  0  0  0  0  0
    3.5105   -8.5765   21.0477 H   0  0  0  0  0  0  0  0  0  0  0  0
    5.6296   -9.0657   22.1337 H   0  0  0  0  0  0  0  0  0  0  0  0
    5.1216  -10.7234   21.4361 H   0  0  0  0  0  0  0  0  0  0  0  0
    7.0230  -11.2926   21.4963 H   0  0  0  0  0  0  0  0  0  0  0  0
    7.5345   -9.5181   21.9222 H   0  0  0  0  0  0  0  0  0  0  0  0
  1  2  1  0
  2  3  1  0
  3  4  1  0
  2  5  1  0
  5  6  1  0
  4  7  1  0
  6  7  1  0
  7  8  1  0
  8  9  1  0
  9 10  1  0
 10 11  1  0
 10 12  1  0
 12 13  1  0
 13 14  1  0
 14 15  1  0
 15 16  1  0
 16 17  1  0
 17 18  1  0
 17 19  1  0
 19 20  1  0
 19 21  1  0
 15 22  1  0
 21 22  1  0
 23 24  1  0
 24 25  1  0
 25 26  1  0
 24 27  1  0
 27 28  1  0
 26 29  1  0
 28 29  1  0
 29 30  1  0
 30 31  1  0
 31 32  1  0
 32 33  1  0
 32 34  1  0
 34 35  1  0
 35 36  1  0
 36 37  1  0
 37 38  1  0
 38 39  1  0
 39 40  1  0
 39 41  1  0
 41 42  1  0
 41 43  1  0
 37 44  1  0
 43 44  1  0
  1 45  1  0
  2 46  1  0
  3 47  1  0
  3 48  1  0
  4 49  1  0
  4 50  1  0
  5 51  1  0
  5 52  1  0
  6 53  1  0
  6 54  1  0
  7 55  1  0
  8 56  1  0
  8 57  1  0
  9 58  1  0
  9 59  1  0
 10 60  1  1
 11 61  1  0
 11 62  1  0
 11 63  1  0
 12 64  1  0
 13 65  1  0
 13 66  1  0
 14 67  1  0
 14 68  1  0
 15 69  1  0
 16 70  1  0
 16 71  1  0
 17 72  1  0
 18 73  1  0
 19 74  1  0
 20 75  1  0
 21 76  1  0
 21 77  1  0
 22 78  1  0
 22 79  1  0
 23 80  1  0
 24 81  1  0
 25 82  1  0
 25 83  1  0
 26 84  1  0
 26 85  1  0
 27 86  1  0
 27 87  1  0
 28 88  1  0
 28 89  1  0
 29 90  1  0
 30 91  1  0
 30 92  1  0
 31 93  1  0
 31 94  1  0
 32 95  1  6
 33 96  1  0
 33 97  1  0
 33 98  1  0
 34 99  1  0
 35100  1  0
 35101  1  0
 36102  1  0
 36103  1  0
 37104  1  0
 38105  1  0
 38106  1  0
 39107  1  0
 40108  1  0
 41109  1  0
 42110  1  0
 43111  1  0
 43112  1  0
 44113  1  0
 44114  1  0
M  END
>  <PDBID>  (1) 
2Y00

>  <PDB ID>  (1) 
2Y00

>  <Generic Name>  (1) 
Dobutamine

>  <Brand Name>  (1) 
Dobutamine#Dobutamine 12.5mg/ml#Dobutamine Hydrochloride#Dobutamine Hydrochloride In Dextrose#Dobutamine Hydrochloride Injection USP#Dobutamine Hydrochloride Injection-12.5mg/ml#Dobutamine Injection Sdz#Dobutamine Injection USP#Dobutrex#Dobuject#Dobusafe#Dobutamin#Dobutan#Dobutel#Dobutil#Dopmin#Inotrex

>  <DrugBank ID>  (1) 
DB00841

>  <ATC Codes>  (1) 
C01CA07

>  <Ligand ID>  (1) 
Y00

>  <Target Name>  (1) 
Beta-1 adrenergic receptor

>  <UniProt ID>  (1) 
P08588

>  <PDB ID.1>  (1) 
2Y00

>  <Seq. Identity>  (1) 
63%

$$$$
