PDB_DB02546_97
     RDKit          3D

 39 39  0  0  0  0  0  0  0  0999 V2000
    0.9970  -30.1380  -42.7340 O   0  0  0  0  0  0  0  0  0  0  0  0
    0.0880  -32.5840  -43.3460 O   0  0  0  0  0  0  0  0  0  0  0  0
    1.2750  -31.2830  -41.9730 N   0  0  0  0  0  0  0  0  0  0  0  0
    0.7780  -32.4840  -42.3370 C   0  0  0  0  0  0  0  0  0  0  0  0
    1.1740  -33.6840  -41.5100 C   0  0  0  0  0  0  0  0  0  0  0  0
    0.0410  -34.2430  -40.6480 C   0  0  0  0  0  0  0  0  0  0  0  0
    0.6410  -35.2300  -39.6370 C   0  0  0  0  0  0  0  0  0  0  0  0
   -0.4510  -36.1020  -38.9860 C   0  0  0  0  0  0  0  0  0  0  0  0
    0.2100  -37.1890  -38.1310 C   0  0  0  0  0  0  0  0  0  0  0  0
   -0.8270  -38.2150  -37.6540 C   0  0  0  0  0  0  0  0  0  0  0  0
   -0.9970  -39.3090  -38.6860 C   0  0  0  0  0  0  0  0  0  0  0  0
   -1.9650  -39.2420  -39.4180 O   0  0  0  0  0  0  0  0  0  0  0  0
   -0.0710  -40.3130  -38.7690 N   0  0  0  0  0  0  0  0  0  0  0  0
   -0.0590  -41.4320  -39.6410 C   0  0  0  0  0  0  0  0  0  0  0  0
    1.1330  -42.1640  -39.7670 C   0  0  0  0  0  0  0  0  0  0  0  0
    1.1900  -43.3000  -40.5770 C   0  0  0  0  0  0  0  0  0  0  0  0
    0.0460  -43.7360  -41.2500 C   0  0  0  0  0  0  0  0  0  0  0  0
   -1.1560  -43.0330  -41.1170 C   0  0  0  0  0  0  0  0  0  0  0  0
   -1.2110  -41.8970  -40.3110 C   0  0  0  0  0  0  0  0  0  0  0  0
    0.8121  -29.3765  -42.1290 H   0  0  0  0  0  0  0  0  0  0  0  0
    1.8626  -31.2068  -41.1305 H   0  0  0  0  0  0  0  0  0  0  0  0
    1.5146  -34.4774  -42.1916 H   0  0  0  0  0  0  0  0  0  0  0  0
    1.9647  -33.3509  -40.8217 H   0  0  0  0  0  0  0  0  0  0  0  0
   -0.4586  -33.4217  -40.1133 H   0  0  0  0  0  0  0  0  0  0  0  0
   -0.6981  -34.7548  -41.2819 H   0  0  0  0  0  0  0  0  0  0  0  0
    1.3579  -35.8829  -40.1565 H   0  0  0  0  0  0  0  0  0  0  0  0
    1.1411  -34.6531  -38.8451 H   0  0  0  0  0  0  0  0  0  0  0  0
   -1.0920  -35.4738  -38.3501 H   0  0  0  0  0  0  0  0  0  0  0  0
   -1.0628  -36.5719  -39.7701 H   0  0  0  0  0  0  0  0  0  0  0  0
    0.9760  -37.7028  -38.7304 H   0  0  0  0  0  0  0  0  0  0  0  0
    0.6668  -36.7145  -37.2499 H   0  0  0  0  0  0  0  0  0  0  0  0
   -0.4884  -38.6595  -36.7065 H   0  0  0  0  0  0  0  0  0  0  0  0
   -1.7919  -37.7073  -37.5086 H   0  0  0  0  0  0  0  0  0  0  0  0
    0.7204  -40.2478  -38.1130 H   0  0  0  0  0  0  0  0  0  0  0  0
    2.0313  -41.8389  -39.2217 H   0  0  0  0  0  0  0  0  0  0  0  0
    2.1356  -43.8515  -40.6852 H   0  0  0  0  0  0  0  0  0  0  0  0
    0.0905  -44.6330  -41.8851 H   0  0  0  0  0  0  0  0  0  0  0  0
   -2.0564  -43.3761  -41.6476 H   0  0  0  0  0  0  0  0  0  0  0  0
   -2.1625  -41.3571  -40.1959 H   0  0  0  0  0  0  0  0  0  0  0  0
  1  3  1  0
  3  4  1  0
  4  2  2  0
  4  5  1  0
  5  6  1  0
  6  7  1  0
  7  8  1  0
  8  9  1  0
  9 10  1  0
 10 11  1  0
 11 12  2  0
 11 13  1  0
 13 14  1  0
 14 15  2  0
 15 16  1  0
 16 17  2  0
 17 18  1  0
 14 19  1  0
 18 19  2  0
  1 20  1  0
  3 21  1  0
  5 22  1  0
  5 23  1  0
  6 24  1  0
  6 25  1  0
  7 26  1  0
  7 27  1  0
  8 28  1  0
  8 29  1  0
  9 30  1  0
  9 31  1  0
 10 32  1  0
 10 33  1  0
 13 34  1  0
 15 35  1  0
 16 36  1  0
 17 37  1  0
 18 38  1  0
 19 39  1  0
M  END
$$$$
