PDB_DB01601_98
     RDKit          3D

 94 97  0  0  0  0  0  0  0  0999 V2000
    5.3550  -16.4940  -17.3880 C   0  0  0  0  0  0  0  0  0  0  0  0
    7.1810  -17.9060  -16.3700 C   0  0  0  0  0  0  0  0  0  0  0  0
    8.1370  -16.9120  -16.8990 N   0  0  0  0  0  0  0  0  0  0  0  0
    7.7660  -15.8860  -17.7000 C   0  0  0  0  0  0  0  0  0  0  0  0
    6.4440  -15.7130  -17.9600 N   0  0  0  0  0  0  0  0  0  0  0  0
   15.0010  -20.6720  -15.2640 C   0  0  0  0  0  0  0  0  0  0  0  0
   16.2970  -21.1360  -15.1910 C   0  0  0  0  0  0  0  0  0  0  0  0
   16.6200  -22.2150  -14.3630 C   0  0  0  0  0  0  0  0  0  0  0  0
   15.6090  -22.8130  -13.6190 C   0  0  0  0  0  0  0  0  0  0  0  0
   14.2900  -22.3490  -13.6890 C   0  0  0  0  0  0  0  0  0  0  0  0
   13.9770  -21.2640  -14.5180 C   0  0  0  0  0  0  0  0  0  0  0  0
    8.5990  -15.1510  -18.2070 O   0  0  0  0  0  0  0  0  0  0  0  0
    9.5600  -17.1760  -16.5720 C   0  0  2  0  0  0  0  0  0  0  0  0
   10.0350  -18.4130  -17.2760 C   0  0  0  0  0  0  0  0  0  0  0  0
   10.7510  -18.1740  -18.3790 N   0  0  0  0  0  0  0  0  0  0  0  0
   11.3260  -19.2370  -19.2530 C   0  0  1  0  0  0  0  0  0  0  0  0
    9.8060  -17.2710  -15.0490 C   0  0  0  0  0  0  0  0  0  0  0  0
   11.2730  -17.5360  -14.7110 C   0  0  0  0  0  0  0  0  0  0  0  0
    9.2700  -16.0380  -14.2960 C   0  0  0  0  0  0  0  0  0  0  0  0
    9.7790  -19.5400  -16.8360 O   0  0  0  0  0  0  0  0  0  0  0  0
    7.1320  -20.7430  -20.4720 C   0  0  0  0  0  0  0  0  0  0  0  0
    6.3530  -19.5860  -20.4440 C   0  0  0  0  0  0  0  0  0  0  0  0
    6.9430  -18.3120  -20.5200 C   0  0  0  0  0  0  0  0  0  0  0  0
    8.3410  -18.1720  -20.5720 C   0  0  0  0  0  0  0  0  0  0  0  0
    9.1270  -19.3190  -20.5630 C   0  0  0  0  0  0  0  0  0  0  0  0
    8.5450  -20.6020  -20.5190 C   0  0  0  0  0  0  0  0  0  0  0  0
   10.6170  -19.1520  -20.6220 C   0  0  0  0  0  0  0  0  0  0  0  0
   12.8070  -18.9690  -19.5040 C   0  0  0  0  0  0  0  0  0  0  0  0
   13.6990  -18.7180  -18.2880 C   0  0  1  0  0  0  0  0  0  0  0  0
   13.8770  -19.9230  -17.3830 C   0  0  1  0  0  0  0  0  0  0  0  0
   14.5820  -20.9910  -18.1200 N   0  0  0  0  0  0  0  0  0  0  0  0
   13.9330  -22.1590  -18.4080 C   0  0  0  0  0  0  0  0  0  0  0  0
   14.7300  -23.2240  -19.1200 C   0  0  0  0  0  0  0  0  0  0  0  0
   16.0560  -22.7710  -19.4160 O   0  0  0  0  0  0  0  0  0  0  0  0
   16.9460  -23.7580  -19.7400 C   0  0  0  0  0  0  0  0  0  0  0  0
   14.9960  -18.2990  -18.7190 O   0  0  0  0  0  0  0  0  0  0  0  0
   14.7380  -19.5010  -16.1910 C   0  0  0  0  0  0  0  0  0  0  0  0
   12.7680  -22.4620  -18.1530 O   0  0  0  0  0  0  0  0  0  0  0  0
   16.8490  -24.3830  -20.9930 C   0  0  0  0  0  0  0  0  0  0  0  0
   17.7390  -25.4060  -21.2980 C   0  0  0  0  0  0  0  0  0  0  0  0
   18.7080  -25.8360  -20.3880 C   0  0  0  0  0  0  0  0  0  0  0  0
   18.7830  -25.2350  -19.1400 C   0  0  0  0  0  0  0  0  0  0  0  0
   17.9080  -24.1810  -18.8110 C   0  0  0  0  0  0  0  0  0  0  0  0
   17.9730  -23.5370  -17.4460 C   0  0  0  0  0  0  0  0  0  0  0  0
   15.8330  -23.9850  -22.0580 C   0  0  0  0  0  0  0  0  0  0  0  0
    5.8420  -17.2030  -16.1170 C   0  0  0  0  0  0  0  0  0  0  0  0
    4.5181  -15.8259  -17.1366 H   0  0  0  0  0  0  0  0  0  0  0  0
    5.0203  -17.2444  -18.1194 H   0  0  0  0  0  0  0  0  0  0  0  0
    7.0432  -18.7152  -17.1023 H   0  0  0  0  0  0  0  0  0  0  0  0
    7.5641  -18.3376  -15.4335 H   0  0  0  0  0  0  0  0  0  0  0  0
    6.1890  -14.9640  -18.6194 H   0  0  0  0  0  0  0  0  0  0  0  0
   17.0837  -20.6531  -15.7893 H   0  0  0  0  0  0  0  0  0  0  0  0
   17.6544  -22.5840  -14.3012 H   0  0  0  0  0  0  0  0  0  0  0  0
   15.8494  -23.6642  -12.9650 H   0  0  0  0  0  0  0  0  0  0  0  0
   13.5019  -22.8348  -13.0949 H   0  0  0  0  0  0  0  0  0  0  0  0
   12.9462  -20.8852  -14.5809 H   0  0  0  0  0  0  0  0  0  0  0  0
   10.1463  -16.3172  -16.9308 H   0  0  0  0  0  0  0  0  0  0  0  0
   10.9164  -17.1921  -18.6425 H   0  0  0  0  0  0  0  0  0  0  0  0
   11.1953  -20.2166  -18.7700 H   0  0  0  0  0  0  0  0  0  0  0  0
    9.2327  -18.1425  -14.7000 H   0  0  0  0  0  0  0  0  0  0  0  0
   11.3992  -17.5588  -13.6185 H   0  0  0  0  0  0  0  0  0  0  0  0
   11.5781  -18.5038  -15.1356 H   0  0  0  0  0  0  0  0  0  0  0  0
   11.8974  -16.7361  -15.1356 H   0  0  0  0  0  0  0  0  0  0  0  0
    9.3445  -16.2094  -13.2120 H   0  0  0  0  0  0  0  0  0  0  0  0
    9.8651  -15.1542  -14.5692 H   0  0  0  0  0  0  0  0  0  0  0  0
    8.2178  -15.8703  -14.5692 H   0  0  0  0  0  0  0  0  0  0  0  0
    6.6644  -21.7386  -20.4581 H   0  0  0  0  0  0  0  0  0  0  0  0
    5.2595  -19.6718  -20.3611 H   0  0  0  0  0  0  0  0  0  0  0  0
    6.3047  -17.4163  -20.5390 H   0  0  0  0  0  0  0  0  0  0  0  0
    8.8037  -17.1751  -20.6189 H   0  0  0  0  0  0  0  0  0  0  0  0
    9.1861  -21.4959  -20.5211 H   0  0  0  0  0  0  0  0  0  0  0  0
   10.8351  -18.1674  -21.0612 H   0  0  0  0  0  0  0  0  0  0  0  0
   11.0016  -19.9873  -21.2256 H   0  0  0  0  0  0  0  0  0  0  0  0
   13.2136  -19.8422  -20.0353 H   0  0  0  0  0  0  0  0  0  0  0  0
   12.8276  -18.0227  -20.0644 H   0  0  0  0  0  0  0  0  0  0  0  0
   13.1839  -17.9414  -17.7036 H   0  0  0  0  0  0  0  0  0  0  0  0
   12.8965  -20.2914  -17.0470 H   0  0  0  0  0  0  0  0  0  0  0  0
   15.5593  -20.8562  -18.4160 H   0  0  0  0  0  0  0  0  0  0  0  0
   14.7908  -24.1153  -18.4782 H   0  0  0  0  0  0  0  0  0  0  0  0
   14.2243  -23.4607  -20.0678 H   0  0  0  0  0  0  0  0  0  0  0  0
   15.5632  -18.1158  -17.9285 H   0  0  0  0  0  0  0  0  0  0  0  0
   14.2149  -18.7111  -15.6321 H   0  0  0  0  0  0  0  0  0  0  0  0
   15.7027  -19.1330  -16.5704 H   0  0  0  0  0  0  0  0  0  0  0  0
   17.6788  -25.8907  -22.2836 H   0  0  0  0  0  0  0  0  0  0  0  0
   19.4046  -26.6432  -20.6585 H   0  0  0  0  0  0  0  0  0  0  0  0
   19.5261  -25.5816  -18.4068 H   0  0  0  0  0  0  0  0  0  0  0  0
   17.8947  -24.3130  -16.6703 H   0  0  0  0  0  0  0  0  0  0  0  0
   18.9294  -23.0047  -17.3369 H   0  0  0  0  0  0  0  0  0  0  0  0
   17.1422  -22.8243  -17.3369 H   0  0  0  0  0  0  0  0  0  0  0  0
   14.9142  -23.6251  -21.5719 H   0  0  0  0  0  0  0  0  0  0  0  0
   16.2535  -23.1851  -22.6852 H   0  0  0  0  0  0  0  0  0  0  0  0
   15.5983  -24.8577  -22.6852 H   0  0  0  0  0  0  0  0  0  0  0  0
    5.9693  -16.4607  -15.3153 H   0  0  0  0  0  0  0  0  0  0  0  0
    5.0961  -17.9563  -15.8234 H   0  0  0  0  0  0  0  0  0  0  0  0
  2  3  1  0
  3  4  1  0
  1  5  1  0
  4  5  1  0
  6  7  2  0
  7  8  1  0
  8  9  2  0
  9 10  1  0
  6 11  1  0
 10 11  2  0
  4 12  2  0
  3 13  1  0
 13 14  1  0
 14 15  1  0
 15 16  1  0
 13 17  1  0
 17 18  1  0
 17 19  1  0
 14 20  2  0
 21 22  2  0
 22 23  1  0
 23 24  2  0
 24 25  1  0
 21 26  1  0
 25 26  2  0
 16 27  1  0
 25 27  1  0
 16 28  1  0
 28 29  1  0
 29 30  1  0
 30 31  1  0
 31 32  1  0
 32 33  1  0
 33 34  1  0
 34 35  1  0
 29 36  1  0
  6 37  1  0
 30 37  1  0
 32 38  2  0
 35 39  2  0
 39 40  1  0
 40 41  2  0
 41 42  1  0
 35 43  1  0
 42 43  2  0
 43 44  1  0
 39 45  1  0
  1 46  1  0
  2 46  1  0
  1 47  1  0
  1 48  1  0
  2 49  1  0
  2 50  1  0
  5 51  1  0
  7 52  1  0
  8 53  1  0
  9 54  1  0
 10 55  1  0
 11 56  1  0
 13 57  1  6
 15 58  1  0
 16 59  1  1
 17 60  1  0
 18 61  1  0
 18 62  1  0
 18 63  1  0
 19 64  1  0
 19 65  1  0
 19 66  1  0
 21 67  1  0
 22 68  1  0
 23 69  1  0
 24 70  1  0
 26 71  1  0
 27 72  1  0
 27 73  1  0
 28 74  1  0
 28 75  1  0
 29 76  1  1
 30 77  1  1
 31 78  1  0
 33 79  1  0
 33 80  1  0
 36 81  1  0
 37 82  1  0
 37 83  1  0
 40 84  1  0
 41 85  1  0
 42 86  1  0
 44 87  1  0
 44 88  1  0
 44 89  1  0
 45 90  1  0
 45 91  1  0
 45 92  1  0
 46 93  1  0
 46 94  1  0
M  END
>  <PDBID>  (1) 
2O4S

>  <PDB ID>  (1) 
2O4S

>  <Generic Name>  (1) 
Lopinavir

>  <Brand Name>  (1) 
Kaletra#Lopinavir-ritonavir#Aluviran#Koletra

>  <DrugBank ID>  (1) 
DB01601

>  <ATC Codes>  (1) 
J05AR10

>  <Ligand ID>  (1) 
AB1

>  <Target Name>  (1) 
Pol polyprotein

>  <UniProt ID>  (1) 
Q72874

>  <PDB ID.1>  (1) 
2O4S

>  <Seq. Identity>  (1) 
98%

$$$$
