PDB_DB00205_98
     RDKit          3D

 84 86  0  0  0  0  0  0  0  0999 V2000
    2.4240   -1.7970    0.3350 N   0  0  0  0  0  0  0  0  0  0  0  0
    3.0380   -2.2150   -0.8020 C   0  0  1  0  0  0  0  0  0  0  0  0
    1.8430   -2.7720    1.0950 C   0  0  0  0  0  0  0  0  0  0  0  0
    1.8670   -4.1600    0.7880 C   0  0  0  0  0  0  0  0  0  0  0  0
    2.4790   -4.4960   -0.3900 C   0  0  1  0  0  0  0  0  0  0  0  0
    2.9790   -3.5270   -1.2070 N   0  0  0  0  0  0  0  0  0  0  0  0
    1.3090   -5.1380    1.7200 C   0  0  1  0  0  0  0  0  0  0  0  0
   -0.0500   -5.1380    2.1050 C   0  0  0  0  0  0  0  0  0  0  0  0
   -0.5340   -6.0670    3.0670 C   0  0  0  0  0  0  0  0  0  0  0  0
    0.4260   -6.9640    3.6340 C   0  0  0  0  0  0  0  0  0  0  0  0
    1.8110   -6.9680    3.3340 C   0  0  0  0  0  0  0  0  0  0  0  0
    2.1880   -6.0620    2.3300 C   0  0  0  0  0  0  0  0  0  0  0  0
    1.2210   -2.3370    2.2350 N   0  0  0  0  0  0  0  0  0  0  0  0
    3.6380   -1.3800   -1.5720 N   0  0  0  0  0  0  0  0  0  0  0  0
    2.5710   -5.9080   -0.9780 C   0  0  0  0  0  0  0  0  0  0  0  0
    4.0500   -6.3660   -1.0000 C   0  0  0  0  0  0  0  0  0  0  0  0
   -0.1810   -8.1160    4.7940 Cl  0  0  0  0  0  0  0  0  0  0  0  0
   10.5910   27.1860   36.9680 N   0  0  0  0  0  0  0  0  0  0  0  0
   11.6320   27.5410   37.7260 C   0  0  0  0  0  0  0  0  0  0  0  0
    9.7940   28.1200   36.4610 C   0  0  0  0  0  0  0  0  0  0  0  0
   10.0810   29.5060   36.6850 C   0  0  1  0  0  0  0  0  0  0  0  0
   11.1730   29.8220   37.4690 C   0  0  0  0  0  0  0  0  0  0  0  0
   11.9170   28.8310   38.0140 N   0  0  0  0  0  0  0  0  0  0  0  0
    9.2650   30.5320   36.0240 C   0  0  1  0  0  0  0  0  0  0  0  0
    7.9080   30.6600   36.2630 C   0  0  0  0  0  0  0  0  0  0  0  0
    7.0770   31.5560   35.5610 C   0  0  0  0  0  0  0  0  0  0  0  0
    7.6940   32.3170   34.5870 C   0  0  1  0  0  0  0  0  0  0  0  0
    9.0860   32.3030   34.3060 C   0  0  0  0  0  0  0  0  0  0  0  0
    9.7980   31.3630   35.0320 C   0  0  0  0  0  0  0  0  0  0  0  0
    8.7240   27.6960   35.7750 N   0  0  0  0  0  0  0  0  0  0  0  0
   12.4970   26.6470   38.2050 N   0  0  0  0  0  0  0  0  0  0  0  0
   11.6980   31.2360   37.8710 C   0  0  0  0  0  0  0  0  0  0  0  0
   13.0190   31.5510   37.1860 C   0  0  0  0  0  0  0  0  0  0  0  0
    6.7640   33.4460   33.6880 Cl  0  0  0  0  0  0  0  0  0  0  0  0
    3.1284   -1.3216    0.9170 H   0  0  0  0  0  0  0  0  0  0  0  0
    3.9511   -2.4330   -0.2287 H   0  0  0  0  0  0  0  0  0  0  0  0
    0.9098   -2.6617    0.5232 H   0  0  0  0  0  0  0  0  0  0  0  0
    0.9068   -4.0600    0.2606 H   0  0  0  0  0  0  0  0  0  0  0  0
    1.5116   -4.4352   -0.9100 H   0  0  0  0  0  0  0  0  0  0  0  0
    2.4064   -3.5428   -2.0630 H   0  0  0  0  0  0  0  0  0  0  0  0
    1.5476   -4.4717    2.5621 H   0  0  0  0  0  0  0  0  0  0  0  0
   -0.2635   -4.1348    2.5025 H   0  0  0  0  0  0  0  0  0  0  0  0
   -0.5648   -5.4495    1.1841 H   0  0  0  0  0  0  0  0  0  0  0  0
   -0.9798   -5.4912    3.8915 H   0  0  0  0  0  0  0  0  0  0  0  0
   -1.2406   -6.7082    2.5196 H   0  0  0  0  0  0  0  0  0  0  0  0
    0.2463   -7.6747    2.8139 H   0  0  0  0  0  0  0  0  0  0  0  0
    2.3628   -6.7147    4.2513 H   0  0  0  0  0  0  0  0  0  0  0  0
    2.0481   -7.9734    2.9558 H   0  0  0  0  0  0  0  0  0  0  0  0
    2.5877   -6.6770    1.5102 H   0  0  0  0  0  0  0  0  0  0  0  0
    2.8385   -5.3821    2.8998 H   0  0  0  0  0  0  0  0  0  0  0  0
    1.7275   -2.6912    3.0590 H   0  0  0  0  0  0  0  0  0  0  0  0
    1.2158   -1.3071    2.2517 H   0  0  0  0  0  0  0  0  0  0  0  0
    4.1380   -0.6841   -1.0005 H   0  0  0  0  0  0  0  0  0  0  0  0
    4.3115   -1.8839   -2.1665 H   0  0  0  0  0  0  0  0  0  0  0  0
    1.9822   -6.6013   -0.3594 H   0  0  0  0  0  0  0  0  0  0  0  0
    2.1748   -5.9030   -2.0041 H   0  0  0  0  0  0  0  0  0  0  0  0
    4.4143   -6.4788    0.0318 H   0  0  0  0  0  0  0  0  0  0  0  0
    4.1275   -7.3302   -1.5237 H   0  0  0  0  0  0  0  0  0  0  0  0
    4.6589   -5.6143   -1.5237 H   0  0  0  0  0  0  0  0  0  0  0  0
   10.9697   26.6531   36.1721 H   0  0  0  0  0  0  0  0  0  0  0  0
   12.2649   27.6016   36.8284 H   0  0  0  0  0  0  0  0  0  0  0  0
    9.1854   28.0980   37.3771 H   0  0  0  0  0  0  0  0  0  0  0  0
    9.4419   29.4937   37.5802 H   0  0  0  0  0  0  0  0  0  0  0  0
   10.5300   29.8300   38.3614 H   0  0  0  0  0  0  0  0  0  0  0  0
   11.8444   28.9314   39.0365 H   0  0  0  0  0  0  0  0  0  0  0  0
    9.0541   29.8338   35.2006 H   0  0  0  0  0  0  0  0  0  0  0  0
    7.4782   29.6606   36.1003 H   0  0  0  0  0  0  0  0  0  0  0  0
    7.9077   31.1082   37.2676 H   0  0  0  0  0  0  0  0  0  0  0  0
    6.2825   30.9692   35.0767 H   0  0  0  0  0  0  0  0  0  0  0  0
    6.7129   32.2731   36.3115 H   0  0  0  0  0  0  0  0  0  0  0  0
    7.8495   33.1251   35.3169 H   0  0  0  0  0  0  0  0  0  0  0  0
    9.2206   32.0878   33.2357 H   0  0  0  0  0  0  0  0  0  0  0  0
    9.4783   33.2900   34.5924 H   0  0  0  0  0  0  0  0  0  0  0  0
   10.6044   31.9255   35.5253 H   0  0  0  0  0  0  0  0  0  0  0  0
    9.9993   30.6214   34.2449 H   0  0  0  0  0  0  0  0  0  0  0  0
    7.9876   27.4042   36.4334 H   0  0  0  0  0  0  0  0  0  0  0  0
    8.3711   28.4608   35.1821 H   0  0  0  0  0  0  0  0  0  0  0  0
   12.4771   26.6675   39.2346 H   0  0  0  0  0  0  0  0  0  0  0  0
   12.2367   25.7066   37.8753 H   0  0  0  0  0  0  0  0  0  0  0  0
   10.9536   31.9911   37.5781 H   0  0  0  0  0  0  0  0  0  0  0  0
   11.8594   31.2498   38.9590 H   0  0  0  0  0  0  0  0  0  0  0  0
   13.7918   31.7353   37.9468 H   0  0  0  0  0  0  0  0  0  0  0  0
   13.3186   30.6991   36.5579 H   0  0  0  0  0  0  0  0  0  0  0  0
   12.9020   32.4464   36.5579 H   0  0  0  0  0  0  0  0  0  0  0  0
  1  2  1  0
  1  3  1  0
  3  4  1  0
  4  5  1  0
  2  6  1  0
  5  6  1  0
  4  7  1  0
  7  8  1  0
  8  9  1  0
  9 10  1  0
 10 11  1  0
  7 12  1  0
 11 12  1  0
  3 13  1  0
  2 14  1  0
  5 15  1  0
 15 16  1  0
 10 17  1  0
 18 19  1  0
 18 20  1  0
 20 21  1  0
 21 22  1  0
 19 23  1  0
 22 23  1  0
 21 24  1  0
 24 25  1  0
 25 26  1  0
 26 27  1  0
 27 28  1  0
 24 29  1  0
 28 29  1  0
 20 30  1  0
 19 31  1  0
 22 32  1  0
 32 33  1  0
 27 34  1  0
  1 35  1  0
  2 36  1  1
  3 37  1  0
  4 38  1  0
  5 39  1  1
  6 40  1  0
  7 41  1  6
  8 42  1  0
  8 43  1  0
  9 44  1  0
  9 45  1  0
 10 46  1  0
 11 47  1  0
 11 48  1  0
 12 49  1  0
 12 50  1  0
 13 51  1  0
 13 52  1  0
 14 53  1  0
 14 54  1  0
 15 55  1  0
 15 56  1  0
 16 57  1  0
 16 58  1  0
 16 59  1  0
 18 60  1  0
 19 61  1  0
 20 62  1  0
 21 63  1  1
 22 64  1  0
 23 65  1  0
 24 66  1  1
 25 67  1  0
 25 68  1  0
 26 69  1  0
 26 70  1  0
 27 71  1  6
 28 72  1  0
 28 73  1  0
 29 74  1  0
 29 75  1  0
 30 76  1  0
 30 77  1  0
 31 78  1  0
 31 79  1  0
 32 80  1  0
 32 81  1  0
 33 82  1  0
 33 83  1  0
 33 84  1  0
M  END
>  <PDBID>  (1) 
4KM0

>  <PDB ID>  (1) 
4KM0

>  <Generic Name>  (1) 
Pyrimethamine

>  <Brand Name>  (1) 
Daraprim#Fansidar Tablets#Pyrimethamine Leucovorin

>  <DrugBank ID>  (1) 
DB00205

>  <ATC Codes>  (1) 
P01BF04#P01BD01#P01BD51

>  <Ligand ID>  (1) 
CP6

>  <Target Name>  (1) 
Dihydrofolate reductase

>  <UniProt ID>  (1) 
P00374

>  <PDB ID.1>  (1) 
4KM0

>  <Seq. Identity>  (1) 
31%

$$$$
