PDB_DB00367_98
     RDKit          3D

 51 54  0  0  0  0  0  0  0  0999 V2000
   11.3710   16.3310    5.0690 C   0  0  0  0  0  0  0  0  0  0  0  0
   12.0410   16.4070    3.6760 C   0  0  0  0  0  0  0  0  0  0  0  0
   13.7030   16.4980    3.8530 C   0  0  0  0  0  0  0  0  0  0  0  0
   14.4490   15.7930    4.8700 C   0  0  0  0  0  0  0  0  0  0  0  0
   13.6630   15.1060    5.8620 C   0  0  0  0  0  0  0  0  0  0  0  0
   14.5040   14.2800    6.8690 C   0  0  0  0  0  0  0  0  0  0  0  0
   13.9980   14.0760    8.2630 C   0  0  0  0  0  0  0  0  0  0  0  0
   12.4160   14.0890    8.4710 C   0  0  2  0  0  0  0  0  0  0  0  0
   11.5850   15.1180    7.4880 C   0  0  1  0  0  0  0  0  0  0  0  0
   12.0400   15.1780    6.0370 C   0  0  1  0  0  0  0  0  0  0  0  0
   10.0480   15.3560    7.8310 C   0  0  0  0  0  0  0  0  0  0  0  0
    9.6890   15.2290    9.3030 C   0  0  0  0  0  0  0  0  0  0  0  0
   10.3260   13.9600   10.1310 C   0  0  1  0  0  0  0  0  0  0  0  0
   11.9280   13.9270    9.8870 C   0  0  1  0  0  0  0  0  0  0  0  0
   12.5460   13.0220   10.9730 C   0  0  0  0  0  0  0  0  0  0  0  0
   11.5060   12.9760   12.1290 C   0  0  0  0  0  0  0  0  0  0  0  0
   10.2950   13.9130   11.7680 C   0  0  1  0  0  0  0  0  0  0  0  0
    9.6330   12.6040    9.4680 C   0  0  0  0  0  0  0  0  0  0  0  0
    7.9600   12.5990    9.4770 C   0  0  0  0  0  0  0  0  0  0  0  0
   10.6940   15.3450   12.3590 C   0  0  0  0  0  0  0  0  0  0  0  0
   11.2050   16.6870   12.7530 C   0  0  0  0  0  0  0  0  0  0  0  0
   14.4010   17.1190    3.0670 O   0  0  0  0  0  0  0  0  0  0  0  0
    9.2270   13.4960   12.3450 O   0  0  0  0  0  0  0  0  0  0  0  0
   11.4752   17.3083    5.5629 H   0  0  0  0  0  0  0  0  0  0  0  0
   10.3155   16.0623    4.9147 H   0  0  0  0  0  0  0  0  0  0  0  0
   11.7837   15.5078    3.0971 H   0  0  0  0  0  0  0  0  0  0  0  0
   11.6816   17.3022    3.1475 H   0  0  0  0  0  0  0  0  0  0  0  0
   15.5488   15.7818    4.8855 H   0  0  0  0  0  0  0  0  0  0  0  0
   14.6388   13.2810    6.4287 H   0  0  0  0  0  0  0  0  0  0  0  0
   15.4081   14.8904    7.0104 H   0  0  0  0  0  0  0  0  0  0  0  0
   14.3700   13.1012    8.6113 H   0  0  0  0  0  0  0  0  0  0  0  0
   14.3667   14.9438    8.8295 H   0  0  0  0  0  0  0  0  0  0  0  0
   12.1038   13.1161    8.0635 H   0  0  0  0  0  0  0  0  0  0  0  0
   11.9514   16.1044    7.8086 H   0  0  0  0  0  0  0  0  0  0  0  0
   11.6045   14.2466    5.6460 H   0  0  0  0  0  0  0  0  0  0  0  0
    9.7780   16.3699    7.5006 H   0  0  0  0  0  0  0  0  0  0  0  0
    9.4913   14.5630    7.3102 H   0  0  0  0  0  0  0  0  0  0  0  0
   10.0214   16.1500    9.8042 H   0  0  0  0  0  0  0  0  0  0  0  0
    8.6030   15.0545    9.3133 H   0  0  0  0  0  0  0  0  0  0  0  0
   12.4695   14.8683   10.0625 H   0  0  0  0  0  0  0  0  0  0  0  0
   12.7215   12.0116   10.5752 H   0  0  0  0  0  0  0  0  0  0  0  0
   13.5169   13.4079   11.3171 H   0  0  0  0  0  0  0  0  0  0  0  0
   11.1473   11.9446   12.2612 H   0  0  0  0  0  0  0  0  0  0  0  0
   11.9745   13.3186   13.0634 H   0  0  0  0  0  0  0  0  0  0  0  0
    9.9704   12.5221    8.4242 H   0  0  0  0  0  0  0  0  0  0  0  0
    9.9498   11.7558   10.0927 H   0  0  0  0  0  0  0  0  0  0  0  0
    7.5989   12.5979   10.5160 H   0  0  0  0  0  0  0  0  0  0  0  0
    7.5879   13.4960    8.9604 H   0  0  0  0  0  0  0  0  0  0  0  0
    7.5932   11.6998    8.9604 H   0  0  0  0  0  0  0  0  0  0  0  0
   11.5825   17.6784   13.0441 H   0  0  0  0  0  0  0  0  0  0  0  0
    9.3433   13.5414   13.3271 H   0  0  0  0  0  0  0  0  0  0  0  0
  1  2  1  0
  2  3  1  0
  3  4  1  0
  4  5  2  0
  5  6  1  0
  6  7  1  0
  7  8  1  0
  8  9  1  0
  1 10  1  0
  5 10  1  0
  9 10  1  0
  9 11  1  0
 11 12  1  0
 12 13  1  0
  8 14  1  0
 13 14  1  0
 14 15  1  0
 15 16  1  0
 13 17  1  0
 16 17  1  0
 13 18  1  6
 18 19  1  0
 17 20  1  1
 20 21  3  0
  3 22  2  0
 17 23  1  0
  1 24  1  0
  1 25  1  0
  2 26  1  0
  2 27  1  0
  4 28  1  0
  6 29  1  0
  6 30  1  0
  7 31  1  0
  7 32  1  0
  8 33  1  6
  9 34  1  1
 10 35  1  6
 11 36  1  0
 11 37  1  0
 12 38  1  0
 12 39  1  0
 14 40  1  1
 15 41  1  0
 15 42  1  0
 16 43  1  0
 16 44  1  0
 18 45  1  0
 18 46  1  0
 19 47  1  0
 19 48  1  0
 19 49  1  0
 21 50  1  0
 23 51  1  0
M  END
$$$$
