PDB_DB00530_98
     RDKit          3D

 72 74  0  0  0  0  0  0  0  0999 V2000
   28.8170   13.9250   -4.6970 C   0  0  0  0  0  0  0  0  0  0  0  0
   28.0300   13.9580   -3.7760 C   0  0  0  0  0  0  0  0  0  0  0  0
   27.0440   14.0330   -2.6190 C   0  0  0  0  0  0  0  0  0  0  0  0
   26.5490   12.8650   -2.0880 C   0  0  0  0  0  0  0  0  0  0  0  0
   25.6430   12.8980   -1.0140 C   0  0  0  0  0  0  0  0  0  0  0  0
   25.1050   11.6290   -0.4490 N   0  0  0  0  0  0  0  0  0  0  0  0
   25.9670   10.4240   -0.2840 C   0  0  0  0  0  0  0  0  0  0  0  0
   25.4040    9.1370    0.0500 C   0  0  0  0  0  0  0  0  0  0  0  0
   24.0330    8.9340    0.2320 C   0  0  0  0  0  0  0  0  0  0  0  0
   23.5640    7.6590    0.5520 C   0  0  0  0  0  0  0  0  0  0  0  0
   22.2160    7.4350    0.7360 O   0  0  0  0  0  0  0  0  0  0  0  0
   21.2710    8.4350    0.5760 C   0  0  0  0  0  0  0  0  0  0  0  0
   20.2290    8.3600    1.6960 C   0  0  0  0  0  0  0  0  0  0  0  0
   19.9970    7.0090    2.0750 O   0  0  0  0  0  0  0  0  0  0  0  0
   20.0450    6.6450    3.4240 C   0  0  0  0  0  0  0  0  0  0  0  0
   24.4380    6.5920    0.6870 C   0  0  0  0  0  0  0  0  0  0  0  0
   23.9000    5.3280    1.0210 O   0  0  0  0  0  0  0  0  0  0  0  0
   24.5160    4.1220    0.7310 C   0  0  0  0  0  0  0  0  0  0  0  0
   23.6020    2.9880    1.2080 C   0  0  0  0  0  0  0  0  0  0  0  0
   23.2320    3.2050    2.5410 O   0  0  0  0  0  0  0  0  0  0  0  0
   21.8620    3.2770    2.8900 C   0  0  0  0  0  0  0  0  0  0  0  0
   25.8250    6.7670    0.5150 C   0  0  0  0  0  0  0  0  0  0  0  0
   26.3140    8.0350    0.1960 C   0  0  0  0  0  0  0  0  0  0  0  0
   27.6640    8.2470    0.0120 N   0  0  0  0  0  0  0  0  0  0  0  0
   28.1360    9.4610   -0.2900 C   0  0  0  0  0  0  0  0  0  0  0  0
   27.3380   10.5100   -0.4400 N   0  0  0  0  0  0  0  0  0  0  0  0
   25.2320   14.1450   -0.4830 C   0  0  0  0  0  0  0  0  0  0  0  0
   25.7320   15.3140   -1.0180 C   0  0  0  0  0  0  0  0  0  0  0  0
   26.6320   15.2870   -2.0800 C   0  0  0  0  0  0  0  0  0  0  0  0
   29.8426   13.8820   -4.3016 H   0  0  0  0  0  0  0  0  0  0  0  0
   28.6238   13.0342   -5.3127 H   0  0  0  0  0  0  0  0  0  0  0  0
   28.6990   14.8289   -5.3127 H   0  0  0  0  0  0  0  0  0  0  0  0
   27.3046   13.3786   -4.3659 H   0  0  0  0  0  0  0  0  0  0  0  0
   28.8636   13.8918   -3.0613 H   0  0  0  0  0  0  0  0  0  0  0  0
   26.2080   14.0625   -3.3333 H   0  0  0  0  0  0  0  0  0  0  0  0
   26.0453   12.3339   -2.9092 H   0  0  0  0  0  0  0  0  0  0  0  0
   27.4406   12.3967   -1.6456 H   0  0  0  0  0  0  0  0  0  0  0  0
   24.8034   12.9381   -1.7235 H   0  0  0  0  0  0  0  0  0  0  0  0
   24.7431   11.8581    0.4877 H   0  0  0  0  0  0  0  0  0  0  0  0
   26.0808   10.6519    0.7861 H   0  0  0  0  0  0  0  0  0  0  0  0
   25.5119    9.3675    1.1201 H   0  0  0  0  0  0  0  0  0  0  0  0
   23.7151    9.6050    1.0436 H   0  0  0  0  0  0  0  0  0  0  0  0
   23.6091    9.1227   -0.7653 H   0  0  0  0  0  0  0  0  0  0  0  0
   23.6721    7.8879    1.6225 H   0  0  0  0  0  0  0  0  0  0  0  0
   21.7696    9.4150    0.6082 H   0  0  0  0  0  0  0  0  0  0  0  0
   20.7676    8.3023   -0.3930 H   0  0  0  0  0  0  0  0  0  0  0  0
   20.5945    8.9223    2.5679 H   0  0  0  0  0  0  0  0  0  0  0  0
   19.2856    8.7929    1.3319 H   0  0  0  0  0  0  0  0  0  0  0  0
   19.9268    7.5416    4.0501 H   0  0  0  0  0  0  0  0  0  0  0  0
   19.2326    5.9361    3.6416 H   0  0  0  0  0  0  0  0  0  0  0  0
   21.0134    6.1709    3.6416 H   0  0  0  0  0  0  0  0  0  0  0  0
   24.5562    6.8241    1.7557 H   0  0  0  0  0  0  0  0  0  0  0  0
   24.6775    4.0382   -0.3538 H   0  0  0  0  0  0  0  0  0  0  0  0
   25.4903    4.0624    1.2382 H   0  0  0  0  0  0  0  0  0  0  0  0
   22.7000    2.9571    0.5792 H   0  0  0  0  0  0  0  0  0  0  0  0
   24.1402    2.0317    1.1318 H   0  0  0  0  0  0  0  0  0  0  0  0
   21.7625    3.2822    3.9855 H   0  0  0  0  0  0  0  0  0  0  0  0
   21.4266    4.1993    2.4779 H   0  0  0  0  0  0  0  0  0  0  0  0
   21.3323    2.4055    2.4779 H   0  0  0  0  0  0  0  0  0  0  0  0
   26.3071    6.4633    1.4559 H   0  0  0  0  0  0  0  0  0  0  0  0
   26.0580    6.1636   -0.3747 H   0  0  0  0  0  0  0  0  0  0  0  0
   26.4193    8.2638    1.2668 H   0  0  0  0  0  0  0  0  0  0  0  0
   28.1270    7.9622    0.8869 H   0  0  0  0  0  0  0  0  0  0  0  0
   28.8426    9.7242    0.5109 H   0  0  0  0  0  0  0  0  0  0  0  0
   28.5154    9.3126   -1.3118 H   0  0  0  0  0  0  0  0  0  0  0  0
   27.4967   10.8566   -1.3969 H   0  0  0  0  0  0  0  0  0  0  0  0
   24.1377   14.1900   -0.5850 H   0  0  0  0  0  0  0  0  0  0  0  0
   25.6405   14.1356    0.5383 H   0  0  0  0  0  0  0  0  0  0  0  0
   24.8646   15.8992   -1.3574 H   0  0  0  0  0  0  0  0  0  0  0  0
   26.3399   15.7174   -0.1947 H   0  0  0  0  0  0  0  0  0  0  0  0
   27.5419   15.8043   -1.7416 H   0  0  0  0  0  0  0  0  0  0  0  0
   26.0722   15.7516   -2.9051 H   0  0  0  0  0  0  0  0  0  0  0  0
  1  2  1  0
  2  3  1  0
  3  4  1  0
  4  5  1  0
  5  6  1  0
  6  7  1  0
  7  8  1  0
  8  9  1  0
  9 10  1  0
 10 11  1  0
 11 12  1  0
 12 13  1  0
 13 14  1  0
 14 15  1  0
 10 16  1  0
 16 17  1  0
 17 18  1  0
 18 19  1  0
 19 20  1  0
 20 21  1  0
 16 22  1  0
  8 23  1  0
 22 23  1  0
 23 24  1  0
 24 25  1  0
  7 26  1  0
 25 26  1  0
  5 27  1  0
 27 28  1  0
  3 29  1  0
 28 29  1  0
  1 30  1  0
  1 31  1  0
  1 32  1  0
  2 33  1  0
  2 34  1  0
  3 35  1  0
  4 36  1  0
  4 37  1  0
  5 38  1  0
  6 39  1  0
  7 40  1  0
  8 41  1  0
  9 42  1  0
  9 43  1  0
 10 44  1  0
 12 45  1  0
 12 46  1  0
 13 47  1  0
 13 48  1  0
 15 49  1  0
 15 50  1  0
 15 51  1  0
 16 52  1  0
 18 53  1  0
 18 54  1  0
 19 55  1  0
 19 56  1  0
 21 57  1  0
 21 58  1  0
 21 59  1  0
 22 60  1  0
 22 61  1  0
 23 62  1  0
 24 63  1  0
 25 64  1  0
 25 65  1  0
 26 66  1  0
 27 67  1  0
 27 68  1  0
 28 69  1  0
 28 70  1  0
 29 71  1  0
 29 72  1  0
M  END
>  <PDBID>  (1) 
4HJO

>  <PDB ID>  (1) 
4HJO

>  <Generic Name>  (1) 
Erlotinib

>  <Brand Name>  (1) 
PMS-erlotinib#Tarceva#Teva-erlotinib

>  <DrugBank ID>  (1) 
DB00530

>  <ATC Codes>  (1) 
L01XE03

>  <Ligand ID>  (1) 
AQ4

>  <Target Name>  (1) 
Epidermal growth factor receptor

>  <UniProt ID>  (1) 
P00533

>  <PDB ID.1>  (1) 
4HJO

>  <Seq. Identity>  (1) 
95%

$$$$
