PDB_DB01229_98
     RDKit          3D

  0  0  0  0  0  0  0  0  0  0999 V3000
M  V30 BEGIN CTAB
M  V30 COUNTS 1305 1359 0 0 0
M  V30 BEGIN ATOM
M  V30 1 O 18.138 -29.315 -19.117 0
M  V30 2 C 18.453 -29.161 -17.721 0 CFG=1
M  V30 3 C 19.758 -28.186 -17.657 0 CFG=1
M  V30 4 O 19.254 -26.958 -18.313 0
M  V30 5 C 19.728 -26.645 -19.608 0
M  V30 6 O 20.55 -27.305 -20.199 0
M  V30 7 C 19.148 -25.437 -20.135 0
M  V30 8 C 18.998 -24.196 -19.504 0
M  V30 9 C 18.392 -23.141 -20.239 0
M  V30 10 C 17.967 -23.18 -21.417 0
M  V30 11 C 18.077 -24.406 -22.133 0
M  V30 12 C 18.689 -25.621 -21.512 0
M  V30 13 C 20.349 -27.76 -16.208 0 CFG=2
M  V30 14 C 20.711 -26.196 -16.068 0 CFG=2
M  V30 15 O 19.511 -25.327 -16.202 0
M  V30 16 C 18.51 -25.309 -15.258 0
M  V30 17 O 18.486 -25.968 -14.261 0
M  V30 18 C 17.447 -24.317 -15.679 0
M  V30 19 C 21.693 -25.538 -17.071 0
M  V30 20 O 22.592 -25.106 -16.024 0
M  V30 21 C 21.737 -25.686 -15.017 0 CFG=2
M  V30 22 C 22.49 -26.74 -14.139 0
M  V30 23 C 21.877 -28.133 -14.181 0 CFG=2
M  V30 24 O 22.677 -29.034 -13.374 0
M  V30 25 C 21.655 -28.684 -15.672 0 CFG=2
M  V30 26 C 22.961 -28.474 -16.495 0
M  V30 27 C 21.494 -30.298 -15.644 0
M  V30 28 O 22.346 -30.983 -16.184 0
M  V30 29 C 20.298 -30.991 -14.978 0 CFG=2
M  V30 30 O 20.465 -32.46 -15.163 0
M  V30 31 C 20.717 -33.271 -14.074 0
M  V30 32 O 20.818 -32.899 -12.946 0
M  V30 33 C 20.854 -34.705 -14.509 0
M  V30 34 C 18.985 -30.49 -15.584 0 CFG=1
M  V30 35 C 18.085 -29.789 -14.787 0 CFG=1
M  V30 36 C 16.851 -29.174 -15.518 0 CFG=1
M  V30 37 O 16.137 -28.153 -14.737 0
M  V30 38 C 15.101 -28.545 -14.008 0
M  V30 39 O 14.669 -29.651 -13.895 0
M  V30 40 C 14.462 -27.329 -13.288 0 CFG=2
M  V30 41 O 13.34 -27.792 -12.561 0
M  V30 42 C 14.094 -26.27 -14.357 0 CFG=1
M  V30 43 N 13.294 -26.949 -15.371 0
M  V30 44 C 13.228 -26.537 -16.658 0
M  V30 45 O 13.821 -25.549 -17.077 0
M  V30 46 C 12.396 -27.408 -17.531 0
M  V30 47 C 11.036 -27.64 -17.328 0
M  V30 48 C 10.3 -28.492 -18.194 0
M  V30 49 C 10.959 -29.123 -19.285 0
M  V30 50 C 12.309 -28.899 -19.494 0
M  V30 51 C 13.044 -28.062 -18.647 0
M  V30 52 C 13.404 -25.045 -13.722 0
M  V30 53 C 14.212 -23.96 -13.337 0
M  V30 54 C 13.639 -22.805 -12.741 0
M  V30 55 C 12.251 -22.744 -12.534 0
M  V30 56 C 11.451 -23.808 -12.912 0
M  V30 57 C 12.018 -24.971 -13.51 0
M  V30 58 C 17.272 -28.483 -16.872 0
M  V30 59 C 18.241 -29.489 -13.302 0
M  V30 60 C 18.695 -30.7 -17.15 0 CFG=1
M  V30 61 C 17.408 -31.632 -17.315 0
M  V30 62 C 19.751 -31.429 -18.011 0
M  V30 63 O -26.032 -34.252 -27.957 0
M  V30 64 C -25.823 -33.982 -26.559 0 CFG=1
M  V30 65 C -25.075 -32.535 -26.485 0 CFG=1
M  V30 66 O -26.062 -31.648 -27.142 0
M  V30 67 C -25.766 -31.154 -28.433 0
M  V30 68 O -24.736 -31.386 -29.02 0
M  V30 69 C -26.813 -30.319 -28.962 0
M  V30 70 C -27.493 -29.27 -28.33 0
M  V30 71 C -28.495 -28.583 -29.066 0
M  V30 72 C -28.855 -28.799 -30.247 0
M  V30 73 C -28.217 -29.85 -30.965 0
M  V30 74 C -27.139 -30.679 -30.342 0
M  V30 75 C -24.736 -31.9 -25.031 0 CFG=2
M  V30 76 C -25.095 -30.336 -24.887 0 CFG=2
M  V30 77 O -26.553 -30.078 -25.026 0
M  V30 78 C -27.466 -30.503 -24.089 0
M  V30 79 O -27.205 -31.11 -23.093 0
M  V30 80 C -28.853 -30.073 -24.514 0
M  V30 81 C -24.494 -29.31 -25.882 0
M  V30 82 O -23.879 -28.533 -24.829 0
M  V30 83 C -24.4 -29.433 -23.828 0 CFG=2
M  V30 84 C -23.266 -30.056 -22.948 0
M  V30 85 C -23.209 -31.577 -22.996 0 CFG=2
M  V30 86 O -22.099 -32.041 -22.185 0
M  V30 87 C -23.161 -32.163 -24.489 0 CFG=2
M  V30 88 C -22.074 -31.4 -25.304 0
M  V30 89 C -22.601 -33.685 -24.465 0
M  V30 90 O -21.532 -33.927 -25.001 0
M  V30 91 C -23.377 -34.834 -23.807 0 CFG=2
M  V30 92 O -22.584 -36.082 -23.994 0
M  V30 93 C -22.008 -36.706 -22.905 0
M  V30 94 O -22.085 -36.332 -21.776 0
M  V30 95 C -21.256 -37.934 -23.341 0
M  V30 96 C -24.774 -34.954 -24.421 0 CFG=1
M  V30 97 C -25.894 -34.72 -23.628 0 CFG=1
M  V30 98 C -27.268 -34.703 -24.365 0 CFG=1
M  V30 99 O -28.361 -34.1 -23.587 0
M  V30 100 C -29.125 -34.908 -22.865 0
M  V30 101 O -29.031 -36.092 -22.757 0
M  V30 102 C -30.234 -34.096 -22.147 0 CFG=2
M  V30 103 O -31.045 -35.006 -21.428 0
M  V30 104 C -31.023 -33.3 -23.216 0 CFG=1
M  V30 105 N -31.441 -34.256 -24.236 0
M  V30 106 C -31.674 -33.909 -25.523 0
M  V30 107 O -31.57 -32.759 -25.937 0
M  V30 108 C -32.038 -35.052 -26.403 0
M  V30 109 C -33.161 -35.856 -26.208 0
M  V30 110 C -33.447 -36.94 -27.08 0
M  V30 111 C -32.573 -37.215 -28.168 0
M  V30 112 C -31.455 -36.423 -28.369 0
M  V30 113 C -31.164 -35.353 -27.516 0
M  V30 114 C -32.182 -32.502 -22.583 0
M  V30 115 C -31.931 -31.175 -22.192 0
M  V30 116 C -32.953 -30.389 -21.597 0
M  V30 117 C -34.23 -30.941 -21.399 0
M  V30 118 C -34.483 -32.246 -21.783 0
M  V30 119 C -33.462 -33.042 -22.38 0
M  V30 120 C -27.185 -33.892 -25.716 0
M  V30 121 C -25.891 -34.388 -22.141 0
M  V30 122 C -24.936 -35.263 -25.989 0 CFG=1
M  V30 123 C -25.685 -36.663 -26.163 0
M  V30 124 C -23.663 -35.454 -26.844 0
M  V30 125 O 60.499 -44.171 -10.303 0
M  V30 126 C 60.844 -44.163 -8.906 0 CFG=1
M  V30 127 C 62.443 -43.849 -8.837 0 CFG=1
M  V30 128 O 62.522 -42.526 -9.498 0
M  V30 129 C 63.089 -42.453 -10.79 0
M  V30 130 O 63.546 -43.405 -11.377 0
M  V30 131 C 63.09 -41.115 -11.322 0
M  V30 132 C 63.49 -39.928 -10.694 0
M  V30 133 C 63.402 -38.718 -11.433 0
M  V30 134 C 63.006 -38.573 -12.613 0
M  V30 135 C 62.578 -39.728 -13.327 0
M  V30 136 C 62.601 -41.087 -12.701 0
M  V30 137 C 63.155 -43.716 -7.386 0 CFG=2
M  V30 138 C 64.157 -42.462 -7.247 0 CFG=2
M  V30 139 O 63.451 -41.16 -7.387 0
M  V30 140 C 62.553 -40.707 -6.449 0
M  V30 141 O 62.243 -41.287 -5.451 0
M  V30 142 C 62.026 -39.355 -6.875 0
M  V30 143 C 65.331 -42.296 -8.246 0
M  V30 144 O 66.325 -42.292 -7.196 0
M  V30 145 C 65.299 -42.442 -6.192 0 CFG=2
M  V30 146 C 65.519 -43.715 -5.309 0
M  V30 147 C 64.364 -44.706 -5.352 0 CFG=2
M  V30 148 O 64.693 -45.862 -4.539 0
M  V30 149 C 63.93 -45.111 -6.843 0 CFG=2
M  V30 150 C 65.202 -45.49 -7.661 0
M  V30 151 C 63.087 -46.497 -6.813 0
M  V30 152 O 63.561 -47.485 -7.348 0
M  V30 153 C 61.707 -46.602 -6.151 0 CFG=2
M  V30 154 O 61.222 -48 -6.334 0
M  V30 155 C 61.095 -48.837 -5.243 0
M  V30 156 O 61.343 -48.541 -4.115 0
M  V30 157 C 60.6 -50.19 -5.674 0
M  V30 158 C 60.742 -45.584 -6.765 0 CFG=1
M  V30 159 C 60.231 -44.56 -5.973 0 CFG=1
M  V30 160 C 59.387 -43.475 -6.71 0 CFG=1
M  V30 161 O 59.182 -42.243 -5.934 0
M  V30 162 C 58.076 -42.146 -5.209 0
M  V30 163 O 57.207 -42.956 -5.097 0
M  V30 164 C 58.024 -40.771 -4.494 0 CFG=2
M  V30 165 O 56.809 -40.7 -3.771 0
M  V30 166 C 58.153 -39.66 -5.566 0 CFG=1
M  V30 167 N 57.142 -39.93 -6.582 0
M  V30 168 C 57.265 -39.534 -7.87 0
M  V30 169 O 58.229 -38.901 -8.289 0
M  V30 170 C 56.141 -39.962 -8.746 0
M  V30 171 C 54.813 -39.583 -8.548 0
M  V30 172 C 53.784 -40.035 -9.416 0
M  V30 173 C 54.11 -40.893 -10.503 0
M  V30 174 C 55.425 -41.276 -10.707 0
M  V30 175 C 56.446 -40.836 -9.858 0
M  V30 176 C 58.059 -38.255 -4.935 0
M  V30 177 C 59.255 -37.625 -4.549 0
M  V30 178 C 59.236 -36.335 -3.957 0
M  V30 179 C 58.01 -35.678 -3.757 0
M  V30 180 C 56.83 -36.292 -4.136 0
M  V30 181 C 56.84 -37.588 -4.73 0
M  V30 182 C 60.07 -43.039 -8.064 0
M  V30 183 C 60.497 -44.353 -4.487 0
M  V30 184 C 60.395 -45.653 -8.332 0 CFG=1
M  V30 185 C 58.832 -45.938 -8.501 0
M  V30 186 C 61.035 -46.771 -9.186 0
M  V30 187 O -26.584 -34.396 -111.381 0
M  V30 188 C -26.379 -34.123 -109.983 0 CFG=1
M  V30 189 C -25.644 -32.669 -109.909 0 CFG=1
M  V30 190 O -26.638 -31.791 -110.568 0
M  V30 191 C -26.345 -31.296 -111.859 0
M  V30 192 O -25.312 -31.519 -112.445 0
M  V30 193 C -27.399 -30.471 -112.39 0
M  V30 194 C -28.089 -29.427 -111.76 0
M  V30 195 C -29.096 -28.75 -112.498 0
M  V30 196 C -29.453 -28.97 -113.679 0
M  V30 197 C -28.804 -30.016 -114.396 0
M  V30 198 C -27.72 -30.835 -113.77 0
M  V30 199 C -25.313 -32.03 -108.455 0 CFG=2
M  V30 200 C -25.686 -30.469 -108.313 0 CFG=2
M  V30 201 O -27.147 -30.224 -108.454 0
M  V30 202 C -28.057 -30.657 -107.518 0
M  V30 203 O -27.792 -31.261 -106.521 0
M  V30 204 C -29.447 -30.24 -107.945 0
M  V30 205 C -25.093 -29.438 -109.308 0
M  V30 206 O -24.487 -28.655 -108.255 0
M  V30 207 C -25.001 -29.559 -107.254 0 CFG=2
M  V30 208 C -23.863 -30.171 -106.372 0
M  V30 209 C -23.792 -31.691 -106.418 0 CFG=2
M  V30 210 O -22.679 -32.145 -105.606 0
M  V30 211 C -23.736 -32.278 -107.911 0 CFG=2
M  V30 212 C -22.655 -31.506 -108.725 0
M  V30 213 C -23.163 -33.795 -107.885 0
M  V30 214 O -22.091 -34.028 -108.419 0
M  V30 215 C -23.929 -34.95 -107.227 0 CFG=2
M  V30 216 O -23.124 -36.191 -107.412 0
M  V30 217 C -22.544 -36.809 -106.322 0
M  V30 218 O -22.626 -36.435 -105.193 0
M  V30 219 C -21.781 -38.031 -106.756 0
M  V30 220 C -25.324 -35.084 -107.843 0 CFG=1
M  V30 221 C -26.447 -34.859 -107.052 0 CFG=1
M  V30 222 C -27.82 -34.855 -107.791 0 CFG=1
M  V30 223 O -28.92 -34.262 -107.015 0
M  V30 224 C -29.677 -35.076 -106.293 0
M  V30 225 O -29.573 -36.259 -106.184 0
M  V30 226 C -30.795 -34.274 -105.577 0 CFG=2
M  V30 227 O -31.598 -35.19 -104.859 0
M  V30 228 C -31.59 -33.486 -106.648 0 CFG=1
M  V30 229 N -31.997 -34.446 -107.668 0
M  V30 230 C -32.232 -34.102 -108.955 0
M  V30 231 O -32.138 -32.952 -109.37 0
M  V30 232 C -32.584 -35.249 -109.835 0
M  V30 233 C -33.7 -36.063 -109.641 0
M  V30 234 C -33.975 -37.15 -110.513 0
M  V30 235 C -33.097 -37.418 -111.599 0
M  V30 236 C -31.986 -36.616 -111.799 0
M  V30 237 C -31.706 -35.543 -110.947 0
M  V30 238 C -32.757 -32.698 -106.017 0
M  V30 239 C -32.518 -31.368 -105.627 0
M  V30 240 C -33.548 -30.591 -105.034 0
M  V30 241 C -34.82 -31.155 -104.837 0
M  V30 242 C -35.061 -32.462 -105.22 0
M  V30 243 C -34.032 -33.249 -105.815 0
M  V30 244 C -27.743 -34.044 -109.142 0
M  V30 245 C -26.449 -34.526 -105.565 0
M  V30 246 C -25.481 -35.395 -109.411 0 CFG=1
M  V30 247 C -26.217 -36.802 -109.585 0
M  V30 248 C -24.205 -35.575 -110.264 0
M  V30 249 O 17.481 -29.279 -102.572 0
M  V30 250 C 17.792 -29.124 -101.176 0 CFG=1
M  V30 251 C 19.091 -28.14 -101.109 0 CFG=1
M  V30 252 O 18.58 -26.915 -101.765 0
M  V30 253 C 19.054 -26.599 -103.059 0
M  V30 254 O 19.881 -27.253 -103.649 0
M  V30 255 C 18.467 -25.395 -103.587 0
M  V30 256 C 18.308 -24.155 -102.956 0
M  V30 257 C 17.697 -23.104 -103.691 0
M  V30 258 C 17.274 -23.145 -104.87 0
M  V30 259 C 17.394 -24.37 -105.587 0
M  V30 260 C 18.012 -25.581 -104.965 0
M  V30 261 C 19.676 -27.711 -99.658 0 CFG=2
M  V30 262 C 20.027 -26.145 -99.518 0 CFG=2
M  V30 263 O 18.822 -25.284 -99.653 0
M  V30 264 C 17.819 -25.273 -98.712 0
M  V30 265 O 17.797 -25.931 -97.715 0
M  V30 266 C 16.751 -24.288 -99.134 0
M  V30 267 C 21.007 -25.48 -100.518 0
M  V30 268 O 21.902 -25.042 -99.469 0
M  V30 269 C 21.048 -25.628 -98.464 0 CFG=2
M  V30 270 C 21.806 -26.678 -97.585 0
M  V30 271 C 21.202 -28.075 -97.629 0 CFG=2
M  V30 272 O 22.007 -28.971 -96.82 0
M  V30 273 C 20.987 -28.626 -99.12 0 CFG=2
M  V30 274 C 22.293 -28.408 -99.941 0
M  V30 275 C 20.836 -30.241 -99.093 0
M  V30 276 O 21.694 -30.921 -99.632 0
M  V30 277 C 19.644 -30.943 -98.429 0 CFG=2
M  V30 278 O 19.821 -32.411 -98.615 0
M  V30 279 C 20.076 -33.221 -97.526 0
M  V30 280 O 20.172 -32.848 -96.398 0
M  V30 281 C 20.224 -34.653 -97.96 0
M  V30 282 C 18.329 -30.45 -99.038 0 CFG=1
M  V30 283 C 17.422 -29.755 -98.242 0 CFG=1
M  V30 284 C 16.187 -29.148 -98.975 0 CFG=1
M  V30 285 O 15.463 -28.132 -98.196 0
M  V30 286 C 14.429 -28.531 -97.469 0
M  V30 287 O 14.004 -29.64 -97.357 0
M  V30 288 C 13.781 -27.319 -96.75 0 CFG=2
M  V30 289 O 12.66 -27.79 -96.025 0
M  V30 290 C 13.408 -26.262 -97.819 0 CFG=1
M  V30 291 N 12.614 -26.946 -98.834 0
M  V30 292 C 12.548 -26.535 -100.122 0
M  V30 293 O 13.136 -25.542 -100.539 0
M  V30 294 C 11.723 -27.411 -100.997 0
M  V30 295 C 10.364 -27.652 -100.796 0
M  V30 296 C 9.635 -28.508 -101.663 0
M  V30 297 C 10.301 -29.134 -102.753 0
M  V30 298 C 11.65 -28.902 -102.96 0
M  V30 299 C 12.377 -28.06 -102.112 0
M  V30 300 C 12.708 -25.042 -97.184 0
M  V30 301 C 13.508 -23.952 -96.798 0
M  V30 302 C 12.927 -22.802 -96.202 0
M  V30 303 C 11.538 -22.749 -95.999 0
M  V30 304 C 10.746 -23.818 -96.378 0
M  V30 305 C 11.321 -24.977 -96.976 0
M  V30 306 C 16.605 -28.454 -100.329 0
M  V30 307 C 17.574 -29.454 -96.757 0
M  V30 308 C 18.043 -30.661 -100.605 0 CFG=1
M  V30 309 C 16.763 -31.602 -100.772 0
M  V30 310 C 19.105 -31.383 -101.463 0
M  V30 311 O 59.899 -43.838 -93.785 0
M  V30 312 C 60.243 -43.828 -92.388 0 CFG=1
M  V30 313 C 61.84 -43.504 -92.318 0 CFG=1
M  V30 314 O 61.91 -42.18 -92.977 0
M  V30 315 C 62.478 -42.104 -94.27 0
M  V30 316 O 62.942 -43.053 -94.856 0
M  V30 317 C 62.471 -40.765 -94.801 0
M  V30 318 C 62.863 -39.577 -94.173 0
M  V30 319 C 62.769 -38.367 -94.911 0
M  V30 320 C 62.372 -38.224 -96.092 0
M  V30 321 C 61.952 -39.382 -96.806 0
M  V30 322 C 61.983 -40.74 -96.181 0
M  V30 323 C 62.55 -43.367 -90.865 0 CFG=2
M  V30 324 C 63.543 -42.106 -90.726 0 CFG=2
M  V30 325 O 62.83 -40.809 -90.866 0
M  V30 326 C 61.928 -40.362 -89.928 0
M  V30 327 O 61.621 -40.944 -88.93 0
M  V30 328 C 61.393 -39.013 -90.355 0
M  V30 329 C 64.718 -41.933 -91.724 0
M  V30 330 O 65.711 -41.923 -90.673 0
M  V30 331 C 64.685 -42.079 -89.669 0 CFG=2
M  V30 332 C 64.912 -43.351 -88.787 0
M  V30 333 C 63.763 -44.35 -88.831 0 CFG=2
M  V30 334 O 64.099 -45.503 -88.018 0
M  V30 335 C 63.334 -44.757 -90.322 0 CFG=2
M  V30 336 C 64.608 -45.127 -91.139 0
M  V30 337 C 62.499 -46.148 -90.293 0
M  V30 338 O 62.98 -47.134 -90.828 0
M  V30 339 C 61.119 -46.262 -89.632 0 CFG=2
M  V30 340 O 60.644 -47.663 -89.815 0
M  V30 341 C 60.521 -48.501 -88.724 0
M  V30 342 O 60.766 -48.204 -87.597 0
M  V30 343 C 60.035 -49.857 -89.157 0
M  V30 344 C 60.148 -45.251 -90.246 0 CFG=1
M  V30 345 C 59.63 -44.23 -89.454 0 CFG=1
M  V30 346 C 58.78 -43.15 -90.192 0 CFG=1
M  V30 347 O 58.566 -41.919 -89.416 0
M  V30 348 C 57.459 -41.829 -88.692 0
M  V30 349 O 56.596 -42.645 -88.58 0
M  V30 350 C 57.398 -40.455 -87.977 0 CFG=2
M  V30 351 O 56.182 -40.392 -87.255 0
M  V30 352 C 57.521 -39.343 -89.048 0 CFG=1
M  V30 353 N 56.512 -39.619 -90.066 0
M  V30 354 C 56.634 -39.223 -91.354 0
M  V30 355 O 57.594 -38.583 -91.771 0
M  V30 356 C 55.513 -39.657 -92.23 0
M  V30 357 C 54.183 -39.286 -92.033 0
M  V30 358 C 53.158 -39.745 -92.902 0
M  V30 359 C 53.489 -40.601 -93.989 0
M  V30 360 C 54.807 -40.975 -94.192 0
M  V30 361 C 55.824 -40.529 -93.342 0
M  V30 362 C 57.417 -37.939 -88.418 0
M  V30 363 C 58.609 -37.301 -88.031 0
M  V30 364 C 58.582 -36.011 -87.438 0
M  V30 365 C 57.352 -35.362 -87.239 0
M  V30 366 C 56.176 -35.984 -87.619 0
M  V30 367 C 56.194 -37.28 -88.214 0
M  V30 368 C 59.461 -42.709 -91.545 0
M  V30 369 C 59.893 -44.021 -87.968 0
M  V30 370 C 59.803 -45.321 -91.814 0 CFG=1
M  V30 371 C 58.242 -45.616 -91.984 0
M  V30 372 C 60.45 -46.435 -92.668 0
M  V30 373 O -25.511 -34.2 55.529 0
M  V30 374 C -25.301 -33.927 56.926 0 CFG=1
M  V30 375 C -24.542 -32.485 56.996 0 CFG=1
M  V30 376 O -25.522 -31.593 56.336 0
M  V30 377 C -25.222 -31.106 55.043 0
M  V30 378 O -24.194 -31.347 54.457 0
M  V30 379 C -26.263 -30.265 54.511 0
M  V30 380 C -26.936 -29.209 55.139 0
M  V30 381 C -27.932 -28.517 54.4 0
M  V30 382 C -28.293 -28.735 53.22 0
M  V30 383 C -27.663 -29.793 52.506 0
M  V30 384 C -26.591 -30.627 53.132 0
M  V30 385 C -24.199 -31.848 58.448 0 CFG=2
M  V30 386 C -24.547 -30.281 58.587 0 CFG=2
M  V30 387 O -26.003 -30.013 58.446 0
M  V30 388 C -26.919 -30.428 59.384 0
M  V30 389 O -26.663 -31.034 60.382 0
M  V30 390 C -28.303 -29.989 58.957 0
M  V30 391 C -23.938 -29.263 57.589 0
M  V30 392 O -23.318 -28.487 58.639 0
M  V30 393 C -23.846 -29.38 59.643 0 CFG=2
M  V30 394 C -22.717 -30.008 60.526 0
M  V30 395 C -22.671 -31.529 60.483 0 CFG=2
M  V30 396 O -21.564 -31.999 61.296 0
M  V30 397 C -22.626 -32.121 58.992 0 CFG=2
M  V30 398 C -21.533 -31.368 58.174 0
M  V30 399 C -22.077 -33.647 59.021 0
M  V30 400 O -21.01 -33.898 58.486 0
M  V30 401 C -22.862 -34.788 59.682 0 CFG=2
M  V30 402 O -22.078 -36.042 59.5 0
M  V30 403 C -21.507 -36.667 60.591 0
M  V30 404 O -21.582 -36.288 61.719 0
M  V30 405 C -20.764 -37.901 60.16 0
M  V30 406 C -24.26 -34.9 59.068 0 CFG=1
M  V30 407 C -25.378 -34.655 59.86 0 CFG=1
M  V30 408 C -26.752 -34.63 59.122 0 CFG=1
M  V30 409 O -27.841 -34.017 59.898 0
M  V30 410 C -28.611 -34.817 60.622 0
M  V30 411 O -28.525 -36.001 60.734 0
M  V30 412 C -29.714 -33.994 61.337 0 CFG=2
M  V30 413 O -30.532 -34.896 62.059 0
M  V30 414 C -30.497 -33.196 60.265 0 CFG=1
M  V30 415 N -30.921 -34.153 59.248 0
M  V30 416 C -31.151 -33.808 57.96 0
M  V30 417 O -31.039 -32.66 57.542 0
M  V30 418 C -31.523 -34.951 57.083 0
M  V30 419 C -32.652 -35.747 57.28 0
M  V30 420 C -32.946 -36.831 56.412 0
M  V30 421 C -32.073 -37.116 55.325 0
M  V30 422 C -30.949 -36.333 55.122 0
M  V30 423 C -30.651 -35.263 55.972 0
M  V30 424 C -31.65 -32.388 60.895 0
M  V30 425 C -31.39 -31.061 61.281 0
M  V30 426 C -32.406 -30.266 61.873 0
M  V30 427 C -33.687 -30.808 62.073 0
M  V30 428 C -33.95 -32.112 61.693 0
M  V30 429 C -32.934 -32.918 61.099 0
M  V30 430 C -26.662 -33.824 57.769 0
M  V30 431 C -25.373 -34.318 61.346 0
M  V30 432 C -24.423 -35.213 57.501 0 CFG=1
M  V30 433 C -25.182 -36.608 57.331 0
M  V30 434 C -23.151 -35.416 56.647 0
M  V30 435 O 18.828 -29.457 64.39 0
M  V30 436 C 19.141 -29.3 65.786 0 CFG=1
M  V30 437 C 20.454 -28.335 65.849 0 CFG=1
M  V30 438 O 19.96 -27.106 65.187 0
M  V30 439 C 20.439 -26.801 63.893 0
M  V30 440 O 21.256 -27.47 63.306 0
M  V30 441 C 19.869 -25.592 63.359 0
M  V30 442 C 19.727 -24.346 63.985 0
M  V30 443 C 19.131 -23.29 63.246 0
M  V30 444 C 18.708 -23.331 62.067 0
M  V30 445 C 18.81 -24.559 61.355 0
M  V30 446 C 19.411 -25.777 61.982 0
M  V30 447 C 21.045 -27.908 67.298 0 CFG=2
M  V30 448 C 21.418 -26.346 67.432 0 CFG=2
M  V30 449 O 20.225 -25.469 67.293 0
M  V30 450 C 19.222 -25.44 68.234 0
M  V30 451 O 19.191 -26.094 69.234 0
M  V30 452 C 18.168 -24.441 67.808 0
M  V30 453 C 22.407 -25.699 66.429 0
M  V30 454 O 23.308 -25.27 67.476 0
M  V30 455 C 22.446 -25.839 68.484 0 CFG=2
M  V30 456 C 23.189 -26.896 69.367 0
M  V30 457 C 22.566 -28.285 69.329 0 CFG=2
M  V30 458 O 23.358 -29.188 70.142 0
M  V30 459 C 22.342 -28.839 67.84 0 CFG=2
M  V30 460 C 23.652 -28.642 67.019 0
M  V30 461 C 22.169 -30.452 67.874 0
M  V30 462 O 23.018 -31.146 67.338 0
M  V30 463 C 20.967 -31.133 68.541 0 CFG=2
M  V30 464 O 21.123 -32.605 68.361 0
M  V30 465 C 21.367 -33.413 69.454 0
M  V30 466 O 21.469 -33.038 70.58 0
M  V30 467 C 21.494 -34.85 69.025 0
M  V30 468 C 19.659 -30.625 67.929 0 CFG=1
M  V30 469 C 18.762 -29.914 68.722 0 CFG=1
M  V30 470 C 17.535 -29.293 67.987 0 CFG=1
M  V30 471 O 16.827 -28.263 68.762 0
M  V30 472 C 15.786 -28.644 69.491 0
M  V30 473 O 15.346 -29.747 69.607 0
M  V30 474 C 15.156 -27.421 70.204 0 CFG=2
M  V30 475 O 14.028 -27.872 70.931 0
M  V30 476 C 14.797 -26.363 69.131 0 CFG=1
M  V30 477 N 13.994 -27.04 68.118 0
M  V30 478 C 13.934 -26.633 66.829 0
M  V30 479 O 14.536 -25.651 66.407 0
M  V30 480 C 13.097 -27.501 65.957 0
M  V30 481 C 11.735 -27.722 66.159 0
M  V30 482 C 10.994 -28.571 65.295 0
M  V30 483 C 11.651 -29.212 64.208 0
M  V30 484 C 13.003 -28.999 64 0
M  V30 485 C 13.742 -28.165 64.845 0
M  V30 486 C 14.115 -25.13 69.76 0
M  V30 487 C 14.931 -24.05 70.142 0
M  V30 488 C 14.366 -22.889 70.733 0
M  V30 489 C 12.977 -22.816 70.936 0
M  V30 490 C 12.17 -23.876 70.561 0
M  V30 491 C 12.729 -25.045 69.968 0
M  V30 492 C 17.964 -28.61 66.63 0
M  V30 493 C 18.918 -29.609 70.207 0
M  V30 494 C 19.37 -30.838 66.364 0 CFG=1
M  V30 495 C 18.077 -31.762 66.2 0
M  V30 496 C 20.423 -31.579 65.508 0
M  V30 497 O 61.015 -44.353 73.184 0
M  V30 498 C 61.362 -44.343 74.581 0 CFG=1
M  V30 499 C 62.962 -44.038 74.646 0 CFG=1
M  V30 500 O 63.048 -42.718 73.982 0
M  V30 501 C 63.614 -42.652 72.688 0
M  V30 502 O 64.065 -43.609 72.104 0
M  V30 503 C 63.622 -41.316 72.152 0
M  V30 504 C 64.03 -40.13 72.776 0
M  V30 505 C 63.949 -38.922 72.034 0
M  V30 506 C 63.552 -38.778 70.854 0
M  V30 507 C 63.116 -39.933 70.144 0
M  V30 508 C 63.132 -41.289 70.774 0
M  V30 509 C 63.677 -43.905 76.097 0 CFG=2
M  V30 510 C 64.687 -42.656 76.23 0 CFG=2
M  V30 511 O 63.989 -41.351 76.087 0
M  V30 512 C 63.095 -40.89 77.025 0
M  V30 513 O 62.783 -41.465 78.026 0
M  V30 514 C 62.575 -39.536 76.595 0
M  V30 515 C 65.861 -42.501 75.229 0
M  V30 516 O 66.856 -42.5 76.278 0
M  V30 517 C 65.831 -42.64 77.284 0 CFG=2
M  V30 518 C 66.044 -43.912 78.17 0
M  V30 519 C 64.883 -44.896 78.132 0 CFG=2
M  V30 520 O 65.207 -46.051 78.948 0
M  V30 521 C 64.445 -45.304 76.643 0 CFG=2
M  V30 522 C 65.713 -45.692 75.824 0
M  V30 523 C 63.594 -46.684 76.678 0
M  V30 524 O 64.061 -47.677 76.145 0
M  V30 525 C 62.214 -46.779 77.342 0 CFG=2
M  V30 526 O 61.721 -48.174 77.165 0
M  V30 527 C 61.59 -49.007 78.259 0
M  V30 528 O 61.842 -48.709 79.385 0
M  V30 529 C 61.086 -50.359 77.832 0
M  V30 530 C 61.254 -45.757 76.727 0 CFG=1
M  V30 531 C 60.75 -44.728 77.517 0 CFG=1
M  V30 532 C 59.912 -43.64 76.777 0 CFG=1
M  V30 533 O 59.715 -42.404 77.55 0
M  V30 534 C 58.611 -42.298 78.276 0
M  V30 535 O 57.738 -43.102 78.392 0
M  V30 536 C 58.568 -40.92 78.987 0 CFG=2
M  V30 537 O 57.354 -40.84 79.71 0
M  V30 538 C 58.702 -39.814 77.911 0 CFG=1
M  V30 539 N 57.688 -40.081 76.897 0
M  V30 540 C 57.812 -39.69 75.607 0
M  V30 541 O 58.779 -39.064 75.186 0
M  V30 542 C 56.684 -40.114 74.734 0
M  V30 543 C 55.359 -39.726 74.933 0
M  V30 544 C 54.326 -40.175 74.068 0
M  V30 545 C 54.645 -41.038 72.983 0
M  V30 546 C 55.957 -41.43 72.778 0
M  V30 547 C 56.982 -40.993 73.625 0
M  V30 548 C 58.617 -38.406 78.537 0
M  V30 549 C 59.818 -37.782 78.92 0
M  V30 550 C 59.808 -36.49 79.508 0
M  V30 551 C 58.586 -35.825 79.708 0
M  V30 552 C 57.402 -36.434 79.332 0
M  V30 553 C 57.403 -37.732 78.742 0
M  V30 554 C 60.596 -43.212 75.421 0
M  V30 555 C 61.02 -44.517 79.001 0
M  V30 556 C 60.904 -45.829 75.161 0 CFG=1
M  V30 557 C 59.34 -46.105 74.995 0
M  V30 558 C 61.536 -46.953 74.309 0
M  V30 559 H 17.2525 -29.7479 -19.2097 0
M  V30 560 H 20.6054 -28.7251 -18.1057 0
M  V30 561 H 20.5324 -26.0381 -19.1669 0
M  V30 562 H 21.1304 -27.771 -19.5462 0
M  V30 563 H 18.1615 -25.747 -19.7599 0
M  V30 564 H 18.3881 -24.359 -18.6032 0
M  V30 565 H 20.0278 -23.8515 -19.3286 0
M  V30 566 H 17.5222 -22.8415 -19.6359 0
M  V30 567 H 19.2788 -22.5095 -20.3967 0
M  V30 568 H 16.8999 -22.9145 -21.3874 0
M  V30 569 H 18.6205 -22.4854 -21.9651 0
M  V30 570 H 17.0545 -24.688 -22.4245 0
M  V30 571 H 18.7999 -24.1545 -22.923 0
M  V30 572 H 19.5524 -25.921 -22.124 0
M  V30 573 H 17.898 -26.3846 -21.477 0
M  V30 574 H 19.4947 -27.9758 -15.5496 0
M  V30 575 H 17.9847 -26.1094 -15.7997 0
M  V30 576 H 18.5077 -25.3719 -13.4708 0
M  V30 577 H 16.9786 -23.8799 -14.7848 0
M  V30 578 H 17.9077 -23.5185 -16.2791 0
M  V30 579 H 16.6822 -24.8317 -16.2791 0
M  V30 580 H 22.1486 -26.2543 -17.7705 0
M  V30 581 H 21.3056 -24.7902 -17.7786 0
M  V30 582 H 21.3199 -25.0818 -14.1979 0
M  V30 583 H 23.5285 -26.8083 -14.4953 0
M  V30 584 H 22.4212 -26.3935 -13.0973 0
M  V30 585 H 20.8654 -28.0714 -13.7534 0
M  V30 586 H 22.5142 -28.8506 -12.4149 0
M  V30 587 H 23.8093 -28.3376 -15.8081 0
M  V30 588 H 23.1405 -29.3548 -17.129 0
M  V30 589 H 22.8553 -27.5813 -17.129 0
M  V30 590 H 20.9287 -30.258 -16.5868 0
M  V30 591 H 22.8987 -31.4274 -15.4933 0
M  V30 592 H 20.2601 -30.758 -13.9036 0
M  V30 593 H 21.7982 -33.1283 -14.2179 0
M  V30 594 H 20.6145 -33.6484 -12.3319 0
M  V30 595 H 20.9159 -35.3529 -13.6222 0
M  V30 596 H 19.9791 -34.9906 -15.1114 0
M  V30 597 H 21.7672 -34.8198 -15.1114 0
M  V30 598 H 18.4958 -31.435 -15.3053 0
M  V30 599 H 18.651 -28.8623 -14.9629 0
M  V30 600 H 16.1848 -30.0338 -15.6824 0
M  V30 601 H 14.4328 -28.3715 -14.8644 0
M  V30 602 H 14.5817 -29.8746 -12.9346 0
M  V30 603 H 15.1508 -26.8528 -12.5748 0
M  V30 604 H 13.5216 -27.717 -11.5907 0
M  V30 605 H 14.99 -25.8505 -14.8379 0
M  V30 606 H 13.6391 -27.919 -15.4014 0
M  V30 607 H 12.3576 -25.9106 -16.4128 0
M  V30 608 H 14.1447 -25.0096 -16.3126 0
M  V30 609 H 12.6383 -28.2742 -16.8977 0
M  V30 610 H 10.9388 -28.0628 -16.3172 0
M  V30 611 H 10.5912 -26.6535 -17.5254 0
M  V30 612 H 9.87638 -29.2929 -17.5702 0
M  V30 613 H 9.58867 -27.8099 -18.6827 0
M  V30 614 H 10.8329 -30.2073 -19.1497 0
M  V30 615 H 10.4847 -28.669 -20.1676 0
M  V30 616 H 12.7975 -29.884 -19.4599 0
M  V30 617 H 12.316 -28.3449 -20.4442 0
M  V30 618 H 13.4683 -27.2667 -19.2775 0
M  V30 619 H 13.7475 -28.7529 -18.1595 0
M  V30 620 H 13.5287 -25.4918 -12.7246 0
M  V30 621 H 14.9452 -24.3539 -12.6177 0
M  V30 622 H 14.5864 -23.5796 -14.2988 0
M  V30 623 H 14.1139 -22.6855 -11.756 0
M  V30 624 H 13.8217 -22.0157 -13.4851 0
M  V30 625 H 12.0963 -22.597 -11.4549 0
M  V30 626 H 11.9291 -21.9329 -13.2038 0
M  V30 627 H 10.9279 -24.145 -12.0049 0
M  V30 628 H 10.8488 -23.3827 -13.7283 0
M  V30 629 H 11.5393 -25.0883 -14.4934 0
M  V30 630 H 11.8336 -25.7562 -12.762 0
M  V30 631 H 17.5871 -27.4566 -16.6327 0
M  V30 632 H 16.3836 -28.5682 -17.5151 0
M  V30 633 H 17.812 -30.3139 -12.7142 0
M  V30 634 H 19.3087 -29.3826 -13.0596 0
M  V30 635 H 17.715 -28.5538 -13.0596 0
M  V30 636 H 17.0259 -31.9087 -16.3213 0
M  V30 637 H 16.6292 -31.0871 -17.8686 0
M  V30 638 H 17.6828 -32.5419 -17.8686 0
M  V30 639 H 20.4771 -31.9303 -17.3541 0
M  V30 640 H 19.2536 -32.177 -18.6459 0
M  V30 641 H 20.2741 -30.6987 -18.6459 0
M  V30 642 H -26.6349 -35.0309 -28.0561 0
M  V30 643 H -24.075 -32.6474 -26.9293 0
M  V30 644 H -25.3095 -30.2587 -27.9857 0
M  V30 645 H -24.0122 -31.549 -28.3646 0
M  V30 646 H -27.5667 -31.0301 -28.5927 0
M  V30 647 H -27.9744 -29.6864 -27.4328 0
M  V30 648 H -26.7177 -28.511 -28.1488 0
M  V30 649 H -29.411 -28.6961 -28.4675 0
M  V30 650 H -27.9726 -27.6268 -29.2172 0
M  V30 651 H -29.9308 -29.027 -30.2231 0
M  V30 652 H -28.5684 -27.8861 -30.7897 0
M  V30 653 H -29.0121 -30.5487 -31.2644 0
M  V30 654 H -27.6724 -29.3042 -31.7495 0
M  V30 655 H -26.2283 -30.5696 -30.9491 0
M  V30 656 H -27.5177 -31.7113 -30.3131 0
M  V30 657 H -25.4124 -32.4702 -24.3773 0
M  V30 658 H -27.5854 -31.4504 -24.6351 0
M  V30 659 H -27.4402 -30.563 -22.302 0
M  V30 660 H -29.4674 -29.8825 -23.6217 0
M  V30 661 H -28.784 -29.1541 -25.1147 0
M  V30 662 H -29.316 -30.8698 -25.1147 0
M  V30 663 H -23.7678 -29.752 -26.58 0
M  V30 664 H -25.1661 -28.8033 -26.5902 0
M  V30 665 H -25.0433 -29.0754 -23.0105 0
M  V30 666 H -22.3005 -29.6625 -23.2987 0
M  V30 667 H -23.4834 -29.7786 -21.906 0
M  V30 668 H -24.1478 -31.9659 -22.5747 0
M  V30 669 H -22.3279 -31.9453 -21.2266 0
M  V30 670 H -21.3742 -30.9088 -24.6119 0
M  V30 671 H -21.5242 -32.1114 -25.9377 0
M  V30 672 H -22.5562 -30.6412 -25.9377 0
M  V30 673 H -23.1223 -33.8917 -25.4113 0
M  V30 674 H -20.8429 -34.083 -24.3075 0
M  V30 675 H -23.5177 -34.6461 -22.7323 0
M  V30 676 H -21.0972 -36.1046 -23.0421 0
M  V30 677 H -21.928 -37.0945 -21.1644 0
M  V30 678 H -20.9158 -38.4896 -22.4547 0
M  V30 679 H -21.9171 -38.5742 -23.9436 0
M  V30 680 H -20.3853 -37.6361 -23.9436 0
M  V30 681 H -24.8028 -36.019 -24.1474 0
M  V30 682 H -25.789 -33.6384 -23.7988 0
M  V30 683 H -27.4902 -35.7669 -24.5344 0
M  V30 684 H -29.7982 -35.0399 -23.7249 0
M  V30 685 H -29.0117 -36.3354 -21.7976 0
M  V30 686 H -29.8252 -33.3697 -21.4291 0
M  V30 687 H -30.9186 -34.8642 -20.4564 0
M  V30 688 H -30.3983 -32.529 -23.6907 0
M  V30 689 H -30.7067 -34.9777 -24.2657 0
M  V30 690 H -32.7318 -33.7267 -25.2824 0
M  V30 691 H -31.5136 -32.1359 -25.1698 0
M  V30 692 H -31.4441 -35.7281 -25.7705 0
M  V30 693 H -33.0678 -36.2833 -25.1987 0
M  V30 694 H -33.9914 -35.1622 -26.4056 0
M  V30 695 H -33.4815 -37.8482 -26.4603 0
M  V30 696 H -34.3825 -36.635 -27.5718 0
M  V30 697 H -32.2134 -38.246 -28.0351 0
M  V30 698 H -33.1938 -37.0095 -29.0525 0
M  V30 699 H -30.5854 -37.0958 -28.3337 0
M  V30 700 H -31.6856 -35.9178 -29.3185 0
M  V30 701 H -31.1264 -34.4496 -28.1425 0
M  V30 702 H -30.2321 -35.6698 -27.0248 0
M  V30 703 H -31.879 -32.8532 -21.5856 0
M  V30 704 H -31.1022 -31.2117 -21.4697 0
M  V30 705 H -31.7569 -30.6655 -23.1512 0
M  V30 706 H -32.5826 -30.0795 -20.6086 0
M  V30 707 H -33.1293 -29.5951 -22.3377 0
M  V30 708 H -34.4394 -30.8802 -20.3208 0
M  V30 709 H -34.8699 -30.3495 -22.0702 0
M  V30 710 H -34.8099 -32.7812 -20.8793 0
M  V30 711 H -35.2073 -32.1236 -22.6018 0
M  V30 712 H -33.8366 -33.3518 -23.3668 0
M  V30 713 H -33.2886 -33.8327 -21.6352 0
M  V30 714 H -27.3514 -32.8321 -25.4733 0
M  V30 715 H -27.9436 -34.3547 -26.3644 0
M  V30 716 H -25.8994 -35.3202 -21.5572 0
M  V30 717 H -24.9876 -33.8102 -21.8961 0
M  V30 718 H -26.7838 -33.7939 -21.8961 0
M  V30 719 H -25.9102 -37.084 -25.172 0
M  V30 720 H -26.6222 -36.5109 -26.7184 0
M  V30 721 H -25.0384 -37.3583 -26.7184 0
M  V30 722 H -22.7935 -35.5845 -26.183 0
M  V30 723 H -23.7779 -36.345 -27.4788 0
M  V30 724 H -23.5114 -34.5685 -27.4788 0
M  V30 725 H 59.514 -44.1938 -10.3995 0
M  V30 726 H 62.9756 -44.7033 -9.28023 0
M  V30 727 H 64.0753 -42.2534 -10.3459 0
M  V30 728 H 63.8671 -44.0738 -10.7215 0
M  V30 729 H 62.0654 -40.9664 -10.9502 0
M  V30 730 H 62.8672 -39.808 -9.79527 0
M  V30 731 H 64.5671 -40.0621 -10.5155 0
M  V30 732 H 62.7449 -38.0701 -10.8343 0
M  V30 733 H 64.4752 -38.5327 -11.5878 0
M  V30 734 H 62.1584 -37.8723 -12.5885 0
M  V30 735 H 63.8975 -38.2307 -13.1589 0
M  V30 736 H 61.5355 -39.5407 -13.624 0
M  V30 737 H 63.3422 -39.8168 -14.1132 0
M  V30 738 H 63.2512 -41.7336 -13.3086 0
M  V30 739 H 61.5572 -41.4326 -12.6684 0
M  V30 740 H 62.2893 -43.5392 -6.73084 0
M  V30 741 H 61.7354 -41.2039 -6.99176 0
M  V30 742 H 62.5248 -40.7598 -4.66187 0
M  V30 743 H 61.7921 -38.755 -5.98319 0
M  V30 744 H 62.7881 -38.8371 -7.47583 0
M  V30 745 H 61.1145 -39.4895 -7.47583 0
M  V30 746 H 65.4347 -43.1408 -8.94276 0
M  V30 747 H 65.3074 -41.456 -8.9558 0
M  V30 748 H 65.1811 -41.714 -5.37588 0
M  V30 749 H 66.4271 -44.2268 -5.66027 0
M  V30 750 H 65.6031 -43.3695 -4.26807 0
M  V30 751 H 63.4767 -44.2119 -4.92936 0
M  V30 752 H 64.6247 -45.6219 -3.58099 0
M  V30 753 H 66.0226 -45.7345 -6.97049 0
M  V30 754 H 64.9839 -46.3622 -8.29482 0
M  V30 755 H 65.4969 -44.6407 -8.29482 0
M  V30 756 H 62.5977 -46.2198 -7.75838 0
M  V30 757 H 63.8664 -48.1216 -6.65402 0
M  V30 758 H 61.77 -46.3723 -5.0771 0
M  V30 759 H 62.1322 -49.1758 -5.38215 0
M  V30 760 H 60.8445 -49.136 -3.50048 0
M  V30 761 H 60.3772 -50.799 -4.78551 0
M  V30 762 H 59.6869 -50.0717 -6.27588 0
M  V30 763 H 61.3738 -50.6889 -6.27588 0
M  V30 764 H 59.891 -46.2233 -6.48748 0
M  V30 765 H 61.1426 -43.9698 -6.14799 0
M  V30 766 H 58.4149 -43.9625 -6.87562 0
M  V30 767 H 57.5517 -41.7023 -6.06821 0
M  V30 768 H 57.0308 -43.1203 -4.13676 0
M  V30 769 H 58.8493 -40.6381 -3.77905 0
M  V30 770 H 57.0017 -40.7113 -2.79999 0
M  V30 771 H 59.1435 -39.6698 -6.04425 0
M  V30 772 H 57.0342 -40.954 -6.60943 0
M  V30 773 H 56.7509 -38.5918 -7.62941 0
M  V30 774 H 58.7547 -38.5558 -7.52441 0
M  V30 775 H 55.9832 -40.8465 -8.11137 0
M  V30 776 H 54.5394 -39.9201 -7.5373 0
M  V30 777 H 54.8389 -38.5016 -8.74783 0
M  V30 778 H 53.053 -40.5715 -8.79323 0
M  V30 779 H 53.4392 -39.114 -9.9088 0
M  V30 780 H 53.527 -41.8158 -10.3663 0
M  V30 781 H 53.8824 -40.2809 -11.3882 0
M  V30 782 H 55.4395 -42.3753 -10.6691 0
M  V30 783 H 55.6743 -40.7835 -11.6585 0
M  V30 784 H 57.1747 -40.3047 -10.4878 0
M  V30 785 H 56.7793 -41.7615 -9.3657 0
M  V30 786 H 57.9759 -38.709 -3.93651 0
M  V30 787 H 59.7442 -38.295 -3.82668 0
M  V30 788 H 59.7594 -37.4464 -5.51008 0
M  V30 789 H 59.7115 -36.4303 -2.96965 0
M  V30 790 H 59.7456 -35.7047 -4.70069 0
M  V30 791 H 57.9305 -35.4737 -2.67906 0
M  V30 792 H 58.0733 -34.8106 -4.43057 0
M  V30 793 H 56.2102 -36.3667 -3.23034 0
M  V30 794 H 56.473 -35.6505 -4.95519 0
M  V30 795 H 56.3616 -37.4898 -5.71563 0
M  V30 796 H 56.3308 -38.2139 -3.98236 0
M  V30 797 H 60.7971 -42.2489 -7.8253 0
M  V30 798 H 59.234 -42.7345 -8.71083 0
M  V30 799 H 59.7628 -44.9243 -3.90001 0
M  V30 800 H 61.5117 -44.7014 -4.24412 0
M  V30 801 H 60.4085 -43.2838 -4.24412 0
M  V30 802 H 58.3654 -46.0231 -7.50851 0
M  V30 803 H 58.3661 -45.11 -9.05542 0
M  V30 804 H 58.6884 -46.8771 -9.05542 0
M  V30 805 H 61.4715 -47.5335 -8.5242 0
M  V30 806 H 60.265 -47.2338 -9.8208 0
M  V30 807 H 61.824 -46.3414 -9.8208 0
M  V30 808 H -27.1755 -35.1837 -111.48 0
M  V30 809 H -24.6425 -32.7729 -110.352 0
M  V30 810 H -25.8973 -30.396 -111.412 0
M  V30 811 H -24.5875 -31.6754 -111.789 0
M  V30 812 H -28.1466 -31.1882 -112.02 0
M  V30 813 H -28.5677 -29.8464 -110.863 0
M  V30 814 H -27.3206 -28.661 -111.579 0
M  V30 815 H -30.0116 -28.8706 -111.9 0
M  V30 816 H -28.5815 -27.7897 -112.65 0
M  V30 817 H -30.5267 -29.2082 -113.656 0
M  V30 818 H -29.1748 -28.0548 -114.222 0
M  V30 819 H -29.5922 -30.7218 -114.697 0
M  V30 820 H -28.2629 -29.4659 -115.18 0
M  V30 821 H -26.8093 -30.7186 -114.376 0
M  V30 822 H -28.0904 -31.8703 -113.74 0
M  V30 823 H -25.9851 -32.6057 -107.802 0
M  V30 824 H -28.1668 -31.6058 -108.064 0
M  V30 825 H -28.0316 -30.7149 -105.731 0
M  V30 826 H -30.0643 -30.0548 -107.054 0
M  V30 827 H -29.3856 -29.3207 -108.546 0
M  V30 828 H -29.9018 -31.0412 -108.546 0
M  V30 829 H -24.3617 -29.8737 -110.005 0
M  V30 830 H -25.7687 -28.938 -110.018 0
M  V30 831 H -25.6486 -29.2065 -106.438 0
M  V30 832 H -22.9006 -29.7692 -106.722 0
M  V30 833 H -24.0847 -29.8946 -105.331 0
M  V30 834 H -24.7278 -32.0871 -105.997 0
M  V30 835 H -22.9096 -32.0509 -104.648 0
M  V30 836 H -21.9596 -31.0094 -108.032 0
M  V30 837 H -22.0991 -32.2127 -109.359 0
M  V30 838 H -23.143 -30.7509 -109.359 0
M  V30 839 H -23.6808 -34.0068 -108.832 0
M  V30 840 H -21.4019 -34.1778 -107.724 0
M  V30 841 H -24.0729 -34.762 -106.153 0
M  V30 842 H -21.6385 -36.1994 -106.458 0
M  V30 843 H -22.4594 -37.1949 -104.581 0
M  V30 844 H -21.4366 -38.5825 -105.869 0
M  V30 845 H -22.4361 -38.6776 -107.358 0
M  V30 846 H -20.9124 -37.7262 -107.358 0
M  V30 847 H -25.3433 -36.1488 -107.568 0
M  V30 848 H -26.3513 -33.7767 -107.224 0
M  V30 849 H -28.0316 -35.9211 -107.96 0
M  V30 850 H -30.3486 -35.2143 -107.153 0
M  V30 851 H -29.5517 -36.5014 -105.224 0
M  V30 852 H -30.394 -33.5436 -104.859 0
M  V30 853 H -31.473 -35.0474 -103.887 0
M  V30 854 H -30.972 -32.7095 -107.123 0
M  V30 855 H -31.2554 -35.1603 -107.697 0
M  V30 856 H -33.2915 -33.9289 -108.715 0
M  V30 857 H -32.087 -32.3277 -108.603 0
M  V30 858 H -31.9849 -35.9192 -109.201 0
M  V30 859 H -33.6042 -36.489 -108.631 0
M  V30 860 H -34.5364 -35.3768 -109.84 0
M  V30 861 H -34.0027 -38.0581 -109.893 0
M  V30 862 H -34.9122 -36.8534 -111.007 0
M  V30 863 H -32.7282 -38.4456 -111.464 0
M  V30 864 H -33.7183 -37.2191 -112.485 0
M  V30 865 H -31.1104 -37.2808 -111.762 0
M  V30 866 H -32.22 -36.1137 -112.749 0
M  V30 867 H -31.6761 -34.6399 -111.574 0
M  V30 868 H -30.7718 -35.8507 -110.455 0
M  V30 869 H -32.452 -33.0455 -105.019 0
M  V30 870 H -31.6897 -31.3965 -104.904 0
M  V30 871 H -32.3469 -30.8578 -106.586 0
M  V30 872 H -33.1817 -30.277 -104.045 0
M  V30 873 H -33.7309 -29.7994 -105.776 0
M  V30 874 H -35.031 -31.0953 -103.759 0
M  V30 875 H -35.4644 -30.5701 -105.51 0
M  V30 876 H -35.3843 -32.9994 -104.316 0
M  V30 877 H -35.7856 -32.3469 -106.04 0
M  V30 878 H -34.4025 -33.5631 -106.802 0
M  V30 879 H -33.8523 -34.0372 -105.069 0
M  V30 880 H -27.9189 -32.9854 -108.9 0
M  V30 881 H -28.4971 -34.5131 -109.791 0
M  V30 882 H -26.4434 -35.4579 -104.981 0
M  V30 883 H -25.5544 -33.9345 -105.321 0
M  V30 884 H -27.3506 -33.9453 -105.321 0
M  V30 885 H -26.4383 -37.2251 -108.594 0
M  V30 886 H -27.1556 -36.6586 -110.14 0
M  V30 887 H -25.5639 -37.4912 -110.14 0
M  V30 888 H -23.3354 -35.6977 -109.602 0
M  V30 889 H -24.3111 -36.4671 -110.899 0
M  V30 890 H -24.0602 -34.6884 -110.899 0
M  V30 891 H 16.599 -29.7186 -102.667 0
M  V30 892 H 19.9429 -28.6729 -101.557 0
M  V30 893 H 19.8537 -25.9869 -102.617 0
M  V30 894 H 20.4644 -27.7144 -102.996 0
M  V30 895 H 17.482 -25.7114 -103.213 0
M  V30 896 H 17.6977 -24.3222 -102.056 0
M  V30 897 H 19.3354 -23.8041 -102.779 0
M  V30 898 H 16.8244 -22.8102 -103.089 0
M  V30 899 H 18.5801 -22.467 -103.847 0
M  V30 900 H 16.205 -22.8872 -104.842 0
M  V30 901 H 17.9233 -22.4452 -105.416 0
M  V30 902 H 16.3742 -24.6585 -105.882 0
M  V30 903 H 18.1173 -24.1133 -106.375 0
M  V30 904 H 18.8785 -25.8754 -105.575 0
M  V30 905 H 17.2254 -26.3493 -104.932 0
M  V30 906 H 18.8224 -27.9333 -99.0007 0
M  V30 907 H 17.3012 -26.0777 -99.2545 0
M  V30 908 H 17.817 -25.3343 -96.9253 0
M  V30 909 H 16.2795 -23.8532 -98.2403 0
M  V30 910 H 17.2074 -23.4871 -99.7342 0
M  V30 911 H 15.9896 -24.8076 -99.7342 0
M  V30 912 H 21.4687 -26.193 -101.217 0
M  V30 913 H 20.6159 -24.7342 -101.226 0
M  V30 914 H 20.6251 -25.0265 -97.6458 0
M  V30 915 H 22.8456 -26.7395 -97.9392 0
M  V30 916 H 21.7328 -26.3326 -96.5432 0
M  V30 917 H 20.1889 -28.0211 -97.2038 0
M  V30 918 H 21.8423 -28.7877 -95.8612 0
M  V30 919 H 23.1394 -28.2667 -99.2528 0
M  V30 920 H 22.4787 -29.2876 -100.575 0
M  V30 921 H 22.183 -27.5158 -100.575 0
M  V30 922 H 20.2723 -30.2041 -100.037 0
M  V30 923 H 22.2491 -31.361 -98.9404 0
M  V30 924 H 19.6029 -30.7119 -97.3543 0
M  V30 925 H 21.1565 -33.0711 -97.6675 0
M  V30 926 H 19.9784 -33.6002 -95.7841 0
M  V30 927 H 20.2909 -35.3 -97.0729 0
M  V30 928 H 19.3513 -34.9457 -98.5623 0
M  V30 929 H 21.1381 -34.761 -98.5623 0
M  V30 930 H 17.8453 -31.3983 -98.7612 0
M  V30 931 H 17.9824 -28.8246 -98.4158 0
M  V30 932 H 15.5279 -30.0131 -99.1403 0
M  V30 933 H 13.7609 -28.3615 -98.3263 0
M  V30 934 H 13.9178 -29.865 -96.3968 0
M  V30 935 H 14.4656 -26.8384 -96.0357 0
M  V30 936 H 12.8394 -27.7146 -95.0543 0
M  V30 937 H 14.3018 -25.8361 -98.2983 0
M  V30 938 H 12.9647 -27.914 -98.8632 0
M  V30 939 H 11.6726 -25.9147 -99.8792 0
M  V30 940 H 13.4557 -25.002 -99.7733 0
M  V30 941 H 11.97 -28.276 -100.364 0
M  V30 942 H 10.2681 -28.0759 -99.7855 0
M  V30 943 H 9.91314 -26.6683 -100.994 0
M  V30 944 H 9.21547 -29.3119 -101.04 0
M  V30 945 H 8.91942 -27.8309 -102.152 0
M  V30 946 H 10.1814 -30.2192 -102.618 0
M  V30 947 H 9.82602 -28.6814 -103.636 0
M  V30 948 H 12.1447 -29.8838 -102.924 0
M  V30 949 H 11.656 -28.3492 -103.911 0
M  V30 950 H 12.7963 -27.2615 -102.742 0
M  V30 951 H 13.0846 -28.746 -101.623 0
M  V30 952 H 12.8349 -25.4883 -96.1867 0
M  V30 953 H 14.2435 -24.3412 -96.0785 0
M  V30 954 H 13.8804 -23.5684 -97.7594 0
M  V30 955 H 13.3982 -22.6817 -95.2154 0
M  V30 956 H 13.1074 -22.0104 -96.9442 0
M  V30 957 H 11.3792 -22.6017 -94.9205 0
M  V30 958 H 11.2131 -21.9406 -96.6704 0
M  V30 959 H 10.2245 -24.1588 -95.4714 0
M  V30 960 H 10.1419 -23.3964 -97.1949 0
M  V30 961 H 10.8458 -25.0958 -97.9609 0
M  V30 962 H 11.1388 -25.7647 -96.2301 0
M  V30 963 H 16.9125 -27.4254 -100.09 0
M  V30 964 H 15.7181 -28.5455 -100.973 0
M  V30 965 H 17.1547 -30.2843 -96.1698 0
M  V30 966 H 18.6403 -29.335 -96.5143 0
M  V30 967 H 17.0368 -28.5253 -96.5143 0
M  V30 968 H 16.3818 -31.8822 -99.7789 0
M  V30 969 H 15.9809 -31.0622 -101.326 0
M  V30 970 H 17.0449 -32.5095 -101.326 0
M  V30 971 H 19.8336 -31.8783 -100.804 0
M  V30 972 H 18.6139 -32.1352 -102.098 0
M  V30 973 H 19.6239 -30.6497 -102.098 0
M  V30 974 H 58.9142 -43.8666 -93.8822 0
M  V30 975 H 62.3788 -44.3541 -92.7619 0
M  V30 976 H 63.4626 -41.8972 -93.8253 0
M  V30 977 H 63.2676 -43.719 -94.1999 0
M  V30 978 H 61.4454 -40.623 -94.4294 0
M  V30 979 H 62.2386 -39.461 -93.2749 0
M  V30 980 H 63.9408 -39.7051 -93.9941 0
M  V30 981 H 62.1085 -37.7227 -94.3121 0
M  V30 982 H 63.8411 -38.1753 -95.0651 0
M  V30 983 H 61.5197 -37.5291 -96.0676 0
M  V30 984 H 63.2611 -37.8751 -96.6378 0
M  V30 985 H 60.9086 -39.2013 -97.1038 0
M  V30 986 H 62.7178 -39.4659 -97.5911 0
M  V30 987 H 62.6379 -41.3822 -96.7882 0
M  V30 988 H 60.9415 -41.0925 -96.1497 0
M  V30 989 H 61.6831 -43.197 -90.2096 0
M  V30 990 H 61.1141 -40.8643 -90.4713 0
M  V30 991 H 61.8998 -40.4154 -88.1407 0
M  V30 992 H 61.1554 -38.4139 -89.4636 0
M  V30 993 H 62.1522 -38.491 -90.956 0
M  V30 994 H 60.4824 -39.1532 -90.956 0
M  V30 995 H 64.8275 -42.7773 -92.4206 0
M  V30 996 H 64.6902 -41.0931 -92.4337 0
M  V30 997 H 64.5623 -41.3518 -88.8529 0
M  V30 998 H 65.8235 -43.8569 -89.138 0
M  V30 999 H 64.9928 -43.0054 -87.7458 0
M  V30 1000 H 62.8717 -43.8626 -88.4091 0
M  V30 1001 H 64.0291 -45.263 -87.0601 0
M  V30 1002 H 65.4301 -45.3657 -90.4482 0
M  V30 1003 H 64.3962 -46.0007 -91.7728 0
M  V30 1004 H 64.8972 -44.2757 -91.7728 0
M  V30 1005 H 62.0092 -45.8737 -91.2389 0
M  V30 1006 H 63.2894 -47.7683 -90.1337 0
M  V30 1007 H 61.1795 -46.0315 -88.5581 0
M  V30 1008 H 61.5604 -48.8336 -88.8623 0
M  V30 1009 H 60.2718 -48.8031 -86.983 0
M  V30 1010 H 59.8158 -50.4686 -88.2694 0
M  V30 1011 H 59.1214 -49.744 -89.7591 0
M  V30 1012 H 60.8124 -50.3501 -89.7591 0
M  V30 1013 H 59.3011 -45.8959 -89.9686 0
M  V30 1014 H 60.5381 -43.6342 -89.6281 0
M  V30 1015 H 57.8116 -43.6443 -90.3587 0
M  V30 1016 H 56.9322 -41.3899 -89.5521 0
M  V30 1017 H 56.421 -42.8105 -87.6198 0
M  V30 1018 H 58.222 -40.3171 -87.2615 0
M  V30 1019 H 56.374 -40.4019 -86.2838 0
M  V30 1020 H 58.5126 -39.3468 -89.5242 0
M  V30 1021 H 56.4099 -40.6436 -90.0931 0
M  V30 1022 H 56.1123 -38.2846 -91.1149 0
M  V30 1023 H 58.1162 -38.2349 -91.0054 0
M  V30 1024 H 55.36 -40.5424 -91.5955 0
M  V30 1025 H 53.9106 -39.6244 -91.0224 0
M  V30 1026 H 54.2021 -38.2044 -92.2326 0
M  V30 1027 H 52.4301 -40.286 -92.2796 0
M  V30 1028 H 52.8088 -38.8261 -93.3955 0
M  V30 1029 H 52.9121 -41.5275 -93.8523 0
M  V30 1030 H 53.2568 -39.9913 -94.8746 0
M  V30 1031 H 54.8288 -42.0742 -94.1549 0
M  V30 1032 H 55.0538 -40.48 -95.1428 0
M  V30 1033 H 56.5501 -39.9932 -93.971 0
M  V30 1034 H 56.162 -41.4526 -92.8494 0
M  V30 1035 H 57.3358 -38.3931 -87.4194 0
M  V30 1036 H 59.1023 -37.9683 -87.3089 0
M  V30 1037 H 59.1121 -37.1183 -88.992 0
M  V30 1038 H 59.0571 -36.104 -86.4502 0
M  V30 1039 H 59.0889 -35.3771 -88.1805 0
M  V30 1040 H 57.2704 -35.1581 -86.1611 0
M  V30 1041 H 57.4101 -34.4942 -87.9125 0
M  V30 1042 H 55.5564 -36.0632 -86.7136 0
M  V30 1043 H 55.8157 -35.3445 -88.4383 0
M  V30 1044 H 55.716 -37.184 -89.2 0
M  V30 1045 H 55.6875 -37.9095 -87.4676 0
M  V30 1046 H 60.183 -41.9145 -91.3053 0
M  V30 1047 H 58.6234 -42.4094 -92.1921 0
M  V30 1048 H 59.1643 -44.6 -87.3817 0
M  V30 1049 H 60.9111 -44.3592 -87.7247 0
M  V30 1050 H 59.7935 -42.9529 -87.7247 0
M  V30 1051 H 57.7753 -45.7042 -90.9918 0
M  V30 1052 H 57.7712 -44.7909 -92.5386 0
M  V30 1053 H 58.1047 -46.556 -92.5386 0
M  V30 1054 H 60.8913 -47.1948 -92.0062 0
M  V30 1055 H 59.6829 -46.9026 -93.3028 0
M  V30 1056 H 61.2363 -46.0004 -93.3028 0
M  V30 1057 H -26.1117 -34.9809 55.432 0
M  V30 1058 H -23.5426 -32.6062 56.5526 0
M  V30 1059 H -24.7594 -30.2122 55.487 0
M  V30 1060 H -23.4721 -31.5162 55.113 0
M  V30 1061 H -27.0219 -30.9695 54.8823 0
M  V30 1062 H -27.4214 -29.619 56.0369 0
M  V30 1063 H -26.1553 -28.4552 55.3186 0
M  V30 1064 H -28.8491 -28.6203 54.9985 0
M  V30 1065 H -27.4021 -27.5655 54.2453 0
M  V30 1066 H -29.3705 -28.955 53.2445 0
M  V30 1067 H -27.9991 -27.8264 52.674 0
M  V30 1068 H -28.4631 -30.4872 52.2095 0
M  V30 1069 H -27.1149 -29.2543 51.719 0
M  V30 1070 H -25.6793 -30.5256 52.5249 0
M  V30 1071 H -26.9768 -31.6566 53.164 0
M  V30 1072 H -24.8797 -32.4113 59.1032 0
M  V30 1073 H -27.0457 -31.3761 58.8408 0
M  V30 1074 H -26.8956 -30.4834 61.1712 0
M  V30 1075 H -28.9172 -29.7942 59.8485 0
M  V30 1076 H -28.2273 -29.0708 58.3561 0
M  V30 1077 H -28.7704 -30.783 58.3561 0
M  V30 1078 H -23.2147 -29.7128 56.8929 0
M  V30 1079 H -24.6061 -28.7538 56.8788 0
M  V30 1080 H -24.487 -29.0152 60.4591 0
M  V30 1081 H -21.7485 -29.6226 60.1747 0
M  V30 1082 H -22.933 -29.7255 61.5669 0
M  V30 1083 H -23.6131 -31.9087 60.9052 0
M  V30 1084 H -21.7935 -31.9016 62.2541 0
M  V30 1085 H -20.8279 -30.8822 58.8645 0
M  V30 1086 H -20.9904 -32.0849 57.5402 0
M  V30 1087 H -22.0095 -30.6056 57.5402 0
M  V30 1088 H -22.5997 -33.853 58.0753 0
M  V30 1089 H -20.3228 -34.0597 59.1801 0
M  V30 1090 H -23.0022 -34.5953 60.7559 0
M  V30 1091 H -20.5917 -36.0729 60.4523 0
M  V30 1092 H -21.4313 -37.0493 62.3336 0
M  V30 1093 H -20.4295 -38.4566 61.0485 0
M  V30 1094 H -21.4289 -38.5379 59.5581 0
M  V30 1095 H -19.89 -37.6113 59.5581 0
M  V30 1096 H -24.2966 -35.9638 59.3454 0
M  V30 1097 H -25.2647 -33.5748 59.6857 0
M  V30 1098 H -26.9823 -35.6926 58.9554 0
M  V30 1099 H -29.2843 -34.9473 59.762 0
M  V30 1100 H -28.5076 -36.2412 61.6943 0
M  V30 1101 H -29.3001 -33.2681 62.0523 0
M  V30 1102 H -30.4029 -34.7536 63.0302 0
M  V30 1103 H -29.8673 -32.4308 59.7876 0
M  V30 1104 H -30.1916 -34.8797 59.2209 0
M  V30 1105 H -32.2076 -33.6177 58.1997 0
M  V30 1106 H -30.978 -32.0347 58.3071 0
M  V30 1107 H -30.9339 -35.6295 57.7175 0
M  V30 1108 H -32.5618 -36.1719 58.2906 0
M  V30 1109 H -33.4772 -35.0478 57.0797 0
M  V30 1110 H -32.9878 -37.7369 57.0346 0
M  V30 1111 H -33.8791 -36.5208 55.9189 0
M  V30 1112 H -31.7211 -38.1492 55.4614 0
M  V30 1113 H -32.6918 -36.9087 54.4395 0
M  V30 1114 H -30.0844 -37.012 55.1598 0
M  V30 1115 H -31.175 -35.8292 54.1707 0
M  V30 1116 H -30.6056 -34.362 55.3426 0
M  V30 1117 H -29.7226 -35.5863 56.4655 0
M  V30 1118 H -31.3492 -32.7374 61.8937 0
M  V30 1119 H -30.5613 -31.1006 62.0032 0
M  V30 1120 H -31.2129 -30.5564 60.3198 0
M  V30 1121 H -32.0334 -29.9557 62.8603 0
M  V30 1122 H -32.5767 -29.4736 61.1294 0
M  V30 1123 H -33.8956 -30.7424 63.1511 0
M  V30 1124 H -34.3226 -30.2137 61.4001 0
M  V30 1125 H -34.2818 -32.6418 62.5981 0
M  V30 1126 H -34.6729 -31.9867 60.8734 0
M  V30 1127 H -33.3102 -33.2284 60.113 0
M  V30 1128 H -32.7669 -33.7075 61.8465 0
M  V30 1129 H -26.8199 -32.7621 58.0086 0
M  V30 1130 H -27.424 -34.283 57.122 0
M  V30 1131 H -25.3868 -35.2482 61.933 0
M  V30 1132 H -24.4662 -33.7446 61.5889 0
M  V30 1133 H -26.2623 -33.7179 61.5889 0
M  V30 1134 H -25.409 -37.0252 58.3232 0
M  V30 1135 H -26.1188 -36.4505 56.7764 0
M  V30 1136 H -24.5409 -37.309 56.7764 0
M  V30 1137 H -22.2833 -35.5545 57.3088 0
M  V30 1138 H -23.2737 -36.3059 56.0122 0
M  V30 1139 H -22.9906 -34.5321 56.0122 0
M  V30 1140 H 17.947 -29.8989 64.297 0
M  V30 1141 H 21.2986 -28.8819 65.4045 0
M  V30 1142 H 21.2479 -26.2001 64.3341 0
M  V30 1143 H 21.83 -27.94 63.9615 0
M  V30 1144 H 18.8795 -25.893 63.7337 0
M  V30 1145 H 19.1144 -24.5008 64.8854 0
M  V30 1146 H 20.7592 -24.0087 64.1601 0
M  V30 1147 H 18.2623 -22.9816 63.8462 0
M  V30 1148 H 20.0224 -22.6651 63.0881 0
M  V30 1149 H 17.6428 -23.0577 62.0937 0
M  V30 1150 H 19.3686 -22.6438 61.518 0
M  V30 1151 H 17.7861 -24.8338 61.0615 0
M  V30 1152 H 19.5365 -24.3157 60.5657 0
M  V30 1153 H 20.273 -26.0863 61.3727 0
M  V30 1154 H 18.6135 -26.5337 62.0185 0
M  V30 1155 H 20.1882 -28.1152 67.956 0
M  V30 1156 H 18.6929 -26.2395 67.6947 0
M  V30 1157 H 19.2194 -25.4945 70.0214 0
M  V30 1158 H 17.7008 -23.9981 68.6999 0
M  V30 1159 H 18.6364 -23.6475 67.2072 0
M  V30 1160 H 17.4007 -24.9512 67.2072 0
M  V30 1161 H 22.8583 -26.4212 65.7328 0
M  V30 1162 H 22.0265 -24.9505 65.7184 0
M  V30 1163 H 22.032 -25.228 69.2997 0
M  V30 1164 H 24.2276 -26.9733 69.013 0
M  V30 1165 H 23.1201 -26.5454 70.4074 0
M  V30 1166 H 21.5538 -28.2158 69.7541 0
M  V30 1167 H 23.1932 -29.0001 71.0999 0
M  V30 1168 H 24.5004 -28.5144 67.7074 0
M  V30 1169 H 23.8236 -29.5244 66.3851 0
M  V30 1170 H 23.5565 -27.7481 66.3851 0
M  V30 1171 H 21.606 -30.4115 66.9299 0
M  V30 1172 H 23.5649 -31.5931 68.0316 0
M  V30 1173 H 20.9291 -30.8955 69.6144 0
M  V30 1174 H 22.4495 -33.2791 69.3113 0
M  V30 1175 H 21.2657 -33.7855 71.1965 0
M  V30 1176 H 21.551 -35.4946 69.9146 0
M  V30 1177 H 20.6173 -35.1319 68.4235 0
M  V30 1178 H 22.4066 -34.9738 68.4235 0
M  V30 1179 H 19.1622 -31.5653 68.2102 0
M  V30 1180 H 19.3352 -28.9922 68.5439 0
M  V30 1181 H 16.8628 -30.1486 67.8255 0
M  V30 1182 H 15.1208 -28.4689 68.6326 0
M  V30 1183 H 15.2579 -29.9678 70.568 0
M  V30 1184 H 15.8485 -26.948 70.9158 0
M  V30 1185 H 14.2101 -27.7992 71.9014 0
M  V30 1186 H 15.6968 -25.9514 68.6505 0
M  V30 1187 H 14.3316 -28.0128 68.0925 0
M  V30 1188 H 13.068 -25.9988 67.0696 0
M  V30 1189 H 14.8658 -25.1131 67.1699 0
M  V30 1190 H 13.3319 -28.3669 66.5934 0
M  V30 1191 H 11.6333 -28.1408 67.1711 0
M  V30 1192 H 11.2979 -26.7328 65.9579 0
M  V30 1193 H 10.5621 -29.3657 65.921 0
M  V30 1194 H 10.2893 -27.8852 64.8019 0
M  V30 1195 H 11.5169 -30.2947 64.3483 0
M  V30 1196 H 11.1818 -28.7583 63.3226 0
M  V30 1197 H 13.4842 -29.9874 64.0383 0
M  V30 1198 H 13.016 -28.4487 63.0476 0
M  V30 1199 H 14.1742 -27.3758 64.2123 0
M  V30 1200 H 14.4384 -28.8598 65.3372 0
M  V30 1201 H 14.2345 -25.5738 70.7594 0
M  V30 1202 H 15.6603 -24.4469 70.8635 0
M  V30 1203 H 15.3098 -23.676 69.1794 0
M  V30 1204 H 14.839 -22.7707 71.719 0
M  V30 1205 H 14.5573 -22.1033 69.9873 0
M  V30 1206 H 12.8204 -22.6624 72.0139 0
M  V30 1207 H 12.6631 -22.0057 70.2615 0
M  V30 1208 H 11.6436 -24.2059 71.4688 0
M  V30 1209 H 11.5719 -23.4494 69.7423 0
M  V30 1210 H 12.252 -25.1614 68.9837 0
M  V30 1211 H 12.5363 -25.8268 70.7174 0
M  V30 1212 H 18.2865 -27.5851 66.8659 0
M  V30 1213 H 17.0762 -28.6911 65.9857 0
M  V30 1214 H 18.4954 -30.4353 70.7974 0
M  V30 1215 H 19.9852 -29.4948 70.4477 0
M  V30 1216 H 18.386 -28.6768 70.4477 0
M  V30 1217 H 17.6936 -32.036 67.194 0
M  V30 1218 H 17.3014 -31.2124 65.6466 0
M  V30 1219 H 18.3458 -32.6738 65.6466 0
M  V30 1220 H 21.1423 -32.0852 66.1687 0
M  V30 1221 H 19.9211 -32.324 64.8732 0
M  V30 1222 H 20.9548 -30.855 64.8732 0
M  V30 1223 H 60.03 -44.3814 73.0888 0
M  V30 1224 H 63.4889 -44.8963 74.2036 0
M  V30 1225 H 64.602 -42.4562 73.1301 0
M  V30 1226 H 64.3805 -44.2784 72.7617 0
M  V30 1227 H 62.5989 -41.1603 72.5249 0
M  V30 1228 H 63.4089 -40.0035 73.675 0
M  V30 1229 H 65.1064 -40.2705 72.9537 0
M  V30 1230 H 63.2972 -38.2679 72.6318 0
M  V30 1231 H 65.0231 -38.7441 71.8771 0
M  V30 1232 H 62.7086 -38.0723 70.8777 0
M  V30 1233 H 64.4446 -38.4424 70.3057 0
M  V30 1234 H 62.0742 -39.7405 69.8479 0
M  V30 1235 H 63.8784 -40.0287 69.3568 0
M  V30 1236 H 63.7778 -41.9411 70.1677 0
M  V30 1237 H 62.0862 -41.6281 70.809 0
M  V30 1238 H 62.8137 -43.7214 76.7535 0
M  V30 1239 H 62.2738 -41.3842 76.4852 0
M  V30 1240 H 63.0695 -40.9369 78.8129 0
M  V30 1241 H 62.3433 -38.9326 77.4851 0
M  V30 1242 H 63.3402 -39.0234 75.9936 0
M  V30 1243 H 61.6634 -39.6674 75.9936 0
M  V30 1244 H 65.9584 -43.3488 74.535 0
M  V30 1245 H 65.8421 -41.6633 74.5163 0
M  V30 1246 H 65.7192 -41.9087 78.0981 0
M  V30 1247 H 66.9482 -44.4305 77.8186 0
M  V30 1248 H 66.1316 -43.5639 79.2098 0
M  V30 1249 H 63.9992 -44.3952 78.554 0
M  V30 1250 H 65.1389 -45.8082 79.9054 0
M  V30 1251 H 66.5324 -45.9427 76.5137 0
M  V30 1252 H 65.4879 -46.5624 75.1901 0
M  V30 1253 H 66.0135 -44.8447 75.1901 0
M  V30 1254 H 63.1051 -46.4065 75.7325 0
M  V30 1255 H 64.3609 -48.3146 76.8404 0
M  V30 1256 H 62.2798 -46.5462 78.4151 0
M  V30 1257 H 62.6246 -49.3534 78.1191 0
M  V30 1258 H 61.3423 -49.2999 80.0025 0
M  V30 1259 H 60.8604 -50.9642 78.7224 0
M  V30 1260 H 60.173 -50.2368 77.2307 0
M  V30 1261 H 61.8562 -50.8643 77.2307 0
M  V30 1262 H 60.3997 -46.3907 77.0074 0
M  V30 1263 H 61.665 -44.1438 77.3398 0
M  V30 1264 H 58.9371 -44.1224 76.6133 0
M  V30 1265 H 58.0881 -41.8543 77.416 0
M  V30 1266 H 57.5632 -43.263 79.3531 0
M  V30 1267 H 59.3946 -40.7891 79.7009 0
M  V30 1268 H 57.5467 -40.8527 80.681 0
M  V30 1269 H 59.6919 -39.832 77.4317 0
M  V30 1270 H 57.5737 -41.1044 76.8732 0
M  V30 1271 H 57.3032 -38.7442 75.8448 0
M  V30 1272 H 59.3081 -38.7215 75.9494 0
M  V30 1273 H 56.5217 -40.9954 75.3718 0
M  V30 1274 H 55.085 -40.0578 75.9453 0
M  V30 1275 H 55.3911 -38.6454 74.7297 0
M  V30 1276 H 53.5932 -40.7055 74.6937 0
M  V30 1277 H 53.9857 -39.2535 73.5729 0
M  V30 1278 H 54.0564 -41.9566 73.1231 0
M  V30 1279 H 54.4201 -40.4268 72.0965 0
M  V30 1280 H 55.9648 -42.5292 72.8194 0
M  V30 1281 H 56.2081 -40.9429 71.8242 0
M  V30 1282 H 57.7131 -40.4681 72.9926 0
M  V30 1283 H 57.31 -41.9189 74.1201 0
M  V30 1284 H 58.5318 -38.8558 79.5372 0
M  V30 1285 H 60.3037 -38.4529 79.6439 0
M  V30 1286 H 60.3224 -37.6096 77.9578 0
M  V30 1287 H 60.2846 -36.585 80.4948 0
M  V30 1288 H 60.3203 -35.8651 78.7616 0
M  V30 1289 H 58.5091 -35.6173 80.7855 0
M  V30 1290 H 58.6532 -34.9595 79.0325 0
M  V30 1291 H 56.7828 -36.5022 80.2386 0
M  V30 1292 H 57.0485 -35.7933 78.5107 0
M  V30 1293 H 56.9232 -37.6341 77.757 0
M  V30 1294 H 56.8913 -38.3526 79.4923 0
M  V30 1295 H 61.3283 -42.4257 75.6567 0
M  V30 1296 H 59.7611 -42.9041 74.7744 0
M  V30 1297 H 60.2888 -45.0884 79.5916 0
M  V30 1298 H 62.0361 -44.8628 79.2416 0
M  V30 1299 H 60.9301 -43.4474 79.2416 0
M  V30 1300 H 58.8747 -46.1871 75.9884 0
M  V30 1301 H 58.8779 -45.2745 74.4411 0
M  V30 1302 H 59.19 -47.0435 74.4411 0
M  V30 1303 H 61.9661 -47.718 74.9722 0
M  V30 1304 H 60.763 -47.4107 73.6742 0
M  V30 1305 H 62.3287 -46.5303 73.6742 0
M  V30 END ATOM
M  V30 BEGIN BOND
M  V30 1 1 2 1 CFG=3
M  V30 2 1 2 3
M  V30 3 1 3 4
M  V30 4 1 4 5
M  V30 5 1 5 6
M  V30 6 1 5 7
M  V30 7 1 7 8
M  V30 8 1 8 9
M  V30 9 1 9 10
M  V30 10 1 10 11
M  V30 11 1 7 12
M  V30 12 1 11 12
M  V30 13 1 3 13
M  V30 14 1 13 14
M  V30 15 1 14 15 CFG=1
M  V30 16 1 15 16
M  V30 17 1 16 17
M  V30 18 1 16 18
M  V30 19 1 14 19
M  V30 20 1 19 20
M  V30 21 1 14 21
M  V30 22 1 20 21
M  V30 23 1 21 22
M  V30 24 1 22 23
M  V30 25 1 23 24
M  V30 26 1 13 25
M  V30 27 1 23 25
M  V30 28 1 25 26 CFG=3
M  V30 29 1 25 27
M  V30 30 1 27 28
M  V30 31 1 27 29
M  V30 32 1 29 30
M  V30 33 1 30 31
M  V30 34 1 31 32
M  V30 35 1 31 33
M  V30 36 1 29 34
M  V30 37 1 34 35
M  V30 38 1 35 36
M  V30 39 1 36 37
M  V30 40 1 37 38
M  V30 41 1 38 39
M  V30 42 1 38 40
M  V30 43 1 40 41
M  V30 44 1 40 42
M  V30 45 1 42 43
M  V30 46 1 43 44
M  V30 47 1 44 45
M  V30 48 1 44 46
M  V30 49 1 46 47
M  V30 50 1 47 48
M  V30 51 1 48 49
M  V30 52 1 49 50
M  V30 53 1 46 51
M  V30 54 1 50 51
M  V30 55 1 42 52
M  V30 56 1 52 53
M  V30 57 1 53 54
M  V30 58 1 54 55
M  V30 59 1 55 56
M  V30 60 1 52 57
M  V30 61 1 56 57
M  V30 62 1 2 58
M  V30 63 1 36 58
M  V30 64 1 35 59
M  V30 65 1 2 60
M  V30 66 1 34 60
M  V30 67 1 60 61 CFG=1
M  V30 68 1 60 62
M  V30 69 1 64 63 CFG=3
M  V30 70 1 64 65
M  V30 71 1 65 66
M  V30 72 1 66 67
M  V30 73 1 67 68
M  V30 74 1 67 69
M  V30 75 1 69 70
M  V30 76 1 70 71
M  V30 77 1 71 72
M  V30 78 1 72 73
M  V30 79 1 69 74
M  V30 80 1 73 74
M  V30 81 1 65 75
M  V30 82 1 75 76
M  V30 83 1 76 77 CFG=1
M  V30 84 1 77 78
M  V30 85 1 78 79
M  V30 86 1 78 80
M  V30 87 1 76 81
M  V30 88 1 81 82
M  V30 89 1 76 83
M  V30 90 1 82 83
M  V30 91 1 83 84
M  V30 92 1 84 85
M  V30 93 1 85 86
M  V30 94 1 75 87
M  V30 95 1 85 87
M  V30 96 1 87 88 CFG=3
M  V30 97 1 87 89
M  V30 98 1 89 90
M  V30 99 1 89 91
M  V30 100 1 91 92
M  V30 101 1 92 93
M  V30 102 1 93 94
M  V30 103 1 93 95
M  V30 104 1 91 96
M  V30 105 1 96 97
M  V30 106 1 97 98
M  V30 107 1 98 99
M  V30 108 1 99 100
M  V30 109 1 100 101
M  V30 110 1 100 102
M  V30 111 1 102 103
M  V30 112 1 102 104
M  V30 113 1 104 105
M  V30 114 1 105 106
M  V30 115 1 106 107
M  V30 116 1 106 108
M  V30 117 1 108 109
M  V30 118 1 109 110
M  V30 119 1 110 111
M  V30 120 1 111 112
M  V30 121 1 108 113
M  V30 122 1 112 113
M  V30 123 1 104 114
M  V30 124 1 114 115
M  V30 125 1 115 116
M  V30 126 1 116 117
M  V30 127 1 117 118
M  V30 128 1 114 119
M  V30 129 1 118 119
M  V30 130 1 64 120
M  V30 131 1 98 120
M  V30 132 1 97 121
M  V30 133 1 64 122
M  V30 134 1 96 122
M  V30 135 1 122 123 CFG=1
M  V30 136 1 122 124
M  V30 137 1 126 125 CFG=3
M  V30 138 1 126 127
M  V30 139 1 127 128
M  V30 140 1 128 129
M  V30 141 1 129 130
M  V30 142 1 129 131
M  V30 143 1 131 132
M  V30 144 1 132 133
M  V30 145 1 133 134
M  V30 146 1 134 135
M  V30 147 1 131 136
M  V30 148 1 135 136
M  V30 149 1 127 137
M  V30 150 1 137 138
M  V30 151 1 138 139 CFG=1
M  V30 152 1 139 140
M  V30 153 1 140 141
M  V30 154 1 140 142
M  V30 155 1 138 143
M  V30 156 1 143 144
M  V30 157 1 138 145
M  V30 158 1 144 145
M  V30 159 1 145 146
M  V30 160 1 146 147
M  V30 161 1 147 148
M  V30 162 1 137 149
M  V30 163 1 147 149
M  V30 164 1 149 150 CFG=3
M  V30 165 1 149 151
M  V30 166 1 151 152
M  V30 167 1 151 153
M  V30 168 1 153 154
M  V30 169 1 154 155
M  V30 170 1 155 156
M  V30 171 1 155 157
M  V30 172 1 153 158
M  V30 173 1 158 159
M  V30 174 1 159 160
M  V30 175 1 160 161
M  V30 176 1 161 162
M  V30 177 1 162 163
M  V30 178 1 162 164
M  V30 179 1 164 165
M  V30 180 1 164 166
M  V30 181 1 166 167
M  V30 182 1 167 168
M  V30 183 1 168 169
M  V30 184 1 168 170
M  V30 185 1 170 171
M  V30 186 1 171 172
M  V30 187 1 172 173
M  V30 188 1 173 174
M  V30 189 1 170 175
M  V30 190 1 174 175
M  V30 191 1 166 176
M  V30 192 1 176 177
M  V30 193 1 177 178
M  V30 194 1 178 179
M  V30 195 1 179 180
M  V30 196 1 176 181
M  V30 197 1 180 181
M  V30 198 1 126 182
M  V30 199 1 160 182
M  V30 200 1 159 183
M  V30 201 1 126 184
M  V30 202 1 158 184
M  V30 203 1 184 185 CFG=1
M  V30 204 1 184 186
M  V30 205 1 188 187 CFG=3
M  V30 206 1 188 189
M  V30 207 1 189 190
M  V30 208 1 190 191
M  V30 209 1 191 192
M  V30 210 1 191 193
M  V30 211 1 193 194
M  V30 212 1 194 195
M  V30 213 1 195 196
M  V30 214 1 196 197
M  V30 215 1 193 198
M  V30 216 1 197 198
M  V30 217 1 189 199
M  V30 218 1 199 200
M  V30 219 1 200 201 CFG=1
M  V30 220 1 201 202
M  V30 221 1 202 203
M  V30 222 1 202 204
M  V30 223 1 200 205
M  V30 224 1 205 206
M  V30 225 1 200 207
M  V30 226 1 206 207
M  V30 227 1 207 208
M  V30 228 1 208 209
M  V30 229 1 209 210
M  V30 230 1 199 211
M  V30 231 1 209 211
M  V30 232 1 211 212 CFG=3
M  V30 233 1 211 213
M  V30 234 1 213 214
M  V30 235 1 213 215
M  V30 236 1 215 216
M  V30 237 1 216 217
M  V30 238 1 217 218
M  V30 239 1 217 219
M  V30 240 1 215 220
M  V30 241 1 220 221
M  V30 242 1 221 222
M  V30 243 1 222 223
M  V30 244 1 223 224
M  V30 245 1 224 225
M  V30 246 1 224 226
M  V30 247 1 226 227
M  V30 248 1 226 228
M  V30 249 1 228 229
M  V30 250 1 229 230
M  V30 251 1 230 231
M  V30 252 1 230 232
M  V30 253 1 232 233
M  V30 254 1 233 234
M  V30 255 1 234 235
M  V30 256 1 235 236
M  V30 257 1 232 237
M  V30 258 1 236 237
M  V30 259 1 228 238
M  V30 260 1 238 239
M  V30 261 1 239 240
M  V30 262 1 240 241
M  V30 263 1 241 242
M  V30 264 1 238 243
M  V30 265 1 242 243
M  V30 266 1 188 244
M  V30 267 1 222 244
M  V30 268 1 221 245
M  V30 269 1 188 246
M  V30 270 1 220 246
M  V30 271 1 246 247 CFG=1
M  V30 272 1 246 248
M  V30 273 1 250 249 CFG=3
M  V30 274 1 250 251
M  V30 275 1 251 252
M  V30 276 1 252 253
M  V30 277 1 253 254
M  V30 278 1 253 255
M  V30 279 1 255 256
M  V30 280 1 256 257
M  V30 281 1 257 258
M  V30 282 1 258 259
M  V30 283 1 255 260
M  V30 284 1 259 260
M  V30 285 1 251 261
M  V30 286 1 261 262
M  V30 287 1 262 263 CFG=1
M  V30 288 1 263 264
M  V30 289 1 264 265
M  V30 290 1 264 266
M  V30 291 1 262 267
M  V30 292 1 267 268
M  V30 293 1 262 269
M  V30 294 1 268 269
M  V30 295 1 269 270
M  V30 296 1 270 271
M  V30 297 1 271 272
M  V30 298 1 261 273
M  V30 299 1 271 273
M  V30 300 1 273 274 CFG=3
M  V30 301 1 273 275
M  V30 302 1 275 276
M  V30 303 1 275 277
M  V30 304 1 277 278
M  V30 305 1 278 279
M  V30 306 1 279 280
M  V30 307 1 279 281
M  V30 308 1 277 282
M  V30 309 1 282 283
M  V30 310 1 283 284
M  V30 311 1 284 285
M  V30 312 1 285 286
M  V30 313 1 286 287
M  V30 314 1 286 288
M  V30 315 1 288 289
M  V30 316 1 288 290
M  V30 317 1 290 291
M  V30 318 1 291 292
M  V30 319 1 292 293
M  V30 320 1 292 294
M  V30 321 1 294 295
M  V30 322 1 295 296
M  V30 323 1 296 297
M  V30 324 1 297 298
M  V30 325 1 294 299
M  V30 326 1 298 299
M  V30 327 1 290 300
M  V30 328 1 300 301
M  V30 329 1 301 302
M  V30 330 1 302 303
M  V30 331 1 303 304
M  V30 332 1 300 305
M  V30 333 1 304 305
M  V30 334 1 250 306
M  V30 335 1 284 306
M  V30 336 1 283 307
M  V30 337 1 250 308
M  V30 338 1 282 308
M  V30 339 1 308 309 CFG=1
M  V30 340 1 308 310
M  V30 341 1 312 311 CFG=3
M  V30 342 1 312 313
M  V30 343 1 313 314
M  V30 344 1 314 315
M  V30 345 1 315 316
M  V30 346 1 315 317
M  V30 347 1 317 318
M  V30 348 1 318 319
M  V30 349 1 319 320
M  V30 350 1 320 321
M  V30 351 1 317 322
M  V30 352 1 321 322
M  V30 353 1 313 323
M  V30 354 1 323 324
M  V30 355 1 324 325 CFG=1
M  V30 356 1 325 326
M  V30 357 1 326 327
M  V30 358 1 326 328
M  V30 359 1 324 329
M  V30 360 1 329 330
M  V30 361 1 324 331
M  V30 362 1 330 331
M  V30 363 1 331 332
M  V30 364 1 332 333
M  V30 365 1 333 334
M  V30 366 1 323 335
M  V30 367 1 333 335
M  V30 368 1 335 336 CFG=3
M  V30 369 1 335 337
M  V30 370 1 337 338
M  V30 371 1 337 339
M  V30 372 1 339 340
M  V30 373 1 340 341
M  V30 374 1 341 342
M  V30 375 1 341 343
M  V30 376 1 339 344
M  V30 377 1 344 345
M  V30 378 1 345 346
M  V30 379 1 346 347
M  V30 380 1 347 348
M  V30 381 1 348 349
M  V30 382 1 348 350
M  V30 383 1 350 351
M  V30 384 1 350 352
M  V30 385 1 352 353
M  V30 386 1 353 354
M  V30 387 1 354 355
M  V30 388 1 354 356
M  V30 389 1 356 357
M  V30 390 1 357 358
M  V30 391 1 358 359
M  V30 392 1 359 360
M  V30 393 1 356 361
M  V30 394 1 360 361
M  V30 395 1 352 362
M  V30 396 1 362 363
M  V30 397 1 363 364
M  V30 398 1 364 365
M  V30 399 1 365 366
M  V30 400 1 362 367
M  V30 401 1 366 367
M  V30 402 1 312 368
M  V30 403 1 346 368
M  V30 404 1 345 369
M  V30 405 1 312 370
M  V30 406 1 344 370
M  V30 407 1 370 371 CFG=1
M  V30 408 1 370 372
M  V30 409 1 374 373 CFG=3
M  V30 410 1 374 375
M  V30 411 1 375 376
M  V30 412 1 376 377
M  V30 413 1 377 378
M  V30 414 1 377 379
M  V30 415 1 379 380
M  V30 416 1 380 381
M  V30 417 1 381 382
M  V30 418 1 382 383
M  V30 419 1 379 384
M  V30 420 1 383 384
M  V30 421 1 375 385
M  V30 422 1 385 386
M  V30 423 1 386 387 CFG=1
M  V30 424 1 387 388
M  V30 425 1 388 389
M  V30 426 1 388 390
M  V30 427 1 386 391
M  V30 428 1 391 392
M  V30 429 1 386 393
M  V30 430 1 392 393
M  V30 431 1 393 394
M  V30 432 1 394 395
M  V30 433 1 395 396
M  V30 434 1 385 397
M  V30 435 1 395 397
M  V30 436 1 397 398 CFG=3
M  V30 437 1 397 399
M  V30 438 1 399 400
M  V30 439 1 399 401
M  V30 440 1 401 402
M  V30 441 1 402 403
M  V30 442 1 403 404
M  V30 443 1 403 405
M  V30 444 1 401 406
M  V30 445 1 406 407
M  V30 446 1 407 408
M  V30 447 1 408 409
M  V30 448 1 409 410
M  V30 449 1 410 411
M  V30 450 1 410 412
M  V30 451 1 412 413
M  V30 452 1 412 414
M  V30 453 1 414 415
M  V30 454 1 415 416
M  V30 455 1 416 417
M  V30 456 1 416 418
M  V30 457 1 418 419
M  V30 458 1 419 420
M  V30 459 1 420 421
M  V30 460 1 421 422
M  V30 461 1 418 423
M  V30 462 1 422 423
M  V30 463 1 414 424
M  V30 464 1 424 425
M  V30 465 1 425 426
M  V30 466 1 426 427
M  V30 467 1 427 428
M  V30 468 1 424 429
M  V30 469 1 428 429
M  V30 470 1 374 430
M  V30 471 1 408 430
M  V30 472 1 407 431
M  V30 473 1 374 432
M  V30 474 1 406 432
M  V30 475 1 432 433 CFG=1
M  V30 476 1 432 434
M  V30 477 1 436 435 CFG=3
M  V30 478 1 436 437
M  V30 479 1 437 438
M  V30 480 1 438 439
M  V30 481 1 439 440
M  V30 482 1 439 441
M  V30 483 1 441 442
M  V30 484 1 442 443
M  V30 485 1 443 444
M  V30 486 1 444 445
M  V30 487 1 441 446
M  V30 488 1 445 446
M  V30 489 1 437 447
M  V30 490 1 447 448
M  V30 491 1 448 449 CFG=1
M  V30 492 1 449 450
M  V30 493 1 450 451
M  V30 494 1 450 452
M  V30 495 1 448 453
M  V30 496 1 453 454
M  V30 497 1 448 455
M  V30 498 1 454 455
M  V30 499 1 455 456
M  V30 500 1 456 457
M  V30 501 1 457 458
M  V30 502 1 447 459
M  V30 503 1 457 459
M  V30 504 1 459 460 CFG=3
M  V30 505 1 459 461
M  V30 506 1 461 462
M  V30 507 1 461 463
M  V30 508 1 463 464
M  V30 509 1 464 465
M  V30 510 1 465 466
M  V30 511 1 465 467
M  V30 512 1 463 468
M  V30 513 1 468 469
M  V30 514 1 469 470
M  V30 515 1 470 471
M  V30 516 1 471 472
M  V30 517 1 472 473
M  V30 518 1 472 474
M  V30 519 1 474 475
M  V30 520 1 474 476
M  V30 521 1 476 477
M  V30 522 1 477 478
M  V30 523 1 478 479
M  V30 524 1 478 480
M  V30 525 1 480 481
M  V30 526 1 481 482
M  V30 527 1 482 483
M  V30 528 1 483 484
M  V30 529 1 480 485
M  V30 530 1 484 485
M  V30 531 1 476 486
M  V30 532 1 486 487
M  V30 533 1 487 488
M  V30 534 1 488 489
M  V30 535 1 489 490
M  V30 536 1 486 491
M  V30 537 1 490 491
M  V30 538 1 436 492
M  V30 539 1 470 492
M  V30 540 1 469 493
M  V30 541 1 436 494
M  V30 542 1 468 494
M  V30 543 1 494 495 CFG=1
M  V30 544 1 494 496
M  V30 545 1 498 497 CFG=3
M  V30 546 1 498 499
M  V30 547 1 499 500
M  V30 548 1 500 501
M  V30 549 1 501 502
M  V30 550 1 501 503
M  V30 551 1 503 504
M  V30 552 1 504 505
M  V30 553 1 505 506
M  V30 554 1 506 507
M  V30 555 1 503 508
M  V30 556 1 507 508
M  V30 557 1 499 509
M  V30 558 1 509 510
M  V30 559 1 510 511 CFG=1
M  V30 560 1 511 512
M  V30 561 1 512 513
M  V30 562 1 512 514
M  V30 563 1 510 515
M  V30 564 1 515 516
M  V30 565 1 510 517
M  V30 566 1 516 517
M  V30 567 1 517 518
M  V30 568 1 518 519
M  V30 569 1 519 520
M  V30 570 1 509 521
M  V30 571 1 519 521
M  V30 572 1 521 522 CFG=3
M  V30 573 1 521 523
M  V30 574 1 523 524
M  V30 575 1 523 525
M  V30 576 1 525 526
M  V30 577 1 526 527
M  V30 578 1 527 528
M  V30 579 1 527 529
M  V30 580 1 525 530
M  V30 581 1 530 531
M  V30 582 1 531 532
M  V30 583 1 532 533
M  V30 584 1 533 534
M  V30 585 1 534 535
M  V30 586 1 534 536
M  V30 587 1 536 537
M  V30 588 1 536 538
M  V30 589 1 538 539
M  V30 590 1 539 540
M  V30 591 1 540 541
M  V30 592 1 540 542
M  V30 593 1 542 543
M  V30 594 1 543 544
M  V30 595 1 544 545
M  V30 596 1 545 546
M  V30 597 1 542 547
M  V30 598 1 546 547
M  V30 599 1 538 548
M  V30 600 1 548 549
M  V30 601 1 549 550
M  V30 602 1 550 551
M  V30 603 1 551 552
M  V30 604 1 548 553
M  V30 605 1 552 553
M  V30 606 1 498 554
M  V30 607 1 532 554
M  V30 608 1 531 555
M  V30 609 1 498 556
M  V30 610 1 530 556
M  V30 611 1 556 557 CFG=1
M  V30 612 1 556 558
M  V30 613 1 1 559
M  V30 614 1 3 560 CFG=3
M  V30 615 1 5 561
M  V30 616 1 6 562
M  V30 617 1 7 563
M  V30 618 1 8 564
M  V30 619 1 8 565
M  V30 620 1 9 566
M  V30 621 1 9 567
M  V30 622 1 10 568
M  V30 623 1 10 569
M  V30 624 1 11 570
M  V30 625 1 11 571
M  V30 626 1 12 572
M  V30 627 1 12 573
M  V30 628 1 13 574 CFG=1
M  V30 629 1 16 575
M  V30 630 1 17 576
M  V30 631 1 18 577
M  V30 632 1 18 578
M  V30 633 1 18 579
M  V30 634 1 19 580
M  V30 635 1 19 581
M  V30 636 1 21 582 CFG=1
M  V30 637 1 22 583
M  V30 638 1 22 584
M  V30 639 1 23 585 CFG=1
M  V30 640 1 24 586
M  V30 641 1 26 587
M  V30 642 1 26 588
M  V30 643 1 26 589
M  V30 644 1 27 590
M  V30 645 1 28 591
M  V30 646 1 29 592 CFG=1
M  V30 647 1 31 593
M  V30 648 1 32 594
M  V30 649 1 33 595
M  V30 650 1 33 596
M  V30 651 1 33 597
M  V30 652 1 34 598 CFG=1
M  V30 653 1 35 599 CFG=1
M  V30 654 1 36 600 CFG=3
M  V30 655 1 38 601
M  V30 656 1 39 602
M  V30 657 1 40 603 CFG=1
M  V30 658 1 41 604
M  V30 659 1 42 605 CFG=3
M  V30 660 1 43 606
M  V30 661 1 44 607
M  V30 662 1 45 608
M  V30 663 1 46 609
M  V30 664 1 47 610
M  V30 665 1 47 611
M  V30 666 1 48 612
M  V30 667 1 48 613
M  V30 668 1 49 614
M  V30 669 1 49 615
M  V30 670 1 50 616
M  V30 671 1 50 617
M  V30 672 1 51 618
M  V30 673 1 51 619
M  V30 674 1 52 620
M  V30 675 1 53 621
M  V30 676 1 53 622
M  V30 677 1 54 623
M  V30 678 1 54 624
M  V30 679 1 55 625
M  V30 680 1 55 626
M  V30 681 1 56 627
M  V30 682 1 56 628
M  V30 683 1 57 629
M  V30 684 1 57 630
M  V30 685 1 58 631
M  V30 686 1 58 632
M  V30 687 1 59 633
M  V30 688 1 59 634
M  V30 689 1 59 635
M  V30 690 1 61 636
M  V30 691 1 61 637
M  V30 692 1 61 638
M  V30 693 1 62 639
M  V30 694 1 62 640
M  V30 695 1 62 641
M  V30 696 1 63 642
M  V30 697 1 65 643 CFG=3
M  V30 698 1 67 644
M  V30 699 1 68 645
M  V30 700 1 69 646
M  V30 701 1 70 647
M  V30 702 1 70 648
M  V30 703 1 71 649
M  V30 704 1 71 650
M  V30 705 1 72 651
M  V30 706 1 72 652
M  V30 707 1 73 653
M  V30 708 1 73 654
M  V30 709 1 74 655
M  V30 710 1 74 656
M  V30 711 1 75 657 CFG=1
M  V30 712 1 78 658
M  V30 713 1 79 659
M  V30 714 1 80 660
M  V30 715 1 80 661
M  V30 716 1 80 662
M  V30 717 1 81 663
M  V30 718 1 81 664
M  V30 719 1 83 665 CFG=1
M  V30 720 1 84 666
M  V30 721 1 84 667
M  V30 722 1 85 668 CFG=1
M  V30 723 1 86 669
M  V30 724 1 88 670
M  V30 725 1 88 671
M  V30 726 1 88 672
M  V30 727 1 89 673
M  V30 728 1 90 674
M  V30 729 1 91 675 CFG=1
M  V30 730 1 93 676
M  V30 731 1 94 677
M  V30 732 1 95 678
M  V30 733 1 95 679
M  V30 734 1 95 680
M  V30 735 1 96 681 CFG=1
M  V30 736 1 97 682 CFG=1
M  V30 737 1 98 683 CFG=3
M  V30 738 1 100 684
M  V30 739 1 101 685
M  V30 740 1 102 686 CFG=1
M  V30 741 1 103 687
M  V30 742 1 104 688 CFG=3
M  V30 743 1 105 689
M  V30 744 1 106 690
M  V30 745 1 107 691
M  V30 746 1 108 692
M  V30 747 1 109 693
M  V30 748 1 109 694
M  V30 749 1 110 695
M  V30 750 1 110 696
M  V30 751 1 111 697
M  V30 752 1 111 698
M  V30 753 1 112 699
M  V30 754 1 112 700
M  V30 755 1 113 701
M  V30 756 1 113 702
M  V30 757 1 114 703
M  V30 758 1 115 704
M  V30 759 1 115 705
M  V30 760 1 116 706
M  V30 761 1 116 707
M  V30 762 1 117 708
M  V30 763 1 117 709
M  V30 764 1 118 710
M  V30 765 1 118 711
M  V30 766 1 119 712
M  V30 767 1 119 713
M  V30 768 1 120 714
M  V30 769 1 120 715
M  V30 770 1 121 716
M  V30 771 1 121 717
M  V30 772 1 121 718
M  V30 773 1 123 719
M  V30 774 1 123 720
M  V30 775 1 123 721
M  V30 776 1 124 722
M  V30 777 1 124 723
M  V30 778 1 124 724
M  V30 779 1 125 725
M  V30 780 1 127 726 CFG=3
M  V30 781 1 129 727
M  V30 782 1 130 728
M  V30 783 1 131 729
M  V30 784 1 132 730
M  V30 785 1 132 731
M  V30 786 1 133 732
M  V30 787 1 133 733
M  V30 788 1 134 734
M  V30 789 1 134 735
M  V30 790 1 135 736
M  V30 791 1 135 737
M  V30 792 1 136 738
M  V30 793 1 136 739
M  V30 794 1 137 740 CFG=1
M  V30 795 1 140 741
M  V30 796 1 141 742
M  V30 797 1 142 743
M  V30 798 1 142 744
M  V30 799 1 142 745
M  V30 800 1 143 746
M  V30 801 1 143 747
M  V30 802 1 145 748 CFG=1
M  V30 803 1 146 749
M  V30 804 1 146 750
M  V30 805 1 147 751 CFG=1
M  V30 806 1 148 752
M  V30 807 1 150 753
M  V30 808 1 150 754
M  V30 809 1 150 755
M  V30 810 1 151 756
M  V30 811 1 152 757
M  V30 812 1 153 758 CFG=1
M  V30 813 1 155 759
M  V30 814 1 156 760
M  V30 815 1 157 761
M  V30 816 1 157 762
M  V30 817 1 157 763
M  V30 818 1 158 764 CFG=1
M  V30 819 1 159 765 CFG=1
M  V30 820 1 160 766 CFG=3
M  V30 821 1 162 767
M  V30 822 1 163 768
M  V30 823 1 164 769 CFG=1
M  V30 824 1 165 770
M  V30 825 1 166 771 CFG=3
M  V30 826 1 167 772
M  V30 827 1 168 773
M  V30 828 1 169 774
M  V30 829 1 170 775
M  V30 830 1 171 776
M  V30 831 1 171 777
M  V30 832 1 172 778
M  V30 833 1 172 779
M  V30 834 1 173 780
M  V30 835 1 173 781
M  V30 836 1 174 782
M  V30 837 1 174 783
M  V30 838 1 175 784
M  V30 839 1 175 785
M  V30 840 1 176 786
M  V30 841 1 177 787
M  V30 842 1 177 788
M  V30 843 1 178 789
M  V30 844 1 178 790
M  V30 845 1 179 791
M  V30 846 1 179 792
M  V30 847 1 180 793
M  V30 848 1 180 794
M  V30 849 1 181 795
M  V30 850 1 181 796
M  V30 851 1 182 797
M  V30 852 1 182 798
M  V30 853 1 183 799
M  V30 854 1 183 800
M  V30 855 1 183 801
M  V30 856 1 185 802
M  V30 857 1 185 803
M  V30 858 1 185 804
M  V30 859 1 186 805
M  V30 860 1 186 806
M  V30 861 1 186 807
M  V30 862 1 187 808
M  V30 863 1 189 809 CFG=3
M  V30 864 1 191 810
M  V30 865 1 192 811
M  V30 866 1 193 812
M  V30 867 1 194 813
M  V30 868 1 194 814
M  V30 869 1 195 815
M  V30 870 1 195 816
M  V30 871 1 196 817
M  V30 872 1 196 818
M  V30 873 1 197 819
M  V30 874 1 197 820
M  V30 875 1 198 821
M  V30 876 1 198 822
M  V30 877 1 199 823 CFG=1
M  V30 878 1 202 824
M  V30 879 1 203 825
M  V30 880 1 204 826
M  V30 881 1 204 827
M  V30 882 1 204 828
M  V30 883 1 205 829
M  V30 884 1 205 830
M  V30 885 1 207 831 CFG=1
M  V30 886 1 208 832
M  V30 887 1 208 833
M  V30 888 1 209 834 CFG=1
M  V30 889 1 210 835
M  V30 890 1 212 836
M  V30 891 1 212 837
M  V30 892 1 212 838
M  V30 893 1 213 839
M  V30 894 1 214 840
M  V30 895 1 215 841 CFG=1
M  V30 896 1 217 842
M  V30 897 1 218 843
M  V30 898 1 219 844
M  V30 899 1 219 845
M  V30 900 1 219 846
M  V30 901 1 220 847 CFG=1
M  V30 902 1 221 848 CFG=1
M  V30 903 1 222 849 CFG=3
M  V30 904 1 224 850
M  V30 905 1 225 851
M  V30 906 1 226 852 CFG=1
M  V30 907 1 227 853
M  V30 908 1 228 854 CFG=3
M  V30 909 1 229 855
M  V30 910 1 230 856
M  V30 911 1 231 857
M  V30 912 1 232 858
M  V30 913 1 233 859
M  V30 914 1 233 860
M  V30 915 1 234 861
M  V30 916 1 234 862
M  V30 917 1 235 863
M  V30 918 1 235 864
M  V30 919 1 236 865
M  V30 920 1 236 866
M  V30 921 1 237 867
M  V30 922 1 237 868
M  V30 923 1 238 869
M  V30 924 1 239 870
M  V30 925 1 239 871
M  V30 926 1 240 872
M  V30 927 1 240 873
M  V30 928 1 241 874
M  V30 929 1 241 875
M  V30 930 1 242 876
M  V30 931 1 242 877
M  V30 932 1 243 878
M  V30 933 1 243 879
M  V30 934 1 244 880
M  V30 935 1 244 881
M  V30 936 1 245 882
M  V30 937 1 245 883
M  V30 938 1 245 884
M  V30 939 1 247 885
M  V30 940 1 247 886
M  V30 941 1 247 887
M  V30 942 1 248 888
M  V30 943 1 248 889
M  V30 944 1 248 890
M  V30 945 1 249 891
M  V30 946 1 251 892 CFG=3
M  V30 947 1 253 893
M  V30 948 1 254 894
M  V30 949 1 255 895
M  V30 950 1 256 896
M  V30 951 1 256 897
M  V30 952 1 257 898
M  V30 953 1 257 899
M  V30 954 1 258 900
M  V30 955 1 258 901
M  V30 956 1 259 902
M  V30 957 1 259 903
M  V30 958 1 260 904
M  V30 959 1 260 905
M  V30 960 1 261 906 CFG=1
M  V30 961 1 264 907
M  V30 962 1 265 908
M  V30 963 1 266 909
M  V30 964 1 266 910
M  V30 965 1 266 911
M  V30 966 1 267 912
M  V30 967 1 267 913
M  V30 968 1 269 914 CFG=1
M  V30 969 1 270 915
M  V30 970 1 270 916
M  V30 971 1 271 917 CFG=1
M  V30 972 1 272 918
M  V30 973 1 274 919
M  V30 974 1 274 920
M  V30 975 1 274 921
M  V30 976 1 275 922
M  V30 977 1 276 923
M  V30 978 1 277 924 CFG=1
M  V30 979 1 279 925
M  V30 980 1 280 926
M  V30 981 1 281 927
M  V30 982 1 281 928
M  V30 983 1 281 929
M  V30 984 1 282 930 CFG=1
M  V30 985 1 283 931 CFG=1
M  V30 986 1 284 932 CFG=3
M  V30 987 1 286 933
M  V30 988 1 287 934
M  V30 989 1 288 935 CFG=1
M  V30 990 1 289 936
M  V30 991 1 290 937 CFG=3
M  V30 992 1 291 938
M  V30 993 1 292 939
M  V30 994 1 293 940
M  V30 995 1 294 941
M  V30 996 1 295 942
M  V30 997 1 295 943
M  V30 998 1 296 944
M  V30 999 1 296 945
M  V30 1000 1 297 946
M  V30 1001 1 297 947
M  V30 1002 1 298 948
M  V30 1003 1 298 949
M  V30 1004 1 299 950
M  V30 1005 1 299 951
M  V30 1006 1 300 952
M  V30 1007 1 301 953
M  V30 1008 1 301 954
M  V30 1009 1 302 955
M  V30 1010 1 302 956
M  V30 1011 1 303 957
M  V30 1012 1 303 958
M  V30 1013 1 304 959
M  V30 1014 1 304 960
M  V30 1015 1 305 961
M  V30 1016 1 305 962
M  V30 1017 1 306 963
M  V30 1018 1 306 964
M  V30 1019 1 307 965
M  V30 1020 1 307 966
M  V30 1021 1 307 967
M  V30 1022 1 309 968
M  V30 1023 1 309 969
M  V30 1024 1 309 970
M  V30 1025 1 310 971
M  V30 1026 1 310 972
M  V30 1027 1 310 973
M  V30 1028 1 311 974
M  V30 1029 1 313 975 CFG=3
M  V30 1030 1 315 976
M  V30 1031 1 316 977
M  V30 1032 1 317 978
M  V30 1033 1 318 979
M  V30 1034 1 318 980
M  V30 1035 1 319 981
M  V30 1036 1 319 982
M  V30 1037 1 320 983
M  V30 1038 1 320 984
M  V30 1039 1 321 985
M  V30 1040 1 321 986
M  V30 1041 1 322 987
M  V30 1042 1 322 988
M  V30 1043 1 323 989 CFG=1
M  V30 1044 1 326 990
M  V30 1045 1 327 991
M  V30 1046 1 328 992
M  V30 1047 1 328 993
M  V30 1048 1 328 994
M  V30 1049 1 329 995
M  V30 1050 1 329 996
M  V30 1051 1 331 997 CFG=1
M  V30 1052 1 332 998
M  V30 1053 1 332 999
M  V30 1054 1 333 1000 CFG=1
M  V30 1055 1 334 1001
M  V30 1056 1 336 1002
M  V30 1057 1 336 1003
M  V30 1058 1 336 1004
M  V30 1059 1 337 1005
M  V30 1060 1 338 1006
M  V30 1061 1 339 1007 CFG=1
M  V30 1062 1 341 1008
M  V30 1063 1 342 1009
M  V30 1064 1 343 1010
M  V30 1065 1 343 1011
M  V30 1066 1 343 1012
M  V30 1067 1 344 1013 CFG=1
M  V30 1068 1 345 1014 CFG=1
M  V30 1069 1 346 1015 CFG=3
M  V30 1070 1 348 1016
M  V30 1071 1 349 1017
M  V30 1072 1 350 1018 CFG=1
M  V30 1073 1 351 1019
M  V30 1074 1 352 1020 CFG=3
M  V30 1075 1 353 1021
M  V30 1076 1 354 1022
M  V30 1077 1 355 1023
M  V30 1078 1 356 1024
M  V30 1079 1 357 1025
M  V30 1080 1 357 1026
M  V30 1081 1 358 1027
M  V30 1082 1 358 1028
M  V30 1083 1 359 1029
M  V30 1084 1 359 1030
M  V30 1085 1 360 1031
M  V30 1086 1 360 1032
M  V30 1087 1 361 1033
M  V30 1088 1 361 1034
M  V30 1089 1 362 1035
M  V30 1090 1 363 1036
M  V30 1091 1 363 1037
M  V30 1092 1 364 1038
M  V30 1093 1 364 1039
M  V30 1094 1 365 1040
M  V30 1095 1 365 1041
M  V30 1096 1 366 1042
M  V30 1097 1 366 1043
M  V30 1098 1 367 1044
M  V30 1099 1 367 1045
M  V30 1100 1 368 1046
M  V30 1101 1 368 1047
M  V30 1102 1 369 1048
M  V30 1103 1 369 1049
M  V30 1104 1 369 1050
M  V30 1105 1 371 1051
M  V30 1106 1 371 1052
M  V30 1107 1 371 1053
M  V30 1108 1 372 1054
M  V30 1109 1 372 1055
M  V30 1110 1 372 1056
M  V30 1111 1 373 1057
M  V30 1112 1 375 1058 CFG=3
M  V30 1113 1 377 1059
M  V30 1114 1 378 1060
M  V30 1115 1 379 1061
M  V30 1116 1 380 1062
M  V30 1117 1 380 1063
M  V30 1118 1 381 1064
M  V30 1119 1 381 1065
M  V30 1120 1 382 1066
M  V30 1121 1 382 1067
M  V30 1122 1 383 1068
M  V30 1123 1 383 1069
M  V30 1124 1 384 1070
M  V30 1125 1 384 1071
M  V30 1126 1 385 1072 CFG=1
M  V30 1127 1 388 1073
M  V30 1128 1 389 1074
M  V30 1129 1 390 1075
M  V30 1130 1 390 1076
M  V30 1131 1 390 1077
M  V30 1132 1 391 1078
M  V30 1133 1 391 1079
M  V30 1134 1 393 1080 CFG=1
M  V30 1135 1 394 1081
M  V30 1136 1 394 1082
M  V30 1137 1 395 1083 CFG=1
M  V30 1138 1 396 1084
M  V30 1139 1 398 1085
M  V30 1140 1 398 1086
M  V30 1141 1 398 1087
M  V30 1142 1 399 1088
M  V30 1143 1 400 1089
M  V30 1144 1 401 1090 CFG=1
M  V30 1145 1 403 1091
M  V30 1146 1 404 1092
M  V30 1147 1 405 1093
M  V30 1148 1 405 1094
M  V30 1149 1 405 1095
M  V30 1150 1 406 1096 CFG=1
M  V30 1151 1 407 1097 CFG=1
M  V30 1152 1 408 1098 CFG=3
M  V30 1153 1 410 1099
M  V30 1154 1 411 1100
M  V30 1155 1 412 1101 CFG=1
M  V30 1156 1 413 1102
M  V30 1157 1 414 1103 CFG=3
M  V30 1158 1 415 1104
M  V30 1159 1 416 1105
M  V30 1160 1 417 1106
M  V30 1161 1 418 1107
M  V30 1162 1 419 1108
M  V30 1163 1 419 1109
M  V30 1164 1 420 1110
M  V30 1165 1 420 1111
M  V30 1166 1 421 1112
M  V30 1167 1 421 1113
M  V30 1168 1 422 1114
M  V30 1169 1 422 1115
M  V30 1170 1 423 1116
M  V30 1171 1 423 1117
M  V30 1172 1 424 1118
M  V30 1173 1 425 1119
M  V30 1174 1 425 1120
M  V30 1175 1 426 1121
M  V30 1176 1 426 1122
M  V30 1177 1 427 1123
M  V30 1178 1 427 1124
M  V30 1179 1 428 1125
M  V30 1180 1 428 1126
M  V30 1181 1 429 1127
M  V30 1182 1 429 1128
M  V30 1183 1 430 1129
M  V30 1184 1 430 1130
M  V30 1185 1 431 1131
M  V30 1186 1 431 1132
M  V30 1187 1 431 1133
M  V30 1188 1 433 1134
M  V30 1189 1 433 1135
M  V30 1190 1 433 1136
M  V30 1191 1 434 1137
M  V30 1192 1 434 1138
M  V30 1193 1 434 1139
M  V30 1194 1 435 1140
M  V30 1195 1 437 1141 CFG=3
M  V30 1196 1 439 1142
M  V30 1197 1 440 1143
M  V30 1198 1 441 1144
M  V30 1199 1 442 1145
M  V30 1200 1 442 1146
M  V30 1201 1 443 1147
M  V30 1202 1 443 1148
M  V30 1203 1 444 1149
M  V30 1204 1 444 1150
M  V30 1205 1 445 1151
M  V30 1206 1 445 1152
M  V30 1207 1 446 1153
M  V30 1208 1 446 1154
M  V30 1209 1 447 1155 CFG=1
M  V30 1210 1 450 1156
M  V30 1211 1 451 1157
M  V30 1212 1 452 1158
M  V30 1213 1 452 1159
M  V30 1214 1 452 1160
M  V30 1215 1 453 1161
M  V30 1216 1 453 1162
M  V30 1217 1 455 1163 CFG=1
M  V30 1218 1 456 1164
M  V30 1219 1 456 1165
M  V30 1220 1 457 1166 CFG=1
M  V30 1221 1 458 1167
M  V30 1222 1 460 1168
M  V30 1223 1 460 1169
M  V30 1224 1 460 1170
M  V30 1225 1 461 1171
M  V30 1226 1 462 1172
M  V30 1227 1 463 1173 CFG=1
M  V30 1228 1 465 1174
M  V30 1229 1 466 1175
M  V30 1230 1 467 1176
M  V30 1231 1 467 1177
M  V30 1232 1 467 1178
M  V30 1233 1 468 1179 CFG=1
M  V30 1234 1 469 1180 CFG=1
M  V30 1235 1 470 1181 CFG=3
M  V30 1236 1 472 1182
M  V30 1237 1 473 1183
M  V30 1238 1 474 1184 CFG=1
M  V30 1239 1 475 1185
M  V30 1240 1 476 1186 CFG=3
M  V30 1241 1 477 1187
M  V30 1242 1 478 1188
M  V30 1243 1 479 1189
M  V30 1244 1 480 1190
M  V30 1245 1 481 1191
M  V30 1246 1 481 1192
M  V30 1247 1 482 1193
M  V30 1248 1 482 1194
M  V30 1249 1 483 1195
M  V30 1250 1 483 1196
M  V30 1251 1 484 1197
M  V30 1252 1 484 1198
M  V30 1253 1 485 1199
M  V30 1254 1 485 1200
M  V30 1255 1 486 1201
M  V30 1256 1 487 1202
M  V30 1257 1 487 1203
M  V30 1258 1 488 1204
M  V30 1259 1 488 1205
M  V30 1260 1 489 1206
M  V30 1261 1 489 1207
M  V30 1262 1 490 1208
M  V30 1263 1 490 1209
M  V30 1264 1 491 1210
M  V30 1265 1 491 1211
M  V30 1266 1 492 1212
M  V30 1267 1 492 1213
M  V30 1268 1 493 1214
M  V30 1269 1 493 1215
M  V30 1270 1 493 1216
M  V30 1271 1 495 1217
M  V30 1272 1 495 1218
M  V30 1273 1 495 1219
M  V30 1274 1 496 1220
M  V30 1275 1 496 1221
M  V30 1276 1 496 1222
M  V30 1277 1 497 1223
M  V30 1278 1 499 1224 CFG=3
M  V30 1279 1 501 1225
M  V30 1280 1 502 1226
M  V30 1281 1 503 1227
M  V30 1282 1 504 1228
M  V30 1283 1 504 1229
M  V30 1284 1 505 1230
M  V30 1285 1 505 1231
M  V30 1286 1 506 1232
M  V30 1287 1 506 1233
M  V30 1288 1 507 1234
M  V30 1289 1 507 1235
M  V30 1290 1 508 1236
M  V30 1291 1 508 1237
M  V30 1292 1 509 1238 CFG=1
M  V30 1293 1 512 1239
M  V30 1294 1 513 1240
M  V30 1295 1 514 1241
M  V30 1296 1 514 1242
M  V30 1297 1 514 1243
M  V30 1298 1 515 1244
M  V30 1299 1 515 1245
M  V30 1300 1 517 1246 CFG=1
M  V30 1301 1 518 1247
M  V30 1302 1 518 1248
M  V30 1303 1 519 1249 CFG=1
M  V30 1304 1 520 1250
M  V30 1305 1 522 1251
M  V30 1306 1 522 1252
M  V30 1307 1 522 1253
M  V30 1308 1 523 1254
M  V30 1309 1 524 1255
M  V30 1310 1 525 1256 CFG=1
M  V30 1311 1 527 1257
M  V30 1312 1 528 1258
M  V30 1313 1 529 1259
M  V30 1314 1 529 1260
M  V30 1315 1 529 1261
M  V30 1316 1 530 1262 CFG=1
M  V30 1317 1 531 1263 CFG=1
M  V30 1318 1 532 1264 CFG=3
M  V30 1319 1 534 1265
M  V30 1320 1 535 1266
M  V30 1321 1 536 1267 CFG=1
M  V30 1322 1 537 1268
M  V30 1323 1 538 1269 CFG=3
M  V30 1324 1 539 1270
M  V30 1325 1 540 1271
M  V30 1326 1 541 1272
M  V30 1327 1 542 1273
M  V30 1328 1 543 1274
M  V30 1329 1 543 1275
M  V30 1330 1 544 1276
M  V30 1331 1 544 1277
M  V30 1332 1 545 1278
M  V30 1333 1 545 1279
M  V30 1334 1 546 1280
M  V30 1335 1 546 1281
M  V30 1336 1 547 1282
M  V30 1337 1 547 1283
M  V30 1338 1 548 1284
M  V30 1339 1 549 1285
M  V30 1340 1 549 1286
M  V30 1341 1 550 1287
M  V30 1342 1 550 1288
M  V30 1343 1 551 1289
M  V30 1344 1 551 1290
M  V30 1345 1 552 1291
M  V30 1346 1 552 1292
M  V30 1347 1 553 1293
M  V30 1348 1 553 1294
M  V30 1349 1 554 1295
M  V30 1350 1 554 1296
M  V30 1351 1 555 1297
M  V30 1352 1 555 1298
M  V30 1353 1 555 1299
M  V30 1354 1 557 1300
M  V30 1355 1 557 1301
M  V30 1356 1 557 1302
M  V30 1357 1 558 1303
M  V30 1358 1 558 1304
M  V30 1359 1 558 1305
M  V30 END BOND
M  V30 END CTAB
M  END
>  <PDBID>  (1) 
3J6G

>  <PDB ID>  (1) 
3J6G

>  <Generic Name>  (1) 
Paclitaxel

>  <Brand Name>  (1) 
Abraxane#Abraxane for Injectable Suspension#Aj-paclitaxel#Apo-paclitaxel Injectable#Paclitaxel#Paclitaxel Injection#Paclitaxel Injection USP#Paclitaxel Injection, USP#Paclitaxel Paclitaxel#Paclitaxel for Injection#Paclitaxel for Injection USP#Paxene#Taxol#Teva-paclitaxel for Injection#Onxol#Paxceed

>  <DrugBank ID>  (1) 
DB01229

>  <ATC Codes>  (1) 
L01CD01

>  <Ligand ID>  (1) 
TA1

>  <Target Name>  (1) 
Tubulin beta-1 chain

>  <UniProt ID>  (1) 
Q9H4B7

>  <PDB ID.1>  (1) 
3J6G

>  <Seq. Identity>  (1) 
78%

$$$$
