PDB_DB00642_94
     RDKit          3D

 52 54  0  0  0  0  0  0  0  0999 V2000
  -49.8670  -81.0610  -23.6250 C   0  0  0  0  0  0  0  0  0  0  0  0
  -49.8470  -80.2350  -24.7780 C   0  0  0  0  0  0  0  0  0  0  0  0
  -49.3320  -80.7360  -26.0060 C   0  0  0  0  0  0  0  0  0  0  0  0
  -48.8240  -82.0860  -26.1120 C   0  0  0  0  0  0  0  0  0  0  0  0
  -48.8580  -82.8840  -24.9360 C   0  0  0  0  0  0  0  0  0  0  0  0
  -49.3690  -82.3900  -23.7170 C   0  0  0  0  0  0  0  0  0  0  0  0
  -50.4380  -80.5240  -22.2910 C   0  0  0  0  0  0  0  0  0  0  0  0
  -49.4010  -80.0350  -21.2390 C   0  0  0  0  0  0  0  0  0  0  0  0
  -48.8880  -81.1630  -20.3440 C   0  0  0  0  0  0  0  0  0  0  0  0
  -49.6650  -81.9650  -19.5050 C   0  0  0  0  0  0  0  0  0  0  0  0
  -48.8700  -82.9020  -18.8380 N   0  0  0  0  0  0  0  0  0  0  0  0
  -47.5800  -82.6900  -19.2560 C   0  0  0  0  0  0  0  0  0  0  0  0
  -47.6000  -81.6130  -20.1830 C   0  0  0  0  0  0  0  0  0  0  0  0
  -46.2510  -81.1570  -20.8180 C   0  0  0  0  0  0  0  0  0  0  0  0
  -46.1370  -80.2490  -21.6180 O   0  0  0  0  0  0  0  0  0  0  0  0
  -45.1380  -81.8440  -20.4260 N   0  0  0  0  0  0  0  0  0  0  0  0
  -45.1870  -82.9350  -19.4800 C   0  0  0  0  0  0  0  0  0  0  0  0
  -46.3090  -83.3190  -18.9430 N   0  0  0  0  0  0  0  0  0  0  0  0
  -44.0310  -83.5730  -19.1410 N   0  0  0  0  0  0  0  0  0  0  0  0
  -48.2610  -82.7230  -27.3870 C   0  0  0  0  0  0  0  0  0  0  0  0
  -47.8570  -83.8900  -27.3740 O   0  0  0  0  0  0  0  0  0  0  0  0
  -48.2420  -81.9740  -28.5040 N   0  0  0  0  0  0  0  0  0  0  0  0
  -47.7670  -82.3970  -29.8540 C   0  0  1  0  0  0  0  0  0  0  0  0
  -48.9440  -82.7080  -30.8300 C   0  0  0  0  0  0  0  0  0  0  0  0
  -49.8190  -83.9600  -30.4960 C   0  0  0  0  0  0  0  0  0  0  0  0
  -50.9920  -84.2740  -31.4370 C   0  0  0  0  0  0  0  0  0  0  0  0
  -50.8430  -84.1460  -32.6760 O   0  0  0  0  0  0  0  0  0  0  0  0
  -52.0760  -84.6520  -30.9390 O   0  0  0  0  0  0  0  0  0  0  0  0
  -46.7590  -81.3150  -30.4080 C   0  0  0  0  0  0  0  0  0  0  0  0
  -45.6740  -81.6380  -30.9800 O   0  0  0  0  0  0  0  0  0  0  0  0
  -47.0820  -80.0970  -30.2760 O   0  0  0  0  0  0  0  0  0  0  0  0
  -50.2303  -79.2054  -24.7226 H   0  0  0  0  0  0  0  0  0  0  0  0
  -49.3200  -80.0840  -26.8919 H   0  0  0  0  0  0  0  0  0  0  0  0
  -48.4756  -83.9146  -24.9774 H   0  0  0  0  0  0  0  0  0  0  0  0
  -49.3823  -83.0392  -22.8291 H   0  0  0  0  0  0  0  0  0  0  0  0
  -51.0992  -79.6772  -22.5272 H   0  0  0  0  0  0  0  0  0  0  0  0
  -50.9438  -81.3821  -21.8243 H   0  0  0  0  0  0  0  0  0  0  0  0
  -48.5458  -79.5903  -21.7689 H   0  0  0  0  0  0  0  0  0  0  0  0
  -49.9059  -79.3026  -20.5920 H   0  0  0  0  0  0  0  0  0  0  0  0
  -50.7545  -81.8721  -19.3853 H   0  0  0  0  0  0  0  0  0  0  0  0
  -49.1899  -83.6126  -18.1645 H   0  0  0  0  0  0  0  0  0  0  0  0
  -46.2947  -84.0989  -18.2703 H   0  0  0  0  0  0  0  0  0  0  0  0
  -44.0512  -84.3524  -18.4679 H   0  0  0  0  0  0  0  0  0  0  0  0
  -43.1373  -83.2757  -19.5580 H   0  0  0  0  0  0  0  0  0  0  0  0
  -48.5914  -81.0088  -28.4188 H   0  0  0  0  0  0  0  0  0  0  0  0
  -47.2280  -83.3518  -29.7650 H   0  0  0  0  0  0  0  0  0  0  0  0
  -49.6077  -81.8309  -30.8425 H   0  0  0  0  0  0  0  0  0  0  0  0
  -48.4677  -82.9364  -31.7949 H   0  0  0  0  0  0  0  0  0  0  0  0
  -49.1540  -84.8362  -30.4939 H   0  0  0  0  0  0  0  0  0  0  0  0
  -50.2888  -83.7252  -29.5295 H   0  0  0  0  0  0  0  0  0  0  0  0
  -51.5946  -84.3466  -33.2883 H   0  0  0  0  0  0  0  0  0  0  0  0
  -45.0634  -80.9351  -31.3164 H   0  0  0  0  0  0  0  0  0  0  0  0
  1  2  2  0
  2  3  1  0
  3  4  2  0
  4  5  1  0
  1  6  1  0
  5  6  2  0
  1  7  1  0
  7  8  1  0
  8  9  1  0
  9 10  2  0
 10 11  1  0
 11 12  1  0
  9 13  1  0
 12 13  2  0
 13 14  1  0
 14 15  2  0
 14 16  1  0
 16 17  2  0
 12 18  1  0
 17 18  1  0
 17 19  1  0
  4 20  1  0
 20 21  2  0
 20 22  1  0
 22 23  1  0
 23 24  1  0
 24 25  1  0
 25 26  1  0
 26 27  1  0
 26 28  2  0
 23 29  1  0
 29 30  1  0
 29 31  2  0
  2 32  1  0
  3 33  1  0
  5 34  1  0
  6 35  1  0
  7 36  1  0
  7 37  1  0
  8 38  1  0
  8 39  1  0
 10 40  1  0
 11 41  1  0
 18 42  1  0
 19 43  1  0
 19 44  1  0
 22 45  1  0
 23 46  1  1
 24 47  1  0
 24 48  1  0
 25 49  1  0
 25 50  1  0
 27 51  1  0
 30 52  1  0
M  END
$$$$
