PDB_DB01136_99
     RDKit          3D

148154  0  0  0  0  0  0  0  0999 V2000
  -25.5540  -11.7130   23.3710 O   0  0  0  0  0  0  0  0  0  0  0  0
  -24.6280  -11.9070   24.4390 C   0  0  2  0  0  0  0  0  0  0  0  0
  -23.2980  -11.3470   24.0210 C   0  0  0  0  0  0  0  0  0  0  0  0
  -22.3900  -11.5230   25.1020 O   0  0  0  0  0  0  0  0  0  0  0  0
  -21.0440  -11.2850   24.9430 C   0  0  1  0  0  0  0  0  0  0  0  0
  -20.5440  -10.6680   23.7850 C   0  0  0  0  0  0  0  0  0  0  0  0
  -19.1830  -10.4300   23.6730 C   0  0  0  0  0  0  0  0  0  0  0  0
  -18.3340  -10.8790   24.6670 C   0  0  0  0  0  0  0  0  0  0  0  0
  -18.8250  -11.5240   25.7870 C   0  0  0  0  0  0  0  0  0  0  0  0
  -20.1720  -11.7310   25.9110 C   0  0  0  0  0  0  0  0  0  0  0  0
  -20.4090  -12.3920   27.1070 C   0  0  0  0  0  0  0  0  0  0  0  0
  -21.6040  -12.8010   27.6780 C   0  0  0  0  0  0  0  0  0  0  0  0
  -21.6100  -13.4550   28.9010 C   0  0  0  0  0  0  0  0  0  0  0  0
  -20.4020  -13.6760   29.5540 C   0  0  0  0  0  0  0  0  0  0  0  0
  -19.1920  -13.2500   28.9880 C   0  0  0  0  0  0  0  0  0  0  0  0
  -19.2090  -12.5790   27.7620 C   0  0  0  0  0  0  0  0  0  0  0  0
  -18.2550  -12.0390   26.9430 N   0  0  0  0  0  0  0  0  0  0  0  0
  -24.5260  -13.4280   24.5900 C   0  0  0  0  0  0  0  0  0  0  0  0
  -25.9180  -13.9340   24.6640 N   0  0  0  0  0  0  0  0  0  0  0  0
  -25.9020  -15.4150   24.7470 C   0  0  0  0  0  0  0  0  0  0  0  0
  -27.2660  -15.8660   25.2740 C   0  0  0  0  0  0  0  0  0  0  0  0
  -28.2830  -14.9680   24.8290 O   0  0  0  0  0  0  0  0  0  0  0  0
  -29.6460  -15.2290   25.0300 C   0  0  0  0  0  0  0  0  0  0  0  0
  -30.4720  -15.4940   23.9140 C   0  0  0  0  0  0  0  0  0  0  0  0
  -31.8350  -15.7650   24.0640 C   0  0  0  0  0  0  0  0  0  0  0  0
  -32.3890  -15.7650   25.3550 C   0  0  0  0  0  0  0  0  0  0  0  0
  -31.5770  -15.4870   26.4770 C   0  0  0  0  0  0  0  0  0  0  0  0
  -30.1980  -15.2210   26.3360 C   0  0  0  0  0  0  0  0  0  0  0  0
  -29.3970  -14.9970   27.4770 O   0  0  0  0  0  0  0  0  0  0  0  0
  -29.3870  -13.7820   28.2780 C   0  0  0  0  0  0  0  0  0  0  0  0
   11.4250  -11.1270   21.5280 O   0  0  0  0  0  0  0  0  0  0  0  0
   10.5880  -10.4240   20.6080 C   0  0  2  0  0  0  0  0  0  0  0  0
    9.2110  -10.3520   21.2230 C   0  0  0  0  0  0  0  0  0  0  0  0
    8.3410   -9.8280   20.2070 O   0  0  0  0  0  0  0  0  0  0  0  0
    7.0170   -9.7150   20.4870 C   0  0  1  0  0  0  0  0  0  0  0  0
    6.5730  -10.0000   21.7610 C   0  0  0  0  0  0  0  0  0  0  0  0
    5.2240   -9.8550   22.0440 C   0  0  0  0  0  0  0  0  0  0  0  0
    4.3660   -9.4150   21.0980 C   0  0  0  0  0  0  0  0  0  0  0  0
    4.8110   -9.1050   19.8440 C   0  0  0  0  0  0  0  0  0  0  0  0
    6.1390   -9.2180   19.5470 C   0  0  1  0  0  0  0  0  0  0  0  0
    6.3120   -8.9020   18.2110 C   0  0  1  0  0  0  0  0  0  0  0  0
    7.4410   -8.8530   17.4310 C   0  0  0  0  0  0  0  0  0  0  0  0
    7.3550   -8.4150   16.0770 C   0  0  0  0  0  0  0  0  0  0  0  0
    6.1450   -8.0500   15.5470 C   0  0  0  0  0  0  0  0  0  0  0  0
    5.0020   -8.1370   16.3630 C   0  0  0  0  0  0  0  0  0  0  0  0
    5.0940   -8.5250   17.6890 C   0  0  0  0  0  0  0  0  0  0  0  0
    4.1910   -8.6940   18.7120 N   0  0  0  0  0  0  0  0  0  0  0  0
   10.4550  -11.2240   19.3120 C   0  0  0  0  0  0  0  0  0  0  0  0
   11.7000  -12.0110   19.1280 N   0  0  0  0  0  0  0  0  0  0  0  0
   11.7260  -12.5710   17.7290 C   0  0  0  0  0  0  0  0  0  0  0  0
   13.0150  -13.3630   17.5880 C   0  0  0  0  0  0  0  0  0  0  0  0
   14.0570  -12.4150   17.3490 O   0  0  0  0  0  0  0  0  0  0  0  0
   15.4140  -12.7640   17.4160 C   0  0  0  0  0  0  0  0  0  0  0  0
   15.9930  -13.1690   18.5940 C   0  0  0  0  0  0  0  0  0  0  0  0
   17.3420  -13.5350   18.6540 C   0  0  0  0  0  0  0  0  0  0  0  0
   18.1450  -13.4700   17.5180 C   0  0  0  0  0  0  0  0  0  0  0  0
   17.5820  -13.0290   16.3410 C   0  0  0  0  0  0  0  0  0  0  0  0
   16.2160  -12.7030   16.2820 C   0  0  0  0  0  0  0  0  0  0  0  0
   15.6520  -12.2810   15.0810 O   0  0  0  0  0  0  0  0  0  0  0  0
   16.2190  -12.7490   13.8440 C   0  0  0  0  0  0  0  0  0  0  0  0
  -26.4520  -11.5249   23.7429 H   0  0  0  0  0  0  0  0  0  0  0  0
  -24.9337  -11.4183   25.3759 H   0  0  0  0  0  0  0  0  0  0  0  0
  -22.9299  -11.8816   23.1329 H   0  0  0  0  0  0  0  0  0  0  0  0
  -23.3932  -10.2801   23.7705 H   0  0  0  0  0  0  0  0  0  0  0  0
  -20.9257  -12.2705   24.4690 H   0  0  0  0  0  0  0  0  0  0  0  0
  -20.8287  -11.3049   22.9345 H   0  0  0  0  0  0  0  0  0  0  0  0
  -20.9812   -9.6592   23.8199 H   0  0  0  0  0  0  0  0  0  0  0  0
  -18.8519  -10.8962   22.7333 H   0  0  0  0  0  0  0  0  0  0  0  0
  -19.1038   -9.3348   23.7376 H   0  0  0  0  0  0  0  0  0  0  0  0
  -17.6324  -11.5771   24.1869 H   0  0  0  0  0  0  0  0  0  0  0  0
  -17.9341   -9.9428   25.0837 H   0  0  0  0  0  0  0  0  0  0  0  0
  -18.9265  -10.5562   26.2999 H   0  0  0  0  0  0  0  0  0  0  0  0
  -20.0735  -12.6896   25.3806 H   0  0  0  0  0  0  0  0  0  0  0  0
  -20.4925  -11.4251   27.6248 H   0  0  0  0  0  0  0  0  0  0  0  0
  -22.2208  -11.8984   27.7998 H   0  0  0  0  0  0  0  0  0  0  0  0
  -21.9605  -13.5739   26.9812 H   0  0  0  0  0  0  0  0  0  0  0  0
  -22.2398  -12.8619   29.5804 H   0  0  0  0  0  0  0  0  0  0  0  0
  -21.9667  -14.4666   28.6571 H   0  0  0  0  0  0  0  0  0  0  0  0
  -20.4805  -13.1833   30.5344 H   0  0  0  0  0  0  0  0  0  0  0  0
  -20.3094  -14.7719   29.5323 H   0  0  0  0  0  0  0  0  0  0  0  0
  -18.7169  -12.5761   29.7161 H   0  0  0  0  0  0  0  0  0  0  0  0
  -18.6645  -14.1889   28.7638 H   0  0  0  0  0  0  0  0  0  0  0  0
  -19.3467  -11.6225   28.2874 H   0  0  0  0  0  0  0  0  0  0  0  0
  -17.5773  -12.7712   26.6870 H   0  0  0  0  0  0  0  0  0  0  0  0
  -24.0084  -13.8629   23.7223 H   0  0  0  0  0  0  0  0  0  0  0  0
  -23.9528  -13.7028   25.4878 H   0  0  0  0  0  0  0  0  0  0  0  0
  -26.3796  -13.5482   25.5001 H   0  0  0  0  0  0  0  0  0  0  0  0
  -25.7250  -15.8443   23.7498 H   0  0  0  0  0  0  0  0  0  0  0  0
  -25.0985  -15.7547   25.4170 H   0  0  0  0  0  0  0  0  0  0  0  0
  -27.4844  -16.8774   24.9007 H   0  0  0  0  0  0  0  0  0  0  0  0
  -27.2445  -15.8706   26.3738 H   0  0  0  0  0  0  0  0  0  0  0  0
  -29.8653  -14.1551   24.9373 H   0  0  0  0  0  0  0  0  0  0  0  0
  -30.4006  -14.6134   23.2586 H   0  0  0  0  0  0  0  0  0  0  0  0
  -30.0779  -16.4543   23.5499 H   0  0  0  0  0  0  0  0  0  0  0  0
  -32.3806  -15.0103   23.4786 H   0  0  0  0  0  0  0  0  0  0  0  0
  -31.9356  -16.8090   23.7325 H   0  0  0  0  0  0  0  0  0  0  0  0
  -33.1945  -15.0158   25.3538 H   0  0  0  0  0  0  0  0  0  0  0  0
  -32.6729  -16.8170   25.5057 H   0  0  0  0  0  0  0  0  0  0  0  0
  -32.0155  -14.6057   26.9680 H   0  0  0  0  0  0  0  0  0  0  0  0
  -31.5813  -16.4448   27.0180 H   0  0  0  0  0  0  0  0  0  0  0  0
  -30.4152  -14.1472   26.2376 H   0  0  0  0  0  0  0  0  0  0  0  0
  -29.3892  -14.0467   29.3457 H   0  0  0  0  0  0  0  0  0  0  0  0
  -28.4840  -13.1979   28.0469 H   0  0  0  0  0  0  0  0  0  0  0  0
  -30.2802  -13.1831   28.0469 H   0  0  0  0  0  0  0  0  0  0  0  0
   11.1581  -10.9028   22.4546 H   0  0  0  0  0  0  0  0  0  0  0  0
   11.0121   -9.4308   20.3991 H   0  0  0  0  0  0  0  0  0  0  0  0
    8.8780  -11.3547   21.5292 H   0  0  0  0  0  0  0  0  0  0  0  0
    9.2070   -9.7147   22.1195 H   0  0  0  0  0  0  0  0  0  0  0  0
    6.8665  -10.7660   20.1994 H   0  0  0  0  0  0  0  0  0  0  0  0
    6.8366  -11.0475   21.9689 H   0  0  0  0  0  0  0  0  0  0  0  0
    7.0608   -9.2406   22.3898 H   0  0  0  0  0  0  0  0  0  0  0  0
    4.8613  -10.8435   22.3623 H   0  0  0  0  0  0  0  0  0  0  0  0
    5.2138   -9.0406   22.7834 H   0  0  0  0  0  0  0  0  0  0  0  0
    3.6034  -10.1984   20.9763 H   0  0  0  0  0  0  0  0  0  0  0  0
    4.0442   -8.4399   21.4925 H   0  0  0  0  0  0  0  0  0  0  0  0
    4.9699   -8.0628   20.1580 H   0  0  0  0  0  0  0  0  0  0  0  0
    5.9677  -10.2365   19.1685 H   0  0  0  0  0  0  0  0  0  0  0  0
    6.4514   -7.8443   18.4792 H   0  0  0  0  0  0  0  0  0  0  0  0
    8.1479   -8.1797   17.9380 H   0  0  0  0  0  0  0  0  0  0  0  0
    7.7282   -9.9106   17.3362 H   0  0  0  0  0  0  0  0  0  0  0  0
    8.0180   -7.5422   15.9837 H   0  0  0  0  0  0  0  0  0  0  0  0
    7.6184   -9.3164   15.5043 H   0  0  0  0  0  0  0  0  0  0  0  0
    6.2345   -7.0024   15.2238 H   0  0  0  0  0  0  0  0  0  0  0  0
    5.9653   -8.7881   14.7514 H   0  0  0  0  0  0  0  0  0  0  0  0
    4.5417   -7.1380   16.3619 H   0  0  0  0  0  0  0  0  0  0  0  0
    4.4461   -8.9701   15.9080 H   0  0  0  0  0  0  0  0  0  0  0  0
    5.2918   -7.4828   17.9802 H   0  0  0  0  0  0  0  0  0  0  0  0
    3.4951   -9.4005   18.4337 H   0  0  0  0  0  0  0  0  0  0  0  0
    9.5914  -11.9020   19.3790 H   0  0  0  0  0  0  0  0  0  0  0  0
   10.3021  -10.5464   18.4591 H   0  0  0  0  0  0  0  0  0  0  0  0
   12.5179  -11.4014   19.2710 H   0  0  0  0  0  0  0  0  0  0  0  0
   10.8594  -13.2295   17.5701 H   0  0  0  0  0  0  0  0  0  0  0  0
   11.6794  -11.7636   16.9834 H   0  0  0  0  0  0  0  0  0  0  0  0
   13.2179  -13.9240   18.5121 H   0  0  0  0  0  0  0  0  0  0  0  0
   12.9447  -14.0887   16.7644 H   0  0  0  0  0  0  0  0  0  0  0  0
   15.6710  -11.7200   17.6486 H   0  0  0  0  0  0  0  0  0  0  0  0
   15.8637  -12.3399   19.3053 H   0  0  0  0  0  0  0  0  0  0  0  0
   15.4791  -14.1201   18.7971 H   0  0  0  0  0  0  0  0  0  0  0  0
   17.8109  -12.8862   19.4084 H   0  0  0  0  0  0  0  0  0  0  0  0
   17.2956  -14.6142   18.8616 H   0  0  0  0  0  0  0  0  0  0  0  0
   18.9826  -12.7958   17.7502 H   0  0  0  0  0  0  0  0  0  0  0  0
   18.4098  -14.5181   17.3144 H   0  0  0  0  0  0  0  0  0  0  0  0
   18.1348  -12.1247   16.0466 H   0  0  0  0  0  0  0  0  0  0  0  0
   17.6546  -13.9102   15.6866 H   0  0  0  0  0  0  0  0  0  0  0  0
   16.4566  -11.6538   16.5086 H   0  0  0  0  0  0  0  0  0  0  0  0
   17.0510  -13.4358   14.0587 H   0  0  0  0  0  0  0  0  0  0  0  0
   15.4480  -13.2772   13.2639 H   0  0  0  0  0  0  0  0  0  0  0  0
   16.5914  -11.8918   13.2639 H   0  0  0  0  0  0  0  0  0  0  0  0
  1  2  1  0
  2  3  1  0
  3  4  1  0
  4  5  1  0
  5  6  1  0
  6  7  1  0
  7  8  1  0
  8  9  1  0
  5 10  1  0
  9 10  1  0
 10 11  1  0
 11 12  1  0
 12 13  1  0
 13 14  1  0
 14 15  1  0
 11 16  1  0
 15 16  1  0
  9 17  1  0
 16 17  1  0
  2 18  1  0
 18 19  1  0
 19 20  1  0
 20 21  1  0
 21 22  1  0
 22 23  1  0
 23 24  1  0
 24 25  1  0
 25 26  1  0
 26 27  1  0
 23 28  1  0
 27 28  1  0
 28 29  1  0
 29 30  1  0
 31 32  1  0
 32 33  1  0
 33 34  1  0
 34 35  1  0
 35 36  1  0
 36 37  1  0
 37 38  1  0
 38 39  1  0
 35 40  1  0
 39 40  1  0
 40 41  1  0
 41 42  1  0
 42 43  1  0
 43 44  1  0
 44 45  1  0
 41 46  1  0
 45 46  1  0
 39 47  1  0
 46 47  1  0
 32 48  1  0
 48 49  1  0
 49 50  1  0
 50 51  1  0
 51 52  1  0
 52 53  1  0
 53 54  1  0
 54 55  1  0
 55 56  1  0
 56 57  1  0
 53 58  1  0
 57 58  1  0
 58 59  1  0
 59 60  1  0
  1 61  1  0
  2 62  1  1
  3 63  1  0
  3 64  1  0
  5 65  1  1
  6 66  1  0
  6 67  1  0
  7 68  1  0
  7 69  1  0
  8 70  1  0
  8 71  1  0
  9 72  1  0
 10 73  1  0
 11 74  1  0
 12 75  1  0
 12 76  1  0
 13 77  1  0
 13 78  1  0
 14 79  1  0
 14 80  1  0
 15 81  1  0
 15 82  1  0
 16 83  1  0
 17 84  1  0
 18 85  1  0
 18 86  1  0
 19 87  1  0
 20 88  1  0
 20 89  1  0
 21 90  1  0
 21 91  1  0
 23 92  1  0
 24 93  1  0
 24 94  1  0
 25 95  1  0
 25 96  1  0
 26 97  1  0
 26 98  1  0
 27 99  1  0
 27100  1  0
 28101  1  0
 30102  1  0
 30103  1  0
 30104  1  0
 31105  1  0
 32106  1  6
 33107  1  0
 33108  1  0
 35109  1  6
 36110  1  0
 36111  1  0
 37112  1  0
 37113  1  0
 38114  1  0
 38115  1  0
 39116  1  0
 40117  1  1
 41118  1  6
 42119  1  0
 42120  1  0
 43121  1  0
 43122  1  0
 44123  1  0
 44124  1  0
 45125  1  0
 45126  1  0
 46127  1  0
 47128  1  0
 48129  1  0
 48130  1  0
 49131  1  0
 50132  1  0
 50133  1  0
 51134  1  0
 51135  1  0
 53136  1  0
 54137  1  0
 54138  1  0
 55139  1  0
 55140  1  0
 56141  1  0
 56142  1  0
 57143  1  0
 57144  1  0
 58145  1  0
 60146  1  0
 60147  1  0
 60148  1  0
M  END
>  <PDBID>  (1) 
4AMJ

>  <PDB ID>  (1) 
4AMJ

>  <Generic Name>  (1) 
Carvedilol

>  <Brand Name>  (1) 
Apo-carvedilol#Auro-carvedilol#Ava-carvedilol#Carvedilol#Coreg#Coreg (carvedilol) Tablets, 12.5mg#Coreg (carvedilol) Tablets, 25mg#Coreg (carvedilol) Tablets, 3.125 mg#Coreg (carvedilol) Tablets, 6.25mg#Coreg 12.5mg#Coreg 25mg#Coreg 3.125mg#Coreg 6.25mg#Coreg CR#Coregcr CR#Dilatrend - Tab 25mg#Dilatrend - Tab 50mg#Dom-carvedilol#Hypertenevide-12.5#Jamp-carvedilol#Mylan-carvedilol#Novo-carvedilol Tablets#Ntp-carvedilol#Nu-carvedilol#PMS-carvedilol#Ran-carvedilol#Ratio-carvedilol#Zym-carvedilol#COREGCR

>  <DrugBank ID>  (1) 
DB01136

>  <ATC Codes>  (1) 
C07AG02

>  <Ligand ID>  (1) 
CVD

>  <Target Name>  (1) 
Beta-1 adrenergic receptor

>  <UniProt ID>  (1) 
P08588

>  <PDB ID.1>  (1) 
4AMJ

>  <Seq. Identity>  (1) 
63%

$$$$
