PDB_DB00398_95
     RDKit          3D

 70 72  0  0  0  0  0  0  0  0999 V2000
   -1.9780    2.2590   25.9480 C   0  0  0  0  0  0  0  0  0  0  0  0
   -1.2280    3.4280   25.8570 C   0  0  0  0  0  0  0  0  0  0  0  0
   -1.6980    4.5910   26.4520 C   0  0  0  0  0  0  0  0  0  0  0  0
   -2.9200    4.6600   27.1000 C   0  0  0  0  0  0  0  0  0  0  0  0
    0.4480    2.7040   24.2850 C   0  0  0  0  0  0  0  0  0  0  0  0
    2.3380    2.3780   22.9000 C   0  0  0  0  0  0  0  0  0  0  0  0
    1.6560    2.2710   21.6650 C   0  0  0  0  0  0  0  0  0  0  0  0
    2.3330    1.8220   20.5270 C   0  0  0  0  0  0  0  0  0  0  0  0
    3.7070    1.4910   20.6340 C   0  0  0  0  0  0  0  0  0  0  0  0
    4.3820    1.5940   21.8510 C   0  0  0  0  0  0  0  0  0  0  0  0
    3.6920    2.0440   22.9670 C   0  0  0  0  0  0  0  0  0  0  0  0
    4.4640    1.0880   19.5620 O   0  0  0  0  0  0  0  0  0  0  0  0
    3.7130   -1.0290   18.8880 C   0  0  0  0  0  0  0  0  0  0  0  0
    3.4170   -1.9280   17.8630 C   0  0  0  0  0  0  0  0  0  0  0  0
    4.0410   -0.3090   16.2360 C   0  0  1  0  0  0  0  0  0  0  0  0
    4.3280    0.6230   17.2290 C   0  0  0  0  0  0  0  0  0  0  0  0
    4.1010   -1.0340   13.8920 N   0  0  0  0  0  0  0  0  0  0  0  0
    3.2530   -1.0040   12.7050 C   0  0  0  0  0  0  0  0  0  0  0  0
   -3.7100    3.5350   27.1680 C   0  0  1  0  0  0  0  0  0  0  0  0
   -3.2190    2.2650   26.5840 C   0  0  0  0  0  0  0  0  0  0  0  0
   -4.0500    0.9970   26.6980 C   0  0  1  0  0  0  0  0  0  0  0  0
   -5.2380    1.1420   26.2110 F   0  0  0  0  0  0  0  0  0  0  0  0
   -3.4800    0.0010   26.1220 F   0  0  0  0  0  0  0  0  0  0  0  0
   -4.2250    0.6490   27.9280 F   0  0  0  0  0  0  0  0  0  0  0  0
   -5.2760    3.5990   28.0420 Cl  0  0  0  0  0  0  0  0  0  0  0  0
   -0.0220    3.4870   25.2640 N   0  0  0  0  0  0  0  0  0  0  0  0
    1.7480    2.8090   24.0510 N   0  0  0  0  0  0  0  0  0  0  0  0
   -0.2620    1.9460   23.6160 O   0  0  0  0  0  0  0  0  0  0  0  0
    4.1550    0.2360   18.5580 C   0  0  0  0  0  0  0  0  0  0  0  0
    3.5810   -1.5370   16.5780 N   0  0  0  0  0  0  0  0  0  0  0  0
    4.1310    0.0000   14.7620 C   0  0  1  0  0  0  0  0  0  0  0  0
    4.1550    1.1730   14.3910 O   0  0  0  0  0  0  0  0  0  0  0  0
   -2.1528    1.9151   24.9179 H   0  0  0  0  0  0  0  0  0  0  0  0
   -1.3660    1.6213   26.6028 H   0  0  0  0  0  0  0  0  0  0  0  0
   -1.7524    3.6920   24.9268 H   0  0  0  0  0  0  0  0  0  0  0  0
   -0.9418    4.8785   27.1973 H   0  0  0  0  0  0  0  0  0  0  0  0
   -1.8734    5.2338   25.5768 H   0  0  0  0  0  0  0  0  0  0  0  0
   -2.7174    4.9731   28.1349 H   0  0  0  0  0  0  0  0  0  0  0  0
   -3.5060    5.3531   26.4786 H   0  0  0  0  0  0  0  0  0  0  0  0
    0.2519    3.5014   23.5531 H   0  0  0  0  0  0  0  0  0  0  0  0
    2.0697    1.3382   23.1382 H   0  0  0  0  0  0  0  0  0  0  0  0
    0.8145    1.5812   21.8262 H   0  0  0  0  0  0  0  0  0  0  0  0
    1.4151    3.3157   21.4190 H   0  0  0  0  0  0  0  0  0  0  0  0
    1.8102    0.9205   20.1749 H   0  0  0  0  0  0  0  0  0  0  0  0
    2.3213    2.6902   19.8517 H   0  0  0  0  0  0  0  0  0  0  0  0
    3.9760    2.5309   20.3968 H   0  0  0  0  0  0  0  0  0  0  0  0
    4.7664    0.5920   22.0921 H   0  0  0  0  0  0  0  0  0  0  0  0
    5.1321    2.3781   21.6709 H   0  0  0  0  0  0  0  0  0  0  0  0
    4.2176    2.9457   23.3145 H   0  0  0  0  0  0  0  0  0  0  0  0
    3.6854    1.1558   23.6159 H   0  0  0  0  0  0  0  0  0  0  0  0
    2.7967   -0.9057   19.4840 H   0  0  0  0  0  0  0  0  0  0  0  0
    4.5729   -1.4850   19.4005 H   0  0  0  0  0  0  0  0  0  0  0  0
    4.0551   -2.8110   18.0149 H   0  0  0  0  0  0  0  0  0  0  0  0
    2.3318   -2.0831   17.9543 H   0  0  0  0  0  0  0  0  0  0  0  0
    5.0746   -0.6819   16.2873 H   0  0  0  0  0  0  0  0  0  0  0  0
    5.3811    0.9167   17.1079 H   0  0  0  0  0  0  0  0  0  0  0  0
    3.5895    1.4239   17.0769 H   0  0  0  0  0  0  0  0  0  0  0  0
    3.8144   -1.8619   14.4336 H   0  0  0  0  0  0  0  0  0  0  0  0
    2.1967   -0.9666   13.0098 H   0  0  0  0  0  0  0  0  0  0  0  0
    3.4932   -0.1138   12.1052 H   0  0  0  0  0  0  0  0  0  0  0  0
    3.4297   -1.9090   12.1052 H   0  0  0  0  0  0  0  0  0  0  0  0
   -4.1703    3.8000   26.2047 H   0  0  0  0  0  0  0  0  0  0  0  0
   -2.7314    2.0149   27.5378 H   0  0  0  0  0  0  0  0  0  0  0  0
    0.0379    4.4434   24.8863 H   0  0  0  0  0  0  0  0  0  0  0  0
    1.9677    3.8128   24.1224 H   0  0  0  0  0  0  0  0  0  0  0  0
   -0.7972    1.3746   24.2220 H   0  0  0  0  0  0  0  0  0  0  0  0
    5.1926   -0.1290   18.5484 H   0  0  0  0  0  0  0  0  0  0  0  0
    4.2339   -2.2129   16.1562 H   0  0  0  0  0  0  0  0  0  0  0  0
    5.2272   -0.0749   14.8132 H   0  0  0  0  0  0  0  0  0  0  0  0
    4.1672    1.7689   15.1815 H   0  0  0  0  0  0  0  0  0  0  0  0
  1  2  1  0
  2  3  1  0
  3  4  1  0
  6  7  1  0
  7  8  1  0
  8  9  1  0
  9 10  1  0
  6 11  1  0
 10 11  1  0
  9 12  1  0
 13 14  1  0
 15 16  1  0
 17 18  1  0
  4 19  1  0
  1 20  1  0
 19 20  1  0
 20 21  1  0
 21 22  1  6
 21 23  1  0
 21 24  1  0
 19 25  1  0
  2 26  1  0
  5 26  1  0
  5 27  1  0
  6 27  1  0
  5 28  1  0
 12 29  1  0
 13 29  1  0
 16 29  1  0
 14 30  1  0
 15 30  1  0
 15 31  1  0
 17 31  1  0
 31 32  1  0
  1 33  1  0
  1 34  1  0
  2 35  1  0
  3 36  1  0
  3 37  1  0
  4 38  1  0
  4 39  1  0
  5 40  1  0
  6 41  1  0
  7 42  1  0
  7 43  1  0
  8 44  1  0
  8 45  1  0
  9 46  1  0
 10 47  1  0
 10 48  1  0
 11 49  1  0
 11 50  1  0
 13 51  1  0
 13 52  1  0
 14 53  1  0
 14 54  1  0
 15 55  1  6
 16 56  1  0
 16 57  1  0
 17 58  1  0
 18 59  1  0
 18 60  1  0
 18 61  1  0
 19 62  1  6
 20 63  1  0
 26 64  1  0
 27 65  1  0
 28 66  1  0
 29 67  1  0
 30 68  1  0
 31 69  1  1
 32 70  1  0
M  END
>  <PDBID>  (1) 
3HEG

>  <PDB ID>  (1) 
3HEG

>  <Generic Name>  (1) 
Sorafenib

>  <Brand Name>  (1) 
Nexavar

>  <DrugBank ID>  (1) 
DB00398

>  <ATC Codes>  (1) 
L01XE05

>  <Ligand ID>  (1) 
BAX

>  <Target Name>  (1) 
Vascular endothelial growth factor receptor 2

>  <UniProt ID>  (1) 
P35968

>  <PDB ID.1>  (1) 
3HEG

>  <Seq. Identity>  (1) 
32%

$$$$
