PDB_DB00452_92
     RDKit          3D

 88 91  0  0  0  0  0  0  0  0999 V2000
  -52.4950  118.7130  104.1340 C   0  0  2  0  0  0  0  0  0  0  0  0
  -53.6590  118.3460  104.8690 O   0  0  0  0  0  0  0  0  0  0  0  0
  -51.7200  119.7700  104.9110 C   0  0  2  0  0  0  0  0  0  0  0  0
  -51.4700  119.2880  106.2540 N   0  0  0  0  0  0  0  0  0  0  0  0
  -52.4890  121.0810  104.9960 C   0  0  1  0  0  0  0  0  0  0  0  0
  -51.6180  122.1030  105.4900 O   0  0  0  0  0  0  0  0  0  0  0  0
  -53.0240  121.4900  103.6310 C   0  0  2  0  0  0  0  0  0  0  0  0
  -53.9100  122.6040  103.7760 O   0  0  0  0  0  0  0  0  0  0  0  0
  -53.7720  120.3320  102.9890 C   0  0  2  0  0  0  0  0  0  0  0  0
  -52.8810  119.2280  102.8620 O   0  0  0  0  0  0  0  0  0  0  0  0
  -54.3120  120.7170  101.6180 C   0  0  0  0  0  0  0  0  0  0  0  0
  -55.9020  114.7630  104.4890 C   0  0  1  0  0  0  0  0  0  0  0  0
  -56.5110  113.6290  103.8190 N   0  0  0  0  0  0  0  0  0  0  0  0
  -54.3880  114.7150  104.3070 C   0  0  1  0  0  0  0  0  0  0  0  0
  -53.7240  115.9490  104.9040 C   0  0  1  0  0  0  0  0  0  0  0  0
  -52.3260  115.9090  104.6410 O   0  0  0  0  0  0  0  0  0  0  0  0
  -54.3010  117.2130  104.2890 C   0  0  1  0  0  0  0  0  0  0  0  0
  -55.8040  117.2780  104.5310 C   0  0  1  0  0  0  0  0  0  0  0  0
  -56.3490  118.4830  103.9370 N   0  0  0  0  0  0  0  0  0  0  0  0
  -56.4880  116.0560  103.9300 C   0  0  0  0  0  0  0  0  0  0  0  0
  -51.5670  115.4830  105.7670 C   0  0  1  0  0  0  0  0  0  0  0  0
  -50.2660  114.8620  105.2880 C   0  0  1  0  0  0  0  0  0  0  0  0
  -49.1600  115.6280  105.9820 C   0  0  1  0  0  0  0  0  0  0  0  0
  -49.8510  116.5270  106.9890 C   0  0  2  0  0  0  0  0  0  0  0  0
  -51.2230  116.6010  106.5890 O   0  0  0  0  0  0  0  0  0  0  0  0
  -49.2290  117.9170  106.9940 C   0  0  0  0  0  0  0  0  0  0  0  0
  -46.2800  111.6590  104.5760 C   0  0  1  0  0  0  0  0  0  0  0  0
  -47.5580  112.1890  103.9430 C   0  0  1  0  0  0  0  0  0  0  0  0
  -48.3750  112.9460  104.9790 C   0  0  2  0  0  0  0  0  0  0  0  0
  -47.5110  114.0130  105.6350 C   0  0  1  0  0  0  0  0  0  0  0  0
  -48.2680  114.7200  106.6150 O   0  0  0  0  0  0  0  0  0  0  0  0
  -45.5230  112.7780  105.2820 C   0  0  1  0  0  0  0  0  0  0  0  0
  -46.3710  113.4080  106.2420 O   0  0  0  0  0  0  0  0  0  0  0  0
  -44.2850  112.2320  105.9820 C   0  0  0  0  0  0  0  0  0  0  0  0
  -54.9590  122.0110  101.7020 N   0  0  0  0  0  0  0  0  0  0  0  0
  -50.2110  113.4850  105.6690 O   0  0  0  0  0  0  0  0  0  0  0  0
  -47.2230  113.0690  102.8660 O   0  0  0  0  0  0  0  0  0  0  0  0
  -46.6080  110.6410  105.5270 O   0  0  0  0  0  0  0  0  0  0  0  0
  -50.0300  118.7920  107.7950 O   0  0  0  0  0  0  0  0  0  0  0  0
  -53.8580  113.5420  104.9340 O   0  0  0  0  0  0  0  0  0  0  0  0
  -43.5520  113.3240  106.5920 N   0  0  0  0  0  0  0  0  0  0  0  0
  -48.8530  112.0240  105.9900 N   0  0  0  0  0  0  0  0  0  0  0  0
  -51.8544  117.8310  103.9863 H   0  0  0  0  0  0  0  0  0  0  0  0
  -50.7749  119.9556  104.3796 H   0  0  0  0  0  0  0  0  0  0  0  0
  -51.8253  119.9730  106.9363 H   0  0  0  0  0  0  0  0  0  0  0  0
  -51.9500  118.3870  106.3903 H   0  0  0  0  0  0  0  0  0  0  0  0
  -53.3427  120.9446  105.6761 H   0  0  0  0  0  0  0  0  0  0  0  0
  -51.6261  122.0934  106.4799 H   0  0  0  0  0  0  0  0  0  0  0  0
  -52.1765  121.7707  102.9884 H   0  0  0  0  0  0  0  0  0  0  0  0
  -54.0555  122.7869  104.7380 H   0  0  0  0  0  0  0  0  0  0  0  0
  -54.6280  120.0636  103.6255 H   0  0  0  0  0  0  0  0  0  0  0  0
  -53.4823  120.7675  100.8976 H   0  0  0  0  0  0  0  0  0  0  0  0
  -55.0401  119.9629  101.2846 H   0  0  0  0  0  0  0  0  0  0  0  0
  -56.1166  114.7237  105.5671 H   0  0  0  0  0  0  0  0  0  0  0  0
  -56.8672  112.9657  104.5219 H   0  0  0  0  0  0  0  0  0  0  0  0
  -57.2899  113.9561  103.2298 H   0  0  0  0  0  0  0  0  0  0  0  0
  -54.1762  114.6896  103.2279 H   0  0  0  0  0  0  0  0  0  0  0  0
  -53.9082  115.9561  105.9884 H   0  0  0  0  0  0  0  0  0  0  0  0
  -54.1261  117.2068  103.2030 H   0  0  0  0  0  0  0  0  0  0  0  0
  -55.9861  117.2931  105.6157 H   0  0  0  0  0  0  0  0  0  0  0  0
  -56.6420  119.1309  104.6822 H   0  0  0  0  0  0  0  0  0  0  0  0
  -55.6298  118.9337  103.3534 H   0  0  0  0  0  0  0  0  0  0  0  0
  -57.5618  116.0942  104.1655 H   0  0  0  0  0  0  0  0  0  0  0  0
  -56.3281  116.0682  102.8418 H   0  0  0  0  0  0  0  0  0  0  0  0
  -52.1714  114.7619  106.3369 H   0  0  0  0  0  0  0  0  0  0  0  0
  -50.1741  114.9128  104.1930 H   0  0  0  0  0  0  0  0  0  0  0  0
  -48.5574  116.2232  105.2801 H   0  0  0  0  0  0  0  0  0  0  0  0
  -49.7485  116.1244  108.0075 H   0  0  0  0  0  0  0  0  0  0  0  0
  -48.2131  117.8632  107.4124 H   0  0  0  0  0  0  0  0  0  0  0  0
  -49.1801  118.3020  105.9647 H   0  0  0  0  0  0  0  0  0  0  0  0
  -45.6412  111.2449  103.7820 H   0  0  0  0  0  0  0  0  0  0  0  0
  -48.1513  111.3444  103.5626 H   0  0  0  0  0  0  0  0  0  0  0  0
  -49.2327  113.4246  104.4837 H   0  0  0  0  0  0  0  0  0  0  0  0
  -47.1733  114.7233  104.8659 H   0  0  0  0  0  0  0  0  0  0  0  0
  -45.2090  113.5134  104.5266 H   0  0  0  0  0  0  0  0  0  0  0  0
  -44.5895  111.5157  106.7593 H   0  0  0  0  0  0  0  0  0  0  0  0
  -43.6424  111.7252  105.2470 H   0  0  0  0  0  0  0  0  0  0  0  0
  -55.0871  122.2672  102.6914 H   0  0  0  0  0  0  0  0  0  0  0  0
  -54.3727  122.7188  101.2372 H   0  0  0  0  0  0  0  0  0  0  0  0
  -50.2082  113.4157  106.6566 H   0  0  0  0  0  0  0  0  0  0  0  0
  -46.8957  113.9287  103.2319 H   0  0  0  0  0  0  0  0  0  0  0  0
  -46.4934  110.9966  106.4438 H   0  0  0  0  0  0  0  0  0  0  0  0
  -49.8620  118.6085  108.7532 H   0  0  0  0  0  0  0  0  0  0  0  0
  -53.9041  113.6441  105.9176 H   0  0  0  0  0  0  0  0  0  0  0  0
  -43.6061  113.2434  107.6174 H   0  0  0  0  0  0  0  0  0  0  0  0
  -42.5663  113.2835  106.2960 H   0  0  0  0  0  0  0  0  0  0  0  0
  -48.6545  112.4070  106.9253 H   0  0  0  0  0  0  0  0  0  0  0  0
  -49.8687  111.8920  105.8816 H   0  0  0  0  0  0  0  0  0  0  0  0
  2  1  1  0
  3  1  1  0
  4  3  1  0
  5  3  1  0
  6  5  1  0
  7  5  1  0
  8  7  1  0
  9  7  1  0
 10  1  1  0
 10  9  1  0
 11  9  1  0
 13 12  1  0
 14 12  1  0
 15 14  1  0
 16 15  1  0
 17 15  1  0
 17  2  1  0
 18 17  1  0
 19 18  1  0
 20 18  1  0
 20 12  1  0
 21 16  1  0
 22 21  1  0
 23 22  1  0
 24 23  1  0
 25 24  1  0
 25 21  1  0
 26 24  1  0
 28 27  1  0
 29 28  1  0
 30 29  1  0
 31 23  1  0
 31 30  1  0
 32 27  1  0
 33 32  1  0
 33 30  1  0
 34 32  1  0
 35 11  1  0
 36 22  1  0
 37 28  1  0
 38 27  1  0
 39 26  1  0
 40 14  1  0
 41 34  1  0
 42 29  1  0
  1 43  1  6
  3 44  1  6
  4 45  1  0
  4 46  1  0
  5 47  1  1
  6 48  1  0
  7 49  1  6
  8 50  1  0
  9 51  1  1
 11 52  1  0
 11 53  1  0
 12 54  1  1
 13 55  1  0
 13 56  1  0
 14 57  1  6
 15 58  1  1
 17 59  1  6
 18 60  1  1
 19 61  1  0
 19 62  1  0
 20 63  1  0
 20 64  1  0
 21 65  1  1
 22 66  1  6
 23 67  1  6
 24 68  1  1
 26 69  1  0
 26 70  1  0
 27 71  1  6
 28 72  1  6
 29 73  1  6
 30 74  1  6
 32 75  1  6
 34 76  1  0
 34 77  1  0
 35 78  1  0
 35 79  1  0
 36 80  1  0
 37 81  1  0
 38 82  1  0
 39 83  1  0
 40 84  1  0
 41 85  1  0
 41 86  1  0
 42 87  1  0
 42 88  1  0
M  END
$$$$
