PDB_DB00642_98
     RDKit          3D

288296  0  0  0  0  0  0  0  0999 V2000
  -43.2240  -49.5530    3.6100 C   0  0  0  0  0  0  0  0  0  0  0  0
  -41.8100  -49.5780    3.4990 C   0  0  0  0  0  0  0  0  0  0  0  0
  -41.0650  -48.3700    3.6010 C   0  0  0  0  0  0  0  0  0  0  0  0
  -41.7200  -47.1000    3.8230 C   0  0  0  0  0  0  0  0  0  0  0  0
  -43.1380  -47.1140    3.9270 C   0  0  0  0  0  0  0  0  0  0  0  0
  -43.8790  -48.3100    3.8270 C   0  0  0  0  0  0  0  0  0  0  0  0
  -44.0360  -50.8660    3.5120 C   0  0  0  0  0  0  0  0  0  0  0  0
  -44.7080  -51.1660    2.1410 C   0  0  0  0  0  0  0  0  0  0  0  0
  -46.0890  -50.5260    2.0040 C   0  0  0  0  0  0  0  0  0  0  0  0
  -47.1920  -50.7660    2.8260 C   0  0  0  0  0  0  0  0  0  0  0  0
  -48.2910  -50.0040    2.4180 N   0  0  0  0  0  0  0  0  0  0  0  0
  -47.8810  -49.2770    1.3280 C   0  0  0  0  0  0  0  0  0  0  0  0
  -46.5220  -49.6080    1.0780 C   0  0  0  0  0  0  0  0  0  0  0  0
  -45.8010  -48.9190   -0.1210 C   0  0  0  0  0  0  0  0  0  0  0  0
  -44.6450  -49.1200   -0.4390 O   0  0  0  0  0  0  0  0  0  0  0  0
  -46.5480  -48.0350   -0.8460 N   0  0  0  0  0  0  0  0  0  0  0  0
  -47.9280  -47.7410   -0.5350 C   0  0  0  0  0  0  0  0  0  0  0  0
  -48.5370  -48.3140    0.4620 N   0  0  0  0  0  0  0  0  0  0  0  0
  -48.6050  -46.8440   -1.3060 N   0  0  0  0  0  0  0  0  0  0  0  0
  -41.0100  -45.7490    3.9590 C   0  0  0  0  0  0  0  0  0  0  0  0
  -41.6630  -44.7190    4.1540 O   0  0  0  0  0  0  0  0  0  0  0  0
  -39.6680  -45.7370    3.8750 N   0  0  0  0  0  0  0  0  0  0  0  0
  -38.7770  -44.5470    4.0060 C   0  0  1  0  0  0  0  0  0  0  0  0
  -38.0680  -44.4820    5.3950 C   0  0  0  0  0  0  0  0  0  0  0  0
  -38.9820  -44.2170    6.6360 C   0  0  0  0  0  0  0  0  0  0  0  0
  -38.3050  -44.1650    8.0130 C   0  0  0  0  0  0  0  0  0  0  0  0
  -37.1980  -43.5880    8.1380 O   0  0  0  0  0  0  0  0  0  0  0  0
  -38.8800  -44.7040    8.9860 O   0  0  0  0  0  0  0  0  0  0  0  0
  -37.7740  -44.5180    2.7860 C   0  0  0  0  0  0  0  0  0  0  0  0
  -37.5120  -43.4480    2.1570 O   0  0  0  0  0  0  0  0  0  0  0  0
  -37.2190  -45.6100    2.4630 O   0  0  0  0  0  0  0  0  0  0  0  0
  -49.8670  -81.0610  -23.6250 C   0  0  0  0  0  0  0  0  0  0  0  0
  -49.8470  -80.2350  -24.7780 C   0  0  0  0  0  0  0  0  0  0  0  0
  -49.3320  -80.7360  -26.0060 C   0  0  0  0  0  0  0  0  0  0  0  0
  -48.8240  -82.0860  -26.1120 C   0  0  0  0  0  0  0  0  0  0  0  0
  -48.8580  -82.8840  -24.9360 C   0  0  0  0  0  0  0  0  0  0  0  0
  -49.3690  -82.3900  -23.7170 C   0  0  0  0  0  0  0  0  0  0  0  0
  -50.4380  -80.5240  -22.2910 C   0  0  0  0  0  0  0  0  0  0  0  0
  -49.4010  -80.0350  -21.2390 C   0  0  0  0  0  0  0  0  0  0  0  0
  -48.8880  -81.1630  -20.3440 C   0  0  0  0  0  0  0  0  0  0  0  0
  -49.6650  -81.9650  -19.5050 C   0  0  0  0  0  0  0  0  0  0  0  0
  -48.8700  -82.9020  -18.8380 N   0  0  0  0  0  0  0  0  0  0  0  0
  -47.5800  -82.6900  -19.2560 C   0  0  0  0  0  0  0  0  0  0  0  0
  -47.6000  -81.6130  -20.1830 C   0  0  0  0  0  0  0  0  0  0  0  0
  -46.2510  -81.1570  -20.8180 C   0  0  0  0  0  0  0  0  0  0  0  0
  -46.1370  -80.2490  -21.6180 O   0  0  0  0  0  0  0  0  0  0  0  0
  -45.1380  -81.8440  -20.4260 N   0  0  0  0  0  0  0  0  0  0  0  0
  -45.1870  -82.9350  -19.4800 C   0  0  0  0  0  0  0  0  0  0  0  0
  -46.3090  -83.3190  -18.9430 N   0  0  0  0  0  0  0  0  0  0  0  0
  -44.0310  -83.5730  -19.1410 N   0  0  0  0  0  0  0  0  0  0  0  0
  -48.2610  -82.7230  -27.3870 C   0  0  0  0  0  0  0  0  0  0  0  0
  -47.8570  -83.8900  -27.3740 O   0  0  0  0  0  0  0  0  0  0  0  0
  -48.2420  -81.9740  -28.5040 N   0  0  0  0  0  0  0  0  0  0  0  0
  -47.7670  -82.3970  -29.8540 C   0  0  1  0  0  0  0  0  0  0  0  0
  -48.9440  -82.7080  -30.8300 C   0  0  0  0  0  0  0  0  0  0  0  0
  -49.8190  -83.9600  -30.4960 C   0  0  0  0  0  0  0  0  0  0  0  0
  -50.9920  -84.2740  -31.4370 C   0  0  0  0  0  0  0  0  0  0  0  0
  -50.8430  -84.1460  -32.6760 O   0  0  0  0  0  0  0  0  0  0  0  0
  -52.0760  -84.6520  -30.9390 O   0  0  0  0  0  0  0  0  0  0  0  0
  -46.7590  -81.3150  -30.4080 C   0  0  0  0  0  0  0  0  0  0  0  0
  -45.6740  -81.6380  -30.9800 O   0  0  0  0  0  0  0  0  0  0  0  0
  -47.0820  -80.0970  -30.2760 O   0  0  0  0  0  0  0  0  0  0  0  0
   -5.9610  -45.1880  -56.0130 C   0  0  0  0  0  0  0  0  0  0  0  0
   -7.3760  -45.1990  -55.9010 C   0  0  0  0  0  0  0  0  0  0  0  0
   -8.1090  -43.9850  -56.0120 C   0  0  0  0  0  0  0  0  0  0  0  0
   -7.4430  -42.7230  -56.2440 C   0  0  0  0  0  0  0  0  0  0  0  0
   -6.0250  -42.7510  -56.3480 C   0  0  0  0  0  0  0  0  0  0  0  0
   -5.2950  -43.9530  -56.2400 C   0  0  0  0  0  0  0  0  0  0  0  0
   -5.1620  -46.5080  -55.9050 C   0  0  0  0  0  0  0  0  0  0  0  0
   -4.4920  -46.8040  -54.5320 C   0  0  0  0  0  0  0  0  0  0  0  0
   -3.1050  -46.1750  -54.4010 C   0  0  0  0  0  0  0  0  0  0  0  0
   -2.0040  -46.4320  -55.2210 C   0  0  0  0  0  0  0  0  0  0  0  0
   -0.8980  -45.6770  -54.8200 N   0  0  0  0  0  0  0  0  0  0  0  0
   -1.3010  -44.9380  -53.7350 C   0  0  0  0  0  0  0  0  0  0  0  0
   -2.6630  -45.2540  -53.4820 C   0  0  0  0  0  0  0  0  0  0  0  0
   -3.3760  -44.5490  -52.2880 C   0  0  0  0  0  0  0  0  0  0  0  0
   -4.5340  -44.7370  -51.9680 O   0  0  0  0  0  0  0  0  0  0  0  0
   -2.6210  -43.6670  -51.5700 N   0  0  0  0  0  0  0  0  0  0  0  0
   -1.2380  -43.3880  -51.8840 C   0  0  0  0  0  0  0  0  0  0  0  0
   -0.6350  -43.9740  -52.8770 N   0  0  0  0  0  0  0  0  0  0  0  0
   -0.5530  -42.4910  -51.1210 N   0  0  0  0  0  0  0  0  0  0  0  0
   -8.1400  -41.3670  -56.3900 C   0  0  0  0  0  0  0  0  0  0  0  0
   -7.4780  -40.3440  -56.5930 O   0  0  0  0  0  0  0  0  0  0  0  0
   -9.4820  -41.3420  -56.3050 N   0  0  0  0  0  0  0  0  0  0  0  0
  -10.3620  -40.1440  -56.4450 C   0  0  1  0  0  0  0  0  0  0  0  0
  -11.0710  -40.0840  -57.8340 C   0  0  0  0  0  0  0  0  0  0  0  0
  -10.1560  -39.8370  -59.0770 C   0  0  0  0  0  0  0  0  0  0  0  0
  -10.8330  -39.7890  -60.4540 C   0  0  0  0  0  0  0  0  0  0  0  0
  -11.9350  -39.2030  -60.5830 O   0  0  0  0  0  0  0  0  0  0  0  0
  -10.2640  -40.3410  -61.4240 O   0  0  0  0  0  0  0  0  0  0  0  0
  -11.3640  -40.0970  -55.2250 C   0  0  0  0  0  0  0  0  0  0  0  0
  -11.6160  -39.0200  -54.6040 O   0  0  0  0  0  0  0  0  0  0  0  0
  -11.9290  -41.1810  -54.8930 O   0  0  0  0  0  0  0  0  0  0  0  0
    0.3780  -76.5090  -28.4640 C   0  0  0  0  0  0  0  0  0  0  0  0
    0.3640  -75.6740  -27.3170 C   0  0  0  0  0  0  0  0  0  0  0  0
   -0.1580  -76.1610  -26.0860 C   0  0  0  0  0  0  0  0  0  0  0  0
   -0.6780  -77.5050  -25.9700 C   0  0  0  0  0  0  0  0  0  0  0  0
   -0.6500  -78.3110  -27.1410 C   0  0  0  0  0  0  0  0  0  0  0  0
   -0.1330  -77.8320  -28.3620 C   0  0  0  0  0  0  0  0  0  0  0  0
    0.9560  -75.9860  -29.8000 C   0  0  0  0  0  0  0  0  0  0  0  0
   -0.0740  -75.4960  -30.8580 C   0  0  0  0  0  0  0  0  0  0  0  0
   -0.5970  -76.6250  -31.7460 C   0  0  0  0  0  0  0  0  0  0  0  0
    0.1730  -77.4420  -32.5770 C   0  0  0  0  0  0  0  0  0  0  0  0
   -0.6300  -78.3760  -33.2380 N   0  0  0  0  0  0  0  0  0  0  0  0
   -1.9190  -78.1480  -32.8240 C   0  0  0  0  0  0  0  0  0  0  0  0
   -1.8890  -77.0640  -31.9050 C   0  0  0  0  0  0  0  0  0  0  0  0
   -3.2350  -76.5910  -31.2760 C   0  0  0  0  0  0  0  0  0  0  0  0
   -3.3410  -75.6750  -30.4830 O   0  0  0  0  0  0  0  0  0  0  0  0
   -4.3540  -77.2700  -31.6640 N   0  0  0  0  0  0  0  0  0  0  0  0
   -4.3130  -78.3680  -32.6020 C   0  0  0  0  0  0  0  0  0  0  0  0
   -3.1950  -78.7670  -33.1340 N   0  0  0  0  0  0  0  0  0  0  0  0
   -5.4750  -78.9980  -32.9370 N   0  0  0  0  0  0  0  0  0  0  0  0
   -1.2500  -78.1270  -24.6920 C   0  0  0  0  0  0  0  0  0  0  0  0
   -1.6650  -79.2900  -24.6960 O   0  0  0  0  0  0  0  0  0  0  0  0
   -1.2630  -77.3690  -23.5810 N   0  0  0  0  0  0  0  0  0  0  0  0
   -1.7450  -77.7780  -22.2280 C   0  0  1  0  0  0  0  0  0  0  0  0
   -0.5720  -78.0930  -21.2470 C   0  0  0  0  0  0  0  0  0  0  0  0
    0.2920  -79.3560  -21.5710 C   0  0  0  0  0  0  0  0  0  0  0  0
    1.4590  -79.6730  -20.6260 C   0  0  0  0  0  0  0  0  0  0  0  0
    1.3100  -79.5350  -19.3880 O   0  0  0  0  0  0  0  0  0  0  0  0
    2.5410  -80.0660  -21.1190 O   0  0  0  0  0  0  0  0  0  0  0  0
   -2.7430  -76.6820  -21.6840 C   0  0  0  0  0  0  0  0  0  0  0  0
   -3.8320  -76.9900  -21.1110 O   0  0  0  0  0  0  0  0  0  0  0  0
   -2.4080  -75.4680  -21.8240 O   0  0  0  0  0  0  0  0  0  0  0  0
  -43.1412  -49.6992    4.6971 H   0  0  0  0  0  0  0  0  0  0  0  0
  -41.4414  -50.2458    4.2916 H   0  0  0  0  0  0  0  0  0  0  0  0
  -41.6446  -49.8887    2.4568 H   0  0  0  0  0  0  0  0  0  0  0  0
  -40.3616  -48.5076    4.4354 H   0  0  0  0  0  0  0  0  0  0  0  0
  -40.6578  -48.2543    2.5857 H   0  0  0  0  0  0  0  0  0  0  0  0
  -41.8012  -46.9519    2.7360 H   0  0  0  0  0  0  0  0  0  0  0  0
  -43.3799  -46.6821    4.9093 H   0  0  0  0  0  0  0  0  0  0  0  0
  -43.4436  -46.5739    3.0188 H   0  0  0  0  0  0  0  0  0  0  0  0
  -44.5821  -48.1752    2.9919 H   0  0  0  0  0  0  0  0  0  0  0  0
  -44.2961  -48.4256    4.8383 H   0  0  0  0  0  0  0  0  0  0  0  0
  -43.3539  -51.6985    3.7391 H   0  0  0  0  0  0  0  0  0  0  0  0
  -44.8664  -50.7486    4.2238 H   0  0  0  0  0  0  0  0  0  0  0  0
  -44.0606  -50.7789    1.3404 H   0  0  0  0  0  0  0  0  0  0  0  0
  -44.8401  -52.2557    2.0691 H   0  0  0  0  0  0  0  0  0  0  0  0
  -46.4036  -51.3465    1.3423 H   0  0  0  0  0  0  0  0  0  0  0  0
  -47.4542  -51.8331    2.7750 H   0  0  0  0  0  0  0  0  0  0  0  0
  -46.9311  -50.4844    3.8568 H   0  0  0  0  0  0  0  0  0  0  0  0
  -49.0747  -50.6204    2.1597 H   0  0  0  0  0  0  0  0  0  0  0  0
  -47.5601  -48.4614    1.9927 H   0  0  0  0  0  0  0  0  0  0  0  0
  -46.8430  -50.4264    0.4168 H   0  0  0  0  0  0  0  0  0  0  0  0
  -45.4767  -48.1037    0.5425 H   0  0  0  0  0  0  0  0  0  0  0  0
  -44.0907  -49.2164    0.3756 H   0  0  0  0  0  0  0  0  0  0  0  0
  -46.0479  -47.1357   -0.8020 H   0  0  0  0  0  0  0  0  0  0  0  0
  -48.2514  -48.5551   -1.2004 H   0  0  0  0  0  0  0  0  0  0  0  0
  -49.3508  -48.7999    0.0588 H   0  0  0  0  0  0  0  0  0  0  0  0
  -49.1065  -46.1795   -0.6995 H   0  0  0  0  0  0  0  0  0  0  0  0
  -47.9388  -46.3306   -1.9006 H   0  0  0  0  0  0  0  0  0  0  0  0
  -41.0930  -45.5960    2.8729 H   0  0  0  0  0  0  0  0  0  0  0  0
  -41.7586  -44.5683    5.1278 H   0  0  0  0  0  0  0  0  0  0  0  0
  -39.3492  -46.3906    4.6044 H   0  0  0  0  0  0  0  0  0  0  0  0
  -39.3873  -43.6326    3.9691 H   0  0  0  0  0  0  0  0  0  0  0  0
  -37.5586  -45.4437    5.5550 H   0  0  0  0  0  0  0  0  0  0  0  0
  -37.3972  -43.6121    5.3378 H   0  0  0  0  0  0  0  0  0  0  0  0
  -39.4820  -43.2501    6.4773 H   0  0  0  0  0  0  0  0  0  0  0  0
  -39.6513  -45.0886    6.6840 H   0  0  0  0  0  0  0  0  0  0  0  0
  -37.7874  -45.1106    7.7942 H   0  0  0  0  0  0  0  0  0  0  0  0
  -36.9893  -43.4792    9.0996 H   0  0  0  0  0  0  0  0  0  0  0  0
  -38.5024  -44.3500    9.8299 H   0  0  0  0  0  0  0  0  0  0  0  0
  -38.6070  -44.7194    2.0964 H   0  0  0  0  0  0  0  0  0  0  0  0
  -37.3338  -42.7201    2.8039 H   0  0  0  0  0  0  0  0  0  0  0  0
  -36.9666  -46.1066    3.2814 H   0  0  0  0  0  0  0  0  0  0  0  0
  -50.8708  -81.4182  -23.8983 H   0  0  0  0  0  0  0  0  0  0  0  0
  -50.8873  -79.9334  -24.9700 H   0  0  0  0  0  0  0  0  0  0  0  0
  -49.1312  -79.4444  -24.5088 H   0  0  0  0  0  0  0  0  0  0  0  0
  -50.1445  -80.6503  -26.7425 H   0  0  0  0  0  0  0  0  0  0  0  0
  -48.4269  -80.1280  -26.1512 H   0  0  0  0  0  0  0  0  0  0  0  0
  -47.8194  -81.7293  -25.8409 H   0  0  0  0  0  0  0  0  0  0  0  0
  -49.4556  -83.7737  -25.1836 H   0  0  0  0  0  0  0  0  0  0  0  0
  -47.7892  -83.0084  -24.7076 H   0  0  0  0  0  0  0  0  0  0  0  0
  -48.5575  -82.4735  -22.9791 H   0  0  0  0  0  0  0  0  0  0  0  0
  -50.2704  -83.0014  -23.5627 H   0  0  0  0  0  0  0  0  0  0  0  0
  -51.0992  -79.6772  -22.5272 H   0  0  0  0  0  0  0  0  0  0  0  0
  -50.9438  -81.3821  -21.8243 H   0  0  0  0  0  0  0  0  0  0  0  0
  -48.5458  -79.5903  -21.7689 H   0  0  0  0  0  0  0  0  0  0  0  0
  -49.9059  -79.3026  -20.5920 H   0  0  0  0  0  0  0  0  0  0  0  0
  -48.7423  -80.4454  -19.5231 H   0  0  0  0  0  0  0  0  0  0  0  0
  -50.1704  -81.3282  -18.7640 H   0  0  0  0  0  0  0  0  0  0  0  0
  -50.4050  -82.5020  -20.1166 H   0  0  0  0  0  0  0  0  0  0  0  0
  -48.9403  -82.7668  -17.8193 H   0  0  0  0  0  0  0  0  0  0  0  0
  -47.7301  -83.4025  -20.0805 H   0  0  0  0  0  0  0  0  0  0  0  0
  -47.4541  -80.9002  -19.3580 H   0  0  0  0  0  0  0  0  0  0  0  0
  -46.4003  -81.8668  -21.6449 H   0  0  0  0  0  0  0  0  0  0  0  0
  -46.0295  -79.3930  -21.1325 H   0  0  0  0  0  0  0  0  0  0  0  0
  -44.7240  -82.2308  -21.2862 H   0  0  0  0  0  0  0  0  0  0  0  0
  -45.0344  -82.2253  -18.6536 H   0  0  0  0  0  0  0  0  0  0  0  0
  -46.1860  -83.2239  -17.9248 H   0  0  0  0  0  0  0  0  0  0  0  0
  -43.9513  -83.6170  -18.1150 H   0  0  0  0  0  0  0  0  0  0  0  0
  -44.0405  -84.5283  -19.5259 H   0  0  0  0  0  0  0  0  0  0  0  0
  -47.2540  -82.3714  -27.1180 H   0  0  0  0  0  0  0  0  0  0  0  0
  -47.7523  -84.1925  -26.4372 H   0  0  0  0  0  0  0  0  0  0  0  0
  -49.2192  -81.6807  -28.6450 H   0  0  0  0  0  0  0  0  0  0  0  0
  -47.2280  -83.3518  -29.7650 H   0  0  0  0  0  0  0  0  0  0  0  0
  -49.6077  -81.8309  -30.8425 H   0  0  0  0  0  0  0  0  0  0  0  0
  -48.4677  -82.9364  -31.7949 H   0  0  0  0  0  0  0  0  0  0  0  0
  -49.1540  -84.8362  -30.4939 H   0  0  0  0  0  0  0  0  0  0  0  0
  -50.2888  -83.7252  -29.5295 H   0  0  0  0  0  0  0  0  0  0  0  0
  -51.3264  -83.2282  -31.3692 H   0  0  0  0  0  0  0  0  0  0  0  0
  -50.1045  -83.5116  -32.8558 H   0  0  0  0  0  0  0  0  0  0  0  0
  -52.0111  -84.6294  -29.9514 H   0  0  0  0  0  0  0  0  0  0  0  0
  -46.2424  -81.2991  -29.4370 H   0  0  0  0  0  0  0  0  0  0  0  0
  -44.9883  -81.8421  -30.2957 H   0  0  0  0  0  0  0  0  0  0  0  0
  -47.1412  -79.8738  -29.3133 H   0  0  0  0  0  0  0  0  0  0  0  0
   -6.0458  -45.3419  -57.0989 H   0  0  0  0  0  0  0  0  0  0  0  0
   -7.7514  -45.8693  -56.6882 H   0  0  0  0  0  0  0  0  0  0  0  0
   -7.5440  -45.5004  -54.8565 H   0  0  0  0  0  0  0  0  0  0  0  0
   -8.8141  -44.1224  -56.8450 H   0  0  0  0  0  0  0  0  0  0  0  0
   -8.5138  -43.8576  -54.9972 H   0  0  0  0  0  0  0  0  0  0  0  0
   -7.3603  -42.5671  -55.1583 H   0  0  0  0  0  0  0  0  0  0  0  0
   -5.7792  -42.3280  -57.3332 H   0  0  0  0  0  0  0  0  0  0  0  0
   -5.7143  -42.2078  -55.4434 H   0  0  0  0  0  0  0  0  0  0  0  0
   -4.5896  -43.8185  -55.4067 H   0  0  0  0  0  0  0  0  0  0  0  0
   -4.8803  -44.0800  -57.2509 H   0  0  0  0  0  0  0  0  0  0  0  0
   -5.8525  -47.3355  -56.1252 H   0  0  0  0  0  0  0  0  0  0  0  0
   -4.3309  -46.4042  -56.6180 H   0  0  0  0  0  0  0  0  0  0  0  0
   -5.1354  -46.4052  -53.7339 H   0  0  0  0  0  0  0  0  0  0  0  0
   -4.3698  -47.8942  -54.4517 H   0  0  0  0  0  0  0  0  0  0  0  0
   -2.7975  -46.9923  -53.7320 H   0  0  0  0  0  0  0  0  0  0  0  0
   -1.7516  -47.5010  -55.1609 H   0  0  0  0  0  0  0  0  0  0  0  0
   -2.2625  -46.1565  -56.2541 H   0  0  0  0  0  0  0  0  0  0  0  0
   -0.1196  -46.2984  -54.5576 H   0  0  0  0  0  0  0  0  0  0  0  0
   -1.6144  -44.1243  -54.4056 H   0  0  0  0  0  0  0  0  0  0  0  0
   -2.3496  -46.0703  -52.8146 H   0  0  0  0  0  0  0  0  0  0  0  0
   -3.6930  -43.7358  -52.9575 H   0  0  0  0  0  0  0  0  0  0  0  0
   -4.6058  -44.7487  -50.9807 H   0  0  0  0  0  0  0  0  0  0  0  0
   -3.1129  -42.7634  -51.6203 H   0  0  0  0  0  0  0  0  0  0  0  0
   -0.9218  -44.2001  -51.2128 H   0  0  0  0  0  0  0  0  0  0  0  0
    0.1748  -44.4641  -52.4708 H   0  0  0  0  0  0  0  0  0  0  0  0
   -0.7105  -42.6972  -50.1242 H   0  0  0  0  0  0  0  0  0  0  0  0
    0.4531  -42.5592  -51.3310 H   0  0  0  0  0  0  0  0  0  0  0  0
   -8.0552  -41.2066  -55.3051 H   0  0  0  0  0  0  0  0  0  0  0  0
   -7.2178  -39.9419  -55.7265 H   0  0  0  0  0  0  0  0  0  0  0  0
   -9.8076  -41.9984  -57.0289 H   0  0  0  0  0  0  0  0  0  0  0  0
   -9.7436  -39.2347  -56.4155 H   0  0  0  0  0  0  0  0  0  0  0  0
  -11.5888  -41.0425  -57.9860 H   0  0  0  0  0  0  0  0  0  0  0  0
  -11.7341  -39.2078  -57.7834 H   0  0  0  0  0  0  0  0  0  0  0  0
   -9.6470  -38.8737  -58.9258 H   0  0  0  0  0  0  0  0  0  0  0  0
   -9.4951  -40.7153  -59.1189 H   0  0  0  0  0  0  0  0  0  0  0  0
  -11.3589  -40.7284  -60.2282 H   0  0  0  0  0  0  0  0  0  0  0  0
  -12.3095  -39.0038  -59.6885 H   0  0  0  0  0  0  0  0  0  0  0  0
   -9.5954  -40.9896  -61.0889 H   0  0  0  0  0  0  0  0  0  0  0  0
  -10.5325  -40.3007  -54.5342 H   0  0  0  0  0  0  0  0  0  0  0  0
  -11.5775  -39.1847  -53.6286 H   0  0  0  0  0  0  0  0  0  0  0  0
  -11.9631  -41.2465  -53.9058 H   0  0  0  0  0  0  0  0  0  0  0  0
    1.3779  -76.8738  -28.1862 H   0  0  0  0  0  0  0  0  0  0  0  0
    1.4068  -75.3810  -27.1254 H   0  0  0  0  0  0  0  0  0  0  0  0
   -0.3437  -74.8785  -27.5934 H   0  0  0  0  0  0  0  0  0  0  0  0
    0.6538  -76.0766  -25.3485 H   0  0  0  0  0  0  0  0  0  0  0  0
   -1.0582  -75.5441  -25.9478 H   0  0  0  0  0  0  0  0  0  0  0  0
   -1.6792  -77.1413  -26.2443 H   0  0  0  0  0  0  0  0  0  0  0  0
   -0.0617  -79.2049  -26.8863 H   0  0  0  0  0  0  0  0  0  0  0  0
   -1.7198  -78.4250  -27.3703 H   0  0  0  0  0  0  0  0  0  0  0  0
   -0.9443  -77.9134  -29.1004 H   0  0  0  0  0  0  0  0  0  0  0  0
    0.7626  -78.4532  -28.5100 H   0  0  0  0  0  0  0  0  0  0  0  0
    1.6234  -75.1430  -29.5680 H   0  0  0  0  0  0  0  0  0  0  0  0
    1.4556  -76.8516  -30.2595 H   0  0  0  0  0  0  0  0  0  0  0  0
   -0.9258  -75.0389  -30.3332 H   0  0  0  0  0  0  0  0  0  0  0  0
    0.4401  -74.7743  -31.5098 H   0  0  0  0  0  0  0  0  0  0  0  0
   -0.7326  -75.9120  -32.5726 H   0  0  0  0  0  0  0  0  0  0  0  0
    0.6865  -76.8166  -33.3221 H   0  0  0  0  0  0  0  0  0  0  0  0
    0.9059  -77.9818  -31.9594 H   0  0  0  0  0  0  0  0  0  0  0  0
   -0.5566  -78.2494  -34.2576 H   0  0  0  0  0  0  0  0  0  0  0  0
   -1.7776  -78.8557  -31.9939 H   0  0  0  0  0  0  0  0  0  0  0  0
   -2.0273  -76.3561  -32.7355 H   0  0  0  0  0  0  0  0  0  0  0  0
   -3.0934  -77.2956  -30.4432 H   0  0  0  0  0  0  0  0  0  0  0  0
   -3.2998  -76.0310  -29.5601 H   0  0  0  0  0  0  0  0  0  0  0  0
   -4.7726  -77.6468  -30.8016 H   0  0  0  0  0  0  0  0  0  0  0  0
   -4.4571  -77.6628  -33.4338 H   0  0  0  0  0  0  0  0  0  0  0  0
   -3.3156  -78.6787  -34.1531 H   0  0  0  0  0  0  0  0  0  0  0  0
   -5.9773  -79.2703  -32.0800 H   0  0  0  0  0  0  0  0  0  0  0  0
   -6.0635  -78.3605  -33.4920 H   0  0  0  0  0  0  0  0  0  0  0  0
   -2.2530  -77.7682  -24.9663 H   0  0  0  0  0  0  0  0  0  0  0  0
   -1.7769  -79.6036  -23.7637 H   0  0  0  0  0  0  0  0  0  0  0  0
   -0.2831  -77.0845  -23.4405 H   0  0  0  0  0  0  0  0  0  0  0  0
   -2.2931  -78.7281  -22.3109 H   0  0  0  0  0  0  0  0  0  0  0  0
    0.0998  -77.2220  -21.2395 H   0  0  0  0  0  0  0  0  0  0  0  0
   -1.0519  -78.3099  -20.2813 H   0  0  0  0  0  0  0  0  0  0  0  0
   -0.3810  -80.2261  -21.5681 H   0  0  0  0  0  0  0  0  0  0  0  0
    0.7653  -79.1332  -22.5386 H   0  0  0  0  0  0  0  0  0  0  0  0
    1.8027  -78.6308  -20.7008 H   0  0  0  0  0  0  0  0  0  0  0  0
    1.9466  -80.1246  -18.9113 H   0  0  0  0  0  0  0  0  0  0  0  0
    3.1715  -80.2950  -20.3909 H   0  0  0  0  0  0  0  0  0  0  0  0
   -3.2581  -76.6687  -22.6558 H   0  0  0  0  0  0  0  0  0  0  0  0
   -3.7096  -76.9554  -20.1292 H   0  0  0  0  0  0  0  0  0  0  0  0
   -2.2933  -75.0524  -20.9328 H   0  0  0  0  0  0  0  0  0  0  0  0
  1  2  1  0
  2  3  1  0
  3  4  1  0
  4  5  1  0
  1  6  1  0
  5  6  1  0
  1  7  1  0
  7  8  1  0
  8  9  1  0
  9 10  1  0
 10 11  1  0
 11 12  1  0
  9 13  1  0
 12 13  1  0
 13 14  1  0
 14 15  1  0
 14 16  1  0
 16 17  1  0
 12 18  1  0
 17 18  1  0
 17 19  1  0
  4 20  1  0
 20 21  1  0
 20 22  1  0
 22 23  1  0
 23 24  1  0
 24 25  1  0
 25 26  1  0
 26 27  1  0
 26 28  1  0
 23 29  1  0
 29 30  1  0
 29 31  1  0
 32 33  1  0
 33 34  1  0
 34 35  1  0
 35 36  1  0
 32 37  1  0
 36 37  1  0
 32 38  1  0
 38 39  1  0
 39 40  1  0
 40 41  1  0
 41 42  1  0
 42 43  1  0
 40 44  1  0
 43 44  1  0
 44 45  1  0
 45 46  1  0
 45 47  1  0
 47 48  1  0
 43 49  1  0
 48 49  1  0
 48 50  1  0
 35 51  1  0
 51 52  1  0
 51 53  1  0
 53 54  1  0
 54 55  1  0
 55 56  1  0
 56 57  1  0
 57 58  1  0
 57 59  1  0
 54 60  1  0
 60 61  1  0
 60 62  1  0
 63 64  1  0
 64 65  1  0
 65 66  1  0
 66 67  1  0
 63 68  1  0
 67 68  1  0
 63 69  1  0
 69 70  1  0
 70 71  1  0
 71 72  1  0
 72 73  1  0
 73 74  1  0
 71 75  1  0
 74 75  1  0
 75 76  1  0
 76 77  1  0
 76 78  1  0
 78 79  1  0
 74 80  1  0
 79 80  1  0
 79 81  1  0
 66 82  1  0
 82 83  1  0
 82 84  1  0
 84 85  1  0
 85 86  1  0
 86 87  1  0
 87 88  1  0
 88 89  1  0
 88 90  1  0
 85 91  1  0
 91 92  1  0
 91 93  1  0
 94 95  1  0
 95 96  1  0
 96 97  1  0
 97 98  1  0
 94 99  1  0
 98 99  1  0
 94100  1  0
100101  1  0
101102  1  0
102103  1  0
103104  1  0
104105  1  0
102106  1  0
105106  1  0
106107  1  0
107108  1  0
107109  1  0
109110  1  0
105111  1  0
110111  1  0
110112  1  0
 97113  1  0
113114  1  0
113115  1  0
115116  1  0
116117  1  0
117118  1  0
118119  1  0
119120  1  0
119121  1  0
116122  1  0
122123  1  0
122124  1  0
  1125  1  0
  2126  1  0
  2127  1  0
  3128  1  0
  3129  1  0
  4130  1  0
  5131  1  0
  5132  1  0
  6133  1  0
  6134  1  0
  7135  1  0
  7136  1  0
  8137  1  0
  8138  1  0
  9139  1  0
 10140  1  0
 10141  1  0
 11142  1  0
 12143  1  0
 13144  1  0
 14145  1  0
 15146  1  0
 16147  1  0
 17148  1  0
 18149  1  0
 19150  1  0
 19151  1  0
 20152  1  0
 21153  1  0
 22154  1  0
 23155  1  6
 24156  1  0
 24157  1  0
 25158  1  0
 25159  1  0
 26160  1  0
 27161  1  0
 28162  1  0
 29163  1  0
 30164  1  0
 31165  1  0
 32166  1  0
 33167  1  0
 33168  1  0
 34169  1  0
 34170  1  0
 35171  1  0
 36172  1  0
 36173  1  0
 37174  1  0
 37175  1  0
 38176  1  0
 38177  1  0
 39178  1  0
 39179  1  0
 40180  1  0
 41181  1  0
 41182  1  0
 42183  1  0
 43184  1  0
 44185  1  0
 45186  1  0
 46187  1  0
 47188  1  0
 48189  1  0
 49190  1  0
 50191  1  0
 50192  1  0
 51193  1  0
 52194  1  0
 53195  1  0
 54196  1  1
 55197  1  0
 55198  1  0
 56199  1  0
 56200  1  0
 57201  1  0
 58202  1  0
 59203  1  0
 60204  1  0
 61205  1  0
 62206  1  0
 63207  1  0
 64208  1  0
 64209  1  0
 65210  1  0
 65211  1  0
 66212  1  0
 67213  1  0
 67214  1  0
 68215  1  0
 68216  1  0
 69217  1  0
 69218  1  0
 70219  1  0
 70220  1  0
 71221  1  0
 72222  1  0
 72223  1  0
 73224  1  0
 74225  1  0
 75226  1  0
 76227  1  0
 77228  1  0
 78229  1  0
 79230  1  0
 80231  1  0
 81232  1  0
 81233  1  0
 82234  1  0
 83235  1  0
 84236  1  0
 85237  1  1
 86238  1  0
 86239  1  0
 87240  1  0
 87241  1  0
 88242  1  0
 89243  1  0
 90244  1  0
 91245  1  0
 92246  1  0
 93247  1  0
 94248  1  0
 95249  1  0
 95250  1  0
 96251  1  0
 96252  1  0
 97253  1  0
 98254  1  0
 98255  1  0
 99256  1  0
 99257  1  0
100258  1  0
100259  1  0
101260  1  0
101261  1  0
102262  1  0
103263  1  0
103264  1  0
104265  1  0
105266  1  0
106267  1  0
107268  1  0
108269  1  0
109270  1  0
110271  1  0
111272  1  0
112273  1  0
112274  1  0
113275  1  0
114276  1  0
115277  1  0
116278  1  6
117279  1  0
117280  1  0
118281  1  0
118282  1  0
119283  1  0
120284  1  0
121285  1  0
122286  1  0
123287  1  0
124288  1  0
M  END
>  <PDBID>  (1) 
1JUJ

>  <PDB ID>  (1) 
1JUJ

>  <Generic Name>  (1) 
Pemetrexed

>  <Brand Name>  (1) 
Act Pemetrexed#Alimta#Pemetrexed#Pemetrexed Disodium for Injection#Taro-pemetrexed

>  <DrugBank ID>  (1) 
DB00642

>  <ATC Codes>  (1) 
L01BA04

>  <Ligand ID>  (1) 
LYA

>  <Target Name>  (1) 
Thymidylate synthase

>  <UniProt ID>  (1) 
P04818

>  <PDB ID.1>  (1) 
1JUJ

>  <Seq. Identity>  (1) 
100%

$$$$
