PDB_DB00509_99
     RDKit          3D

 49 50  0  0  0  0  0  0  0  0999 V2000
   27.7140   38.6950   92.6870 C   0  0  1  0  0  0  0  0  0  0  0  0
   28.7500   39.3010   91.9840 C   0  0  0  0  0  0  0  0  0  0  0  0
   29.5620   40.2880   92.5300 C   0  0  1  0  0  0  0  0  0  0  0  0
   29.2880   40.7450   93.8780 C   0  0  0  0  0  0  0  0  0  0  0  0
   28.2040   40.0940   94.6350 C   0  0  0  0  0  0  0  0  0  0  0  0
   27.4940   39.0850   94.0110 C   0  0  0  0  0  0  0  0  0  0  0  0
   26.8310   37.5580   92.1120 C   0  0  0  0  0  0  0  0  0  0  0  0
   26.1690   37.7340   90.7230 C   0  0  1  0  0  0  0  0  0  0  0  0
   25.1590   36.6510   90.4880 C   0  0  1  0  0  0  0  0  0  0  0  0
   31.0610   41.2960   95.2340 C   0  0  0  0  0  0  0  0  0  0  0  0
   31.4830   42.2130   96.1320 C   0  0  0  0  0  0  0  0  0  0  0  0
   32.5130   41.9480   97.0040 C   0  0  0  0  0  0  0  0  0  0  0  0
   33.2220   40.7340   97.0790 C   0  0  0  0  0  0  0  0  0  0  0  0
   32.7390   39.7500   96.1110 C   0  0  0  0  0  0  0  0  0  0  0  0
   31.6840   40.0560   95.2310 C   0  0  0  0  0  0  0  0  0  0  0  0
   25.5750   39.0350   90.4710 N   0  0  0  0  0  0  0  0  0  0  0  0
   30.0460   41.7120   94.4220 O   0  0  0  0  0  0  0  0  0  0  0  0
   34.1340   40.7580   98.0320 O   0  0  0  0  0  0  0  0  0  0  0  0
   25.3840   35.4320   90.7890 O   0  0  0  0  0  0  0  0  0  0  0  0
   24.1440   37.0300   89.8770 O   0  0  0  0  0  0  0  0  0  0  0  0
   31.0050   41.2660   91.4000 I   0  0  0  0  0  0  0  0  0  0  0  0
   33.0810   43.3760   98.3360 I   0  0  0  0  0  0  0  0  0  0  0  0
   27.7300   40.6430   96.5950 I   0  0  0  0  0  0  0  0  0  0  0  0
   33.5010   37.8300   95.8510 I   0  0  0  0  0  0  0  0  0  0  0  0
   28.4059   37.9128   93.0324 H   0  0  0  0  0  0  0  0  0  0  0  0
   29.4253   38.4878   91.6795 H   0  0  0  0  0  0  0  0  0  0  0  0
   28.1951   39.8699   91.2234 H   0  0  0  0  0  0  0  0  0  0  0  0
   28.8897   41.0618   92.1310 H   0  0  0  0  0  0  0  0  0  0  0  0
   28.5710   41.4798   93.4831 H   0  0  0  0  0  0  0  0  0  0  0  0
   27.4891   40.8357   94.2491 H   0  0  0  0  0  0  0  0  0  0  0  0
   26.4365   39.3828   94.0654 H   0  0  0  0  0  0  0  0  0  0  0  0
   27.8502   38.2000   94.5586 H   0  0  0  0  0  0  0  0  0  0  0  0
   27.4639   36.6602   92.0532 H   0  0  0  0  0  0  0  0  0  0  0  0
   25.9757   37.5211   92.8027 H   0  0  0  0  0  0  0  0  0  0  0  0
   26.9990   37.6581   90.0052 H   0  0  0  0  0  0  0  0  0  0  0  0
   25.5757   36.4801   89.4844 H   0  0  0  0  0  0  0  0  0  0  0  0
   31.7983   41.6682   94.5075 H   0  0  0  0  0  0  0  0  0  0  0  0
   31.7877   43.0967   95.5522 H   0  0  0  0  0  0  0  0  0  0  0  0
   30.6187   42.2954   96.8074 H   0  0  0  0  0  0  0  0  0  0  0  0
   31.7904   41.5717   97.7431 H   0  0  0  0  0  0  0  0  0  0  0  0
   32.5010   40.3587   97.8202 H   0  0  0  0  0  0  0  0  0  0  0  0
   32.0144   39.3783   96.8504 H   0  0  0  0  0  0  0  0  0  0  0  0
   30.8953   39.3145   95.4260 H   0  0  0  0  0  0  0  0  0  0  0  0
   32.1896   40.0535   94.2541 H   0  0  0  0  0  0  0  0  0  0  0  0
   25.3646   39.4959   91.3678 H   0  0  0  0  0  0  0  0  0  0  0  0
   26.2346   39.6152   89.9332 H   0  0  0  0  0  0  0  0  0  0  0  0
   33.6881   40.7463   98.9158 H   0  0  0  0  0  0  0  0  0  0  0  0
   25.4022   35.3332   91.7739 H   0  0  0  0  0  0  0  0  0  0  0  0
   23.4452   37.2909   90.5279 H   0  0  0  0  0  0  0  0  0  0  0  0
  1  2  1  0
  2  3  1  0
  3  4  1  0
  4  5  1  0
  1  6  1  0
  5  6  1  0
  1  7  1  0
  7  8  1  0
  8  9  1  0
 10 11  1  0
 11 12  1  0
 12 13  1  0
 13 14  1  0
 10 15  1  0
 14 15  1  0
  8 16  1  0
  4 17  1  0
 10 17  1  0
 13 18  1  0
  9 19  1  0
  9 20  1  0
  3 21  1  0
 12 22  1  0
  5 23  1  0
 14 24  1  0
  1 25  1  6
  2 26  1  0
  2 27  1  0
  3 28  1  1
  4 29  1  0
  5 30  1  0
  6 31  1  0
  6 32  1  0
  7 33  1  0
  7 34  1  0
  8 35  1  6
  9 36  1  1
 10 37  1  0
 11 38  1  0
 11 39  1  0
 12 40  1  0
 13 41  1  0
 14 42  1  0
 15 43  1  0
 15 44  1  0
 16 45  1  0
 16 46  1  0
 18 47  1  0
 19 48  1  0
 20 49  1  0
M  END
>  <PDBID>  (1) 
1Y0X

>  <PDB ID>  (1) 
1Y0X

>  <Generic Name>  (1) 
Dextrothyroxine

>  <Brand Name>  (1) 
Choloxin - Tab 4mg#Choloxin Tab 2mg#Choloxin Tablet 4mg#Choloxin#Dynothel#Eulipos#Lisolipin

>  <DrugBank ID>  (1) 
DB00509

>  <ATC Codes>  (1) 
C10AX01

>  <Ligand ID>  (1) 
T44

>  <Target Name>  (1) 
Thyroid hormone receptor beta

>  <UniProt ID>  (1) 
P10828

>  <PDB ID.1>  (1) 
1Y0X

>  <Seq. Identity>  (1) 
100%

$$$$
