PDB_DB00382_96
     RDKit          3D

 29 31  0  0  0  0  0  0  0  0999 V2000
   23.2140   32.3260   31.6510 C   0  0  0  0  0  0  0  0  0  0  0  0
   22.7010   31.6150   30.5440 C   0  0  0  0  0  0  0  0  0  0  0  0
   21.3260   31.2660   30.4930 C   0  0  0  0  0  0  0  0  0  0  0  0
   20.4250   31.6470   31.6080 C   0  0  0  0  0  0  0  0  0  0  0  0
   20.9980   32.3670   32.7070 C   0  0  0  0  0  0  0  0  0  0  0  0
   22.3730   32.6980   32.7220 C   0  0  0  0  0  0  0  0  0  0  0  0
   20.8630   30.5950   29.4360 N   0  0  0  0  0  0  0  0  0  0  0  0
   19.5840   30.2260   29.3060 C   0  0  0  0  0  0  0  0  0  0  0  0
   18.5940   30.5370   30.3290 C   0  0  0  0  0  0  0  0  0  0  0  0
   19.0340   31.2630   31.4990 C   0  0  0  0  0  0  0  0  0  0  0  0
   19.1980   29.4460   28.0080 C   0  0  0  0  0  0  0  0  0  0  0  0
   17.6690   29.3860   27.6910 C   0  0  0  0  0  0  0  0  0  0  0  0
   16.8600   29.0120   28.9650 C   0  0  0  0  0  0  0  0  0  0  0  0
   17.0940   30.0630   30.0990 C   0  0  0  0  0  0  0  0  0  0  0  0
   18.1400   31.5690   32.4690 N   0  0  0  0  0  0  0  0  0  0  0  0
   24.0132   31.7041   32.0806 H   0  0  0  0  0  0  0  0  0  0  0  0
   23.4937   33.2948   31.2115 H   0  0  0  0  0  0  0  0  0  0  0  0
   22.9054   32.2267   29.6529 H   0  0  0  0  0  0  0  0  0  0  0  0
   23.2040   30.6396   30.6184 H   0  0  0  0  0  0  0  0  0  0  0  0
   20.4468   33.3161   32.7808 H   0  0  0  0  0  0  0  0  0  0  0  0
   20.9120   31.6506   33.5373 H   0  0  0  0  0  0  0  0  0  0  0  0
   22.7968   32.2406   33.6282 H   0  0  0  0  0  0  0  0  0  0  0  0
   22.3624   33.7960   32.6565 H   0  0  0  0  0  0  0  0  0  0  0  0
   19.9511   28.9716   27.3617 H   0  0  0  0  0  0  0  0  0  0  0  0
   17.2263   29.5813   26.7032 H   0  0  0  0  0  0  0  0  0  0  0  0
   16.2113   28.1283   29.0562 H   0  0  0  0  0  0  0  0  0  0  0  0
   16.2641   30.4540   30.7059 H   0  0  0  0  0  0  0  0  0  0  0  0
   17.1549   31.2852   32.3695 H   0  0  0  0  0  0  0  0  0  0  0  0
   18.4451   32.0855   33.3062 H   0  0  0  0  0  0  0  0  0  0  0  0
  1  2  1  0
  2  3  1  0
  3  4  2  0
  4  5  1  0
  1  6  1  0
  5  6  1  0
  3  7  1  0
  7  8  2  0
  8  9  1  0
  4 10  1  0
  9 10  2  0
  8 11  1  0
 11 12  2  0
 12 13  1  0
  9 14  1  0
 13 14  2  0
 10 15  1  0
  1 16  1  0
  1 17  1  0
  2 18  1  0
  2 19  1  0
  5 20  1  0
  5 21  1  0
  6 22  1  0
  6 23  1  0
 11 24  1  0
 12 25  1  0
 13 26  1  0
 14 27  1  0
 15 28  1  0
 15 29  1  0
M  END
$$$$
