PDB_DB11730_99
     RDKit          3D

 62 66  0  0  0  0  0  0  0  0999 V2000
   24.4000   34.2510   -8.9610 C   0  0  0  0  0  0  0  0  0  0  0  0
   25.7960   32.7650   -7.9590 C   0  0  0  0  0  0  0  0  0  0  0  0
   25.7050   33.3940   -6.7240 C   0  0  0  0  0  0  0  0  0  0  0  0
   24.8810   34.5370   -6.7750 C   0  0  0  0  0  0  0  0  0  0  0  0
   21.8310   37.0400  -11.7570 C   0  0  0  0  0  0  0  0  0  0  0  0
   22.7180   36.0630  -11.5160 N   0  0  0  0  0  0  0  0  0  0  0  0
   26.1470   33.2650   -5.3930 C   0  0  0  0  0  0  0  0  0  0  0  0
   20.8230   36.7970   -9.6210 C   0  0  0  0  0  0  0  0  0  0  0  0
   20.8630   37.4560  -10.8420 C   0  0  0  0  0  0  0  0  0  0  0  0
   25.6160   34.2890   -4.6630 C   0  0  0  0  0  0  0  0  0  0  0  0
   22.6730   35.4560  -10.3210 C   0  0  0  0  0  0  0  0  0  0  0  0
   25.7890   34.5600   -3.1990 C   0  0  0  0  0  0  0  0  0  0  0  0
   21.7870   37.2330   -5.4120 C   0  0  0  0  0  0  0  0  0  0  0  0
   22.7760   38.0630   -6.1490 C   0  0  0  0  0  0  0  0  0  0  0  0
   22.4210   35.8770   -5.2510 C   0  0  0  0  0  0  0  0  0  0  0  0
   24.1660   37.5320   -5.7600 C   0  0  0  0  0  0  0  0  0  0  0  0
   20.0070   39.7010  -10.2820 C   0  0  0  0  0  0  0  0  0  0  0  0
   19.4940   38.7540  -12.4770 C   0  0  0  0  0  0  0  0  0  0  0  0
   18.6350   40.3310  -10.2230 C   0  0  0  0  0  0  0  0  0  0  0  0
   18.1250   39.3940  -12.4470 C   0  0  0  0  0  0  0  0  0  0  0  0
   23.9070   36.1900   -5.0740 C   0  0  0  0  0  0  0  0  0  0  0  0
   26.7790   35.9150   -1.4100 C   0  0  0  0  0  0  0  0  0  0  0  0
   27.2290   36.4740   -3.7640 C   0  0  0  0  0  0  0  0  0  0  0  0
   21.7250   35.7880   -9.3450 C   0  0  0  0  0  0  0  0  0  0  0  0
   25.1890   33.1700   -9.0790 N   0  0  0  0  0  0  0  0  0  0  0  0
   24.2280   35.0020   -7.8520 N   0  0  0  0  0  0  0  0  0  0  0  0
   24.8190   35.0970   -5.5080 N   0  0  0  0  0  0  0  0  0  0  0  0
   19.9730   38.4970  -11.1150 N   0  0  0  0  0  0  0  0  0  0  0  0
   23.6270   34.4910  -10.0630 N   0  0  0  0  0  0  0  0  0  0  0  0
   26.5500   35.5920   -2.8200 N   0  0  0  0  0  0  0  0  0  0  0  0
   18.1380   40.6160  -11.5980 N   0  0  0  0  0  0  0  0  0  0  0  0
   25.2860   33.7710   -2.3990 O   0  0  0  0  0  0  0  0  0  0  0  0
   26.4182   31.8600   -8.0204 H   0  0  0  0  0  0  0  0  0  0  0  0
   21.8689   37.5434  -12.7343 H   0  0  0  0  0  0  0  0  0  0  0  0
   26.8073   32.4742   -5.0075 H   0  0  0  0  0  0  0  0  0  0  0  0
   20.0701   37.0794   -8.8704 H   0  0  0  0  0  0  0  0  0  0  0  0
   21.5752   37.6752   -4.4273 H   0  0  0  0  0  0  0  0  0  0  0  0
   20.8315   37.1693   -5.9533 H   0  0  0  0  0  0  0  0  0  0  0  0
   22.6214   37.9651   -7.2337 H   0  0  0  0  0  0  0  0  0  0  0  0
   22.6708   39.1279   -5.8943 H   0  0  0  0  0  0  0  0  0  0  0  0
   22.0211   35.3596   -4.3665 H   0  0  0  0  0  0  0  0  0  0  0  0
   22.2245   35.2107   -6.1039 H   0  0  0  0  0  0  0  0  0  0  0  0
   24.7900   37.3932   -6.6552 H   0  0  0  0  0  0  0  0  0  0  0  0
   24.7036   38.2317   -5.1031 H   0  0  0  0  0  0  0  0  0  0  0  0
   20.7195   40.4206  -10.7116 H   0  0  0  0  0  0  0  0  0  0  0  0
   20.3206   39.4257   -9.2642 H   0  0  0  0  0  0  0  0  0  0  0  0
   19.4363   37.8023  -13.0256 H   0  0  0  0  0  0  0  0  0  0  0  0
   20.1951   39.4389  -12.9764 H   0  0  0  0  0  0  0  0  0  0  0  0
   17.9401   39.6413   -9.7216 H   0  0  0  0  0  0  0  0  0  0  0  0
   18.6984   41.2753   -9.6623 H   0  0  0  0  0  0  0  0  0  0  0  0
   17.8313   39.6681  -13.4710 H   0  0  0  0  0  0  0  0  0  0  0  0
   17.4064   38.6760  -12.0250 H   0  0  0  0  0  0  0  0  0  0  0  0
   24.1445   36.2671   -4.0027 H   0  0  0  0  0  0  0  0  0  0  0  0
   26.2588   35.1813   -0.7766 H   0  0  0  0  0  0  0  0  0  0  0  0
   27.8578   35.8837   -1.1972 H   0  0  0  0  0  0  0  0  0  0  0  0
   26.3924   36.9226   -1.1972 H   0  0  0  0  0  0  0  0  0  0  0  0
   27.8088   37.2271   -3.2102 H   0  0  0  0  0  0  0  0  0  0  0  0
   27.9067   35.8819   -4.3966 H   0  0  0  0  0  0  0  0  0  0  0  0
   26.4833   36.9777   -4.3966 H   0  0  0  0  0  0  0  0  0  0  0  0
   21.6994   35.2578   -8.3815 H   0  0  0  0  0  0  0  0  0  0  0  0
   23.7844   33.8341  -10.8406 H   0  0  0  0  0  0  0  0  0  0  0  0
   17.1797   40.9883  -11.5353 H   0  0  0  0  0  0  0  0  0  0  0  0
  2  3  2  0
  3  4  1  0
  5  6  2  0
  3  7  1  0
  5  9  1  0
  8  9  2  0
  7 10  2  0
  6 11  1  0
 10 12  1  0
 13 14  1  0
 13 15  1  0
 14 16  1  0
 17 19  1  0
 18 20  1  0
 15 21  1  0
 16 21  1  0
  8 24  1  0
 11 24  2  0
  1 25  2  0
  2 25  1  0
  1 26  1  0
  4 26  2  0
  4 27  1  0
 10 27  1  0
 21 27  1  0
  9 28  1  0
 17 28  1  0
 18 28  1  0
  1 29  1  0
 11 29  1  0
 12 30  1  0
 22 30  1  0
 23 30  1  0
 19 31  1  0
 20 31  1  0
 12 32  2  0
  2 33  1  0
  5 34  1  0
  7 35  1  0
  8 36  1  0
 13 37  1  0
 13 38  1  0
 14 39  1  0
 14 40  1  0
 15 41  1  0
 15 42  1  0
 16 43  1  0
 16 44  1  0
 17 45  1  0
 17 46  1  0
 18 47  1  0
 18 48  1  0
 19 49  1  0
 19 50  1  0
 20 51  1  0
 20 52  1  0
 21 53  1  0
 22 54  1  0
 22 55  1  0
 22 56  1  0
 23 57  1  0
 23 58  1  0
 23 59  1  0
 24 60  1  0
 29 61  1  0
 31 62  1  0
M  END
>  <PDBID>  (1) 
5L2T

>  <PDB ID>  (1) 
5L2T

>  <Generic Name>  (1) 
Ribociclib

>  <Brand Name>  (1) 
Kisqali

>  <DrugBank ID>  (1) 
DB11730

>  <ATC Codes>  (1) 
nan

>  <Ligand ID>  (1) 
6ZZ

>  <Target Name>  (1) 
Cyclin-dependent kinase 6

>  <UniProt ID>  (1) 
Q00534

>  <PDB ID.1>  (1) 
5L2T

>  <Seq. Identity>  (1) 
100%

$$$$
