PDB_DB00188_77
     RDKit          3D

 53 54  0  0  0  0  0  0  0  0999 V2000
   59.1730 -156.2870   17.0230 N   0  0  0  0  0  0  0  0  0  0  0  0
   58.6870 -157.3370   16.3380 C   0  0  0  0  0  0  0  0  0  0  0  0
   59.2910 -158.5850   16.4590 C   0  0  0  0  0  0  0  0  0  0  0  0
   60.3960 -158.7510   17.3040 N   0  0  0  0  0  0  0  0  0  0  0  0
   60.8920 -157.6560   18.0160 C   0  0  0  0  0  0  0  0  0  0  0  0
   60.2780 -156.4200   17.8750 C   0  0  0  0  0  0  0  0  0  0  0  0
   57.5930 -157.1700   15.4930 C   0  0  0  0  0  0  0  0  0  0  0  0
   56.8290 -158.1040   15.2480 O   0  0  0  0  0  0  0  0  0  0  0  0
   57.4750 -155.9330   14.9820 N   0  0  0  0  0  0  0  0  0  0  0  0
   56.4150 -155.5500   14.0400 C   0  0  1  0  0  0  0  0  0  0  0  0
   55.6970 -154.3250   14.5750 C   0  0  0  0  0  0  0  0  0  0  0  0
   54.8190 -153.8390   13.5840 C   0  0  0  0  0  0  0  0  0  0  0  0
   53.7410 -154.6070   13.1450 C   0  0  0  0  0  0  0  0  0  0  0  0
   52.8720 -154.1160   12.1710 C   0  0  0  0  0  0  0  0  0  0  0  0
   53.0640 -152.8490   11.6330 C   0  0  0  0  0  0  0  0  0  0  0  0
   54.1290 -152.0750   12.0720 C   0  0  0  0  0  0  0  0  0  0  0  0
   54.9960 -152.5650   13.0430 C   0  0  0  0  0  0  0  0  0  0  0  0
   57.1120 -155.2780   12.7040 C   0  0  0  0  0  0  0  0  0  0  0  0
   57.9790 -154.4070   12.6040 O   0  0  0  0  0  0  0  0  0  0  0  0
   56.7140 -156.0810   11.7030 N   0  0  0  0  0  0  0  0  0  0  0  0
   57.2630 -155.9680   10.3420 C   0  0  1  0  0  0  0  0  0  0  0  0
   57.3780 -157.3340    9.6730 C   0  0  0  0  0  0  0  0  0  0  0  0
   58.0590 -158.3530   10.6240 C   0  0  0  0  0  0  0  0  0  0  0  0
   58.2840 -159.6620    9.8510 C   0  0  0  0  0  0  0  0  0  0  0  0
   59.4000 -157.8520   11.1890 C   0  0  0  0  0  0  0  0  0  0  0  0
   56.3580 -155.0480    9.4910 B   0  0  0  0  0  0  0  0  0  0  0  0
   56.2890 -153.7400   10.0810 O   0  0  0  0  0  0  0  0  0  0  0  0
   55.0300 -155.5980    9.4120 O   0  0  0  0  0  0  0  0  0  0  0  0
   58.9004 -159.4419   15.8906 H   0  0  0  0  0  0  0  0  0  0  0  0
   61.7602 -157.7727   18.6813 H   0  0  0  0  0  0  0  0  0  0  0  0
   60.6565 -155.5485   18.4292 H   0  0  0  0  0  0  0  0  0  0  0  0
   58.1611 -155.2186   15.2645 H   0  0  0  0  0  0  0  0  0  0  0  0
   55.6540 -156.3333   13.9087 H   0  0  0  0  0  0  0  0  0  0  0  0
   55.1245 -154.5963   15.4742 H   0  0  0  0  0  0  0  0  0  0  0  0
   56.4307 -153.5479   14.8354 H   0  0  0  0  0  0  0  0  0  0  0  0
   53.5748 -155.6078   13.5702 H   0  0  0  0  0  0  0  0  0  0  0  0
   52.0302 -154.7348   11.8268 H   0  0  0  0  0  0  0  0  0  0  0  0
   52.3773 -152.4628   10.8654 H   0  0  0  0  0  0  0  0  0  0  0  0
   54.2879 -151.0713   11.6509 H   0  0  0  0  0  0  0  0  0  0  0  0
   55.8323 -151.9399   13.3890 H   0  0  0  0  0  0  0  0  0  0  0  0
   56.0011 -156.7994   11.8943 H   0  0  0  0  0  0  0  0  0  0  0  0
   58.2723 -155.5369   10.4157 H   0  0  0  0  0  0  0  0  0  0  0  0
   56.3717 -157.6963    9.4159 H   0  0  0  0  0  0  0  0  0  0  0  0
   57.9902 -157.2332    8.7647 H   0  0  0  0  0  0  0  0  0  0  0  0
   57.3927 -158.5034   11.4862 H   0  0  0  0  0  0  0  0  0  0  0  0
   58.4261 -160.4884   10.5629 H   0  0  0  0  0  0  0  0  0  0  0  0
   57.4083 -159.8694    9.2184 H   0  0  0  0  0  0  0  0  0  0  0  0
   59.1787 -159.5651    9.2184 H   0  0  0  0  0  0  0  0  0  0  0  0
   59.3628 -157.8659   12.2883 H   0  0  0  0  0  0  0  0  0  0  0  0
   60.2122 -158.5074   10.8413 H   0  0  0  0  0  0  0  0  0  0  0  0
   59.5835 -156.8247   10.8413 H   0  0  0  0  0  0  0  0  0  0  0  0
   56.2933 -153.8223   11.0676 H   0  0  0  0  0  0  0  0  0  0  0  0
   54.6783 -155.7437   10.3259 H   0  0  0  0  0  0  0  0  0  0  0  0
  1  2  2  0
  2  3  1  0
  3  4  2  0
  4  5  1  0
  1  6  1  0
  5  6  2  0
  2  7  1  0
  7  8  2  0
  7  9  1  0
  9 10  1  0
 10 11  1  0
 11 12  1  0
 12 13  2  0
 13 14  1  0
 14 15  2  0
 15 16  1  0
 12 17  1  0
 16 17  2  0
 10 18  1  0
 18 19  2  0
 18 20  1  0
 20 21  1  0
 21 22  1  0
 22 23  1  0
 23 24  1  0
 23 25  1  0
 21 26  1  0
 26 27  1  0
 26 28  1  0
  3 29  1  0
  5 30  1  0
  6 31  1  0
  9 32  1  0
 10 33  1  6
 11 34  1  0
 11 35  1  0
 13 36  1  0
 14 37  1  0
 15 38  1  0
 16 39  1  0
 17 40  1  0
 20 41  1  0
 21 42  1  1
 22 43  1  0
 22 44  1  0
 23 45  1  0
 24 46  1  0
 24 47  1  0
 24 48  1  0
 25 49  1  0
 25 50  1  0
 25 51  1  0
 27 52  1  0
 28 53  1  0
M  END
$$$$
