PDB_DB01229_99
     RDKit          3D

113119  0  0  0  0  0  0  0  0999 V2000
   92.5770   50.6300   87.5350 O   0  0  0  0  0  0  0  0  0  0  0  0
   92.9900   50.1640   86.2440 C   0  0  1  0  0  0  0  0  0  0  0  0
   93.2850   48.5440   86.4350 C   0  0  1  0  0  0  0  0  0  0  0  0
   92.1430   48.1360   87.2230 O   0  0  0  0  0  0  0  0  0  0  0  0
   92.3500   47.6560   88.4610 C   0  0  0  0  0  0  0  0  0  0  0  0
   93.4390   47.5630   88.9680 O   0  0  0  0  0  0  0  0  0  0  0  0
   91.0770   47.2510   89.1130 C   0  0  0  0  0  0  0  0  0  0  0  0
   89.8650   47.3950   88.4430 C   0  0  0  0  0  0  0  0  0  0  0  0
   88.6820   46.9950   89.0410 C   0  0  0  0  0  0  0  0  0  0  0  0
   88.6930   46.4520   90.3100 C   0  0  0  0  0  0  0  0  0  0  0  0
   89.8880   46.3100   90.9850 C   0  0  0  0  0  0  0  0  0  0  0  0
   91.0760   46.7070   90.3930 C   0  0  0  0  0  0  0  0  0  0  0  0
   93.5320   47.6160   85.1510 C   0  0  2  0  0  0  0  0  0  0  0  0
   92.5220   46.3380   84.9930 C   0  0  2  0  0  0  0  0  0  0  0  0
   91.1350   46.7980   84.9320 O   0  0  0  0  0  0  0  0  0  0  0  0
   90.5870   47.4580   83.8800 C   0  0  0  0  0  0  0  0  0  0  0  0
   91.1750   47.7680   82.8840 O   0  0  0  0  0  0  0  0  0  0  0  0
   89.1530   47.7390   84.1640 C   0  0  0  0  0  0  0  0  0  0  0  0
   92.4900   45.1650   86.0000 C   0  0  0  0  0  0  0  0  0  0  0  0
   92.4540   44.2010   84.9410 O   0  0  0  0  0  0  0  0  0  0  0  0
   92.8980   45.2180   83.9980 C   0  0  2  0  0  0  0  0  0  0  0  0
   94.3450   45.0830   83.5920 C   0  0  0  0  0  0  0  0  0  0  0  0
   95.0280   46.4390   83.4580 C   0  0  2  0  0  0  0  0  0  0  0  0
   96.3560   46.2480   82.9640 O   0  0  0  0  0  0  0  0  0  0  0  0
   95.0630   47.2650   84.7740 C   0  0  2  0  0  0  0  0  0  0  0  0
   95.8540   46.5500   85.8800 C   0  0  0  0  0  0  0  0  0  0  0  0
   96.0640   48.3930   84.3290 C   0  0  0  0  0  0  0  0  0  0  0  0
   97.2210   48.0500   84.2600 O   0  0  0  0  0  0  0  0  0  0  0  0
   95.8020   50.0400   83.9090 C   0  0  2  0  0  0  0  0  0  0  0  0
   97.0560   50.7310   84.1830 O   0  0  0  0  0  0  0  0  0  0  0  0
   97.3520   51.8260   83.4550 C   0  0  0  0  0  0  0  0  0  0  0  0
   96.6560   52.2330   82.5710 O   0  0  0  0  0  0  0  0  0  0  0  0
   98.6370   52.4330   83.9040 C   0  0  0  0  0  0  0  0  0  0  0  0
   94.5300   50.8030   84.3340 C   0  0  0  0  0  0  0  0  0  0  0  0
   93.4880   50.8320   83.4720 C   0  0  0  0  0  0  0  0  0  0  0  0
   92.0750   51.0860   83.9650 C   0  0  1  0  0  0  0  0  0  0  0  0
   90.9890   50.7090   83.0660 O   0  0  0  0  0  0  0  0  0  0  0  0
   90.3220   51.7110   82.4710 C   0  0  0  0  0  0  0  0  0  0  0  0
   90.6140   52.8700   82.5640 O   0  0  0  0  0  0  0  0  0  0  0  0
   89.1350   51.2020   81.6710 C   0  0  2  0  0  0  0  0  0  0  0  0
   88.7600   52.1800   80.7180 O   0  0  0  0  0  0  0  0  0  0  0  0
   87.9700   50.9290   82.6080 C   0  0  1  0  0  0  0  0  0  0  0  0
   87.8270   52.0400   83.5390 N   0  0  0  0  0  0  0  0  0  0  0  0
   87.9290   51.8480   84.8600 C   0  0  0  0  0  0  0  0  0  0  0  0
   88.0410   50.7280   85.3510 O   0  0  0  0  0  0  0  0  0  0  0  0
   87.9180   53.0690   85.7230 C   0  0  0  0  0  0  0  0  0  0  0  0
   86.8270   53.9320   85.7270 C   0  0  0  0  0  0  0  0  0  0  0  0
   86.8140   55.0420   86.5530 C   0  0  0  0  0  0  0  0  0  0  0  0
   87.8870   55.3090   87.3770 C   0  0  0  0  0  0  0  0  0  0  0  0
   88.9780   54.4650   87.3760 C   0  0  0  0  0  0  0  0  0  0  0  0
   88.9980   53.3500   86.5560 C   0  0  0  0  0  0  0  0  0  0  0  0
   86.6900   50.6110   81.8640 C   0  0  0  0  0  0  0  0  0  0  0  0
   86.4640   49.3380   81.3580 C   0  0  0  0  0  0  0  0  0  0  0  0
   85.2960   49.0470   80.6740 C   0  0  0  0  0  0  0  0  0  0  0  0
   84.3410   50.0210   80.4880 C   0  0  0  0  0  0  0  0  0  0  0  0
   84.5520   51.2880   80.9860 C   0  0  0  0  0  0  0  0  0  0  0  0
   85.7180   51.5830   81.6700 C   0  0  0  0  0  0  0  0  0  0  0  0
   91.7920   50.4240   85.3090 C   0  0  0  0  0  0  0  0  0  0  0  0
   93.6290   50.6150   81.9950 C   0  0  0  0  0  0  0  0  0  0  0  0
   94.3320   50.9860   85.8880 C   0  0  0  0  0  0  0  0  0  0  0  0
   94.3840   52.4460   86.3630 C   0  0  0  0  0  0  0  0  0  0  0  0
   95.3650   50.5500   86.9360 C   0  0  0  0  0  0  0  0  0  0  0  0
   93.0395   50.1081   88.2377 H   0  0  0  0  0  0  0  0  0  0  0  0
   94.2774   48.4020   86.8878 H   0  0  0  0  0  0  0  0  0  0  0  0
   89.8472   47.8292   87.4325 H   0  0  0  0  0  0  0  0  0  0  0  0
   87.7297   47.1104   88.5027 H   0  0  0  0  0  0  0  0  0  0  0  0
   87.7518   46.1334   90.7818 H   0  0  0  0  0  0  0  0  0  0  0  0
   89.8975   45.8798   91.9973 H   0  0  0  0  0  0  0  0  0  0  0  0
   92.0241   46.5913   90.9386 H   0  0  0  0  0  0  0  0  0  0  0  0
   93.2354   48.3205   84.3600 H   0  0  0  0  0  0  0  0  0  0  0  0
   88.9940   47.7702   85.2520 H   0  0  0  0  0  0  0  0  0  0  0  0
   88.8754   48.7086   83.7249 H   0  0  0  0  0  0  0  0  0  0  0  0
   88.5300   46.9459   83.7249 H   0  0  0  0  0  0  0  0  0  0  0  0
   93.3897   45.0975   86.6293 H   0  0  0  0  0  0  0  0  0  0  0  0
   91.7147   45.1419   86.7800 H   0  0  0  0  0  0  0  0  0  0  0  0
   92.4888   45.2805   82.9789 H   0  0  0  0  0  0  0  0  0  0  0  0
   94.8743   44.4923   84.3541 H   0  0  0  0  0  0  0  0  0  0  0  0
   94.3783   44.5867   82.6109 H   0  0  0  0  0  0  0  0  0  0  0  0
   94.4248   47.0284   82.7518 H   0  0  0  0  0  0  0  0  0  0  0  0
   96.9817   46.1580   83.7259 H   0  0  0  0  0  0  0  0  0  0  0  0
   95.4889   46.8800   86.8638 H   0  0  0  0  0  0  0  0  0  0  0  0
   95.7175   45.4627   85.7841 H   0  0  0  0  0  0  0  0  0  0  0  0
   96.9220   46.7953   85.7841 H   0  0  0  0  0  0  0  0  0  0  0  0
   95.5193   50.0237   82.8461 H   0  0  0  0  0  0  0  0  0  0  0  0
   98.6706   52.4489   85.0034 H   0  0  0  0  0  0  0  0  0  0  0  0
   99.4780   51.8370   83.5200 H   0  0  0  0  0  0  0  0  0  0  0  0
   98.7108   53.4612   83.5200 H   0  0  0  0  0  0  0  0  0  0  0  0
   92.0736   52.1834   84.0407 H   0  0  0  0  0  0  0  0  0  0  0  0
   89.4101   50.2711   81.1537 H   0  0  0  0  0  0  0  0  0  0  0  0
   88.4477   52.9944   81.1863 H   0  0  0  0  0  0  0  0  0  0  0  0
   88.1893   50.0211   83.1890 H   0  0  0  0  0  0  0  0  0  0  0  0
   87.6449   52.9865   83.1760 H   0  0  0  0  0  0  0  0  0  0  0  0
   85.9688   53.7306   85.0690 H   0  0  0  0  0  0  0  0  0  0  0  0
   85.9436   55.7146   86.5524 H   0  0  0  0  0  0  0  0  0  0  0  0
   87.8729   56.1920   88.0328 H   0  0  0  0  0  0  0  0  0  0  0  0
   89.8362   54.6790   88.0299 H   0  0  0  0  0  0  0  0  0  0  0  0
   89.8720   52.6821   86.5624 H   0  0  0  0  0  0  0  0  0  0  0  0
   87.2206   48.5527   81.5020 H   0  0  0  0  0  0  0  0  0  0  0  0
   85.1305   48.0342   80.2779 H   0  0  0  0  0  0  0  0  0  0  0  0
   83.4135   49.7886   79.9441 H   0  0  0  0  0  0  0  0  0  0  0  0
   83.7905   52.0682   80.8393 H   0  0  0  0  0  0  0  0  0  0  0  0
   85.8764   52.5977   82.0640 H   0  0  0  0  0  0  0  0  0  0  0  0
   91.3180   49.4528   85.1039 H   0  0  0  0  0  0  0  0  0  0  0  0
   91.1674   51.1492   85.8511 H   0  0  0  0  0  0  0  0  0  0  0  0
   94.2201   49.7054   81.8128 H   0  0  0  0  0  0  0  0  0  0  0  0
   92.6321   50.5009   81.5443 H   0  0  0  0  0  0  0  0  0  0  0  0
   94.1383   51.4796   81.5443 H   0  0  0  0  0  0  0  0  0  0  0  0
   94.3850   52.4740   87.4626 H   0  0  0  0  0  0  0  0  0  0  0  0
   95.2997   52.9227   85.9832 H   0  0  0  0  0  0  0  0  0  0  0  0
   93.5045   52.9867   85.9832 H   0  0  0  0  0  0  0  0  0  0  0  0
   94.9594   50.7212   87.9440 H   0  0  0  0  0  0  0  0  0  0  0  0
   95.5888   49.4807   86.8075 H   0  0  0  0  0  0  0  0  0  0  0  0
   96.2873   51.1356   86.8075 H   0  0  0  0  0  0  0  0  0  0  0  0
  2  1  1  1
  2  3  1  0
  3  4  1  0
  4  5  1  0
  5  6  2  0
  5  7  1  0
  7  8  2  0
  8  9  1  0
  9 10  2  0
 10 11  1  0
  7 12  1  0
 11 12  2  0
  3 13  1  0
 13 14  1  0
 14 15  1  6
 15 16  1  0
 16 17  2  0
 16 18  1  0
 14 19  1  0
 19 20  1  0
 14 21  1  0
 20 21  1  0
 21 22  1  0
 22 23  1  0
 23 24  1  0
 13 25  1  0
 23 25  1  0
 25 26  1  1
 25 27  1  0
 27 28  2  0
 27 29  1  0
 29 30  1  0
 30 31  1  0
 31 32  2  0
 31 33  1  0
 29 34  1  0
 34 35  2  0
 35 36  1  0
 36 37  1  0
 37 38  1  0
 38 39  2  0
 38 40  1  0
 40 41  1  0
 40 42  1  0
 42 43  1  0
 43 44  1  0
 44 45  2  0
 44 46  1  0
 46 47  2  0
 47 48  1  0
 48 49  2  0
 49 50  1  0
 46 51  1  0
 50 51  2  0
 42 52  1  0
 52 53  2  0
 53 54  1  0
 54 55  2  0
 55 56  1  0
 52 57  1  0
 56 57  2  0
  2 58  1  0
 36 58  1  0
 35 59  1  0
  2 60  1  0
 34 60  1  0
 60 61  1  0
 60 62  1  0
  1 63  1  0
  3 64  1  1
  8 65  1  0
  9 66  1  0
 10 67  1  0
 11 68  1  0
 12 69  1  0
 13 70  1  6
 18 71  1  0
 18 72  1  0
 18 73  1  0
 19 74  1  0
 19 75  1  0
 21 76  1  6
 22 77  1  0
 22 78  1  0
 23 79  1  6
 24 80  1  0
 26 81  1  0
 26 82  1  0
 26 83  1  0
 29 84  1  6
 33 85  1  0
 33 86  1  0
 33 87  1  0
 36 88  1  1
 40 89  1  6
 41 90  1  0
 42 91  1  1
 43 92  1  0
 47 93  1  0
 48 94  1  0
 49 95  1  0
 50 96  1  0
 51 97  1  0
 53 98  1  0
 54 99  1  0
 55100  1  0
 56101  1  0
 57102  1  0
 58103  1  0
 58104  1  0
 59105  1  0
 59106  1  0
 59107  1  0
 61108  1  0
 61109  1  0
 61110  1  0
 62111  1  0
 62112  1  0
 62113  1  0
M  END
$$$$
