PDB_DB01273_99
     RDKit          3D

195210  0  0  0  0  0  0  0  0999 V2000
   46.4010   -4.1070   13.8550 C   0  0  0  0  0  0  0  0  0  0  0  0
   44.9110   -4.2010   13.9650 N   0  0  0  0  0  0  0  0  0  0  0  0
   44.1410   -3.2140   13.0450 C   0  0  0  0  0  0  0  0  0  0  0  0
   44.8150   -1.9330   12.9480 C   0  0  2  0  0  0  0  0  0  0  0  0
   46.2280   -2.1000   12.5880 C   0  0  0  0  0  0  0  0  0  0  0  0
   46.8960   -2.7320   13.7010 C   0  0  1  0  0  0  0  0  0  0  0  0
   46.2420   -1.9610   14.6730 C   0  0  0  0  0  0  0  0  0  0  0  0
   46.6940   -1.6410   15.9850 C   0  0  0  0  0  0  0  0  0  0  0  0
   45.8900   -0.8330   16.8420 C   0  0  0  0  0  0  0  0  0  0  0  0
   46.3530   -0.5080   18.1260 N   0  0  0  0  0  0  0  0  0  0  0  0
   45.5860    0.2470   18.9370 C   0  0  0  0  0  0  0  0  0  0  0  0
   44.3510    0.7350   18.5270 C   0  0  0  0  0  0  0  0  0  0  0  0
   43.9070    0.4430   17.2880 N   0  0  0  0  0  0  0  0  0  0  0  0
   44.6970   -0.3640   16.4370 C   0  0  0  0  0  0  0  0  0  0  0  0
   44.2240   -0.6500   15.1330 C   0  0  0  0  0  0  0  0  0  0  0  0
   45.0140   -1.4680   14.2640 C   0  0  0  0  0  0  0  0  0  0  0  0
   23.2300  -26.4410   16.0050 C   0  0  0  0  0  0  0  0  0  0  0  0
   22.4860  -25.1470   15.7950 N   0  0  0  0  0  0  0  0  0  0  0  0
   23.1500  -24.1130   14.8600 C   0  0  0  0  0  0  0  0  0  0  0  0
   24.6060  -24.1710   14.9110 C   0  0  2  0  0  0  0  0  0  0  0  0
   25.0410  -25.5650   14.6830 C   0  0  0  0  0  0  0  0  0  0  0  0
   24.6950  -26.3270   15.8830 C   0  0  1  0  0  0  0  0  0  0  0  0
   25.0800  -25.3320   16.7840 C   0  0  0  0  0  0  0  0  0  0  0  0
   25.4920  -25.5190   18.1280 C   0  0  0  0  0  0  0  0  0  0  0  0
   25.8660  -24.4160   18.9350 C   0  0  0  0  0  0  0  0  0  0  0  0
   26.2670  -24.6470   20.2520 N   0  0  0  0  0  0  0  0  0  0  0  0
   26.6320  -23.6060   21.0170 C   0  0  0  0  0  0  0  0  0  0  0  0
   26.6190  -22.3130   20.5260 C   0  0  0  0  0  0  0  0  0  0  0  0
   26.2400  -22.1000   19.2490 N   0  0  0  0  0  0  0  0  0  0  0  0
   25.8490  -23.1680   18.4380 C   0  0  0  0  0  0  0  0  0  0  0  0
   25.4290  -22.9420   17.1000 C   0  0  0  0  0  0  0  0  0  0  0  0
   25.0430  -24.0450   16.2730 C   0  0  0  0  0  0  0  0  0  0  0  0
   -5.9020  -11.0620   14.5150 C   0  0  0  0  0  0  0  0  0  0  0  0
   -4.8210  -10.0210   14.3770 N   0  0  0  0  0  0  0  0  0  0  0  0
   -3.6630  -10.4460   13.4390 C   0  0  0  0  0  0  0  0  0  0  0  0
   -3.3660  -11.8620   13.6030 C   0  0  2  0  0  0  0  0  0  0  0  0
   -4.5570  -12.7000   13.3810 C   0  0  0  0  0  0  0  0  0  0  0  0
   -5.4390  -12.4640   14.5010 C   0  0  1  0  0  0  0  0  0  0  0  0
   -4.4430  -12.5280   15.4580 C   0  0  0  0  0  0  0  0  0  0  0  0
   -4.5900  -12.9360   16.8110 C   0  0  0  0  0  0  0  0  0  0  0  0
   -3.4620  -12.9600   17.6760 C   0  0  0  0  0  0  0  0  0  0  0  0
   -3.6360  -13.3340   19.0060 N   0  0  0  0  0  0  0  0  0  0  0  0
   -2.5720  -13.3620   19.8130 C   0  0  0  0  0  0  0  0  0  0  0  0
   -1.3160  -13.0090   19.3580 C   0  0  0  0  0  0  0  0  0  0  0  0
   -1.1630  -12.6280   18.0800 N   0  0  0  0  0  0  0  0  0  0  0  0
   -2.2570  -12.6020   17.2260 C   0  0  0  0  0  0  0  0  0  0  0  0
   -2.0850  -12.2050   15.8710 C   0  0  0  0  0  0  0  0  0  0  0  0
   -3.1970  -12.1870   14.9870 C   0  0  0  0  0  0  0  0  0  0  0  0
    0.0950   20.8390   12.1420 C   0  0  0  0  0  0  0  0  0  0  0  0
    1.3540   20.0180   12.2160 N   0  0  0  0  0  0  0  0  0  0  0  0
    1.3370   18.7510   11.3510 C   0  0  0  0  0  0  0  0  0  0  0  0
    0.0390   18.1370   11.4710 C   0  0  2  0  0  0  0  0  0  0  0  0
   -1.0320   19.0730   11.0910 C   0  0  0  0  0  0  0  0  0  0  0  0
   -1.1520   20.0630   12.1270 C   0  0  1  0  0  0  0  0  0  0  0  0
   -1.0120   19.1570   13.1810 C   0  0  0  0  0  0  0  0  0  0  0  0
   -1.4950   19.2680   14.5150 C   0  0  0  0  0  0  0  0  0  0  0  0
   -1.2670   18.2300   15.4720 C   0  0  0  0  0  0  0  0  0  0  0  0
   -1.7560   18.3620   16.7800 N   0  0  0  0  0  0  0  0  0  0  0  0
   -1.5170   17.3720   17.6710 C   0  0  0  0  0  0  0  0  0  0  0  0
   -0.8000   16.2350   17.3300 C   0  0  0  0  0  0  0  0  0  0  0  0
   -0.3300   16.1160   16.0690 N   0  0  0  0  0  0  0  0  0  0  0  0
   -0.5650   17.1360   15.1380 C   0  0  0  0  0  0  0  0  0  0  0  0
   -0.0690   16.9990   13.8240 C   0  0  0  0  0  0  0  0  0  0  0  0
   -0.2970   18.0140   12.8450 C   0  0  0  0  0  0  0  0  0  0  0  0
   32.3490   25.2230   12.1810 C   0  0  0  0  0  0  0  0  0  0  0  0
   31.9310   23.7980   12.3420 N   0  0  0  0  0  0  0  0  0  0  0  0
   30.8350   23.3510   11.3400 C   0  0  0  0  0  0  0  0  0  0  0  0
   29.8120   24.3680   11.2390 C   0  0  2  0  0  0  0  0  0  0  0  0
   30.4190   25.6530   10.8730 C   0  0  0  0  0  0  0  0  0  0  0  0
   31.1970   26.1220   11.9950 C   0  0  1  0  0  0  0  0  0  0  0  0
   30.2660   25.7410   12.9550 C   0  0  0  0  0  0  0  0  0  0  0  0
   30.1000   26.2850   14.2530 C   0  0  0  0  0  0  0  0  0  0  0  0
   29.0970   25.7720   15.1270 C   0  0  0  0  0  0  0  0  0  0  0  0
   28.9350   26.3280   16.4160 N   0  0  0  0  0  0  0  0  0  0  0  0
   27.9800   25.8340   17.2380 C   0  0  0  0  0  0  0  0  0  0  0  0
   27.1460   24.7990   16.8320 C   0  0  0  0  0  0  0  0  0  0  0  0
   27.3110   24.2780   15.5910 N   0  0  0  0  0  0  0  0  0  0  0  0
   28.3030   24.7600   14.7360 C   0  0  0  0  0  0  0  0  0  0  0  0
   28.4260   24.1960   13.4390 C   0  0  0  0  0  0  0  0  0  0  0  0
   29.4240   24.7080   12.5550 C   0  0  0  0  0  0  0  0  0  0  0  0
   46.8443   -4.5358   14.7659 H   0  0  0  0  0  0  0  0  0  0  0  0
   46.6919   -4.6570   12.9479 H   0  0  0  0  0  0  0  0  0  0  0  0
   44.6287   -5.1602   13.7177 H   0  0  0  0  0  0  0  0  0  0  0  0
   44.0621   -3.6522   12.0391 H   0  0  0  0  0  0  0  0  0  0  0  0
   43.1453   -3.0451   13.4810 H   0  0  0  0  0  0  0  0  0  0  0  0
   44.2256   -1.3181   12.2519 H   0  0  0  0  0  0  0  0  0  0  0  0
   46.3135   -2.7326   11.6922 H   0  0  0  0  0  0  0  0  0  0  0  0
   46.6863   -1.1243   12.3690 H   0  0  0  0  0  0  0  0  0  0  0  0
   47.9948   -2.7770   13.6776 H   0  0  0  0  0  0  0  0  0  0  0  0
   45.7532   -2.8663   15.0622 H   0  0  0  0  0  0  0  0  0  0  0  0
   46.8529   -2.5960   16.5072 H   0  0  0  0  0  0  0  0  0  0  0  0
   47.5763   -1.0106   15.8001 H   0  0  0  0  0  0  0  0  0  0  0  0
   45.4098   -1.7373   17.2441 H   0  0  0  0  0  0  0  0  0  0  0  0
   46.5231   -1.3973   18.6171 H   0  0  0  0  0  0  0  0  0  0  0  0
   45.3968   -0.3583   19.8358 H   0  0  0  0  0  0  0  0  0  0  0  0
   46.1814    1.1669   19.0336 H   0  0  0  0  0  0  0  0  0  0  0  0
   43.6023    0.3510   19.2355 H   0  0  0  0  0  0  0  0  0  0  0  0
   44.4953    1.8252   18.5031 H   0  0  0  0  0  0  0  0  0  0  0  0
   43.0018   -0.0357   17.3993 H   0  0  0  0  0  0  0  0  0  0  0  0
   44.2074   -1.2644   16.8364 H   0  0  0  0  0  0  0  0  0  0  0  0
   43.2510   -1.1501   15.2473 H   0  0  0  0  0  0  0  0  0  0  0  0
   44.2224    0.3313   14.6360 H   0  0  0  0  0  0  0  0  0  0  0  0
   44.5212   -2.3695   14.6570 H   0  0  0  0  0  0  0  0  0  0  0  0
   22.9965  -26.8125   17.0137 H   0  0  0  0  0  0  0  0  0  0  0  0
   22.9007  -27.1256   15.2095 H   0  0  0  0  0  0  0  0  0  0  0  0
   21.5628  -25.3775   15.4008 H   0  0  0  0  0  0  0  0  0  0  0  0
   22.8247  -24.3100   13.8279 H   0  0  0  0  0  0  0  0  0  0  0  0
   22.8425  -23.1116   15.1956 H   0  0  0  0  0  0  0  0  0  0  0  0
   24.9776  -23.4132   14.2056 H   0  0  0  0  0  0  0  0  0  0  0  0
   24.5222  -25.9835   13.8080 H   0  0  0  0  0  0  0  0  0  0  0  0
   26.1230  -25.6102   14.4898 H   0  0  0  0  0  0  0  0  0  0  0  0
   25.1167  -27.3397   15.9638 H   0  0  0  0  0  0  0  0  0  0  0  0
   24.0368  -25.2307   17.1179 H   0  0  0  0  0  0  0  0  0  0  0  0
   24.6581  -26.0166   18.6448 H   0  0  0  0  0  0  0  0  0  0  0  0
   26.4372  -26.0707   18.0177 H   0  0  0  0  0  0  0  0  0  0  0  0
   24.8241  -24.3086   19.2711 H   0  0  0  0  0  0  0  0  0  0  0  0
   25.4806  -25.1102   20.7293 H   0  0  0  0  0  0  0  0  0  0  0  0
   25.9647  -23.6134   21.8914 H   0  0  0  0  0  0  0  0  0  0  0  0
   27.7050  -23.7904   21.1740 H   0  0  0  0  0  0  0  0  0  0  0  0
   25.9372  -21.7328   21.1651 H   0  0  0  0  0  0  0  0  0  0  0  0
   27.6782  -22.0165   20.5386 H   0  0  0  0  0  0  0  0  0  0  0  0
   25.4435  -21.4478   19.2825 H   0  0  0  0  0  0  0  0  0  0  0  0
   24.8102  -23.0464   18.7788 H   0  0  0  0  0  0  0  0  0  0  0  0
   24.5638  -22.2646   17.1493 H   0  0  0  0  0  0  0  0  0  0  0  0
   26.3395  -22.5664   16.6102 H   0  0  0  0  0  0  0  0  0  0  0  0
   23.9972  -23.9455   16.5993 H   0  0  0  0  0  0  0  0  0  0  0  0
   -6.4222  -10.8863   15.4682 H   0  0  0  0  0  0  0  0  0  0  0  0
   -6.5464  -10.9476   13.6309 H   0  0  0  0  0  0  0  0  0  0  0  0
   -5.2444   -9.1604   14.0016 H   0  0  0  0  0  0  0  0  0  0  0  0
   -3.9544  -10.2559   12.3955 H   0  0  0  0  0  0  0  0  0  0  0  0
   -2.7661   -9.8629   13.6951 H   0  0  0  0  0  0  0  0  0  0  0  0
   -2.5116  -12.0307   12.9311 H   0  0  0  0  0  0  0  0  0  0  0  0
   -5.0521  -12.4154   12.4408 H   0  0  0  0  0  0  0  0  0  0  0  0
   -4.2866  -13.7635   13.3047 H   0  0  0  0  0  0  0  0  0  0  0  0
   -6.3270  -13.1100   14.5652 H   0  0  0  0  0  0  0  0  0  0  0  0
   -4.6552  -11.4885   15.7484 H   0  0  0  0  0  0  0  0  0  0  0  0
   -5.3256  -12.2579   17.2683 H   0  0  0  0  0  0  0  0  0  0  0  0
   -4.8633  -13.9980   16.7249 H   0  0  0  0  0  0  0  0  0  0  0  0
   -3.6474  -11.9101   17.9470 H   0  0  0  0  0  0  0  0  0  0  0  0
   -4.3116  -12.6755   19.4193 H   0  0  0  0  0  0  0  0  0  0  0  0
   -2.7999  -12.6880   20.6519 H   0  0  0  0  0  0  0  0  0  0  0  0
   -2.4575  -14.4364   20.0194 H   0  0  0  0  0  0  0  0  0  0  0  0
   -0.9705  -12.1740   19.9853 H   0  0  0  0  0  0  0  0  0  0  0  0
   -0.7436  -13.9462   19.4205 H   0  0  0  0  0  0  0  0  0  0  0  0
   -0.7783  -11.6727   18.0989 H   0  0  0  0  0  0  0  0  0  0  0  0
   -2.4584  -11.5601   17.5157 H   0  0  0  0  0  0  0  0  0  0  0  0
   -1.6779  -11.1833   15.8892 H   0  0  0  0  0  0  0  0  0  0  0  0
   -1.4461  -12.9982   15.4555 H   0  0  0  0  0  0  0  0  0  0  0  0
   -3.3826  -11.1368   15.2563 H   0  0  0  0  0  0  0  0  0  0  0  0
    0.0710   21.5065   13.0160 H   0  0  0  0  0  0  0  0  0  0  0  0
    0.1343   21.3764   11.1830 H   0  0  0  0  0  0  0  0  0  0  0  0
    2.1411   20.6071   11.9088 H   0  0  0  0  0  0  0  0  0  0  0  0
    1.5273   19.0156   10.3004 H   0  0  0  0  0  0  0  0  0  0  0  0
    2.1182   18.0531   11.6867 H   0  0  0  0  0  0  0  0  0  0  0  0
    0.0990   17.2128   10.8775 H   0  0  0  0  0  0  0  0  0  0  0  0
   -0.7797   19.5603   10.1377 H   0  0  0  0  0  0  0  0  0  0  0  0
   -1.9827   18.5333   10.9692 H   0  0  0  0  0  0  0  0  0  0  0  0
   -2.0175   20.7408   12.0899 H   0  0  0  0  0  0  0  0  0  0  0  0
   -0.0746   19.6491   13.4795 H   0  0  0  0  0  0  0  0  0  0  0  0
   -1.0488   20.1821   14.9336 H   0  0  0  0  0  0  0  0  0  0  0  0
   -2.5861   19.2351   14.3795 H   0  0  0  0  0  0  0  0  0  0  0  0
   -0.3272   18.7152   15.7744 H   0  0  0  0  0  0  0  0  0  0  0  0
   -1.3483   19.2240   17.1695 H   0  0  0  0  0  0  0  0  0  0  0  0
   -0.9779   17.8361   18.5100 H   0  0  0  0  0  0  0  0  0  0  0  0
   -2.5252   16.9670   17.8429 H   0  0  0  0  0  0  0  0  0  0  0  0
    0.0676   16.1855   18.0044 H   0  0  0  0  0  0  0  0  0  0  0  0
   -1.5345   15.4209   17.4182 H   0  0  0  0  0  0  0  0  0  0  0  0
    0.6918   16.0077   16.1408 H   0  0  0  0  0  0  0  0  0  0  0  0
    0.3633   17.6360   15.4515 H   0  0  0  0  0  0  0  0  0  0  0  0
    1.0218   16.8868   13.9109 H   0  0  0  0  0  0  0  0  0  0  0  0
   -0.6477   16.1492   13.4328 H   0  0  0  0  0  0  0  0  0  0  0  0
    0.6405   18.5197   13.1195 H   0  0  0  0  0  0  0  0  0  0  0  0
   32.9001   25.5345   13.0806 H   0  0  0  0  0  0  0  0  0  0  0  0
   32.9796   25.2910   11.2823 H   0  0  0  0  0  0  0  0  0  0  0  0
   32.7583   23.1995   12.2069 H   0  0  0  0  0  0  0  0  0  0  0  0
   31.2890   23.1917   10.3508 H   0  0  0  0  0  0  0  0  0  0  0  0
   30.3797   22.4154   11.6969 H   0  0  0  0  0  0  0  0  0  0  0  0
   29.0391   23.9911   10.5530 H   0  0  0  0  0  0  0  0  0  0  0  0
   31.0714   25.5203    9.9973 H   0  0  0  0  0  0  0  0  0  0  0  0
   29.6365   26.3842   10.6219 H   0  0  0  0  0  0  0  0  0  0  0  0
   31.5627   27.1589   11.9612 H   0  0  0  0  0  0  0  0  0  0  0  0
   30.9793   25.0051   13.3546 H   0  0  0  0  0  0  0  0  0  0  0  0
   31.0625   26.1640   14.7715 H   0  0  0  0  0  0  0  0  0  0  0  0
   29.7536   27.3093   14.0509 H   0  0  0  0  0  0  0  0  0  0  0  0
   29.8193   25.0471   15.5305 H   0  0  0  0  0  0  0  0  0  0  0  0
   29.8356   26.2209   16.9042 H   0  0  0  0  0  0  0  0  0  0  0  0
   28.4985   25.4805   18.1414 H   0  0  0  0  0  0  0  0  0  0  0  0
   27.2836   26.6802   17.3324 H   0  0  0  0  0  0  0  0  0  0  0  0
   27.2793   23.9756   17.5491 H   0  0  0  0  0  0  0  0  0  0  0  0
   26.1473   25.2588   16.7978 H   0  0  0  0  0  0  0  0  0  0  0  0
   27.4963   23.2727   15.7175 H   0  0  0  0  0  0  0  0  0  0  0  0
   29.0172   24.0370   15.1570 H   0  0  0  0  0  0  0  0  0  0  0  0
   28.6319   23.1236   13.5716 H   0  0  0  0  0  0  0  0  0  0  0  0
   27.4775   24.4560   12.9463 H   0  0  0  0  0  0  0  0  0  0  0  0
   30.1368   23.9720   12.9553 H   0  0  0  0  0  0  0  0  0  0  0  0
  1  2  1  0
  2  3  1  0
  3  4  1  0
  4  5  1  0
  1  6  1  0
  5  6  1  0
  6  7  1  0
  7  8  1  0
  8  9  1  0
  9 10  1  0
 10 11  1  0
 11 12  1  0
 12 13  1  0
  9 14  1  0
 13 14  1  0
 14 15  1  0
  4 16  1  0
  7 16  1  0
 15 16  1  0
 17 18  1  0
 18 19  1  0
 19 20  1  0
 20 21  1  0
 17 22  1  0
 21 22  1  0
 22 23  1  0
 23 24  1  0
 24 25  1  0
 25 26  1  0
 26 27  1  0
 27 28  1  0
 28 29  1  0
 25 30  1  0
 29 30  1  0
 30 31  1  0
 20 32  1  0
 23 32  1  0
 31 32  1  0
 33 34  1  0
 34 35  1  0
 35 36  1  0
 36 37  1  0
 33 38  1  0
 37 38  1  0
 38 39  1  0
 39 40  1  0
 40 41  1  0
 41 42  1  0
 42 43  1  0
 43 44  1  0
 44 45  1  0
 41 46  1  0
 45 46  1  0
 46 47  1  0
 36 48  1  0
 39 48  1  0
 47 48  1  0
 49 50  1  0
 50 51  1  0
 51 52  1  0
 52 53  1  0
 49 54  1  0
 53 54  1  0
 54 55  1  0
 55 56  1  0
 56 57  1  0
 57 58  1  0
 58 59  1  0
 59 60  1  0
 60 61  1  0
 57 62  1  0
 61 62  1  0
 62 63  1  0
 52 64  1  0
 55 64  1  0
 63 64  1  0
 65 66  1  0
 66 67  1  0
 67 68  1  0
 68 69  1  0
 65 70  1  0
 69 70  1  0
 70 71  1  0
 71 72  1  0
 72 73  1  0
 73 74  1  0
 74 75  1  0
 75 76  1  0
 76 77  1  0
 73 78  1  0
 77 78  1  0
 78 79  1  0
 68 80  1  0
 71 80  1  0
 79 80  1  0
  1 81  1  0
  1 82  1  0
  2 83  1  0
  3 84  1  0
  3 85  1  0
  4 86  1  6
  5 87  1  0
  5 88  1  0
  6 89  1  6
  7 90  1  0
  8 91  1  0
  8 92  1  0
  9 93  1  0
 10 94  1  0
 11 95  1  0
 11 96  1  0
 12 97  1  0
 12 98  1  0
 13 99  1  0
 14100  1  0
 15101  1  0
 15102  1  0
 16103  1  0
 17104  1  0
 17105  1  0
 18106  1  0
 19107  1  0
 19108  1  0
 20109  1  6
 21110  1  0
 21111  1  0
 22112  1  1
 23113  1  0
 24114  1  0
 24115  1  0
 25116  1  0
 26117  1  0
 27118  1  0
 27119  1  0
 28120  1  0
 28121  1  0
 29122  1  0
 30123  1  0
 31124  1  0
 31125  1  0
 32126  1  0
 33127  1  0
 33128  1  0
 34129  1  0
 35130  1  0
 35131  1  0
 36132  1  6
 37133  1  0
 37134  1  0
 38135  1  1
 39136  1  0
 40137  1  0
 40138  1  0
 41139  1  0
 42140  1  0
 43141  1  0
 43142  1  0
 44143  1  0
 44144  1  0
 45145  1  0
 46146  1  0
 47147  1  0
 47148  1  0
 48149  1  0
 49150  1  0
 49151  1  0
 50152  1  0
 51153  1  0
 51154  1  0
 52155  1  6
 53156  1  0
 53157  1  0
 54158  1  1
 55159  1  0
 56160  1  0
 56161  1  0
 57162  1  0
 58163  1  0
 59164  1  0
 59165  1  0
 60166  1  0
 60167  1  0
 61168  1  0
 62169  1  0
 63170  1  0
 63171  1  0
 64172  1  0
 65173  1  0
 65174  1  0
 66175  1  0
 67176  1  0
 67177  1  0
 68178  1  6
 69179  1  0
 69180  1  0
 70181  1  6
 71182  1  0
 72183  1  0
 72184  1  0
 73185  1  0
 74186  1  0
 75187  1  0
 75188  1  0
 76189  1  0
 76190  1  0
 77191  1  0
 78192  1  0
 79193  1  0
 79194  1  0
 80195  1  0
M  END
>  <PDBID>  (1) 
4AFG

>  <PDB ID>  (1) 
4AFG

>  <Generic Name>  (1) 
Varenicline

>  <Brand Name>  (1) 
Champix#Chantix#Gd-varenicline

>  <DrugBank ID>  (1) 
DB01273

>  <ATC Codes>  (1) 
N07BA03

>  <Ligand ID>  (1) 
QMR

>  <Target Name>  (1) 
Neuronal acetylcholine receptor subunit alpha-4

>  <UniProt ID>  (1) 
P43681

>  <PDB ID.1>  (1) 
4AFG

>  <Seq. Identity>  (1) 
31%

$$$$
