PDB_DB00907_98
     RDKit          3D

 43 45  0  0  0  0  0  0  0  0999 V2000
   -9.8480    0.8640   25.7880 C   0  0  0  0  0  0  0  0  0  0  0  0
   -9.7590    0.3490   27.1370 O   0  0  0  0  0  0  0  0  0  0  0  0
   -8.4900   -0.2940   27.4130 C   0  0  0  0  0  0  0  0  0  0  0  0
   -7.5510   -0.1100   26.6510 O   0  0  0  0  0  0  0  0  0  0  0  0
   -8.3400   -1.1800   28.5970 C   0  0  2  0  0  0  0  0  0  0  0  0
   -7.1190   -0.8170   29.3420 C   0  0  2  0  0  0  0  0  0  0  0  0
   -6.0130   -1.1430   28.7180 N   0  0  0  0  0  0  0  0  0  0  0  0
   -4.8840   -0.4630   29.3570 C   0  0  0  0  0  0  0  0  0  0  0  0
   -7.0440   -1.7180   30.6150 C   0  0  0  0  0  0  0  0  0  0  0  0
   -6.1550   -2.8080   30.2010 C   0  0  0  0  0  0  0  0  0  0  0  0
   -5.8000   -2.4410   28.7380 C   0  0  1  0  0  0  0  0  0  0  0  0
   -6.7280   -3.2130   27.8240 C   0  0  0  0  0  0  0  0  0  0  0  0
   -8.2650   -2.7630   28.0240 C   0  0  2  0  0  0  0  0  0  0  0  0
   -8.8430   -2.8020   26.8990 O   0  0  0  0  0  0  0  0  0  0  0  0
  -10.2680   -3.2120   26.9350 C   0  0  0  0  0  0  0  0  0  0  0  0
  -10.8920   -3.1730   27.9700 O   0  0  0  0  0  0  0  0  0  0  0  0
  -10.9300   -3.6740   25.6640 C   0  0  0  0  0  0  0  0  0  0  0  0
  -12.2870   -3.9150   25.6320 C   0  0  0  0  0  0  0  0  0  0  0  0
  -12.8620   -4.3310   24.4620 C   0  0  0  0  0  0  0  0  0  0  0  0
  -12.0880   -4.5060   23.3220 C   0  0  0  0  0  0  0  0  0  0  0  0
  -10.7460   -4.2610   23.3590 C   0  0  0  0  0  0  0  0  0  0  0  0
  -10.1630   -3.8430   24.5320 C   0  0  0  0  0  0  0  0  0  0  0  0
  -10.0352    1.9475   25.8208 H   0  0  0  0  0  0  0  0  0  0  0  0
   -8.9032    0.6710   25.2588 H   0  0  0  0  0  0  0  0  0  0  0  0
  -10.6732    0.3651   25.2588 H   0  0  0  0  0  0  0  0  0  0  0  0
   -9.1868   -1.0731   29.2909 H   0  0  0  0  0  0  0  0  0  0  0  0
   -7.1840    0.2682   29.5096 H   0  0  0  0  0  0  0  0  0  0  0  0
   -4.9890   -0.5262   30.4502 H   0  0  0  0  0  0  0  0  0  0  0  0
   -3.9442   -0.9454   29.0504 H   0  0  0  0  0  0  0  0  0  0  0  0
   -4.8710    0.5933   29.0504 H   0  0  0  0  0  0  0  0  0  0  0  0
   -6.6200   -1.1645   31.4658 H   0  0  0  0  0  0  0  0  0  0  0  0
   -8.0297   -2.0698   30.9536 H   0  0  0  0  0  0  0  0  0  0  0  0
   -5.2526   -2.8409   30.8292 H   0  0  0  0  0  0  0  0  0  0  0  0
   -6.6181   -3.8012   30.2958 H   0  0  0  0  0  0  0  0  0  0  0  0
   -4.7796   -2.6849   28.4074 H   0  0  0  0  0  0  0  0  0  0  0  0
   -6.4350   -3.0298   26.7797 H   0  0  0  0  0  0  0  0  0  0  0  0
   -6.6463   -4.2815   28.0721 H   0  0  0  0  0  0  0  0  0  0  0  0
   -8.7485   -3.4381   28.7454 H   0  0  0  0  0  0  0  0  0  0  0  0
  -12.8994   -3.7748   26.5349 H   0  0  0  0  0  0  0  0  0  0  0  0
  -13.9436   -4.5280   24.4241 H   0  0  0  0  0  0  0  0  0  0  0  0
  -12.5582   -4.8431   22.3865 H   0  0  0  0  0  0  0  0  0  0  0  0
  -10.1339   -4.3972   22.4552 H   0  0  0  0  0  0  0  0  0  0  0  0
   -9.0819   -3.6431   24.5667 H   0  0  0  0  0  0  0  0  0  0  0  0
  1  2  1  0
  2  3  1  0
  3  4  2  0
  3  5  1  0
  5  6  1  0
  6  7  1  0
  7  8  1  0
  6  9  1  0
  9 10  1  0
  7 11  1  0
 10 11  1  0
 11 12  1  0
  5 13  1  0
 12 13  1  0
 13 14  1  0
 14 15  1  0
 15 16  2  0
 15 17  1  0
 17 18  2  0
 18 19  1  0
 19 20  2  0
 20 21  1  0
 17 22  1  0
 21 22  2  0
  1 23  1  0
  1 24  1  0
  1 25  1  0
  5 26  1  1
  6 27  1  1
  8 28  1  0
  8 29  1  0
  8 30  1  0
  9 31  1  0
  9 32  1  0
 10 33  1  0
 10 34  1  0
 11 35  1  6
 12 36  1  0
 12 37  1  0
 13 38  1  1
 18 39  1  0
 19 40  1  0
 20 41  1  0
 21 42  1  0
 22 43  1  0
M  END
>  <PDBID>  (1) 
4XPB

>  <PDB ID>  (1) 
4XPB

>  <Generic Name>  (1) 
Cocaine

>  <Brand Name>  (1) 
Cocaine Hydrochloride#Cocaine Hydrochloride Top Sol 40mg/ml#Cocaine Hydrochloride Topical Sol 10%#PMS-cocaine Hydrochloride  Topical Sol 4%#PMS-cocaine Hydrochloride Topical Sol 10%

>  <DrugBank ID>  (1) 
DB00907

>  <ATC Codes>  (1) 
S01HA01#N01BC01#R02AD03#S02DA02

>  <Ligand ID>  (1) 
COC

>  <Target Name>  (1) 
Sodium-dependent noradrenaline transporter

>  <UniProt ID>  (1) 
P23975

>  <PDB ID.1>  (1) 
4XPB

>  <Seq. Identity>  (1) 
58%

$$$$
