PDB_DB04865_98
     RDKit          3D

 78 82  0  0  0  0  0  0  0  0999 V2000
  143.8780    9.6530  232.8120 C   0  0  0  0  0  0  0  0  0  0  0  0
  145.0610    8.8400  232.8130 O   0  0  0  0  0  0  0  0  0  0  0  0
  145.2590    8.2140  233.9810 C   0  0  0  0  0  0  0  0  0  0  0  0
  144.6280    8.3430  235.1310 C   0  0  0  0  0  0  0  0  0  0  0  0
  145.3200    7.5940  236.2220 C   0  0  2  0  0  0  0  0  0  0  0  0
  144.3870    6.5670  236.8750 C   0  0  0  0  0  0  0  0  0  0  0  0
  143.4040    7.4510  237.5450 C   0  0  0  0  0  0  0  0  0  0  0  0
  144.2130    8.6530  238.0170 C   0  0  0  0  0  0  0  0  0  0  0  0
  145.5110    8.5310  237.3230 N   0  0  0  0  0  0  0  0  0  0  0  0
  146.2120    9.8170  237.1650 C   0  0  0  0  0  0  0  0  0  0  0  0
  147.3980    9.9080  236.2170 C   0  0  0  0  0  0  0  0  0  0  0  0
  148.3410    8.7410  236.3720 C   0  0  0  0  0  0  0  0  0  0  0  0
  149.6080    9.0110  236.8810 C   0  0  0  0  0  0  0  0  0  0  0  0
  150.4430    7.9560  237.1820 C   0  0  0  0  0  0  0  0  0  0  0  0
  151.7150    8.0000  237.6940 O   0  0  0  0  0  0  0  0  0  0  0  0
  152.1240    6.6410  237.8350 C   0  0  0  0  0  0  0  0  0  0  0  0
  151.0420    5.8070  237.4160 O   0  0  0  0  0  0  0  0  0  0  0  0
  150.0580    6.6610  236.9730 C   0  0  0  0  0  0  0  0  0  0  0  0
  148.8520    6.3490  236.4130 C   0  0  0  0  0  0  0  0  0  0  0  0
  147.9590    7.4010  236.1230 C   0  0  0  0  0  0  0  0  0  0  0  0
  146.5940    7.0050  235.5510 C   0  0  2  0  0  0  0  0  0  0  0  0
  146.4150    7.2510  234.0480 C   0  0  2  0  0  0  0  0  0  0  0  0
  147.4950    8.0140  233.5050 O   0  0  0  0  0  0  0  0  0  0  0  0
  148.0270    7.5310  232.3790 C   0  0  0  0  0  0  0  0  0  0  0  0
  147.5350    6.6370  231.7540 O   0  0  0  0  0  0  0  0  0  0  0  0
  149.2960    8.2790  231.9730 C   0  0  1  0  0  0  0  0  0  0  0  0
  150.3960    8.1370  233.0340 C   0  0  0  0  0  0  0  0  0  0  0  0
  150.8880    6.7190  233.1730 C   0  0  0  0  0  0  0  0  0  0  0  0
  150.3830    5.7510  232.6230 O   0  0  0  0  0  0  0  0  0  0  0  0
  151.9800    6.6510  233.9640 O   0  0  0  0  0  0  0  0  0  0  0  0
  152.5540    5.3450  234.2160 C   0  0  0  0  0  0  0  0  0  0  0  0
  149.7290    7.7230  230.7300 O   0  0  0  0  0  0  0  0  0  0  0  0
  148.9600    9.7450  231.7310 C   0  0  0  0  0  0  0  0  0  0  0  0
  147.7480    9.9650  230.8150 C   0  0  0  0  0  0  0  0  0  0  0  0
  147.4560   11.4330  230.5470 C   0  0  0  0  0  0  0  0  0  0  0  0
  147.0270   11.5350  229.0990 C   0  0  0  0  0  0  0  0  0  0  0  0
  146.1160   10.3930  228.7030 C   0  0  0  0  0  0  0  0  0  0  0  0
  148.2240   11.6210  228.1510 C   0  0  0  0  0  0  0  0  0  0  0  0
  146.2420   12.7290  228.9880 O   0  0  0  0  0  0  0  0  0  0  0  0
  143.5752    9.8611  233.8488 H   0  0  0  0  0  0  0  0  0  0  0  0
  144.0848   10.6007  232.2932 H   0  0  0  0  0  0  0  0  0  0  0  0
  143.0674    9.1203  232.2932 H   0  0  0  0  0  0  0  0  0  0  0  0
  143.7073    8.9288  235.2697 H   0  0  0  0  0  0  0  0  0  0  0  0
  143.9045    5.9259  236.1226 H   0  0  0  0  0  0  0  0  0  0  0  0
  144.8947    5.8640  237.5518 H   0  0  0  0  0  0  0  0  0  0  0  0
  142.6215    7.7648  236.8384 H   0  0  0  0  0  0  0  0  0  0  0  0
  142.8922    6.9447  238.3767 H   0  0  0  0  0  0  0  0  0  0  0  0
  143.7113    9.5913  237.7381 H   0  0  0  0  0  0  0  0  0  0  0  0
  144.3275    8.6725  239.1108 H   0  0  0  0  0  0  0  0  0  0  0  0
  145.4669   10.5478  236.8175 H   0  0  0  0  0  0  0  0  0  0  0  0
  146.6566    9.9941  238.1554 H   0  0  0  0  0  0  0  0  0  0  0  0
  147.0243    9.9267  235.1826 H   0  0  0  0  0  0  0  0  0  0  0  0
  147.9538   10.8261  236.4580 H   0  0  0  0  0  0  0  0  0  0  0  0
  149.9375   10.0483  237.0404 H   0  0  0  0  0  0  0  0  0  0  0  0
  153.0069    6.4501  237.2072 H   0  0  0  0  0  0  0  0  0  0  0  0
  152.3864    6.4282  238.8818 H   0  0  0  0  0  0  0  0  0  0  0  0
  148.5844    5.3048  236.1940 H   0  0  0  0  0  0  0  0  0  0  0  0
  146.6541    5.9323  235.7870 H   0  0  0  0  0  0  0  0  0  0  0  0
  146.3157    6.2906  233.5210 H   0  0  0  0  0  0  0  0  0  0  0  0
  151.2439    8.7778  232.7503 H   0  0  0  0  0  0  0  0  0  0  0  0
  149.9665    8.4368  234.0013 H   0  0  0  0  0  0  0  0  0  0  0  0
  152.6267    5.1796  235.3011 H   0  0  0  0  0  0  0  0  0  0  0  0
  151.9133    4.5705  233.7691 H   0  0  0  0  0  0  0  0  0  0  0  0
  153.5578    5.2932  233.7691 H   0  0  0  0  0  0  0  0  0  0  0  0
  150.3279    6.9540  230.9033 H   0  0  0  0  0  0  0  0  0  0  0  0
  148.7495   10.2165  232.7023 H   0  0  0  0  0  0  0  0  0  0  0  0
  149.8279   10.1906  231.2229 H   0  0  0  0  0  0  0  0  0  0  0  0
  147.9415    9.4663  229.8538 H   0  0  0  0  0  0  0  0  0  0  0  0
  146.8703    9.5466  231.3294 H   0  0  0  0  0  0  0  0  0  0  0  0
  146.6496   11.7855  231.2068 H   0  0  0  0  0  0  0  0  0  0  0  0
  148.3428   12.0542  230.7412 H   0  0  0  0  0  0  0  0  0  0  0  0
  145.7261    9.9042  229.6080 H   0  0  0  0  0  0  0  0  0  0  0  0
  145.2778   10.7825  228.1066 H   0  0  0  0  0  0  0  0  0  0  0  0
  146.6820    9.6623  228.1066 H   0  0  0  0  0  0  0  0  0  0  0  0
  149.1522   11.6877  228.7375 H   0  0  0  0  0  0  0  0  0  0  0  0
  148.2547   10.7227  227.5168 H   0  0  0  0  0  0  0  0  0  0  0  0
  148.1260   12.5144  227.5168 H   0  0  0  0  0  0  0  0  0  0  0  0
  146.0215   13.0643  229.8930 H   0  0  0  0  0  0  0  0  0  0  0  0
  2  1  1  0
  3  2  1  0
  4  3  2  0
  5  4  1  6
  6  5  1  0
  7  6  1  0
  8  7  1  0
  9  8  1  0
  9  5  1  0
 10  9  1  0
 11 10  1  0
 12 11  1  0
 13 12  2  0
 14 13  1  0
 15 14  1  0
 16 15  1  0
 17 16  1  0
 18 17  1  0
 18 14  2  0
 19 18  1  0
 20 19  2  0
 20 12  1  0
 21  5  1  0
 21 20  1  0
 22  3  1  0
 22 21  1  0
 23 22  1  0
 24 23  1  0
 25 24  2  0
 26 24  1  0
 27 26  1  0
 28 27  1  0
 29 28  2  0
 30 28  1  0
 31 30  1  0
 26 32  1  6
 33 26  1  0
 34 33  1  0
 35 34  1  0
 36 35  1  0
 37 36  1  0
 38 36  1  0
 39 36  1  0
  1 40  1  0
  1 41  1  0
  1 42  1  0
  4 43  1  0
  6 44  1  0
  6 45  1  0
  7 46  1  0
  7 47  1  0
  8 48  1  0
  8 49  1  0
 10 50  1  0
 10 51  1  0
 11 52  1  0
 11 53  1  0
 13 54  1  0
 16 55  1  0
 16 56  1  0
 19 57  1  0
 21 58  1  6
 22 59  1  6
 27 60  1  0
 27 61  1  0
 31 62  1  0
 31 63  1  0
 31 64  1  0
 32 65  1  0
 33 66  1  0
 33 67  1  0
 34 68  1  0
 34 69  1  0
 35 70  1  0
 35 71  1  0
 37 72  1  0
 37 73  1  0
 37 74  1  0
 38 75  1  0
 38 76  1  0
 38 77  1  0
 39 78  1  0
M  END
$$$$
