PDB_DB00276_98
     RDKit          3D

 47 50  0  0  0  0  0  0  0  0999 V2000
   35.8080   88.9700   50.1890 C   0  0  0  0  0  0  0  0  0  0  0  0
   35.0150   90.0630   49.8820 O   0  0  0  0  0  0  0  0  0  0  0  0
   34.6390   90.3220   48.5860 C   0  0  0  0  0  0  0  0  0  0  0  0
   35.1060   89.4950   47.5800 C   0  0  0  0  0  0  0  0  0  0  0  0
   34.7670   89.7210   46.2600 C   0  0  0  0  0  0  0  0  0  0  0  0
   35.2940   88.8250   45.2720 N   0  0  0  0  0  0  0  0  0  0  0  0
   34.3150   88.0990   44.1960 S   0  0  0  0  0  0  0  0  0  0  0  0
   35.2450   86.9580   43.2190 C   0  0  0  0  0  0  0  0  0  0  0  0
   33.6490   89.0920   43.3790 O   0  0  0  0  0  0  0  0  0  0  0  0
   33.2120   87.4060   44.8340 O   0  0  0  0  0  0  0  0  0  0  0  0
   33.9350   90.7900   45.9340 C   0  0  0  0  0  0  0  0  0  0  0  0
   33.4670   91.6280   46.9380 C   0  0  0  0  0  0  0  0  0  0  0  0
   33.8110   91.3990   48.2720 C   0  0  0  0  0  0  0  0  0  0  0  0
   33.3280   92.2330   49.3420 N   0  0  0  0  0  0  0  0  0  0  0  0
   32.1420   93.0630   49.3590 C   0  0  0  0  0  0  0  0  0  0  0  0
   32.2240   94.4030   49.8940 C   0  0  0  0  0  0  0  0  0  0  0  0
   33.4380   94.9290   50.3940 C   0  0  0  0  0  0  0  0  0  0  0  0
   33.4910   96.2120   50.9100 C   0  0  0  0  0  0  0  0  0  0  0  0
   32.3430   97.0020   50.9410 C   0  0  0  0  0  0  0  0  0  0  0  0
   31.1410   96.5000   50.4590 C   0  0  0  0  0  0  0  0  0  0  0  0
   31.1000   95.1810   49.9320 C   0  0  0  0  0  0  0  0  0  0  0  0
   29.8890   94.7170   49.4690 N   0  0  0  0  0  0  0  0  0  0  0  0
   29.7910   93.4340   48.9570 C   0  0  0  0  0  0  0  0  0  0  0  0
   28.5140   93.0220   48.4970 C   0  0  0  0  0  0  0  0  0  0  0  0
   28.3570   91.7410   47.9740 C   0  0  0  0  0  0  0  0  0  0  0  0
   29.4480   90.8680   47.9120 C   0  0  0  0  0  0  0  0  0  0  0  0
   30.6960   91.2790   48.3640 C   0  0  0  0  0  0  0  0  0  0  0  0
   30.8720   92.5820   48.8950 C   0  0  0  0  0  0  0  0  0  0  0  0
   35.8829   88.8667   51.2816 H   0  0  0  0  0  0  0  0  0  0  0  0
   35.3585   88.0601   49.7646 H   0  0  0  0  0  0  0  0  0  0  0  0
   36.8124   89.1150   49.7646 H   0  0  0  0  0  0  0  0  0  0  0  0
   35.7565   88.6454   47.8349 H   0  0  0  0  0  0  0  0  0  0  0  0
   36.3066   88.6389   45.2437 H   0  0  0  0  0  0  0  0  0  0  0  0
   35.8004   86.2766   43.8803 H   0  0  0  0  0  0  0  0  0  0  0  0
   34.5607   86.3760   42.5842 H   0  0  0  0  0  0  0  0  0  0  0  0
   35.9530   87.5109   42.5842 H   0  0  0  0  0  0  0  0  0  0  0  0
   33.6502   90.9694   44.8868 H   0  0  0  0  0  0  0  0  0  0  0  0
   32.8199   92.4793   46.6802 H   0  0  0  0  0  0  0  0  0  0  0  0
   33.8963   92.2398   50.2010 H   0  0  0  0  0  0  0  0  0  0  0  0
   34.3487   94.3124   50.3725 H   0  0  0  0  0  0  0  0  0  0  0  0
   34.4412   96.6092   51.2965 H   0  0  0  0  0  0  0  0  0  0  0  0
   32.3890   98.0232   51.3473 H   0  0  0  0  0  0  0  0  0  0  0  0
   30.2306   97.1168   50.4849 H   0  0  0  0  0  0  0  0  0  0  0  0
   27.6559   93.7079   48.5529 H   0  0  0  0  0  0  0  0  0  0  0  0
   27.3721   91.4147   47.6086 H   0  0  0  0  0  0  0  0  0  0  0  0
   29.3179   89.8545   47.5048 H   0  0  0  0  0  0  0  0  0  0  0  0
   31.5518   90.5901   48.3096 H   0  0  0  0  0  0  0  0  0  0  0  0
  1  2  1  0
  2  3  1  0
  3  4  2  0
  4  5  1  0
  5  6  1  0
  6  7  1  0
  7  8  1  0
  7  9  2  0
  7 10  2  0
  5 11  2  0
 11 12  1  0
  3 13  1  0
 12 13  2  0
 13 14  1  0
 14 15  1  0
 15 16  1  0
 16 17  2  0
 17 18  1  0
 18 19  2  0
 19 20  1  0
 16 21  1  0
 20 21  2  0
 21 22  1  0
 22 23  2  0
 23 24  1  0
 24 25  2  0
 25 26  1  0
 26 27  2  0
 15 28  2  0
 23 28  1  0
 27 28  1  0
  1 29  1  0
  1 30  1  0
  1 31  1  0
  4 32  1  0
  6 33  1  0
  8 34  1  0
  8 35  1  0
  8 36  1  0
 11 37  1  0
 12 38  1  0
 14 39  1  0
 17 40  1  0
 18 41  1  0
 19 42  1  0
 20 43  1  0
 24 44  1  0
 25 45  1  0
 26 46  1  0
 27 47  1  0
M  END
$$$$
