PDB_DB00480_99
     RDKit          3D

 32 34  0  0  0  0  0  0  0  0999 V2000
   45.5970  130.7150   14.8730 C   0  0  1  0  0  0  0  0  0  0  0  0
   46.7920  131.6060   14.4490 C   0  0  0  0  0  0  0  0  0  0  0  0
   47.6160  131.0550   13.2540 C   0  0  0  0  0  0  0  0  0  0  0  0
   47.9160  129.5950   13.4790 C   0  0  0  0  0  0  0  0  0  0  0  0
   47.1250  128.8310   14.2580 N   0  0  0  0  0  0  0  0  0  0  0  0
   46.0000  129.2410   14.9150 C   0  0  0  0  0  0  0  0  0  0  0  0
   43.4470  131.7620   17.7720 C   0  0  0  0  0  0  0  0  0  0  0  0
   44.6030  131.3550   18.4590 C   0  0  0  0  0  0  0  0  0  0  0  0
   45.7040  130.8850   17.4960 C   0  0  0  0  0  0  0  0  0  0  0  0
   45.0630  131.1160   16.1850 N   0  0  0  0  0  0  0  0  0  0  0  0
   43.7710  131.5580   16.3270 C   0  0  0  0  0  0  0  0  0  0  0  0
   42.3290  132.3230   19.8440 C   0  0  0  0  0  0  0  0  0  0  0  0
   43.5080  131.9430   20.5490 C   0  0  0  0  0  0  0  0  0  0  0  0
   44.6440  131.4370   19.8590 C   0  0  0  0  0  0  0  0  0  0  0  0
   42.2730  132.2010   18.4290 C   0  0  0  0  0  0  0  0  0  0  0  0
   42.9540  131.8050   15.4640 O   0  0  0  0  0  0  0  0  0  0  0  0
   45.7800  131.0720   20.4860 N   0  0  0  0  0  0  0  0  0  0  0  0
   45.2850  128.4330   15.5130 O   0  0  0  0  0  0  0  0  0  0  0  0
   48.8670  129.1020   12.9160 O   0  0  0  0  0  0  0  0  0  0  0  0
   44.8096  130.8520   14.1172 H   0  0  0  0  0  0  0  0  0  0  0  0
   46.4003  132.5950   14.1689 H   0  0  0  0  0  0  0  0  0  0  0  0
   47.4759  131.6412   15.3098 H   0  0  0  0  0  0  0  0  0  0  0  0
   47.0376  131.1713   12.3256 H   0  0  0  0  0  0  0  0  0  0  0  0
   48.5598  131.6140   13.1715 H   0  0  0  0  0  0  0  0  0  0  0  0
   47.3947  127.8431   14.3685 H   0  0  0  0  0  0  0  0  0  0  0  0
   46.6192  131.4850   17.6076 H   0  0  0  0  0  0  0  0  0  0  0  0
   46.0318  129.8478   17.6597 H   0  0  0  0  0  0  0  0  0  0  0  0
   41.4606  132.7115   20.3962 H   0  0  0  0  0  0  0  0  0  0  0  0
   43.5398  132.0427   21.6440 H   0  0  0  0  0  0  0  0  0  0  0  0
   41.3565  132.4377   17.8687 H   0  0  0  0  0  0  0  0  0  0  0  0
   45.8401  131.1214   21.5131 H   0  0  0  0  0  0  0  0  0  0  0  0
   46.5880  130.7437   19.9381 H   0  0  0  0  0  0  0  0  0  0  0  0
  1  2  1  0
  2  3  1  0
  3  4  1  0
  4  5  1  0
  1  6  1  0
  5  6  1  0
  7  8  2  0
  8  9  1  0
  1 10  1  0
  9 10  1  0
  7 11  1  0
 10 11  1  0
 12 13  1  0
  8 14  1  0
 13 14  2  0
  7 15  1  0
 12 15  2  0
 11 16  2  0
 14 17  1  0
  6 18  2  0
  4 19  2  0
  1 20  1  6
  2 21  1  0
  2 22  1  0
  3 23  1  0
  3 24  1  0
  5 25  1  0
  9 26  1  0
  9 27  1  0
 12 28  1  0
 13 29  1  0
 15 30  1  0
 17 31  1  0
 17 32  1  0
M  END
$$$$
