PDB_DB04839_99
     RDKit          3D

 68 72  0  0  0  0  0  0  0  0999 V2000
   25.3710    5.4860    4.3600 C   0  0  0  0  0  0  0  0  0  0  0  0
   27.7990    0.4200    3.9100 C   0  0  1  0  0  0  0  0  0  0  0  0
   26.0230    4.2600    4.4340 C   0  0  2  0  0  0  0  0  0  0  0  0
   25.2610    3.1080    4.6110 C   0  0  0  0  0  0  0  0  0  0  0  0
   29.5410    2.7440    3.9590 C   0  0  0  0  0  0  0  0  0  0  0  0
   25.8560    1.8540    4.7240 C   0  0  0  0  0  0  0  0  0  0  0  0
   27.3760    1.6800    4.6680 C   0  0  2  0  0  0  0  0  0  0  0  0
   28.0150    2.8790    3.9640 C   0  0  1  0  0  0  0  0  0  0  0  0
   27.5410    4.1740    4.6230 C   0  0  2  0  0  0  0  0  0  0  0  0
   29.9710    1.4620    3.2380 C   0  0  0  0  0  0  0  0  0  0  0  0
   29.3160    0.2570    3.9150 C   0  0  1  0  0  0  0  0  0  0  0  0
   26.0480    6.6800    4.1380 C   0  0  0  0  0  0  0  0  0  0  0  0
   27.7830    4.1280    6.1340 C   0  0  0  0  0  0  0  0  0  0  0  0
   28.3140    5.3730    4.0650 C   0  0  1  0  0  0  0  0  0  0  0  0
   27.9610    5.8950    2.6730 C   0  0  0  0  0  0  0  0  0  0  0  0
   27.5610    6.6960    3.9160 C   0  0  1  0  0  0  0  0  0  0  0  0
   25.4290    7.7430    4.1380 O   0  0  0  0  0  0  0  0  0  0  0  0
   23.5410    3.2460    4.7440 Cl  0  0  0  0  0  0  0  0  0  0  0  0
   29.8460    0.1050    5.3430 C   0  0  0  0  0  0  0  0  0  0  0  0
   27.3500   -0.9240    4.4870 C   0  0  0  0  0  0  0  0  0  0  0  0
   28.3530   -1.9110    3.8730 C   0  0  0  0  0  0  0  0  0  0  0  0
   29.3940   -1.0580    3.1380 C   0  0  2  0  0  0  0  0  0  0  0  0
   30.7950   -1.6720    3.1960 C   0  0  0  0  0  0  0  0  0  0  0  0
   31.1210   -2.7110    4.2700 C   0  0  0  0  0  0  0  0  0  0  0  0
   31.6470   -1.3520    2.3680 O   0  0  0  0  0  0  0  0  0  0  0  0
   28.9720   -0.8100    1.7920 O   0  0  0  0  0  0  0  0  0  0  0  0
   29.0160   -1.9120    0.9930 C   0  0  0  0  0  0  0  0  0  0  0  0
   28.6380   -1.7700   -0.4820 C   0  0  0  0  0  0  0  0  0  0  0  0
   29.3700   -3.0040    1.4370 O   0  0  0  0  0  0  0  0  0  0  0  0
   24.6388    5.3938    3.5443 H   0  0  0  0  0  0  0  0  0  0  0  0
   25.0174    5.6161    5.3935 H   0  0  0  0  0  0  0  0  0  0  0  0
   27.3259    0.6004    2.9335 H   0  0  0  0  0  0  0  0  0  0  0  0
   26.1630    4.2697    3.3430 H   0  0  0  0  0  0  0  0  0  0  0  0
   25.2000    2.9807    3.5201 H   0  0  0  0  0  0  0  0  0  0  0  0
   29.9782    3.6118    3.4434 H   0  0  0  0  0  0  0  0  0  0  0  0
   29.8946    2.6991    4.9996 H   0  0  0  0  0  0  0  0  0  0  0  0
   25.5325    1.4435    5.6919 H   0  0  0  0  0  0  0  0  0  0  0  0
   25.5274    1.3533    3.8013 H   0  0  0  0  0  0  0  0  0  0  0  0
   27.7152    1.5963    5.7111 H   0  0  0  0  0  0  0  0  0  0  0  0
   27.6969    2.9079    2.9114 H   0  0  0  0  0  0  0  0  0  0  0  0
   29.6549    1.5088    2.1854 H   0  0  0  0  0  0  0  0  0  0  0  0
   31.0654    1.3617    3.2861 H   0  0  0  0  0  0  0  0  0  0  0  0
   26.2057    6.7919    5.2209 H   0  0  0  0  0  0  0  0  0  0  0  0
   26.8354    4.3081    6.6628 H   0  0  0  0  0  0  0  0  0  0  0  0
   28.1760    3.1391    6.4125 H   0  0  0  0  0  0  0  0  0  0  0  0
   28.5115    4.9038    6.4125 H   0  0  0  0  0  0  0  0  0  0  0  0
   29.2456    5.0514    4.5537 H   0  0  0  0  0  0  0  0  0  0  0  0
   28.7537    6.2697    2.0087 H   0  0  0  0  0  0  0  0  0  0  0  0
   27.4240    5.4891    1.8031 H   0  0  0  0  0  0  0  0  0  0  0  0
   27.7309    7.7027    4.3255 H   0  0  0  0  0  0  0  0  0  0  0  0
   25.2629    8.0282    5.0714 H   0  0  0  0  0  0  0  0  0  0  0  0
   29.0430    0.3353    6.0586 H   0  0  0  0  0  0  0  0  0  0  0  0
   30.1903   -0.9281    5.4983 H   0  0  0  0  0  0  0  0  0  0  0  0
   30.6855    0.7986    5.4983 H   0  0  0  0  0  0  0  0  0  0  0  0
   27.4149   -0.9251    5.5851 H   0  0  0  0  0  0  0  0  0  0  0  0
   26.3025   -1.1683    4.2566 H   0  0  0  0  0  0  0  0  0  0  0  0
   28.8355   -2.5056    4.6627 H   0  0  0  0  0  0  0  0  0  0  0  0
   27.8563   -2.6156    3.1898 H   0  0  0  0  0  0  0  0  0  0  0  0
   31.1188   -0.8690    3.8745 H   0  0  0  0  0  0  0  0  0  0  0  0
   30.9811   -2.2652    5.2659 H   0  0  0  0  0  0  0  0  0  0  0  0
   30.4512   -3.5764    4.1583 H   0  0  0  0  0  0  0  0  0  0  0  0
   32.1651   -3.0386    4.1583 H   0  0  0  0  0  0  0  0  0  0  0  0
   32.4635   -1.0453    2.8363 H   0  0  0  0  0  0  0  0  0  0  0  0
   27.9673   -2.1333    1.2405 H   0  0  0  0  0  0  0  0  0  0  0  0
   27.6110   -1.3842   -0.5618 H   0  0  0  0  0  0  0  0  0  0  0  0
   29.3314   -1.0711   -0.9726 H   0  0  0  0  0  0  0  0  0  0  0  0
   28.6997   -2.7526   -0.9726 H   0  0  0  0  0  0  0  0  0  0  0  0
   29.3611   -2.9765    2.4266 H   0  0  0  0  0  0  0  0  0  0  0  0
  1  3  1  0
  3  4  1  0
  4  6  1  0
  2  7  1  0
  6  7  1  0
  5  8  1  0
  7  8  1  0
  3  9  1  0
  8  9  1  0
  5 10  1  0
  2 11  1  0
 10 11  1  0
  1 12  1  0
  9 13  1  1
  9 14  1  0
 14 15  1  0
 12 16  1  0
 14 16  1  0
 15 16  1  0
 12 17  1  0
  4 18  1  0
 11 19  1  1
  2 20  1  0
 20 21  1  0
 11 22  1  0
 21 22  1  0
 22 23  1  0
 23 24  1  0
 23 25  1  0
 22 26  1  6
 26 27  1  0
 27 28  1  0
 27 29  1  0
  1 30  1  0
  1 31  1  0
  2 32  1  6
  3 33  1  6
  4 34  1  0
  5 35  1  0
  5 36  1  0
  6 37  1  0
  6 38  1  0
  7 39  1  1
  8 40  1  6
 10 41  1  0
 10 42  1  0
 12 43  1  0
 13 44  1  0
 13 45  1  0
 13 46  1  0
 14 47  1  6
 15 48  1  0
 15 49  1  0
 16 50  1  6
 17 51  1  0
 19 52  1  0
 19 53  1  0
 19 54  1  0
 20 55  1  0
 20 56  1  0
 21 57  1  0
 21 58  1  0
 23 59  1  0
 24 60  1  0
 24 61  1  0
 24 62  1  0
 25 63  1  0
 27 64  1  0
 28 65  1  0
 28 66  1  0
 28 67  1  0
 29 68  1  0
M  END
>  <PDBID>  (1) 
2OZ7

>  <PDB ID>  (1) 
2OZ7

>  <Generic Name>  (1) 
Cyproterone acetate

>  <Brand Name>  (1) 
Alti-cpa#Androcur#Androcur Depot#ClÃ©o -35#Cyestra-35#Cyproterone#Diane-35#Med-cyproterone#Mylan-cyproterone#Novo-cyproterone#Novo-cyproterone/ethinyl Estradiol#Ran-cyproterone/ethinyl Estradiol#Riva-cyproterone#Riva-cyproterone 50 mg#Cyprostat

>  <DrugBank ID>  (1) 
DB04839

>  <ATC Codes>  (1) 
G03HB01#G03HA01

>  <Ligand ID>  (1) 
CA4

>  <Target Name>  (1) 
Androgen receptor

>  <UniProt ID>  (1) 
P10275

>  <PDB ID.1>  (1) 
2OZ7

>  <Seq. Identity>  (1) 
100%

$$$$
