PDB_DB00563_99
     RDKit          3D

 55 57  0  0  0  0  0  0  0  0999 V2000
   28.7630   12.9690   -4.2600 N   0  0  0  0  0  0  0  0  0  0  0  0
   27.4470   12.7490   -4.4770 C   0  0  0  0  0  0  0  0  0  0  0  0
   27.0080   12.5890   -5.6950 N   0  0  0  0  0  0  0  0  0  0  0  0
   26.5500   12.6420   -3.5030 N   0  0  0  0  0  0  0  0  0  0  0  0
   26.9350   12.7650   -2.2560 C   0  0  0  0  0  0  0  0  0  0  0  0
   25.9920   12.6900   -1.3830 N   0  0  0  0  0  0  0  0  0  0  0  0
   28.3250   13.0470   -1.9270 C   0  0  0  0  0  0  0  0  0  0  0  0
   28.7520   13.2140   -0.6730 N   0  0  0  0  0  0  0  0  0  0  0  0
   30.0250   13.4360   -0.4740 C   0  0  0  0  0  0  0  0  0  0  0  0
   30.9330   13.5080   -1.5180 C   0  0  0  0  0  0  0  0  0  0  0  0
   30.5500   13.3390   -2.7870 N   0  0  0  0  0  0  0  0  0  0  0  0
   29.2410   13.1190   -2.9870 C   0  0  0  0  0  0  0  0  0  0  0  0
   30.4210   13.5990    0.9930 C   0  0  0  0  0  0  0  0  0  0  0  0
   31.7050   14.2510    1.1010 N   0  0  0  0  0  0  0  0  0  0  0  0
   32.7240   13.6150    1.9250 C   0  0  0  0  0  0  0  0  0  0  0  0
   32.1390   18.3040    0.0490 C   0  0  0  0  0  0  0  0  0  0  0  0
   30.9100   17.6820   -0.0120 C   0  0  0  0  0  0  0  0  0  0  0  0
   30.7670   16.3730    0.3060 C   0  0  0  0  0  0  0  0  0  0  0  0
   31.8420   15.5990    0.7500 C   0  0  0  0  0  0  0  0  0  0  0  0
   33.0880   16.2370    0.7950 C   0  0  0  0  0  0  0  0  0  0  0  0
   33.2360   17.5590    0.4680 C   0  0  0  0  0  0  0  0  0  0  0  0
   32.2790   19.7460   -0.3000 C   0  0  0  0  0  0  0  0  0  0  0  0
   33.2540   20.2960    0.2540 O   0  0  0  0  0  0  0  0  0  0  0  0
   31.3400   20.2890   -1.0690 N   0  0  0  0  0  0  0  0  0  0  0  0
   31.2370   21.6120   -1.6760 C   0  0  2  0  0  0  0  0  0  0  0  0
   29.9170   22.3420   -1.5180 C   0  0  0  0  0  0  0  0  0  0  0  0
   30.0190   23.6170   -1.5170 O   0  0  0  0  0  0  0  0  0  0  0  0
   28.9410   21.5740   -1.4230 O   0  0  0  0  0  0  0  0  0  0  0  0
   31.6130   21.4920   -3.1550 C   0  0  0  0  0  0  0  0  0  0  0  0
   33.0050   22.0870   -3.1610 C   0  0  0  0  0  0  0  0  0  0  0  0
   33.6830   21.6570   -4.3770 C   0  0  0  0  0  0  0  0  0  0  0  0
   34.7260   20.8850   -4.5630 O   0  0  0  0  0  0  0  0  0  0  0  0
   33.1150   22.0400   -5.5070 O   0  0  0  0  0  0  0  0  0  0  0  0
   26.0058   12.4212   -5.8633 H   0  0  0  0  0  0  0  0  0  0  0  0
   27.6636   12.6304   -6.4883 H   0  0  0  0  0  0  0  0  0  0  0  0
   26.2105   12.7768   -0.3802 H   0  0  0  0  0  0  0  0  0  0  0  0
   25.0190   12.5432   -1.6873 H   0  0  0  0  0  0  0  0  0  0  0  0
   31.9918   13.7086   -1.2975 H   0  0  0  0  0  0  0  0  0  0  0  0
   29.6620   14.2067    1.5074 H   0  0  0  0  0  0  0  0  0  0  0  0
   30.4875   12.6035    1.4562 H   0  0  0  0  0  0  0  0  0  0  0  0
   32.4828   13.7655    2.9876 H   0  0  0  0  0  0  0  0  0  0  0  0
   32.7538   12.5377    1.7048 H   0  0  0  0  0  0  0  0  0  0  0  0
   33.7049   14.0615    1.7048 H   0  0  0  0  0  0  0  0  0  0  0  0
   30.0281   18.2602   -0.3251 H   0  0  0  0  0  0  0  0  0  0  0  0
   29.7756   15.9059    0.2119 H   0  0  0  0  0  0  0  0  0  0  0  0
   33.9730   15.6601    1.1017 H   0  0  0  0  0  0  0  0  0  0  0  0
   34.2262   18.0330    0.5371 H   0  0  0  0  0  0  0  0  0  0  0  0
   30.5453   19.6660   -1.2720 H   0  0  0  0  0  0  0  0  0  0  0  0
   31.9363   22.2477   -1.1131 H   0  0  0  0  0  0  0  0  0  0  0  0
   29.2094   24.1783   -1.4190 H   0  0  0  0  0  0  0  0  0  0  0  0
   31.6232   20.4422   -3.4832 H   0  0  0  0  0  0  0  0  0  0  0  0
   30.9094   21.9894   -3.8387 H   0  0  0  0  0  0  0  0  0  0  0  0
   32.9400   23.1849   -3.1402 H   0  0  0  0  0  0  0  0  0  0  0  0
   33.5646   21.7491   -2.2763 H   0  0  0  0  0  0  0  0  0  0  0  0
   35.0492   20.7022   -5.4807 H   0  0  0  0  0  0  0  0  0  0  0  0
  1  2  2  0
  2  3  1  0
  2  4  1  0
  4  5  2  0
  5  6  1  0
  5  7  1  0
  7  8  1  0
  8  9  2  0
  9 10  1  0
 10 11  2  0
  1 12  1  0
  7 12  2  0
 11 12  1  0
  9 13  1  0
 13 14  1  0
 14 15  1  0
 16 17  2  0
 17 18  1  0
 14 19  1  0
 18 19  2  0
 19 20  1  0
 16 21  1  0
 20 21  2  0
 16 22  1  0
 22 23  2  0
 22 24  1  0
 24 25  1  0
 25 26  1  0
 26 27  1  0
 26 28  2  0
 25 29  1  0
 29 30  1  0
 30 31  1  0
 31 32  1  0
 31 33  2  0
  3 34  1  0
  3 35  1  0
  6 36  1  0
  6 37  1  0
 10 38  1  0
 13 39  1  0
 13 40  1  0
 15 41  1  0
 15 42  1  0
 15 43  1  0
 17 44  1  0
 18 45  1  0
 20 46  1  0
 21 47  1  0
 24 48  1  0
 25 49  1  1
 27 50  1  0
 29 51  1  0
 29 52  1  0
 30 53  1  0
 30 54  1  0
 32 55  1  0
M  END
>  <PDBID>  (1) 
1U72

>  <PDB ID>  (1) 
1U72

>  <Generic Name>  (1) 
Methotrexate

>  <Brand Name>  (1) 
Apo-methotrexate#Jamp-methotrexate#Methotrexate#Methotrexate Dbl Inj 10mg/ml#Methotrexate Dbl Inj 2.5mg/ml#Methotrexate Dbl Inj 25mg/ml#Methotrexate Injection BP#Methotrexate Injection USP#Methotrexate Injection, BP#Methotrexate Injection, USP#Methotrexate PF/sa Injection#Methotrexate Sod Inj 25mg/ml USP#Methotrexate Sodium#Methotrexate Sodium Inj 20mg#Methotrexate Sodium Inj 25.0mg/ml#Methotrexate Sodium Inj 25mg/ml#Methotrexate Sodium Inj 25mg/ml USP#Methotrexate Sodium Injection#Methotrexate Sodium Injection USP#Methotrexate Tab 2.5mg#Methotrexate Tab 2.5mg USP#Methotrexate Tablets, USP#Methotrexate-liq Im IV Iar Int Ivr 25mg/ml#Methotrexate-pws Im IV Iar Int Ivr 20mg/vial#Metoject#Metoject Subcutaneous#Otrexup#Rasuvo#Ratio-methotrexate Sodium#Rheumatrex Dose Pack#Rheumatrex Tab 2.5mg#Rheumatrex-tab 2.5mg#Trexall#Abitrexate#Alltrex#Artrait#Atrexel#Bendatrexat#Carditrex#Dermotrex#Ebetrex#Emtexate#Ledertrexate#Maxtrex#Meisusheng#Mexate#Rheumatrex#Trexan#Zexate

>  <DrugBank ID>  (1) 
DB00563

>  <ATC Codes>  (1) 
L01BA01#L04AX03

>  <Ligand ID>  (1) 
MTX

>  <Target Name>  (1) 
Dihydrofolate reductase

>  <UniProt ID>  (1) 
P00374

>  <PDB ID.1>  (1) 
1U72

>  <Seq. Identity>  (1) 
100%

$$$$
