PDB_DB01586_99
     RDKit          3D

140146  0  0  0  0  0  0  0  0999 V2000
   -3.1600   30.1750   40.6320 C   0  0  0  0  0  0  0  0  0  0  0  0
   -2.7970   31.5840   40.0290 C   0  0  1  0  0  0  0  0  0  0  0  0
   -2.5350   30.7190   37.5720 C   0  0  0  0  0  0  0  0  0  0  0  0
   -1.6100   30.6370   36.3000 C   0  0  0  0  0  0  0  0  0  0  0  0
   -1.2770   32.0380   35.7320 C   0  0  1  0  0  0  0  0  0  0  0  0
   -0.5680   32.7880   36.9240 C   0  0  1  0  0  0  0  0  0  0  0  0
   -0.0640   34.1200   36.2650 C   0  0  0  0  0  0  0  0  0  0  0  0
    0.2850   33.6740   34.8060 C   0  0  0  0  0  0  0  0  0  0  0  0
   -0.0880   32.1380   34.7120 C   0  0  2  0  0  0  0  0  0  0  0  0
   -2.5710   32.8060   35.2220 C   0  0  0  0  0  0  0  0  0  0  0  0
   -4.1550   32.3090   39.7360 C   0  0  0  0  0  0  0  0  0  0  0  0
   -0.3770   35.0240   39.0180 O   0  0  0  0  0  0  0  0  0  0  0  0
    0.0500   29.4320   42.5460 O   0  0  0  0  0  0  0  0  0  0  0  0
   -1.9110   29.3310   41.0370 C   0  0  0  0  0  0  0  0  0  0  0  0
   -0.3500   31.6990   33.2040 C   0  0  2  0  0  0  0  0  0  0  0  0
   -0.7520   30.2700   33.0380 C   0  0  0  0  0  0  0  0  0  0  0  0
    0.9240   32.0740   32.4000 C   0  0  0  0  0  0  0  0  0  0  0  0
    0.6230   32.5380   31.0400 C   0  0  0  0  0  0  0  0  0  0  0  0
   -0.4050   33.7360   30.8770 C   0  0  0  0  0  0  0  0  0  0  0  0
   -1.1470   30.1480   42.1290 C   0  0  2  0  0  0  0  0  0  0  0  0
   -0.7250   31.5420   41.6230 C   0  0  0  0  0  0  0  0  0  0  0  0
   -0.3440   34.7500   31.6270 O   0  0  0  0  0  0  0  0  0  0  0  0
   -1.1580   33.5340   29.9560 O   0  0  0  0  0  0  0  0  0  0  0  0
   -2.0040   32.3310   41.1950 C   0  0  1  0  0  0  0  0  0  0  0  0
   -1.6100   33.7360   40.6850 C   0  0  0  0  0  0  0  0  0  0  0  0
   -0.7410   33.6570   39.4110 C   0  0  1  0  0  0  0  0  0  0  0  0
   -1.4820   32.9310   38.2360 C   0  0  2  0  0  0  0  0  0  0  0  0
   -1.8610   31.4890   38.7300 C   0  0  1  0  0  0  0  0  0  0  0  0
   -3.5270   62.5320  -24.6350 C   0  0  0  0  0  0  0  0  0  0  0  0
   -3.7070   61.0820  -24.0550 C   0  0  1  0  0  0  0  0  0  0  0  0
   -2.5350   61.6080  -21.7710 C   0  0  0  0  0  0  0  0  0  0  0  0
   -1.4120   61.1960  -20.7500 C   0  0  0  0  0  0  0  0  0  0  0  0
   -1.6220   59.7670  -20.1980 C   0  0  1  0  0  0  0  0  0  0  0  0
   -1.6190   58.8410  -21.4730 C   0  0  1  0  0  0  0  0  0  0  0  0
   -1.6430   57.3900  -20.8710 C   0  0  0  0  0  0  0  0  0  0  0  0
   -0.8070   57.5540  -19.5560 C   0  0  0  0  0  0  0  0  0  0  0  0
   -0.4050   59.0850  -19.4700 C   0  0  2  0  0  0  0  0  0  0  0  0
   -2.9720   59.6400  -19.3700 C   0  0  0  0  0  0  0  0  0  0  0  0
   -5.1410   61.0260  -23.4240 C   0  0  0  0  0  0  0  0  0  0  0  0
   -2.9360   56.8660  -23.4340 O   0  0  0  0  0  0  0  0  0  0  0  0
   -0.8570   61.8690  -27.2640 O   0  0  0  0  0  0  0  0  0  0  0  0
   -2.1640   62.7490  -25.3600 C   0  0  0  0  0  0  0  0  0  0  0  0
   -0.0810   59.5070  -17.9690 C   0  0  2  0  0  0  0  0  0  0  0  0
    0.2580   60.9460  -17.8020 C   0  0  0  0  0  0  0  0  0  0  0  0
    1.0340   58.5570  -17.4600 C   0  0  0  0  0  0  0  0  0  0  0  0
    0.8910   58.2250  -16.0390 C   0  0  0  0  0  0  0  0  0  0  0  0
   -0.4900   57.6110  -15.5680 C   0  0  0  0  0  0  0  0  0  0  0  0
   -2.1180   61.7390  -26.5490 C   0  0  2  0  0  0  0  0  0  0  0  0
   -2.2620   60.2760  -26.0780 C   0  0  0  0  0  0  0  0  0  0  0  0
   -1.0720   56.7180  -16.2530 O   0  0  0  0  0  0  0  0  0  0  0  0
   -0.8330   58.0850  -14.5130 O   0  0  0  0  0  0  0  0  0  0  0  0
   -3.6250   60.1230  -25.3270 C   0  0  1  0  0  0  0  0  0  0  0  0
   -3.8020   58.6600  -24.8420 C   0  0  0  0  0  0  0  0  0  0  0  0
   -2.7240   58.2690  -23.8080 C   0  0  1  0  0  0  0  0  0  0  0  0
   -2.7690   59.1930  -22.5320 C   0  0  2  0  0  0  0  0  0  0  0  0
   -2.5600   60.6790  -23.0100 C   0  0  1  0  0  0  0  0  0  0  0  0
   -3.7814   30.3287   41.5265 H   0  0  0  0  0  0  0  0  0  0  0  0
   -3.6894   29.6139   39.8478 H   0  0  0  0  0  0  0  0  0  0  0  0
   -3.4685   31.2332   37.2996 H   0  0  0  0  0  0  0  0  0  0  0  0
   -2.7314   29.6927   37.9157 H   0  0  0  0  0  0  0  0  0  0  0  0
   -0.6716   30.1336   36.5755 H   0  0  0  0  0  0  0  0  0  0  0  0
   -2.1503   30.0759   35.5234 H   0  0  0  0  0  0  0  0  0  0  0  0
    0.2749   32.2297   37.3573 H   0  0  0  0  0  0  0  0  0  0  0  0
   -0.8530   34.8865   36.2671 H   0  0  0  0  0  0  0  0  0  0  0  0
    0.7849   34.5749   36.7964 H   0  0  0  0  0  0  0  0  0  0  0  0
   -0.3025   34.2542   34.0792 H   0  0  0  0  0  0  0  0  0  0  0  0
    1.3480   33.8428   34.5789 H   0  0  0  0  0  0  0  0  0  0  0  0
    0.6969   31.4169   34.9840 H   0  0  0  0  0  0  0  0  0  0  0  0
   -3.1559   33.1531   36.0865 H   0  0  0  0  0  0  0  0  0  0  0  0
   -2.2681   33.6706   34.6132 H   0  0  0  0  0  0  0  0  0  0  0  0
   -3.1849   32.1259   34.6132 H   0  0  0  0  0  0  0  0  0  0  0  0
   -4.6438   32.5700   40.6862 H   0  0  0  0  0  0  0  0  0  0  0  0
   -3.9642   33.2253   39.1580 H   0  0  0  0  0  0  0  0  0  0  0  0
   -4.8102   31.6407   39.1580 H   0  0  0  0  0  0  0  0  0  0  0  0
   -0.2309   35.5727   39.8290 H   0  0  0  0  0  0  0  0  0  0  0  0
    0.0919   29.4069   43.5348 H   0  0  0  0  0  0  0  0  0  0  0  0
   -2.2268   28.3588   41.4435 H   0  0  0  0  0  0  0  0  0  0  0  0
   -1.2668   29.1377   40.1666 H   0  0  0  0  0  0  0  0  0  0  0  0
   -1.2268   32.2371   32.8146 H   0  0  0  0  0  0  0  0  0  0  0  0
   -0.8819   29.8083   34.0279 H   0  0  0  0  0  0  0  0  0  0  0  0
   -1.6997   30.2179   32.4819 H   0  0  0  0  0  0  0  0  0  0  0  0
    0.0295   29.7315   32.4819 H   0  0  0  0  0  0  0  0  0  0  0  0
    1.4541   32.8754   32.9354 H   0  0  0  0  0  0  0  0  0  0  0  0
    1.5387   31.1661   32.3115 H   0  0  0  0  0  0  0  0  0  0  0  0
    1.5723   32.8561   30.5843 H   0  0  0  0  0  0  0  0  0  0  0  0
    0.1286   31.6815   30.5584 H   0  0  0  0  0  0  0  0  0  0  0  0
   -1.0857   33.2490   31.5908 H   0  0  0  0  0  0  0  0  0  0  0  0
   -1.8400   30.2740   42.9739 H   0  0  0  0  0  0  0  0  0  0  0  0
   -0.2069   32.0858   42.4267 H   0  0  0  0  0  0  0  0  0  0  0  0
   -0.0454   31.4379   40.7643 H   0  0  0  0  0  0  0  0  0  0  0  0
   -0.3613   34.4616   32.5739 H   0  0  0  0  0  0  0  0  0  0  0  0
   -2.0520   33.2942   30.3072 H   0  0  0  0  0  0  0  0  0  0  0  0
   -2.6528   32.4032   42.0804 H   0  0  0  0  0  0  0  0  0  0  0  0
   -2.5251   34.3026   40.4580 H   0  0  0  0  0  0  0  0  0  0  0  0
   -1.0231   34.2344   41.4706 H   0  0  0  0  0  0  0  0  0  0  0  0
    0.1590   33.0639   39.6307 H   0  0  0  0  0  0  0  0  0  0  0  0
   -2.3637   33.5299   37.9642 H   0  0  0  0  0  0  0  0  0  0  0  0
   -0.9584   30.9335   39.0245 H   0  0  0  0  0  0  0  0  0  0  0  0
   -4.3375   62.7221  -25.3539 H   0  0  0  0  0  0  0  0  0  0  0  0
   -3.5531   63.2263  -23.7822 H   0  0  0  0  0  0  0  0  0  0  0  0
   -3.5111   61.5540  -21.2666 H   0  0  0  0  0  0  0  0  0  0  0  0
   -2.3224   62.6305  -22.1165 H   0  0  0  0  0  0  0  0  0  0  0  0
   -0.4374   61.2401  -21.2582 H   0  0  0  0  0  0  0  0  0  0  0  0
   -1.4526   61.8955  -19.9020 H   0  0  0  0  0  0  0  0  0  0  0  0
   -0.7349   58.9809  -22.1124 H   0  0  0  0  0  0  0  0  0  0  0  0
   -2.6715   57.0681  -20.6506 H   0  0  0  0  0  0  0  0  0  0  0  0
   -1.2418   56.6258  -21.5530 H   0  0  0  0  0  0  0  0  0  0  0  0
   -1.4121   57.2698  -18.6824 H   0  0  0  0  0  0  0  0  0  0  0  0
    0.0830   56.9077  -19.5658 H   0  0  0  0  0  0  0  0  0  0  0  0
    0.5339   59.3899  -19.9553 H   0  0  0  0  0  0  0  0  0  0  0  0
   -2.7454   59.6613  -18.2938 H   0  0  0  0  0  0  0  0  0  0  0  0
   -3.6367   60.4796  -19.6215 H   0  0  0  0  0  0  0  0  0  0  0  0
   -3.4685   58.6912  -19.6215 H   0  0  0  0  0  0  0  0  0  0  0  0
   -5.0593   61.0292  -22.3270 H   0  0  0  0  0  0  0  0  0  0  0  0
   -5.7200   61.9022  -23.7511 H   0  0  0  0  0  0  0  0  0  0  0  0
   -5.6499   60.1073  -23.7511 H   0  0  0  0  0  0  0  0  0  0  0  0
   -2.9481   56.7857  -22.4473 H   0  0  0  0  0  0  0  0  0  0  0  0
   -0.1150   61.9455  -26.6131 H   0  0  0  0  0  0  0  0  0  0  0  0
   -2.0957   63.7803  -25.7366 H   0  0  0  0  0  0  0  0  0  0  0  0
   -1.3214   62.5862  -24.6719 H   0  0  0  0  0  0  0  0  0  0  0  0
   -0.9881   59.3977  -17.3564 H   0  0  0  0  0  0  0  0  0  0  0  0
    0.3149   61.1873  -16.7303 H   0  0  0  0  0  0  0  0  0  0  0  0
    1.2291   61.1513  -18.2761 H   0  0  0  0  0  0  0  0  0  0  0  0
   -0.5193   61.5632  -18.2761 H   0  0  0  0  0  0  0  0  0  0  0  0
    0.9964   57.6257  -18.0443 H   0  0  0  0  0  0  0  0  0  0  0  0
    1.9952   59.0772  -17.5840 H   0  0  0  0  0  0  0  0  0  0  0  0
    1.6774   57.4973  -15.7898 H   0  0  0  0  0  0  0  0  0  0  0  0
    0.9614   59.1906  -15.5168 H   0  0  0  0  0  0  0  0  0  0  0  0
   -1.0275   58.3906  -16.1277 H   0  0  0  0  0  0  0  0  0  0  0  0
   -2.9667   61.9801  -27.2060 H   0  0  0  0  0  0  0  0  0  0  0  0
   -2.2412   59.6033  -26.9481 H   0  0  0  0  0  0  0  0  0  0  0  0
   -1.4319   60.0155  -25.4049 H   0  0  0  0  0  0  0  0  0  0  0  0
   -1.4991   56.0627  -15.6462 H   0  0  0  0  0  0  0  0  0  0  0  0
   -0.4483   57.5534  -13.7717 H   0  0  0  0  0  0  0  0  0  0  0  0
   -4.4199   60.3976  -26.0360 H   0  0  0  0  0  0  0  0  0  0  0  0
   -4.7946   58.5549  -24.3798 H   0  0  0  0  0  0  0  0  0  0  0  0
   -3.7011   57.9947  -25.7122 H   0  0  0  0  0  0  0  0  0  0  0  0
   -1.7295   58.4021  -24.2587 H   0  0  0  0  0  0  0  0  0  0  0  0
   -3.7378   59.0413  -22.0335 H   0  0  0  0  0  0  0  0  0  0  0  0
   -1.5978   60.7858  -23.5323 H   0  0  0  0  0  0  0  0  0  0  0  0
  1  2  1  0
  3  4  1  0
  4  5  1  0
  5  6  1  0
  6  7  1  0
  7  8  1  0
  5  9  1  0
  8  9  1  0
  5 10  1  6
  2 11  1  6
  1 14  1  0
  9 15  1  0
 15 16  1  0
 15 17  1  0
 17 18  1  0
 18 19  1  0
 13 20  1  0
 14 20  1  0
 20 21  1  0
 19 22  1  0
 19 23  1  0
  2 24  1  0
 21 24  1  0
 24 25  1  0
 12 26  1  0
 25 26  1  0
  6 27  1  0
 26 27  1  0
  2 28  1  0
  3 28  1  0
 27 28  1  0
 29 30  1  0
 31 32  1  0
 32 33  1  0
 33 34  1  0
 34 35  1  0
 35 36  1  0
 33 37  1  0
 36 37  1  0
 33 38  1  1
 30 39  1  1
 29 42  1  0
 37 43  1  0
 43 44  1  0
 43 45  1  0
 45 46  1  0
 46 47  1  0
 41 48  1  0
 42 48  1  0
 48 49  1  0
 47 50  1  0
 47 51  1  0
 30 52  1  0
 49 52  1  0
 52 53  1  0
 40 54  1  0
 53 54  1  0
 34 55  1  0
 54 55  1  0
 30 56  1  0
 31 56  1  0
 55 56  1  0
  1 57  1  0
  1 58  1  0
  3 59  1  0
  3 60  1  0
  4 61  1  0
  4 62  1  0
  6 63  1  1
  7 64  1  0
  7 65  1  0
  8 66  1  0
  8 67  1  0
  9 68  1  1
 10 69  1  0
 10 70  1  0
 10 71  1  0
 11 72  1  0
 11 73  1  0
 11 74  1  0
 12 75  1  0
 13 76  1  0
 14 77  1  0
 14 78  1  0
 15 79  1  6
 16 80  1  0
 16 81  1  0
 16 82  1  0
 17 83  1  0
 17 84  1  0
 18 85  1  0
 18 86  1  0
 19 87  1  0
 20 88  1  1
 21 89  1  0
 21 90  1  0
 22 91  1  0
 23 92  1  0
 24 93  1  1
 25 94  1  0
 25 95  1  0
 26 96  1  1
 27 97  1  6
 28 98  1  1
 29 99  1  0
 29100  1  0
 31101  1  0
 31102  1  0
 32103  1  0
 32104  1  0
 34105  1  6
 35106  1  0
 35107  1  0
 36108  1  0
 36109  1  0
 37110  1  6
 38111  1  0
 38112  1  0
 38113  1  0
 39114  1  0
 39115  1  0
 39116  1  0
 40117  1  0
 41118  1  0
 42119  1  0
 42120  1  0
 43121  1  1
 44122  1  0
 44123  1  0
 44124  1  0
 45125  1  0
 45126  1  0
 46127  1  0
 46128  1  0
 47129  1  0
 48130  1  6
 49131  1  0
 49132  1  0
 50133  1  0
 51134  1  0
 52135  1  6
 53136  1  0
 53137  1  0
 54138  1  6
 55139  1  1
 56140  1  6
M  END
>  <PDBID>  (1) 
1IHI

>  <PDB ID>  (1) 
1IHI

>  <Generic Name>  (1) 
Ursodeoxycholic acid

>  <Brand Name>  (1) 
Actigall#Dom-ursodiol C#Mint-ursodiol#Novo-ursodiol#PHL-ursodiol C#PMS-ursodiol#PMS-ursodiol C#Pendo-ursodiol C#Urso#Urso 250#Urso DS#Urso Forte#Ursodiol#Ursodiol Tablets USP#Ursodiol Tablets, 250 mg#Ursodiol Tablets, 500 mg#Ursofalk#Cholit-ursan#Delursan#Destolit#Deursil#Litursol#Solutrat#Ursacol#Ursochol#Ursolvan

>  <DrugBank ID>  (1) 
DB01586

>  <ATC Codes>  (1) 
A05AA02

>  <Ligand ID>  (1) 
IU5,JN3

>  <Target Name>  (1) 
Aldo-keto reductase family 1 member C2

>  <UniProt ID>  (1) 
P52895

>  <PDB ID.1>  (1) 
1IHI

>  <Seq. Identity>  (1) 
100%

$$$$
