PDB_DB00147_98
     RDKit          3D

 21 21  0  0  0  0  0  0  0  0999 V2000
   11.8660   27.6840   29.8590 O   0  0  0  0  0  0  0  0  0  0  0  0
   13.1180   27.9420   29.2590 C   0  0  0  0  0  0  0  0  0  0  0  0
   14.2310   28.0450   30.2820 C   0  0  0  0  0  0  0  0  0  0  0  0
   15.4440   27.3410   30.0130 C   0  0  0  0  0  0  0  0  0  0  0  0
   16.5090   27.4080   30.9430 N   0  0  0  0  0  0  0  0  0  0  0  0
   16.3990   28.1670   32.1490 C   0  0  0  0  0  0  0  0  0  0  0  0
   15.1970   28.8880   32.4460 C   0  0  0  0  0  0  0  0  0  0  0  0
   14.0850   28.8430   31.5160 C   0  0  0  0  0  0  0  0  0  0  0  0
   12.7620   29.6150   31.7980 C   0  0  0  0  0  0  0  0  0  0  0  0
   12.6260   30.2980   32.8280 O   0  0  0  0  0  0  0  0  0  0  0  0
   15.1220   29.6130   33.6130 O   0  0  0  0  0  0  0  0  0  0  0  0
   17.5790   28.2030   33.1170 C   0  0  0  0  0  0  0  0  0  0  0  0
   11.9618   27.7038   30.8442 H   0  0  0  0  0  0  0  0  0  0  0  0
   13.3521   27.1242   28.5615 H   0  0  0  0  0  0  0  0  0  0  0  0
   13.0497   28.9068   28.7351 H   0  0  0  0  0  0  0  0  0  0  0  0
   15.5499   26.7514   29.0904 H   0  0  0  0  0  0  0  0  0  0  0  0
   11.9353   29.5551   31.0748 H   0  0  0  0  0  0  0  0  0  0  0  0
   14.2977   30.1160   33.8311 H   0  0  0  0  0  0  0  0  0  0  0  0
   17.2051   28.1916   34.1515 H   0  0  0  0  0  0  0  0  0  0  0  0
   18.2184   27.3239   32.9485 H   0  0  0  0  0  0  0  0  0  0  0  0
   18.1637   29.1194   32.9485 H   0  0  0  0  0  0  0  0  0  0  0  0
  1  2  1  0
  2  3  1  0
  3  4  2  0
  4  5  1  0
  5  6  2  0
  6  7  1  0
  3  8  1  0
  7  8  2  0
  8  9  1  0
  9 10  2  0
  7 11  1  0
  6 12  1  0
  1 13  1  0
  2 14  1  0
  2 15  1  0
  4 16  1  0
  9 17  1  0
 11 18  1  0
 12 19  1  0
 12 20  1  0
 12 21  1  0
M  END
$$$$
