PDB_DB12332_99
     RDKit          3D

116122  0  0  0  0  0  0  0  0999 V2000
   95.4790    4.1170  121.6780 O   0  0  0  0  0  0  0  0  0  0  0  0
   94.7560    3.1770  121.3800 C   0  0  1  0  0  0  0  0  0  0  0  0
   94.6580    2.2470  122.3540 N   0  0  0  0  0  0  0  0  0  0  0  0
   93.9270    0.9850  122.3580 C   0  0  0  0  0  0  0  0  0  0  0  0
   92.4660    1.1460  122.0520 C   0  0  0  0  0  0  0  0  0  0  0  0
   92.2760    1.5440  120.7570 C   0  0  0  0  0  0  0  0  0  0  0  0
   92.9510    2.3970  119.9890 C   0  0  0  0  0  0  0  0  0  0  0  0
   94.0300    3.1260  120.2170 C   0  0  0  0  0  0  0  0  0  0  0  0
   94.4940    3.9270  119.1920 C   0  0  0  0  0  0  0  0  0  0  0  0
   93.8570    3.9680  117.9940 C   0  0  0  0  0  0  0  0  0  0  0  0
   94.2420    4.5680  117.2310 F   0  0  0  0  0  0  0  0  0  0  0  0
   92.7520    3.1930  117.8170 C   0  0  0  0  0  0  0  0  0  0  0  0
   92.3390    2.4380  118.8110 C   0  0  0  0  0  0  0  0  0  0  0  0
   91.3050    1.6350  118.8480 N   0  0  0  0  0  0  0  0  0  0  0  0
   91.2700    1.0770  120.0320 C   0  0  1  0  0  0  0  0  0  0  0  0
   90.2660    0.2470  120.3190 C   0  0  1  0  0  0  0  0  0  0  0  0
   89.9130   -0.1980  121.5830 C   0  0  0  0  0  0  0  0  0  0  0  0
   88.8000   -1.0240  121.7350 C   0  0  0  0  0  0  0  0  0  0  0  0
   89.4590   -0.1010  119.2500 C   0  0  0  0  0  0  0  0  0  0  0  0
   88.3600   -0.9170  119.4010 C   0  0  0  0  0  0  0  0  0  0  0  0
   88.0210   -1.3820  120.6450 C   0  0  0  0  0  0  0  0  0  0  0  0
   86.9010   -2.1970  120.7230 C   0  0  0  0  0  0  0  0  0  0  0  0
   86.6790   -2.7820  122.0380 N   0  0  0  0  0  0  0  0  0  0  0  0
   85.4720   -3.5970  121.9610 C   0  0  0  0  0  0  0  0  0  0  0  0
   53.0580    1.3200  122.4740 O   0  0  0  0  0  0  0  0  0  0  0  0
   53.8410    2.1710  122.0730 C   0  0  1  0  0  0  0  0  0  0  0  0
   53.9760    3.2180  122.9240 N   0  0  0  0  0  0  0  0  0  0  0  0
   54.7400    4.4430  122.7770 C   0  0  0  0  0  0  0  0  0  0  0  0
   56.1860    4.2160  122.4760 C   0  0  0  0  0  0  0  0  0  0  0  0
   56.3700    3.6310  121.2610 C   0  0  0  0  0  0  0  0  0  0  0  0
   55.6880    2.6940  120.6190 C   0  0  0  0  0  0  0  0  0  0  0  0
   54.5880    2.0360  120.9260 C   0  0  0  0  0  0  0  0  0  0  0  0
   54.1220    1.1080  120.0220 C   0  0  0  0  0  0  0  0  0  0  0  0
   54.7860    0.8940  118.8650 C   0  0  0  0  0  0  0  0  0  0  0  0
   54.4390    0.2390  118.2200 F   0  0  0  0  0  0  0  0  0  0  0  0
   55.9100    1.5960  118.6010 C   0  0  0  0  0  0  0  0  0  0  0  0
   56.3210    2.4670  119.4790 C   0  0  0  0  0  0  0  0  0  0  0  0
   57.3780    3.2320  119.4140 N   0  0  0  0  0  0  0  0  0  0  0  0
   57.4010    3.9550  120.4980 C   0  0  1  0  0  0  0  0  0  0  0  0
   58.4150    4.7880  120.6800 C   0  0  1  0  0  0  0  0  0  0  0  0
   58.7090    5.4110  121.8790 C   0  0  0  0  0  0  0  0  0  0  0  0
   59.8240    6.2220  121.9840 C   0  0  0  0  0  0  0  0  0  0  0  0
   59.2650    4.9410  119.6040 C   0  0  0  0  0  0  0  0  0  0  0  0
   60.3660    5.7530  119.7080 C   0  0  0  0  0  0  0  0  0  0  0  0
   60.6490    6.3910  120.8940 C   0  0  0  0  0  0  0  0  0  0  0  0
   61.7790    7.1920  120.9350 C   0  0  0  0  0  0  0  0  0  0  0  0
   61.9620    7.9030  122.2000 N   0  0  0  0  0  0  0  0  0  0  0  0
   62.9710    8.9460  121.9920 C   0  0  0  0  0  0  0  0  0  0  0  0
   95.5354    4.1904  122.6637 H   0  0  0  0  0  0  0  0  0  0  0  0
   95.6216    2.6447  120.9589 H   0  0  0  0  0  0  0  0  0  0  0  0
   95.6331    1.9767  122.5465 H   0  0  0  0  0  0  0  0  0  0  0  0
   94.3714    0.3213  121.6017 H   0  0  0  0  0  0  0  0  0  0  0  0
   94.0040    0.5662  123.3722 H   0  0  0  0  0  0  0  0  0  0  0  0
   91.9573    0.1837  122.2106 H   0  0  0  0  0  0  0  0  0  0  0  0
   92.0516    1.9162  122.7191 H   0  0  0  0  0  0  0  0  0  0  0  0
   91.6323    2.3658  121.1040 H   0  0  0  0  0  0  0  0  0  0  0  0
   92.3179    3.2216  120.3485 H   0  0  0  0  0  0  0  0  0  0  0  0
   94.6631    2.3012  119.8580 H   0  0  0  0  0  0  0  0  0  0  0  0
   94.5004    4.9569  119.5783 H   0  0  0  0  0  0  0  0  0  0  0  0
   95.4575    3.4611  118.9380 H   0  0  0  0  0  0  0  0  0  0  0  0
   93.2453    4.8108  118.3481 H   0  0  0  0  0  0  0  0  0  0  0  0
   91.9227    3.8677  117.5581 H   0  0  0  0  0  0  0  0  0  0  0  0
   93.0561    2.4710  117.0449 H   0  0  0  0  0  0  0  0  0  0  0  0
   91.7021    3.2597  119.1705 H   0  0  0  0  0  0  0  0  0  0  0  0
   90.4400    2.1709  118.6881 H   0  0  0  0  0  0  0  0  0  0  0  0
   90.6283    1.8923  120.3973 H   0  0  0  0  0  0  0  0  0  0  0  0
   90.9438   -0.6120  120.2059 H   0  0  0  0  0  0  0  0  0  0  0  0
   90.7775   -0.7499  121.9807 H   0  0  0  0  0  0  0  0  0  0  0  0
   89.6240    0.7236  122.1095 H   0  0  0  0  0  0  0  0  0  0  0  0
   89.1650   -1.9616  122.1797 H   0  0  0  0  0  0  0  0  0  0  0  0
   88.1147   -0.3993  122.3267 H   0  0  0  0  0  0  0  0  0  0  0  0
   89.0859    0.8428  118.8258 H   0  0  0  0  0  0  0  0  0  0  0  0
   90.1318   -0.7287  118.6472 H   0  0  0  0  0  0  0  0  0  0  0  0
   87.4925   -0.3555  119.0239 H   0  0  0  0  0  0  0  0  0  0  0  0
   88.6443   -1.8298  118.8570 H   0  0  0  0  0  0  0  0  0  0  0  0
   87.3901   -0.4951  120.8046 H   0  0  0  0  0  0  0  0  0  0  0  0
   86.0181   -1.5962  120.4592 H   0  0  0  0  0  0  0  0  0  0  0  0
   87.0699   -3.0337  120.0292 H   0  0  0  0  0  0  0  0  0  0  0  0
   87.4831   -3.3695  122.3012 H   0  0  0  0  0  0  0  0  0  0  0  0
   85.1232   -3.8325  122.9773 H   0  0  0  0  0  0  0  0  0  0  0  0
   84.6886   -3.0422  121.4238 H   0  0  0  0  0  0  0  0  0  0  0  0
   85.6938   -4.5309  121.4238 H   0  0  0  0  0  0  0  0  0  0  0  0
   53.0539    1.3156  123.4640 H   0  0  0  0  0  0  0  0  0  0  0  0
   53.0156    2.6908  121.5644 H   0  0  0  0  0  0  0  0  0  0  0  0
   53.0106    3.5404  123.0821 H   0  0  0  0  0  0  0  0  0  0  0  0
   54.3020    5.0291  121.9556 H   0  0  0  0  0  0  0  0  0  0  0  0
   54.6910    4.9704  123.7411 H   0  0  0  0  0  0  0  0  0  0  0  0
   56.7067    5.1849  122.4858 H   0  0  0  0  0  0  0  0  0  0  0  0
   56.5895    3.5385  123.2429 H   0  0  0  0  0  0  0  0  0  0  0  0
   56.9946    2.8558  121.7288 H   0  0  0  0  0  0  0  0  0  0  0  0
   56.2904    1.9173  121.1127 H   0  0  0  0  0  0  0  0  0  0  0  0
   53.9850    2.8179  120.4412 H   0  0  0  0  0  0  0  0  0  0  0  0
   54.0851    0.1432  120.5491 H   0  0  0  0  0  0  0  0  0  0  0  0
   53.1678    1.5410  119.6873 H   0  0  0  0  0  0  0  0  0  0  0  0
   55.3768    0.1031  119.3503 H   0  0  0  0  0  0  0  0  0  0  0  0
   56.7224    0.8675  118.4618 H   0  0  0  0  0  0  0  0  0  0  0  0
   55.6473    2.2035  117.7224 H   0  0  0  0  0  0  0  0  0  0  0  0
   56.9242    1.6885  119.9690 H   0  0  0  0  0  0  0  0  0  0  0  0
   58.2286    2.6538  119.3580 H   0  0  0  0  0  0  0  0  0  0  0  0
   58.0113    3.1877  120.9968 H   0  0  0  0  0  0  0  0  0  0  0  0
   57.7706    5.6339  120.3985 H   0  0  0  0  0  0  0  0  0  0  0  0
   57.8389    6.0336  122.1345 H   0  0  0  0  0  0  0  0  0  0  0  0
   58.9452    4.5705  122.5481 H   0  0  0  0  0  0  0  0  0  0  0  0
   59.4657    7.2216  122.2711 H   0  0  0  0  0  0  0  0  0  0  0  0
   60.4602    5.6911  122.7074 H   0  0  0  0  0  0  0  0  0  0  0  0
   59.6342    3.9374  119.3461 H   0  0  0  0  0  0  0  0  0  0  0  0
   58.6401    5.4574  118.8604 H   0  0  0  0  0  0  0  0  0  0  0  0
   61.2410    5.1315  119.4669 H   0  0  0  0  0  0  0  0  0  0  0  0
   60.1278    6.5844  119.0282 H   0  0  0  0  0  0  0  0  0  0  0  0
   61.2501    5.5275  121.2151 H   0  0  0  0  0  0  0  0  0  0  0  0
   62.6600    6.5553  120.7661 H   0  0  0  0  0  0  0  0  0  0  0  0
   61.6527    7.9583  120.1560 H   0  0  0  0  0  0  0  0  0  0  0  0
   61.0719    8.3311  122.4922 H   0  0  0  0  0  0  0  0  0  0  0  0
   63.3257    9.3126  122.9666 H   0  0  0  0  0  0  0  0  0  0  0  0
   63.8177    8.5295  121.4267 H   0  0  0  0  0  0  0  0  0  0  0  0
   62.5267    9.7785  121.4267 H   0  0  0  0  0  0  0  0  0  0  0  0
  1  2  1  0
  2  3  1  0
  3  4  1  0
  4  5  1  0
  5  6  1  0
  6  7  1  0
  2  8  1  0
  7  8  1  0
  8  9  1  0
  9 10  1  0
 10 11  1  0
 10 12  1  0
  7 13  1  0
 12 13  1  0
 13 14  1  0
  6 15  1  0
 14 15  1  0
 15 16  1  0
 16 17  1  0
 17 18  1  0
 16 19  1  0
 19 20  1  0
 18 21  1  0
 20 21  1  0
 21 22  1  0
 22 23  1  0
 23 24  1  0
 25 26  1  0
 26 27  1  0
 27 28  1  0
 28 29  1  0
 29 30  1  0
 30 31  1  0
 26 32  1  0
 31 32  1  0
 32 33  1  0
 33 34  1  0
 34 35  1  0
 34 36  1  0
 31 37  1  0
 36 37  1  0
 37 38  1  0
 30 39  1  0
 38 39  1  0
 39 40  1  0
 40 41  1  0
 41 42  1  0
 40 43  1  0
 43 44  1  0
 42 45  1  0
 44 45  1  0
 45 46  1  0
 46 47  1  0
 47 48  1  0
  1 49  1  0
  2 50  1  6
  3 51  1  0
  4 52  1  0
  4 53  1  0
  5 54  1  0
  5 55  1  0
  6 56  1  0
  7 57  1  0
  8 58  1  0
  9 59  1  0
  9 60  1  0
 10 61  1  0
 12 62  1  0
 12 63  1  0
 13 64  1  0
 14 65  1  0
 15 66  1  6
 16 67  1  6
 17 68  1  0
 17 69  1  0
 18 70  1  0
 18 71  1  0
 19 72  1  0
 19 73  1  0
 20 74  1  0
 20 75  1  0
 21 76  1  0
 22 77  1  0
 22 78  1  0
 23 79  1  0
 24 80  1  0
 24 81  1  0
 24 82  1  0
 25 83  1  0
 26 84  1  6
 27 85  1  0
 28 86  1  0
 28 87  1  0
 29 88  1  0
 29 89  1  0
 30 90  1  0
 31 91  1  0
 32 92  1  0
 33 93  1  0
 33 94  1  0
 34 95  1  0
 36 96  1  0
 36 97  1  0
 37 98  1  0
 38 99  1  0
 39100  1  6
 40101  1  6
 41102  1  0
 41103  1  0
 42104  1  0
 42105  1  0
 43106  1  0
 43107  1  0
 44108  1  0
 44109  1  0
 45110  1  0
 46111  1  0
 46112  1  0
 47113  1  0
 48114  1  0
 48115  1  0
 48116  1  0
M  END
>  <PDBID>  (1) 
4RV6

>  <PDB ID>  (1) 
4RV6

>  <Generic Name>  (1) 
Rucaparib

>  <Brand Name>  (1) 
Rubraca

>  <DrugBank ID>  (1) 
DB12332

>  <ATC Codes>  (1) 
nan

>  <Ligand ID>  (1) 
RPB

>  <Target Name>  (1) 
Poly [ADP-ribose] polymerase 1

>  <UniProt ID>  (1) 
P09874

>  <PDB ID.1>  (1) 
4RV6

>  <Seq. Identity>  (1) 
100%

$$$$
