PDB_DB03849_98
     RDKit          3D

 50 52  0  0  0  0  0  0  0  0999 V2000
   36.4580    4.1070    9.4880 O   0  0  0  0  0  0  0  0  0  0  0  0
   36.9940    2.9270    9.5040 C   0  0  0  0  0  0  0  0  0  0  0  0
   36.3020    1.8870    9.3380 O   0  0  0  0  0  0  0  0  0  0  0  0
   38.4930    2.7520    9.7770 C   0  0  0  0  0  0  0  0  0  0  0  0
   38.6010    2.3660   11.2450 C   0  0  0  0  0  0  0  0  0  0  0  0
   40.0430    2.1160   11.6840 C   0  0  0  0  0  0  0  0  0  0  0  0
   39.1680    1.6280    8.9890 C   0  0  0  0  0  0  0  0  0  0  0  0
   40.6390    1.4750    9.4140 C   0  0  0  0  0  0  0  0  0  0  0  0
   40.8260    1.0940   10.8780 C   0  0  0  0  0  0  0  0  0  0  0  0
   40.2000   -0.2120   11.0750 C   0  0  0  0  0  0  0  0  0  0  0  0
   39.6950   -1.2470   11.2430 N   0  0  0  0  0  0  0  0  0  0  0  0
   42.2730    1.0670   11.4040 C   0  0  0  0  0  0  0  0  0  0  0  0
   43.3740    1.3950   10.5900 C   0  0  0  0  0  0  0  0  0  0  0  0
   44.6510    1.3670   11.0520 C   0  0  0  0  0  0  0  0  0  0  0  0
   44.8920    1.0170   12.3650 C   0  0  0  0  0  0  0  0  0  0  0  0
   46.1700    1.0040   12.8310 O   0  0  0  0  0  0  0  0  0  0  0  0
   47.3020    1.3210   12.0310 C   0  0  0  0  0  0  0  0  0  0  0  0
   43.8520    0.6880   13.2470 C   0  0  0  0  0  0  0  0  0  0  0  0
   42.5440    0.6940   12.7600 C   0  0  0  0  0  0  0  0  0  0  0  0
   44.1490    0.3480   14.5610 O   0  0  0  0  0  0  0  0  0  0  0  0
   43.1020    0.3370   15.5600 C   0  0  0  0  0  0  0  0  0  0  0  0
   42.8460   -1.0810   16.0280 C   0  0  0  0  0  0  0  0  0  0  0  0
   43.7320   -1.2380   17.2680 C   0  0  0  0  0  0  0  0  0  0  0  0
   44.1200    0.1610   17.7820 C   0  0  0  0  0  0  0  0  0  0  0  0
   43.5120    1.1300   16.7870 C   0  0  0  0  0  0  0  0  0  0  0  0
   36.7347    0.9967    9.3544 H   0  0  0  0  0  0  0  0  0  0  0  0
   38.9913    3.6886    9.4861 H   0  0  0  0  0  0  0  0  0  0  0  0
   38.1836    3.1808   11.8548 H   0  0  0  0  0  0  0  0  0  0  0  0
   38.0438    1.4278   11.3839 H   0  0  0  0  0  0  0  0  0  0  0  0
   40.5818    3.0732   11.6247 H   0  0  0  0  0  0  0  0  0  0  0  0
   39.9714    1.6961   12.6982 H   0  0  0  0  0  0  0  0  0  0  0  0
   38.6368    0.6838    9.1794 H   0  0  0  0  0  0  0  0  0  0  0  0
   39.1327    1.8757    7.9178 H   0  0  0  0  0  0  0  0  0  0  0  0
   41.0991    0.6932    8.7918 H   0  0  0  0  0  0  0  0  0  0  0  0
   41.1129    2.4584    9.2785 H   0  0  0  0  0  0  0  0  0  0  0  0
   43.1938    1.6838    9.5440 H   0  0  0  0  0  0  0  0  0  0  0  0
   45.4873    1.6215   10.3842 H   0  0  0  0  0  0  0  0  0  0  0  0
   48.1558    1.5601   12.6821 H   0  0  0  0  0  0  0  0  0  0  0  0
   47.5552    0.4592   11.3960 H   0  0  0  0  0  0  0  0  0  0  0  0
   47.0708    2.1889   11.3960 H   0  0  0  0  0  0  0  0  0  0  0  0
   41.7140    0.4097   13.4235 H   0  0  0  0  0  0  0  0  0  0  0  0
   42.2070    0.7774   15.0963 H   0  0  0  0  0  0  0  0  0  0  0  0
   41.7860   -1.2203   16.2867 H   0  0  0  0  0  0  0  0  0  0  0  0
   43.0742   -1.8266   15.2521 H   0  0  0  0  0  0  0  0  0  0  0  0
   43.1800   -1.7793   18.0505 H   0  0  0  0  0  0  0  0  0  0  0  0
   44.6382   -1.8057   17.0100 H   0  0  0  0  0  0  0  0  0  0  0  0
   43.7080    0.3309   18.7877 H   0  0  0  0  0  0  0  0  0  0  0  0
   45.2103    0.2828   17.8624 H   0  0  0  0  0  0  0  0  0  0  0  0
   44.2524    1.8944   16.5086 H   0  0  0  0  0  0  0  0  0  0  0  0
   42.6401    1.6363   17.2268 H   0  0  0  0  0  0  0  0  0  0  0  0
  1  2  2  0
  2  3  1  0
  2  4  1  0
  4  5  1  0
  5  6  1  0
  4  7  1  0
  7  8  1  0
  6  9  1  0
  8  9  1  0
  9 10  1  0
 10 11  3  0
  9 12  1  0
 12 13  2  0
 13 14  1  0
 14 15  2  0
 15 16  1  0
 16 17  1  0
 15 18  1  0
 12 19  1  0
 18 19  2  0
 18 20  1  0
 20 21  1  0
 21 22  1  0
 22 23  1  0
 23 24  1  0
 21 25  1  0
 24 25  1  0
  3 26  1  0
  4 27  1  0
  5 28  1  0
  5 29  1  0
  6 30  1  0
  6 31  1  0
  7 32  1  0
  7 33  1  0
  8 34  1  0
  8 35  1  0
 13 36  1  0
 14 37  1  0
 17 38  1  0
 17 39  1  0
 17 40  1  0
 19 41  1  0
 21 42  1  0
 22 43  1  0
 22 44  1  0
 23 45  1  0
 23 46  1  0
 24 47  1  0
 24 48  1  0
 25 49  1  0
 25 50  1  0
M  END
$$$$
