PDB_DB00563_97
     RDKit          3D

 77 79  0  0  0  0  0  0  0  0999 V2000
   28.7910   13.1620   -4.3390 N   0  0  0  0  0  0  0  0  0  0  0  0
   27.4620   13.0450   -4.5730 C   0  0  1  0  0  0  0  0  0  0  0  0
   27.0740   12.9410   -5.8030 N   0  0  0  0  0  0  0  0  0  0  0  0
   26.6310   12.8170   -3.5700 N   0  0  0  0  0  0  0  0  0  0  0  0
   27.0330   12.9180   -2.3150 C   0  0  0  0  0  0  0  0  0  0  0  0
   26.1020   12.7940   -1.3680 N   0  0  0  0  0  0  0  0  0  0  0  0
   28.3900   13.1800   -1.9720 C   0  0  1  0  0  0  0  0  0  0  0  0
   28.8500   13.2490   -0.7170 N   0  0  0  0  0  0  0  0  0  0  0  0
   30.1500   13.3100   -0.5390 C   0  0  1  0  0  0  0  0  0  0  0  0
   31.0420   13.4540   -1.6180 C   0  0  0  0  0  0  0  0  0  0  0  0
   30.5830   13.3230   -2.8720 N   0  0  0  0  0  0  0  0  0  0  0  0
   29.2990   13.2070   -3.0570 C   0  0  0  0  0  0  0  0  0  0  0  0
   30.6000   13.4220    0.9150 C   0  0  0  0  0  0  0  0  0  0  0  0
   31.8210   14.1180    1.2190 N   0  0  0  0  0  0  0  0  0  0  0  0
   32.6640   13.5830    2.2650 C   0  0  0  0  0  0  0  0  0  0  0  0
   32.1470   18.1710    0.2630 C   0  0  1  0  0  0  0  0  0  0  0  0
   33.3050   17.4490    0.6560 C   0  0  0  0  0  0  0  0  0  0  0  0
   33.1370   16.1230    1.0380 C   0  0  0  0  0  0  0  0  0  0  0  0
   31.8970   15.4750    0.9710 C   0  0  1  0  0  0  0  0  0  0  0  0
   30.7820   16.1830    0.5000 C   0  0  0  0  0  0  0  0  0  0  0  0
   30.9030   17.5400    0.1760 C   0  0  0  0  0  0  0  0  0  0  0  0
   32.2810   19.5740   -0.1440 C   0  0  1  0  0  0  0  0  0  0  0  0
   33.3050   20.1730    0.1990 O   0  0  0  0  0  0  0  0  0  0  0  0
   31.4290   20.1380   -1.0010 N   0  0  0  0  0  0  0  0  0  0  0  0
   31.3720   21.4730   -1.6090 C   0  0  2  0  0  0  0  0  0  0  0  0
   29.9790   22.0920   -1.6800 C   0  0  1  0  0  0  0  0  0  0  0  0
   29.8190   23.3160   -1.5280 O   0  0  0  0  0  0  0  0  0  0  0  0
   29.1710   21.2250   -2.0320 O   0  0  0  0  0  0  0  0  0  0  0  0
   31.7650   21.4710   -3.0690 C   0  0  0  0  0  0  0  0  0  0  0  0
   32.9250   22.3830   -3.3220 C   0  0  0  0  0  0  0  0  0  0  0  0
   33.7310   21.7300   -4.3510 C   0  0  1  0  0  0  0  0  0  0  0  0
   34.6410   20.7890   -4.2250 O   0  0  0  0  0  0  0  0  0  0  0  0
   33.4780   22.0370   -5.6080 O   0  0  0  0  0  0  0  0  0  0  0  0
   29.2386   12.3570   -4.8001 H   0  0  0  0  0  0  0  0  0  0  0  0
   27.1310   14.0870   -4.4520 H   0  0  0  0  0  0  0  0  0  0  0  0
   26.0794   12.6744   -5.8279 H   0  0  0  0  0  0  0  0  0  0  0  0
   27.1991   13.8452   -6.2801 H   0  0  0  0  0  0  0  0  0  0  0  0
   25.8497   13.4789   -3.6811 H   0  0  0  0  0  0  0  0  0  0  0  0
   26.8569   14.0034   -2.3460 H   0  0  0  0  0  0  0  0  0  0  0  0
   26.5458   12.8531   -0.4404 H   0  0  0  0  0  0  0  0  0  0  0  0
   25.4096   13.5502   -1.4661 H   0  0  0  0  0  0  0  0  0  0  0  0
   28.1769   14.2590   -1.9532 H   0  0  0  0  0  0  0  0  0  0  0  0
   28.4422   14.0916   -0.2872 H   0  0  0  0  0  0  0  0  0  0  0  0
   30.5927   12.3721   -0.9055 H   0  0  0  0  0  0  0  0  0  0  0  0
   31.4799   14.4601   -1.5401 H   0  0  0  0  0  0  0  0  0  0  0  0
   31.7298   12.6033   -1.5024 H   0  0  0  0  0  0  0  0  0  0  0  0
   30.8915   14.1540   -3.3966 H   0  0  0  0  0  0  0  0  0  0  0  0
   29.2456   14.3056   -3.0744 H   0  0  0  0  0  0  0  0  0  0  0  0
   29.7940   13.9324    1.4626 H   0  0  0  0  0  0  0  0  0  0  0  0
   30.8121   12.3822    1.2044 H   0  0  0  0  0  0  0  0  0  0  0  0
   32.2444   13.8493    3.2463 H   0  0  0  0  0  0  0  0  0  0  0  0
   32.7132   12.4880    2.1722 H   0  0  0  0  0  0  0  0  0  0  0  0
   33.6757   14.0047    2.1722 H   0  0  0  0  0  0  0  0  0  0  0  0
   32.3477   17.9203   -0.7891 H   0  0  0  0  0  0  0  0  0  0  0  0
   34.0044   17.4610   -0.1930 H   0  0  0  0  0  0  0  0  0  0  0  0
   33.6578   17.9592    1.5644 H   0  0  0  0  0  0  0  0  0  0  0  0
   33.8241   15.5347    0.4122 H   0  0  0  0  0  0  0  0  0  0  0  0
   33.3071   16.1761    2.1235 H   0  0  0  0  0  0  0  0  0  0  0  0
   31.7324   15.6794    2.0392 H   0  0  0  0  0  0  0  0  0  0  0  0
   30.4393   15.6681   -0.4096 H   0  0  0  0  0  0  0  0  0  0  0  0
   30.1007   16.1877    1.3636 H   0  0  0  0  0  0  0  0  0  0  0  0
   30.2217   18.0878    0.8436 H   0  0  0  0  0  0  0  0  0  0  0  0
   30.6825   17.5633   -0.9014 H   0  0  0  0  0  0  0  0  0  0  0  0
   31.5070   19.9526    0.5398 H   0  0  0  0  0  0  0  0  0  0  0  0
   33.3549   20.2022    1.1873 H   0  0  0  0  0  0  0  0  0  0  0  0
   31.4528   19.5055   -1.8136 H   0  0  0  0  0  0  0  0  0  0  0  0
   32.0510   22.0314   -0.9478 H   0  0  0  0  0  0  0  0  0  0  0  0
   29.8570   21.9416   -0.5972 H   0  0  0  0  0  0  0  0  0  0  0  0
   29.7913   23.5277   -0.5613 H   0  0  0  0  0  0  0  0  0  0  0  0
   28.7741   20.7992   -1.2312 H   0  0  0  0  0  0  0  0  0  0  0  0
   32.0425   20.4482   -3.3639 H   0  0  0  0  0  0  0  0  0  0  0  0
   30.9081   21.8276   -3.6594 H   0  0  0  0  0  0  0  0  0  0  0  0
   32.5714   23.3622   -3.6771 H   0  0  0  0  0  0  0  0  0  0  0  0
   33.5068   22.5602   -2.4054 H   0  0  0  0  0  0  0  0  0  0  0  0
   34.5087   22.4984   -4.2294 H   0  0  0  0  0  0  0  0  0  0  0  0
   34.8072   20.6172   -3.2643 H   0  0  0  0  0  0  0  0  0  0  0  0
   32.8487   22.8006   -5.6410 H   0  0  0  0  0  0  0  0  0  0  0  0
  1  2  1  0
  2  3  1  0
  2  4  1  0
  4  5  1  0
  5  6  1  0
  5  7  1  0
  7  8  1  0
  8  9  1  0
  9 10  1  0
 10 11  1  0
  1 12  1  0
  7 12  1  0
 11 12  1  0
  9 13  1  0
 13 14  1  0
 14 15  1  0
 16 17  1  0
 17 18  1  0
 14 19  1  0
 18 19  1  0
 19 20  1  0
 16 21  1  0
 20 21  1  0
 16 22  1  0
 22 23  1  0
 22 24  1  0
 24 25  1  0
 25 26  1  0
 26 27  1  0
 26 28  1  0
 25 29  1  0
 29 30  1  0
 30 31  1  0
 31 32  1  0
 31 33  1  0
  1 34  1  0
  2 35  1  1
  3 36  1  0
  3 37  1  0
  4 38  1  0
  5 39  1  0
  6 40  1  0
  6 41  1  0
  7 42  1  6
  8 43  1  0
  9 44  1  1
 10 45  1  0
 10 46  1  0
 11 47  1  0
 12 48  1  0
 13 49  1  0
 13 50  1  0
 15 51  1  0
 15 52  1  0
 15 53  1  0
 16 54  1  1
 17 55  1  0
 17 56  1  0
 18 57  1  0
 18 58  1  0
 19 59  1  1
 20 60  1  0
 20 61  1  0
 21 62  1  0
 21 63  1  0
 22 64  1  1
 23 65  1  0
 24 66  1  0
 25 67  1  1
 26 68  1  1
 27 69  1  0
 28 70  1  0
 29 71  1  0
 29 72  1  0
 30 73  1  0
 30 74  1  0
 31 75  1  1
 32 76  1  0
 33 77  1  0
M  END
>  <PDBID>  (1) 
1DLS

>  <PDB ID>  (1) 
1DLS

>  <Generic Name>  (1) 
Methotrexate

>  <Brand Name>  (1) 
Apo-methotrexate#Jamp-methotrexate#Methotrexate#Methotrexate Dbl Inj 10mg/ml#Methotrexate Dbl Inj 2.5mg/ml#Methotrexate Dbl Inj 25mg/ml#Methotrexate Injection BP#Methotrexate Injection USP#Methotrexate Injection, BP#Methotrexate Injection, USP#Methotrexate PF/sa Injection#Methotrexate Sod Inj 25mg/ml USP#Methotrexate Sodium#Methotrexate Sodium Inj 20mg#Methotrexate Sodium Inj 25.0mg/ml#Methotrexate Sodium Inj 25mg/ml#Methotrexate Sodium Inj 25mg/ml USP#Methotrexate Sodium Injection#Methotrexate Sodium Injection USP#Methotrexate Tab 2.5mg#Methotrexate Tab 2.5mg USP#Methotrexate Tablets, USP#Methotrexate-liq Im IV Iar Int Ivr 25mg/ml#Methotrexate-pws Im IV Iar Int Ivr 20mg/vial#Metoject#Metoject Subcutaneous#Otrexup#Rasuvo#Ratio-methotrexate Sodium#Rheumatrex Dose Pack#Rheumatrex Tab 2.5mg#Rheumatrex-tab 2.5mg#Trexall#Abitrexate#Alltrex#Artrait#Atrexel#Bendatrexat#Carditrex#Dermotrex#Ebetrex#Emtexate#Ledertrexate#Maxtrex#Meisusheng#Mexate#Rheumatrex#Trexan#Zexate

>  <DrugBank ID>  (1) 
DB00563

>  <ATC Codes>  (1) 
L01BA01#L04AX03

>  <Ligand ID>  (1) 
MTX

>  <Target Name>  (1) 
Dihydrofolate reductase

>  <UniProt ID>  (1) 
P00374

>  <PDB ID.1>  (1) 
1DLS

>  <Seq. Identity>  (1) 
99%

$$$$
