PDB_DB00932_97
     RDKit          3D

 99102  0  0  0  0  0  0  0  0999 V2000
   13.6170   21.5370    6.0600 O   0  0  0  0  0  0  0  0  0  0  0  0
   12.5610   22.3470    5.9440 C   0  0  1  0  0  0  0  0  0  0  0  0
   12.7670   23.6610    5.2530 C   0  0  1  0  0  0  0  0  0  0  0  0
   14.0610   23.9900    4.8250 C   0  0  2  0  0  0  0  0  0  0  0  0
   15.2020   23.3100    5.5750 C   0  0  0  0  0  0  0  0  0  0  0  0
   14.9740   22.1270    5.9630 C   0  0  2  0  0  0  0  0  0  0  0  0
   11.4630   21.9690    6.2400 O   0  0  0  0  0  0  0  0  0  0  0  0
   14.3380   25.1840    4.2350 O   0  0  0  0  0  0  0  0  0  0  0  0
   15.9500   21.2170    5.1920 C   0  0  0  0  0  0  0  0  0  0  0  0
   15.4850   20.1410    4.6320 C   0  0  0  0  0  0  0  0  0  0  0  0
   15.4480   20.0120    3.1230 C   0  0  0  0  0  0  0  0  0  0  0  0
   14.9020   21.9190    7.4700 C   0  0  0  0  0  0  0  0  0  0  0  0
   16.1830   22.4920    8.0080 C   0  0  0  0  0  0  0  0  0  0  0  0
   17.1150   21.7170    8.8100 C   0  0  1  0  0  0  0  0  0  0  0  0
   16.7170   20.8630    9.8420 C   0  0  0  0  0  0  0  0  0  0  0  0
   17.6870   20.1630   10.5920 C   0  0  0  0  0  0  0  0  0  0  0  0
   19.0440   20.2320   10.2140 C   0  0  0  0  0  0  0  0  0  0  0  0
   19.4660   21.1430    9.2260 C   0  0  0  0  0  0  0  0  0  0  0  0
   18.4910   21.9090    8.5470 C   0  0  0  0  0  0  0  0  0  0  0  0
   11.5160   24.4310    4.8740 C   0  0  1  0  0  0  0  0  0  0  0  0
   10.4570   24.2950    3.7320 C   0  0  0  0  0  0  0  0  0  0  0  0
   11.0140   24.1580    2.2970 C   0  0  0  0  0  0  0  0  0  0  0  0
   11.0700   25.1840    6.1160 C   0  0  1  0  0  0  0  0  0  0  0  0
   12.0080   25.5680    7.0850 C   0  0  0  0  0  0  0  0  0  0  0  0
   11.5820   26.3140    8.2040 C   0  0  0  0  0  0  0  0  0  0  0  0
   10.2220   26.6690    8.3390 C   0  0  0  0  0  0  0  0  0  0  0  0
    9.2640   26.1540    7.4590 C   0  0  1  0  0  0  0  0  0  0  0  0
    7.5850   26.7340    7.8730 N   0  0  0  0  0  0  0  0  0  0  0  0
    9.7010   25.4160    6.3390 C   0  0  0  0  0  0  0  0  0  0  0  0
    7.2470   28.0600    7.0170 S   0  0  2  0  0  4  0  0  0  0  0  0
    8.2460   29.0690    7.3420 O   0  0  0  0  0  0  0  0  0  0  0  0
    5.8490   28.3660    7.2780 O   0  0  0  0  0  0  0  0  0  0  0  0
    7.4120   27.6670    5.3260 C   0  0  0  0  0  0  0  0  0  0  0  0
    8.5000   28.1080    4.6670 N   0  0  0  0  0  0  0  0  0  0  0  0
    8.6300   27.7410    3.3730 C   0  0  0  0  0  0  0  0  0  0  0  0
    7.5710   27.1990    2.6400 C   0  0  2  0  0  0  0  0  0  0  0  0
    6.5350   26.5770    3.3650 C   0  0  0  0  0  0  0  0  0  0  0  0
    6.3940   26.9270    4.7160 C   0  0  0  0  0  0  0  0  0  0  0  0
    7.8730   26.6530    1.2370 C   0  0  2  0  0  0  0  0  0  0  0  0
    9.0680   25.9140    1.4370 F   0  0  0  0  0  0  0  0  0  0  0  0
    8.0310   27.7940    0.4230 F   0  0  0  0  0  0  0  0  0  0  0  0
    6.7590   25.8520    0.9150 F   0  0  0  0  0  0  0  0  0  0  0  0
   12.4663   22.7130    6.9770 H   0  0  0  0  0  0  0  0  0  0  0  0
   13.0222   24.5378    5.8663 H   0  0  0  0  0  0  0  0  0  0  0  0
   13.9847   23.4662    3.8607 H   0  0  0  0  0  0  0  0  0  0  0  0
   16.0770   23.2848    4.9089 H   0  0  0  0  0  0  0  0  0  0  0  0
   15.3554   23.9019    6.4894 H   0  0  0  0  0  0  0  0  0  0  0  0
   11.3786   21.9400    7.2260 H   0  0  0  0  0  0  0  0  0  0  0  0
   14.4967   25.8680    4.9329 H   0  0  0  0  0  0  0  0  0  0  0  0
   16.4027   21.8271    4.3965 H   0  0  0  0  0  0  0  0  0  0  0  0
   16.6360   20.8421    5.9659 H   0  0  0  0  0  0  0  0  0  0  0  0
   16.0937   19.3040    5.0047 H   0  0  0  0  0  0  0  0  0  0  0  0
   14.4193   20.1624    4.9038 H   0  0  0  0  0  0  0  0  0  0  0  0
   15.1542   18.9878    2.8496 H   0  0  0  0  0  0  0  0  0  0  0  0
   14.7181   20.7249    2.7118 H   0  0  0  0  0  0  0  0  0  0  0  0
   16.4448   20.2296    2.7118 H   0  0  0  0  0  0  0  0  0  0  0  0
   14.0352   22.4490    7.8917 H   0  0  0  0  0  0  0  0  0  0  0  0
   14.7835   20.8576    7.7335 H   0  0  0  0  0  0  0  0  0  0  0  0
   16.7513   22.8409    7.1332 H   0  0  0  0  0  0  0  0  0  0  0  0
   15.8099   23.2212    8.7423 H   0  0  0  0  0  0  0  0  0  0  0  0
   17.1896   22.5482    9.5266 H   0  0  0  0  0  0  0  0  0  0  0  0
   16.1431   21.4727   10.5553 H   0  0  0  0  0  0  0  0  0  0  0  0
   16.1786   20.0620    9.3142 H   0  0  0  0  0  0  0  0  0  0  0  0
   17.6237   20.5374   11.6244 H   0  0  0  0  0  0  0  0  0  0  0  0
   17.4274   19.1071   10.4258 H   0  0  0  0  0  0  0  0  0  0  0  0
   19.6131   20.4692   11.1250 H   0  0  0  0  0  0  0  0  0  0  0  0
   19.2184   19.2549    9.7398 H   0  0  0  0  0  0  0  0  0  0  0  0
   20.1536   21.8512    9.7114 H   0  0  0  0  0  0  0  0  0  0  0  0
   19.8975   20.5044    8.4412 H   0  0  0  0  0  0  0  0  0  0  0  0
   18.6354   21.7217    7.4727 H   0  0  0  0  0  0  0  0  0  0  0  0
   18.6738   22.9276    8.9198 H   0  0  0  0  0  0  0  0  0  0  0  0
   11.9392   24.7172    3.8998 H   0  0  0  0  0  0  0  0  0  0  0  0
    9.8492   23.4027    3.9426 H   0  0  0  0  0  0  0  0  0  0  0  0
    9.8932   25.2395    3.7397 H   0  0  0  0  0  0  0  0  0  0  0  0
   12.0813   23.8955    2.3415 H   0  0  0  0  0  0  0  0  0  0  0  0
   10.4641   23.3683    1.7641 H   0  0  0  0  0  0  0  0  0  0  0  0
   10.8931   25.1126    1.7641 H   0  0  0  0  0  0  0  0  0  0  0  0
   10.9189   24.2291    6.6407 H   0  0  0  0  0  0  0  0  0  0  0  0
   12.4663   24.6454    7.4706 H   0  0  0  0  0  0  0  0  0  0  0  0
   12.6681   26.2633    6.5458 H   0  0  0  0  0  0  0  0  0  0  0  0
   11.8474   25.7279    9.0962 H   0  0  0  0  0  0  0  0  0  0  0  0
   12.0843   27.2832    8.0682 H   0  0  0  0  0  0  0  0  0  0  0  0
    9.9159   26.3658    9.3511 H   0  0  0  0  0  0  0  0  0  0  0  0
   10.2219   27.7437    8.1043 H   0  0  0  0  0  0  0  0  0  0  0  0
    9.1261   25.2842    8.1182 H   0  0  0  0  0  0  0  0  0  0  0  0
    6.9019   25.9967    7.6479 H   0  0  0  0  0  0  0  0  0  0  0  0
    9.3238   25.9430    5.4502 H   0  0  0  0  0  0  0  0  0  0  0  0
    9.3145   24.4074    6.5470 H   0  0  0  0  0  0  0  0  0  0  0  0
    8.3258   29.1496    8.3255 H   0  0  0  0  0  0  0  0  0  0  0  0
    5.6955   28.3996    8.2554 H   0  0  0  0  0  0  0  0  0  0  0  0
    6.8763   28.5900    5.0592 H   0  0  0  0  0  0  0  0  0  0  0  0
    8.4841   29.1374    4.6969 H   0  0  0  0  0  0  0  0  0  0  0  0
    8.9489   28.6426    2.8295 H   0  0  0  0  0  0  0  0  0  0  0  0
    9.3167   26.8849    3.4474 H   0  0  0  0  0  0  0  0  0  0  0  0
    7.0691   28.1349    2.3533 H   0  0  0  0  0  0  0  0  0  0  0  0
    5.5878   26.8187    2.8607 H   0  0  0  0  0  0  0  0  0  0  0  0
    6.8004   25.5096    3.3765 H   0  0  0  0  0  0  0  0  0  0  0  0
    6.2887   25.9909    5.2841 H   0  0  0  0  0  0  0  0  0  0  0  0
    5.5266   27.6034    4.7285 H   0  0  0  0  0  0  0  0  0  0  0  0
  1  2  1  0
  2  3  1  0
  3  4  1  0
  4  5  1  0
  1  6  1  0
  5  6  1  0
  2  7  1  0
  4  8  1  0
  6  9  1  6
  9 10  1  0
 10 11  1  0
  6 12  1  0
 12 13  1  0
 13 14  1  0
 14 15  1  0
 15 16  1  0
 16 17  1  0
 17 18  1  0
 14 19  1  0
 18 19  1  0
  3 20  1  0
 20 21  1  0
 21 22  1  0
 20 23  1  0
 23 24  1  0
 24 25  1  0
 25 26  1  0
 26 27  1  0
 27 28  1  0
 23 29  1  0
 27 29  1  0
 28 30  1  0
 30 31  1  1
 30 32  1  0
 30 33  1  0
 33 34  1  0
 34 35  1  0
 35 36  1  0
 36 37  1  0
 33 38  1  0
 37 38  1  0
 36 39  1  0
 39 40  1  1
 39 41  1  0
 39 42  1  0
  2 43  1  1
  3 44  1  1
  4 45  1  6
  5 46  1  0
  5 47  1  0
  7 48  1  0
  8 49  1  0
  9 50  1  0
  9 51  1  0
 10 52  1  0
 10 53  1  0
 11 54  1  0
 11 55  1  0
 11 56  1  0
 12 57  1  0
 12 58  1  0
 13 59  1  0
 13 60  1  0
 14 61  1  6
 15 62  1  0
 15 63  1  0
 16 64  1  0
 16 65  1  0
 17 66  1  0
 17 67  1  0
 18 68  1  0
 18 69  1  0
 19 70  1  0
 19 71  1  0
 20 72  1  6
 21 73  1  0
 21 74  1  0
 22 75  1  0
 22 76  1  0
 22 77  1  0
 23 78  1  6
 24 79  1  0
 24 80  1  0
 25 81  1  0
 25 82  1  0
 26 83  1  0
 26 84  1  0
 27 85  1  1
 28 86  1  0
 29 87  1  0
 29 88  1  0
 31 89  1  0
 32 90  1  0
 33 91  1  0
 34 92  1  0
 35 93  1  0
 35 94  1  0
 36 95  1  6
 37 96  1  0
 37 97  1  0
 38 98  1  0
 38 99  1  0
M  END
>  <PDBID>  (1) 
1D4S

>  <PDB ID>  (1) 
1D4S

>  <Generic Name>  (1) 
Tipranavir

>  <Brand Name>  (1) 
Aptivus

>  <DrugBank ID>  (1) 
DB00932

>  <ATC Codes>  (1) 
J05AE09

>  <Ligand ID>  (1) 
TPV

>  <Target Name>  (1) 
Pol polyprotein

>  <UniProt ID>  (1) 
Q72874

>  <PDB ID.1>  (1) 
1D4S

>  <Seq. Identity>  (1) 
97%

$$$$
