PDB_DB00207_96
     RDKit          3D

124126  0  0  0  0  0  0  0  0999 V2000
   33.0060  134.9960  117.4580 C   0  0  0  0  0  0  0  0  0  0  0  0
   34.4540  135.0800  117.1890 C   0  0  1  0  0  0  0  0  0  0  0  0
   35.2530  134.3460  118.2890 C   0  0  2  0  0  0  0  0  0  0  0  0
   35.6150  135.3090  119.4370 C   0  0  1  0  0  0  0  0  0  0  0  0
   36.3100  134.4930  120.5670 C   0  0  2  0  0  0  0  0  0  0  0  0
   35.4580  134.3100  121.8340 C   0  0  2  0  0  0  0  0  0  0  0  0
   35.2750  135.6030  122.5980 C   0  0  0  0  0  0  0  0  0  0  0  0
   34.2810  135.5440  123.7960 C   0  0  2  0  0  0  0  0  0  0  0  0
   32.9820  136.2360  123.4680 C   0  0  0  0  0  0  0  0  0  0  0  0
   32.2370  135.5680  122.3910 N   0  0  0  0  0  0  0  0  0  0  0  0
   31.4210  136.5370  121.6470 C   0  0  1  0  0  0  0  0  0  0  0  0
   31.1210  136.0020  120.2250 C   0  0  2  0  0  0  0  0  0  0  0  0
   30.8420  137.0690  119.1420 C   0  0  2  0  0  0  0  0  0  0  0  0
   30.9820  136.3460  117.7620 C   0  0  1  0  0  0  0  0  0  0  0  0
   30.4800  137.1070  116.5760 C   0  0  0  0  0  0  0  0  0  0  0  0
   29.1230  137.7230  116.8370 C   0  0  0  0  0  0  0  0  0  0  0  0
   34.6640  134.6320  115.7410 C   0  0  0  0  0  0  0  0  0  0  0  0
   36.3980  136.5280  118.9980 C   0  0  0  0  0  0  0  0  0  0  0  0
   36.0940  133.2530  122.7170 C   0  0  0  0  0  0  0  0  0  0  0  0
   34.8890  136.1850  125.0300 C   0  0  0  0  0  0  0  0  0  0  0  0
   31.4270  134.4630  122.9520 C   0  0  0  0  0  0  0  0  0  0  0  0
   30.2200  137.0990  122.3270 C   0  0  0  0  0  0  0  0  0  0  0  0
   31.6840  138.3160  119.2400 C   0  0  0  0  0  0  0  0  0  0  0  0
   32.3620  133.9690  117.5500 O   0  0  0  0  0  0  0  0  0  0  0  0
   34.1820  133.8190  121.4020 O   0  0  0  0  0  0  0  0  0  0  0  0
   30.0160  135.1000  120.2570 O   0  0  0  0  0  0  0  0  0  0  0  0
   29.4720  137.5070  119.2320 O   0  0  0  0  0  0  0  0  0  0  0  0
   32.4360  136.2060  117.5780 O   0  0  0  0  0  0  0  0  0  0  0  0
   38.4320  134.1250  121.0300 C   0  0  2  0  0  0  0  0  0  0  0  0
   39.5440  134.5290  122.0760 C   0  0  1  0  0  0  0  0  0  0  0  0
   40.5510  133.3890  122.1590 C   0  0  2  0  0  0  0  0  0  0  0  0
   39.7470  132.1660  122.5990 C   0  0  0  0  0  0  0  0  0  0  0  0
   38.6110  131.8180  121.6910 C   0  0  1  0  0  0  0  0  0  0  0  0
   37.7280  130.7480  122.1570 C   0  0  0  0  0  0  0  0  0  0  0  0
   41.4620  134.1820  124.2410 C   0  0  0  0  0  0  0  0  0  0  0  0
   42.8060  134.3900  122.2960 C   0  0  0  0  0  0  0  0  0  0  0  0
   37.5010  135.1490  120.9500 O   0  0  0  0  0  0  0  0  0  0  0  0
   40.2250  135.6830  121.6100 O   0  0  0  0  0  0  0  0  0  0  0  0
   41.7000  133.6210  122.9690 N   0  0  0  0  0  0  0  0  0  0  0  0
   37.7580  132.9850  121.5270 O   0  0  0  0  0  0  0  0  0  0  0  0
   36.1830  132.4040  117.3000 C   0  0  2  0  0  0  0  0  0  0  0  0
   37.1660  132.0340  116.2090 C   0  0  0  0  0  0  0  0  0  0  0  0
   38.5920  131.7080  116.6460 C   0  0  1  0  0  0  0  0  0  0  0  0
   38.4930  130.7240  117.8200 C   0  0  2  0  0  0  0  0  0  0  0  0
   37.5590  131.2100  118.8840 C   0  0  2  0  0  0  0  0  0  0  0  0
   37.3470  130.1710  119.9810 C   0  0  0  0  0  0  0  0  0  0  0  0
   39.3750  131.1110  115.4830 C   0  0  0  0  0  0  0  0  0  0  0  0
   39.3200  133.9970  116.4630 C   0  0  0  0  0  0  0  0  0  0  0  0
   36.4290  133.7220  117.7330 O   0  0  0  0  0  0  0  0  0  0  0  0
   39.2480  132.8210  117.2350 O   0  0  0  0  0  0  0  0  0  0  0  0
   39.7730  130.4800  118.3430 O   0  0  0  0  0  0  0  0  0  0  0  0
   36.2520  131.4650  118.3470 O   0  0  0  0  0  0  0  0  0  0  0  0
   34.8589  136.1007  117.2533 H   0  0  0  0  0  0  0  0  0  0  0  0
   34.6186  133.5515  118.7089 H   0  0  0  0  0  0  0  0  0  0  0  0
   34.6861  135.7468  119.8312 H   0  0  0  0  0  0  0  0  0  0  0  0
   36.4906  133.4944  120.1425 H   0  0  0  0  0  0  0  0  0  0  0  0
   36.2574  135.9070  122.9885 H   0  0  0  0  0  0  0  0  0  0  0  0
   34.8401  136.3158  121.8819 H   0  0  0  0  0  0  0  0  0  0  0  0
   34.0762  134.4820  123.9964 H   0  0  0  0  0  0  0  0  0  0  0  0
   32.3547  136.2526  124.3714 H   0  0  0  0  0  0  0  0  0  0  0  0
   33.2257  137.2513  123.1219 H   0  0  0  0  0  0  0  0  0  0  0  0
   32.0552  137.4335  121.5834 H   0  0  0  0  0  0  0  0  0  0  0  0
   32.0572  135.5057  119.9298 H   0  0  0  0  0  0  0  0  0  0  0  0
   30.3879  135.4210  117.7996 H   0  0  0  0  0  0  0  0  0  0  0  0
   31.1951  137.9084  116.3384 H   0  0  0  0  0  0  0  0  0  0  0  0
   30.3805  136.4040  115.7358 H   0  0  0  0  0  0  0  0  0  0  0  0
   28.9570  137.7983  117.9218 H   0  0  0  0  0  0  0  0  0  0  0  0
   29.0839  138.7271  116.3895 H   0  0  0  0  0  0  0  0  0  0  0  0
   28.3414  137.0914  116.3895 H   0  0  0  0  0  0  0  0  0  0  0  0
   35.1309  133.6361  115.7294 H   0  0  0  0  0  0  0  0  0  0  0  0
   33.6928  134.5877  115.2264 H   0  0  0  0  0  0  0  0  0  0  0  0
   35.3193  135.3502  115.2264 H   0  0  0  0  0  0  0  0  0  0  0  0
   36.7502  137.0763  119.8842 H   0  0  0  0  0  0  0  0  0  0  0  0
   37.2621  136.2113  118.3954 H   0  0  0  0  0  0  0  0  0  0  0  0
   35.7507  137.1821  118.3954 H   0  0  0  0  0  0  0  0  0  0  0  0
   35.9365  133.5148  123.7737 H   0  0  0  0  0  0  0  0  0  0  0  0
   35.6338  132.2759  122.5088 H   0  0  0  0  0  0  0  0  0  0  0  0
   37.1729  133.2020  122.5088 H   0  0  0  0  0  0  0  0  0  0  0  0
   34.4556  135.7281  125.9319 H   0  0  0  0  0  0  0  0  0  0  0  0
   35.9777  136.0277  125.0263 H   0  0  0  0  0  0  0  0  0  0  0  0
   34.6744  137.2639  125.0263 H   0  0  0  0  0  0  0  0  0  0  0  0
   31.4587  134.5063  124.0507 H   0  0  0  0  0  0  0  0  0  0  0  0
   30.3858  134.5618  122.6111 H   0  0  0  0  0  0  0  0  0  0  0  0
   31.8346  133.4999  122.6111 H   0  0  0  0  0  0  0  0  0  0  0  0
   30.3531  137.0367  123.4171 H   0  0  0  0  0  0  0  0  0  0  0  0
   30.0908  138.1511  122.0329 H   0  0  0  0  0  0  0  0  0  0  0  0
   29.3295  136.5241  122.0329 H   0  0  0  0  0  0  0  0  0  0  0  0
   31.8510  138.5634  120.2987 H   0  0  0  0  0  0  0  0  0  0  0  0
   32.6520  138.1446  118.7464 H   0  0  0  0  0  0  0  0  0  0  0  0
   31.1633  139.1498  118.7464 H   0  0  0  0  0  0  0  0  0  0  0  0
   33.6259  133.6050  122.1926 H   0  0  0  0  0  0  0  0  0  0  0  0
   29.7766  134.9046  121.1975 H   0  0  0  0  0  0  0  0  0  0  0  0
   29.2138  137.5895  120.1842 H   0  0  0  0  0  0  0  0  0  0  0  0
   38.8880  133.9313  120.0479 H   0  0  0  0  0  0  0  0  0  0  0  0
   39.0866  134.7287  123.0563 H   0  0  0  0  0  0  0  0  0  0  0  0
   41.0191  133.2526  121.1730 H   0  0  0  0  0  0  0  0  0  0  0  0
   40.4285  131.3037  122.6445 H   0  0  0  0  0  0  0  0  0  0  0  0
   39.3056  132.4135  123.5757 H   0  0  0  0  0  0  0  0  0  0  0  0
   39.0994  131.4730  120.7677 H   0  0  0  0  0  0  0  0  0  0  0  0
   37.7170  130.7346  123.2569 H   0  0  0  0  0  0  0  0  0  0  0  0
   36.7089  130.9242  121.7822 H   0  0  0  0  0  0  0  0  0  0  0  0
   38.0944  129.7809  121.7822 H   0  0  0  0  0  0  0  0  0  0  0  0
   41.7654  133.4668  125.0198 H   0  0  0  0  0  0  0  0  0  0  0  0
   42.0443  135.1091  124.3476 H   0  0  0  0  0  0  0  0  0  0  0  0
   40.3907  134.4076  124.3476 H   0  0  0  0  0  0  0  0  0  0  0  0
   43.4559  134.8418  123.0599 H   0  0  0  0  0  0  0  0  0  0  0  0
   43.3978  133.7075  121.6682 H   0  0  0  0  0  0  0  0  0  0  0  0
   42.3723  135.1824  121.6682 H   0  0  0  0  0  0  0  0  0  0  0  0
   40.5392  136.2155  122.3832 H   0  0  0  0  0  0  0  0  0  0  0  0
   35.1546  132.3754  116.9106 H   0  0  0  0  0  0  0  0  0  0  0  0
   36.7678  131.1506  115.6884 H   0  0  0  0  0  0  0  0  0  0  0  0
   37.2560  132.9361  115.5860 H   0  0  0  0  0  0  0  0  0  0  0  0
   38.0735  129.7806  117.4406 H   0  0  0  0  0  0  0  0  0  0  0  0
   38.0267  132.1207  119.2863 H   0  0  0  0  0  0  0  0  0  0  0  0
   37.4451  130.6519  120.9654 H   0  0  0  0  0  0  0  0  0  0  0  0
   36.3415  129.7356  119.8842 H   0  0  0  0  0  0  0  0  0  0  0  0
   38.1015  129.3764  119.8842 H   0  0  0  0  0  0  0  0  0  0  0  0
   40.1928  130.4874  115.8733 H   0  0  0  0  0  0  0  0  0  0  0  0
   38.7041  130.4931  114.8681 H   0  0  0  0  0  0  0  0  0  0  0  0
   39.7933  131.9215  114.8681 H   0  0  0  0  0  0  0  0  0  0  0  0
   39.3735  134.8704  117.1295 H   0  0  0  0  0  0  0  0  0  0  0  0
   40.2178  133.9646  115.8283 H   0  0  0  0  0  0  0  0  0  0  0  0
   38.4249  134.0743  115.8283 H   0  0  0  0  0  0  0  0  0  0  0  0
   39.7323  130.4878  119.3321 H   0  0  0  0  0  0  0  0  0  0  0  0
  1  2  1  0
  2  3  1  0
  3  4  1  0
  4  5  1  0
  5  6  1  0
  6  7  1  0
  7  8  1  0
  8  9  1  0
  9 10  1  0
 10 11  1  0
 11 12  1  0
 12 13  1  0
 13 14  1  0
 14 15  1  0
 15 16  1  0
  2 17  1  0
  4 18  1  0
  6 19  1  0
  8 20  1  0
 10 21  1  0
 11 22  1  0
 13 23  1  0
  1 24  2  0
  6 25  1  6
 12 26  1  0
 13 27  1  1
  1 28  1  0
 14 28  1  0
 29 30  1  0
 30 31  1  0
 31 32  1  0
 32 33  1  0
 33 34  1  0
  5 37  1  0
 29 37  1  0
 30 38  1  0
 31 39  1  0
 35 39  1  0
 36 39  1  0
 29 40  1  0
 33 40  1  0
 41 42  1  0
 42 43  1  0
 43 44  1  0
 44 45  1  0
 45 46  1  0
 43 47  1  0
  3 49  1  0
 41 49  1  0
 43 50  1  1
 48 50  1  0
 44 51  1  0
 41 52  1  0
 45 52  1  0
  2 53  1  6
  3 54  1  1
  4 55  1  1
  5 56  1  6
  7 57  1  0
  7 58  1  0
  8 59  1  1
  9 60  1  0
  9 61  1  0
 11 62  1  6
 12 63  1  6
 14 64  1  1
 15 65  1  0
 15 66  1  0
 16 67  1  0
 16 68  1  0
 16 69  1  0
 17 70  1  0
 17 71  1  0
 17 72  1  0
 18 73  1  0
 18 74  1  0
 18 75  1  0
 19 76  1  0
 19 77  1  0
 19 78  1  0
 20 79  1  0
 20 80  1  0
 20 81  1  0
 21 82  1  0
 21 83  1  0
 21 84  1  0
 22 85  1  0
 22 86  1  0
 22 87  1  0
 23 88  1  0
 23 89  1  0
 23 90  1  0
 25 91  1  0
 26 92  1  0
 27 93  1  0
 29 94  1  6
 30 95  1  1
 31 96  1  6
 32 97  1  0
 32 98  1  0
 33 99  1  6
 34100  1  0
 34101  1  0
 34102  1  0
 35103  1  0
 35104  1  0
 35105  1  0
 36106  1  0
 36107  1  0
 36108  1  0
 38109  1  0
 41110  1  6
 42111  1  0
 42112  1  0
 44113  1  6
 45114  1  1
 46115  1  0
 46116  1  0
 46117  1  0
 47118  1  0
 47119  1  0
 47120  1  0
 48121  1  0
 48122  1  0
 48123  1  0
 51124  1  0
M  END
$$$$
