PDB_DB06626_97
     RDKit          3D

 46 49  0  0  0  0  0  0  0  0999 V2000
   14.1460  158.8920   36.9950 O   0  0  0  0  0  0  0  0  0  0  0  0
   13.1110  158.9860   37.6350 C   0  0  0  0  0  0  0  0  0  0  0  0
   12.4620  160.2570   37.7450 N   0  0  0  0  0  0  0  0  0  0  0  0
   13.0120  161.4260   37.0760 C   0  0  0  0  0  0  0  0  0  0  0  0
   12.5590  157.7730   38.3130 C   0  0  0  0  0  0  0  0  0  0  0  0
   12.2660  157.8050   39.6760 C   0  0  0  0  0  0  0  0  0  0  0  0
   11.7670  156.6730   40.3080 C   0  0  0  0  0  0  0  0  0  0  0  0
   11.5580  155.5010   39.5740 C   0  0  0  0  0  0  0  0  0  0  0  0
   12.3520  156.5920   37.5790 C   0  0  0  0  0  0  0  0  0  0  0  0
   11.8560  155.4710   38.2080 C   0  0  0  0  0  0  0  0  0  0  0  0
   12.7010  156.5180   35.8190 S   0  0  0  0  0  0  0  0  0  0  0  0
   11.4490  155.4060   35.1740 C   0  0  0  0  0  0  0  0  0  0  0  0
   10.0940  155.6050   35.5100 C   0  0  0  0  0  0  0  0  0  0  0  0
    9.1060  154.7310   35.0210 C   0  0  0  0  0  0  0  0  0  0  0  0
   11.8290  154.3550   34.3550 C   0  0  0  0  0  0  0  0  0  0  0  0
   10.8200  153.4660   33.8530 C   0  0  0  0  0  0  0  0  0  0  0  0
   10.9130  152.3630   33.0240 N   0  0  0  0  0  0  0  0  0  0  0  0
    9.6460  151.8660   32.8370 N   0  0  0  0  0  0  0  0  0  0  0  0
    8.7500  152.6100   33.5180 C   0  0  0  0  0  0  0  0  0  0  0  0
    9.4900  153.6500   34.1780 C   0  0  0  0  0  0  0  0  0  0  0  0
    7.2670  152.3500   33.5450 C   0  0  0  0  0  0  0  0  0  0  0  0
    6.3800  153.1480   34.2220 C   0  0  0  0  0  0  0  0  0  0  0  0
    4.9250  152.7650   34.2910 C   0  0  0  0  0  0  0  0  0  0  0  0
    4.4220  151.8900   33.3980 N   0  0  0  0  0  0  0  0  0  0  0  0
    3.1180  151.5270   33.4310 C   0  0  0  0  0  0  0  0  0  0  0  0
    2.2730  152.0660   34.3980 C   0  0  0  0  0  0  0  0  0  0  0  0
    2.7710  152.9720   35.3270 C   0  0  0  0  0  0  0  0  0  0  0  0
    4.1180  153.3270   35.2680 C   0  0  0  0  0  0  0  0  0  0  0  0
   11.5998  160.3446   38.3016 H   0  0  0  0  0  0  0  0  0  0  0  0
   13.3536  162.1521   37.8283 H   0  0  0  0  0  0  0  0  0  0  0  0
   13.8618  161.1225   36.4469 H   0  0  0  0  0  0  0  0  0  0  0  0
   12.2364  161.8872   36.4469 H   0  0  0  0  0  0  0  0  0  0  0  0
   12.4302  158.7279   40.2515 H   0  0  0  0  0  0  0  0  0  0  0  0
   11.5368  156.6984   41.3833 H   0  0  0  0  0  0  0  0  0  0  0  0
   11.1597  154.6039   40.0706 H   0  0  0  0  0  0  0  0  0  0  0  0
   11.6936  154.5476   37.6327 H   0  0  0  0  0  0  0  0  0  0  0  0
    9.8083  156.4473   36.1573 H   0  0  0  0  0  0  0  0  0  0  0  0
    8.0492  154.8811   35.2869 H   0  0  0  0  0  0  0  0  0  0  0  0
   12.8868  154.2043   34.0937 H   0  0  0  0  0  0  0  0  0  0  0  0
   11.7794  151.9814   32.6183 H   0  0  0  0  0  0  0  0  0  0  0  0
    6.8769  151.4800   32.9965 H   0  0  0  0  0  0  0  0  0  0  0  0
    6.7312  154.0670   34.7141 H   0  0  0  0  0  0  0  0  0  0  0  0
    2.7270  150.8082   32.6959 H   0  0  0  0  0  0  0  0  0  0  0  0
    1.2126  151.7750   34.4265 H   0  0  0  0  0  0  0  0  0  0  0  0
    2.1129  153.4020   36.0964 H   0  0  0  0  0  0  0  0  0  0  0  0
    4.5358  154.0452   35.9889 H   0  0  0  0  0  0  0  0  0  0  0  0
  1  2  2  0
  2  3  1  0
  3  4  1  0
  2  5  1  0
  5  6  2  0
  6  7  1  0
  7  8  2  0
  5  9  1  0
  8 10  1  0
  9 10  2  0
  9 11  1  0
 11 12  1  0
 12 13  2  0
 13 14  1  0
 12 15  1  0
 15 16  2  0
 16 17  1  0
 17 18  1  0
 18 19  2  0
 14 20  2  0
 16 20  1  0
 19 20  1  0
 19 21  1  0
 21 22  2  0
 22 23  1  0
 23 24  2  0
 24 25  1  0
 25 26  2  0
 26 27  1  0
 23 28  1  0
 27 28  2  0
  3 29  1  0
  4 30  1  0
  4 31  1  0
  4 32  1  0
  6 33  1  0
  7 34  1  0
  8 35  1  0
 10 36  1  0
 13 37  1  0
 14 38  1  0
 15 39  1  0
 17 40  1  0
 21 41  1  0
 22 42  1  0
 25 43  1  0
 26 44  1  0
 27 45  1  0
 28 46  1  0
M  END
$$$$
