PDB_DB01268_98
     RDKit          3D

 52 54  0  0  0  0  0  0  0  0999 V2000
   30.4310   -1.0870  -77.3110 C   0  0  0  0  0  0  0  0  0  0  0  0
   36.7490   -8.2550  -79.3610 C   0  0  0  0  0  0  0  0  0  0  0  0
   35.3630   -8.3330  -79.0510 C   0  0  0  0  0  0  0  0  0  0  0  0
   36.7290   -5.7850  -79.0920 C   0  0  0  0  0  0  0  0  0  0  0  0
   34.1100   -1.0460  -78.0240 C   0  0  0  0  0  0  0  0  0  0  0  0
   37.4160   -6.9940  -79.3790 C   0  0  0  0  0  0  0  0  0  0  0  0
   35.3420   -5.8670  -78.7840 C   0  0  0  0  0  0  0  0  0  0  0  0
   34.2960   -4.8670  -78.4420 C   0  0  0  0  0  0  0  0  0  0  0  0
   33.0150   -5.6470  -78.2330 C   0  0  0  0  0  0  0  0  0  0  0  0
   32.8040    1.1740  -77.5610 C   0  0  0  0  0  0  0  0  0  0  0  0
   35.4800   -0.4750  -78.2400 C   0  0  0  0  0  0  0  0  0  0  0  0
   34.5760   -3.5460  -78.3710 C   0  0  0  0  0  0  0  0  0  0  0  0
   31.8840   -1.2200  -77.6050 C   0  0  0  0  0  0  0  0  0  0  0  0
   34.6920   -7.1320  -78.7700 C   0  0  0  0  0  0  0  0  0  0  0  0
   33.7640   -2.3980  -78.0890 C   0  0  0  0  0  0  0  0  0  0  0  0
   32.9100   -0.2910  -77.7180 C   0  0  0  0  0  0  0  0  0  0  0  0
   32.4170   -2.4670  -77.8280 N   0  0  0  0  0  0  0  0  0  0  0  0
   33.3450   -6.9850  -78.4480 N   0  0  0  0  0  0  0  0  0  0  0  0
   33.7330    1.7470  -76.7100 N   0  0  0  0  0  0  0  0  0  0  0  0
   31.9230   -5.2050  -77.9410 O   0  0  0  0  0  0  0  0  0  0  0  0
   31.9360    1.8230  -78.1530 O   0  0  0  0  0  0  0  0  0  0  0  0
   38.7250   -6.9540  -79.6720 F   0  0  0  0  0  0  0  0  0  0  0  0
   30.2771   -1.0729  -76.2219 H   0  0  0  0  0  0  0  0  0  0  0  0
   30.0529   -0.1505  -77.7469 H   0  0  0  0  0  0  0  0  0  0  0  0
   29.8892   -1.9393  -77.7469 H   0  0  0  0  0  0  0  0  0  0  0  0
   37.2731   -8.8785  -78.6217 H   0  0  0  0  0  0  0  0  0  0  0  0
   36.7855   -8.5698  -80.4144 H   0  0  0  0  0  0  0  0  0  0  0  0
   34.8590   -8.7984  -79.9108 H   0  0  0  0  0  0  0  0  0  0  0  0
   35.3180   -8.9048  -78.1124 H   0  0  0  0  0  0  0  0  0  0  0  0
   37.2296   -5.3199  -78.2300 H   0  0  0  0  0  0  0  0  0  0  0  0
   36.7710   -5.2130  -80.0306 H   0  0  0  0  0  0  0  0  0  0  0  0
   33.8964   -0.9397  -79.0978 H   0  0  0  0  0  0  0  0  0  0  0  0
   37.1714   -6.8798  -80.4454 H   0  0  0  0  0  0  0  0  0  0  0  0
   35.5855   -5.9773  -77.7170 H   0  0  0  0  0  0  0  0  0  0  0  0
   34.0539   -4.7553  -79.5092 H   0  0  0  0  0  0  0  0  0  0  0  0
   32.7728   -5.5352  -79.3002 H   0  0  0  0  0  0  0  0  0  0  0  0
   32.1155    1.0335  -76.7147 H   0  0  0  0  0  0  0  0  0  0  0  0
   35.9528   -0.2780  -77.2665 H   0  0  0  0  0  0  0  0  0  0  0  0
   36.0915   -1.1932  -78.8059 H   0  0  0  0  0  0  0  0  0  0  0  0
   35.4005    0.4649  -78.8059 H   0  0  0  0  0  0  0  0  0  0  0  0
   35.3679   -3.4928  -77.6094 H   0  0  0  0  0  0  0  0  0  0  0  0
   34.6452   -3.3799  -79.4562 H   0  0  0  0  0  0  0  0  0  0  0  0
   31.6755   -1.1205  -78.6805 H   0  0  0  0  0  0  0  0  0  0  0  0
   34.9357   -7.2454  -77.7033 H   0  0  0  0  0  0  0  0  0  0  0  0
   33.5440   -2.2902  -79.1614 H   0  0  0  0  0  0  0  0  0  0  0  0
   33.1212   -0.3909  -76.6431 H   0  0  0  0  0  0  0  0  0  0  0  0
   32.2672   -3.0497  -76.9920 H   0  0  0  0  0  0  0  0  0  0  0  0
   33.1450   -7.5211  -77.5915 H   0  0  0  0  0  0  0  0  0  0  0  0
   33.4553    1.5757  -75.7331 H   0  0  0  0  0  0  0  0  0  0  0  0
   34.6590    1.3301  -76.8818 H   0  0  0  0  0  0  0  0  0  0  0  0
   31.8342   -5.1691  -76.9556 H   0  0  0  0  0  0  0  0  0  0  0  0
   31.3457    2.2644  -77.4920 H   0  0  0  0  0  0  0  0  0  0  0  0
  2  3  1  0
  2  6  1  0
  4  6  1  0
  4  7  1  0
  7  8  1  0
  8  9  1  0
  5 11  1  0
  8 12  1  0
  1 13  1  0
  3 14  1  0
  7 14  1  0
  5 15  1  0
 12 15  1  0
  5 16  1  0
 10 16  1  0
 13 16  1  0
 13 17  1  0
 15 17  1  0
  9 18  1  0
 14 18  1  0
 10 19  1  0
  9 20  1  0
 10 21  1  0
  6 22  1  0
  1 23  1  0
  1 24  1  0
  1 25  1  0
  2 26  1  0
  2 27  1  0
  3 28  1  0
  3 29  1  0
  4 30  1  0
  4 31  1  0
  5 32  1  0
  6 33  1  0
  7 34  1  0
  8 35  1  0
  9 36  1  0
 10 37  1  0
 11 38  1  0
 11 39  1  0
 11 40  1  0
 12 41  1  0
 12 42  1  0
 13 43  1  0
 14 44  1  0
 15 45  1  0
 16 46  1  0
 17 47  1  0
 18 48  1  0
 19 49  1  0
 19 50  1  0
 20 51  1  0
 21 52  1  0
M  END
>  <PDBID>  (1) 
3G0E

>  <PDB ID>  (1) 
3G0E

>  <Generic Name>  (1) 
Sunitinib

>  <Brand Name>  (1) 
Sutent

>  <DrugBank ID>  (1) 
DB01268

>  <ATC Codes>  (1) 
L01XE04

>  <Ligand ID>  (1) 
B49

>  <Target Name>  (1) 
Vascular endothelial growth factor receptor 3

>  <UniProt ID>  (1) 
P35916

>  <PDB ID.1>  (1) 
3G0E

>  <Seq. Identity>  (1) 
41%

$$$$
