PDB_DB00759_96
     RDKit          3D

 56 59  0  0  0  0  0  0  0  0999 V2000
 -102.7600   29.9970  -29.0670 C   0  0  0  0  0  0  0  0  0  0  0  0
 -102.9780   29.7940  -30.2470 O   0  0  0  0  0  0  0  0  0  0  0  0
 -102.6480   28.9410  -28.0540 C   0  0  0  0  0  0  0  0  0  0  0  0
 -102.2960   27.5630  -28.4140 C   0  0  0  0  0  0  0  0  0  0  0  0
 -101.4320   26.9390  -27.7600 O   0  0  0  0  0  0  0  0  0  0  0  0
 -102.9430   27.0040  -29.4280 N   0  0  0  0  0  0  0  0  0  0  0  0
 -102.9400   29.2360  -26.7340 C   0  0  0  0  0  0  0  0  0  0  0  0
 -102.6840   28.2970  -25.7950 O   0  0  0  0  0  0  0  0  0  0  0  0
 -103.5030   30.5840  -26.3140 C   0  0  1  0  0  0  0  0  0  0  0  0
 -102.8370   30.9070  -25.0380 N   0  0  0  0  0  0  0  0  0  0  0  0
 -101.5040   31.5180  -25.0620 C   0  0  0  0  0  0  0  0  0  0  0  0
 -103.6790   31.5470  -24.0460 C   0  0  0  0  0  0  0  0  0  0  0  0
 -103.4990   31.7320  -27.3600 C   0  0  2  0  0  0  0  0  0  0  0  0
 -104.9300   31.9450  -27.8730 C   0  0  0  0  0  0  0  0  0  0  0  0
 -105.0260   33.2340  -28.7060 C   0  0  2  0  0  0  0  0  0  0  0  0
 -106.3850   33.4790  -29.3950 C   0  0  2  0  0  0  0  0  0  0  0  0
 -107.5810   33.3190  -28.4580 C   0  0  0  0  0  0  0  0  0  0  0  0
 -106.5630   32.4720  -30.4010 O   0  0  0  0  0  0  0  0  0  0  0  0
 -106.3610   34.8430  -30.0960 C   0  0  0  0  0  0  0  0  0  0  0  0
 -107.4540   35.7090  -30.0800 C   0  0  0  0  0  0  0  0  0  0  0  0
 -107.3720   36.9720  -30.6420 C   0  0  0  0  0  0  0  0  0  0  0  0
 -106.2020   37.3940  -31.2450 C   0  0  0  0  0  0  0  0  0  0  0  0
 -105.0990   36.5490  -31.2990 C   0  0  0  0  0  0  0  0  0  0  0  0
 -103.9810   37.0140  -31.9070 O   0  0  0  0  0  0  0  0  0  0  0  0
 -105.1550   35.2510  -30.7280 C   0  0  0  0  0  0  0  0  0  0  0  0
 -103.9690   34.3470  -30.7620 C   0  0  0  0  0  0  0  0  0  0  0  0
 -103.0860   34.4660  -31.6300 O   0  0  0  0  0  0  0  0  0  0  0  0
 -103.8890   33.2920  -29.7130 C   0  0  0  0  0  0  0  0  0  0  0  0
 -102.8050   32.4690  -29.6540 C   0  0  0  0  0  0  0  0  0  0  0  0
 -101.8050   32.4830  -30.5560 O   0  0  0  0  0  0  0  0  0  0  0  0
 -102.5670   31.4490  -28.5440 C   0  0  2  0  0  0  0  0  0  0  0  0
 -101.2140   31.5650  -28.1370 O   0  0  0  0  0  0  0  0  0  0  0  0
 -102.7228   26.0380  -29.7096 H   0  0  0  0  0  0  0  0  0  0  0  0
 -103.6656   27.5359  -29.9338 H   0  0  0  0  0  0  0  0  0  0  0  0
 -102.8833   28.4817  -24.8430 H   0  0  0  0  0  0  0  0  0  0  0  0
 -104.5932   30.4897  -26.2018 H   0  0  0  0  0  0  0  0  0  0  0  0
 -101.1553   31.6778  -24.0310 H   0  0  0  0  0  0  0  0  0  0  0  0
 -100.8042   30.8508  -25.5865 H   0  0  0  0  0  0  0  0  0  0  0  0
 -101.5527   32.4837  -25.5865 H   0  0  0  0  0  0  0  0  0  0  0  0
 -103.3271   31.2795  -23.0387 H   0  0  0  0  0  0  0  0  0  0  0  0
 -103.6308   32.6385  -24.1734 H   0  0  0  0  0  0  0  0  0  0  0  0
 -104.7178   31.2085  -24.1734 H   0  0  0  0  0  0  0  0  0  0  0  0
 -103.1221   32.6369  -26.8609 H   0  0  0  0  0  0  0  0  0  0  0  0
 -105.2196   31.0885  -28.4995 H   0  0  0  0  0  0  0  0  0  0  0  0
 -105.6047   32.0331  -27.0087 H   0  0  0  0  0  0  0  0  0  0  0  0
 -104.9362   34.0552  -27.9796 H   0  0  0  0  0  0  0  0  0  0  0  0
 -107.2376   33.3649  -27.4140 H   0  0  0  0  0  0  0  0  0  0  0  0
 -108.3024   34.1286  -28.6427 H   0  0  0  0  0  0  0  0  0  0  0  0
 -108.0642   32.3482  -28.6427 H   0  0  0  0  0  0  0  0  0  0  0  0
 -106.7179   31.5958  -29.9670 H   0  0  0  0  0  0  0  0  0  0  0  0
 -108.3958   35.3838  -29.6138 H   0  0  0  0  0  0  0  0  0  0  0  0
 -108.2429   37.6432  -30.6083 H   0  0  0  0  0  0  0  0  0  0  0  0
 -106.1433   38.4012  -31.6834 H   0  0  0  0  0  0  0  0  0  0  0  0
 -103.1750   36.4421  -31.9655 H   0  0  0  0  0  0  0  0  0  0  0  0
 -101.0423   31.8593  -30.4592 H   0  0  0  0  0  0  0  0  0  0  0  0
 -101.1660   31.5691  -27.1482 H   0  0  0  0  0  0  0  0  0  0  0  0
  2  1  2  0
  3  1  1  0
  4  3  1  0
  5  4  2  0
  6  4  1  0
  7  3  2  0
  8  7  1  0
  9  7  1  0
 10  9  1  0
 11 10  1  0
 12 10  1  0
 13  9  1  0
 14 13  1  0
 15 14  1  0
 16 15  1  0
 17 16  1  0
 16 18  1  6
 19 16  1  0
 20 19  2  0
 21 20  1  0
 22 21  2  0
 23 22  1  0
 24 23  1  0
 25 23  2  0
 25 19  1  0
 26 25  1  0
 27 26  2  0
 28 26  1  0
 28 15  1  0
 29 28  2  0
 30 29  1  0
 31 29  1  0
 31 13  1  0
 31  1  1  0
 31 32  1  1
  6 33  1  0
  6 34  1  0
  8 35  1  0
  9 36  1  1
 11 37  1  0
 11 38  1  0
 11 39  1  0
 12 40  1  0
 12 41  1  0
 12 42  1  0
 13 43  1  1
 14 44  1  0
 14 45  1  0
 15 46  1  1
 17 47  1  0
 17 48  1  0
 17 49  1  0
 18 50  1  0
 20 51  1  0
 21 52  1  0
 22 53  1  0
 24 54  1  0
 30 55  1  0
 32 56  1  0
M  END
$$$$
