PDB_DB00215_99
     RDKit          3D

 45 47  0  0  0  0  0  0  0  0999 V2000
  -31.1350  -21.3850    2.8650 C   0  0  0  0  0  0  0  0  0  0  0  0
  -33.8980  -19.4500    2.9650 C   0  0  0  0  0  0  0  0  0  0  0  0
  -29.9900  -20.4380    2.4840 C   0  0  0  0  0  0  0  0  0  0  0  0
  -34.5210  -18.1040    2.6230 C   0  0  0  0  0  0  0  0  0  0  0  0
  -29.8120  -22.0140    5.0800 C   0  0  0  0  0  0  0  0  0  0  0  0
  -28.6730  -21.0650    4.6950 C   0  0  0  0  0  0  0  0  0  0  0  0
  -36.3390  -24.5160   -0.2400 C   0  0  0  0  0  0  0  0  0  0  0  0
  -34.9810  -16.1650    0.9500 C   0  0  0  0  0  0  0  0  0  0  0  0
  -27.6020  -20.9260    5.4960 F   0  0  0  0  0  0  0  0  0  0  0  0
  -31.9000  -21.8330    0.6480 O   0  0  0  0  0  0  0  0  0  0  0  0
  -34.9470  -24.0740   -0.5210 N   0  0  0  0  0  0  0  0  0  0  0  0
  -35.4720  -15.1350    0.7380 N   0  0  0  0  0  0  0  0  0  0  0  0
  -32.3350  -21.5380    1.9720 C   0  0  1  0  0  0  0  0  0  0  0  0
  -33.2560  -22.6480    2.5320 C   0  0  0  0  0  0  0  0  0  0  0  0
  -33.0700  -20.2200    1.9140 C   0  0  0  0  0  0  0  0  0  0  0  0
  -32.8670  -19.6410    0.5680 C   0  0  0  0  0  0  0  0  0  0  0  0
  -34.4450  -22.8990    1.5780 C   0  0  0  0  0  0  0  0  0  0  0  0
  -32.0630  -20.6060   -0.1910 C   0  0  0  0  0  0  0  0  0  0  0  0
  -34.1370  -24.0970    0.6780 C   0  0  0  0  0  0  0  0  0  0  0  0
  -33.5050  -18.2670    0.2200 C   0  0  0  0  0  0  0  0  0  0  0  0
  -31.0370  -22.1720    4.1610 C   0  0  0  0  0  0  0  0  0  0  0  0
  -34.3400  -17.5210    1.2580 C   0  0  0  0  0  0  0  0  0  0  0  0
  -28.7610  -20.2790    3.3990 C   0  0  0  0  0  0  0  0  0  0  0  0
  -34.9270  -22.7700   -1.1390 C   0  0  0  0  0  0  0  0  0  0  0  0
  -34.0389  -19.8773    3.9688 H   0  0  0  0  0  0  0  0  0  0  0  0
  -30.0472  -19.8657    1.5463 H   0  0  0  0  0  0  0  0  0  0  0  0
  -35.1046  -17.5600    3.3803 H   0  0  0  0  0  0  0  0  0  0  0  0
  -29.7544  -22.5856    6.0180 H   0  0  0  0  0  0  0  0  0  0  0  0
  -36.4954  -24.5657    0.8477 H   0  0  0  0  0  0  0  0  0  0  0  0
  -37.0474  -23.7986   -0.6799 H   0  0  0  0  0  0  0  0  0  0  0  0
  -36.5037  -25.5106   -0.6799 H   0  0  0  0  0  0  0  0  0  0  0  0
  -32.6774  -23.5772    2.6412 H   0  0  0  0  0  0  0  0  0  0  0  0
  -33.6462  -22.3264    3.5089 H   0  0  0  0  0  0  0  0  0  0  0  0
  -35.3499  -23.1073    2.1678 H   0  0  0  0  0  0  0  0  0  0  0  0
  -34.6084  -22.0070    0.9555 H   0  0  0  0  0  0  0  0  0  0  0  0
  -31.0767  -20.1744   -0.4167 H   0  0  0  0  0  0  0  0  0  0  0  0
  -32.5605  -20.8553   -1.1399 H   0  0  0  0  0  0  0  0  0  0  0  0
  -34.3433  -25.0244    1.2324 H   0  0  0  0  0  0  0  0  0  0  0  0
  -33.0783  -24.0478    0.3836 H   0  0  0  0  0  0  0  0  0  0  0  0
  -33.3543  -17.8303   -0.7783 H   0  0  0  0  0  0  0  0  0  0  0  0
  -31.8473  -22.8597    4.4447 H   0  0  0  0  0  0  0  0  0  0  0  0
  -27.9473  -19.5961    3.1135 H   0  0  0  0  0  0  0  0  0  0  0  0
  -34.9151  -21.9946   -0.3588 H   0  0  0  0  0  0  0  0  0  0  0  0
  -34.0273  -22.6745   -1.7646 H   0  0  0  0  0  0  0  0  0  0  0  0
  -35.8234  -22.6469   -1.7646 H   0  0  0  0  0  0  0  0  0  0  0  0
  1  3  2  0
  2  4  2  0
  5  6  1  0
  6  9  1  0
  7 11  1  0
  8 12  3  0
  1 13  1  0
 10 13  1  0
 13 14  1  1
  2 15  1  0
 13 15  1  0
 15 16  2  0
 14 17  1  0
 10 18  1  0
 16 18  1  0
 11 19  1  0
 17 19  1  0
 16 20  1  0
  1 21  1  0
  5 21  2  0
  4 22  1  0
  8 22  1  0
 20 22  2  0
  3 23  1  0
  6 23  2  0
 11 24  1  0
  2 25  1  0
  3 26  1  0
  4 27  1  0
  5 28  1  0
  7 29  1  0
  7 30  1  0
  7 31  1  0
 14 32  1  0
 14 33  1  0
 17 34  1  0
 17 35  1  0
 18 36  1  0
 18 37  1  0
 19 38  1  0
 19 39  1  0
 20 40  1  0
 21 41  1  0
 23 42  1  0
 24 43  1  0
 24 44  1  0
 24 45  1  0
M  END
>  <PDBID>  (1) 
5I71

>  <PDB ID>  (1) 
5I71

>  <Generic Name>  (1) 
Citalopram

>  <Brand Name>  (1) 
Abbott-citalopram#Accel-citalopram Tablets#Act Citalopram#Ag-citalopram#Apo-citalopram#Auro-citalopram#Ava-citalopram#Bio-citalopram#Celexa#Celexa 10 mg#Celexa 20 mg#Celexa 40 mg#Citalopram#Citalopram Hydrobromide#Citalopram Tablets#Citalopram Tablets USP#Citalopram-10#Citalopram-20#Citalopram-40#Citalopram-odan#Ctp 30#Dom-citalopram#Ecl-citalopram#Ipg-citalopram#Jamp-citalopram#Manda-citalopram#Mar-citalopram#Mint-citalopram#Mylan-citalopram#Nat-citalopram#Nat-citalopram Tablets#Ng Citalopram#Novo-citalopram#Ntp-citalopram#Nu-citalopram#PHL-citalopram#PMS-citalopram#Pendo-citalopram#Perrigo Citalopram#Priva-citalopram#Q-citalopram#Ran-citalo#Ran-citalopram#Ratio-citalopram#Riva-citalopram#Sandoz Citalopram#Sentralopram Am-10#Septa-citalopram#Teva-citalopram#Van-citalopram#Akarin#Celapram#Ciazil#Cilift#Cipram#Cipramil#Ciprapine#Citabax#Citalec#Citol#Citopam#Citox#Citrol#Dalsan#Elopram#Humorup#Oropram#Pramcit#Recital#Seropram#Talam#Talohexal#Temperax#Vodelax#Zentius#Zetalo

>  <DrugBank ID>  (1) 
DB00215

>  <ATC Codes>  (1) 
N06AB04

>  <Ligand ID>  (1) 
68P

>  <Target Name>  (1) 
Sodium-dependent serotonin transporter

>  <UniProt ID>  (1) 
P31645

>  <PDB ID.1>  (1) 
5I71

>  <Seq. Identity>  (1) 
99%

$$$$
