PDB_DB00218_93
     RDKit          3D

 53 57  0  0  0  0  0  0  0  0999 V2000
  104.5570   13.7450  316.6260 F   0  0  0  0  0  0  0  0  0  0  0  0
  106.5620    9.3940  317.4150 O   0  0  0  0  0  0  0  0  0  0  0  0
  104.0100   11.4960  312.3750 O   0  0  0  0  0  0  0  0  0  0  0  0
  104.8880    7.8380  310.6570 O   0  0  0  0  0  0  0  0  0  0  0  0
  103.9470    9.7850  310.1820 O   0  0  0  0  0  0  0  0  0  0  0  0
  105.8720   11.9230  318.3350 N   0  0  0  0  0  0  0  0  0  0  0  0
  105.2170   11.4360  321.6150 N   0  0  0  0  0  0  0  0  0  0  0  0
  105.8970    8.6030  314.5220 N   0  0  0  0  0  0  0  0  0  0  0  0
  107.0310   12.7250  320.2640 C   0  0  2  0  0  0  0  0  0  0  0  0
  105.5260   12.5020  320.6310 C   0  0  1  0  0  0  0  0  0  0  0  0
  107.2130   12.0270  318.8910 C   0  0  0  0  0  0  0  0  0  0  0  0
  104.8100   12.2230  319.2850 C   0  0  0  0  0  0  0  0  0  0  0  0
  108.0920   12.2230  321.2870 C   0  0  0  0  0  0  0  0  0  0  0  0
  106.5590    7.3480  314.9150 C   0  0  0  0  0  0  0  0  0  0  0  0
  107.5650   11.3340  322.4470 C   0  0  0  0  0  0  0  0  0  0  0  0
  106.6450    6.6690  316.3370 C   0  0  0  0  0  0  0  0  0  0  0  0
  107.9200    7.3680  315.7160 C   0  0  0  0  0  0  0  0  0  0  0  0
  106.0750   11.5640  322.8070 C   0  0  0  0  0  0  0  0  0  0  0  0
  105.5880   11.4980  317.0030 C   0  0  0  0  0  0  0  0  0  0  0  0
  105.6410    9.7940  315.1530 C   0  0  0  0  0  0  0  0  0  0  0  0
  105.9390   10.2020  316.5080 C   0  0  0  0  0  0  0  0  0  0  0  0
  104.9720   10.7890  314.3640 C   0  0  0  0  0  0  0  0  0  0  0  0
  104.9360   12.4170  316.1740 C   0  0  0  0  0  0  0  0  0  0  0  0
  105.5480    8.4140  313.2540 C   0  0  0  0  0  0  0  0  0  0  0  0
  104.6360   12.0530  314.8670 C   0  0  0  0  0  0  0  0  0  0  0  0
  104.8980    9.3460  312.4470 C   0  0  0  0  0  0  0  0  0  0  0  0
  104.5970   10.5830  313.0210 C   0  0  0  0  0  0  0  0  0  0  0  0
  104.5780    8.9610  311.0540 C   0  0  0  0  0  0  0  0  0  0  0  0
  105.8470    8.8640  318.5080 C   0  0  0  0  0  0  0  0  0  0  0  0
  105.3501    7.2081  311.2651 H   0  0  0  0  0  0  0  0  0  0  0  0
  104.2299   11.5134  321.8988 H   0  0  0  0  0  0  0  0  0  0  0  0
  107.2237   13.8080  320.2566 H   0  0  0  0  0  0  0  0  0  0  0  0
  105.1784   13.4043  321.1554 H   0  0  0  0  0  0  0  0  0  0  0  0
  107.6549   11.0282  319.0216 H   0  0  0  0  0  0  0  0  0  0  0  0
  107.8894   12.5892  318.2305 H   0  0  0  0  0  0  0  0  0  0  0  0
  104.2425   13.1078  318.9607 H   0  0  0  0  0  0  0  0  0  0  0  0
  104.0911   11.3946  319.3689 H   0  0  0  0  0  0  0  0  0  0  0  0
  108.8422   11.6401  320.7326 H   0  0  0  0  0  0  0  0  0  0  0  0
  108.4859   13.1299  321.7690 H   0  0  0  0  0  0  0  0  0  0  0  0
  106.1664    6.9822  313.9548 H   0  0  0  0  0  0  0  0  0  0  0  0
  107.6896   10.2804  322.1564 H   0  0  0  0  0  0  0  0  0  0  0  0
  108.1481   11.6058  323.3393 H   0  0  0  0  0  0  0  0  0  0  0  0
  106.1314    7.1250  317.1962 H   0  0  0  0  0  0  0  0  0  0  0  0
  106.4233    5.6681  316.7358 H   0  0  0  0  0  0  0  0  0  0  0  0
  108.7693    6.7588  315.3731 H   0  0  0  0  0  0  0  0  0  0  0  0
  108.6167    8.1521  316.0473 H   0  0  0  0  0  0  0  0  0  0  0  0
  105.9583   12.5738  323.2273 H   0  0  0  0  0  0  0  0  0  0  0  0
  105.7706   10.8033  323.5409 H   0  0  0  0  0  0  0  0  0  0  0  0
  105.7925    7.4407  312.8036 H   0  0  0  0  0  0  0  0  0  0  0  0
  104.1233   12.7732  314.2125 H   0  0  0  0  0  0  0  0  0  0  0  0
  106.3071    9.2050  319.4472 H   0  0  0  0  0  0  0  0  0  0  0  0
  104.8031    9.2082  318.4649 H   0  0  0  0  0  0  0  0  0  0  0  0
  105.8728    7.7651  318.4649 H   0  0  0  0  0  0  0  0  0  0  0  0
  7 10  1  0
  9 10  1  0
  6 11  1  0
  9 11  1  0
  6 12  1  0
 10 12  1  0
  9 13  1  0
  8 14  1  0
 13 15  1  0
 14 16  1  0
 14 17  1  0
 16 17  1  0
  7 18  1  0
 15 18  1  0
  6 19  1  0
  8 20  1  0
  2 21  1  0
 19 21  2  0
 20 21  1  0
 20 22  2  0
  1 23  1  0
 19 23  1  0
  8 24  1  0
 22 25  1  0
 23 25  2  0
 24 26  2  0
  3 27  2  0
 22 27  1  0
 26 27  1  0
  4 28  1  0
  5 28  2  0
 26 28  1  0
  2 29  1  0
  4 30  1  0
  7 31  1  0
  9 32  1  6
 10 33  1  1
 11 34  1  0
 11 35  1  0
 12 36  1  0
 12 37  1  0
 13 38  1  0
 13 39  1  0
 14 40  1  0
 15 41  1  0
 15 42  1  0
 16 43  1  0
 16 44  1  0
 17 45  1  0
 17 46  1  0
 18 47  1  0
 18 48  1  0
 24 49  1  0
 25 50  1  0
 29 51  1  0
 29 52  1  0
 29 53  1  0
M  END
$$$$
