PDB_DB01254_92
     RDKit          3D

 59 62  0  0  0  0  0  0  0  0999 V2000
    1.3910   -2.7550   33.2040 C   0  0  0  0  0  0  0  0  0  0  0  0
    2.2960   -3.7330   33.0750 C   0  0  0  0  0  0  0  0  0  0  0  0
    3.6930   -3.7370   33.7000 C   0  0  0  0  0  0  0  0  0  0  0  0
   -4.8200   -8.9690   26.8900 N   0  0  0  0  0  0  0  0  0  0  0  0
    7.5610   -2.5010   36.4630 C   0  0  0  0  0  0  0  0  0  0  0  0
    6.5200   -3.1940   37.0690 C   0  0  0  0  0  0  0  0  0  0  0  0
    5.2860   -3.2870   36.4370 C   0  0  0  0  0  0  0  0  0  0  0  0
    4.1400   -4.0490   37.1040 C   0  0  0  0  0  0  0  0  0  0  0  0
   -0.7490   -5.7770   30.5590 C   0  0  0  0  0  0  0  0  0  0  0  0
   -1.8700   -6.3330   29.9590 C   0  0  0  0  0  0  0  0  0  0  0  0
   -1.7420   -7.5540   29.3120 C   0  0  0  0  0  0  0  0  0  0  0  0
    0.5210   -7.6060   29.8710 C   0  0  0  0  0  0  0  0  0  0  0  0
    1.8700   -8.3250   29.8210 C   0  0  0  0  0  0  0  0  0  0  0  0
   -2.7210   -9.4700   28.0510 C   0  0  0  0  0  0  0  0  0  0  0  0
   -4.1540   -7.4420   28.6870 C   0  0  0  0  0  0  0  0  0  0  0  0
   -5.5620   -9.0970   25.6280 C   0  0  0  0  0  0  0  0  0  0  0  0
   -6.4780   -7.8850   25.4490 C   0  0  0  0  0  0  0  0  0  0  0  0
   -0.8370   -4.6080   31.1870 N   0  0  0  0  0  0  0  0  0  0  0  0
    0.1920   -4.1540   31.8980 C   0  0  0  0  0  0  0  0  0  0  0  0
    0.2280   -2.9880   32.5540 N   0  0  0  0  0  0  0  0  0  0  0  0
    1.6520   -4.9520   32.1170 S   0  0  0  0  0  0  0  0  0  0  0  0
    3.9120   -2.7760   34.5930 N   0  0  0  0  0  0  0  0  0  0  0  0
    5.0930   -2.6870   35.1980 C   0  0  0  0  0  0  0  0  0  0  0  0
    6.1340   -1.9940   34.5910 C   0  0  0  0  0  0  0  0  0  0  0  0
    7.3680   -1.9010   35.2240 C   0  0  0  0  0  0  0  0  0  0  0  0
    5.8940   -1.2480   33.0490 Cl  0  0  0  0  0  0  0  0  0  0  0  0
    4.5280   -4.5810   33.3790 O   0  0  0  0  0  0  0  0  0  0  0  0
   -0.5490   -8.1640   29.2820 N   0  0  0  0  0  0  0  0  0  0  0  0
    0.4220   -6.4260   30.5020 N   0  0  0  0  0  0  0  0  0  0  0  0
   -2.8510   -8.1440   28.6950 N   0  0  0  0  0  0  0  0  0  0  0  0
   -3.4460   -9.4570   26.7030 C   0  0  0  0  0  0  0  0  0  0  0  0
   -4.7880   -7.5570   27.2990 C   0  0  0  0  0  0  0  0  0  0  0  0
   -6.0150   -7.0950   24.3500 O   0  0  0  0  0  0  0  0  0  0  0  0
    1.5770   -1.8414   33.7878 H   0  0  0  0  0  0  0  0  0  0  0  0
    8.5377   -2.4272   36.9637 H   0  0  0  0  0  0  0  0  0  0  0  0
    6.6729   -3.6691   38.0493 H   0  0  0  0  0  0  0  0  0  0  0  0
    4.2419   -3.9812   38.1972 H   0  0  0  0  0  0  0  0  0  0  0  0
    3.1796   -3.6090   36.7973 H   0  0  0  0  0  0  0  0  0  0  0  0
    4.1742   -5.1048   36.7973 H   0  0  0  0  0  0  0  0  0  0  0  0
   -2.8404   -5.8163   29.9955 H   0  0  0  0  0  0  0  0  0  0  0  0
    2.2233   -8.5133   30.8456 H   0  0  0  0  0  0  0  0  0  0  0  0
    1.7560   -9.2820   29.2907 H   0  0  0  0  0  0  0  0  0  0  0  0
    2.6009   -7.6968   29.2907 H   0  0  0  0  0  0  0  0  0  0  0  0
   -1.6566   -9.6976   27.8924 H   0  0  0  0  0  0  0  0  0  0  0  0
   -3.1680  -10.2376   28.6998 H   0  0  0  0  0  0  0  0  0  0  0  0
   -4.8208   -7.8984   29.4334 H   0  0  0  0  0  0  0  0  0  0  0  0
   -3.9998   -6.3809   28.9324 H   0  0  0  0  0  0  0  0  0  0  0  0
   -4.8523   -9.1472   24.7890 H   0  0  0  0  0  0  0  0  0  0  0  0
   -6.1685  -10.0144   25.6511 H   0  0  0  0  0  0  0  0  0  0  0  0
   -7.5038   -8.2273   25.2479 H   0  0  0  0  0  0  0  0  0  0  0  0
   -6.4669   -7.2785   26.3666 H   0  0  0  0  0  0  0  0  0  0  0  0
   -1.7026   -4.0535   31.1229 H   0  0  0  0  0  0  0  0  0  0  0  0
    3.1669   -2.1007   34.8160 H   0  0  0  0  0  0  0  0  0  0  0  0
    8.1921   -1.3525   34.7444 H   0  0  0  0  0  0  0  0  0  0  0  0
   -3.4720  -10.4765   26.2908 H   0  0  0  0  0  0  0  0  0  0  0  0
   -2.9129   -8.7932   26.0064 H   0  0  0  0  0  0  0  0  0  0  0  0
   -4.1940   -6.9791   26.5756 H   0  0  0  0  0  0  0  0  0  0  0  0
   -5.8138   -7.1612   27.3306 H   0  0  0  0  0  0  0  0  0  0  0  0
   -5.5456   -6.2941   24.6939 H   0  0  0  0  0  0  0  0  0  0  0  0
  1  2  2  0
  2  3  1  0
  5  6  2  0
  6  7  1  0
  7  8  1  0
  9 10  2  0
 10 11  1  0
 12 13  1  0
  4 16  1  0
 16 17  1  0
  9 18  1  0
 18 19  1  0
  1 20  1  0
 19 20  2  0
  2 21  1  0
 19 21  1  0
  3 22  1  0
  7 23  2  0
 22 23  1  0
 23 24  1  0
  5 25  1  0
 24 25  2  0
 24 26  1  0
  3 27  2  0
 11 28  2  0
 12 28  1  0
  9 29  1  0
 12 29  2  0
 11 30  1  0
 14 30  1  0
 15 30  1  0
  4 31  1  0
 14 31  1  0
  4 32  1  0
 15 32  1  0
 17 33  1  0
  1 34  1  0
  5 35  1  0
  6 36  1  0
  8 37  1  0
  8 38  1  0
  8 39  1  0
 10 40  1  0
 13 41  1  0
 13 42  1  0
 13 43  1  0
 14 44  1  0
 14 45  1  0
 15 46  1  0
 15 47  1  0
 16 48  1  0
 16 49  1  0
 17 50  1  0
 17 51  1  0
 18 52  1  0
 22 53  1  0
 25 54  1  0
 31 55  1  0
 31 56  1  0
 32 57  1  0
 32 58  1  0
 33 59  1  0
M  END
$$$$
