PDB_DB00311_98
     RDKit          3D

 26 27  0  0  0  0  0  0  0  0999 V2000
   -5.4350   -0.3930   16.2740 N   0  0  0  0  0  0  0  0  0  0  0  0
   -3.6220    3.6100   15.2860 C   0  0  0  0  0  0  0  0  0  0  0  0
   -4.7550    4.2550   14.8040 C   0  0  0  0  0  0  0  0  0  0  0  0
   -4.6560    5.4720   14.0860 C   0  0  0  0  0  0  0  0  0  0  0  0
   -3.3160    5.8910   13.8480 C   0  0  0  0  0  0  0  0  0  0  0  0
   -1.8810    7.8730   13.1870 C   0  0  0  0  0  0  0  0  0  0  0  0
   -5.4950    1.0490   18.3050 O   0  0  0  0  0  0  0  0  0  0  0  0
   -7.3680    1.1190   16.7460 O   0  0  0  0  0  0  0  0  0  0  0  0
   -5.9750    0.9350   16.9030 S   0  0  0  0  0  0  0  0  0  0  0  0
   -5.2300    2.2940   16.0620 C   0  0  0  0  0  0  0  0  0  0  0  0
   -3.9160    2.4640   15.9490 N   0  0  0  0  0  0  0  0  0  0  0  0
   -6.1370    3.4830   15.3160 S   0  0  0  0  0  0  0  0  0  0  0  0
   -2.1750    5.2170   14.2850 C   0  0  0  0  0  0  0  0  0  0  0  0
   -2.2870    4.0090   14.9960 C   0  0  0  0  0  0  0  0  0  0  0  0
   -3.1140    7.0290   13.0770 O   0  0  0  0  0  0  0  0  0  0  0  0
   -1.6970    8.4610   14.6020 C   0  0  0  0  0  0  0  0  0  0  0  0
   -5.1696   -1.0457   17.0253 H   0  0  0  0  0  0  0  0  0  0  0  0
   -6.1691   -0.8203   15.6914 H   0  0  0  0  0  0  0  0  0  0  0  0
   -5.5331    6.0408   13.7439 H   0  0  0  0  0  0  0  0  0  0  0  0
   -1.0053    7.2528   12.9452 H   0  0  0  0  0  0  0  0  0  0  0  0
   -1.9850    8.7132   12.4847 H   0  0  0  0  0  0  0  0  0  0  0  0
   -1.1798    5.6341   14.0716 H   0  0  0  0  0  0  0  0  0  0  0  0
   -1.4114    3.4187   15.3039 H   0  0  0  0  0  0  0  0  0  0  0  0
   -1.9373    7.6932   15.3522 H   0  0  0  0  0  0  0  0  0  0  0  0
   -0.6541    8.7862   14.7312 H   0  0  0  0  0  0  0  0  0  0  0  0
   -2.3685    9.3227   14.7312 H   0  0  0  0  0  0  0  0  0  0  0  0
  2  3  1  0
  3  4  2  0
  4  5  1  0
  1  9  1  0
  7  9  2  0
  8  9  2  0
  9 10  1  0
  2 11  1  0
 10 11  2  0
  3 12  1  0
 10 12  1  0
  5 13  2  0
  2 14  2  0
 13 14  1  0
  5 15  1  0
  6 15  1  0
  6 16  1  0
  1 17  1  0
  1 18  1  0
  4 19  1  0
  6 20  1  0
  6 21  1  0
 13 22  1  0
 14 23  1  0
 16 24  1  0
 16 25  1  0
 16 26  1  0
M  END
>  <PDBID>  (1) 
3DCW

>  <PDB ID>  (1) 
3DCW

>  <Generic Name>  (1) 
Ethoxzolamide

>  <Brand Name>  (1) 
Cardrase#Ethamide

>  <DrugBank ID>  (1) 
DB00311

>  <ATC Codes>  (1) 
nan

>  <Ligand ID>  (1) 
EZL

>  <Target Name>  (1) 
Carbonic anhydrase 1

>  <UniProt ID>  (1) 
P00915

>  <PDB ID.1>  (1) 
3DCW

>  <Seq. Identity>  (1) 
61%

$$$$
