PDB_DB00503_97
     RDKit          3D

124127  0  0  0  0  0  0  0  0999 V2000
   31.2900   -7.2170   17.2400 C   0  0  0  0  0  0  0  0  0  0  0  0
   32.0650   -6.0980   17.2900 C   0  0  2  0  0  0  0  0  0  0  0  0
   32.2700   -5.9100   18.9960 S   0  0  0  0  0  0  0  0  0  0  0  0
   31.3070   -7.2800   19.3840 C   0  0  0  0  0  0  0  0  0  0  0  0
   30.8620   -7.9200   18.3910 N   0  0  0  0  0  0  0  0  0  0  0  0
   31.8440   -4.7010   16.7500 C   0  0  0  0  0  0  0  0  0  0  0  0
   32.8840   -4.1710   15.9390 O   0  0  0  0  0  0  0  0  0  0  0  0
   32.3110   -3.1470   15.2510 C   0  0  0  0  0  0  0  0  0  0  0  0
   32.5520   -3.0660   14.0800 O   0  0  0  0  0  0  0  0  0  0  0  0
   31.4920   -2.3960   15.9730 N   0  0  0  0  0  0  0  0  0  0  0  0
   30.4190   -1.6560   15.3340 C   0  0  2  0  0  0  0  0  0  0  0  0
   30.5860   -0.1340   15.5610 C   0  0  2  0  0  0  0  0  0  0  0  0
   31.8000    0.4980   14.8650 C   0  0  0  0  0  0  0  0  0  0  0  0
   31.6800    0.6320   13.3440 C   0  0  2  0  0  0  0  0  0  0  0  0
   29.0670   -2.0610   15.9260 C   0  0  0  0  0  0  0  0  0  0  0  0
   28.7190   -3.5500   15.8170 C   0  0  2  0  0  0  0  0  0  0  0  0
   28.3630   -4.1170   14.6070 C   0  0  0  0  0  0  0  0  0  0  0  0
   28.0090   -5.4760   14.5370 C   0  0  0  0  0  0  0  0  0  0  0  0
   28.0600   -6.2360   15.6950 C   0  0  0  0  0  0  0  0  0  0  0  0
   28.4310   -5.6320   16.8780 C   0  0  0  0  0  0  0  0  0  0  0  0
   28.6080   -4.2840   16.9630 C   0  0  0  0  0  0  0  0  0  0  0  0
   30.6670    0.2020   16.9310 O   0  0  0  0  0  0  0  0  0  0  0  0
   32.9810    1.3490   12.8900 C   0  0  0  0  0  0  0  0  0  0  0  0
   33.1610    1.3510   11.3890 C   0  0  0  0  0  0  0  0  0  0  0  0
   32.6200    2.3890   10.6370 C   0  0  0  0  0  0  0  0  0  0  0  0
   32.8140    2.3520    9.2800 C   0  0  0  0  0  0  0  0  0  0  0  0
   33.5930    1.3820    8.6350 C   0  0  0  0  0  0  0  0  0  0  0  0
   34.0950    0.3260    9.3990 C   0  0  0  0  0  0  0  0  0  0  0  0
   33.8740    0.3320   10.7510 C   0  0  0  0  0  0  0  0  0  0  0  0
   30.4630    1.2560   12.9120 N   0  0  0  0  0  0  0  0  0  0  0  0
   28.8720    2.3670   10.5180 N   0  0  0  0  0  0  0  0  0  0  0  0
   28.4750    1.6920   11.8070 C   0  0  2  0  0  0  0  0  0  0  0  0
   29.5460    0.6770   12.1500 C   0  0  0  0  0  0  0  0  0  0  0  0
   29.5980   -0.4840   11.7620 O   0  0  0  0  0  0  0  0  0  0  0  0
   27.1000    1.3920   12.1320 C   0  0  1  0  0  0  0  0  0  0  0  0
   26.0810    2.0750   11.1860 C   0  0  0  0  0  0  0  0  0  0  0  0
   26.6730    0.0330   12.5490 C   0  0  0  0  0  0  0  0  0  0  0  0
   29.2700    3.6540   10.5860 C   0  0  0  0  0  0  0  0  0  0  0  0
   29.6480    4.3130    9.4460 N   0  0  0  0  0  0  0  0  0  0  0  0
   30.1550    5.6850    9.5510 C   0  0  0  0  0  0  0  0  0  0  0  0
   29.2560    4.2720   11.6610 O   0  0  0  0  0  0  0  0  0  0  0  0
   31.6720    5.7240    9.3990 C   0  0  0  0  0  0  0  0  0  0  0  0
   32.5650    5.8960   10.4320 C   0  0  0  0  0  0  0  0  0  0  0  0
   34.1260    5.8780    9.7960 S   0  0  0  0  0  0  0  0  0  0  0  0
   33.5170    5.6960    8.2310 C   0  0  0  0  0  0  0  0  0  0  0  0
   32.2220    5.6270    8.1620 N   0  0  0  0  0  0  0  0  0  0  0  0
   34.4660    5.6730    7.1260 C   0  0  2  0  0  0  0  0  0  0  0  0
   34.1520    4.3810    6.3040 C   0  0  0  0  0  0  0  0  0  0  0  0
   35.9420    5.7750    7.4360 C   0  0  0  0  0  0  0  0  0  0  0  0
   29.6050    3.6400    8.1410 C   0  0  0  0  0  0  0  0  0  0  0  0
   30.3730   -6.9246   16.7074 H   0  0  0  0  0  0  0  0  0  0  0  0
   31.9856   -7.9413   16.7911 H   0  0  0  0  0  0  0  0  0  0  0  0
   32.8214   -6.3643   16.5371 H   0  0  0  0  0  0  0  0  0  0  0  0
   31.9193   -7.9675   19.9860 H   0  0  0  0  0  0  0  0  0  0  0  0
   30.4269   -6.8943   19.9194 H   0  0  0  0  0  0  0  0  0  0  0  0
   29.8332   -7.9581   18.4234 H   0  0  0  0  0  0  0  0  0  0  0  0
   30.9232   -4.7153   16.1484 H   0  0  0  0  0  0  0  0  0  0  0  0
   31.7969   -4.0474   17.6335 H   0  0  0  0  0  0  0  0  0  0  0  0
   33.1803   -2.5108   15.4739 H   0  0  0  0  0  0  0  0  0  0  0  0
   33.4830   -2.7531   13.9556 H   0  0  0  0  0  0  0  0  0  0  0  0
   31.0505   -3.0198   16.6635 H   0  0  0  0  0  0  0  0  0  0  0  0
   30.4591   -1.8866   14.2592 H   0  0  0  0  0  0  0  0  0  0  0  0
   29.6735    0.2777   15.1052 H   0  0  0  0  0  0  0  0  0  0  0  0
   31.9482    1.5038   15.2851 H   0  0  0  0  0  0  0  0  0  0  0  0
   32.6455   -0.1817   15.0469 H   0  0  0  0  0  0  0  0  0  0  0  0
   31.5981   -0.3515   12.8583 H   0  0  0  0  0  0  0  0  0  0  0  0
   29.0690   -1.7905   16.9922 H   0  0  0  0  0  0  0  0  0  0  0  0
   28.3068   -1.5288   15.3354 H   0  0  0  0  0  0  0  0  0  0  0  0
   29.7468   -3.7682   15.4913 H   0  0  0  0  0  0  0  0  0  0  0  0
   27.5008   -3.5461   14.2319 H   0  0  0  0  0  0  0  0  0  0  0  0
   29.2962   -4.0721   14.0263 H   0  0  0  0  0  0  0  0  0  0  0  0
   26.9753   -5.5229   14.1638 H   0  0  0  0  0  0  0  0  0  0  0  0
   28.7800   -5.9207   13.8906 H   0  0  0  0  0  0  0  0  0  0  0  0
   27.0549   -6.6554   15.8492 H   0  0  0  0  0  0  0  0  0  0  0  0
   28.8699   -6.9549   15.5019 H   0  0  0  0  0  0  0  0  0  0  0  0
   27.6564   -5.8906   17.6149 H   0  0  0  0  0  0  0  0  0  0  0  0
   29.4510   -6.0149   17.0297 H   0  0  0  0  0  0  0  0  0  0  0  0
   29.5289   -4.1173   17.5410 H   0  0  0  0  0  0  0  0  0  0  0  0
   27.6692   -3.9263   17.4109 H   0  0  0  0  0  0  0  0  0  0  0  0
   30.4738   -0.5993   17.4793 H   0  0  0  0  0  0  0  0  0  0  0  0
   32.9475    2.3911   13.2405 H   0  0  0  0  0  0  0  0  0  0  0  0
   33.8288    0.7975   13.3225 H   0  0  0  0  0  0  0  0  0  0  0  0
   32.2263    0.7821   11.2762 H   0  0  0  0  0  0  0  0  0  0  0  0
   31.5345    2.3948   10.8152 H   0  0  0  0  0  0  0  0  0  0  0  0
   33.1552    3.2892   10.9735 H   0  0  0  0  0  0  0  0  0  0  0  0
   31.8108    2.2760    8.8352 H   0  0  0  0  0  0  0  0  0  0  0  0
   33.4250    3.2537    9.1266 H   0  0  0  0  0  0  0  0  0  0  0  0
   32.9744    0.9433    7.8382 H   0  0  0  0  0  0  0  0  0  0  0  0
   34.4880    1.9276    8.3013 H   0  0  0  0  0  0  0  0  0  0  0  0
   33.6532   -0.6000    9.0023 H   0  0  0  0  0  0  0  0  0  0  0  0
   35.1868    0.4223    9.3052 H   0  0  0  0  0  0  0  0  0  0  0  0
   34.8672    0.3115   11.2234 H   0  0  0  0  0  0  0  0  0  0  0  0
   33.1991   -0.5279   10.8740 H   0  0  0  0  0  0  0  0  0  0  0  0
   29.9718    1.5292   13.7751 H   0  0  0  0  0  0  0  0  0  0  0  0
   29.6482    1.8250   10.1122 H   0  0  0  0  0  0  0  0  0  0  0  0
   28.4410    2.4942   12.5589 H   0  0  0  0  0  0  0  0  0  0  0  0
   28.9826    0.3863   13.0489 H   0  0  0  0  0  0  0  0  0  0  0  0
   29.6252   -1.0920   12.5428 H   0  0  0  0  0  0  0  0  0  0  0  0
   27.0884    1.8690   13.1231 H   0  0  0  0  0  0  0  0  0  0  0  0
   25.3137    2.5893   11.7833 H   0  0  0  0  0  0  0  0  0  0  0  0
   26.6029    2.8064   10.5515 H   0  0  0  0  0  0  0  0  0  0  0  0
   25.6028    1.3143   10.5515 H   0  0  0  0  0  0  0  0  0  0  0  0
   26.6549   -0.0247   13.6473 H   0  0  0  0  0  0  0  0  0  0  0  0
   25.6670   -0.1725   12.1544 H   0  0  0  0  0  0  0  0  0  0  0  0
   27.3807   -0.7109   12.1544 H   0  0  0  0  0  0  0  0  0  0  0  0
   30.3082    3.3248   10.7400 H   0  0  0  0  0  0  0  0  0  0  0  0
   29.6990    6.2979    8.7595 H   0  0  0  0  0  0  0  0  0  0  0  0
   29.8936    6.0785   10.5444 H   0  0  0  0  0  0  0  0  0  0  0  0
   29.2706    3.6275   12.4124 H   0  0  0  0  0  0  0  0  0  0  0  0
   31.6295    6.8136    9.2543 H   0  0  0  0  0  0  0  0  0  0  0  0
   32.3774    6.8595   10.9284 H   0  0  0  0  0  0  0  0  0  0  0  0
   32.4487    5.0886   11.1699 H   0  0  0  0  0  0  0  0  0  0  0  0
   33.5696    4.6025    8.3377 H   0  0  0  0  0  0  0  0  0  0  0  0
   31.9529    4.7260    7.7416 H   0  0  0  0  0  0  0  0  0  0  0  0
   34.3094    6.6112    6.5734 H   0  0  0  0  0  0  0  0  0  0  0  0
   33.9496    3.5480    6.9933 H   0  0  0  0  0  0  0  0  0  0  0  0
   33.2700    4.5550    5.6701 H   0  0  0  0  0  0  0  0  0  0  0  0
   35.0155    4.1308    5.6701 H   0  0  0  0  0  0  0  0  0  0  0  0
   36.0878    5.7851    8.5262 H   0  0  0  0  0  0  0  0  0  0  0  0
   36.4680    4.9111    7.0037 H   0  0  0  0  0  0  0  0  0  0  0  0
   36.3442    6.7031    7.0037 H   0  0  0  0  0  0  0  0  0  0  0  0
   29.5355    2.5525    8.2914 H   0  0  0  0  0  0  0  0  0  0  0  0
   28.7273    3.9890    7.5772 H   0  0  0  0  0  0  0  0  0  0  0  0
   30.5200    3.8745    7.5772 H   0  0  0  0  0  0  0  0  0  0  0  0
  1  2  1  0
  2  3  1  0
  3  4  1  0
  1  5  1  0
  4  5  1  0
  2  6  1  0
  6  7  1  0
  7  8  1  0
  8  9  1  0
  8 10  1  0
 10 11  1  0
 11 12  1  0
 12 13  1  0
 13 14  1  0
 11 15  1  0
 15 16  1  0
 16 17  1  0
 17 18  1  0
 18 19  1  0
 19 20  1  0
 16 21  1  0
 20 21  1  0
 12 22  1  0
 14 23  1  0
 23 24  1  0
 24 25  1  0
 25 26  1  0
 26 27  1  0
 27 28  1  0
 24 29  1  0
 28 29  1  0
 14 30  1  0
 31 32  1  0
 30 33  1  0
 32 33  1  0
 33 34  1  0
 32 35  1  0
 35 36  1  0
 35 37  1  0
 31 38  1  0
 38 39  1  0
 39 40  1  0
 38 41  1  0
 40 42  1  0
 42 43  1  0
 43 44  1  0
 44 45  1  0
 42 46  1  0
 45 46  1  0
 45 47  1  0
 47 48  1  0
 47 49  1  0
 39 50  1  0
  1 51  1  0
  1 52  1  0
  2 53  1  6
  4 54  1  0
  4 55  1  0
  5 56  1  0
  6 57  1  0
  6 58  1  0
  8 59  1  0
  9 60  1  0
 10 61  1  0
 11 62  1  6
 12 63  1  6
 13 64  1  0
 13 65  1  0
 14 66  1  6
 15 67  1  0
 15 68  1  0
 16 69  1  6
 17 70  1  0
 17 71  1  0
 18 72  1  0
 18 73  1  0
 19 74  1  0
 19 75  1  0
 20 76  1  0
 20 77  1  0
 21 78  1  0
 21 79  1  0
 22 80  1  0
 23 81  1  0
 23 82  1  0
 24 83  1  0
 25 84  1  0
 25 85  1  0
 26 86  1  0
 26 87  1  0
 27 88  1  0
 27 89  1  0
 28 90  1  0
 28 91  1  0
 29 92  1  0
 29 93  1  0
 30 94  1  0
 31 95  1  0
 32 96  1  1
 33 97  1  0
 34 98  1  0
 35 99  1  1
 36100  1  0
 36101  1  0
 36102  1  0
 37103  1  0
 37104  1  0
 37105  1  0
 38106  1  0
 40107  1  0
 40108  1  0
 41109  1  0
 42110  1  0
 43111  1  0
 43112  1  0
 45113  1  0
 46114  1  0
 47115  1  6
 48116  1  0
 48117  1  0
 48118  1  0
 49119  1  0
 49120  1  0
 49121  1  0
 50122  1  0
 50123  1  0
 50124  1  0
M  END
>  <PDBID>  (1) 
3NDX

>  <PDB ID>  (1) 
3NDX

>  <Generic Name>  (1) 
Ritonavir

>  <Brand Name>  (1) 
Holkira Pak#Kaletra#Lopinavir-ritonavir#Norvir#Norvir Sec#Technivie#Viekira Pak#Viekira XR#Busvir#Empetus#Normune

>  <DrugBank ID>  (1) 
DB00503

>  <ATC Codes>  (1) 
J05AX67#J05AR10#J05AE03#J05AX66

>  <Ligand ID>  (1) 
RIT

>  <Target Name>  (1) 
Pol polyprotein

>  <UniProt ID>  (1) 
Q72874

>  <PDB ID.1>  (1) 
3NDX

>  <Seq. Identity>  (1) 
94%

$$$$
