PDB_DB09079_99
     RDKit          3D

 73 77  0  0  0  0  0  0  0  0999 V2000
   21.3310   64.4740   30.7450 C   0  0  0  0  0  0  0  0  0  0  0  0
   20.9760   63.1320   31.1930 C   0  0  0  0  0  0  0  0  0  0  0  0
   20.8030   65.3580   29.8830 C   0  0  0  0  0  0  0  0  0  0  0  0
   22.5800   64.8020   31.4790 C   0  0  0  0  0  0  0  0  0  0  0  0
   21.9510   62.7530   32.0920 C   0  0  0  0  0  0  0  0  0  0  0  0
   19.9510   62.2800   30.9270 C   0  0  0  0  0  0  0  0  0  0  0  0
   19.5670   65.0430   29.1840 C   0  0  0  0  0  0  0  0  0  0  0  0
   21.9460   61.5360   32.7280 C   0  0  0  0  0  0  0  0  0  0  0  0
   19.9250   61.0470   31.5410 C   0  0  0  0  0  0  0  0  0  0  0  0
   21.0950   67.6490   28.8550 C   0  0  0  0  0  0  0  0  0  0  0  0
   20.8970   60.6570   32.4460 C   0  0  0  0  0  0  0  0  0  0  0  0
   17.2270   64.6330   29.3230 C   0  0  0  0  0  0  0  0  0  0  0  0
   18.3210   64.6410   27.2250 C   0  0  0  0  0  0  0  0  0  0  0  0
   22.1550   68.4590   28.7880 C   0  0  0  0  0  0  0  0  0  0  0  0
   20.8490   59.3010   33.0550 C   0  0  0  0  0  0  0  0  0  0  0  0
   22.1340   69.6170   28.0560 C   0  0  0  0  0  0  0  0  0  0  0  0
   19.9460   69.1960   27.3650 C   0  0  0  0  0  0  0  0  0  0  0  0
   21.9080   58.9770   33.7750 O   0  0  0  0  0  0  0  0  0  0  0  0
   19.9910   58.5370   32.8490 O   0  0  0  0  0  0  0  0  0  0  0  0
   21.0450   70.0310   27.3330 C   0  0  0  0  0  0  0  0  0  0  0  0
   20.6560   72.4280   27.1380 C   0  0  0  0  0  0  0  0  0  0  0  0
   21.8660   71.3300   25.3760 C   0  0  0  0  0  0  0  0  0  0  0  0
   20.1990   72.3990   28.6000 C   0  0  0  0  0  0  0  0  0  0  0  0
   19.6040   74.0660   30.2000 C   0  0  0  0  0  0  0  0  0  0  0  0
   21.8290   73.3870   30.1250 C   0  0  0  0  0  0  0  0  0  0  0  0
   19.9350   75.4220   30.7970 C   0  0  0  0  0  0  0  0  0  0  0  0
   22.2460   74.7440   30.6790 C   0  0  0  0  0  0  0  0  0  0  0  0
   21.6020   76.7500   31.7510 C   0  0  0  0  0  0  0  0  0  0  0  0
   20.6590   73.4410   26.5050 O   0  0  0  0  0  0  0  0  0  0  0  0
   20.6530   73.5700   29.3270 N   0  0  0  0  0  0  0  0  0  0  0  0
   21.2120   75.3920   31.4700 N   0  0  0  0  0  0  0  0  0  0  0  0
   21.1430   71.2580   26.6250 N   0  0  0  0  0  0  0  0  0  0  0  0
   19.9940   68.0210   28.1170 C   0  0  0  0  0  0  0  0  0  0  0  0
   21.3550   66.5720   29.6290 N   0  0  0  0  0  0  0  0  0  0  0  0
   19.5140   64.9250   27.8200 C   0  0  0  0  0  0  0  0  0  0  0  0
   17.1770   64.4780   27.9650 C   0  0  0  0  0  0  0  0  0  0  0  0
   18.4160   64.9180   29.9220 C   0  0  0  0  0  0  0  0  0  0  0  0
   21.8240   57.6660   34.2350 C   0  0  0  0  0  0  0  0  0  0  0  0
   22.8730   63.7300   32.2230 N   0  0  0  0  0  0  0  0  0  0  0  0
   23.1970   65.7690   31.4040 O   0  0  0  0  0  0  0  0  0  0  0  0
   19.1517   62.5715   30.2298 H   0  0  0  0  0  0  0  0  0  0  0  0
   22.7418   61.2620   33.4363 H   0  0  0  0  0  0  0  0  0  0  0  0
   19.1066   60.3510   31.3048 H   0  0  0  0  0  0  0  0  0  0  0  0
   16.3135   64.5282   29.9267 H   0  0  0  0  0  0  0  0  0  0  0  0
   18.2744   64.5405   26.1306 H   0  0  0  0  0  0  0  0  0  0  0  0
   23.0700   68.1889   29.3356 H   0  0  0  0  0  0  0  0  0  0  0  0
   23.0362   70.2462   28.0479 H   0  0  0  0  0  0  0  0  0  0  0  0
   19.0378   69.4552   26.8011 H   0  0  0  0  0  0  0  0  0  0  0  0
   22.9415   71.4371   25.5805 H   0  0  0  0  0  0  0  0  0  0  0  0
   21.6925   70.4101   24.7983 H   0  0  0  0  0  0  0  0  0  0  0  0
   21.5144   72.1976   24.7983 H   0  0  0  0  0  0  0  0  0  0  0  0
   19.0999   72.3649   28.6294 H   0  0  0  0  0  0  0  0  0  0  0  0
   20.6336   71.5086   29.0778 H   0  0  0  0  0  0  0  0  0  0  0  0
   19.4576   73.3465   31.0191 H   0  0  0  0  0  0  0  0  0  0  0  0
   18.6930   74.1816   29.5944 H   0  0  0  0  0  0  0  0  0  0  0  0
   22.6384   72.9733   29.5056 H   0  0  0  0  0  0  0  0  0  0  0  0
   21.6234   72.6877   30.9489 H   0  0  0  0  0  0  0  0  0  0  0  0
   19.9699   76.1709   29.9920 H   0  0  0  0  0  0  0  0  0  0  0  0
   19.1576   75.6817   31.5307 H   0  0  0  0  0  0  0  0  0  0  0  0
   23.1328   74.6027   31.3144 H   0  0  0  0  0  0  0  0  0  0  0  0
   22.4491   75.3961   29.8167 H   0  0  0  0  0  0  0  0  0  0  0  0
   21.6454   76.9012   32.8397 H   0  0  0  0  0  0  0  0  0  0  0  0
   22.5924   76.9450   31.3139 H   0  0  0  0  0  0  0  0  0  0  0  0
   20.8659   77.4408   31.3139 H   0  0  0  0  0  0  0  0  0  0  0  0
   19.1126   67.3628   28.1201 H   0  0  0  0  0  0  0  0  0  0  0  0
   22.2131   66.7115   30.1814 H   0  0  0  0  0  0  0  0  0  0  0  0
   20.4219   65.0577   27.2133 H   0  0  0  0  0  0  0  0  0  0  0  0
   16.2277   64.2248   27.4702 H   0  0  0  0  0  0  0  0  0  0  0  0
   18.4550   65.0501   31.0133 H   0  0  0  0  0  0  0  0  0  0  0  0
   21.8238   57.6627   35.3350 H   0  0  0  0  0  0  0  0  0  0  0  0
   20.8946   57.2071   33.8668 H   0  0  0  0  0  0  0  0  0  0  0  0
   22.6872   57.0922   33.8668 H   0  0  0  0  0  0  0  0  0  0  0  0
   23.7052   63.6583   32.8257 H   0  0  0  0  0  0  0  0  0  0  0  0
  1  2  1  0
  1  3  2  0
  1  4  1  0
  2  5  2  0
  2  6  1  0
  3  7  1  0
  5  8  1  0
  6  9  2  0
  8 11  2  0
  9 11  1  0
 10 14  2  0
 11 15  1  0
 14 16  1  0
 15 18  1  0
 15 19  2  0
 16 20  2  0
 17 20  1  0
 21 23  1  0
 24 26  1  0
 25 27  1  0
 21 29  2  0
 23 30  1  0
 24 30  1  0
 25 30  1  0
 26 31  1  0
 27 31  1  0
 28 31  1  0
 20 32  1  0
 21 32  1  0
 22 32  1  0
 10 33  1  0
 17 33  2  0
  3 34  1  0
 10 34  1  0
  7 35  1  0
 13 35  2  0
 12 36  2  0
 13 36  1  0
  7 37  2  0
 12 37  1  0
 18 38  1  0
  4 39  1  0
  5 39  1  0
  4 40  2  0
  6 41  1  0
  8 42  1  0
  9 43  1  0
 12 44  1  0
 13 45  1  0
 14 46  1  0
 16 47  1  0
 17 48  1  0
 22 49  1  0
 22 50  1  0
 22 51  1  0
 23 52  1  0
 23 53  1  0
 24 54  1  0
 24 55  1  0
 25 56  1  0
 25 57  1  0
 26 58  1  0
 26 59  1  0
 27 60  1  0
 27 61  1  0
 28 62  1  0
 28 63  1  0
 28 64  1  0
 33 65  1  0
 34 66  1  0
 35 67  1  0
 36 68  1  0
 37 69  1  0
 38 70  1  0
 38 71  1  0
 38 72  1  0
 39 73  1  0
M  END
>  <PDBID>  (1) 
3C7Q

>  <PDB ID>  (1) 
3C7Q

>  <Generic Name>  (1) 
Nintedanib

>  <Brand Name>  (1) 
Ofev#Vargatef

>  <DrugBank ID>  (1) 
DB09079

>  <ATC Codes>  (1) 
L01XE31

>  <Ligand ID>  (1) 
XIN

>  <Target Name>  (1) 
Vascular endothelial growth factor receptor 3

>  <UniProt ID>  (1) 
P35916

>  <PDB ID.1>  (1) 
3C7Q

>  <Seq. Identity>  (1) 
67%

$$$$
