PDB_DB00396_93
     RDKit          3D

 53 56  0  0  0  0  0  0  0  0999 V2000
   17.5650   50.4360   18.3850 C   0  0  0  0  0  0  0  0  0  0  0  0
   16.5600   50.3360   19.5960 C   0  0  0  0  0  0  0  0  0  0  0  0
   15.5210   49.2270   19.3690 C   0  0  0  0  0  0  0  0  0  0  0  0
   14.4240   49.3330   19.9230 O   0  0  0  0  0  0  0  0  0  0  0  0
   15.8220   48.0460   18.5310 C   0  0  0  0  0  0  0  0  0  0  0  0
   16.9710   47.9160   17.8890 C   0  0  0  0  0  0  0  0  0  0  0  0
   17.2490   46.6230   17.0850 C   0  0  0  0  0  0  0  0  0  0  0  0
   17.9090   46.9360   15.7290 C   0  0  0  0  0  0  0  0  0  0  0  0
   19.1520   47.9250   15.8060 C   0  0  2  0  0  0  0  0  0  0  0  0
   18.6580   49.2660   16.4440 C   0  0  1  0  0  0  0  0  0  0  0  0
   18.1160   49.0410   17.8990 C   0  0  1  0  0  0  0  0  0  0  0  0
   19.8190   50.3550   16.4740 C   0  0  0  0  0  0  0  0  0  0  0  0
   20.3530   50.5540   15.0120 C   0  0  0  0  0  0  0  0  0  0  0  0
   20.9100   49.2090   14.4040 C   0  0  1  0  0  0  0  0  0  0  0  0
   19.6960   48.2120   14.3940 C   0  0  1  0  0  0  0  0  0  0  0  0
   20.2260   47.0120   13.5640 C   0  0  0  0  0  0  0  0  0  0  0  0
   21.0600   47.7320   12.4050 C   0  0  0  0  0  0  0  0  0  0  0  0
   21.2040   49.2340   12.8600 C   0  0  2  0  0  0  0  0  0  0  0  0
   22.1590   48.6790   15.2260 C   0  0  0  0  0  0  0  0  0  0  0  0
   19.2400   48.5020   18.9180 C   0  0  0  0  0  0  0  0  0  0  0  0
   22.5740   49.8490   12.5190 C   0  0  0  0  0  0  0  0  0  0  0  0
   23.4690   49.1410   12.1170 O   0  0  0  0  0  0  0  0  0  0  0  0
   22.7740   51.3250   12.6770 C   0  0  0  0  0  0  0  0  0  0  0  0
   17.0462   50.9167   17.5425 H   0  0  0  0  0  0  0  0  0  0  0  0
   18.4304   51.0185   18.7339 H   0  0  0  0  0  0  0  0  0  0  0  0
   17.1252   50.1151   20.5135 H   0  0  0  0  0  0  0  0  0  0  0  0
   16.0296   51.2954   19.6872 H   0  0  0  0  0  0  0  0  0  0  0  0
   15.0670   47.2513   18.4389 H   0  0  0  0  0  0  0  0  0  0  0  0
   17.9200   45.9757   17.6688 H   0  0  0  0  0  0  0  0  0  0  0  0
   16.2893   46.1200   16.8953 H   0  0  0  0  0  0  0  0  0  0  0  0
   18.2522   45.9883   15.2884 H   0  0  0  0  0  0  0  0  0  0  0  0
   17.1452   47.4445   15.1224 H   0  0  0  0  0  0  0  0  0  0  0  0
   19.9538   47.4710   16.4068 H   0  0  0  0  0  0  0  0  0  0  0  0
   17.8375   49.6370   15.8122 H   0  0  0  0  0  0  0  0  0  0  0  0
   19.4245   51.3074   16.8578 H   0  0  0  0  0  0  0  0  0  0  0  0
   20.6348   50.0182   17.1306 H   0  0  0  0  0  0  0  0  0  0  0  0
   19.5302   50.9173   14.3787 H   0  0  0  0  0  0  0  0  0  0  0  0
   21.1772   51.2817   15.0450 H   0  0  0  0  0  0  0  0  0  0  0  0
   18.7802   48.6028   13.9265 H   0  0  0  0  0  0  0  0  0  0  0  0
   20.8716   46.3621   14.1729 H   0  0  0  0  0  0  0  0  0  0  0  0
   19.4289   46.3548   13.1863 H   0  0  0  0  0  0  0  0  0  0  0  0
   22.0507   47.2661   12.2982 H   0  0  0  0  0  0  0  0  0  0  0  0
   20.5591   47.6476   11.4293 H   0  0  0  0  0  0  0  0  0  0  0  0
   20.5034   49.8869   12.3189 H   0  0  0  0  0  0  0  0  0  0  0  0
   21.9530   48.7664   16.3030 H   0  0  0  0  0  0  0  0  0  0  0  0
   22.3442   47.6248   14.9725 H   0  0  0  0  0  0  0  0  0  0  0  0
   23.0459   49.2783   14.9725 H   0  0  0  0  0  0  0  0  0  0  0  0
   18.9041   48.6631   19.9530 H   0  0  0  0  0  0  0  0  0  0  0  0
   19.4035   47.4275   18.7486 H   0  0  0  0  0  0  0  0  0  0  0  0
   20.1802   49.0472   18.7486 H   0  0  0  0  0  0  0  0  0  0  0  0
   22.8083   51.5779   13.7470 H   0  0  0  0  0  0  0  0  0  0  0  0
   23.7203   51.6199   12.2000 H   0  0  0  0  0  0  0  0  0  0  0  0
   21.9403   51.8611   12.2000 H   0  0  0  0  0  0  0  0  0  0  0  0
  1  2  1  0
  2  3  1  0
  3  4  2  0
  3  5  1  0
  5  6  2  0
  6  7  1  0
  7  8  1  0
  8  9  1  0
  9 10  1  0
  1 11  1  0
  6 11  1  0
 10 11  1  0
 10 12  1  0
 12 13  1  0
 13 14  1  0
  9 15  1  0
 14 15  1  0
 15 16  1  0
 16 17  1  0
 14 18  1  0
 17 18  1  0
 14 19  1  1
 11 20  1  1
 18 21  1  0
 21 22  2  0
 21 23  1  0
  1 24  1  0
  1 25  1  0
  2 26  1  0
  2 27  1  0
  5 28  1  0
  7 29  1  0
  7 30  1  0
  8 31  1  0
  8 32  1  0
  9 33  1  1
 10 34  1  6
 12 35  1  0
 12 36  1  0
 13 37  1  0
 13 38  1  0
 15 39  1  6
 16 40  1  0
 16 41  1  0
 17 42  1  0
 17 43  1  0
 18 44  1  6
 19 45  1  0
 19 46  1  0
 19 47  1  0
 20 48  1  0
 20 49  1  0
 20 50  1  0
 23 51  1  0
 23 52  1  0
 23 53  1  0
M  END
$$$$
