PDB_DB00481_96
     RDKit          3D

 61 65  0  0  0  0  0  0  0  0999 V2000
   37.1360   24.7860   77.9430 C   0  0  0  0  0  0  0  0  0  0  0  0
   36.0770   25.0700   77.1120 C   0  0  0  0  0  0  0  0  0  0  0  0
   35.9570   26.3280   76.5780 C   0  0  0  0  0  0  0  0  0  0  0  0
   34.8710   26.5280   75.7540 O   0  0  0  0  0  0  0  0  0  0  0  0
   36.8820   27.3100   76.9070 C   0  0  0  0  0  0  0  0  0  0  0  0
   37.9250   27.0330   77.7380 C   0  0  0  0  0  0  0  0  0  0  0  0
   39.1460   28.0220   78.3550 S   0  0  0  0  0  0  0  0  0  0  0  0
   39.9700   26.8050   79.2080 C   0  0  0  0  0  0  0  0  0  0  0  0
   41.1990   27.0190   80.0190 C   0  0  0  0  0  0  0  0  0  0  0  0
   41.3450   28.1850   80.7280 C   0  0  0  0  0  0  0  0  0  0  0  0
   42.4380   28.4110   81.5480 C   0  0  0  0  0  0  0  0  0  0  0  0
   43.4370   27.4480   81.6120 C   0  0  0  0  0  0  0  0  0  0  0  0
   44.5210   27.6950   82.4320 O   0  0  0  0  0  0  0  0  0  0  0  0
   43.3140   26.2900   80.8850 C   0  0  0  0  0  0  0  0  0  0  0  0
   42.1790   26.0850   80.1080 C   0  0  0  0  0  0  0  0  0  0  0  0
   38.0540   25.7380   78.2520 C   0  0  0  0  0  0  0  0  0  0  0  0
   39.2270   25.6130   79.0900 C   0  0  0  0  0  0  0  0  0  0  0  0
   39.5400   24.4340   79.7180 C   0  0  0  0  0  0  0  0  0  0  0  0
   39.6340   24.3720   80.9320 O   0  0  0  0  0  0  0  0  0  0  0  0
   39.9140   23.2300   78.9940 C   0  0  0  0  0  0  0  0  0  0  0  0
   39.9720   22.0940   79.7650 C   0  0  0  0  0  0  0  0  0  0  0  0
   40.3960   20.8760   79.2140 C   0  0  0  0  0  0  0  0  0  0  0  0
   40.7710   20.8950   77.9010 C   0  0  0  0  0  0  0  0  0  0  0  0
   40.7520   22.0570   77.1160 C   0  0  0  0  0  0  0  0  0  0  0  0
   40.3050   23.2450   77.6790 C   0  0  0  0  0  0  0  0  0  0  0  0
   41.2040   19.7910   77.2000 O   0  0  0  0  0  0  0  0  0  0  0  0
   40.3190   18.7060   77.1230 C   0  0  0  0  0  0  0  0  0  0  0  0
   41.1960   17.6250   76.4110 C   0  0  0  0  0  0  0  0  0  0  0  0
   40.8950   17.5620   74.9840 N   0  0  0  0  0  0  0  0  0  0  0  0
   41.6590   16.5620   74.2940 C   0  0  0  0  0  0  0  0  0  0  0  0
   41.4880   16.5070   72.7790 C   0  0  0  0  0  0  0  0  0  0  0  0
   41.5760   17.9290   72.2160 C   0  0  0  0  0  0  0  0  0  0  0  0
   40.3880   18.7220   72.8420 C   0  0  0  0  0  0  0  0  0  0  0  0
   40.7480   18.8760   74.3550 C   0  0  0  0  0  0  0  0  0  0  0  0
   37.2406   23.7746   78.3627 H   0  0  0  0  0  0  0  0  0  0  0  0
   35.3326   24.2948   76.8777 H   0  0  0  0  0  0  0  0  0  0  0  0
   34.7239   27.4128   75.3350 H   0  0  0  0  0  0  0  0  0  0  0  0
   36.7712   28.3227   76.4920 H   0  0  0  0  0  0  0  0  0  0  0  0
   40.5716   28.9625   80.6425 H   0  0  0  0  0  0  0  0  0  0  0  0
   42.5136   29.3364   82.1379 H   0  0  0  0  0  0  0  0  0  0  0  0
   45.2510   27.0299   82.5012 H   0  0  0  0  0  0  0  0  0  0  0  0
   44.1079   25.5293   80.9169 H   0  0  0  0  0  0  0  0  0  0  0  0
   42.0732   25.1420   79.5516 H   0  0  0  0  0  0  0  0  0  0  0  0
   39.6829   22.1404   80.8253 H   0  0  0  0  0  0  0  0  0  0  0  0
   40.4250   19.9517   79.8096 H   0  0  0  0  0  0  0  0  0  0  0  0
   41.0866   22.0277   76.0685 H   0  0  0  0  0  0  0  0  0  0  0  0
   40.2655   24.1716   77.0876 H   0  0  0  0  0  0  0  0  0  0  0  0
   40.0068   18.3724   78.1236 H   0  0  0  0  0  0  0  0  0  0  0  0
   39.3804   18.9343   76.5968 H   0  0  0  0  0  0  0  0  0  0  0  0
   42.2579   17.8794   76.5435 H   0  0  0  0  0  0  0  0  0  0  0  0
   40.9750   16.6448   76.8587 H   0  0  0  0  0  0  0  0  0  0  0  0
   42.7225   16.7480   74.5048 H   0  0  0  0  0  0  0  0  0  0  0  0
   41.2842   15.5973   74.6668 H   0  0  0  0  0  0  0  0  0  0  0  0
   42.2834   15.8866   72.3402 H   0  0  0  0  0  0  0  0  0  0  0  0
   40.5102   16.0685   72.5307 H   0  0  0  0  0  0  0  0  0  0  0  0
   42.5333   18.3917   72.4979 H   0  0  0  0  0  0  0  0  0  0  0  0
   41.5213   17.9281   71.1174 H   0  0  0  0  0  0  0  0  0  0  0  0
   40.2904   19.7091   72.3666 H   0  0  0  0  0  0  0  0  0  0  0  0
   39.4281   18.2041   72.6991 H   0  0  0  0  0  0  0  0  0  0  0  0
   39.9466   19.4327   74.8628 H   0  0  0  0  0  0  0  0  0  0  0  0
   41.7005   19.4195   74.4403 H   0  0  0  0  0  0  0  0  0  0  0  0
  1  2  2  0
  2  3  1  0
  3  4  1  0
  3  5  2  0
  5  6  1  0
  6  7  1  0
  7  8  1  0
  8  9  1  0
  9 10  2  0
 10 11  1  0
 11 12  2  0
 12 13  1  0
 12 14  1  0
  9 15  1  0
 14 15  2  0
  1 16  1  0
  6 16  2  0
  8 17  2  0
 16 17  1  0
 17 18  1  0
 18 19  2  0
 18 20  1  0
 20 21  2  0
 21 22  1  0
 22 23  2  0
 23 24  1  0
 20 25  1  0
 24 25  2  0
 23 26  1  0
 26 27  1  0
 27 28  1  0
 28 29  1  0
 29 30  1  0
 30 31  1  0
 31 32  1  0
 32 33  1  0
 29 34  1  0
 33 34  1  0
  1 35  1  0
  2 36  1  0
  4 37  1  0
  5 38  1  0
 10 39  1  0
 11 40  1  0
 13 41  1  0
 14 42  1  0
 15 43  1  0
 21 44  1  0
 22 45  1  0
 24 46  1  0
 25 47  1  0
 27 48  1  0
 27 49  1  0
 28 50  1  0
 28 51  1  0
 30 52  1  0
 30 53  1  0
 31 54  1  0
 31 55  1  0
 32 56  1  0
 32 57  1  0
 33 58  1  0
 33 59  1  0
 34 60  1  0
 34 61  1  0
M  END
$$$$
