PDB_DB04729_92
     RDKit          3D

 70 72  0  0  0  0  0  0  0  0999 V2000
   45.4770  149.8340  -95.1780 C   0  0  2  0  0  0  0  0  0  0  0  0
   46.6150  149.1650  -95.7990 O   0  0  0  0  0  0  0  0  0  0  0  0
   45.4650  151.3360  -95.5490 C   0  0  2  0  0  0  0  0  0  0  0  0
   45.4440  151.4540  -96.9740 N   0  0  0  0  0  0  0  0  0  0  0  0
   46.7140  152.0730  -94.9050 C   0  0  0  0  0  0  0  0  0  0  0  0
   46.6450  151.9000  -93.3400 C   0  0  0  0  0  0  0  0  0  0  0  0
   46.6430  150.3370  -93.0040 C   0  0  2  0  0  0  0  0  0  0  0  0
   45.5370  149.6410  -93.6830 O   0  0  0  0  0  0  0  0  0  0  0  0
   46.5600  150.0600  -91.5160 C   0  0  0  0  0  0  0  0  0  0  0  0
   46.6590  148.6540  -91.2240 N   0  0  0  0  0  0  0  0  0  0  0  0
   47.3950  145.3260  -97.5990 C   0  0  2  0  0  0  0  0  0  0  0  0
   47.3100  143.9220  -97.8590 N   0  0  0  0  0  0  0  0  0  0  0  0
   47.8470  145.5540  -96.1070 C   0  0  0  0  0  0  0  0  0  0  0  0
   47.9410  147.1080  -95.7990 C   0  0  2  0  0  0  0  0  0  0  0  0
   48.3630  147.3290  -94.4050 N   0  0  0  0  0  0  0  0  0  0  0  0
   46.5310  147.7980  -96.0750 C   0  0  2  0  0  0  0  0  0  0  0  0
   46.0960  147.5400  -97.5890 C   0  0  2  0  0  0  0  0  0  0  0  0
   44.8320  148.1460  -97.8470 O   0  0  0  0  0  0  0  0  0  0  0  0
   46.0140  145.9850  -97.8690 C   0  0  1  0  0  0  0  0  0  0  0  0
   45.6300  145.7760  -99.2280 O   0  0  0  0  0  0  0  0  0  0  0  0
   44.5370  144.8850  -99.6220 C   0  0  2  0  0  0  0  0  0  0  0  0
   44.7420  144.5550 -101.1350 C   0  0  2  0  0  0  0  0  0  0  0  0
   46.0070  143.9570 -101.3210 O   0  0  0  0  0  0  0  0  0  0  0  0
   44.5690  145.8970 -101.9840 C   0  0  1  0  0  0  0  0  0  0  0  0
   44.7640  145.6500 -103.4520 N   0  0  0  0  0  0  0  0  0  0  0  0
   43.0910  146.5450 -101.7290 C   0  0  1  0  0  0  0  0  0  0  0  0
   42.0660  145.6780 -102.1800 O   0  0  0  0  0  0  0  0  0  0  0  0
   42.8870  146.7950 -100.1990 C   0  0  0  0  0  0  0  0  0  0  0  0
   43.1900  145.5350  -99.4120 O   0  0  0  0  0  0  0  0  0  0  0  0
   42.7730  147.8510 -102.4720 C   0  0  0  0  0  0  0  0  0  0  0  0
   46.0560  146.0510 -104.0370 C   0  0  0  0  0  0  0  0  0  0  0  0
   44.5422  149.3916  -95.5527 H   0  0  0  0  0  0  0  0  0  0  0  0
   44.5660  151.8243  -95.1448 H   0  0  0  0  0  0  0  0  0  0  0  0
   45.2694  152.4350  -97.2347 H   0  0  0  0  0  0  0  0  0  0  0  0
   46.3517  151.1533  -97.3568 H   0  0  0  0  0  0  0  0  0  0  0  0
   47.6447  151.6280  -95.2868 H   0  0  0  0  0  0  0  0  0  0  0  0
   46.6974  153.1412  -95.1670 H   0  0  0  0  0  0  0  0  0  0  0  0
   47.5191  152.3788  -92.8745 H   0  0  0  0  0  0  0  0  0  0  0  0
   45.7320  152.3718  -92.9478 H   0  0  0  0  0  0  0  0  0  0  0  0
   47.6043  149.9519  -93.3749 H   0  0  0  0  0  0  0  0  0  0  0  0
   47.3825  150.5868  -91.0101 H   0  0  0  0  0  0  0  0  0  0  0  0
   45.5819  150.4138  -91.1581 H   0  0  0  0  0  0  0  0  0  0  0  0
   46.6688  148.5151  -90.2034 H   0  0  0  0  0  0  0  0  0  0  0  0
   45.8506  148.1613  -91.6298 H   0  0  0  0  0  0  0  0  0  0  0  0
   48.1384  145.7900  -98.2639 H   0  0  0  0  0  0  0  0  0  0  0  0
   47.2789  143.4088  -96.9665 H   0  0  0  0  0  0  0  0  0  0  0  0
   46.4555  143.7239  -98.3989 H   0  0  0  0  0  0  0  0  0  0  0  0
   47.1135  145.0922  -95.4297 H   0  0  0  0  0  0  0  0  0  0  0  0
   48.8354  145.0957  -95.9554 H   0  0  0  0  0  0  0  0  0  0  0  0
   48.6931  147.5613  -96.4614 H   0  0  0  0  0  0  0  0  0  0  0  0
   47.6473  146.9542  -93.7661 H   0  0  0  0  0  0  0  0  0  0  0  0
   49.2585  146.8487  -94.2371 H   0  0  0  0  0  0  0  0  0  0  0  0
   45.7655  147.3608  -95.4171 H   0  0  0  0  0  0  0  0  0  0  0  0
   46.8481  147.9871  -98.2557 H   0  0  0  0  0  0  0  0  0  0  0  0
   44.3870  148.3593  -96.9888 H   0  0  0  0  0  0  0  0  0  0  0  0
   45.2687  145.5274  -97.2018 H   0  0  0  0  0  0  0  0  0  0  0  0
   44.5526  143.9743  -99.0053 H   0  0  0  0  0  0  0  0  0  0  0  0
   43.9883  143.8345 -101.4854 H   0  0  0  0  0  0  0  0  0  0  0  0
   46.4139  143.7646 -100.4392 H   0  0  0  0  0  0  0  0  0  0  0  0
   45.3426  146.6028 -101.6471 H   0  0  0  0  0  0  0  0  0  0  0  0
   44.6511  144.6391 -103.6137 H   0  0  0  0  0  0  0  0  0  0  0  0
   41.6002  145.2840 -101.4003 H   0  0  0  0  0  0  0  0  0  0  0  0
   43.5620  147.5988  -99.8700 H   0  0  0  0  0  0  0  0  0  0  0  0
   41.8405  147.0834 -100.0212 H   0  0  0  0  0  0  0  0  0  0  0  0
   42.5784  148.6503 -101.7417 H   0  0  0  0  0  0  0  0  0  0  0  0
   43.6291  148.1315 -103.1032 H   0  0  0  0  0  0  0  0  0  0  0  0
   41.8838  147.7066 -103.1032 H   0  0  0  0  0  0  0  0  0  0  0  0
   46.7706  146.2728 -103.2306 H   0  0  0  0  0  0  0  0  0  0  0  0
   46.4471  145.2320 -104.6585 H   0  0  0  0  0  0  0  0  0  0  0  0
   45.9146  146.9475 -104.6585 H   0  0  0  0  0  0  0  0  0  0  0  0
  2  1  1  0
  3  1  1  0
  4  3  1  0
  5  3  1  0
  6  5  1  0
  7  6  1  0
  8  7  1  0
  8  1  1  0
  9  7  1  0
 10  9  1  0
 12 11  1  0
 13 11  1  0
 14 13  1  0
 15 14  1  0
 16 14  1  0
 16  2  1  0
 17 16  1  0
 18 17  1  0
 19 11  1  0
 19 17  1  0
 20 19  1  0
 21 20  1  0
 22 21  1  0
 23 22  1  0
 24 22  1  0
 25 24  1  0
 26 24  1  0
 26 27  1  6
 28 26  1  0
 29 28  1  0
 29 21  1  0
 30 26  1  0
 31 25  1  0
  1 32  1  6
  3 33  1  1
  4 34  1  0
  4 35  1  0
  5 36  1  0
  5 37  1  0
  6 38  1  0
  6 39  1  0
  7 40  1  6
  9 41  1  0
  9 42  1  0
 10 43  1  0
 10 44  1  0
 11 45  1  6
 12 46  1  0
 12 47  1  0
 13 48  1  0
 13 49  1  0
 14 50  1  6
 15 51  1  0
 15 52  1  0
 16 53  1  1
 17 54  1  6
 18 55  1  0
 19 56  1  1
 21 57  1  1
 22 58  1  6
 23 59  1  0
 24 60  1  1
 25 61  1  0
 27 62  1  0
 28 63  1  0
 28 64  1  0
 30 65  1  0
 30 66  1  0
 30 67  1  0
 31 68  1  0
 31 69  1  0
 31 70  1  0
M  END
$$$$
