PDB_DB11730_99
     RDKit          3D

 78 82  0  0  0  0  0  0  0  0999 V2000
   24.4000   34.2510   -8.9610 C   0  0  1  0  0  0  0  0  0  0  0  0
   25.7960   32.7650   -7.9590 C   0  0  0  0  0  0  0  0  0  0  0  0
   25.7050   33.3940   -6.7240 C   0  0  0  0  0  0  0  0  0  0  0  0
   24.8810   34.5370   -6.7750 C   0  0  0  0  0  0  0  0  0  0  0  0
   21.8310   37.0400  -11.7570 C   0  0  0  0  0  0  0  0  0  0  0  0
   22.7180   36.0630  -11.5160 N   0  0  0  0  0  0  0  0  0  0  0  0
   26.1470   33.2650   -5.3930 C   0  0  0  0  0  0  0  0  0  0  0  0
   20.8230   36.7970   -9.6210 C   0  0  0  0  0  0  0  0  0  0  0  0
   20.8630   37.4560  -10.8420 C   0  0  0  0  0  0  0  0  0  0  0  0
   25.6160   34.2890   -4.6630 C   0  0  0  0  0  0  0  0  0  0  0  0
   22.6730   35.4560  -10.3210 C   0  0  0  0  0  0  0  0  0  0  0  0
   25.7890   34.5600   -3.1990 C   0  0  1  0  0  0  0  0  0  0  0  0
   21.7870   37.2330   -5.4120 C   0  0  0  0  0  0  0  0  0  0  0  0
   22.7760   38.0630   -6.1490 C   0  0  0  0  0  0  0  0  0  0  0  0
   22.4210   35.8770   -5.2510 C   0  0  0  0  0  0  0  0  0  0  0  0
   24.1660   37.5320   -5.7600 C   0  0  0  0  0  0  0  0  0  0  0  0
   20.0070   39.7010  -10.2820 C   0  0  0  0  0  0  0  0  0  0  0  0
   19.4940   38.7540  -12.4770 C   0  0  0  0  0  0  0  0  0  0  0  0
   18.6350   40.3310  -10.2230 C   0  0  0  0  0  0  0  0  0  0  0  0
   18.1250   39.3940  -12.4470 C   0  0  0  0  0  0  0  0  0  0  0  0
   23.9070   36.1900   -5.0740 C   0  0  2  0  0  0  0  0  0  0  0  0
   26.7790   35.9150   -1.4100 C   0  0  0  0  0  0  0  0  0  0  0  0
   27.2290   36.4740   -3.7640 C   0  0  0  0  0  0  0  0  0  0  0  0
   21.7250   35.7880   -9.3450 C   0  0  0  0  0  0  0  0  0  0  0  0
   25.1890   33.1700   -9.0790 N   0  0  0  0  0  0  0  0  0  0  0  0
   24.2280   35.0020   -7.8520 N   0  0  0  0  0  0  0  0  0  0  0  0
   24.8190   35.0970   -5.5080 N   0  0  0  0  0  0  0  0  0  0  0  0
   19.9730   38.4970  -11.1150 N   0  0  0  0  0  0  0  0  0  0  0  0
   23.6270   34.4910  -10.0630 N   0  0  0  0  0  0  0  0  0  0  0  0
   26.5500   35.5920   -2.8200 N   0  0  0  0  0  0  0  0  0  0  0  0
   18.1380   40.6160  -11.5980 N   0  0  0  0  0  0  0  0  0  0  0  0
   25.2860   33.7710   -2.3990 O   0  0  0  0  0  0  0  0  0  0  0  0
   26.3470   31.8330   -8.0650 H   0  0  0  0  0  0  0  0  0  0  0  0
   21.9660   37.4740  -12.7470 H   0  0  0  0  0  0  0  0  0  0  0  0
   26.7910   32.4690   -5.0230 H   0  0  0  0  0  0  0  0  0  0  0  0
   20.0830   37.0830   -8.8760 H   0  0  0  0  0  0  0  0  0  0  0  0
   20.8590   37.1620   -5.9760 H   0  0  0  0  0  0  0  0  0  0  0  0
   21.5180   37.6650   -4.4500 H   0  0  0  0  0  0  0  0  0  0  0  0
   22.6020   38.0420   -7.2230 H   0  0  0  0  0  0  0  0  0  0  0  0
   22.6740   39.1140   -5.8850 H   0  0  0  0  0  0  0  0  0  0  0  0
   22.1940   35.2200   -6.0890 H   0  0  0  0  0  0  0  0  0  0  0  0
   22.0320   35.3530   -4.3800 H   0  0  0  0  0  0  0  0  0  0  0  0
   24.7990   37.4510   -6.6440 H   0  0  0  0  0  0  0  0  0  0  0  0
   24.7090   38.2130   -5.1060 H   0  0  0  0  0  0  0  0  0  0  0  0
   20.7470   40.4330  -10.6030 H   0  0  0  0  0  0  0  0  0  0  0  0
   20.3310   39.4290   -9.2780 H   0  0  0  0  0  0  0  0  0  0  0  0
   20.1630   39.3640  -13.0830 H   0  0  0  0  0  0  0  0  0  0  0  0
   19.4280   37.8030  -13.0050 H   0  0  0  0  0  0  0  0  0  0  0  0
   17.9420   39.6870   -9.6830 H   0  0  0  0  0  0  0  0  0  0  0  0
   18.6710   41.2520   -9.6430 H   0  0  0  0  0  0  0  0  0  0  0  0
   17.8140   39.6100  -13.4680 H   0  0  0  0  0  0  0  0  0  0  0  0
   17.3720   38.6980  -12.0810 H   0  0  0  0  0  0  0  0  0  0  0  0
   24.0550   36.3540   -4.0090 H   0  0  0  0  0  0  0  0  0  0  0  0
   27.7920   36.2770   -1.2410 H   0  0  0  0  0  0  0  0  0  0  0  0
   26.1000   36.6990   -1.0770 H   0  0  0  0  0  0  0  0  0  0  0  0
   26.6460   35.0730   -0.7330 H   0  0  0  0  0  0  0  0  0  0  0  0
   27.9110   35.9640   -4.4430 H   0  0  0  0  0  0  0  0  0  0  0  0
   26.5090   37.0110   -4.3780 H   0  0  0  0  0  0  0  0  0  0  0  0
   27.8260   37.2350   -3.2630 H   0  0  0  0  0  0  0  0  0  0  0  0
   21.6700   35.2980   -8.3750 H   0  0  0  0  0  0  0  0  0  0  0  0
   23.7710   33.8510  -10.8380 H   0  0  0  0  0  0  0  0  0  0  0  0
   17.2150   41.0360  -11.5670 H   0  0  0  0  0  0  0  0  0  0  0  0
   23.5629   33.6066   -8.6544 H   0  0  0  0  0  0  0  0  0  0  0  0
   24.9214   32.1467   -7.7085 H   0  0  0  0  0  0  0  0  0  0  0  0
   26.5791   34.0129   -6.9748 H   0  0  0  0  0  0  0  0  0  0  0  0
   25.7531   35.1540   -7.0374 H   0  0  0  0  0  0  0  0  0  0  0  0
   21.1270   36.3001  -12.1654 H   0  0  0  0  0  0  0  0  0  0  0  0
   22.5783   35.3378  -12.2340 H   0  0  0  0  0  0  0  0  0  0  0  0
   27.0253   33.8855   -5.6245 H   0  0  0  0  0  0  0  0  0  0  0  0
   20.1256   36.0582  -10.0426 H   0  0  0  0  0  0  0  0  0  0  0  0
   20.1544   36.7255  -11.2595 H   0  0  0  0  0  0  0  0  0  0  0  0
   24.7305   33.6741   -4.4445 H   0  0  0  0  0  0  0  0  0  0  0  0
   23.3594   36.2116   -9.9113 H   0  0  0  0  0  0  0  0  0  0  0  0
   26.6712   33.9031   -3.1816 H   0  0  0  0  0  0  0  0  0  0  0  0
   21.0290   35.0496   -9.7698 H   0  0  0  0  0  0  0  0  0  0  0  0
   24.6085   32.3916   -9.4225 H   0  0  0  0  0  0  0  0  0  0  0  0
   24.5654   35.9549   -8.0497 H   0  0  0  0  0  0  0  0  0  0  0  0
   25.4772   34.0710   -1.4751 H   0  0  0  0  0  0  0  0  0  0  0  0
  2  3  1  0
  3  4  1  0
  5  6  1  0
  3  7  1  0
  5  9  1  0
  8  9  1  0
  7 10  1  0
  6 11  1  0
 10 12  1  0
 13 14  1  0
 13 15  1  0
 14 16  1  0
 17 19  1  0
 18 20  1  0
 15 21  1  0
 16 21  1  0
  8 24  1  0
 11 24  1  0
  1 25  1  0
  2 25  1  0
  1 26  1  0
  4 26  1  0
  4 27  1  0
 10 27  1  0
 21 27  1  0
  9 28  1  0
 17 28  1  0
 18 28  1  0
  1 29  1  0
 11 29  1  0
 12 30  1  0
 22 30  1  0
 23 30  1  0
 19 31  1  0
 20 31  1  0
 12 32  1  0
  2 33  1  0
  5 34  1  0
  7 35  1  0
  8 36  1  0
 13 37  1  0
 13 38  1  0
 14 39  1  0
 14 40  1  0
 15 41  1  0
 15 42  1  0
 16 43  1  0
 16 44  1  0
 17 45  1  0
 17 46  1  0
 18 47  1  0
 18 48  1  0
 19 49  1  0
 19 50  1  0
 20 51  1  0
 20 52  1  0
 21 53  1  1
 22 54  1  0
 22 55  1  0
 22 56  1  0
 23 57  1  0
 23 58  1  0
 23 59  1  0
 24 60  1  0
 29 61  1  0
 31 62  1  0
  1 63  1  6
  2 64  1  0
  3 65  1  0
  4 66  1  0
  5 67  1  0
  6 68  1  0
  7 69  1  0
  8 70  1  0
  9 71  1  0
 10 72  1  0
 11 73  1  0
 12 74  1  1
 24 75  1  0
 25 76  1  0
 26 77  1  0
 32 78  1  0
M  END
>  <PDBID>  (1) 
5L2T

>  <PDB ID>  (1) 
5L2T

>  <Generic Name>  (1) 
Ribociclib

>  <Brand Name>  (1) 
Kisqali

>  <DrugBank ID>  (1) 
DB11730

>  <ATC Codes>  (1) 
nan

>  <Ligand ID>  (1) 
6ZZ

>  <Target Name>  (1) 
Cyclin-dependent kinase 6

>  <UniProt ID>  (1) 
Q00534

>  <PDB ID.1>  (1) 
5L2T

>  <Seq. Identity>  (1) 
100%

$$$$
