PDB_DB00205_96
     RDKit          3D

 84 86  0  0  0  0  0  0  0  0999 V2000
   29.9140    4.1220   56.7220 N   0  0  0  0  0  0  0  0  0  0  0  0
   29.3240    4.9030   55.7340 C   0  0  0  0  0  0  0  0  0  0  0  0
   29.5360    4.2550   58.0550 C   0  0  0  0  0  0  0  0  0  0  0  0
   28.4730    5.2440   58.4760 C   0  0  0  0  0  0  0  0  0  0  0  0
   27.8940    6.0490   57.2970 C   0  0  0  0  0  0  0  0  0  0  0  0
   28.3220    5.8640   55.9980 N   0  0  0  0  0  0  0  0  0  0  0  0
   28.0040    5.4410   59.8290 C   0  0  0  0  0  0  0  0  0  0  0  0
   28.3740    6.5680   60.6530 C   0  0  0  0  0  0  0  0  0  0  0  0
   27.8580    6.7310   61.9770 C   0  0  0  0  0  0  0  0  0  0  0  0
   26.9130    5.7220   62.5250 C   0  0  0  0  0  0  0  0  0  0  0  0
   26.5110    4.5860   61.7600 C   0  0  0  0  0  0  0  0  0  0  0  0
   27.0490    4.4410   60.4210 C   0  0  0  0  0  0  0  0  0  0  0  0
   30.1160    3.4870   58.9970 N   0  0  0  0  0  0  0  0  0  0  0  0
   29.7400    4.7290   54.4110 N   0  0  0  0  0  0  0  0  0  0  0  0
   26.8050    7.0800   57.5460 C   0  0  0  0  0  0  0  0  0  0  0  0
   25.3700    6.7150   57.2120 C   0  0  0  0  0  0  0  0  0  0  0  0
   26.3920    6.0470   64.0460 Cl  0  0  0  0  0  0  0  0  0  0  0  0
   28.3180  -27.5910    9.4460 N   0  0  0  0  0  0  0  0  0  0  0  0
   28.9830  -26.3760    9.1990 C   0  0  0  0  0  0  0  0  0  0  0  0
   28.7110  -28.7610    8.7740 C   0  0  0  0  0  0  0  0  0  0  0  0
   29.8600  -28.7590    7.7630 C   0  0  0  0  0  0  0  0  0  0  0  0
   30.5030  -27.3530    7.5930 C   0  0  0  0  0  0  0  0  0  0  0  0
   30.0530  -26.2460    8.2950 N   0  0  0  0  0  0  0  0  0  0  0  0
   30.3140  -29.9540    7.0300 C   0  0  0  0  0  0  0  0  0  0  0  0
   30.0320  -30.1960    5.6260 C   0  0  0  0  0  0  0  0  0  0  0  0
   30.5020  -31.3880    4.9400 C   0  0  0  0  0  0  0  0  0  0  0  0
   31.3000  -32.4060    5.6860 C   0  0  0  0  0  0  0  0  0  0  0  0
   31.6040  -32.2150    7.0700 C   0  0  0  0  0  0  0  0  0  0  0  0
   31.1200  -31.0070    7.7380 C   0  0  0  0  0  0  0  0  0  0  0  0
   28.0670  -29.9260    9.0160 N   0  0  0  0  0  0  0  0  0  0  0  0
   28.5720  -25.2250    9.8780 N   0  0  0  0  0  0  0  0  0  0  0  0
   31.6690  -27.1460    6.6310 C   0  0  0  0  0  0  0  0  0  0  0  0
   33.0620  -26.8950    7.1670 C   0  0  0  0  0  0  0  0  0  0  0  0
   31.7820  -33.7280    4.7950 Cl  0  0  0  0  0  0  0  0  0  0  0  0
   29.7398    3.1403   56.4637 H   0  0  0  0  0  0  0  0  0  0  0  0
   28.5496    4.1352   55.5895 H   0  0  0  0  0  0  0  0  0  0  0  0
   30.3087    5.0249   58.1973 H   0  0  0  0  0  0  0  0  0  0  0  0
   29.2460    6.0130   58.6214 H   0  0  0  0  0  0  0  0  0  0  0  0
   28.6672    6.8178   57.4423 H   0  0  0  0  0  0  0  0  0  0  0  0
   28.6799    6.7712   55.6667 H   0  0  0  0  0  0  0  0  0  0  0  0
   28.8686    4.8781   60.2107 H   0  0  0  0  0  0  0  0  0  0  0  0
   29.4693    6.5347   60.7495 H   0  0  0  0  0  0  0  0  0  0  0  0
   27.9153    7.4117   60.1166 H   0  0  0  0  0  0  0  0  0  0  0  0
   28.7230    6.7608   62.6559 H   0  0  0  0  0  0  0  0  0  0  0  0
   27.2480    7.6435   61.9055 H   0  0  0  0  0  0  0  0  0  0  0  0
   26.0661    6.2949   62.1193 H   0  0  0  0  0  0  0  0  0  0  0  0
   26.8016    3.6899   62.3279 H   0  0  0  0  0  0  0  0  0  0  0  0
   25.4306    4.7259   61.6080 H   0  0  0  0  0  0  0  0  0  0  0  0
   26.1826    4.4058   59.7441 H   0  0  0  0  0  0  0  0  0  0  0  0
   27.6857    3.5501   60.5252 H   0  0  0  0  0  0  0  0  0  0  0  0
   29.8545    3.8333   59.9311 H   0  0  0  0  0  0  0  0  0  0  0  0
   29.7974    2.5133   58.8902 H   0  0  0  0  0  0  0  0  0  0  0  0
   30.6902    4.3316   54.3993 H   0  0  0  0  0  0  0  0  0  0  0  0
   29.0937    4.0877   53.9294 H   0  0  0  0  0  0  0  0  0  0  0  0
   26.8350    7.3315   58.6164 H   0  0  0  0  0  0  0  0  0  0  0  0
   27.0437    7.8965   56.8487 H   0  0  0  0  0  0  0  0  0  0  0  0
   24.8022    6.5706   58.1430 H   0  0  0  0  0  0  0  0  0  0  0  0
   24.9125    7.5254   56.6255 H   0  0  0  0  0  0  0  0  0  0  0  0
   25.3553    5.7845   56.6255 H   0  0  0  0  0  0  0  0  0  0  0  0
   28.4133  -27.7816   10.4537 H   0  0  0  0  0  0  0  0  0  0  0  0
   29.6937  -26.6006   10.0080 H   0  0  0  0  0  0  0  0  0  0  0  0
   27.9995  -28.5358    7.9659 H   0  0  0  0  0  0  0  0  0  0  0  0
   29.1489  -28.5314    6.9552 H   0  0  0  0  0  0  0  0  0  0  0  0
   29.7945  -27.1270    6.7825 H   0  0  0  0  0  0  0  0  0  0  0  0
   29.7685  -25.5454    7.5956 H   0  0  0  0  0  0  0  0  0  0  0  0
   29.3861  -30.4761    7.3064 H   0  0  0  0  0  0  0  0  0  0  0  0
   28.9364  -30.1961    5.5276 H   0  0  0  0  0  0  0  0  0  0  0  0
   30.6131  -29.4022    5.1338 H   0  0  0  0  0  0  0  0  0  0  0  0
   29.6117  -31.9036    4.5507 H   0  0  0  0  0  0  0  0  0  0  0  0
   31.2164  -30.9935    4.2024 H   0  0  0  0  0  0  0  0  0  0  0  0
   32.2268  -31.8817    5.4101 H   0  0  0  0  0  0  0  0  0  0  0  0
   31.1862  -33.0748    7.6143 H   0  0  0  0  0  0  0  0  0  0  0  0
   32.6987  -32.1090    7.0895 H   0  0  0  0  0  0  0  0  0  0  0  0
   32.0129  -30.4961    8.1274 H   0  0  0  0  0  0  0  0  0  0  0  0
   30.3796  -31.4210    8.4383 H   0  0  0  0  0  0  0  0  0  0  0  0
   27.9876  -30.0696   10.0328 H   0  0  0  0  0  0  0  0  0  0  0  0
   27.1255  -29.8908    8.5997 H   0  0  0  0  0  0  0  0  0  0  0  0
   28.6297  -25.3865   10.8936 H   0  0  0  0  0  0  0  0  0  0  0  0
   29.1838  -24.4375    9.6203 H   0  0  0  0  0  0  0  0  0  0  0  0
   31.7281  -28.0492    6.0060 H   0  0  0  0  0  0  0  0  0  0  0  0
   31.4176  -26.1984    6.1321 H   0  0  0  0  0  0  0  0  0  0  0  0
   33.0380  -26.8993    8.2667 H   0  0  0  0  0  0  0  0  0  0  0  0
   33.7395  -27.6855    6.8119 H   0  0  0  0  0  0  0  0  0  0  0  0
   33.4209  -25.9177    6.8119 H   0  0  0  0  0  0  0  0  0  0  0  0
  1  2  1  0
  1  3  1  0
  3  4  1  0
  4  5  1  0
  2  6  1  0
  5  6  1  0
  4  7  1  0
  7  8  1  0
  8  9  1  0
  9 10  1  0
 10 11  1  0
  7 12  1  0
 11 12  1  0
  3 13  1  0
  2 14  1  0
  5 15  1  0
 15 16  1  0
 10 17  1  0
 18 19  1  0
 18 20  1  0
 20 21  1  0
 21 22  1  0
 19 23  1  0
 22 23  1  0
 21 24  1  0
 24 25  1  0
 25 26  1  0
 26 27  1  0
 27 28  1  0
 24 29  1  0
 28 29  1  0
 20 30  1  0
 19 31  1  0
 22 32  1  0
 32 33  1  0
 27 34  1  0
  1 35  1  0
  2 36  1  0
  3 37  1  0
  4 38  1  0
  5 39  1  0
  6 40  1  0
  7 41  1  0
  8 42  1  0
  8 43  1  0
  9 44  1  0
  9 45  1  0
 10 46  1  0
 11 47  1  0
 11 48  1  0
 12 49  1  0
 12 50  1  0
 13 51  1  0
 13 52  1  0
 14 53  1  0
 14 54  1  0
 15 55  1  0
 15 56  1  0
 16 57  1  0
 16 58  1  0
 16 59  1  0
 18 60  1  0
 19 61  1  0
 20 62  1  0
 21 63  1  0
 22 64  1  0
 23 65  1  0
 24 66  1  0
 25 67  1  0
 25 68  1  0
 26 69  1  0
 26 70  1  0
 27 71  1  0
 28 72  1  0
 28 73  1  0
 29 74  1  0
 29 75  1  0
 30 76  1  0
 30 77  1  0
 31 78  1  0
 31 79  1  0
 32 80  1  0
 32 81  1  0
 33 82  1  0
 33 83  1  0
 33 84  1  0
M  END
>  <PDBID>  (1) 
3UM5

>  <PDB ID>  (1) 
3UM5

>  <Generic Name>  (1) 
Pyrimethamine

>  <Brand Name>  (1) 
Daraprim#Fansidar Tablets#Pyrimethamine Leucovorin

>  <DrugBank ID>  (1) 
DB00205

>  <ATC Codes>  (1) 
P01BF04#P01BD01#P01BD51

>  <Ligand ID>  (1) 
CP6

>  <Target Name>  (1) 
Bifunctional dihydrofolate reductase-thymidylate synthase

>  <UniProt ID>  (1) 
P13922

>  <PDB ID.1>  (1) 
3UM5

>  <Seq. Identity>  (1) 
96%

$$$$
