PDB_DB00218_98
     RDKit          3D

130138  0  0  0  0  0  0  0  0999 V2000
  104.5570   13.7450  316.6260 F   0  0  0  0  0  0  0  0  0  0  0  0
  106.5620    9.3940  317.4150 O   0  0  0  0  0  0  0  0  0  0  0  0
  104.0100   11.4960  312.3750 O   0  0  0  0  0  0  0  0  0  0  0  0
  104.8880    7.8380  310.6570 O   0  0  0  0  0  0  0  0  0  0  0  0
  103.9470    9.7850  310.1820 O   0  0  0  0  0  0  0  0  0  0  0  0
  105.8720   11.9230  318.3350 N   0  0  0  0  0  0  0  0  0  0  0  0
  105.2170   11.4360  321.6150 N   0  0  0  0  0  0  0  0  0  0  0  0
  105.8970    8.6030  314.5220 N   0  0  0  0  0  0  0  0  0  0  0  0
  107.0310   12.7250  320.2640 C   0  0  2  0  0  0  0  0  0  0  0  0
  105.5260   12.5020  320.6310 C   0  0  1  0  0  0  0  0  0  0  0  0
  107.2130   12.0270  318.8910 C   0  0  0  0  0  0  0  0  0  0  0  0
  104.8100   12.2230  319.2850 C   0  0  0  0  0  0  0  0  0  0  0  0
  108.0920   12.2230  321.2870 C   0  0  0  0  0  0  0  0  0  0  0  0
  106.5590    7.3480  314.9150 C   0  0  2  0  0  0  0  0  0  0  0  0
  107.5650   11.3340  322.4470 C   0  0  0  0  0  0  0  0  0  0  0  0
  106.6450    6.6690  316.3370 C   0  0  0  0  0  0  0  0  0  0  0  0
  107.9200    7.3680  315.7160 C   0  0  0  0  0  0  0  0  0  0  0  0
  106.0750   11.5640  322.8070 C   0  0  0  0  0  0  0  0  0  0  0  0
  105.5880   11.4980  317.0030 C   0  0  0  0  0  0  0  0  0  0  0  0
  105.6410    9.7940  315.1530 C   0  0  0  0  0  0  0  0  0  0  0  0
  105.9390   10.2020  316.5080 C   0  0  0  0  0  0  0  0  0  0  0  0
  104.9720   10.7890  314.3640 C   0  0  0  0  0  0  0  0  0  0  0  0
  104.9360   12.4170  316.1740 C   0  0  0  0  0  0  0  0  0  0  0  0
  105.5480    8.4140  313.2540 C   0  0  0  0  0  0  0  0  0  0  0  0
  104.6360   12.0530  314.8670 C   0  0  0  0  0  0  0  0  0  0  0  0
  104.8980    9.3460  312.4470 C   0  0  0  0  0  0  0  0  0  0  0  0
  104.5970   10.5830  313.0210 C   0  0  0  0  0  0  0  0  0  0  0  0
  104.5780    8.9610  311.0540 C   0  0  0  0  0  0  0  0  0  0  0  0
  105.8470    8.8640  318.5080 C   0  0  0  0  0  0  0  0  0  0  0  0
   90.2580    9.6120  320.0850 F   0  0  0  0  0  0  0  0  0  0  0  0
   88.2870   11.5060  316.0740 O   0  0  0  0  0  0  0  0  0  0  0  0
   90.6550    6.0190  316.7080 O   0  0  0  0  0  0  0  0  0  0  0  0
   89.6430    5.5110  312.7120 O   0  0  0  0  0  0  0  0  0  0  0  0
   90.5840    4.4500  314.4080 O   0  0  0  0  0  0  0  0  0  0  0  0
   89.0010   11.7610  318.7530 N   0  0  0  0  0  0  0  0  0  0  0  0
   90.0250   14.9760  320.0800 N   0  0  0  0  0  0  0  0  0  0  0  0
   88.8350    9.0110  314.6440 N   0  0  0  0  0  0  0  0  0  0  0  0
   87.9040   13.5270  319.9410 C   0  0  2  0  0  0  0  0  0  0  0  0
   89.4460   13.6110  320.1650 C   0  0  1  0  0  0  0  0  0  0  0  0
   87.6790   12.3320  318.9750 C   0  0  0  0  0  0  0  0  0  0  0  0
   90.0900   12.6400  319.1420 C   0  0  0  0  0  0  0  0  0  0  0  0
   87.3140   14.8610  319.4090 C   0  0  0  0  0  0  0  0  0  0  0  0
   88.1820    9.9650  313.7470 C   0  0  2  0  0  0  0  0  0  0  0  0
   88.2350   15.5320  318.3560 C   0  0  0  0  0  0  0  0  0  0  0  0
   86.5980    9.9810  313.7010 C   0  0  0  0  0  0  0  0  0  0  0  0
   87.4090    9.3750  312.4950 C   0  0  0  0  0  0  0  0  0  0  0  0
   89.7280   15.6260  318.7810 C   0  0  0  0  0  0  0  0  0  0  0  0
   89.2510   10.5660  318.0250 C   0  0  0  0  0  0  0  0  0  0  0  0
   89.1480    9.2230  315.9390 C   0  0  0  0  0  0  0  0  0  0  0  0
   88.8900   10.4310  316.6600 C   0  0  0  0  0  0  0  0  0  0  0  0
   89.7860    8.1670  316.6560 C   0  0  0  0  0  0  0  0  0  0  0  0
   89.8770    9.5040  318.6910 C   0  0  0  0  0  0  0  0  0  0  0  0
   89.1110    7.8570  314.0490 C   0  0  0  0  0  0  0  0  0  0  0  0
   90.1420    8.3150  318.0070 C   0  0  0  0  0  0  0  0  0  0  0  0
   89.7360    6.7800  314.6910 C   0  0  0  0  0  0  0  0  0  0  0  0
   90.0880    6.9330  316.0450 C   0  0  0  0  0  0  0  0  0  0  0  0
   89.9840    5.5520  313.8960 C   0  0  0  0  0  0  0  0  0  0  0  0
   89.0430   12.6010  315.6330 C   0  0  0  0  0  0  0  0  0  0  0  0
  103.5985   12.1361  313.0083 H   0  0  0  0  0  0  0  0  0  0  0  0
  105.0512    7.2467  311.4340 H   0  0  0  0  0  0  0  0  0  0  0  0
  103.4283   10.4623  310.6843 H   0  0  0  0  0  0  0  0  0  0  0  0
  104.2299   11.5134  321.8988 H   0  0  0  0  0  0  0  0  0  0  0  0
  107.2237   13.8080  320.2566 H   0  0  0  0  0  0  0  0  0  0  0  0
  105.1784   13.4043  321.1554 H   0  0  0  0  0  0  0  0  0  0  0  0
  107.6549   11.0282  319.0216 H   0  0  0  0  0  0  0  0  0  0  0  0
  107.8894   12.5892  318.2305 H   0  0  0  0  0  0  0  0  0  0  0  0
  104.2425   13.1078  318.9607 H   0  0  0  0  0  0  0  0  0  0  0  0
  104.0911   11.3946  319.3689 H   0  0  0  0  0  0  0  0  0  0  0  0
  108.8422   11.6401  320.7326 H   0  0  0  0  0  0  0  0  0  0  0  0
  108.4859   13.1299  321.7690 H   0  0  0  0  0  0  0  0  0  0  0  0
  106.1664    6.9822  313.9548 H   0  0  0  0  0  0  0  0  0  0  0  0
  107.6896   10.2804  322.1564 H   0  0  0  0  0  0  0  0  0  0  0  0
  108.1481   11.6058  323.3393 H   0  0  0  0  0  0  0  0  0  0  0  0
  106.1314    7.1250  317.1962 H   0  0  0  0  0  0  0  0  0  0  0  0
  106.4233    5.6681  316.7358 H   0  0  0  0  0  0  0  0  0  0  0  0
  108.7693    6.7588  315.3731 H   0  0  0  0  0  0  0  0  0  0  0  0
  108.6167    8.1521  316.0473 H   0  0  0  0  0  0  0  0  0  0  0  0
  105.9583   12.5738  323.2273 H   0  0  0  0  0  0  0  0  0  0  0  0
  105.7706   10.8033  323.5409 H   0  0  0  0  0  0  0  0  0  0  0  0
  106.5613   11.8884  316.6709 H   0  0  0  0  0  0  0  0  0  0  0  0
  104.6650    9.4091  315.4835 H   0  0  0  0  0  0  0  0  0  0  0  0
  104.9624    9.8135  316.8327 H   0  0  0  0  0  0  0  0  0  0  0  0
  103.9989   10.3981  314.6962 H   0  0  0  0  0  0  0  0  0  0  0  0
  105.9091   12.8078  315.8418 H   0  0  0  0  0  0  0  0  0  0  0  0
  106.4836    8.1751  312.7271 H   0  0  0  0  0  0  0  0  0  0  0  0
  104.7433    7.6752  313.3830 H   0  0  0  0  0  0  0  0  0  0  0  0
  105.1345   12.7880  314.2179 H   0  0  0  0  0  0  0  0  0  0  0  0
  103.5366   12.0190  314.8772 H   0  0  0  0  0  0  0  0  0  0  0  0
  103.9250    8.9551  312.7792 H   0  0  0  0  0  0  0  0  0  0  0  0
  105.5702   10.9740  312.6893 H   0  0  0  0  0  0  0  0  0  0  0  0
  105.5505    9.3487  310.7166 H   0  0  0  0  0  0  0  0  0  0  0  0
  106.3071    9.2050  319.4472 H   0  0  0  0  0  0  0  0  0  0  0  0
  104.8031    9.2082  318.4649 H   0  0  0  0  0  0  0  0  0  0  0  0
  105.8728    7.7651  318.4649 H   0  0  0  0  0  0  0  0  0  0  0  0
   90.5449    6.1965  317.6757 H   0  0  0  0  0  0  0  0  0  0  0  0
   88.6617    5.3930  312.6551 H   0  0  0  0  0  0  0  0  0  0  0  0
   90.5615    4.4914  315.3969 H   0  0  0  0  0  0  0  0  0  0  0  0
   89.6311   15.5519  320.8377 H   0  0  0  0  0  0  0  0  0  0  0  0
   87.3696   13.3614  320.8881 H   0  0  0  0  0  0  0  0  0  0  0  0
   89.6668   13.3226  321.2033 H   0  0  0  0  0  0  0  0  0  0  0  0
   87.2457   12.6804  318.0259 H   0  0  0  0  0  0  0  0  0  0  0  0
   86.9790   11.5937  319.3931 H   0  0  0  0  0  0  0  0  0  0  0  0
   90.9063   12.0679  319.6072 H   0  0  0  0  0  0  0  0  0  0  0  0
   90.5353   13.1653  318.2842 H   0  0  0  0  0  0  0  0  0  0  0  0
   86.3373   14.6565  318.9461 H   0  0  0  0  0  0  0  0  0  0  0  0
   87.2175   15.5504  320.2607 H   0  0  0  0  0  0  0  0  0  0  0  0
   88.9621   10.7250  313.9012 H   0  0  0  0  0  0  0  0  0  0  0  0
   88.1775   14.9481  317.4256 H   0  0  0  0  0  0  0  0  0  0  0  0
   87.8757   16.5646  318.2346 H   0  0  0  0  0  0  0  0  0  0  0  0
   86.0224    9.3184  314.3641 H   0  0  0  0  0  0  0  0  0  0  0  0
   85.8260   10.7576  313.8054 H   0  0  0  0  0  0  0  0  0  0  0  0
   87.4386    9.9047  311.5314 H   0  0  0  0  0  0  0  0  0  0  0  0
   87.4094    8.4107  311.9658 H   0  0  0  0  0  0  0  0  0  0  0  0
   90.0006   16.6891  318.8553 H   0  0  0  0  0  0  0  0  0  0  0  0
   90.3118   15.0927  318.0163 H   0  0  0  0  0  0  0  0  0  0  0  0
   88.2661   10.1779  318.3239 H   0  0  0  0  0  0  0  0  0  0  0  0
   90.1314    9.6130  315.6375 H   0  0  0  0  0  0  0  0  0  0  0  0
   89.8744   10.8203  316.3611 H   0  0  0  0  0  0  0  0  0  0  0  0
   90.7695    8.5563  316.3542 H   0  0  0  0  0  0  0  0  0  0  0  0
   88.8937    9.1120  318.9901 H   0  0  0  0  0  0  0  0  0  0  0  0
   88.1479    7.4702  313.6846 H   0  0  0  0  0  0  0  0  0  0  0  0
   89.8948    8.1656  313.3416 H   0  0  0  0  0  0  0  0  0  0  0  0
   89.6249    7.5149  318.5570 H   0  0  0  0  0  0  0  0  0  0  0  0
   91.2413    8.2929  317.9733 H   0  0  0  0  0  0  0  0  0  0  0  0
   90.7191    7.1718  314.3911 H   0  0  0  0  0  0  0  0  0  0  0  0
   89.1051    6.5427  316.3475 H   0  0  0  0  0  0  0  0  0  0  0  0
   89.0019    5.1551  314.1926 H   0  0  0  0  0  0  0  0  0  0  0  0
   89.4261   13.1559  316.5021 H   0  0  0  0  0  0  0  0  0  0  0  0
   89.8872   12.2429  315.0254 H   0  0  0  0  0  0  0  0  0  0  0  0
   88.4090   13.2635  315.0254 H   0  0  0  0  0  0  0  0  0  0  0  0
  7 10  1  0
  9 10  1  0
  6 11  1  0
  9 11  1  0
  6 12  1  0
 10 12  1  0
  9 13  1  0
  8 14  1  0
 13 15  1  0
 14 16  1  0
 14 17  1  0
 16 17  1  0
  7 18  1  0
 15 18  1  0
  6 19  1  0
  8 20  1  0
  2 21  1  0
 19 21  1  0
 20 21  1  0
 20 22  1  0
  1 23  1  0
 19 23  1  0
  8 24  1  0
 22 25  1  0
 23 25  1  0
 24 26  1  0
  3 27  1  0
 22 27  1  0
 26 27  1  0
  4 28  1  0
  5 28  1  0
 26 28  1  0
  2 29  1  0
 36 39  1  0
 38 39  1  0
 35 40  1  0
 38 40  1  0
 35 41  1  0
 39 41  1  0
 38 42  1  0
 37 43  1  0
 42 44  1  0
 43 45  1  0
 43 46  1  0
 45 46  1  0
 36 47  1  0
 44 47  1  0
 35 48  1  0
 37 49  1  0
 31 50  1  0
 48 50  1  0
 49 50  1  0
 49 51  1  0
 30 52  1  0
 48 52  1  0
 37 53  1  0
 51 54  1  0
 52 54  1  0
 53 55  1  0
 32 56  1  0
 51 56  1  0
 55 56  1  0
 33 57  1  0
 34 57  1  0
 55 57  1  0
 31 58  1  0
  3 59  1  0
  4 60  1  0
  5 61  1  0
  7 62  1  0
  9 63  1  6
 10 64  1  1
 11 65  1  0
 11 66  1  0
 12 67  1  0
 12 68  1  0
 13 69  1  0
 13 70  1  0
 14 71  1  6
 15 72  1  0
 15 73  1  0
 16 74  1  0
 16 75  1  0
 17 76  1  0
 17 77  1  0
 18 78  1  0
 18 79  1  0
 19 80  1  0
 20 81  1  0
 21 82  1  0
 22 83  1  0
 23 84  1  0
 24 85  1  0
 24 86  1  0
 25 87  1  0
 25 88  1  0
 26 89  1  0
 27 90  1  0
 28 91  1  0
 29 92  1  0
 29 93  1  0
 29 94  1  0
 32 95  1  0
 33 96  1  0
 34 97  1  0
 36 98  1  0
 38 99  1  1
 39100  1  1
 40101  1  0
 40102  1  0
 41103  1  0
 41104  1  0
 42105  1  0
 42106  1  0
 43107  1  6
 44108  1  0
 44109  1  0
 45110  1  0
 45111  1  0
 46112  1  0
 46113  1  0
 47114  1  0
 47115  1  0
 48116  1  0
 49117  1  0
 50118  1  0
 51119  1  0
 52120  1  0
 53121  1  0
 53122  1  0
 54123  1  0
 54124  1  0
 55125  1  0
 56126  1  0
 57127  1  0
 58128  1  0
 58129  1  0
 58130  1  0
M  END
>  <PDBID>  (1) 
4Z2C

>  <PDB ID>  (1) 
4Z2C

>  <Generic Name>  (1) 
Moxifloxacin

>  <Brand Name>  (1) 
Act Moxifloxacin#Apo-moxifloxacin#Auro-moxifloxacin#Avelox#Avelox Abc Pack#Avelox I.V.#Bio-moxifloxacin#Dom-moxifloxacin#Ipg-moxifloxacin#Jamp-moxifloxacin#Jamp-moxifloxacin Tablets#Mar-moxifloxacin#Med-moxifloxacin#Moxeza#Moxifloxacin#Moxifloxacin Hydrochloride#Moxifloxacin Injection#Mylan-moxifloxacin#Mylan-moxifloxacin HCl Ophthalmic Solution#PHL-moxifloxacin#PMS-moxifloxacin#Priva-moxifloxacin#Riva-moxifloxacin#Sandoz Moxifloxacin#Teva-moxifloxacin#Torrent-moxifloxacin#Vigamox

>  <DrugBank ID>  (1) 
DB00218

>  <ATC Codes>  (1) 
J01MA14#S01AE07

>  <Ligand ID>  (1) 
MFX

>  <Target Name>  (1) 
DNA gyrase subunit A

>  <UniProt ID>  (1) 
P43700

>  <PDB ID.1>  (1) 
4Z2C

>  <Seq. Identity>  (1) 
50%

$$$$
