PDB_DB01064_99
     RDKit          3D

 76 76  0  0  0  0  0  0  0  0999 V2000
  -27.6980  -15.4470   25.0920 C   0  0  0  0  0  0  0  0  0  0  0  0
  -26.1780  -15.4000   25.2170 C   0  0  1  0  0  0  0  0  0  0  0  0
  -25.5400  -16.5420   24.3930 C   0  0  0  0  0  0  0  0  0  0  0  0
  -25.7030  -14.0740   24.7580 N   0  0  0  0  0  0  0  0  0  0  0  0
  -24.2770  -13.8010   25.0480 C   0  0  0  0  0  0  0  0  0  0  0  0
  -24.0400  -12.2910   25.0850 C   0  0  2  0  0  0  0  0  0  0  0  0
  -24.4230  -11.7730   23.8210 O   0  0  0  0  0  0  0  0  0  0  0  0
  -22.5730  -11.9970   25.3340 C   0  0  0  0  0  0  0  0  0  0  0  0
  -21.9820  -12.4770   26.4810 C   0  0  0  0  0  0  0  0  0  0  0  0
  -21.8090  -11.2550   24.4310 C   0  0  0  0  0  0  0  0  0  0  0  0
  -20.4570  -10.9840   24.6780 C   0  0  0  0  0  0  0  0  0  0  0  0
  -19.8740  -11.4800   25.8380 C   0  0  0  0  0  0  0  0  0  0  0  0
  -18.5660  -11.2330   26.0860 O   0  0  0  0  0  0  0  0  0  0  0  0
  -20.6410  -12.2280   26.7330 C   0  0  0  0  0  0  0  0  0  0  0  0
  -20.1060  -12.7290   27.8770 O   0  0  0  0  0  0  0  0  0  0  0  0
   12.8820  -12.8630   17.9540 C   0  0  0  0  0  0  0  0  0  0  0  0
   11.4300  -12.4670   17.7380 C   0  0  1  0  0  0  0  0  0  0  0  0
   10.5610  -13.7120   17.8240 C   0  0  0  0  0  0  0  0  0  0  0  0
   11.0360  -11.4760   18.7710 N   0  0  0  0  0  0  0  0  0  0  0  0
    9.5930  -11.2360   18.9700 C   0  0  0  0  0  0  0  0  0  0  0  0
    9.3910  -10.1500   20.0370 C   0  0  2  0  0  0  0  0  0  0  0  0
    9.8940  -10.5920   21.3080 O   0  0  0  0  0  0  0  0  0  0  0  0
    7.8910   -9.8270   20.1570 C   0  0  0  0  0  0  0  0  0  0  0  0
    7.2350   -9.2380   19.0740 C   0  0  0  0  0  0  0  0  0  0  0  0
    7.1770  -10.1300   21.3360 C   0  0  0  0  0  0  0  0  0  0  0  0
    5.8100   -9.8420   21.4160 C   0  0  0  0  0  0  0  0  0  0  0  0
    5.1630   -9.2570   20.3240 C   0  0  0  0  0  0  0  0  0  0  0  0
    3.8390   -8.9620   20.3820 O   0  0  0  0  0  0  0  0  0  0  0  0
    5.8730   -8.9510   19.1580 C   0  0  0  0  0  0  0  0  0  0  0  0
    5.2330   -8.3670   18.1020 O   0  0  0  0  0  0  0  0  0  0  0  0
  -28.1482  -15.4609   26.0956 H   0  0  0  0  0  0  0  0  0  0  0  0
  -28.0486  -14.5593   24.5452 H   0  0  0  0  0  0  0  0  0  0  0  0
  -27.9930  -16.3547   24.5452 H   0  0  0  0  0  0  0  0  0  0  0  0
  -25.8798  -15.5425   26.2662 H   0  0  0  0  0  0  0  0  0  0  0  0
  -25.1191  -17.2954   25.0751 H   0  0  0  0  0  0  0  0  0  0  0  0
  -26.3076  -17.0096   23.7588 H   0  0  0  0  0  0  0  0  0  0  0  0
  -24.7394  -16.1335   23.7588 H   0  0  0  0  0  0  0  0  0  0  0  0
  -25.8410  -14.0175   23.7389 H   0  0  0  0  0  0  0  0  0  0  0  0
  -24.0118  -14.2370   26.0225 H   0  0  0  0  0  0  0  0  0  0  0  0
  -23.6524  -14.2492   24.2613 H   0  0  0  0  0  0  0  0  0  0  0  0
  -24.6244  -11.8290   25.8944 H   0  0  0  0  0  0  0  0  0  0  0  0
  -25.0065  -10.9838   23.9508 H   0  0  0  0  0  0  0  0  0  0  0  0
  -22.8480  -11.0724   25.8626 H   0  0  0  0  0  0  0  0  0  0  0  0
  -22.5461  -12.0573   27.3270 H   0  0  0  0  0  0  0  0  0  0  0  0
  -22.0117  -13.5675   26.3400 H   0  0  0  0  0  0  0  0  0  0  0  0
  -21.8495  -11.7927   23.4722 H   0  0  0  0  0  0  0  0  0  0  0  0
  -22.2689  -10.2575   24.4896 H   0  0  0  0  0  0  0  0  0  0  0  0
  -19.8860  -11.3907   23.8303 H   0  0  0  0  0  0  0  0  0  0  0  0
  -20.4254   -9.8926   24.8112 H   0  0  0  0  0  0  0  0  0  0  0  0
  -19.5989  -12.4023   25.3054 H   0  0  0  0  0  0  0  0  0  0  0  0
  -18.4152  -11.2045   27.0640 H   0  0  0  0  0  0  0  0  0  0  0  0
  -20.3692  -13.1489   26.1963 H   0  0  0  0  0  0  0  0  0  0  0  0
  -20.5497  -12.3135   28.6584 H   0  0  0  0  0  0  0  0  0  0  0  0
   13.0900  -12.9197   19.0327 H   0  0  0  0  0  0  0  0  0  0  0  0
   13.0669  -13.8444   17.4928 H   0  0  0  0  0  0  0  0  0  0  0  0
   13.5395  -12.1114   17.4928 H   0  0  0  0  0  0  0  0  0  0  0  0
   11.2989  -12.0103   16.7459 H   0  0  0  0  0  0  0  0  0  0  0  0
   10.3850  -13.9641   18.8802 H   0  0  0  0  0  0  0  0  0  0  0  0
    9.5982  -13.5222   17.3270 H   0  0  0  0  0  0  0  0  0  0  0  0
   11.0712  -14.5503   17.3270 H   0  0  0  0  0  0  0  0  0  0  0  0
   11.4222  -11.7975   19.6701 H   0  0  0  0  0  0  0  0  0  0  0  0
    9.1432  -10.9054   18.0221 H   0  0  0  0  0  0  0  0  0  0  0  0
    9.1113  -12.1674   19.3025 H   0  0  0  0  0  0  0  0  0  0  0  0
    9.9437   -9.2476   19.7366 H   0  0  0  0  0  0  0  0  0  0  0  0
    9.3892  -10.1484   22.0350 H   0  0  0  0  0  0  0  0  0  0  0  0
    8.1372   -8.8296   20.5503 H   0  0  0  0  0  0  0  0  0  0  0  0
    7.7484   -8.2867   18.8705 H   0  0  0  0  0  0  0  0  0  0  0  0
    7.2832  -10.0139   18.2958 H   0  0  0  0  0  0  0  0  0  0  0  0
    7.2847  -11.2117   21.5041 H   0  0  0  0  0  0  0  0  0  0  0  0
    7.6229   -9.4573   22.0834 H   0  0  0  0  0  0  0  0  0  0  0  0
    5.2948  -10.7920   21.6213 H   0  0  0  0  0  0  0  0  0  0  0  0
    5.7556   -9.0658   22.1935 H   0  0  0  0  0  0  0  0  0  0  0  0
    4.9232  -10.2560   19.9309 H   0  0  0  0  0  0  0  0  0  0  0  0
    3.5561   -8.8990   21.3286 H   0  0  0  0  0  0  0  0  0  0  0  0
    5.6382   -9.9467   18.7537 H   0  0  0  0  0  0  0  0  0  0  0  0
    4.5454   -7.7395   18.4389 H   0  0  0  0  0  0  0  0  0  0  0  0
  1  2  1  0
  2  3  1  0
  2  4  1  0
  4  5  1  0
  5  6  1  0
  6  7  1  0
  6  8  1  0
  8  9  1  0
  8 10  1  0
 10 11  1  0
 11 12  1  0
 12 13  1  0
  9 14  1  0
 12 14  1  0
 14 15  1  0
 16 17  1  0
 17 18  1  0
 17 19  1  0
 19 20  1  0
 20 21  1  0
 21 22  1  0
 21 23  1  0
 23 24  1  0
 23 25  1  0
 25 26  1  0
 26 27  1  0
 27 28  1  0
 24 29  1  0
 27 29  1  0
 29 30  1  0
  1 31  1  0
  1 32  1  0
  1 33  1  0
  2 34  1  1
  3 35  1  0
  3 36  1  0
  3 37  1  0
  4 38  1  0
  5 39  1  0
  5 40  1  0
  6 41  1  1
  7 42  1  0
  8 43  1  0
  9 44  1  0
  9 45  1  0
 10 46  1  0
 10 47  1  0
 11 48  1  0
 11 49  1  0
 12 50  1  0
 13 51  1  0
 14 52  1  0
 15 53  1  0
 16 54  1  0
 16 55  1  0
 16 56  1  0
 17 57  1  6
 18 58  1  0
 18 59  1  0
 18 60  1  0
 19 61  1  0
 20 62  1  0
 20 63  1  0
 21 64  1  6
 22 65  1  0
 23 66  1  0
 24 67  1  0
 24 68  1  0
 25 69  1  0
 25 70  1  0
 26 71  1  0
 26 72  1  0
 27 73  1  0
 28 74  1  0
 29 75  1  0
 30 76  1  0
M  END
>  <PDBID>  (1) 
2Y03

>  <PDB ID>  (1) 
2Y03

>  <Generic Name>  (1) 
Isoprenaline

>  <Brand Name>  (1) 
Isoproterenol HCl Inj 1:5000#Isoproterenol Hydrochloride Injection USP#Isuprel#Isuprel Inj 0.2mg/ml#Isuprel Liq 0.2mg/ml#Isuprel Liq 0.5%#Isuprel Liq Inh 0.5%#Isuprel Mistometer 125mcg/aem#Isuprel Mistometer Aem 0.25%#Medihaler-Iso#Proternol L#Saventrine

>  <DrugBank ID>  (1) 
DB01064

>  <ATC Codes>  (1) 
R03AK02#R03CB01#R03CB51#R03AB02#C01CA02

>  <Ligand ID>  (1) 
5FW

>  <Target Name>  (1) 
Beta-1 adrenergic receptor

>  <UniProt ID>  (1) 
P08588

>  <PDB ID.1>  (1) 
2Y03

>  <Seq. Identity>  (1) 
63%

$$$$
