PDB_DB00523_96
     RDKit          3D

 62 62  0  0  0  0  0  0  0  0999 V2000
   43.5280   13.7960   81.1740 C   0  0  2  0  0  0  0  0  0  0  0  0
   44.8090   14.5190   80.6580 C   0  0  0  0  0  0  0  0  0  0  0  0
   44.7550   16.0250   80.6630 C   0  0  0  0  0  0  0  0  0  0  0  0
   44.4620   16.5960   82.0150 C   0  0  0  0  0  0  0  0  0  0  0  0
   43.3120   15.8800   82.7280 C   0  0  0  0  0  0  0  0  0  0  0  0
   42.8830   14.6150   82.3740 C   0  0  0  0  0  0  0  0  0  0  0  0
   41.7960   13.8650   83.0600 C   0  0  0  0  0  0  0  0  0  0  0  0
   40.7350   14.2970   83.7710 C   0  0  0  0  0  0  0  0  0  0  0  0
   39.8120   13.4090   84.4270 C   0  0  0  0  0  0  0  0  0  0  0  0
   38.7770   13.8970   85.1470 C   0  0  0  0  0  0  0  0  0  0  0  0
   38.4090   15.2850   85.3610 C   0  0  0  0  0  0  0  0  0  0  0  0
   37.3180   15.4760   86.1320 C   0  0  0  0  0  0  0  0  0  0  0  0
   36.6950   16.7570   86.4220 C   0  0  0  0  0  0  0  0  0  0  0  0
   35.5770   16.7340   87.1920 C   0  0  0  0  0  0  0  0  0  0  0  0
   34.6610   17.8050   87.6290 C   0  0  0  0  0  0  0  0  0  0  0  0
   43.9430   12.3900   81.6550 C   0  0  0  0  0  0  0  0  0  0  0  0
   42.4910   13.6750   80.0110 C   0  0  0  0  0  0  0  0  0  0  0  0
   42.7630   16.7680   83.8460 C   0  0  0  0  0  0  0  0  0  0  0  0
   40.0350   11.8970   84.3040 C   0  0  0  0  0  0  0  0  0  0  0  0
   37.2930   18.0370   85.8200 C   0  0  0  0  0  0  0  0  0  0  0  0
   34.7960   18.9750   87.2310 O   0  0  0  0  0  0  0  0  0  0  0  0
   33.7180   17.5040   88.3710 O   0  0  0  0  0  0  0  0  0  0  0  0
   45.6516   14.2087   81.2934 H   0  0  0  0  0  0  0  0  0  0  0  0
   44.9150   14.2258   79.6031 H   0  0  0  0  0  0  0  0  0  0  0  0
   45.7269   16.4116   80.3225 H   0  0  0  0  0  0  0  0  0  0  0  0
   43.9355   16.3267   79.9942 H   0  0  0  0  0  0  0  0  0  0  0  0
   45.3665   16.5112   82.6353 H   0  0  0  0  0  0  0  0  0  0  0  0
   44.1601   17.6441   81.8722 H   0  0  0  0  0  0  0  0  0  0  0  0
   42.5971   16.3212   82.0179 H   0  0  0  0  0  0  0  0  0  0  0  0
   43.6132   14.1732   83.0680 H   0  0  0  0  0  0  0  0  0  0  0  0
   41.3471   13.2601   82.2584 H   0  0  0  0  0  0  0  0  0  0  0  0
   42.3942   13.5116   83.9128 H   0  0  0  0  0  0  0  0  0  0  0  0
   41.1439   14.9448   84.5604 H   0  0  0  0  0  0  0  0  0  0  0  0
   40.1015   14.7240   82.9795 H   0  0  0  0  0  0  0  0  0  0  0  0
   40.4432   13.4185   85.3279 H   0  0  0  0  0  0  0  0  0  0  0  0
   37.8844   13.4395   84.6954 H   0  0  0  0  0  0  0  0  0  0  0  0
   39.1560   13.6701   86.1544 H   0  0  0  0  0  0  0  0  0  0  0  0
   39.2586   15.7926   85.8411 H   0  0  0  0  0  0  0  0  0  0  0  0
   38.1586   15.6916   84.3701 H   0  0  0  0  0  0  0  0  0  0  0  0
   36.5268   14.8677   85.6694 H   0  0  0  0  0  0  0  0  0  0  0  0
   37.7413   15.2432   87.1202 H   0  0  0  0  0  0  0  0  0  0  0  0
   36.0749   16.6599   85.5187 H   0  0  0  0  0  0  0  0  0  0  0  0
   34.9171   16.0256   86.6697 H   0  0  0  0  0  0  0  0  0  0  0  0
   36.0907   16.6062   88.1563 H   0  0  0  0  0  0  0  0  0  0  0  0
   35.3196   18.0197   88.4835 H   0  0  0  0  0  0  0  0  0  0  0  0
   43.9501   12.3660   82.7547 H   0  0  0  0  0  0  0  0  0  0  0  0
   43.2260   11.6466   81.2766 H   0  0  0  0  0  0  0  0  0  0  0  0
   44.9488   12.1551   81.2766 H   0  0  0  0  0  0  0  0  0  0  0  0
   41.4812   13.5572   80.4310 H   0  0  0  0  0  0  0  0  0  0  0  0
   42.5269   14.5834   79.3917 H   0  0  0  0  0  0  0  0  0  0  0  0
   42.7351   12.7992   79.3917 H   0  0  0  0  0  0  0  0  0  0  0  0
   43.0300   16.3361   84.8218 H   0  0  0  0  0  0  0  0  0  0  0  0
   43.1960   17.7755   83.7601 H   0  0  0  0  0  0  0  0  0  0  0  0
   41.6682   16.8309   83.7601 H   0  0  0  0  0  0  0  0  0  0  0  0
   40.1005   11.4531   85.3083 H   0  0  0  0  0  0  0  0  0  0  0  0
   39.1937   11.4455   83.7577 H   0  0  0  0  0  0  0  0  0  0  0  0
   40.9708   11.7076   83.7577 H   0  0  0  0  0  0  0  0  0  0  0  0
   37.6079   18.7109   86.6304 H   0  0  0  0  0  0  0  0  0  0  0  0
   38.1635   17.7783   85.1992 H   0  0  0  0  0  0  0  0  0  0  0  0
   36.5360   18.5386   85.1992 H   0  0  0  0  0  0  0  0  0  0  0  0
   34.8661   19.5824   88.0096 H   0  0  0  0  0  0  0  0  0  0  0  0
   33.9998   17.5939   89.3158 H   0  0  0  0  0  0  0  0  0  0  0  0
  1  2  1  0
  2  3  1  0
  3  4  1  0
  4  5  1  0
  1  6  1  0
  5  6  1  0
  6  7  1  0
  7  8  1  0
  8  9  1  0
  9 10  1  0
 10 11  1  0
 11 12  1  0
 12 13  1  0
 13 14  1  0
 14 15  1  0
  1 16  1  1
  1 17  1  0
  5 18  1  0
  9 19  1  0
 13 20  1  0
 15 21  1  0
 15 22  1  0
  2 23  1  0
  2 24  1  0
  3 25  1  0
  3 26  1  0
  4 27  1  0
  4 28  1  0
  5 29  1  0
  6 30  1  0
  7 31  1  0
  7 32  1  0
  8 33  1  0
  8 34  1  0
  9 35  1  0
 10 36  1  0
 10 37  1  0
 11 38  1  0
 11 39  1  0
 12 40  1  0
 12 41  1  0
 13 42  1  0
 14 43  1  0
 14 44  1  0
 15 45  1  0
 16 46  1  0
 16 47  1  0
 16 48  1  0
 17 49  1  0
 17 50  1  0
 17 51  1  0
 18 52  1  0
 18 53  1  0
 18 54  1  0
 19 55  1  0
 19 56  1  0
 19 57  1  0
 20 58  1  0
 20 59  1  0
 20 60  1  0
 21 61  1  0
 22 62  1  0
M  END
>  <PDBID>  (1) 
3LBD

>  <PDB ID>  (1) 
3LBD

>  <Generic Name>  (1) 
Alitretinoin

>  <Brand Name>  (1) 
Panretin#Toctino

>  <DrugBank ID>  (1) 
DB00523

>  <ATC Codes>  (1) 
D11AH04#L01XX22

>  <Ligand ID>  (1) 
9CR

>  <Target Name>  (1) 
Retinoic acid receptor gamma

>  <UniProt ID>  (1) 
P13631

>  <PDB ID.1>  (1) 
3LBD

>  <Seq. Identity>  (1) 
93%

$$$$
