PDB_DB00701_99
     RDKit          3D

 86 88  0  0  0  0  0  0  0  0999 V2000
   11.1690   14.9770    2.4450 C   0  0  0  0  0  0  0  0  0  0  0  0
    9.1760   16.2240    2.9970 C   0  0  0  0  0  0  0  0  0  0  0  0
   10.1490   15.7020    5.9990 C   0  0  2  0  0  0  0  0  0  0  0  0
   10.1130   15.1490    3.5480 C   0  0  2  0  0  0  0  0  0  0  0  0
   10.9600   16.6620    8.1450 C   0  0  2  0  0  0  0  0  0  0  0  0
   10.3870   18.1190    8.4840 C   0  0  1  0  0  0  0  0  0  0  0  0
   12.4160   16.2780    8.6520 C   0  0  0  0  0  0  0  0  0  0  0  0
   12.8310   14.9140    8.1700 C   0  0  2  0  0  0  0  0  0  0  0  0
   13.6360   14.8250    6.9780 C   0  0  0  0  0  0  0  0  0  0  0  0
   12.2990   13.7060    8.7650 C   0  0  0  0  0  0  0  0  0  0  0  0
   13.8910   13.5660    6.3310 C   0  0  0  0  0  0  0  0  0  0  0  0
   12.5740   12.4340    8.1160 C   0  0  0  0  0  0  0  0  0  0  0  0
   13.3710   12.3570    6.8870 C   0  0  0  0  0  0  0  0  0  0  0  0
    9.6950   18.4110    9.8910 C   0  0  0  0  0  0  0  0  0  0  0  0
    7.3810   17.6970    9.1700 C   0  0  0  0  0  0  0  0  0  0  0  0
    6.1860   18.4060    9.7900 C   0  0  1  0  0  0  0  0  0  0  0  0
    8.8320   16.3810   12.8860 C   0  0  0  0  0  0  0  0  0  0  0  0
   10.0730   16.3630   13.6040 C   0  0  0  0  0  0  0  0  0  0  0  0
   10.0920   16.6920   14.9920 C   0  0  0  0  0  0  0  0  0  0  0  0
    8.8650   17.0540   15.6200 C   0  0  1  0  0  0  0  0  0  0  0  0
    7.6520   17.0060   14.9260 C   0  0  0  0  0  0  0  0  0  0  0  0
    7.6390   16.6690   13.5550 C   0  0  0  0  0  0  0  0  0  0  0  0
    6.1460   19.9370    9.6140 C   0  0  0  0  0  0  0  0  0  0  0  0
    4.8220   17.6950    9.7310 C   0  0  0  0  0  0  0  0  0  0  0  0
    9.7510   16.6260    1.6330 C   0  0  0  0  0  0  0  0  0  0  0  0
   10.9400   16.4720    6.7130 N   0  0  0  0  0  0  0  0  0  0  0  0
    8.5160   17.5800   10.2280 N   0  0  0  0  0  0  0  0  0  0  0  0
    8.8400   17.3220   16.8980 N   0  0  0  0  0  0  0  0  0  0  0  0
   10.7260   15.6620    4.7310 O   0  0  0  0  0  0  0  0  0  0  0  0
    9.0810   15.3130    6.2870 O   0  0  0  0  0  0  0  0  0  0  0  0
   11.4320   19.0300    8.4660 O   0  0  0  0  0  0  0  0  0  0  0  0
   10.0510   15.5110   10.8470 O   0  0  0  0  0  0  0  0  0  0  0  0
    7.7070   15.1600   11.0710 O   0  0  0  0  0  0  0  0  0  0  0  0
   11.0530   16.0820    1.5150 O   0  0  0  0  0  0  0  0  0  0  0  0
    8.7650   16.1120   11.2000 S   0  0  1  0  0  4  0  0  0  0  0  0
   12.1741   14.9733    2.8920 H   0  0  0  0  0  0  0  0  0  0  0  0
   11.0090   14.0249    1.9179 H   0  0  0  0  0  0  0  0  0  0  0  0
    8.1591   15.8213    2.8796 H   0  0  0  0  0  0  0  0  0  0  0  0
    9.1083   17.0866    3.6762 H   0  0  0  0  0  0  0  0  0  0  0  0
    9.7317   14.8056    6.4810 H   0  0  0  0  0  0  0  0  0  0  0  0
    9.6113   14.2022    3.7966 H   0  0  0  0  0  0  0  0  0  0  0  0
   10.2885   16.0010    8.7126 H   0  0  0  0  0  0  0  0  0  0  0  0
    9.5998   18.1996    7.7200 H   0  0  0  0  0  0  0  0  0  0  0  0
   13.1327   17.0226    8.2753 H   0  0  0  0  0  0  0  0  0  0  0  0
   12.4038   16.2642    9.7518 H   0  0  0  0  0  0  0  0  0  0  0  0
   13.5562   14.8264    8.9924 H   0  0  0  0  0  0  0  0  0  0  0  0
   13.1497   15.4656    6.2276 H   0  0  0  0  0  0  0  0  0  0  0  0
   14.6336   15.1051    7.3473 H   0  0  0  0  0  0  0  0  0  0  0  0
   12.7012   13.6429    9.7869 H   0  0  0  0  0  0  0  0  0  0  0  0
   11.2084   13.8216    8.6801 H   0  0  0  0  0  0  0  0  0  0  0  0
   13.4865   13.6458    5.3112 H   0  0  0  0  0  0  0  0  0  0  0  0
   14.9791   13.4443    6.4365 H   0  0  0  0  0  0  0  0  0  0  0  0
   13.0911   11.8111    8.8607 H   0  0  0  0  0  0  0  0  0  0  0  0
   11.5766   12.1244    7.7707 H   0  0  0  0  0  0  0  0  0  0  0  0
   12.7361   11.8933    6.1176 H   0  0  0  0  0  0  0  0  0  0  0  0
   14.2668   11.7919    7.1839 H   0  0  0  0  0  0  0  0  0  0  0  0
   10.4505   18.2542   10.6749 H   0  0  0  0  0  0  0  0  0  0  0  0
    9.3173   19.4419    9.8236 H   0  0  0  0  0  0  0  0  0  0  0  0
    7.0810   16.6914    8.8403 H   0  0  0  0  0  0  0  0  0  0  0  0
    7.7421   18.2721    8.3046 H   0  0  0  0  0  0  0  0  0  0  0  0
    6.4271   18.2818   10.8560 H   0  0  0  0  0  0  0  0  0  0  0  0
    8.6932   15.3108   13.0991 H   0  0  0  0  0  0  0  0  0  0  0  0
   10.4799   15.3452   13.5120 H   0  0  0  0  0  0  0  0  0  0  0  0
   10.6488   17.1774   13.1401 H   0  0  0  0  0  0  0  0  0  0  0  0
   10.4857   15.8161   15.5284 H   0  0  0  0  0  0  0  0  0  0  0  0
   10.7024   17.6056   15.0448 H   0  0  0  0  0  0  0  0  0  0  0  0
    9.0078   18.0962   15.2983 H   0  0  0  0  0  0  0  0  0  0  0  0
    7.0198   16.2678   15.4411 H   0  0  0  0  0  0  0  0  0  0  0  0
    7.3131   18.0525   14.9338 H   0  0  0  0  0  0  0  0  0  0  0  0
    7.1771   17.5158   13.0262 H   0  0  0  0  0  0  0  0  0  0  0  0
    7.1076   15.7060   13.5409 H   0  0  0  0  0  0  0  0  0  0  0  0
    6.1334   20.4195   10.6024 H   0  0  0  0  0  0  0  0  0  0  0  0
    7.0359   20.2654    9.0570 H   0  0  0  0  0  0  0  0  0  0  0  0
    5.2402   20.2185    9.0570 H   0  0  0  0  0  0  0  0  0  0  0  0
    4.4618   17.5073   10.7533 H   0  0  0  0  0  0  0  0  0  0  0  0
    4.0996   18.3313    9.1988 H   0  0  0  0  0  0  0  0  0  0  0  0
    4.9299   16.7384    9.1988 H   0  0  0  0  0  0  0  0  0  0  0  0
    9.1105   16.2324    0.8300 H   0  0  0  0  0  0  0  0  0  0  0  0
    9.7921   17.7221    1.5501 H   0  0  0  0  0  0  0  0  0  0  0  0
   11.8907   16.1498    6.4822 H   0  0  0  0  0  0  0  0  0  0  0  0
    8.9217   16.4463   17.4341 H   0  0  0  0  0  0  0  0  0  0  0  0
    9.6267   17.9436   17.1339 H   0  0  0  0  0  0  0  0  0  0  0  0
    8.9958   15.2820    7.2728 H   0  0  0  0  0  0  0  0  0  0  0  0
   11.6899   19.2548    9.3950 H   0  0  0  0  0  0  0  0  0  0  0  0
   10.5452   15.2800   11.6732 H   0  0  0  0  0  0  0  0  0  0  0  0
    7.4001   14.8838   11.9708 H   0  0  0  0  0  0  0  0  0  0  0  0
  1  4  1  0
  2  4  1  0
  5  6  1  0
  5  7  1  0
  7  8  1  0
  8  9  1  0
  8 10  1  0
  9 11  1  0
 10 12  1  0
 11 13  1  0
 12 13  1  0
  6 14  1  0
 15 16  1  0
 17 18  1  0
 18 19  1  0
 19 20  1  0
 20 21  1  0
 17 22  1  0
 21 22  1  0
 16 23  1  0
 16 24  1  0
  2 25  1  0
  3 26  1  0
  5 26  1  0
 14 27  1  0
 15 27  1  0
 20 28  1  0
  3 29  1  0
  4 29  1  0
  3 30  1  0
  6 31  1  0
  1 34  1  0
 25 34  1  0
 17 35  1  0
 27 35  1  0
 35 32  1  6
 33 35  1  0
  1 36  1  0
  1 37  1  0
  2 38  1  0
  2 39  1  0
  3 40  1  1
  4 41  1  1
  5 42  1  1
  6 43  1  6
  7 44  1  0
  7 45  1  0
  8 46  1  1
  9 47  1  0
  9 48  1  0
 10 49  1  0
 10 50  1  0
 11 51  1  0
 11 52  1  0
 12 53  1  0
 12 54  1  0
 13 55  1  0
 13 56  1  0
 14 57  1  0
 14 58  1  0
 15 59  1  0
 15 60  1  0
 16 61  1  1
 17 62  1  0
 18 63  1  0
 18 64  1  0
 19 65  1  0
 19 66  1  0
 20 67  1  6
 21 68  1  0
 21 69  1  0
 22 70  1  0
 22 71  1  0
 23 72  1  0
 23 73  1  0
 23 74  1  0
 24 75  1  0
 24 76  1  0
 24 77  1  0
 25 78  1  0
 25 79  1  0
 26 80  1  0
 28 81  1  0
 28 82  1  0
 30 83  1  0
 31 84  1  0
 32 85  1  0
 33 86  1  0
M  END
>  <PDBID>  (1) 
1HPV

>  <PDB ID>  (1) 
1HPV

>  <Generic Name>  (1) 
Amprenavir

>  <Brand Name>  (1) 
Agenerase#Agemerase#Prozei

>  <DrugBank ID>  (1) 
DB00701

>  <ATC Codes>  (1) 
J05AE05

>  <Ligand ID>  (1) 
478

>  <Target Name>  (1) 
Pol polyprotein

>  <UniProt ID>  (1) 
Q72874

>  <PDB ID.1>  (1) 
1HPV

>  <Seq. Identity>  (1) 
99%

$$$$
