PDB_DB06290_99
     RDKit          3D

492516  0  0  0  0  0  0  0  0999 V2000
  -11.3480  -63.2190   15.2000 C   0  0  0  0  0  0  0  0  0  0  0  0
   -9.8290  -63.1880   15.1030 C   0  0  2  0  0  0  0  0  0  0  0  0
   -9.4470  -61.8030   15.6280 C   0  0  1  0  0  0  0  0  0  0  0  0
  -10.3800  -61.6240   16.8380 C   0  0  0  0  0  0  0  0  0  0  0  0
  -11.7190  -62.1630   16.2620 C   0  0  1  0  0  0  0  0  0  0  0  0
   -7.9150  -61.5540   15.5760 C   0  0  1  0  0  0  0  0  0  0  0  0
   -7.1030  -62.3900   15.9000 O   0  0  0  0  0  0  0  0  0  0  0  0
   -7.5340  -60.3910   15.0430 N   0  0  0  0  0  0  0  0  0  0  0  0
   -9.2720  -63.5170   13.6870 C   0  0  0  0  0  0  0  0  0  0  0  0
   -9.1200  -62.6150   12.8630 O   0  0  0  0  0  0  0  0  0  0  0  0
   -5.9680  -60.6270   13.3210 C   0  0  1  0  0  0  0  0  0  0  0  0
   -4.9760  -59.9100   15.6750 C   0  0  0  0  0  0  0  0  0  0  0  0
   -8.9320  -64.8270   13.4460 N   0  0  0  0  0  0  0  0  0  0  0  0
   -8.3660  -65.3070   12.1580 C   0  0  0  0  0  0  0  0  0  0  0  0
   -9.1350  -65.8780   14.4570 C   0  0  0  0  0  0  0  0  0  0  0  0
   -6.1830  -59.9430   14.6960 C   0  0  2  0  0  0  0  0  0  0  0  0
   -6.0200  -59.1220   13.4170 C   0  0  0  0  0  0  0  0  0  0  0  0
   -4.5720  -61.1730   12.9900 C   0  0  0  0  0  0  0  0  0  0  0  0
   -6.8530  -65.5630   12.3560 C   0  0  0  0  0  0  0  0  0  0  0  0
   -5.9930  -64.4150   12.9130 C   0  0  0  0  0  0  0  0  0  0  0  0
   -5.6750  -63.2580   11.9470 C   0  0  0  0  0  0  0  0  0  0  0  0
   -4.4690  -62.3760   12.3650 C   0  0  0  0  0  0  0  0  0  0  0  0
  -12.5600  -61.1490   15.6390 O   0  0  0  0  0  0  0  0  0  0  0  0
  -16.2010  -57.9540   14.3910 C   0  0  0  0  0  0  0  0  0  0  0  0
  -15.3330  -58.7350   13.6110 C   0  0  0  0  0  0  0  0  0  0  0  0
  -14.4100  -59.5290   14.3110 C   0  0  0  0  0  0  0  0  0  0  0  0
  -14.3660  -59.5470   15.7310 C   0  0  0  0  0  0  0  0  0  0  0  0
  -15.2490  -58.7650   16.4790 C   0  0  0  0  0  0  0  0  0  0  0  0
  -16.1740  -57.9530   15.7940 C   0  0  0  0  0  0  0  0  0  0  0  0
  -13.4350  -60.3510   16.3870 C   0  0  0  0  0  0  0  0  0  0  0  0
  -13.4120  -60.3500   17.7730 C   0  0  0  0  0  0  0  0  0  0  0  0
  -14.2980  -59.5270   18.4600 C   0  0  1  0  0  0  0  0  0  0  0  0
  -15.2030  -58.7690   17.8370 N   0  0  0  0  0  0  0  0  0  0  0  0
  -14.3130  -59.6060   19.9360 C   0  0  1  0  0  0  0  0  0  0  0  0
  -15.2630  -58.3960   20.8200 S   0  0  0  0  0  0  0  0  0  0  0  0
  -14.9470  -59.1320   22.3920 C   0  0  0  0  0  0  0  0  0  0  0  0
  -14.1390  -60.2340   22.0900 C   0  0  1  0  0  0  0  0  0  0  0  0
  -13.8300  -60.5080   20.7790 N   0  0  0  0  0  0  0  0  0  0  0  0
  -13.8330  -60.9530   23.3440 C   0  0  2  0  0  0  0  0  0  0  0  0
  -12.4450  -61.5460   23.3720 C   0  0  0  0  0  0  0  0  0  0  0  0
  -14.8520  -62.0890   23.4180 C   0  0  0  0  0  0  0  0  0  0  0  0
  -17.1370  -57.1420   13.7520 O   0  0  0  0  0  0  0  0  0  0  0  0
  -17.1530  -57.1150   12.3320 C   0  0  0  0  0  0  0  0  0  0  0  0
  -17.1540  -57.1060   16.5910 C   0  0  0  0  0  0  0  0  0  0  0  0
   -5.2200  -59.9290   16.9740 N   0  0  0  0  0  0  0  0  0  0  0  0
   -3.8190  -59.8340   15.3010 O   0  0  0  0  0  0  0  0  0  0  0  0
   -4.0830  -59.8860   18.0000 S   0  0  1  0  0  4  0  0  0  0  0  0
   -4.8140  -60.1070   19.5050 C   0  0  2  0  0  0  0  0  0  0  0  0
   -3.0880  -60.9100   17.7900 O   0  0  0  0  0  0  0  0  0  0  0  0
   -3.5360  -58.5740   17.8890 O   0  0  0  0  0  0  0  0  0  0  0  0
   -5.1430  -58.8000   20.2100 C   0  0  0  0  0  0  0  0  0  0  0  0
   -3.9260  -59.5960   20.6400 C   0  0  0  0  0  0  0  0  0  0  0  0
  -15.9260  -57.7290  -23.7040 C   0  0  0  0  0  0  0  0  0  0  0  0
  -17.4520  -57.8350  -23.5240 C   0  0  2  0  0  0  0  0  0  0  0  0
  -17.9460  -56.4270  -23.9280 C   0  0  1  0  0  0  0  0  0  0  0  0
  -17.1400  -56.1190  -25.1840 C   0  0  0  0  0  0  0  0  0  0  0  0
  -15.7440  -56.6090  -24.7450 C   0  0  1  0  0  0  0  0  0  0  0  0
  -19.4740  -56.2930  -23.9150 C   0  0  0  0  0  0  0  0  0  0  0  0
  -20.2440  -57.1450  -24.3420 O   0  0  0  0  0  0  0  0  0  0  0  0
  -19.8910  -55.1710  -23.3480 N   0  0  0  0  0  0  0  0  0  0  0  0
  -17.9850  -58.2900  -22.1440 C   0  0  0  0  0  0  0  0  0  0  0  0
  -18.2080  -57.4650  -21.2850 O   0  0  0  0  0  0  0  0  0  0  0  0
  -21.3730  -55.4290  -21.6470 C   0  0  1  0  0  0  0  0  0  0  0  0
  -22.4500  -54.9520  -24.0560 C   0  0  1  0  0  0  0  0  0  0  0  0
  -18.2220  -59.5960  -21.8950 N   0  0  0  0  0  0  0  0  0  0  0  0
  -18.7870  -60.0760  -20.6330 C   0  0  0  0  0  0  0  0  0  0  0  0
  -18.0010  -60.6750  -22.8600 C   0  0  0  0  0  0  0  0  0  0  0  0
  -21.2770  -54.8310  -23.0630 C   0  0  2  0  0  0  0  0  0  0  0  0
  -21.6090  -53.9330  -21.8880 C   0  0  0  0  0  0  0  0  0  0  0  0
  -22.6060  -56.2390  -21.2240 C   0  0  0  0  0  0  0  0  0  0  0  0
  -20.1960  -60.5710  -21.0430 C   0  0  0  0  0  0  0  0  0  0  0  0
  -21.2810  -59.5260  -21.3990 C   0  0  0  0  0  0  0  0  0  0  0  0
  -21.3800  -58.3450  -20.4360 C   0  0  0  0  0  0  0  0  0  0  0  0
  -22.6040  -57.4840  -20.7020 C   0  0  0  0  0  0  0  0  0  0  0  0
  -15.0250  -55.5040  -24.1530 O   0  0  0  0  0  0  0  0  0  0  0  0
  -11.2220  -52.4220  -23.2480 C   0  0  0  0  0  0  0  0  0  0  0  0
  -12.1170  -53.1310  -22.4430 C   0  0  0  0  0  0  0  0  0  0  0  0
  -13.1080  -53.9320  -22.9860 C   0  0  0  0  0  0  0  0  0  0  0  0
  -13.1770  -53.9990  -24.3690 C   0  0  0  0  0  0  0  0  0  0  0  0
  -12.2870  -53.2910  -25.1700 C   0  0  0  0  0  0  0  0  0  0  0  0
  -11.3060  -52.4880  -24.6390 C   0  0  0  0  0  0  0  0  0  0  0  0
  -14.1620  -54.7790  -24.9490 C   0  0  0  0  0  0  0  0  0  0  0  0
  -14.2310  -54.8460  -26.3300 C   0  0  0  0  0  0  0  0  0  0  0  0
  -13.3010  -54.1120  -27.0480 C   0  0  0  0  0  0  0  0  0  0  0  0
  -12.3790  -53.3570  -26.4820 N   0  0  0  0  0  0  0  0  0  0  0  0
  -13.3350  -54.1440  -28.5220 C   0  0  0  0  0  0  0  0  0  0  0  0
  -12.1600  -53.0940  -29.2730 S   0  0  0  0  0  0  0  0  0  0  0  0
  -12.6840  -53.5320  -30.9280 C   0  0  0  0  0  0  0  0  0  0  0  0
  -13.7020  -54.4740  -30.7220 C   0  0  0  0  0  0  0  0  0  0  0  0
  -14.0370  -54.7910  -29.4400 N   0  0  0  0  0  0  0  0  0  0  0  0
  -14.3210  -55.0070  -31.9560 C   0  0  2  0  0  0  0  0  0  0  0  0
  -14.6400  -56.4600  -31.6780 C   0  0  0  0  0  0  0  0  0  0  0  0
  -13.4890  -54.8380  -33.2360 C   0  0  0  0  0  0  0  0  0  0  0  0
  -10.2270  -51.6540  -22.5820 O   0  0  0  0  0  0  0  0  0  0  0  0
   -9.7930  -52.1100  -21.3080 C   0  0  0  0  0  0  0  0  0  0  0  0
  -10.3650  -51.7470  -25.5940 C   0  0  0  0  0  0  0  0  0  0  0  0
  -22.1680  -54.8440  -25.3740 N   0  0  0  0  0  0  0  0  0  0  0  0
  -23.5990  -55.0330  -23.6420 O   0  0  0  0  0  0  0  0  0  0  0  0
  -23.3020  -54.8800  -26.4090 S   0  0  1  0  0  4  0  0  0  0  0  0
  -22.6620  -55.0940  -27.9470 C   0  0  2  0  0  0  0  0  0  0  0  0
  -24.0520  -56.0280  -26.0470 O   0  0  0  0  0  0  0  0  0  0  0  0
  -24.1100  -53.6890  -26.2940 O   0  0  0  0  0  0  0  0  0  0  0  0
  -22.2550  -53.7580  -28.5440 C   0  0  0  0  0  0  0  0  0  0  0  0
  -23.5000  -54.4800  -29.0600 C   0  0  0  0  0  0  0  0  0  0  0  0
    3.4520   -8.4980   13.1570 C   0  0  0  0  0  0  0  0  0  0  0  0
    1.9410   -8.3040   13.0640 C   0  0  2  0  0  0  0  0  0  0  0  0
    1.4290   -9.6850   13.5250 C   0  0  1  0  0  0  0  0  0  0  0  0
    2.2270   -9.9650   14.7940 C   0  0  0  0  0  0  0  0  0  0  0  0
    3.6210   -9.4610   14.3500 C   0  0  1  0  0  0  0  0  0  0  0  0
   -0.0940   -9.7780   13.5530 C   0  0  0  0  0  0  0  0  0  0  0  0
   -0.7830   -8.9170   14.0550 O   0  0  0  0  0  0  0  0  0  0  0  0
   -0.5500  -10.8770   12.9670 N   0  0  0  0  0  0  0  0  0  0  0  0
    1.3710   -7.8820   11.6980 C   0  0  0  0  0  0  0  0  0  0  0  0
    1.1090   -8.7190   10.8580 O   0  0  0  0  0  0  0  0  0  0  0  0
   -2.0730  -10.7890   11.1970 C   0  0  1  0  0  0  0  0  0  0  0  0
   -3.0920  -11.2500   13.6230 C   0  0  1  0  0  0  0  0  0  0  0  0
    1.1230   -6.5910   11.4730 N   0  0  0  0  0  0  0  0  0  0  0  0
    0.5340   -6.1360   10.2100 C   0  0  0  0  0  0  0  0  0  0  0  0
    1.4030   -5.5330   12.4540 C   0  0  0  0  0  0  0  0  0  0  0  0
   -1.9120  -11.3020   12.6540 C   0  0  2  0  0  0  0  0  0  0  0  0
   -2.1810  -12.2780   11.5390 C   0  0  0  0  0  0  0  0  0  0  0  0
   -3.3580  -10.0190   10.8580 C   0  0  0  0  0  0  0  0  0  0  0  0
   -0.9380   -5.7350   10.4920 C   0  0  0  0  0  0  0  0  0  0  0  0
   -1.9270   -6.8080   11.0060 C   0  0  0  0  0  0  0  0  0  0  0  0
   -2.2580   -7.8690    9.9550 C   0  0  0  0  0  0  0  0  0  0  0  0
   -3.4430   -8.7630   10.3450 C   0  0  0  0  0  0  0  0  0  0  0  0
    4.3820  -10.5540   13.8670 O   0  0  0  0  0  0  0  0  0  0  0  0
    8.1810  -13.5560   12.7240 C   0  0  0  0  0  0  0  0  0  0  0  0
    7.2840  -12.7920   11.9530 C   0  0  0  0  0  0  0  0  0  0  0  0
    6.3110  -12.0570   12.5910 C   0  0  0  0  0  0  0  0  0  0  0  0
    6.2440  -12.0620   13.9900 C   0  0  0  0  0  0  0  0  0  0  0  0
    7.1320  -12.8150   14.7440 C   0  0  0  0  0  0  0  0  0  0  0  0
    8.0990  -13.5850   14.1120 C   0  0  0  0  0  0  0  0  0  0  0  0
    5.2650  -11.3000   14.6380 C   0  0  0  0  0  0  0  0  0  0  0  0
    5.2090  -11.3060   16.0050 C   0  0  0  0  0  0  0  0  0  0  0  0
    6.1390  -12.0610   16.7100 C   0  0  0  0  0  0  0  0  0  0  0  0
    7.0700  -12.8030   16.0950 N   0  0  0  0  0  0  0  0  0  0  0  0
    6.0700  -12.0390   18.1900 C   0  0  0  0  0  0  0  0  0  0  0  0
    7.1770  -13.0970   19.0520 S   0  0  0  0  0  0  0  0  0  0  0  0
    6.5670  -12.5900   20.6510 C   0  0  0  0  0  0  0  0  0  0  0  0
    5.6230  -11.6110   20.3650 C   0  0  1  0  0  0  0  0  0  0  0  0
    5.3630  -11.3460   19.0500 N   0  0  0  0  0  0  0  0  0  0  0  0
    4.9580  -11.0380   21.5780 C   0  0  2  0  0  0  0  0  0  0  0  0
    4.5000   -9.6070   21.2860 C   0  0  0  0  0  0  0  0  0  0  0  0
    5.7500  -11.2010   22.9140 C   0  0  0  0  0  0  0  0  0  0  0  0
    9.1790  -14.3350   12.0630 O   0  0  0  0  0  0  0  0  0  0  0  0
    9.5480  -14.0050   10.7140 C   0  0  0  0  0  0  0  0  0  0  0  0
    9.0590  -14.4090   14.9750 C   0  0  0  0  0  0  0  0  0  0  0  0
   -2.8260  -11.2750   14.9390 N   0  0  0  0  0  0  0  0  0  0  0  0
   -4.2200  -11.2840   13.1770 O   0  0  0  0  0  0  0  0  0  0  0  0
   -3.9030  -11.2870   16.0230 S   0  0  1  0  0  4  0  0  0  0  0  0
   -3.1080  -11.1540   17.4820 C   0  0  2  0  0  0  0  0  0  0  0  0
   -4.7880  -10.1930   15.9090 O   0  0  0  0  0  0  0  0  0  0  0  0
   -4.7100  -12.4700   15.9110 O   0  0  0  0  0  0  0  0  0  0  0  0
   -3.0590  -12.5320   18.1210 C   0  0  0  0  0  0  0  0  0  0  0  0
   -4.0640  -11.4860   18.6200 C   0  0  0  0  0  0  0  0  0  0  0  0
  -30.4910   -2.9300  -25.5110 C   0  0  0  0  0  0  0  0  0  0  0  0
  -28.9800   -2.9210  -25.3170 C   0  0  2  0  0  0  0  0  0  0  0  0
  -28.5570   -4.3530  -25.6320 C   0  0  1  0  0  0  0  0  0  0  0  0
  -29.4120   -4.7060  -26.8410 C   0  0  0  0  0  0  0  0  0  0  0  0
  -30.7550   -4.0420  -26.5240 C   0  0  1  0  0  0  0  0  0  0  0  0
  -27.0250   -4.5250  -25.6230 C   0  0  0  0  0  0  0  0  0  0  0  0
  -26.2480   -3.7220  -26.1080 O   0  0  0  0  0  0  0  0  0  0  0  0
  -26.6340   -5.6230  -24.9690 N   0  0  0  0  0  0  0  0  0  0  0  0
  -28.4560   -2.5150  -23.9310 C   0  0  0  0  0  0  0  0  0  0  0  0
  -28.3030   -3.3820  -23.0600 O   0  0  0  0  0  0  0  0  0  0  0  0
  -25.0790   -5.5010  -23.2340 C   0  0  1  0  0  0  0  0  0  0  0  0
  -24.1230   -6.1250  -25.6660 C   0  0  0  0  0  0  0  0  0  0  0  0
  -28.1470   -1.1970  -23.7750 N   0  0  0  0  0  0  0  0  0  0  0  0
  -27.5800   -0.6710  -22.5350 C   0  0  0  0  0  0  0  0  0  0  0  0
  -28.3130   -0.1900  -24.8300 C   0  0  0  0  0  0  0  0  0  0  0  0
  -25.2890   -6.1000  -24.6470 C   0  0  2  0  0  0  0  0  0  0  0  0
  -25.1010   -7.0150  -23.4380 C   0  0  0  0  0  0  0  0  0  0  0  0
  -23.7300   -4.8560  -22.9020 C   0  0  0  0  0  0  0  0  0  0  0  0
  -26.0720   -0.4570  -22.8220 C   0  0  0  0  0  0  0  0  0  0  0  0
  -25.1970   -1.6560  -23.2400 C   0  0  0  0  0  0  0  0  0  0  0  0
  -24.8680   -2.6790  -22.1340 C   0  0  0  0  0  0  0  0  0  0  0  0
  -23.6550   -3.5980  -22.4200 C   0  0  0  0  0  0  0  0  0  0  0  0
  -31.6710   -4.9630  -25.9190 O   0  0  0  0  0  0  0  0  0  0  0  0
  -35.2720   -8.1580  -24.5760 C   0  0  0  0  0  0  0  0  0  0  0  0
  -34.4090   -7.3480  -23.8340 C   0  0  0  0  0  0  0  0  0  0  0  0
  -33.5070   -6.5520  -24.5480 C   0  0  0  0  0  0  0  0  0  0  0  0
  -33.4670   -6.5630  -25.9570 C   0  0  0  0  0  0  0  0  0  0  0  0
  -34.3500   -7.3620  -26.6800 C   0  0  0  0  0  0  0  0  0  0  0  0
  -35.2470   -8.1760  -25.9960 C   0  0  0  0  0  0  0  0  0  0  0  0
  -32.5470   -5.7680  -26.6390 C   0  0  0  0  0  0  0  0  0  0  0  0
  -32.5460   -5.7580  -28.0320 C   0  0  0  0  0  0  0  0  0  0  0  0
  -33.4270   -6.5770  -28.7030 C   0  0  1  0  0  0  0  0  0  0  0  0
  -34.3160   -7.3550  -28.0560 N   0  0  0  0  0  0  0  0  0  0  0  0
  -33.3920   -6.4900  -30.1660 C   0  0  1  0  0  0  0  0  0  0  0  0
  -34.3420   -7.6330  -31.1290 S   0  0  0  0  0  0  0  0  0  0  0  0
  -33.8710   -6.8200  -32.6700 C   0  0  0  0  0  0  0  0  0  0  0  0
  -33.0490   -5.7490  -32.3040 C   0  0  0  0  0  0  0  0  0  0  0  0
  -32.8370   -5.5880  -30.9650 N   0  0  0  0  0  0  0  0  0  0  0  0
  -32.4840   -4.8780  -33.3900 C   0  0  2  0  0  0  0  0  0  0  0  0
  -33.3180   -3.6000  -33.3990 C   0  0  0  0  0  0  0  0  0  0  0  0
  -32.4870   -5.4700  -34.8080 C   0  0  0  0  0  0  0  0  0  0  0  0
  -36.1890   -8.9680  -23.8500 O   0  0  0  0  0  0  0  0  0  0  0  0
  -36.4480   -8.7380  -22.4520 C   0  0  0  0  0  0  0  0  0  0  0  0
  -36.2020   -9.0320  -26.8440 C   0  0  0  0  0  0  0  0  0  0  0  0
  -24.3510   -6.1110  -26.9980 N   0  0  0  0  0  0  0  0  0  0  0  0
  -22.9900   -6.2110  -25.2470 O   0  0  0  0  0  0  0  0  0  0  0  0
  -23.1820   -6.1510  -28.0260 S   0  0  1  0  0  4  0  0  0  0  0  0
  -23.7050   -5.8650  -29.6130 C   0  0  2  0  0  0  0  0  0  0  0  0
  -22.2340   -5.1400  -27.6730 O   0  0  0  0  0  0  0  0  0  0  0  0
  -22.4920   -7.4110  -27.8970 O   0  0  0  0  0  0  0  0  0  0  0  0
  -24.0730   -7.1420  -30.3610 C   0  0  0  0  0  0  0  0  0  0  0  0
  -22.7700   -6.4290  -30.6990 C   0  0  0  0  0  0  0  0  0  0  0  0
  -11.7997  -62.9631   14.2302 H   0  0  0  0  0  0  0  0  0  0  0  0
  -11.7175  -64.2182   15.4740 H   0  0  0  0  0  0  0  0  0  0  0  0
   -9.3658  -63.9877   15.6996 H   0  0  0  0  0  0  0  0  0  0  0  0
   -9.6351  -60.8951   15.0362 H   0  0  0  0  0  0  0  0  0  0  0  0
  -10.0425  -62.2185   17.6998 H   0  0  0  0  0  0  0  0  0  0  0  0
  -10.4330  -60.5943   17.2214 H   0  0  0  0  0  0  0  0  0  0  0  0
  -12.3086  -62.5654   17.0990 H   0  0  0  0  0  0  0  0  0  0  0  0
   -7.9409  -61.1786   16.6096 H   0  0  0  0  0  0  0  0  0  0  0  0
   -7.0557  -62.4387   16.8877 H   0  0  0  0  0  0  0  0  0  0  0  0
   -8.0615  -60.3267   14.1607 H   0  0  0  0  0  0  0  0  0  0  0  0
  -10.2968  -63.6783   13.3214 H   0  0  0  0  0  0  0  0  0  0  0  0
   -8.9754  -61.7572   13.3356 H   0  0  0  0  0  0  0  0  0  0  0  0
   -6.5074  -61.4203   12.7827 H   0  0  0  0  0  0  0  0  0  0  0  0
   -5.0134  -58.8107   15.6841 H   0  0  0  0  0  0  0  0  0  0  0  0
   -8.8647  -66.2403   11.8577 H   0  0  0  0  0  0  0  0  0  0  0  0
   -8.5227  -64.5538   11.3717 H   0  0  0  0  0  0  0  0  0  0  0  0
   -9.0505  -65.4405   15.4627 H   0  0  0  0  0  0  0  0  0  0  0  0
  -10.1349  -66.3190   14.3318 H   0  0  0  0  0  0  0  0  0  0  0  0
   -8.3712  -66.6597   14.3318 H   0  0  0  0  0  0  0  0  0  0  0  0
   -5.1046  -58.5328   13.2592 H   0  0  0  0  0  0  0  0  0  0  0  0
   -6.6153  -58.3396   12.9237 H   0  0  0  0  0  0  0  0  0  0  0  0
   -4.0795  -60.4306   12.3448 H   0  0  0  0  0  0  0  0  0  0  0  0
   -4.1143  -61.3459   13.9752 H   0  0  0  0  0  0  0  0  0  0  0  0
   -6.7527  -66.4123   13.0479 H   0  0  0  0  0  0  0  0  0  0  0  0
   -6.4668  -65.7273   11.3392 H   0  0  0  0  0  0  0  0  0  0  0  0
   -6.5233  -63.9907   13.7783 H   0  0  0  0  0  0  0  0  0  0  0  0
   -5.0200  -64.8706   13.1490 H   0  0  0  0  0  0  0  0  0  0  0  0
   -5.4585  -63.6875   10.9577 H   0  0  0  0  0  0  0  0  0  0  0  0
   -6.5565  -62.6000   11.9502 H   0  0  0  0  0  0  0  0  0  0  0  0
   -3.9112  -62.1799   11.4374 H   0  0  0  0  0  0  0  0  0  0  0  0
   -4.0410  -62.9878   13.1728 H   0  0  0  0  0  0  0  0  0  0  0  0
  -16.9294  -58.7781   14.4056 H   0  0  0  0  0  0  0  0  0  0  0  0
  -15.9491  -59.4042   12.9925 H   0  0  0  0  0  0  0  0  0  0  0  0
  -14.7270  -58.0168   13.0392 H   0  0  0  0  0  0  0  0  0  0  0  0
  -14.5916  -60.5666   13.9940 H   0  0  0  0  0  0  0  0  0  0  0  0
  -13.4511  -59.0557   14.0531 H   0  0  0  0  0  0  0  0  0  0  0  0
  -13.6424  -58.7186   15.7191 H   0  0  0  0  0  0  0  0  0  0  0  0
  -14.5216  -57.9398   16.4750 H   0  0  0  0  0  0  0  0  0  0  0  0
  -16.9057  -58.7742   15.8087 H   0  0  0  0  0  0  0  0  0  0  0  0
  -12.7060  -59.5277   16.3614 H   0  0  0  0  0  0  0  0  0  0  0  0
  -13.6103  -61.3815   18.0997 H   0  0  0  0  0  0  0  0  0  0  0  0
  -12.4224  -59.9386   18.0209 H   0  0  0  0  0  0  0  0  0  0  0  0
  -13.5719  -58.7023   18.4085 H   0  0  0  0  0  0  0  0  0  0  0  0
  -15.0361  -57.7971   18.1344 H   0  0  0  0  0  0  0  0  0  0  0  0
  -13.4330  -58.9474   19.9802 H   0  0  0  0  0  0  0  0  0  0  0  0
  -14.4198  -58.4296   23.0543 H   0  0  0  0  0  0  0  0  0  0  0  0
  -15.8688  -59.4137   22.9221 H   0  0  0  0  0  0  0  0  0  0  0  0
  -15.0340  -60.8687   22.0117 H   0  0  0  0  0  0  0  0  0  0  0  0
  -14.2212  -61.4290   20.5347 H   0  0  0  0  0  0  0  0  0  0  0  0
  -13.8821  -60.2506   24.1891 H   0  0  0  0  0  0  0  0  0  0  0  0
  -12.1256  -61.6825   24.4157 H   0  0  0  0  0  0  0  0  0  0  0  0
  -12.4519  -62.5197   22.8603 H   0  0  0  0  0  0  0  0  0  0  0  0
  -11.7462  -60.8679   22.8603 H   0  0  0  0  0  0  0  0  0  0  0  0
  -15.0630  -62.3242   24.4716 H   0  0  0  0  0  0  0  0  0  0  0  0
  -15.7819  -61.7806   22.9178 H   0  0  0  0  0  0  0  0  0  0  0  0
  -14.4447  -62.9800   22.9178 H   0  0  0  0  0  0  0  0  0  0  0  0
  -17.6857  -56.2160   11.9883 H   0  0  0  0  0  0  0  0  0  0  0  0
  -16.1202  -57.0961   11.9540 H   0  0  0  0  0  0  0  0  0  0  0  0
  -17.6655  -58.0119   11.9540 H   0  0  0  0  0  0  0  0  0  0  0  0
  -16.9791  -57.2572   17.6664 H   0  0  0  0  0  0  0  0  0  0  0  0
  -17.0086  -56.0446   16.3415 H   0  0  0  0  0  0  0  0  0  0  0  0
  -18.1832  -57.4036   16.3415 H   0  0  0  0  0  0  0  0  0  0  0  0
   -5.8195  -59.1146   17.1695 H   0  0  0  0  0  0  0  0  0  0  0  0
   -3.2197  -59.7946   16.0880 H   0  0  0  0  0  0  0  0  0  0  0  0
   -5.3701  -61.0305   19.2860 H   0  0  0  0  0  0  0  0  0  0  0  0
   -2.7658  -61.2416   18.6654 H   0  0  0  0  0  0  0  0  0  0  0  0
   -3.3814  -58.2033   18.7939 H   0  0  0  0  0  0  0  0  0  0  0  0
   -5.0147  -57.8439   19.6814 H   0  0  0  0  0  0  0  0  0  0  0  0
   -6.0282  -58.3985   20.7249 H   0  0  0  0  0  0  0  0  0  0  0  0
   -3.9217  -60.1133   21.6108 H   0  0  0  0  0  0  0  0  0  0  0  0
   -2.8535  -59.3787   20.7515 H   0  0  0  0  0  0  0  0  0  0  0  0
  -15.4390  -57.4617  -22.7546 H   0  0  0  0  0  0  0  0  0  0  0  0
  -15.4731  -58.6789  -24.0243 H   0  0  0  0  0  0  0  0  0  0  0  0
  -17.8441  -58.6577  -24.1400 H   0  0  0  0  0  0  0  0  0  0  0  0
  -17.7540  -55.6189  -23.2069 H   0  0  0  0  0  0  0  0  0  0  0  0
  -17.5127  -56.6795  -26.0540 H   0  0  0  0  0  0  0  0  0  0  0  0
  -17.1776  -55.0686  -25.5083 H   0  0  0  0  0  0  0  0  0  0  0  0
  -15.1785  -56.9910  -25.6077 H   0  0  0  0  0  0  0  0  0  0  0  0
  -19.4413  -55.8241  -24.9095 H   0  0  0  0  0  0  0  0  0  0  0  0
  -20.6695  -57.6158  -23.5821 H   0  0  0  0  0  0  0  0  0  0  0  0
  -19.4084  -55.1299  -22.4390 H   0  0  0  0  0  0  0  0  0  0  0  0
  -16.9524  -58.3913  -21.7786 H   0  0  0  0  0  0  0  0  0  0  0  0
  -18.0961  -57.8791  -20.3928 H   0  0  0  0  0  0  0  0  0  0  0  0
  -20.7003  -56.0574  -21.0449 H   0  0  0  0  0  0  0  0  0  0  0  0
  -22.6088  -53.8649  -24.0009 H   0  0  0  0  0  0  0  0  0  0  0  0
  -18.1850  -60.8981  -20.2185 H   0  0  0  0  0  0  0  0  0  0  0  0
  -18.8115  -59.3042  -19.8496 H   0  0  0  0  0  0  0  0  0  0  0  0
  -17.8085  -61.6147  -22.3216 H   0  0  0  0  0  0  0  0  0  0  0  0
  -18.8941  -60.7906  -23.4917 H   0  0  0  0  0  0  0  0  0  0  0  0
  -17.1344  -60.4302  -23.4917 H   0  0  0  0  0  0  0  0  0  0  0  0
  -22.6212  -53.5145  -21.7868 H   0  0  0  0  0  0  0  0  0  0  0  0
  -21.1819  -53.0062  -21.4774 H   0  0  0  0  0  0  0  0  0  0  0  0
  -23.1161  -55.6150  -20.4754 H   0  0  0  0  0  0  0  0  0  0  0  0
  -23.0329  -56.4553  -22.2145 H   0  0  0  0  0  0  0  0  0  0  0  0
  -20.0677  -61.2165  -21.9244 H   0  0  0  0  0  0  0  0  0  0  0  0
  -20.5821  -61.0549  -20.1337 H   0  0  0  0  0  0  0  0  0  0  0  0
  -21.0588  -59.1313  -22.4014 H   0  0  0  0  0  0  0  0  0  0  0  0
  -22.2454  -60.0520  -21.3407 H   0  0  0  0  0  0  0  0  0  0  0  0
  -21.4360  -58.7311  -19.4075 H   0  0  0  0  0  0  0  0  0  0  0  0
  -20.4889  -57.7168  -20.5817 H   0  0  0  0  0  0  0  0  0  0  0  0
  -23.1044  -57.3874  -19.7272 H   0  0  0  0  0  0  0  0  0  0  0  0
  -23.0404  -58.0388  -21.5457 H   0  0  0  0  0  0  0  0  0  0  0  0
  -10.5391  -53.2844  -23.2483 H   0  0  0  0  0  0  0  0  0  0  0  0
  -11.5062  -53.7854  -21.8037 H   0  0  0  0  0  0  0  0  0  0  0  0
  -12.6993  -52.3242  -21.9739 H   0  0  0  0  0  0  0  0  0  0  0  0
  -12.9502  -54.9543  -22.6119 H   0  0  0  0  0  0  0  0  0  0  0  0
  -14.0543  -53.4649  -22.6755 H   0  0  0  0  0  0  0  0  0  0  0  0
  -13.8657  -53.1413  -24.3762 H   0  0  0  0  0  0  0  0  0  0  0  0
  -12.9793  -52.4363  -25.1837 H   0  0  0  0  0  0  0  0  0  0  0  0
  -10.6087  -53.3387  -24.6407 H   0  0  0  0  0  0  0  0  0  0  0  0
  -14.8545  -53.9248  -24.9217 H   0  0  0  0  0  0  0  0  0  0  0  0
  -14.1115  -55.9014  -26.6162 H   0  0  0  0  0  0  0  0  0  0  0  0
  -15.2030  -54.3995  -26.5867 H   0  0  0  0  0  0  0  0  0  0  0  0
  -13.9911  -53.2556  -27.0663 H   0  0  0  0  0  0  0  0  0  0  0  0
  -12.5377  -52.3957  -26.8162 H   0  0  0  0  0  0  0  0  0  0  0  0
  -14.0683  -53.3241  -28.5229 H   0  0  0  0  0  0  0  0  0  0  0  0
  -13.0686  -52.6509  -31.4626 H   0  0  0  0  0  0  0  0  0  0  0  0
  -11.8611  -53.9249  -31.5432 H   0  0  0  0  0  0  0  0  0  0  0  0
  -12.9554  -55.2818  -30.7267 H   0  0  0  0  0  0  0  0  0  0  0  0
  -13.8891  -55.8017  -29.3075 H   0  0  0  0  0  0  0  0  0  0  0  0
  -15.2227  -54.4173  -32.1777 H   0  0  0  0  0  0  0  0  0  0  0  0
  -14.6764  -56.6260  -30.5912 H   0  0  0  0  0  0  0  0  0  0  0  0
  -15.6150  -56.7125  -32.1204 H   0  0  0  0  0  0  0  0  0  0  0  0
  -13.8605  -57.0977  -32.1204 H   0  0  0  0  0  0  0  0  0  0  0  0
  -12.4434  -54.6256  -32.9683 H   0  0  0  0  0  0  0  0  0  0  0  0
  -13.5351  -55.7638  -33.8282 H   0  0  0  0  0  0  0  0  0  0  0  0
  -13.8927  -54.0035  -33.8282 H   0  0  0  0  0  0  0  0  0  0  0  0
  -10.3220  -51.5542  -20.5199 H   0  0  0  0  0  0  0  0  0  0  0  0
  -10.0111  -53.1836  -21.2090 H   0  0  0  0  0  0  0  0  0  0  0  0
   -8.7099  -51.9452  -21.2090 H   0  0  0  0  0  0  0  0  0  0  0  0
   -9.6318  -51.1696  -25.0117 H   0  0  0  0  0  0  0  0  0  0  0  0
   -9.8381  -52.4753  -26.2280 H   0  0  0  0  0  0  0  0  0  0  0  0
  -10.9494  -51.0640  -26.2280 H   0  0  0  0  0  0  0  0  0  0  0  0
  -21.6788  -53.9465  -25.5005 H   0  0  0  0  0  0  0  0  0  0  0  0
  -23.5939  -55.0326  -22.6520 H   0  0  0  0  0  0  0  0  0  0  0  0
  -22.1978  -56.0806  -27.8012 H   0  0  0  0  0  0  0  0  0  0  0  0
  -24.0962  -56.0957  -25.0603 H   0  0  0  0  0  0  0  0  0  0  0  0
  -24.2529  -53.4783  -25.3373 H   0  0  0  0  0  0  0  0  0  0  0  0
  -22.3590  -52.8365  -27.9524 H   0  0  0  0  0  0  0  0  0  0  0  0
  -21.3400  -53.3583  -29.0054 H   0  0  0  0  0  0  0  0  0  0  0  0
  -23.4990  -54.9312  -30.0632 H   0  0  0  0  0  0  0  0  0  0  0  0
  -24.5606  -54.2150  -29.1816 H   0  0  0  0  0  0  0  0  0  0  0  0
    3.8484   -8.9441   12.2329 H   0  0  0  0  0  0  0  0  0  0  0  0
    3.9971   -7.5519   13.2907 H   0  0  0  0  0  0  0  0  0  0  0  0
    1.6109   -7.4468   13.6692 H   0  0  0  0  0  0  0  0  0  0  0  0
    1.6108  -10.5122   12.8231 H   0  0  0  0  0  0  0  0  0  0  0  0
    1.8414   -9.3960   15.6528 H   0  0  0  0  0  0  0  0  0  0  0  0
    2.1994  -11.0094   15.1382 H   0  0  0  0  0  0  0  0  0  0  0  0
    4.1103   -8.9721   15.2054 H   0  0  0  0  0  0  0  0  0  0  0  0
   -0.0443  -10.3015   14.5192 H   0  0  0  0  0  0  0  0  0  0  0  0
   -0.7290   -8.9844   15.0412 H   0  0  0  0  0  0  0  0  0  0  0  0
   -0.0732  -10.8856   12.0541 H   0  0  0  0  0  0  0  0  0  0  0  0
    2.3921   -7.7996   11.2974 H   0  0  0  0  0  0  0  0  0  0  0  0
    0.8449   -9.5626   11.3038 H   0  0  0  0  0  0  0  0  0  0  0  0
   -1.4734  -10.1911   10.4949 H   0  0  0  0  0  0  0  0  0  0  0  0
   -3.1482  -12.3485   13.6135 H   0  0  0  0  0  0  0  0  0  0  0  0
    1.0918   -5.2683    9.8278 H   0  0  0  0  0  0  0  0  0  0  0  0
    0.5773   -6.9351    9.4553 H   0  0  0  0  0  0  0  0  0  0  0  0
    1.2958   -5.9382   13.4710 H   0  0  0  0  0  0  0  0  0  0  0  0
    2.4297   -5.1642   12.3126 H   0  0  0  0  0  0  0  0  0  0  0  0
    0.6932   -4.7047   12.3126 H   0  0  0  0  0  0  0  0  0  0  0  0
   -3.1566  -12.7825   11.4787 H   0  0  0  0  0  0  0  0  0  0  0  0
   -1.6811  -13.1884   11.1767 H   0  0  0  0  0  0  0  0  0  0  0  0
   -3.8903  -10.6572   10.1374 H   0  0  0  0  0  0  0  0  0  0  0  0
   -3.7222   -9.8212   11.8769 H   0  0  0  0  0  0  0  0  0  0  0  0
   -0.9142   -4.9330   11.2445 H   0  0  0  0  0  0  0  0  0  0  0  0
   -1.3318   -5.4699    9.4997 H   0  0  0  0  0  0  0  0  0  0  0  0
   -1.4805   -7.3067   11.8789 H   0  0  0  0  0  0  0  0  0  0  0  0
   -2.8656   -6.2945   11.2617 H   0  0  0  0  0  0  0  0  0  0  0  0
   -2.5007   -7.3604    9.0103 H   0  0  0  0  0  0  0  0  0  0  0  0
   -1.3764   -8.5202    9.8615 H   0  0  0  0  0  0  0  0  0  0  0  0
   -4.0420   -8.8652    9.4281 H   0  0  0  0  0  0  0  0  0  0  0  0
   -3.8049   -8.2210   11.2312 H   0  0  0  0  0  0  0  0  0  0  0  0
    8.8638  -12.6955   12.7823 H   0  0  0  0  0  0  0  0  0  0  0  0
    7.8870  -12.0852   11.3640 H   0  0  0  0  0  0  0  0  0  0  0  0
    6.7158  -13.5454   11.3877 H   0  0  0  0  0  0  0  0  0  0  0  0
    6.4476  -11.0102   12.2818 H   0  0  0  0  0  0  0  0  0  0  0  0
    5.3762  -12.5510   12.2877 H   0  0  0  0  0  0  0  0  0  0  0  0
    5.5510  -12.9155   13.9538 H   0  0  0  0  0  0  0  0  0  0  0  0
    6.4354  -13.6658   14.7147 H   0  0  0  0  0  0  0  0  0  0  0  0
    8.8067  -12.7450   14.1714 H   0  0  0  0  0  0  0  0  0  0  0  0
    4.5746  -12.1555   14.6009 H   0  0  0  0  0  0  0  0  0  0  0  0
    5.3201  -10.2634   16.3377 H   0  0  0  0  0  0  0  0  0  0  0  0
    4.2475  -11.7909   16.2297 H   0  0  0  0  0  0  0  0  0  0  0  0
    5.4498  -12.9183   16.7010 H   0  0  0  0  0  0  0  0  0  0  0  0
    6.9226  -13.7770   16.3960 H   0  0  0  0  0  0  0  0  0  0  0  0
    5.3196  -12.8429   18.1670 H   0  0  0  0  0  0  0  0  0  0  0  0
    6.1025  -13.4370   21.1771 H   0  0  0  0  0  0  0  0  0  0  0  0
    7.3682  -12.2213   21.3083 H   0  0  0  0  0  0  0  0  0  0  0  0
    6.4153  -10.8479   20.3621 H   0  0  0  0  0  0  0  0  0  0  0  0
    5.5491  -10.3467   18.8836 H   0  0  0  0  0  0  0  0  0  0  0  0
    4.0662  -11.6505   21.7768 H   0  0  0  0  0  0  0  0  0  0  0  0
    4.3300   -9.0758   22.2341 H   0  0  0  0  0  0  0  0  0  0  0  0
    5.2758   -9.0846   20.7070 H   0  0  0  0  0  0  0  0  0  0  0  0
    3.5650   -9.6322   20.7070 H   0  0  0  0  0  0  0  0  0  0  0  0
    5.0669  -11.0604   23.7647 H   0  0  0  0  0  0  0  0  0  0  0  0
    6.1894  -12.2084   22.9592 H   0  0  0  0  0  0  0  0  0  0  0  0
    6.5515  -10.4490   22.9592 H   0  0  0  0  0  0  0  0  0  0  0  0
   10.3679  -13.2718   10.7271 H   0  0  0  0  0  0  0  0  0  0  0  0
    9.8780  -14.9148   10.1911 H   0  0  0  0  0  0  0  0  0  0  0  0
    8.6806  -13.5758   10.1911 H   0  0  0  0  0  0  0  0  0  0  0  0
    8.8454  -14.2256   16.0384 H   0  0  0  0  0  0  0  0  0  0  0  0
    8.9256  -15.4781   14.7533 H   0  0  0  0  0  0  0  0  0  0  0  0
   10.0956  -14.1151   14.7533 H   0  0  0  0  0  0  0  0  0  0  0  0
   -2.2620  -12.1226   15.0949 H   0  0  0  0  0  0  0  0  0  0  0  0
   -4.8697  -11.3036   13.9238 H   0  0  0  0  0  0  0  0  0  0  0  0
   -2.3883  -10.3456   17.2858 H   0  0  0  0  0  0  0  0  0  0  0  0
   -5.0423   -9.8787   16.8127 H   0  0  0  0  0  0  0  0  0  0  0  0
   -4.9364  -12.8019   16.8158 H   0  0  0  0  0  0  0  0  0  0  0  0
   -3.4115  -13.4111   17.5615 H   0  0  0  0  0  0  0  0  0  0  0  0
   -2.2758  -13.1455   18.5902 H   0  0  0  0  0  0  0  0  0  0  0  0
   -3.9292  -11.0191   19.6069 H   0  0  0  0  0  0  0  0  0  0  0  0
   -5.1551  -11.4554   18.7562 H   0  0  0  0  0  0  0  0  0  0  0  0
  -31.0012   -3.1444  -24.5604 H   0  0  0  0  0  0  0  0  0  0  0  0
  -30.8678   -1.9570  -25.8593 H   0  0  0  0  0  0  0  0  0  0  0  0
  -28.5527   -2.1433  -25.9670 H   0  0  0  0  0  0  0  0  0  0  0  0
  -28.7583   -5.1261  -24.8758 H   0  0  0  0  0  0  0  0  0  0  0  0
  -28.9775   -4.2964  -27.7648 H   0  0  0  0  0  0  0  0  0  0  0  0
  -29.4952   -5.7898  -27.0095 H   0  0  0  0  0  0  0  0  0  0  0  0
  -31.1934   -3.6702  -27.4619 H   0  0  0  0  0  0  0  0  0  0  0  0
  -27.0788   -5.0544  -26.5857 H   0  0  0  0  0  0  0  0  0  0  0  0
  -25.7791   -3.2374  -25.3832 H   0  0  0  0  0  0  0  0  0  0  0  0
  -27.0995   -5.5484  -24.0532 H   0  0  0  0  0  0  0  0  0  0  0  0
  -29.4885   -2.3528  -23.5881 H   0  0  0  0  0  0  0  0  0  0  0  0
  -28.3763   -2.9666  -22.1644 H   0  0  0  0  0  0  0  0  0  0  0  0
  -25.6290   -4.7811  -22.6101 H   0  0  0  0  0  0  0  0  0  0  0  0
  -24.1523   -7.2246  -25.6725 H   0  0  0  0  0  0  0  0  0  0  0  0
  -28.0589    0.2827  -22.2684 H   0  0  0  0  0  0  0  0  0  0  0  0
  -27.7395   -1.3588  -21.6915 H   0  0  0  0  0  0  0  0  0  0  0  0
  -28.4757    0.7970  -24.3725 H   0  0  0  0  0  0  0  0  0  0  0  0
  -27.4077   -0.1601  -25.4541 H   0  0  0  0  0  0  0  0  0  0  0  0
  -29.1800   -0.4523  -25.4541 H   0  0  0  0  0  0  0  0  0  0  0  0
  -24.1729   -7.5955  -23.3299 H   0  0  0  0  0  0  0  0  0  0  0  0
  -25.6754   -7.8450  -23.0008 H   0  0  0  0  0  0  0  0  0  0  0  0
  -23.2500   -5.5050  -22.1547 H   0  0  0  0  0  0  0  0  0  0  0  0
  -23.2604   -4.7609  -23.8922 H   0  0  0  0  0  0  0  0  0  0  0  0
  -26.0032    0.2856  -23.6306 H   0  0  0  0  0  0  0  0  0  0  0  0
  -25.6626   -0.1699  -21.8422 H   0  0  0  0  0  0  0  0  0  0  0  0
  -25.7226   -2.1901  -24.0452 H   0  0  0  0  0  0  0  0  0  0  0  0
  -24.2301   -1.2243  -23.5378 H   0  0  0  0  0  0  0  0  0  0  0  0
  -24.6617   -2.1229  -21.2076 H   0  0  0  0  0  0  0  0  0  0  0  0
  -25.7422   -3.3431  -22.0651 H   0  0  0  0  0  0  0  0  0  0  0  0
  -23.1203   -3.6830  -21.4625 H   0  0  0  0  0  0  0  0  0  0  0  0
  -23.2169   -3.0812  -23.2866 H   0  0  0  0  0  0  0  0  0  0  0  0
  -36.0139   -7.3462  -24.5994 H   0  0  0  0  0  0  0  0  0  0  0  0
  -35.0295   -6.6771  -23.2217 H   0  0  0  0  0  0  0  0  0  0  0  0
  -33.7801   -8.0494  -23.2662 H   0  0  0  0  0  0  0  0  0  0  0  0
  -33.7097   -5.5122  -24.2519 H   0  0  0  0  0  0  0  0  0  0  0  0
  -32.5375   -6.9982  -24.2816 H   0  0  0  0  0  0  0  0  0  0  0  0
  -32.7414   -7.3893  -25.9300 H   0  0  0  0  0  0  0  0  0  0  0  0
  -33.6113   -8.1771  -26.6813 H   0  0  0  0  0  0  0  0  0  0  0  0
  -35.9958   -7.3705  -26.0194 H   0  0  0  0  0  0  0  0  0  0  0  0
  -31.8159   -6.5894  -26.6102 H   0  0  0  0  0  0  0  0  0  0  0  0
  -32.7595   -4.7262  -28.3478 H   0  0  0  0  0  0  0  0  0  0  0  0
  -31.5564   -6.1567  -28.2997 H   0  0  0  0  0  0  0  0  0  0  0  0
  -32.6906   -7.3936  -28.6731 H   0  0  0  0  0  0  0  0  0  0  0  0
  -34.1354   -8.3243  -28.3541 H   0  0  0  0  0  0  0  0  0  0  0  0
  -32.5377   -7.1826  -30.1867 H   0  0  0  0  0  0  0  0  0  0  0  0
  -33.3225   -7.5187  -33.3189 H   0  0  0  0  0  0  0  0  0  0  0  0
  -34.7529   -6.4781  -33.2316 H   0  0  0  0  0  0  0  0  0  0  0  0
  -33.9302   -5.0934  -32.2433 H   0  0  0  0  0  0  0  0  0  0  0  0
  -33.2062   -4.6641  -30.6984 H   0  0  0  0  0  0  0  0  0  0  0  0
  -31.4199   -4.7312  -33.1530 H   0  0  0  0  0  0  0  0  0  0  0  0
  -33.5217   -3.2878  -32.3641 H   0  0  0  0  0  0  0  0  0  0  0  0
  -32.7646   -2.8047  -33.9197 H   0  0  0  0  0  0  0  0  0  0  0  0
  -34.2689   -3.7863  -33.9197 H   0  0  0  0  0  0  0  0  0  0  0  0
  -32.4926   -6.5683  -34.7468 H   0  0  0  0  0  0  0  0  0  0  0  0
  -33.3834   -5.1282  -35.3461 H   0  0  0  0  0  0  0  0  0  0  0  0
  -31.5872   -5.1373  -35.3461 H   0  0  0  0  0  0  0  0  0  0  0  0
  -35.7612   -9.3479  -21.8467 H   0  0  0  0  0  0  0  0  0  0  0  0
  -36.2939   -7.6737  -22.2208 H   0  0  0  0  0  0  0  0  0  0  0  0
  -37.4867   -9.0168  -22.2208 H   0  0  0  0  0  0  0  0  0  0  0  0
  -36.8557   -9.6179  -26.1812 H   0  0  0  0  0  0  0  0  0  0  0  0
  -36.8163   -8.3764  -27.4788 H   0  0  0  0  0  0  0  0  0  0  0  0
  -35.6173   -9.7141  -27.4788 H   0  0  0  0  0  0  0  0  0  0  0  0
  -24.9429   -6.9294  -27.1997 H   0  0  0  0  0  0  0  0  0  0  0  0
  -23.0033   -6.2100  -24.2571 H   0  0  0  0  0  0  0  0  0  0  0  0
  -24.1833   -4.8917  -29.4289 H   0  0  0  0  0  0  0  0  0  0  0  0
  -22.1728   -5.0748  -26.6870 H   0  0  0  0  0  0  0  0  0  0  0  0
  -22.3742   -7.6261  -26.9378 H   0  0  0  0  0  0  0  0  0  0  0  0
  -24.0487   -8.1096  -29.8384 H   0  0  0  0  0  0  0  0  0  0  0  0
  -24.9463   -7.4743  -30.9415 H   0  0  0  0  0  0  0  0  0  0  0  0
  -22.6624   -5.9044  -31.6599 H   0  0  0  0  0  0  0  0  0  0  0  0
  -21.7101   -6.7203  -30.7406 H   0  0  0  0  0  0  0  0  0  0  0  0
  1  2  1  0
  2  3  1  0
  3  4  1  0
  1  5  1  0
  4  5  1  0
  3  6  1  0
  6  7  1  0
  6  8  1  0
  2  9  1  0
  9 10  1  0
  9 13  1  0
 13 14  1  0
 13 15  1  0
  8 16  1  0
 11 16  1  0
 16 12  1  1
 11 17  1  0
 16 17  1  0
 11 18  1  0
 14 19  1  0
 19 20  1  0
 20 21  1  0
 18 22  1  0
 21 22  1  0
  5 23  1  0
 24 25  1  0
 25 26  1  0
 26 27  1  0
 27 28  1  0
 24 29  1  0
 28 29  1  0
 23 30  1  0
 27 30  1  0
 30 31  1  0
 31 32  1  0
 28 33  1  0
 32 33  1  0
 32 34  1  0
 34 35  1  0
 35 36  1  0
 36 37  1  0
 34 38  1  0
 37 38  1  0
 37 39  1  0
 39 40  1  0
 39 41  1  0
 24 42  1  0
 42 43  1  0
 29 44  1  0
 12 45  1  0
 12 46  1  0
 45 47  1  0
 47 48  1  0
 47 49  1  6
 47 50  1  0
 48 51  1  0
 48 52  1  0
 51 52  1  0
 53 54  1  0
 54 55  1  0
 55 56  1  0
 53 57  1  0
 56 57  1  0
 55 58  1  0
 58 59  1  0
 58 60  1  0
 54 61  1  0
 61 62  1  0
 61 65  1  0
 65 66  1  0
 65 67  1  0
 68 60  1  6
 63 68  1  0
 64 68  1  0
 63 69  1  0
 68 69  1  0
 63 70  1  0
 66 71  1  0
 71 72  1  0
 72 73  1  0
 70 74  1  0
 73 74  1  0
 57 75  1  0
 76 77  1  0
 77 78  1  0
 78 79  1  0
 79 80  1  0
 76 81  1  0
 80 81  1  0
 75 82  1  0
 79 82  1  0
 82 83  1  0
 83 84  1  0
 80 85  1  0
 84 85  1  0
 84 86  1  0
 86 87  1  0
 87 88  1  0
 88 89  1  0
 86 90  1  0
 89 90  1  0
 89 91  1  0
 91 92  1  0
 91 93  1  0
 76 94  1  0
 94 95  1  0
 81 96  1  0
 64 97  1  0
 64 98  1  0
 97 99  1  0
 99100  1  0
 99101  1  1
 99102  1  0
100103  1  0
100104  1  0
103104  1  0
105106  1  0
106107  1  0
107108  1  0
105109  1  0
108109  1  0
107110  1  0
110111  1  0
110112  1  0
106113  1  0
113114  1  0
113117  1  0
117118  1  0
117119  1  0
120112  1  1
115120  1  0
116120  1  0
115121  1  0
120121  1  0
115122  1  0
118123  1  0
123124  1  0
124125  1  0
122126  1  0
125126  1  0
109127  1  0
128129  1  0
129130  1  0
130131  1  0
131132  1  0
128133  1  0
132133  1  0
127134  1  0
131134  1  0
134135  1  0
135136  1  0
132137  1  0
136137  1  0
136138  1  0
138139  1  0
139140  1  0
140141  1  0
138142  1  0
141142  1  0
141143  1  0
143144  1  0
143145  1  0
128146  1  0
146147  1  0
133148  1  0
116149  1  0
116150  1  0
149151  1  0
151152  1  0
151153  1  6
151154  1  0
152155  1  0
152156  1  0
155156  1  0
157158  1  0
158159  1  0
159160  1  0
157161  1  0
160161  1  0
159162  1  0
162163  1  0
162164  1  0
158165  1  0
165166  1  0
165169  1  0
169170  1  0
169171  1  0
164172  1  0
167172  1  0
172168  1  6
167173  1  0
172173  1  0
167174  1  0
170175  1  0
175176  1  0
176177  1  0
174178  1  0
177178  1  0
161179  1  0
180181  1  0
181182  1  0
182183  1  0
183184  1  0
180185  1  0
184185  1  0
179186  1  0
183186  1  0
186187  1  0
187188  1  0
184189  1  0
188189  1  0
188190  1  0
190191  1  0
191192  1  0
192193  1  0
190194  1  0
193194  1  0
193195  1  0
195196  1  0
195197  1  0
180198  1  0
198199  1  0
185200  1  0
168201  1  0
168202  1  0
201203  1  0
203204  1  0
203205  1  1
203206  1  0
204207  1  0
204208  1  0
207208  1  0
  1209  1  0
  1210  1  0
  2211  1  1
  3212  1  6
  4213  1  0
  4214  1  0
  5215  1  1
  6216  1  1
  7217  1  0
  8218  1  0
  9219  1  0
 10220  1  0
 11221  1  6
 12222  1  0
 14223  1  0
 14224  1  0
 15225  1  0
 15226  1  0
 15227  1  0
 17228  1  0
 17229  1  0
 18230  1  0
 18231  1  0
 19232  1  0
 19233  1  0
 20234  1  0
 20235  1  0
 21236  1  0
 21237  1  0
 22238  1  0
 22239  1  0
 24240  1  0
 25241  1  0
 25242  1  0
 26243  1  0
 26244  1  0
 27245  1  0
 28246  1  0
 29247  1  0
 30248  1  0
 31249  1  0
 31250  1  0
 32251  1  1
 33252  1  0
 34253  1  1
 36254  1  0
 36255  1  0
 37256  1  1
 38257  1  0
 39258  1  1
 40259  1  0
 40260  1  0
 40261  1  0
 41262  1  0
 41263  1  0
 41264  1  0
 43265  1  0
 43266  1  0
 43267  1  0
 44268  1  0
 44269  1  0
 44270  1  0
 45271  1  0
 46272  1  0
 48273  1  1
 49274  1  0
 50275  1  0
 51276  1  0
 51277  1  0
 52278  1  0
 52279  1  0
 53280  1  0
 53281  1  0
 54282  1  6
 55283  1  1
 56284  1  0
 56285  1  0
 57286  1  6
 58287  1  0
 59288  1  0
 60289  1  0
 61290  1  0
 62291  1  0
 63292  1  1
 64293  1  6
 66294  1  0
 66295  1  0
 67296  1  0
 67297  1  0
 67298  1  0
 69299  1  0
 69300  1  0
 70301  1  0
 70302  1  0
 71303  1  0
 71304  1  0
 72305  1  0
 72306  1  0
 73307  1  0
 73308  1  0
 74309  1  0
 74310  1  0
 76311  1  0
 77312  1  0
 77313  1  0
 78314  1  0
 78315  1  0
 79316  1  0
 80317  1  0
 81318  1  0
 82319  1  0
 83320  1  0
 83321  1  0
 84322  1  0
 85323  1  0
 86324  1  0
 88325  1  0
 88326  1  0
 89327  1  0
 90328  1  0
 91329  1  6
 92330  1  0
 92331  1  0
 92332  1  0
 93333  1  0
 93334  1  0
 93335  1  0
 95336  1  0
 95337  1  0
 95338  1  0
 96339  1  0
 96340  1  0
 96341  1  0
 97342  1  0
 98343  1  0
100344  1  6
101345  1  0
102346  1  0
103347  1  0
103348  1  0
104349  1  0
104350  1  0
105351  1  0
105352  1  0
106353  1  1
107354  1  6
108355  1  0
108356  1  0
109357  1  1
110358  1  0
111359  1  0
112360  1  0
113361  1  0
114362  1  0
115363  1  6
116364  1  1
118365  1  0
118366  1  0
119367  1  0
119368  1  0
119369  1  0
121370  1  0
121371  1  0
122372  1  0
122373  1  0
123374  1  0
123375  1  0
124376  1  0
124377  1  0
125378  1  0
125379  1  0
126380  1  0
126381  1  0
128382  1  0
129383  1  0
129384  1  0
130385  1  0
130386  1  0
131387  1  0
132388  1  0
133389  1  0
134390  1  0
135391  1  0
135392  1  0
136393  1  0
137394  1  0
138395  1  0
140396  1  0
140397  1  0
141398  1  1
142399  1  0
143400  1  1
144401  1  0
144402  1  0
144403  1  0
145404  1  0
145405  1  0
145406  1  0
147407  1  0
147408  1  0
147409  1  0
148410  1  0
148411  1  0
148412  1  0
149413  1  0
150414  1  0
152415  1  1
153416  1  0
154417  1  0
155418  1  0
155419  1  0
156420  1  0
156421  1  0
157422  1  0
157423  1  0
158424  1  6
159425  1  1
160426  1  0
160427  1  0
161428  1  6
162429  1  0
163430  1  0
164431  1  0
165432  1  0
166433  1  0
167434  1  1
168435  1  0
170436  1  0
170437  1  0
171438  1  0
171439  1  0
171440  1  0
173441  1  0
173442  1  0
174443  1  0
174444  1  0
175445  1  0
175446  1  0
176447  1  0
176448  1  0
177449  1  0
177450  1  0
178451  1  0
178452  1  0
180453  1  0
181454  1  0
181455  1  0
182456  1  0
182457  1  0
183458  1  0
184459  1  0
185460  1  0
186461  1  0
187462  1  0
187463  1  0
188464  1  6
189465  1  0
190466  1  6
192467  1  0
192468  1  0
193469  1  0
194470  1  0
195471  1  1
196472  1  0
196473  1  0
196474  1  0
197475  1  0
197476  1  0
197477  1  0
199478  1  0
199479  1  0
199480  1  0
200481  1  0
200482  1  0
200483  1  0
201484  1  0
202485  1  0
204486  1  6
205487  1  0
206488  1  0
207489  1  0
207490  1  0
208491  1  0
208492  1  0
M  END
>  <PDBID>  (1) 
3KEE

>  <PDB ID>  (1) 
3KEE

>  <Generic Name>  (1) 
Simeprevir

>  <Brand Name>  (1) 
Galexos#Olysio

>  <DrugBank ID>  (1) 
DB06290

>  <ATC Codes>  (1) 
J05AE14

>  <Ligand ID>  (1) 
30B

>  <Target Name>  (1) 
NS3 protease

>  <UniProt ID>  (1) 
Q91RS4

>  <PDB ID.1>  (1) 
3KEE

>  <Seq. Identity>  (1) 
82%

$$$$
