PDB_DB00523_87
     RDKit          3D

 50 50  0  0  0  0  0  0  0  0999 V2000
    2.4100  -20.4660  -31.0250 C   0  0  0  0  0  0  0  0  0  0  0  0
    1.6640  -21.8330  -31.4820 C   0  0  0  0  0  0  0  0  0  0  0  0
    1.8690  -23.1370  -30.5770 C   0  0  0  0  0  0  0  0  0  0  0  0
    3.1060  -23.1600  -29.9220 C   0  0  0  0  0  0  0  0  0  0  0  0
    3.5790  -22.0440  -29.2030 C   0  0  0  0  0  0  0  0  0  0  0  0
    3.3160  -20.6280  -29.6300 C   0  0  0  0  0  0  0  0  0  0  0  0
    3.7540  -19.4480  -28.9540 C   0  0  0  0  0  0  0  0  0  0  0  0
    3.6050  -18.9360  -27.6840 C   0  0  0  0  0  0  0  0  0  0  0  0
    4.1510  -17.8320  -27.0370 C   0  0  0  0  0  0  0  0  0  0  0  0
    3.8290  -17.5530  -25.7050 C   0  0  0  0  0  0  0  0  0  0  0  0
    2.9620  -18.3540  -24.9660 C   0  0  0  0  0  0  0  0  0  0  0  0
    2.6450  -18.0930  -23.6620 C   0  0  0  0  0  0  0  0  0  0  0  0
    1.7620  -18.8980  -22.8290 C   0  0  0  0  0  0  0  0  0  0  0  0
    1.8930  -18.5910  -21.4600 C   0  0  0  0  0  0  0  0  0  0  0  0
    1.1950  -19.1820  -20.2230 C   0  0  0  0  0  0  0  0  0  0  0  0
    1.1660  -19.5460  -30.6520 C   0  0  0  0  0  0  0  0  0  0  0  0
    3.0740  -19.7490  -32.2500 C   0  0  0  0  0  0  0  0  0  0  0  0
    4.3690  -22.5070  -27.9710 C   0  0  0  0  0  0  0  0  0  0  0  0
    5.1710  -16.8090  -27.6980 C   0  0  0  0  0  0  0  0  0  0  0  0
    0.7960  -19.9890  -23.3570 C   0  0  0  0  0  0  0  0  0  0  0  0
    1.7730  -19.2890  -19.1660 O   0  0  0  0  0  0  0  0  0  0  0  0
   -0.0270  -19.5640  -20.3660 O   0  0  0  0  0  0  0  0  0  0  0  0
    0.5848  -21.6224  -31.5133 H   0  0  0  0  0  0  0  0  0  0  0  0
    2.1272  -22.0908  -32.4459 H   0  0  0  0  0  0  0  0  0  0  0  0
    1.0712  -23.1673  -29.8203 H   0  0  0  0  0  0  0  0  0  0  0  0
    1.8347  -24.0099  -31.2455 H   0  0  0  0  0  0  0  0  0  0  0  0
    3.0630  -23.9946  -29.2067 H   0  0  0  0  0  0  0  0  0  0  0  0
    3.8163  -23.2200  -30.7598 H   0  0  0  0  0  0  0  0  0  0  0  0
    4.3531  -18.7918  -29.6024 H   0  0  0  0  0  0  0  0  0  0  0  0
    2.9152  -19.5172  -27.0544 H   0  0  0  0  0  0  0  0  0  0  0  0
    4.2760  -16.6703  -25.2244 H   0  0  0  0  0  0  0  0  0  0  0  0
    2.5136  -19.2332  -25.4517 H   0  0  0  0  0  0  0  0  0  0  0  0
    3.0946  -17.2000  -23.2033 H   0  0  0  0  0  0  0  0  0  0  0  0
    2.6173  -17.7934  -21.2381 H   0  0  0  0  0  0  0  0  0  0  0  0
    1.0748  -19.4786  -29.5579 H   0  0  0  0  0  0  0  0  0  0  0  0
    1.3157  -18.5397  -31.0702 H   0  0  0  0  0  0  0  0  0  0  0  0
    0.2476  -19.9839  -31.0702 H   0  0  0  0  0  0  0  0  0  0  0  0
    3.7802  -18.9864  -31.8899 H   0  0  0  0  0  0  0  0  0  0  0  0
    3.6129  -20.4889  -32.8600 H   0  0  0  0  0  0  0  0  0  0  0  0
    2.2950  -19.2684  -32.8600 H   0  0  0  0  0  0  0  0  0  0  0  0
    3.8396  -22.1967  -27.0581 H   0  0  0  0  0  0  0  0  0  0  0  0
    4.4626  -23.6029  -27.9860 H   0  0  0  0  0  0  0  0  0  0  0  0
    5.3709  -22.0532  -27.9860 H   0  0  0  0  0  0  0  0  0  0  0  0
    5.7111  -16.2673  -26.9075 H   0  0  0  0  0  0  0  0  0  0  0  0
    5.8901  -17.3598  -28.3221 H   0  0  0  0  0  0  0  0  0  0  0  0
    4.6181  -16.0915  -28.3221 H   0  0  0  0  0  0  0  0  0  0  0  0
    0.3333  -20.5116  -22.5069 H   0  0  0  0  0  0  0  0  0  0  0  0
    0.0121  -19.5195  -23.9694 H   0  0  0  0  0  0  0  0  0  0  0  0
    1.3570  -20.7102  -23.9694 H   0  0  0  0  0  0  0  0  0  0  0  0
    1.3048  -19.6722  -18.3824 H   0  0  0  0  0  0  0  0  0  0  0  0
  1  2  1  0
  2  3  1  0
  3  4  1  0
  4  5  1  0
  1  6  1  0
  5  6  2  0
  6  7  1  0
  7  8  2  0
  8  9  1  0
  9 10  2  0
 10 11  1  0
 11 12  2  0
 12 13  1  0
 13 14  2  0
 14 15  1  0
  1 16  1  0
  1 17  1  0
  5 18  1  0
  9 19  1  0
 13 20  1  0
 15 21  1  0
 15 22  2  0
  2 23  1  0
  2 24  1  0
  3 25  1  0
  3 26  1  0
  4 27  1  0
  4 28  1  0
  7 29  1  0
  8 30  1  0
 10 31  1  0
 11 32  1  0
 12 33  1  0
 14 34  1  0
 16 35  1  0
 16 36  1  0
 16 37  1  0
 17 38  1  0
 17 39  1  0
 17 40  1  0
 18 41  1  0
 18 42  1  0
 18 43  1  0
 19 44  1  0
 19 45  1  0
 19 46  1  0
 20 47  1  0
 20 48  1  0
 20 49  1  0
 21 50  1  0
M  END
$$$$
