PDB_DB04729_96
     RDKit          3D

 70 72  0  0  0  0  0  0  0  0999 V2000
  101.8300    5.9040  -61.1940 C   0  0  2  0  0  0  0  0  0  0  0  0
  102.8560    4.9020  -60.9420 O   0  0  0  0  0  0  0  0  0  0  0  0
  100.6960    5.3090  -62.0630 C   0  0  2  0  0  0  0  0  0  0  0  0
  100.1640    4.1630  -61.3960 N   0  0  0  0  0  0  0  0  0  0  0  0
  101.2360    4.9610  -63.5140 C   0  0  0  0  0  0  0  0  0  0  0  0
  101.7870    6.2830  -64.1720 C   0  0  0  0  0  0  0  0  0  0  0  0
  102.9470    6.8680  -63.2380 C   0  0  2  0  0  0  0  0  0  0  0  0
  102.4700    7.0950  -61.8630 O   0  0  0  0  0  0  0  0  0  0  0  0
  103.5370    8.1570  -63.7760 C   0  0  0  0  0  0  0  0  0  0  0  0
  104.6440    8.6160  -62.9780 N   0  0  0  0  0  0  0  0  0  0  0  0
  105.1160    3.4290  -57.5870 C   0  0  2  0  0  0  0  0  0  0  0  0
  105.5370    3.2300  -56.2350 N   0  0  0  0  0  0  0  0  0  0  0  0
  105.2310    4.9580  -57.9450 C   0  0  0  0  0  0  0  0  0  0  0  0
  104.7630    5.2010  -59.4410 C   0  0  2  0  0  0  0  0  0  0  0  0
  104.8670    6.6290  -59.7840 N   0  0  0  0  0  0  0  0  0  0  0  0
  103.2680    4.6860  -59.6280 C   0  0  2  0  0  0  0  0  0  0  0  0
  103.1780    3.1430  -59.2460 C   0  0  2  0  0  0  0  0  0  0  0  0
  101.8420    2.6760  -59.4040 O   0  0  0  0  0  0  0  0  0  0  0  0
  103.6540    2.9280  -57.7520 C   0  0  1  0  0  0  0  0  0  0  0  0
  103.5700    1.5370  -57.4320 O   0  0  0  0  0  0  0  0  0  0  0  0
  103.0620    1.0390  -56.1500 C   0  0  2  0  0  0  0  0  0  0  0  0
  103.3780   -0.4900  -56.0870 C   0  0  2  0  0  0  0  0  0  0  0  0
  104.7670   -0.6920  -56.2300 O   0  0  0  0  0  0  0  0  0  0  0  0
  102.5310   -1.2430  -57.2130 C   0  0  1  0  0  0  0  0  0  0  0  0
  102.8000   -2.7210  -57.2070 N   0  0  0  0  0  0  0  0  0  0  0  0
  100.9340   -0.9750  -56.9980 C   0  0  1  0  0  0  0  0  0  0  0  0
  100.4850   -1.5080  -55.7660 O   0  0  0  0  0  0  0  0  0  0  0  0
  100.6590    0.5640  -56.9970 C   0  0  0  0  0  0  0  0  0  0  0  0
  101.5740    1.2660  -56.0130 O   0  0  0  0  0  0  0  0  0  0  0  0
   99.9810   -1.6280  -58.0100 C   0  0  0  0  0  0  0  0  0  0  0  0
  103.3900   -3.3040  -58.4220 C   0  0  0  0  0  0  0  0  0  0  0  0
  101.3779    6.2271  -60.2446 H   0  0  0  0  0  0  0  0  0  0  0  0
   99.8879    6.0436  -62.1944 H   0  0  0  0  0  0  0  0  0  0  0  0
  100.2271    4.2988  -60.3769 H   0  0  0  0  0  0  0  0  0  0  0  0
   99.1779    4.0361  -61.6651 H   0  0  0  0  0  0  0  0  0  0  0  0
  102.0439    4.2180  -63.4411 H   0  0  0  0  0  0  0  0  0  0  0  0
  100.4247    4.5436  -64.1284 H   0  0  0  0  0  0  0  0  0  0  0  0
  102.1912    6.0602  -65.1705 H   0  0  0  0  0  0  0  0  0  0  0  0
  100.9768    7.0200  -64.2739 H   0  0  0  0  0  0  0  0  0  0  0  0
  103.7373    6.1029  -63.2319 H   0  0  0  0  0  0  0  0  0  0  0  0
  103.8873    7.9855  -64.8045 H   0  0  0  0  0  0  0  0  0  0  0  0
  102.7533    8.9284  -63.7469 H   0  0  0  0  0  0  0  0  0  0  0  0
  104.4108    8.5193  -61.9794 H   0  0  0  0  0  0  0  0  0  0  0  0
  105.4787    8.0517  -63.1918 H   0  0  0  0  0  0  0  0  0  0  0  0
  105.7586    2.8577  -58.2731 H   0  0  0  0  0  0  0  0  0  0  0  0
  104.8080    3.5746  -55.5941 H   0  0  0  0  0  0  0  0  0  0  0  0
  105.6937    2.2257  -56.0685 H   0  0  0  0  0  0  0  0  0  0  0  0
  104.5928    5.5406  -57.2644 H   0  0  0  0  0  0  0  0  0  0  0  0
  106.2784    5.2764  -57.8379 H   0  0  0  0  0  0  0  0  0  0  0  0
  105.4193    4.6363  -60.1195 H   0  0  0  0  0  0  0  0  0  0  0  0
  104.9077    7.1876  -58.9196 H   0  0  0  0  0  0  0  0  0  0  0  0
  105.7218    6.7881  -60.3362 H   0  0  0  0  0  0  0  0  0  0  0  0
  102.5978    5.2464  -58.9596 H   0  0  0  0  0  0  0  0  0  0  0  0
  103.8354    2.5710  -59.9173 H   0  0  0  0  0  0  0  0  0  0  0  0
  101.4347    2.5336  -58.5130 H   0  0  0  0  0  0  0  0  0  0  0  0
  103.0081    3.5000  -57.0696 H   0  0  0  0  0  0  0  0  0  0  0  0
  103.5459    1.5816  -55.3245 H   0  0  0  0  0  0  0  0  0  0  0  0
  103.0877   -0.9091  -55.1123 H   0  0  0  0  0  0  0  0  0  0  0  0
  105.1855   -0.7529  -55.3349 H   0  0  0  0  0  0  0  0  0  0  0  0
  102.8422   -0.8389  -58.1876 H   0  0  0  0  0  0  0  0  0  0  0  0
  103.4435   -2.9153  -56.4266 H   0  0  0  0  0  0  0  0  0  0  0  0
  100.9037   -1.0109  -55.0192 H   0  0  0  0  0  0  0  0  0  0  0  0
  100.8372    0.9643  -58.0060 H   0  0  0  0  0  0  0  0  0  0  0  0
   99.6147    0.7387  -56.6988 H   0  0  0  0  0  0  0  0  0  0  0  0
   99.1898   -2.1702  -57.4715 H   0  0  0  0  0  0  0  0  0  0  0  0
   99.5277   -0.8499  -58.6417 H   0  0  0  0  0  0  0  0  0  0  0  0
  100.5430   -2.3317  -58.6417 H   0  0  0  0  0  0  0  0  0  0  0  0
  104.1463   -4.0513  -58.1401 H   0  0  0  0  0  0  0  0  0  0  0  0
  102.6011   -3.7872  -59.0172 H   0  0  0  0  0  0  0  0  0  0  0  0
  103.8637   -2.5094  -59.0172 H   0  0  0  0  0  0  0  0  0  0  0  0
  2  1  1  0
  3  1  1  0
  4  3  1  0
  5  3  1  0
  6  5  1  0
  7  6  1  0
  8  7  1  0
  8  1  1  0
  9  7  1  0
 10  9  1  0
 12 11  1  0
 13 11  1  0
 14 13  1  0
 15 14  1  0
 16  2  1  0
 16 14  1  0
 17 16  1  0
 18 17  1  0
 19 17  1  0
 19 11  1  0
 20 19  1  0
 21 20  1  0
 22 21  1  0
 23 22  1  0
 24 22  1  0
 25 24  1  0
 26 24  1  0
 26 27  1  1
 28 26  1  0
 29 28  1  0
 29 21  1  0
 30 26  1  0
 31 25  1  0
  1 32  1  1
  3 33  1  6
  4 34  1  0
  4 35  1  0
  5 36  1  0
  5 37  1  0
  6 38  1  0
  6 39  1  0
  7 40  1  1
  9 41  1  0
  9 42  1  0
 10 43  1  0
 10 44  1  0
 11 45  1  6
 12 46  1  0
 12 47  1  0
 13 48  1  0
 13 49  1  0
 14 50  1  6
 15 51  1  0
 15 52  1  0
 16 53  1  1
 17 54  1  6
 18 55  1  0
 19 56  1  1
 21 57  1  1
 22 58  1  1
 23 59  1  0
 24 60  1  6
 25 61  1  0
 27 62  1  0
 28 63  1  0
 28 64  1  0
 30 65  1  0
 30 66  1  0
 30 67  1  0
 31 68  1  0
 31 69  1  0
 31 70  1  0
M  END
$$$$
