PDB_DB00814_99
     RDKit          3D

104109  0  0  0  0  0  0  0  0999 V2000
  248.0450  103.9100    0.0050 C   0  0  0  0  0  0  0  0  0  0  0  0
  248.9810  104.7190    0.8740 C   0  0  0  0  0  0  0  0  0  0  0  0
  249.3520  104.4370    2.4520 S   0  0  0  0  0  0  0  0  0  0  0  0
  249.6240  105.7850    0.4240 C   0  0  0  0  0  0  0  0  0  0  0  0
  250.3860  106.3440    1.3640 N   0  0  0  0  0  0  0  0  0  0  0  0
  250.3550  105.7340    2.5500 C   0  0  0  0  0  0  0  0  0  0  0  0
  251.0140  106.1370    3.6380 N   0  0  0  0  0  0  0  0  0  0  0  0
  251.8170  107.2150    3.5380 C   0  0  1  0  0  0  0  0  0  0  0  0
  251.8060  107.9950    2.5840 O   0  0  0  0  0  0  0  0  0  0  0  0
  252.4810  107.5940    4.6980 C   0  0  1  0  0  0  0  0  0  0  0  0
  252.6020  106.6940    5.8000 C   0  0  2  0  0  0  0  0  0  0  0  0
  251.7950  105.6000    5.8030 O   0  0  0  0  0  0  0  0  0  0  0  0
  253.2720  106.9850    6.9990 C   0  0  1  0  0  0  0  0  0  0  0  0
  253.7270  106.0060    7.8730 C   0  0  0  0  0  0  0  0  0  0  0  0
  254.5170  106.3900    8.9560 C   0  0  0  0  0  0  0  0  0  0  0  0
  254.9250  107.7130    9.1170 C   0  0  0  0  0  0  0  0  0  0  0  0
  254.5390  108.6660    8.1840 C   0  0  0  0  0  0  0  0  0  0  0  0
  253.8330  108.2250    7.0800 C   0  0  2  0  0  0  0  0  0  0  0  0
  253.1980  109.1240    6.0570 S   0  0  2  0  0  4  0  0  0  0  0  0
  253.9460  110.4550    6.1470 O   0  0  0  0  0  0  0  0  0  0  0  0
  251.7270  109.3850    6.4210 O   0  0  0  0  0  0  0  0  0  0  0  0
  253.3200  108.6780    4.6540 N   0  0  0  0  0  0  0  0  0  0  0  0
  254.4540  108.4140    3.7370 C   0  0  0  0  0  0  0  0  0  0  0  0
  239.3410  108.8150   47.5030 C   0  0  0  0  0  0  0  0  0  0  0  0
  239.5370  110.0530   46.6510 C   0  0  0  0  0  0  0  0  0  0  0  0
  239.1570  110.2080   45.0580 S   0  0  0  0  0  0  0  0  0  0  0  0
  240.0630  111.1790   47.1180 C   0  0  0  0  0  0  0  0  0  0  0  0
  240.1390  112.1200   46.1770 N   0  0  0  0  0  0  0  0  0  0  0  0
  239.6660  111.7600   44.9810 C   0  0  1  0  0  0  0  0  0  0  0  0
  239.6720  112.5240   43.8880 N   0  0  0  0  0  0  0  0  0  0  0  0
  240.1410  113.7810   43.9910 C   0  0  1  0  0  0  0  0  0  0  0  0
  240.7810  114.2070   44.9510 O   0  0  0  0  0  0  0  0  0  0  0  0
  240.1250  114.5300   42.8250 C   0  0  2  0  0  0  0  0  0  0  0  0
  239.3150  114.1530   41.7090 C   0  0  2  0  0  0  0  0  0  0  0  0
  238.8390  112.8820   41.6900 O   0  0  0  0  0  0  0  0  0  0  0  0
  239.2330  114.8670   40.5010 C   0  0  1  0  0  0  0  0  0  0  0  0
  238.2060  114.7130   39.5790 C   0  0  0  0  0  0  0  0  0  0  0  0
  238.1600  115.5760   38.4840 C   0  0  0  0  0  0  0  0  0  0  0  0
  239.0730  116.6220   38.3540 C   0  0  0  0  0  0  0  0  0  0  0  0
  240.0480  116.8150   39.3250 C   0  0  0  0  0  0  0  0  0  0  0  0
  240.0040  115.9880   40.4360 C   0  0  2  0  0  0  0  0  0  0  0  0
  241.0600  115.9260   41.5620 S   0  0  0  0  0  6  0  0  0  0  0  0
  241.8340  117.2280   41.5410 O   0  0  0  0  0  0  0  0  0  0  0  0
  242.0630  114.7840   41.3110 O   0  0  0  0  0  0  0  0  0  0  0  0
  240.5590  115.8190   42.8770 N   0  0  0  0  0  0  0  0  0  0  0  0
  239.7090  116.6640   43.7510 C   0  0  0  0  0  0  0  0  0  0  0  0
  247.3670  103.3240    0.6429 H   0  0  0  0  0  0  0  0  0  0  0  0
  247.4562  104.5882   -0.6301 H   0  0  0  0  0  0  0  0  0  0  0  0
  248.6308  103.2292   -0.6301 H   0  0  0  0  0  0  0  0  0  0  0  0
  248.1406  105.3567    1.1855 H   0  0  0  0  0  0  0  0  0  0  0  0
  250.2637  105.4840   -0.4187 H   0  0  0  0  0  0  0  0  0  0  0  0
  248.8740  106.5261    0.1105 H   0  0  0  0  0  0  0  0  0  0  0  0
  251.3600  106.3422    1.0289 H   0  0  0  0  0  0  0  0  0  0  0  0
  251.2024  105.1016    2.2469 H   0  0  0  0  0  0  0  0  0  0  0  0
  250.3101  106.3474    4.3600 H   0  0  0  0  0  0  0  0  0  0  0  0
  252.4703  106.6685    2.8420 H   0  0  0  0  0  0  0  0  0  0  0  0
  251.7929  108.9264    2.9194 H   0  0  0  0  0  0  0  0  0  0  0  0
  251.5694  108.0640    5.0955 H   0  0  0  0  0  0  0  0  0  0  0  0
  253.6049  106.5305    5.3788 H   0  0  0  0  0  0  0  0  0  0  0  0
  251.6003  105.3361    6.7371 H   0  0  0  0  0  0  0  0  0  0  0  0
  252.3420  106.9942    7.5864 H   0  0  0  0  0  0  0  0  0  0  0  0
  252.8402  105.5000    8.2824 H   0  0  0  0  0  0  0  0  0  0  0  0
  254.3989  105.3898    7.2575 H   0  0  0  0  0  0  0  0  0  0  0  0
  253.9538  106.1245    9.8628 H   0  0  0  0  0  0  0  0  0  0  0  0
  255.4651  105.8682    8.7590 H   0  0  0  0  0  0  0  0  0  0  0  0
  254.5447  108.0485   10.0931 H   0  0  0  0  0  0  0  0  0  0  0  0
  256.0174  107.6627    8.9980 H   0  0  0  0  0  0  0  0  0  0  0  0
  253.9101  109.4027    8.7054 H   0  0  0  0  0  0  0  0  0  0  0  0
  255.4820  109.0595    7.7766 H   0  0  0  0  0  0  0  0  0  0  0  0
  254.9153  108.1991    6.8851 H   0  0  0  0  0  0  0  0  0  0  0  0
  254.0805  110.6943    7.0982 H   0  0  0  0  0  0  0  0  0  0  0  0
  251.6289  109.4024    7.4060 H   0  0  0  0  0  0  0  0  0  0  0  0
  255.3595  108.2032    4.3249 H   0  0  0  0  0  0  0  0  0  0  0  0
  254.2184  107.5467    3.1028 H   0  0  0  0  0  0  0  0  0  0  0  0
  254.6257  109.2962    3.1028 H   0  0  0  0  0  0  0  0  0  0  0  0
  239.3847  109.0913   48.5668 H   0  0  0  0  0  0  0  0  0  0  0  0
  238.3609  108.3680   47.2803 H   0  0  0  0  0  0  0  0  0  0  0  0
  240.1351  108.0871   47.2803 H   0  0  0  0  0  0  0  0  0  0  0  0
  240.5439  109.7050   46.3770 H   0  0  0  0  0  0  0  0  0  0  0  0
  239.4354  111.5498   47.9418 H   0  0  0  0  0  0  0  0  0  0  0  0
  241.0838  110.9603   47.4645 H   0  0  0  0  0  0  0  0  0  0  0  0
  239.6035  112.9387   46.4994 H   0  0  0  0  0  0  0  0  0  0  0  0
  238.6630  112.1035   45.2743 H   0  0  0  0  0  0  0  0  0  0  0  0
  240.2457  112.0414   43.1817 H   0  0  0  0  0  0  0  0  0  0  0  0
  239.3259  114.0219   44.6893 H   0  0  0  0  0  0  0  0  0  0  0  0
  240.3462  113.9176   45.7920 H   0  0  0  0  0  0  0  0  0  0  0  0
  238.6107  114.8892   42.1236 H   0  0  0  0  0  0  0  0  0  0  0  0
  238.7187  112.5608   42.6187 H   0  0  0  0  0  0  0  0  0  0  0  0
  239.6902  114.0565   39.9144 H   0  0  0  0  0  0  0  0  0  0  0  0
  238.2759  113.6892   39.1829 H   0  0  0  0  0  0  0  0  0  0  0  0
  237.2952  114.9510   40.1480 H   0  0  0  0  0  0  0  0  0  0  0  0
  238.2730  114.9492   37.5871 H   0  0  0  0  0  0  0  0  0  0  0  0
  237.2069  116.1046   38.6330 H   0  0  0  0  0  0  0  0  0  0  0  0
  239.5997  116.4678   37.4007 H   0  0  0  0  0  0  0  0  0  0  0  0
  238.4444  117.5203   38.4432 H   0  0  0  0  0  0  0  0  0  0  0  0
  241.0272  116.6727   38.8444 H   0  0  0  0  0  0  0  0  0  0  0  0
  239.8647  117.8268   39.7156 H   0  0  0  0  0  0  0  0  0  0  0  0
  239.4681  116.9444   40.5265 H   0  0  0  0  0  0  0  0  0  0  0  0
    0.0000    0.0000    0.0000 H   0  0  0  0  0  0  0  0  0  0  0  0
  242.0092  117.5228   42.4697 H   0  0  0  0  0  0  0  0  0  0  0  0
  242.3782  114.4251   42.1781 H   0  0  0  0  0  0  0  0  0  0  0  0
  239.9322  116.4421   44.8050 H   0  0  0  0  0  0  0  0  0  0  0  0
  239.9154  117.7252   43.5481 H   0  0  0  0  0  0  0  0  0  0  0  0
  238.6490  116.4513   43.5481 H   0  0  0  0  0  0  0  0  0  0  0  0
  1  2  1  0
  2  3  1  0
  2  4  1  0
  4  5  1  0
  3  6  1  0
  5  6  1  0
  6  7  1  0
  7  8  1  0
  8  9  1  0
  8 10  1  0
 10 11  1  0
 11 12  1  0
 11 13  1  0
 13 14  1  0
 14 15  1  0
 15 16  1  0
 16 17  1  0
 13 18  1  0
 17 18  1  0
 18 19  1  0
 19 20  1  6
 19 21  1  0
 10 22  1  0
 19 22  1  0
 22 23  1  0
 24 25  1  0
 25 26  1  0
 25 27  1  0
 27 28  1  0
 26 29  1  0
 28 29  1  0
 29 30  1  0
 30 31  1  0
 31 32  1  0
 31 33  1  0
 33 34  1  0
 34 35  1  0
 34 36  1  0
 36 37  1  0
 37 38  1  0
 38 39  1  0
 39 40  1  0
 36 41  1  0
 40 41  1  0
 41 42  1  0
 42 33  1  0
 42 43  1  0
 42 44  1  0
 33 45  1  6
 42 45  1  0
 45 46  1  0
  1 47  1  0
  1 48  1  0
  1 49  1  0
  2 50  1  0
  4 51  1  0
  4 52  1  0
  5 53  1  0
  6 54  1  0
  7 55  1  0
  8 56  1  6
  9 57  1  0
 10 58  1  1
 11 59  1  6
 12 60  1  0
 13 61  1  1
 14 62  1  0
 14 63  1  0
 15 64  1  0
 15 65  1  0
 16 66  1  0
 16 67  1  0
 17 68  1  0
 17 69  1  0
 18 70  1  6
 20 71  1  0
 21 72  1  0
 23 73  1  0
 23 74  1  0
 23 75  1  0
 24 76  1  0
 24 77  1  0
 24 78  1  0
 25 79  1  0
 27 80  1  0
 27 81  1  0
 28 82  1  0
 29 83  1  1
 30 84  1  0
 31 85  1  1
 32 86  1  0
 34 87  1  1
 35 88  1  0
 36 89  1  6
 37 90  1  0
 37 91  1  0
 38 92  1  0
 38 93  1  0
 39 94  1  0
 39 95  1  0
 40 96  1  0
 40 97  1  0
 41 98  1  1
 42 99  1  0
 43100  1  0
 44101  1  0
 46102  1  0
 46103  1  0
 46104  1  0
M  END
>  <PDBID>  (1) 
4O1Z

>  <PDB ID>  (1) 
4O1Z

>  <Generic Name>  (1) 
Meloxicam

>  <Brand Name>  (1) 
Act Meloxicam#Apo-meloxicam#Auro-meloxicam#Ava-meloxicam#Comfort Pac With Meloxicam#Dom-meloxicam#Meloxicam#Mobic#Mobicox#Mylan-meloxicam#Nu-meloxicam#PHL-meloxicam#PMS-meloxicam#Ratio-meloxicam#Teva-meloxicam#Trepoxicam-7.5#Vivlodex#Achefree#Acticam#Aflamid#Afloxx#Aglan#Ainecox#Aldoron#Alentum#Algiflex#Aliviodol#Anaxicam#Anposel#Antrend#Aponip#Areloger#Aremil#Armex#Arrox#Arsitec#Artex#Arthrobic#Arthrox#Articam#Artipro#Artriclox#Artrifilm#Artriflam#Artrilom#Artrilox#Artrox#Aspicam#Atiflam#Atrozan#Auroxicam#Axius

>  <DrugBank ID>  (1) 
DB00814

>  <ATC Codes>  (1) 
M01AC56#M01AC06

>  <Ligand ID>  (1) 
MXM

>  <Target Name>  (1) 
Prostaglandin G/H synthase 2

>  <UniProt ID>  (1) 
P35354

>  <PDB ID.1>  (1) 
4O1Z

>  <Seq. Identity>  (1) 
61%

$$$$
