PDB_DB00224_99
     RDKit          3D

114118  0  0  0  0  0  0  0  0999 V2000
    9.2800   23.7630    3.0040 N   0  0  0  0  0  0  0  0  0  0  0  0
    9.4980   23.9830    4.4590 C   0  0  0  0  0  0  0  0  0  0  0  0
   10.5910   24.9050    4.9620 C   0  0  1  0  0  0  0  0  0  0  0  0
   10.5910   24.8640    6.4660 C   0  0  0  0  0  0  0  0  0  0  0  0
   10.9370   23.8490    7.0570 O   0  0  0  0  0  0  0  0  0  0  0  0
   10.1930   25.9530    7.0940 N   0  0  0  0  0  0  0  0  0  0  0  0
   10.1450   26.2500    8.4900 C   0  0  2  0  0  0  0  0  0  0  0  0
    9.3790   27.5770    8.6410 C   0  0  0  0  0  0  0  0  0  0  0  0
   11.3980   26.3470    9.0740 C   0  0  0  0  0  0  0  0  0  0  0  0
    9.3640   25.2830    9.2680 C   0  0  0  0  0  0  0  0  0  0  0  0
   11.8190   24.2820    4.3550 N   0  0  0  0  0  0  0  0  0  0  0  0
   11.7530   23.7760    2.9610 C   0  0  0  0  0  0  0  0  0  0  0  0
   10.4400   23.1820    2.4930 C   0  0  0  0  0  0  0  0  0  0  0  0
   13.0830   24.9630    4.5520 C   0  0  0  0  0  0  0  0  0  0  0  0
   14.2030   24.0640    5.0780 C   0  0  1  0  0  0  0  0  0  0  0  0
   15.2420   24.8840    4.6340 O   0  0  0  0  0  0  0  0  0  0  0  0
   14.4400   23.7610    6.5690 C   0  0  0  0  0  0  0  0  0  0  0  0
   15.5730   22.8210    7.0050 C   0  0  1  0  0  0  0  0  0  0  0  0
   15.6440   22.6640    8.5340 C   0  0  0  0  0  0  0  0  0  0  0  0
   16.7330   21.7500    8.9610 C   0  0  0  0  0  0  0  0  0  0  0  0
   18.0580   21.9160    8.5530 C   0  0  0  0  0  0  0  0  0  0  0  0
   19.0370   21.0160    8.9470 C   0  0  0  0  0  0  0  0  0  0  0  0
   18.6730   19.9390    9.7580 C   0  0  0  0  0  0  0  0  0  0  0  0
   17.3470   19.7730   10.1760 C   0  0  0  0  0  0  0  0  0  0  0  0
   16.3740   20.6870    9.7720 C   0  0  0  0  0  0  0  0  0  0  0  0
   15.4470   21.4400    6.3730 C   0  0  1  0  0  0  0  0  0  0  0  0
   14.3670   20.8310    6.3970 O   0  0  0  0  0  0  0  0  0  0  0  0
   16.5830   20.9130    5.9240 N   0  0  0  0  0  0  0  0  0  0  0  0
   16.6920   19.5000    5.6040 C   0  0  2  0  0  0  0  0  0  0  0  0
   18.0670   18.9450    5.9360 C   0  0  2  0  0  0  0  0  0  0  0  0
   19.0610   19.9380    5.7290 O   0  0  0  0  0  0  0  0  0  0  0  0
   18.2260   17.7260    5.0570 C   0  0  0  0  0  0  0  0  0  0  0  0
   17.4760   17.9040    3.7600 C   0  0  0  0  0  0  0  0  0  0  0  0
   17.5000   17.3630    2.4960 C   0  0  0  0  0  0  0  0  0  0  0  0
   16.6130   17.8720    1.5410 C   0  0  0  0  0  0  0  0  0  0  0  0
   15.7220   18.9060    1.8650 C   0  0  0  0  0  0  0  0  0  0  0  0
   15.6830   19.4790    3.1290 C   0  0  0  0  0  0  0  0  0  0  0  0
   16.5040   19.0610    4.1280 C   0  0  0  0  0  0  0  0  0  0  0  0
    8.0330   23.1000    2.6040 C   0  0  0  0  0  0  0  0  0  0  0  0
    6.6660   23.7390    2.8760 C   0  0  0  0  0  0  0  0  0  0  0  0
    6.1580   24.8080    2.1240 C   0  0  0  0  0  0  0  0  0  0  0  0
    4.9110   25.4300    2.3000 N   0  0  0  0  0  0  0  0  0  0  0  0
    4.2070   24.8390    3.3480 C   0  0  0  0  0  0  0  0  0  0  0  0
    4.6540   23.7740    4.1360 C   0  0  0  0  0  0  0  0  0  0  0  0
    5.9050   23.2110    3.8970 C   0  0  0  0  0  0  0  0  0  0  0  0
    8.5515   24.3751    4.8596 H   0  0  0  0  0  0  0  0  0  0  0  0
    9.8435   22.9959    4.7999 H   0  0  0  0  0  0  0  0  0  0  0  0
   10.4948   25.9676    4.6943 H   0  0  0  0  0  0  0  0  0  0  0  0
    9.5516   24.5040    6.4562 H   0  0  0  0  0  0  0  0  0  0  0  0
   10.8849   24.0019    8.0337 H   0  0  0  0  0  0  0  0  0  0  0  0
   10.7847   26.6986    6.7003 H   0  0  0  0  0  0  0  0  0  0  0  0
    9.2474   27.8049    9.7091 H   0  0  0  0  0  0  0  0  0  0  0  0
    9.9490   28.3861    8.1609 H   0  0  0  0  0  0  0  0  0  0  0  0
    8.3933   27.4881    8.1609 H   0  0  0  0  0  0  0  0  0  0  0  0
   11.2938   26.3389   10.1690 H   0  0  0  0  0  0  0  0  0  0  0  0
   12.0167   25.4941    8.7583 H   0  0  0  0  0  0  0  0  0  0  0  0
   11.8781   27.2850    8.7583 H   0  0  0  0  0  0  0  0  0  0  0  0
    9.5144   25.4693   10.3416 H   0  0  0  0  0  0  0  0  0  0  0  0
    8.2971   25.3915    9.0230 H   0  0  0  0  0  0  0  0  0  0  0  0
    9.6946   24.2629    9.0230 H   0  0  0  0  0  0  0  0  0  0  0  0
   11.9902   24.6176    2.2936 H   0  0  0  0  0  0  0  0  0  0  0  0
   12.4649   22.9379    2.9335 H   0  0  0  0  0  0  0  0  0  0  0  0
   10.4341   22.1188    2.7751 H   0  0  0  0  0  0  0  0  0  0  0  0
   10.4059   23.3656    1.4090 H   0  0  0  0  0  0  0  0  0  0  0  0
   13.4025   25.3837    3.5871 H   0  0  0  0  0  0  0  0  0  0  0  0
   12.9110   25.7347    5.3168 H   0  0  0  0  0  0  0  0  0  0  0  0
   14.0273   23.0277    4.7535 H   0  0  0  0  0  0  0  0  0  0  0  0
   15.7206   25.2617    5.4140 H   0  0  0  0  0  0  0  0  0  0  0  0
   14.6260   24.7272    7.0608 H   0  0  0  0  0  0  0  0  0  0  0  0
   13.5349   23.2046    6.8541 H   0  0  0  0  0  0  0  0  0  0  0  0
   16.5005   23.2952    6.6517 H   0  0  0  0  0  0  0  0  0  0  0  0
   15.8173   23.6533    8.9826 H   0  0  0  0  0  0  0  0  0  0  0  0
   14.6912   22.2291    8.8702 H   0  0  0  0  0  0  0  0  0  0  0  0
   16.5427   21.1136    8.0842 H   0  0  0  0  0  0  0  0  0  0  0  0
   18.0512   21.9117    7.4530 H   0  0  0  0  0  0  0  0  0  0  0  0
   18.3577   22.8438    9.0624 H   0  0  0  0  0  0  0  0  0  0  0  0
   19.4781   20.5964    8.0308 H   0  0  0  0  0  0  0  0  0  0  0  0
   19.7074   21.6132    9.5826 H   0  0  0  0  0  0  0  0  0  0  0  0
   18.9454   19.0260    9.2082 H   0  0  0  0  0  0  0  0  0  0  0  0
   19.2010   20.1524   10.6991 H   0  0  0  0  0  0  0  0  0  0  0  0
   17.0223   18.7839    9.8206 H   0  0  0  0  0  0  0  0  0  0  0  0
   17.4017   19.9226   11.2644 H   0  0  0  0  0  0  0  0  0  0  0  0
   15.9377   21.1152   10.6865 H   0  0  0  0  0  0  0  0  0  0  0  0
   15.7064   20.0891    9.1342 H   0  0  0  0  0  0  0  0  0  0  0  0
   15.7297   20.9764    7.3296 H   0  0  0  0  0  0  0  0  0  0  0  0
   14.0953   20.6778    7.3366 H   0  0  0  0  0  0  0  0  0  0  0  0
   16.8197   21.4249    5.0621 H   0  0  0  0  0  0  0  0  0  0  0  0
   15.8564   19.1176    6.2085 H   0  0  0  0  0  0  0  0  0  0  0  0
   18.1784   18.6572    6.9918 H   0  0  0  0  0  0  0  0  0  0  0  0
   19.3882   20.2649    6.6043 H   0  0  0  0  0  0  0  0  0  0  0  0
   19.2935   17.5743    4.8392 H   0  0  0  0  0  0  0  0  0  0  0  0
   17.8171   16.8523    5.5856 H   0  0  0  0  0  0  0  0  0  0  0  0
   18.2007   18.6697    3.4460 H   0  0  0  0  0  0  0  0  0  0  0  0
   18.5177   17.5007    2.1018 H   0  0  0  0  0  0  0  0  0  0  0  0
   17.1768   16.3214    2.6397 H   0  0  0  0  0  0  0  0  0  0  0  0
   17.2281   18.2385    0.7060 H   0  0  0  0  0  0  0  0  0  0  0  0
   15.9411   17.0211    1.3551 H   0  0  0  0  0  0  0  0  0  0  0  0
   15.9342   19.7256    1.1627 H   0  0  0  0  0  0  0  0  0  0  0  0
   14.7494   18.3945    1.8152 H   0  0  0  0  0  0  0  0  0  0  0  0
   15.8867   20.5509    2.9892 H   0  0  0  0  0  0  0  0  0  0  0  0
   14.6926   19.1711    3.4954 H   0  0  0  0  0  0  0  0  0  0  0  0
   17.2596   19.7959    3.8132 H   0  0  0  0  0  0  0  0  0  0  0  0
    8.0954   22.9508    1.5160 H   0  0  0  0  0  0  0  0  0  0  0  0
    8.0152   22.2141    3.2559 H   0  0  0  0  0  0  0  0  0  0  0  0
    7.1368   24.4509    3.5699 H   0  0  0  0  0  0  0  0  0  0  0  0
    6.8986   25.6138    2.2343 H   0  0  0  0  0  0  0  0  0  0  0  0
    5.9731   24.2912    1.1707 H   0  0  0  0  0  0  0  0  0  0  0  0
    5.0579   26.4272    2.5118 H   0  0  0  0  0  0  0  0  0  0  0  0
    4.0016   25.6559    4.0554 H   0  0  0  0  0  0  0  0  0  0  0  0
    3.4113   24.3340    2.7807 H   0  0  0  0  0  0  0  0  0  0  0  0
    4.6586   24.1288    5.1772 H   0  0  0  0  0  0  0  0  0  0  0  0
    3.9572   22.9612    3.8833 H   0  0  0  0  0  0  0  0  0  0  0  0
    5.7471   22.1462    3.6708 H   0  0  0  0  0  0  0  0  0  0  0  0
    6.4818   23.4238    4.8091 H   0  0  0  0  0  0  0  0  0  0  0  0
  1  2  1  0
  2  3  1  0
  3  4  1  0
  4  5  1  0
  4  6  1  0
  7  6  1  6
  7  8  1  0
  7  9  1  0
  7 10  1  0
  3 11  1  0
 11 12  1  0
  1 13  1  0
 12 13  1  0
 11 14  1  0
 14 15  1  0
 15 16  1  0
 15 17  1  0
 17 18  1  0
 18 19  1  0
 19 20  1  0
 20 21  1  0
 21 22  1  0
 22 23  1  0
 23 24  1  0
 20 25  1  0
 24 25  1  0
 18 26  1  0
 26 27  1  0
 26 28  1  0
 28 29  1  0
 29 30  1  0
 30 31  1  0
 30 32  1  0
 32 33  1  0
 33 34  1  0
 34 35  1  0
 35 36  1  0
 36 37  1  0
 29 38  1  0
 33 38  1  0
 37 38  1  0
  1 39  1  0
 39 40  1  0
 40 41  1  0
 41 42  1  0
 42 43  1  0
 43 44  1  0
 40 45  1  0
 44 45  1  0
  2 46  1  0
  2 47  1  0
  3 48  1  1
  4 49  1  0
  5 50  1  0
  6 51  1  0
  8 52  1  0
  8 53  1  0
  8 54  1  0
  9 55  1  0
  9 56  1  0
  9 57  1  0
 10 58  1  0
 10 59  1  0
 10 60  1  0
 12 61  1  0
 12 62  1  0
 13 63  1  0
 13 64  1  0
 14 65  1  0
 14 66  1  0
 15 67  1  6
 16 68  1  0
 17 69  1  0
 17 70  1  0
 18 71  1  6
 19 72  1  0
 19 73  1  0
 20 74  1  0
 21 75  1  0
 21 76  1  0
 22 77  1  0
 22 78  1  0
 23 79  1  0
 23 80  1  0
 24 81  1  0
 24 82  1  0
 25 83  1  0
 25 84  1  0
 26 85  1  6
 27 86  1  0
 28 87  1  0
 29 88  1  1
 30 89  1  1
 31 90  1  0
 32 91  1  0
 32 92  1  0
 33 93  1  0
 34 94  1  0
 34 95  1  0
 35 96  1  0
 35 97  1  0
 36 98  1  0
 36 99  1  0
 37100  1  0
 37101  1  0
 38102  1  0
 39103  1  0
 39104  1  0
 40105  1  0
 41106  1  0
 41107  1  0
 42108  1  0
 43109  1  0
 43110  1  0
 44111  1  0
 44112  1  0
 45113  1  0
 45114  1  0
M  END
>  <PDBID>  (1) 
1HSG

>  <PDB ID>  (1) 
1HSG

>  <Generic Name>  (1) 
Indinavir

>  <Brand Name>  (1) 
Crixivan

>  <DrugBank ID>  (1) 
DB00224

>  <ATC Codes>  (1) 
J05AE02

>  <Ligand ID>  (1) 
MK1

>  <Target Name>  (1) 
Pol polyprotein

>  <UniProt ID>  (1) 
Q72874

>  <PDB ID.1>  (1) 
1HSG

>  <Seq. Identity>  (1) 
99%

$$$$
