PDB_DB00188_80
     RDKit          3D

 53 54  0  0  0  0  0  0  0  0999 V2000
    9.0880 -138.3070   19.5410 N   0  0  0  0  0  0  0  0  0  0  0  0
    9.5640 -137.1530   19.0440 C   0  0  0  0  0  0  0  0  0  0  0  0
    8.9680 -135.9440   19.3890 C   0  0  0  0  0  0  0  0  0  0  0  0
    7.8830 -135.9270   20.2700 N   0  0  0  0  0  0  0  0  0  0  0  0
    7.3980 -137.1300   20.7910 C   0  0  0  0  0  0  0  0  0  0  0  0
    8.0020 -138.3230   20.4230 C   0  0  0  0  0  0  0  0  0  0  0  0
   10.6390 -137.1720   18.1590 C   0  0  0  0  0  0  0  0  0  0  0  0
   11.4060 -136.2140   18.0710 O   0  0  0  0  0  0  0  0  0  0  0  0
   10.7300 -138.2960   17.4280 N   0  0  0  0  0  0  0  0  0  0  0  0
   11.7570 -138.5000   16.4010 C   0  0  1  0  0  0  0  0  0  0  0  0
   12.4860 -139.7940   16.6920 C   0  0  0  0  0  0  0  0  0  0  0  0
   13.3350 -140.0960   15.6070 C   0  0  0  0  0  0  0  0  0  0  0  0
   14.4050 -139.2620   15.2790 C   0  0  0  0  0  0  0  0  0  0  0  0
   15.2440 -139.5740   14.2080 C   0  0  0  0  0  0  0  0  0  0  0  0
   15.0290 -140.7250   13.4590 C   0  0  0  0  0  0  0  0  0  0  0  0
   13.9710 -141.5640   13.7810 C   0  0  0  0  0  0  0  0  0  0  0  0
   13.1330 -141.2530   14.8490 C   0  0  0  0  0  0  0  0  0  0  0  0
   11.0230 -138.5340   15.0520 C   0  0  0  0  0  0  0  0  0  0  0  0
   10.1550 -139.3790   14.8220 O   0  0  0  0  0  0  0  0  0  0  0  0
   11.3940 -137.5660   14.1950 N   0  0  0  0  0  0  0  0  0  0  0  0
   10.8060 -137.4360   12.8500 C   0  0  1  0  0  0  0  0  0  0  0  0
   10.6780 -135.9720   12.4400 C   0  0  0  0  0  0  0  0  0  0  0  0
   10.0170 -135.1360   13.5730 C   0  0  0  0  0  0  0  0  0  0  0  0
    9.7720 -133.7070   13.0490 C   0  0  0  0  0  0  0  0  0  0  0  0
    8.6890 -135.7310   14.0750 C   0  0  0  0  0  0  0  0  0  0  0  0
   11.6830 -138.1850   11.8240 B   0  0  0  0  0  0  0  0  0  0  0  0
   11.7680 -139.5750   12.1570 O   0  0  0  0  0  0  0  0  0  0  0  0
   13.0030 -137.6220   11.8030 O   0  0  0  0  0  0  0  0  0  0  0  0
    9.3504 -135.0022   18.9687 H   0  0  0  0  0  0  0  0  0  0  0  0
    6.5455 -137.1305   21.4862 H   0  0  0  0  0  0  0  0  0  0  0  0
    7.6289 -139.2775   20.8227 H   0  0  0  0  0  0  0  0  0  0  0  0
   10.0473 -139.0486   17.5967 H   0  0  0  0  0  0  0  0  0  0  0  0
   12.5118 -137.7000   16.3855 H   0  0  0  0  0  0  0  0  0  0  0  0
   13.0840 -139.6825   17.6085 H   0  0  0  0  0  0  0  0  0  0  0  0
   11.7587 -140.6071   16.8327 H   0  0  0  0  0  0  0  0  0  0  0  0
   14.5885 -138.3519   15.8690 H   0  0  0  0  0  0  0  0  0  0  0  0
   16.0800 -138.9053   13.9553 H   0  0  0  0  0  0  0  0  0  0  0  0
   15.6929 -140.9694   12.6167 H   0  0  0  0  0  0  0  0  0  0  0  0
   13.7942 -142.4759   13.1917 H   0  0  0  0  0  0  0  0  0  0  0  0
   12.3007 -141.9271   15.0995 H   0  0  0  0  0  0  0  0  0  0  0  0
   12.1147 -136.8916   14.4893 H   0  0  0  0  0  0  0  0  0  0  0  0
    9.7983 -137.8765   12.8736 H   0  0  0  0  0  0  0  0  0  0  0  0
   11.6792 -135.5674   12.2307 H   0  0  0  0  0  0  0  0  0  0  0  0
   10.0449 -135.9116   11.5425 H   0  0  0  0  0  0  0  0  0  0  0  0
   10.7062 -135.1394   14.4303 H   0  0  0  0  0  0  0  0  0  0  0  0
    9.6542 -133.0197   13.8997 H   0  0  0  0  0  0  0  0  0  0  0  0
   10.6287 -133.3891   12.4367 H   0  0  0  0  0  0  0  0  0  0  0  0
    8.8583 -133.6926   12.4367 H   0  0  0  0  0  0  0  0  0  0  0  0
    8.6813 -135.7344   15.1750 H   0  0  0  0  0  0  0  0  0  0  0  0
    7.8511 -135.1222   13.7044 H   0  0  0  0  0  0  0  0  0  0  0  0
    8.5856 -136.7615   13.7044 H   0  0  0  0  0  0  0  0  0  0  0  0
   11.7743 -139.6787   13.1415 H   0  0  0  0  0  0  0  0  0  0  0  0
   13.3191 -137.4872   12.7315 H   0  0  0  0  0  0  0  0  0  0  0  0
  1  2  2  0
  2  3  1  0
  3  4  2  0
  4  5  1  0
  1  6  1  0
  5  6  2  0
  2  7  1  0
  7  8  2  0
  7  9  1  0
  9 10  1  0
 10 11  1  0
 11 12  1  0
 12 13  2  0
 13 14  1  0
 14 15  2  0
 15 16  1  0
 12 17  1  0
 16 17  2  0
 10 18  1  0
 18 19  2  0
 18 20  1  0
 20 21  1  0
 21 22  1  0
 22 23  1  0
 23 24  1  0
 23 25  1  0
 21 26  1  0
 26 27  1  0
 26 28  1  0
  3 29  1  0
  5 30  1  0
  6 31  1  0
  9 32  1  0
 10 33  1  6
 11 34  1  0
 11 35  1  0
 13 36  1  0
 14 37  1  0
 15 38  1  0
 16 39  1  0
 17 40  1  0
 20 41  1  0
 21 42  1  1
 22 43  1  0
 22 44  1  0
 23 45  1  0
 24 46  1  0
 24 47  1  0
 24 48  1  0
 25 49  1  0
 25 50  1  0
 25 51  1  0
 27 52  1  0
 28 53  1  0
M  END
$$$$
