PDB_DB08912_97
     RDKit          3D

 55 58  0  0  0  0  0  0  0  0999 V2000
  -54.1340  -33.9500  109.9220 C   0  0  0  0  0  0  0  0  0  0  0  0
  -52.4000  -33.1870  108.5520 C   0  0  0  0  0  0  0  0  0  0  0  0
  -53.6420  -33.6930  108.7110 N   0  0  0  0  0  0  0  0  0  0  0  0
  -51.6580  -32.8690  109.7050 C   0  0  0  0  0  0  0  0  0  0  0  0
  -53.4160  -33.6990  111.0080 N   0  0  0  0  0  0  0  0  0  0  0  0
  -52.1960  -33.1800  110.9390 C   0  0  0  0  0  0  0  0  0  0  0  0
  -55.3980  -34.4990  110.0700 N   0  0  0  0  0  0  0  0  0  0  0  0
  -51.9370  -32.8360  107.1880 C   0  0  0  0  0  0  0  0  0  0  0  0
  -53.0380  -32.8560  105.8110 S   0  0  0  0  0  0  0  0  0  0  0  0
  -51.8390  -32.2520  104.7590 C   0  0  0  0  0  0  0  0  0  0  0  0
  -50.7460  -32.0930  105.4170 N   0  0  0  0  0  0  0  0  0  0  0  0
  -50.7220  -32.3590  106.7110 C   0  0  0  0  0  0  0  0  0  0  0  0
  -52.0110  -31.9860  103.2750 C   0  0  0  0  0  0  0  0  0  0  0  0
  -53.4460  -31.5420  102.9590 C   0  0  0  0  0  0  0  0  0  0  0  0
  -51.0760  -30.8650  102.8160 C   0  0  0  0  0  0  0  0  0  0  0  0
  -51.6550  -33.2570  102.4970 C   0  0  0  0  0  0  0  0  0  0  0  0
  -49.4260  -32.1550  107.4030 C   0  0  0  0  0  0  0  0  0  0  0  0
  -47.4960  -30.7040  107.7000 C   0  0  0  0  0  0  0  0  0  0  0  0
  -48.7780  -30.9290  107.2140 C   0  0  0  0  0  0  0  0  0  0  0  0
  -46.8370  -31.7390  108.3690 C   0  0  0  0  0  0  0  0  0  0  0  0
  -48.7250  -33.2080  108.0080 C   0  0  0  0  0  0  0  0  0  0  0  0
  -47.4520  -32.9800  108.5110 C   0  0  0  0  0  0  0  0  0  0  0  0
  -49.4130  -29.9390  106.5600 F   0  0  0  0  0  0  0  0  0  0  0  0
  -46.9820  -29.4130  107.5380 N   0  0  0  0  0  0  0  0  0  0  0  0
  -45.4030  -28.9740  107.7190 S   0  0  0  0  0  0  0  0  0  0  0  0
  -45.1060  -28.9330  109.4710 C   0  0  0  0  0  0  0  0  0  0  0  0
  -45.5130  -27.9010  111.6280 C   0  0  0  0  0  0  0  0  0  0  0  0
  -45.7360  -27.9590  110.2590 C   0  0  0  0  0  0  0  0  0  0  0  0
  -44.6770  -28.8170  112.2410 C   0  0  0  0  0  0  0  0  0  0  0  0
  -44.2520  -29.8530  110.1030 C   0  0  0  0  0  0  0  0  0  0  0  0
  -44.0270  -29.7700  111.4760 C   0  0  0  0  0  0  0  0  0  0  0  0
  -43.6090  -30.8250  109.4150 F   0  0  0  0  0  0  0  0  0  0  0  0
  -46.5710  -27.0480  109.7230 F   0  0  0  0  0  0  0  0  0  0  0  0
  -44.6210  -29.9980  107.1310 O   0  0  0  0  0  0  0  0  0  0  0  0
  -45.2700  -27.6380  107.2550 O   0  0  0  0  0  0  0  0  0  0  0  0
  -50.6736  -32.3846  109.6256 H   0  0  0  0  0  0  0  0  0  0  0  0
  -51.6179  -32.9990  111.8572 H   0  0  0  0  0  0  0  0  0  0  0  0
  -55.7680  -34.6934  111.0114 H   0  0  0  0  0  0  0  0  0  0  0  0
  -55.9673  -34.7125  109.2386 H   0  0  0  0  0  0  0  0  0  0  0  0
  -53.9927  -31.3728  103.8984 H   0  0  0  0  0  0  0  0  0  0  0  0
  -53.4213  -30.6095  102.3761 H   0  0  0  0  0  0  0  0  0  0  0  0
  -53.9523  -32.3255  102.3761 H   0  0  0  0  0  0  0  0  0  0  0  0
  -50.6527  -30.3575  103.6954 H   0  0  0  0  0  0  0  0  0  0  0  0
  -50.2619  -31.2911  102.2113 H   0  0  0  0  0  0  0  0  0  0  0  0
  -51.6413  -30.1406  102.2113 H   0  0  0  0  0  0  0  0  0  0  0  0
  -51.4278  -34.0683  103.2043 H   0  0  0  0  0  0  0  0  0  0  0  0
  -52.5057  -33.5499  101.8641 H   0  0  0  0  0  0  0  0  0  0  0  0
  -50.7760  -33.0654  101.8641 H   0  0  0  0  0  0  0  0  0  0  0  0
  -45.8317  -31.5731  108.7837 H   0  0  0  0  0  0  0  0  0  0  0  0
  -49.1804  -34.2065  108.0832 H   0  0  0  0  0  0  0  0  0  0  0  0
  -46.9209  -33.7918  109.0296 H   0  0  0  0  0  0  0  0  0  0  0  0
  -47.6492  -28.6708  107.2830 H   0  0  0  0  0  0  0  0  0  0  0  0
  -46.0042  -27.1217  112.2292 H   0  0  0  0  0  0  0  0  0  0  0  0
  -44.5296  -28.7882  113.3307 H   0  0  0  0  0  0  0  0  0  0  0  0
  -43.3261  -30.4686  111.9563 H   0  0  0  0  0  0  0  0  0  0  0  0
  1  3  2  0
  2  3  1  0
  2  4  2  0
  1  5  1  0
  4  6  1  0
  5  6  2  0
  1  7  1  0
  2  8  1  0
  8  9  1  0
  9 10  1  0
 10 11  2  0
  8 12  2  0
 11 12  1  0
 10 13  1  0
 13 14  1  0
 13 15  1  0
 13 16  1  0
 12 17  1  0
 17 19  2  0
 18 19  1  0
 18 20  2  0
 17 21  1  0
 20 22  1  0
 21 22  2  0
 19 23  1  0
 18 24  1  0
 24 25  1  0
 25 26  1  0
 26 28  1  0
 27 28  2  0
 27 29  1  0
 26 30  2  0
 29 31  2  0
 30 31  1  0
 30 32  1  0
 28 33  1  0
 25 34  2  0
 25 35  2  0
  4 36  1  0
  6 37  1  0
  7 38  1  0
  7 39  1  0
 14 40  1  0
 14 41  1  0
 14 42  1  0
 15 43  1  0
 15 44  1  0
 15 45  1  0
 16 46  1  0
 16 47  1  0
 16 48  1  0
 20 49  1  0
 21 50  1  0
 22 51  1  0
 24 52  1  0
 27 53  1  0
 29 54  1  0
 31 55  1  0
M  END
$$$$
