PDB_DB00696_99
     RDKit          3D

100107  0  0  0  0  0  0  0  0999 V2000
   23.4430   14.5270    4.8220 C   0  0  0  0  0  0  0  0  0  0  0  0
   24.1980   13.5560    5.3870 N   0  0  0  0  0  0  0  0  0  0  0  0
   21.8250   18.7750   11.4050 O   0  0  0  0  0  0  0  0  0  0  0  0
   23.8210   14.6730    9.3470 C   0  0  0  0  0  0  0  0  0  0  0  0
   24.6330   13.5310    9.1340 C   0  0  0  0  0  0  0  0  0  0  0  0
   24.8450   13.0500    7.8010 C   0  0  0  0  0  0  0  0  0  0  0  0
   24.2480   13.7120    6.7790 C   0  0  0  0  0  0  0  0  0  0  0  0
   23.4330   14.8330    6.9980 C   0  0  0  0  0  0  0  0  0  0  0  0
   21.4800   19.6560    6.2140 C   0  0  0  0  0  0  0  0  0  0  0  0
   20.7140   18.6210   10.9290 C   0  0  0  0  0  0  0  0  0  0  0  0
   19.4820   19.6170   12.8910 C   0  0  2  0  0  0  0  0  0  0  0  0
   20.3160   18.9350   13.9560 C   0  0  0  0  0  0  0  0  0  0  0  0
   22.3460   19.5190   15.2120 C   0  0  2  0  0  0  0  0  0  0  0  0
   21.2000   18.5050    7.1190 N   0  0  0  0  0  0  0  0  0  0  0  0
   22.9410   15.3530    5.7820 C   0  0  0  0  0  0  0  0  0  0  0  0
   20.0680   20.9210   12.8100 O   0  0  0  0  0  0  0  0  0  0  0  0
   22.7470   20.8250   15.9230 C   0  0  0  0  0  0  0  0  0  0  0  0
   22.5110   23.3140   16.1100 C   0  0  0  0  0  0  0  0  0  0  0  0
   21.8070   24.3510   15.2640 C   0  0  0  0  0  0  0  0  0  0  0  0
   21.4840   23.6320   13.9300 C   0  0  0  0  0  0  0  0  0  0  0  0
   21.2540   22.2260   14.5010 C   0  0  1  0  0  0  0  0  0  0  0  0
   21.3020   21.0630   13.5190 C   0  0  1  0  0  0  0  0  0  0  0  0
   17.9970   19.6230   13.2450 C   0  0  0  0  0  0  0  0  0  0  0  0
   23.5150   18.8040   14.5660 C   0  0  0  0  0  0  0  0  0  0  0  0
   24.4250   18.0710   15.5380 C   0  0  1  0  0  0  0  0  0  0  0  0
   23.9380   17.0270   16.3450 C   0  0  0  0  0  0  0  0  0  0  0  0
   22.0270   16.5450    5.7770 C   0  0  0  0  0  0  0  0  0  0  0  0
   19.5660   18.9690   11.5690 N   0  0  0  0  0  0  0  0  0  0  0  0
   20.1250   17.8340   14.4230 O   0  0  0  0  0  0  0  0  0  0  0  0
   24.7870   16.3530   17.2390 C   0  0  0  0  0  0  0  0  0  0  0  0
   26.1470   16.7030   17.3050 C   0  0  0  0  0  0  0  0  0  0  0  0
   26.6490   17.7240   16.4830 C   0  0  0  0  0  0  0  0  0  0  0  0
   25.7910   18.4000   15.5950 C   0  0  0  0  0  0  0  0  0  0  0  0
   22.2570   17.4190    7.0630 C   0  0  2  0  0  0  0  0  0  0  0  0
   21.3100   19.7900   14.2370 N   0  0  0  0  0  0  0  0  0  0  0  0
   23.5680   20.7880   16.8550 O   0  0  0  0  0  0  0  0  0  0  0  0
   20.9100   19.0870    8.4770 C   0  0  0  0  0  0  0  0  0  0  0  0
   22.2250   21.9940   15.5540 N   0  0  0  0  0  0  0  0  0  0  0  0
   22.3780   21.1540   12.6350 O   0  0  0  0  0  0  0  0  0  0  0  0
   20.5960   18.0110    9.5000 C   0  0  1  0  0  0  0  0  0  0  0  0
   21.4320   16.7610    9.3390 C   0  0  0  0  0  0  0  0  0  0  0  0
   22.3070   16.5890    8.3510 C   0  0  1  0  0  0  0  0  0  0  0  0
   23.2060   15.3630    8.2940 C   0  0  0  0  0  0  0  0  0  0  0  0
   24.0642   15.1123    4.1280 H   0  0  0  0  0  0  0  0  0  0  0  0
   22.6082   14.0609    4.2781 H   0  0  0  0  0  0  0  0  0  0  0  0
   23.7887   12.6374    5.1645 H   0  0  0  0  0  0  0  0  0  0  0  0
   21.7647   18.7666   12.3931 H   0  0  0  0  0  0  0  0  0  0  0  0
   23.0102   14.3514   10.0172 H   0  0  0  0  0  0  0  0  0  0  0  0
   24.5554   15.4104    9.7032 H   0  0  0  0  0  0  0  0  0  0  0  0
   25.6242   13.7619    9.5514 H   0  0  0  0  0  0  0  0  0  0  0  0
   24.0647   12.7195    9.6121 H   0  0  0  0  0  0  0  0  0  0  0  0
   25.9289   13.0716    7.6148 H   0  0  0  0  0  0  0  0  0  0  0  0
   24.3764   12.0548    7.7922 H   0  0  0  0  0  0  0  0  0  0  0  0
   23.3599   13.0712    6.8827 H   0  0  0  0  0  0  0  0  0  0  0  0
   24.3135   15.4880    6.9219 H   0  0  0  0  0  0  0  0  0  0  0  0
   21.6977   20.5509    6.8155 H   0  0  0  0  0  0  0  0  0  0  0  0
   22.3472   19.4209    5.5793 H   0  0  0  0  0  0  0  0  0  0  0  0
   20.6018   19.8455    5.5793 H   0  0  0  0  0  0  0  0  0  0  0  0
   20.6605   17.6183   11.3782 H   0  0  0  0  0  0  0  0  0  0  0  0
   19.6797   19.3767   14.7371 H   0  0  0  0  0  0  0  0  0  0  0  0
   21.9624   18.8368   15.9849 H   0  0  0  0  0  0  0  0  0  0  0  0
   22.0511   14.7122    5.8680 H   0  0  0  0  0  0  0  0  0  0  0  0
   21.9254   20.6863   16.6412 H   0  0  0  0  0  0  0  0  0  0  0  0
   23.5957   23.4964   16.0950 H   0  0  0  0  0  0  0  0  0  0  0  0
   22.1570   23.3709   17.1499 H   0  0  0  0  0  0  0  0  0  0  0  0
   20.8820   24.6871   15.7554 H   0  0  0  0  0  0  0  0  0  0  0  0
   22.4265   25.2468   15.1099 H   0  0  0  0  0  0  0  0  0  0  0  0
   20.5842   24.0377   13.4444 H   0  0  0  0  0  0  0  0  0  0  0  0
   22.2434   23.7152   13.1385 H   0  0  0  0  0  0  0  0  0  0  0  0
   20.2133   22.2352   14.8572 H   0  0  0  0  0  0  0  0  0  0  0  0
   17.8808   19.6235   14.3388 H   0  0  0  0  0  0  0  0  0  0  0  0
   17.5237   20.5231   12.8256 H   0  0  0  0  0  0  0  0  0  0  0  0
   17.5165   18.7268   12.8256 H   0  0  0  0  0  0  0  0  0  0  0  0
   23.1153   18.0702   13.8506 H   0  0  0  0  0  0  0  0  0  0  0  0
   24.1303   19.5812   14.0892 H   0  0  0  0  0  0  0  0  0  0  0  0
   24.1705   18.7973   16.3240 H   0  0  0  0  0  0  0  0  0  0  0  0
   23.1211   17.4510   16.9474 H   0  0  0  0  0  0  0  0  0  0  0  0
   23.6879   16.2471   15.6107 H   0  0  0  0  0  0  0  0  0  0  0  0
   22.2309   17.1540    4.8839 H   0  0  0  0  0  0  0  0  0  0  0  0
   20.9844   16.1944    5.7663 H   0  0  0  0  0  0  0  0  0  0  0  0
   19.0770   19.6050   10.9231 H   0  0  0  0  0  0  0  0  0  0  0  0
   20.1345   17.8886   15.4114 H   0  0  0  0  0  0  0  0  0  0  0  0
   24.3705   16.4994   18.2465 H   0  0  0  0  0  0  0  0  0  0  0  0
   24.8055   15.3245   16.8492 H   0  0  0  0  0  0  0  0  0  0  0  0
   26.3475   17.0041   18.3438 H   0  0  0  0  0  0  0  0  0  0  0  0
   26.6583   15.8033   16.9320 H   0  0  0  0  0  0  0  0  0  0  0  0
   27.0794   18.4856   17.1499 H   0  0  0  0  0  0  0  0  0  0  0  0
   27.3383   17.1912   15.8114 H   0  0  0  0  0  0  0  0  0  0  0  0
   26.1959   18.2439   14.5842 H   0  0  0  0  0  0  0  0  0  0  0  0
   25.7836   19.4269   15.9892 H   0  0  0  0  0  0  0  0  0  0  0  0
   23.2502   17.8862    6.9908 H   0  0  0  0  0  0  0  0  0  0  0  0
   23.0867   20.8097   17.7198 H   0  0  0  0  0  0  0  0  0  0  0  0
   21.7897   19.6538    8.8160 H   0  0  0  0  0  0  0  0  0  0  0  0
   20.0283   19.7385    8.3868 H   0  0  0  0  0  0  0  0  0  0  0  0
   23.2216   21.2253   13.1482 H   0  0  0  0  0  0  0  0  0  0  0  0
   19.5632   17.6722    9.3312 H   0  0  0  0  0  0  0  0  0  0  0  0
   22.0066   16.6604   10.2716 H   0  0  0  0  0  0  0  0  0  0  0  0
   20.6633   16.0183    9.0792 H   0  0  0  0  0  0  0  0  0  0  0  0
   22.8132   17.2795    9.0416 H   0  0  0  0  0  0  0  0  0  0  0  0
   24.0975   15.9990    8.1901 H   0  0  0  0  0  0  0  0  0  0  0  0
  1  2  1  0
  4  5  1  0
  5  6  1  0
  2  7  1  0
  6  7  1  0
  7  8  1  0
  3 10  1  0
 11 12  1  0
  9 14  1  0
  1 15  1  0
  8 15  1  0
 11 16  1  0
 13 17  1  0
 18 19  1  0
 19 20  1  0
 20 21  1  0
 16 22  1  0
 21 22  1  0
 11 23  1  0
 13 24  1  0
 24 25  1  0
 25 26  1  0
 15 27  1  0
 10 28  1  0
 11 28  1  6
 12 29  1  0
 26 30  1  0
 30 31  1  0
 31 32  1  0
 25 33  1  0
 32 33  1  0
 14 34  1  0
 27 34  1  0
 12 35  1  0
 13 35  1  0
 22 35  1  0
 17 36  1  0
 14 37  1  0
 17 38  1  0
 18 38  1  0
 21 38  1  0
 22 39  1  6
 10 40  1  0
 37 40  1  0
 40 41  1  0
 34 42  1  0
 41 42  1  0
  4 43  1  0
  8 43  1  0
 42 43  1  0
  1 44  1  0
  1 45  1  0
  2 46  1  0
  3 47  1  0
  4 48  1  0
  4 49  1  0
  5 50  1  0
  5 51  1  0
  6 52  1  0
  6 53  1  0
  7 54  1  0
  8 55  1  0
  9 56  1  0
  9 57  1  0
  9 58  1  0
 10 59  1  0
 12 60  1  0
 13 61  1  1
 15 62  1  0
 17 63  1  0
 18 64  1  0
 18 65  1  0
 19 66  1  0
 19 67  1  0
 20 68  1  0
 20 69  1  0
 21 70  1  1
 23 71  1  0
 23 72  1  0
 23 73  1  0
 24 74  1  0
 24 75  1  0
 25 76  1  1
 26 77  1  0
 26 78  1  0
 27 79  1  0
 27 80  1  0
 28 81  1  0
 29 82  1  0
 30 83  1  0
 30 84  1  0
 31 85  1  0
 31 86  1  0
 32 87  1  0
 32 88  1  0
 33 89  1  0
 33 90  1  0
 34 91  1  6
 36 92  1  0
 37 93  1  0
 37 94  1  0
 39 95  1  0
 40 96  1  6
 41 97  1  0
 41 98  1  0
 42 99  1  1
 43100  1  0
M  END
>  <PDBID>  (1) 
4IB4

>  <PDB ID>  (1) 
4IB4

>  <Generic Name>  (1) 
Ergotamine

>  <Brand Name>  (1) 
Cafergot#Cafergot Sup#Cafergot Tab#Ergodryl Cap#Ergomar#Ergomar Slt 2mg#Ergomar Sublingual#Ergotamine#Ergotamine Tartrate and Caffeine#Gravergol Capsules#Megral Tabs#Migergot#Anervan#Antimigraine#Enxak#Ergam#Ergo-Kranit#Gynaemine#Wigrettes

>  <DrugBank ID>  (1) 
DB00696

>  <ATC Codes>  (1) 
N02CA52#N02CA72#N02CA02

>  <Ligand ID>  (1) 
ERM

>  <Target Name>  (1) 
5-hydroxytryptamine receptor 2A

>  <UniProt ID>  (1) 
P28223

>  <PDB ID.1>  (1) 
4IB4

>  <Seq. Identity>  (1) 
58%

$$$$
