PDB_DB00140_98
     RDKit          3D

 47 49  0  0  0  0  0  0  0  0999 V2000
   35.9520   -5.0630   26.0370 N   0  0  0  0  0  0  0  0  0  0  0  0
   35.3780   -5.5930   27.1110 C   0  0  0  0  0  0  0  0  0  0  0  0
   35.3590   -5.0160   28.1830 O   0  0  0  0  0  0  0  0  0  0  0  0
   34.7440   -6.8890   27.0430 N   0  0  0  0  0  0  0  0  0  0  0  0
   34.6950   -7.6440   25.8750 C   0  0  0  0  0  0  0  0  0  0  0  0
   34.1700   -8.6750   25.8980 O   0  0  0  0  0  0  0  0  0  0  0  0
   35.3150   -7.0810   24.6700 C   0  0  0  0  0  0  0  0  0  0  0  0
   35.2970   -7.7740   23.4890 N   0  0  0  0  0  0  0  0  0  0  0  0
   35.8860   -7.2120   22.3930 C   0  0  0  0  0  0  0  0  0  0  0  0
   35.8410   -7.9760   21.1670 C   0  0  0  0  0  0  0  0  0  0  0  0
   36.4160   -7.4910   19.9900 C   0  0  0  0  0  0  0  0  0  0  0  0
   36.3420   -8.3220   18.7410 C   0  0  0  0  0  0  0  0  0  0  0  0
   37.0940   -6.1720   19.9860 C   0  0  0  0  0  0  0  0  0  0  0  0
   37.7370   -5.5930   18.7510 C   0  0  0  0  0  0  0  0  0  0  0  0
   37.1540   -5.3970   21.1900 C   0  0  0  0  0  0  0  0  0  0  0  0
   36.5630   -5.8830   22.4070 C   0  0  0  0  0  0  0  0  0  0  0  0
   36.5600   -5.1700   23.7100 N   0  0  0  0  0  0  0  0  0  0  0  0
   35.9550   -5.7460   24.8110 C   0  0  0  0  0  0  0  0  0  0  0  0
   37.2210   -3.7810   23.9660 C   0  0  0  0  0  0  0  0  0  0  0  0
   37.0070   -2.4960   23.0920 C   0  0  2  0  0  0  0  0  0  0  0  0
   37.7200   -2.7310   21.9040 O   0  0  0  0  0  0  0  0  0  0  0  0
   37.6210   -1.1990   23.7660 C   0  0  2  0  0  0  0  0  0  0  0  0
   39.0220   -1.3960   24.0280 O   0  0  0  0  0  0  0  0  0  0  0  0
   36.8900   -0.8200   25.1170 C   0  0  2  0  0  0  0  0  0  0  0  0
   35.4580   -0.6020   24.8910 O   0  0  0  0  0  0  0  0  0  0  0  0
   37.5300    0.4620   25.7140 C   0  0  0  0  0  0  0  0  0  0  0  0
   36.7670    0.8360   27.1010 O   0  0  0  0  0  0  0  0  0  0  0  0
   34.3096   -7.2707   27.8954 H   0  0  0  0  0  0  0  0  0  0  0  0
   35.3447   -8.9577   21.1606 H   0  0  0  0  0  0  0  0  0  0  0  0
   36.2474   -9.3839   19.0122 H   0  0  0  0  0  0  0  0  0  0  0  0
   35.4676   -8.0157   18.1481 H   0  0  0  0  0  0  0  0  0  0  0  0
   37.2568   -8.1750   18.1481 H   0  0  0  0  0  0  0  0  0  0  0  0
   38.5245   -4.8839   19.0458 H   0  0  0  0  0  0  0  0  0  0  0  0
   38.1788   -6.4038   18.1532 H   0  0  0  0  0  0  0  0  0  0  0  0
   36.9768   -5.0690   18.1532 H   0  0  0  0  0  0  0  0  0  0  0  0
   37.6580   -4.4193   21.1828 H   0  0  0  0  0  0  0  0  0  0  0  0
   36.9138   -3.4956   24.9830 H   0  0  0  0  0  0  0  0  0  0  0  0
   38.2657   -4.0147   23.7132 H   0  0  0  0  0  0  0  0  0  0  0  0
   35.9306   -2.3203   22.9491 H   0  0  0  0  0  0  0  0  0  0  0  0
   38.6368   -3.0332   22.1237 H   0  0  0  0  0  0  0  0  0  0  0  0
   37.4768   -0.3697   23.0579 H   0  0  0  0  0  0  0  0  0  0  0  0
   39.1750   -1.4175   25.0059 H   0  0  0  0  0  0  0  0  0  0  0  0
   37.0063   -1.6542   25.8245 H   0  0  0  0  0  0  0  0  0  0  0  0
   34.9934   -0.5313   25.7624 H   0  0  0  0  0  0  0  0  0  0  0  0
   38.5963    0.2825   25.9161 H   0  0  0  0  0  0  0  0  0  0  0  0
   37.4337    1.2934   25.0002 H   0  0  0  0  0  0  0  0  0  0  0  0
   37.3269    0.5616   27.8700 H   0  0  0  0  0  0  0  0  0  0  0  0
  1  2  1  0
  2  3  2  0
  2  4  1  0
  4  5  1  0
  5  6  2  0
  5  7  1  0
  7  8  2  0
  8  9  1  0
  9 10  2  0
 10 11  1  0
 11 12  1  0
 11 13  2  0
 13 14  1  0
 13 15  1  0
  9 16  1  0
 15 16  2  0
 16 17  1  0
  1 18  2  0
  7 18  1  0
 17 18  1  0
 17 19  1  0
 19 20  1  0
 20 21  1  0
 20 22  1  0
 22 23  1  0
 22 24  1  0
 24 25  1  0
 24 26  1  0
 26 27  1  0
  4 28  1  0
 10 29  1  0
 12 30  1  0
 12 31  1  0
 12 32  1  0
 14 33  1  0
 14 34  1  0
 14 35  1  0
 15 36  1  0
 19 37  1  0
 19 38  1  0
 20 39  1  6
 21 40  1  0
 22 41  1  6
 23 42  1  0
 24 43  1  1
 25 44  1  0
 26 45  1  0
 26 46  1  0
 27 47  1  0
M  END
$$$$
