PDB_DB00382_97
     RDKit          3D

 29 31  0  0  0  0  0  0  0  0999 V2000
   11.8910    0.5520   79.1200 C   0  0  0  0  0  0  0  0  0  0  0  0
   12.4310   -0.7170   79.4380 C   0  0  0  0  0  0  0  0  0  0  0  0
   13.6470   -0.8160   80.1630 C   0  0  0  0  0  0  0  0  0  0  0  0
   14.3550    0.4160   80.5930 C   0  0  0  0  0  0  0  0  0  0  0  0
   13.7630    1.6810   80.2450 C   0  0  0  0  0  0  0  0  0  0  0  0
   12.5480    1.7400   79.5180 C   0  0  0  0  0  0  0  0  0  0  0  0
   14.1370   -2.0250   80.4490 N   0  0  0  0  0  0  0  0  0  0  0  0
   15.2730   -2.2150   81.1260 C   0  0  0  0  0  0  0  0  0  0  0  0
   16.0650   -1.0940   81.6080 C   0  0  0  0  0  0  0  0  0  0  0  0
   15.5890    0.2450   81.3320 C   0  0  0  0  0  0  0  0  0  0  0  0
   15.7140   -3.6970   81.3770 C   0  0  0  0  0  0  0  0  0  0  0  0
   16.8610   -3.9050   82.4230 C   0  0  0  0  0  0  0  0  0  0  0  0
   17.9790   -2.8480   82.2340 C   0  0  0  0  0  0  0  0  0  0  0  0
   17.3970   -1.4130   82.4030 C   0  0  0  0  0  0  0  0  0  0  0  0
   16.3050    1.3100   81.7660 N   0  0  0  0  0  0  0  0  0  0  0  0
   11.8081    0.5917   78.0238 H   0  0  0  0  0  0  0  0  0  0  0  0
   10.9633    0.5770   79.7105 H   0  0  0  0  0  0  0  0  0  0  0  0
   11.6678   -1.2469   80.0268 H   0  0  0  0  0  0  0  0  0  0  0  0
   12.6930   -1.1308   78.4531 H   0  0  0  0  0  0  0  0  0  0  0  0
   13.5888    2.2160   81.1902 H   0  0  0  0  0  0  0  0  0  0  0  0
   14.4909    2.1035   79.5368 H   0  0  0  0  0  0  0  0  0  0  0  0
   12.7578    2.3071   78.5991 H   0  0  0  0  0  0  0  0  0  0  0  0
   11.8470    2.1793   80.2430 H   0  0  0  0  0  0  0  0  0  0  0  0
   15.2459   -4.5414   80.8499 H   0  0  0  0  0  0  0  0  0  0  0  0
   16.8718   -4.6948   83.1886 H   0  0  0  0  0  0  0  0  0  0  0  0
   19.0316   -3.0781   82.0125 H   0  0  0  0  0  0  0  0  0  0  0  0
   17.8852   -0.6613   83.0406 H   0  0  0  0  0  0  0  0  0  0  0  0
   17.1797    1.1636   82.2897 H   0  0  0  0  0  0  0  0  0  0  0  0
   15.9746    2.2662   81.5722 H   0  0  0  0  0  0  0  0  0  0  0  0
  1  2  1  0
  2  3  1  0
  3  4  2  0
  4  5  1  0
  1  6  1  0
  5  6  1  0
  3  7  1  0
  7  8  2  0
  8  9  1  0
  4 10  1  0
  9 10  2  0
  8 11  1  0
 11 12  2  0
 12 13  1  0
  9 14  1  0
 13 14  2  0
 10 15  1  0
  1 16  1  0
  1 17  1  0
  2 18  1  0
  2 19  1  0
  5 20  1  0
  5 21  1  0
  6 22  1  0
  6 23  1  0
 11 24  1  0
 12 25  1  0
 13 26  1  0
 14 27  1  0
 15 28  1  0
 15 29  1  0
M  END
$$$$
