PDB_DB04743_98
     RDKit          3D

 33 34  0  0  0  0  0  0  0  0999 V2000
  -33.2420  -43.2930   51.3600 O   0  0  0  0  0  0  0  0  0  0  0  0
  -32.3850  -42.3740   50.7100 N   0  0  0  0  0  0  0  0  0  0  0  0
  -31.7570  -41.4230   51.5140 O   0  0  0  0  0  0  0  0  0  0  0  0
  -32.2000  -42.3830   49.3900 C   0  0  0  0  0  0  0  0  0  0  0  0
  -31.3770  -41.4270   48.7840 C   0  0  0  0  0  0  0  0  0  0  0  0
  -31.1830  -41.4280   47.4030 C   0  0  0  0  0  0  0  0  0  0  0  0
  -31.8390  -42.3900   46.6310 C   0  0  0  0  0  0  0  0  0  0  0  0
  -31.7190  -42.4700   45.3150 N   0  0  0  0  0  0  0  0  0  0  0  0
  -31.0850  -41.2960   44.4390 S   0  0  0  0  0  0  0  0  0  0  0  0
  -29.6430  -41.2440   44.8310 O   0  0  0  0  0  0  0  0  0  0  0  0
  -31.1930  -41.7030   42.9960 O   0  0  0  0  0  0  0  0  0  0  0  0
  -31.9450  -39.7430   44.6290 C   0  0  0  0  0  0  0  0  0  0  0  0
  -32.8430  -43.3450   48.6080 C   0  0  0  0  0  0  0  0  0  0  0  0
  -32.6490  -43.3580   47.2260 C   0  0  0  0  0  0  0  0  0  0  0  0
  -33.2500  -44.2750   46.3980 O   0  0  0  0  0  0  0  0  0  0  0  0
  -33.0220  -45.6010   46.5980 C   0  0  0  0  0  0  0  0  0  0  0  0
  -33.9820  -46.4970   46.1410 C   0  0  0  0  0  0  0  0  0  0  0  0
  -33.7930  -47.8620   46.3270 C   0  0  0  0  0  0  0  0  0  0  0  0
  -32.6360  -48.3280   46.9580 C   0  0  0  0  0  0  0  0  0  0  0  0
  -31.6660  -47.4310   47.4110 C   0  0  0  0  0  0  0  0  0  0  0  0
  -31.8650  -46.0670   47.2200 C   0  0  0  0  0  0  0  0  0  0  0  0
  -30.8781  -40.6670   49.4033 H   0  0  0  0  0  0  0  0  0  0  0  0
  -30.5249  -40.6843   46.9298 H   0  0  0  0  0  0  0  0  0  0  0  0
  -32.0472  -43.3221   44.8384 H   0  0  0  0  0  0  0  0  0  0  0  0
  -32.0682  -39.5206   45.6992 H   0  0  0  0  0  0  0  0  0  0  0  0
  -31.3626  -38.9407   44.1524 H   0  0  0  0  0  0  0  0  0  0  0  0
  -32.9341  -39.8109   44.1524 H   0  0  0  0  0  0  0  0  0  0  0  0
  -33.5003  -44.0902   49.0799 H   0  0  0  0  0  0  0  0  0  0  0  0
  -34.8863  -46.1280   45.6350 H   0  0  0  0  0  0  0  0  0  0  0  0
  -34.5541  -48.5752   45.9775 H   0  0  0  0  0  0  0  0  0  0  0  0
  -32.4884  -49.4089   47.0988 H   0  0  0  0  0  0  0  0  0  0  0  0
  -30.7577  -47.7975   47.9116 H   0  0  0  0  0  0  0  0  0  0  0  0
  -31.1033  -45.3511   47.5625 H   0  0  0  0  0  0  0  0  0  0  0  0
  1  2  1  0
  2  3  2  0
  2  4  1  0
  4  5  2  0
  5  6  1  0
  6  7  2  0
  7  8  1  0
  8  9  1  0
  9 10  2  0
  9 11  2  0
  9 12  1  0
  4 13  1  0
  7 14  1  0
 13 14  2  0
 14 15  1  0
 15 16  1  0
 16 17  2  0
 17 18  1  0
 18 19  2  0
 19 20  1  0
 16 21  1  0
 20 21  2  0
  5 22  1  0
  6 23  1  0
  8 24  1  0
 12 25  1  0
 12 26  1  0
 12 27  1  0
 13 28  1  0
 17 29  1  0
 18 30  1  0
 19 31  1  0
 20 32  1  0
 21 33  1  0
M  CHG  2   1  -1   2   1
M  END
$$$$
