PDB_DB01232_97
     RDKit          3D

 99103  0  0  0  0  0  0  0  0999 V2000
   -6.0320   17.9530   22.5470 C   0  0  0  0  0  0  0  0  0  0  0  0
   -6.7510   18.8210   22.0770 O   0  0  0  0  0  0  0  0  0  0  0  0
   -3.7460   17.0680   22.8970 N   0  0  0  0  0  0  0  0  0  0  0  0
   -4.5380   18.1110   22.5430 C   0  0  0  0  0  0  0  0  0  0  0  0
   -3.9680   19.3450   22.2350 C   0  0  0  0  0  0  0  0  0  0  0  0
   -2.5830   19.4980   22.2540 C   0  0  0  0  0  0  0  0  0  0  0  0
   -0.3960   18.5450   22.6320 C   0  0  0  0  0  0  0  0  0  0  0  0
    0.3950   17.4560   22.9820 C   0  0  0  0  0  0  0  0  0  0  0  0
   -0.2050   16.2400   23.2990 C   0  0  0  0  0  0  0  0  0  0  0  0
   -1.5930   16.1040   23.2700 C   0  0  0  0  0  0  0  0  0  0  0  0
   -1.7860   18.4120   22.6000 C   0  0  0  0  0  0  0  0  0  0  0  0
   -2.3920   17.1940   22.9220 C   0  0  0  0  0  0  0  0  0  0  0  0
   -6.5200   16.8540   23.1110 N   0  0  0  0  0  0  0  0  0  0  0  0
   -7.9450   16.5830   23.2540 C   0  0  2  0  0  0  0  0  0  0  0  0
   -8.2030   16.1200   24.6670 C   0  0  0  0  0  0  0  0  0  0  0  0
   -8.1780   14.9260   24.9270 O   0  0  0  0  0  0  0  0  0  0  0  0
   -8.3230   15.5330   22.2170 C   0  0  0  0  0  0  0  0  0  0  0  0
   -8.4560   16.2680   20.9010 C   0  0  0  0  0  0  0  0  0  0  0  0
   -8.2020   15.7240   19.8350 O   0  0  0  0  0  0  0  0  0  0  0  0
   -8.8500   17.5370   20.9830 N   0  0  0  0  0  0  0  0  0  0  0  0
  -10.1090   17.1630   27.3820 C   0  0  1  0  0  0  0  0  0  0  0  0
  -10.2820   18.5820   27.3770 O   0  0  0  0  0  0  0  0  0  0  0  0
   -8.6720   16.8110   27.0060 C   0  0  1  0  0  0  0  0  0  0  0  0
   -8.4380   17.0790   25.5820 N   0  0  0  0  0  0  0  0  0  0  0  0
   -7.7400   17.7790   27.7240 C   0  0  0  0  0  0  0  0  0  0  0  0
   -6.3110   17.6050   27.2610 C   0  0  0  0  0  0  0  0  0  0  0  0
   -5.6230   16.4310   27.5380 C   0  0  0  0  0  0  0  0  0  0  0  0
   -5.6790   18.6270   26.5660 C   0  0  0  0  0  0  0  0  0  0  0  0
   -4.3060   16.2730   27.1250 C   0  0  0  0  0  0  0  0  0  0  0  0
   -4.3650   18.4710   26.1520 C   0  0  0  0  0  0  0  0  0  0  0  0
   -3.6790   17.2950   26.4310 C   0  0  0  0  0  0  0  0  0  0  0  0
  -10.9020   15.2960   28.7220 N   0  0  0  0  0  0  0  0  0  0  0  0
  -10.4390   16.6810   28.7880 C   0  0  0  0  0  0  0  0  0  0  0  0
  -11.0790   14.7390   30.0750 C   0  0  2  0  0  0  0  0  0  0  0  0
   -9.8630   14.8610   30.9400 C   0  0  0  0  0  0  0  0  0  0  0  0
   -8.7440   14.7900   30.4650 O   0  0  0  0  0  0  0  0  0  0  0  0
  -11.4410   13.2620   29.9600 C   0  0  0  0  0  0  0  0  0  0  0  0
  -12.8090   13.1790   29.3060 C   0  0  2  0  0  0  0  0  0  0  0  0
  -13.2730   11.7270   29.2210 C   0  0  0  0  0  0  0  0  0  0  0  0
  -12.5000   10.9370   28.1740 C   0  0  0  0  0  0  0  0  0  0  0  0
  -12.5870   11.6320   26.8260 C   0  0  0  0  0  0  0  0  0  0  0  0
  -11.9740   13.0220   26.9400 C   0  0  0  0  0  0  0  0  0  0  0  0
  -12.7660   13.8570   27.9400 C   0  0  2  0  0  0  0  0  0  0  0  0
  -12.1970   15.2750   28.0200 C   0  0  0  0  0  0  0  0  0  0  0  0
  -10.1370   15.0280   32.2350 N   0  0  0  0  0  0  0  0  0  0  0  0
   -9.1180   15.1650   33.2590 C   0  0  0  0  0  0  0  0  0  0  0  0
   -8.2180   13.9330   33.2370 C   0  0  0  0  0  0  0  0  0  0  0  0
   -9.7650   15.2870   34.6390 C   0  0  0  0  0  0  0  0  0  0  0  0
   -8.2640   16.3910   32.9710 C   0  0  0  0  0  0  0  0  0  0  0  0
   -4.6118   20.1987   21.9767 H   0  0  0  0  0  0  0  0  0  0  0  0
   -2.1259   20.4654   21.9986 H   0  0  0  0  0  0  0  0  0  0  0  0
    0.0718   19.5084   22.3811 H   0  0  0  0  0  0  0  0  0  0  0  0
    1.4902   17.5548   23.0083 H   0  0  0  0  0  0  0  0  0  0  0  0
    0.4213   15.3788   23.5748 H   0  0  0  0  0  0  0  0  0  0  0  0
   -2.0571   15.1388   23.5211 H   0  0  0  0  0  0  0  0  0  0  0  0
   -5.8540   16.1538   23.4674 H   0  0  0  0  0  0  0  0  0  0  0  0
   -8.5616   17.4772   23.0802 H   0  0  0  0  0  0  0  0  0  0  0  0
   -7.5379   14.7657   22.1476 H   0  0  0  0  0  0  0  0  0  0  0  0
   -9.2588   15.0218   22.4869 H   0  0  0  0  0  0  0  0  0  0  0  0
   -8.9618   18.0979   20.1264 H   0  0  0  0  0  0  0  0  0  0  0  0
   -9.0430   17.9579   21.9030 H   0  0  0  0  0  0  0  0  0  0  0  0
  -10.7675   16.6770   26.6470 H   0  0  0  0  0  0  0  0  0  0  0  0
  -10.3223   18.9128   28.3092 H   0  0  0  0  0  0  0  0  0  0  0  0
   -8.5005   15.7547   27.2605 H   0  0  0  0  0  0  0  0  0  0  0  0
   -8.4546   18.0586   25.2641 H   0  0  0  0  0  0  0  0  0  0  0  0
   -8.0623   18.8097   27.5147 H   0  0  0  0  0  0  0  0  0  0  0  0
   -7.7849   17.5709   28.8032 H   0  0  0  0  0  0  0  0  0  0  0  0
   -6.1241   15.6208   28.0880 H   0  0  0  0  0  0  0  0  0  0  0  0
   -6.2197   19.5589   26.3441 H   0  0  0  0  0  0  0  0  0  0  0  0
   -3.7643   15.3419   27.3477 H   0  0  0  0  0  0  0  0  0  0  0  0
   -3.8639   19.2805   25.6010 H   0  0  0  0  0  0  0  0  0  0  0  0
   -2.6367   17.1755   26.1003 H   0  0  0  0  0  0  0  0  0  0  0  0
   -9.5392   16.7390   29.4181 H   0  0  0  0  0  0  0  0  0  0  0  0
  -11.2263   17.3149   29.2220 H   0  0  0  0  0  0  0  0  0  0  0  0
  -11.8782   15.3245   30.5531 H   0  0  0  0  0  0  0  0  0  0  0  0
  -10.6963   12.7395   29.3416 H   0  0  0  0  0  0  0  0  0  0  0  0
  -11.4556   12.7874   30.9523 H   0  0  0  0  0  0  0  0  0  0  0  0
  -13.5480   13.7133   29.9212 H   0  0  0  0  0  0  0  0  0  0  0  0
  -13.1286   11.2509   30.2021 H   0  0  0  0  0  0  0  0  0  0  0  0
  -14.3335   11.7277   28.9288 H   0  0  0  0  0  0  0  0  0  0  0  0
  -11.4455   10.8643   28.4784 H   0  0  0  0  0  0  0  0  0  0  0  0
  -12.9353    9.9304   28.0887 H   0  0  0  0  0  0  0  0  0  0  0  0
  -12.0365   11.0474   26.0742 H   0  0  0  0  0  0  0  0  0  0  0  0
  -13.6403   11.7160   26.5202 H   0  0  0  0  0  0  0  0  0  0  0  0
  -10.9322   12.9344   27.2819 H   0  0  0  0  0  0  0  0  0  0  0  0
  -12.0019   13.5124   25.9557 H   0  0  0  0  0  0  0  0  0  0  0  0
  -13.8054   13.9356   27.5887 H   0  0  0  0  0  0  0  0  0  0  0  0
  -12.9082   15.9159   28.5618 H   0  0  0  0  0  0  0  0  0  0  0  0
  -12.0413   15.6437   26.9954 H   0  0  0  0  0  0  0  0  0  0  0  0
  -11.1252   15.0615   32.5235 H   0  0  0  0  0  0  0  0  0  0  0  0
   -7.9929   13.6249   34.2687 H   0  0  0  0  0  0  0  0  0  0  0  0
   -8.7314   13.1132   32.7132 H   0  0  0  0  0  0  0  0  0  0  0  0
   -7.2809   14.1728   32.7132 H   0  0  0  0  0  0  0  0  0  0  0  0
   -9.0003   15.1428   35.4165 H   0  0  0  0  0  0  0  0  0  0  0  0
  -10.2136   16.2856   34.7466 H   0  0  0  0  0  0  0  0  0  0  0  0
  -10.5465   14.5204   34.7466 H   0  0  0  0  0  0  0  0  0  0  0  0
   -7.9460   16.8475   33.9199 H   0  0  0  0  0  0  0  0  0  0  0  0
   -7.3773   16.0925   32.3924 H   0  0  0  0  0  0  0  0  0  0  0  0
   -8.8513   17.1193   32.3924 H   0  0  0  0  0  0  0  0  0  0  0  0
  1  2  2  0
  1  4  1  0
  3  4  2  0
  4  5  1  0
  5  6  2  0
  7  8  1  0
  8  9  2  0
  9 10  1  0
  6 11  1  0
  7 11  2  0
  3 12  1  0
 10 12  2  0
 11 12  1  0
  1 13  1  0
 13 14  1  0
 14 15  1  0
 15 16  2  0
 14 17  1  0
 17 18  1  0
 18 19  2  0
 18 20  1  0
 21 22  1  0
 21 23  1  0
 15 24  1  0
 23 24  1  0
 23 25  1  0
 25 26  1  0
 26 27  2  0
 26 28  1  0
 27 29  1  0
 28 30  2  0
 29 31  2  0
 30 31  1  0
 21 33  1  0
 32 33  1  0
 32 34  1  0
 34 35  1  0
 35 36  2  0
 34 37  1  0
 37 38  1  0
 38 39  1  0
 39 40  1  0
 40 41  1  0
 41 42  1  0
 38 43  1  0
 42 43  1  0
 32 44  1  0
 43 44  1  0
 35 45  1  0
 45 46  1  0
 46 47  1  0
 46 48  1  0
 46 49  1  0
  5 50  1  0
  6 51  1  0
  7 52  1  0
  8 53  1  0
  9 54  1  0
 10 55  1  0
 13 56  1  0
 14 57  1  6
 17 58  1  0
 17 59  1  0
 20 60  1  0
 20 61  1  0
 21 62  1  6
 22 63  1  0
 23 64  1  6
 24 65  1  0
 25 66  1  0
 25 67  1  0
 27 68  1  0
 28 69  1  0
 29 70  1  0
 30 71  1  0
 31 72  1  0
 33 73  1  0
 33 74  1  0
 34 75  1  1
 37 76  1  0
 37 77  1  0
 38 78  1  1
 39 79  1  0
 39 80  1  0
 40 81  1  0
 40 82  1  0
 41 83  1  0
 41 84  1  0
 42 85  1  0
 42 86  1  0
 43 87  1  6
 44 88  1  0
 44 89  1  0
 45 90  1  0
 47 91  1  0
 47 92  1  0
 47 93  1  0
 48 94  1  0
 48 95  1  0
 48 96  1  0
 49 97  1  0
 49 98  1  0
 49 99  1  0
M  END
>  <PDBID>  (1) 
3N3I

>  <PDB ID>  (1) 
3N3I

>  <Generic Name>  (1) 
Saquinavir

>  <Brand Name>  (1) 
Fortovase Roche#Invirase#Invirase - Cap 200mg#Fortovase#ROC

>  <DrugBank ID>  (1) 
DB01232

>  <ATC Codes>  (1) 
J05AE01

>  <Ligand ID>  (1) 
ROC

>  <Target Name>  (1) 
Pol polyprotein

>  <UniProt ID>  (1) 
Q72874

>  <PDB ID.1>  (1) 
3N3I

>  <Seq. Identity>  (1) 
98%

$$$$
