PDB_DB00311_96
     RDKit          3D

 26 27  0  0  0  0  0  0  0  0999 V2000
   32.9870    8.4420   18.4240 N   0  0  0  0  0  0  0  0  0  0  0  0
   36.6040    8.9220   20.7360 C   0  0  0  0  0  0  0  0  0  0  0  0
   36.9790   10.2680   20.3000 C   0  0  0  0  0  0  0  0  0  0  0  0
   38.2630   10.7380   20.5290 C   0  0  0  0  0  0  0  0  0  0  0  0
   39.2010    9.9130   21.1520 C   0  0  0  0  0  0  0  0  0  0  0  0
   41.2230   11.2390   20.6100 C   0  0  0  0  0  0  0  0  0  0  0  0
   32.7880   10.9950   18.7310 O   0  0  0  0  0  0  0  0  0  0  0  0
   32.3230    9.4870   20.4550 O   0  0  0  0  0  0  0  0  0  0  0  0
   33.1670    9.7430   19.3210 S   0  0  0  0  0  0  0  0  0  0  0  0
   34.7640    9.7850   19.7990 C   0  0  0  0  0  0  0  0  0  0  0  0
   35.3140    8.7090   20.4050 N   0  0  0  0  0  0  0  0  0  0  0  0
   35.7760   11.1910   19.5750 S   0  0  0  0  0  0  0  0  0  0  0  0
   38.8570    8.6210   21.5550 C   0  0  0  0  0  0  0  0  0  0  0  0
   37.5750    8.1380   21.3550 C   0  0  0  0  0  0  0  0  0  0  0  0
   40.4930   10.3040   21.4100 O   0  0  0  0  0  0  0  0  0  0  0  0
   42.5900   10.6700   20.2760 C   0  0  0  0  0  0  0  0  0  0  0  0
   32.8731    7.6186   19.0323 H   0  0  0  0  0  0  0  0  0  0  0  0
   32.1526    8.5477   17.8294 H   0  0  0  0  0  0  0  0  0  0  0  0
   38.5414   11.7567   20.2211 H   0  0  0  0  0  0  0  0  0  0  0  0
   40.6704   11.4331   19.6789 H   0  0  0  0  0  0  0  0  0  0  0  0
   41.3464   12.1781   21.1693 H   0  0  0  0  0  0  0  0  0  0  0  0
   39.6116    7.9811   22.0358 H   0  0  0  0  0  0  0  0  0  0  0  0
   37.3197    7.1216   21.6893 H   0  0  0  0  0  0  0  0  0  0  0  0
   43.1309   10.4449   21.2070 H   0  0  0  0  0  0  0  0  0  0  0  0
   42.4697    9.7472   19.6895 H   0  0  0  0  0  0  0  0  0  0  0  0
   43.1600   11.4056   19.6895 H   0  0  0  0  0  0  0  0  0  0  0  0
  2  3  1  0
  3  4  2  0
  4  5  1  0
  1  9  1  0
  7  9  2  0
  8  9  2  0
  9 10  1  0
  2 11  1  0
 10 11  2  0
  3 12  1  0
 10 12  1  0
  5 13  2  0
  2 14  2  0
 13 14  1  0
  5 15  1  0
  6 15  1  0
  6 16  1  0
  1 17  1  0
  1 18  1  0
  4 19  1  0
  6 20  1  0
  6 21  1  0
 13 22  1  0
 14 23  1  0
 16 24  1  0
 16 25  1  0
 16 26  1  0
M  END
$$$$
