PDB_DB01254_91
     RDKit          3D

 59 62  0  0  0  0  0  0  0  0999 V2000
    9.9110  -34.5910   -7.6500 C   0  0  0  0  0  0  0  0  0  0  0  0
    8.9290  -35.4990   -7.5180 C   0  0  0  0  0  0  0  0  0  0  0  0
    7.5370  -35.4460   -8.1130 C   0  0  0  0  0  0  0  0  0  0  0  0
   16.0090  -40.9680   -1.1720 N   0  0  0  0  0  0  0  0  0  0  0  0
    3.6930  -33.9750  -10.9020 C   0  0  0  0  0  0  0  0  0  0  0  0
    4.7380  -34.6550  -11.5210 C   0  0  0  0  0  0  0  0  0  0  0  0
    5.9650  -34.8150  -10.8620 C   0  0  0  0  0  0  0  0  0  0  0  0
    7.1090  -35.5640  -11.5460 C   0  0  0  0  0  0  0  0  0  0  0  0
   11.9270  -37.7550   -4.9170 C   0  0  0  0  0  0  0  0  0  0  0  0
   13.0770  -38.2590   -4.3130 C   0  0  0  0  0  0  0  0  0  0  0  0
   12.9830  -39.4650   -3.6100 C   0  0  0  0  0  0  0  0  0  0  0  0
   10.6870  -39.5920   -4.1380 C   0  0  0  0  0  0  0  0  0  0  0  0
    9.3330  -40.3100   -4.0690 C   0  0  0  0  0  0  0  0  0  0  0  0
   13.9150  -41.4000   -2.3550 C   0  0  0  0  0  0  0  0  0  0  0  0
   15.4460  -39.4700   -3.0310 C   0  0  0  0  0  0  0  0  0  0  0  0
   16.6880  -41.1420    0.1340 C   0  0  0  0  0  0  0  0  0  0  0  0
   17.8060  -40.1020    0.3260 C   0  0  0  0  0  0  0  0  0  0  0  0
   11.9790  -36.6150   -5.6180 N   0  0  0  0  0  0  0  0  0  0  0  0
   10.9800  -36.0970   -6.3430 C   0  0  0  0  0  0  0  0  0  0  0  0
   11.0500  -34.9160   -7.0010 N   0  0  0  0  0  0  0  0  0  0  0  0
    9.4330  -36.7750   -6.5720 S   0  0  0  0  0  0  0  0  0  0  0  0
    7.3370  -34.4350   -8.9510 N   0  0  0  0  0  0  0  0  0  0  0  0
    6.1460  -34.2900   -9.5680 C   0  0  0  0  0  0  0  0  0  0  0  0
    5.0940  -33.6140   -8.9560 C   0  0  0  0  0  0  0  0  0  0  0  0
    3.8720  -33.4530   -9.6120 C   0  0  0  0  0  0  0  0  0  0  0  0
    5.3110  -32.9740   -7.3620 Cl  0  0  0  0  0  0  0  0  0  0  0  0
    6.6830  -36.2660   -7.7790 O   0  0  0  0  0  0  0  0  0  0  0  0
   11.7900  -40.1060   -3.5480 N   0  0  0  0  0  0  0  0  0  0  0  0
   10.7680  -38.4320   -4.8090 N   0  0  0  0  0  0  0  0  0  0  0  0
   14.0990  -40.0550   -2.9710 N   0  0  0  0  0  0  0  0  0  0  0  0
   14.6460  -41.4910   -1.0330 C   0  0  0  0  0  0  0  0  0  0  0  0
   16.0950  -39.5780   -1.6590 C   0  0  0  0  0  0  0  0  0  0  0  0
   18.4360  -40.3220    1.6100 O   0  0  0  0  0  0  0  0  0  0  0  0
    9.7973  -33.6660   -8.2343 H   0  0  0  0  0  0  0  0  0  0  0  0
    2.7318  -33.8475  -11.4215 H   0  0  0  0  0  0  0  0  0  0  0  0
    4.6005  -35.0684  -12.5311 H   0  0  0  0  0  0  0  0  0  0  0  0
    7.7715  -35.9978  -10.7825 H   0  0  0  0  0  0  0  0  0  0  0  0
    6.6973  -36.3680  -12.1738 H   0  0  0  0  0  0  0  0  0  0  0  0
    7.6812  -34.8651  -12.1738 H   0  0  0  0  0  0  0  0  0  0  0  0
   14.0344  -37.7224   -4.3870 H   0  0  0  0  0  0  0  0  0  0  0  0
    9.0506  -40.4598   -3.0165 H   0  0  0  0  0  0  0  0  0  0  0  0
    8.5680  -39.6990   -4.5705 H   0  0  0  0  0  0  0  0  0  0  0  0
    9.4096  -41.2860   -4.5705 H   0  0  0  0  0  0  0  0  0  0  0  0
   12.8423  -41.5757   -2.1866 H   0  0  0  0  0  0  0  0  0  0  0  0
   14.3252  -42.1591   -3.0373 H   0  0  0  0  0  0  0  0  0  0  0  0
   16.0522  -40.0151   -3.7696 H   0  0  0  0  0  0  0  0  0  0  0  0
   15.3790  -38.4130   -3.3281 H   0  0  0  0  0  0  0  0  0  0  0  0
   15.9488  -41.0264    0.9404 H   0  0  0  0  0  0  0  0  0  0  0  0
   17.1387  -42.1451    0.1600 H   0  0  0  0  0  0  0  0  0  0  0  0
   18.5524  -40.2102   -0.4748 H   0  0  0  0  0  0  0  0  0  0  0  0
   17.3818  -39.0878    0.2881 H   0  0  0  0  0  0  0  0  0  0  0  0
   12.8654  -36.0909   -5.5975 H   0  0  0  0  0  0  0  0  0  0  0  0
    8.0936  -33.7595   -9.1303 H   0  0  0  0  0  0  0  0  0  0  0  0
    3.0490  -32.9165   -9.1171 H   0  0  0  0  0  0  0  0  0  0  0  0
   14.6910  -42.5428   -0.7141 H   0  0  0  0  0  0  0  0  0  0  0  0
   14.1069  -40.8943   -0.2825 H   0  0  0  0  0  0  0  0  0  0  0  0
   15.5741  -38.9119   -0.9554 H   0  0  0  0  0  0  0  0  0  0  0  0
   17.1526  -39.2849   -1.7340 H   0  0  0  0  0  0  0  0  0  0  0  0
   17.7978  -40.0991    2.3332 H   0  0  0  0  0  0  0  0  0  0  0  0
  1  2  2  0
  2  3  1  0
  5  6  2  0
  6  7  1  0
  7  8  1  0
  9 10  2  0
 10 11  1  0
 12 13  1  0
  4 16  1  0
 16 17  1  0
  9 18  1  0
 18 19  1  0
  1 20  1  0
 19 20  2  0
  2 21  1  0
 19 21  1  0
  3 22  1  0
  7 23  2  0
 22 23  1  0
 23 24  1  0
  5 25  1  0
 24 25  2  0
 24 26  1  0
  3 27  2  0
 11 28  2  0
 12 28  1  0
  9 29  1  0
 12 29  2  0
 11 30  1  0
 14 30  1  0
 15 30  1  0
  4 31  1  0
 14 31  1  0
  4 32  1  0
 15 32  1  0
 17 33  1  0
  1 34  1  0
  5 35  1  0
  6 36  1  0
  8 37  1  0
  8 38  1  0
  8 39  1  0
 10 40  1  0
 13 41  1  0
 13 42  1  0
 13 43  1  0
 14 44  1  0
 14 45  1  0
 15 46  1  0
 15 47  1  0
 16 48  1  0
 16 49  1  0
 17 50  1  0
 17 51  1  0
 18 52  1  0
 22 53  1  0
 25 54  1  0
 31 55  1  0
 31 56  1  0
 32 57  1  0
 32 58  1  0
 33 59  1  0
M  END
$$$$
