PDB_DB00558_77
     RDKit          3D

 43 43  0  0  0  0  0  0  0  0999 V2000
   66.3680  -26.3190  -12.8660 C   0  0  0  0  0  0  0  0  0  0  0  0
   66.1920  -27.2230  -12.0020 O   0  0  0  0  0  0  0  0  0  0  0  0
   65.7230  -25.2320  -12.8320 O   0  0  0  0  0  0  0  0  0  0  0  0
   67.3300  -26.5030  -13.8110 C   0  0  0  0  0  0  0  0  0  0  0  0
   66.9470  -26.0890  -15.2280 C   0  0  0  0  0  0  0  0  0  0  0  0
   67.9770  -26.6010  -16.1040 C   0  0  1  0  0  0  0  0  0  0  0  0
   67.8660  -27.9810  -16.2390 C   0  0  1  0  0  0  0  0  0  0  0  0
   69.1400  -28.5360  -16.9240 N   0  0  0  0  0  0  0  0  0  0  0  0
   69.0390  -29.0370  -18.2850 C   0  0  0  0  0  0  0  0  0  0  0  0
   67.9740  -29.0600  -18.8870 O   0  0  0  0  0  0  0  0  0  0  0  0
   70.2610  -29.5400  -18.9730 C   0  0  0  0  0  0  0  0  0  0  0  0
   67.5200  -28.6570  -15.0090 C   0  0  2  0  0  0  0  0  0  0  0  0
   67.8530  -27.9050  -13.8260 O   0  0  0  0  0  0  0  0  0  0  0  0
   67.9860  -30.1620  -14.9970 C   0  0  2  0  0  0  0  0  0  0  0  0
   66.9980  -31.0160  -15.6730 O   0  0  0  0  0  0  0  0  0  0  0  0
   68.4890  -30.6940  -13.5690 C   0  0  2  0  0  0  0  0  0  0  0  0
   69.7220  -30.1740  -13.2990 O   0  0  0  0  0  0  0  0  0  0  0  0
   68.5470  -32.1880  -13.4270 C   0  0  0  0  0  0  0  0  0  0  0  0
   69.5360  -32.8370  -14.1540 O   0  0  0  0  0  0  0  0  0  0  0  0
   67.7760  -25.9410  -17.4840 N   0  0  0  0  0  0  0  0  0  0  0  0
   68.7950  -25.9050  -18.4980 C   0  0  0  0  0  0  0  0  0  0  0  0
   70.0410  -25.6540  -18.1460 N   0  0  0  0  0  0  0  0  0  0  0  0
   68.4060  -25.7270  -19.7280 N   0  0  0  0  0  0  0  0  0  0  0  0
   66.7111  -28.0644  -12.0532 H   0  0  0  0  0  0  0  0  0  0  0  0
   66.0589  -25.5124  -15.5259 H   0  0  0  0  0  0  0  0  0  0  0  0
   68.9702  -26.3747  -15.6888 H   0  0  0  0  0  0  0  0  0  0  0  0
   67.0084  -28.1961  -16.8935 H   0  0  0  0  0  0  0  0  0  0  0  0
   70.0409  -28.5498  -16.4249 H   0  0  0  0  0  0  0  0  0  0  0  0
   71.0046  -29.8461  -18.2224 H   0  0  0  0  0  0  0  0  0  0  0  0
   69.9984  -30.4032  -19.6023 H   0  0  0  0  0  0  0  0  0  0  0  0
   70.6822  -28.7421  -19.6023 H   0  0  0  0  0  0  0  0  0  0  0  0
   66.4216  -28.7062  -14.9772 H   0  0  0  0  0  0  0  0  0  0  0  0
   68.9086  -30.2226  -15.5929 H   0  0  0  0  0  0  0  0  0  0  0  0
   66.4517  -31.4882  -14.9958 H   0  0  0  0  0  0  0  0  0  0  0  0
   67.7310  -30.3534  -12.8482 H   0  0  0  0  0  0  0  0  0  0  0  0
   69.8500  -30.1200  -12.3188 H   0  0  0  0  0  0  0  0  0  0  0  0
   68.7077  -32.4176  -12.3633 H   0  0  0  0  0  0  0  0  0  0  0  0
   67.5940  -32.5584  -13.8326 H   0  0  0  0  0  0  0  0  0  0  0  0
   70.1797  -33.2594  -13.5316 H   0  0  0  0  0  0  0  0  0  0  0  0
   70.7821  -25.6248  -18.8607 H   0  0  0  0  0  0  0  0  0  0  0  0
   70.2729  -25.4871  -17.1564 H   0  0  0  0  0  0  0  0  0  0  0  0
   69.1003  -25.6943  -20.4881 H   0  0  0  0  0  0  0  0  0  0  0  0
   67.4040  -25.6189  -19.9407 H   0  0  0  0  0  0  0  0  0  0  0  0
  1  2  1  0
  1  3  2  0
  1  4  1  0
  4  5  2  0
  5  6  1  0
  6  7  1  0
  7  8  1  0
  8  9  1  0
  9 10  2  0
  9 11  1  0
  7 12  1  0
  4 13  1  0
 12 13  1  0
 12 14  1  0
 14 15  1  0
 14 16  1  0
 16 17  1  0
 16 18  1  0
 18 19  1  0
  6 20  1  0
 20 21  2  3
 21 22  1  0
 21 23  1  0
  2 24  1  0
  5 25  1  0
  6 26  1  1
  7 27  1  6
  8 28  1  0
 11 29  1  0
 11 30  1  0
 11 31  1  0
 12 32  1  6
 14 33  1  6
 15 34  1  0
 16 35  1  1
 17 36  1  0
 18 37  1  0
 18 38  1  0
 19 39  1  0
 22 40  1  0
 22 41  1  0
 23 42  1  0
 23 43  1  0
M  END
$$$$
