PDB_DB00203_97
     RDKit          3D

 63 66  0  0  0  0  0  0  0  0999 V2000
  -12.3870  -29.3570   39.4640 C   0  0  0  0  0  0  0  0  0  0  0  0
  -12.6090  -28.8860   40.9210 C   0  0  0  0  0  0  0  0  0  0  0  0
  -11.8040  -27.6220   41.2620 C   0  0  0  0  0  0  0  0  0  0  0  0
  -12.1880  -27.1720   42.6510 C   0  0  0  0  0  0  0  0  0  0  0  0
  -13.2360  -26.4230   42.9280 N   0  0  0  0  0  0  0  0  0  0  0  0
  -13.3020  -26.2320   44.1530 N   0  0  0  0  0  0  0  0  0  0  0  0
  -14.3700  -25.3910   44.8340 C   0  0  0  0  0  0  0  0  0  0  0  0
  -12.3150  -26.8350   44.8380 C   0  0  0  0  0  0  0  0  0  0  0  0
  -11.9600  -26.9300   46.1970 C   0  0  0  0  0  0  0  0  0  0  0  0
  -12.5780  -26.3670   47.1120 O   0  0  0  0  0  0  0  0  0  0  0  0
  -10.8560  -27.6820   46.5120 N   0  0  0  0  0  0  0  0  0  0  0  0
  -10.1040  -28.3390   45.5220 C   0  0  0  0  0  0  0  0  0  0  0  0
  -10.4550  -28.2220   44.2270 N   0  0  0  0  0  0  0  0  0  0  0  0
  -11.5500  -27.4820   43.8680 C   0  0  0  0  0  0  0  0  0  0  0  0
   -8.9600  -29.0150   45.9480 C   0  0  0  0  0  0  0  0  0  0  0  0
   -7.7480  -28.8350   45.2820 C   0  0  0  0  0  0  0  0  0  0  0  0
   -6.5890  -29.4620   45.7350 C   0  0  0  0  0  0  0  0  0  0  0  0
   -6.6330  -30.2520   46.8660 C   0  0  0  0  0  0  0  0  0  0  0  0
   -7.8370  -30.4080   47.5390 C   0  0  0  0  0  0  0  0  0  0  0  0
   -8.9910  -29.7870   47.0950 C   0  0  0  0  0  0  0  0  0  0  0  0
  -10.1880  -29.9250   47.7290 O   0  0  0  0  0  0  0  0  0  0  0  0
  -10.3260  -30.9780   48.7000 C   0  0  0  0  0  0  0  0  0  0  0  0
  -11.5550  -30.5550   49.5080 C   0  0  0  0  0  0  0  0  0  0  0  0
   -5.0320  -29.2730   44.9450 S   0  0  0  0  0  0  0  0  0  0  0  0
   -4.8040  -27.8320   44.5270 O   0  0  0  0  0  0  0  0  0  0  0  0
   -3.9850  -29.5880   45.9990 O   0  0  0  0  0  0  0  0  0  0  0  0
   -4.9360  -30.1850   43.5600 N   0  0  0  0  0  0  0  0  0  0  0  0
   -3.5170  -30.5660   43.3410 C   0  0  0  0  0  0  0  0  0  0  0  0
   -3.2620  -31.0770   41.8890 C   0  0  0  0  0  0  0  0  0  0  0  0
   -3.7310  -30.1010   40.8600 N   0  0  0  0  0  0  0  0  0  0  0  0
   -3.3350  -30.5360   39.4980 C   0  0  0  0  0  0  0  0  0  0  0  0
   -5.1880  -29.8430   41.0060 C   0  0  0  0  0  0  0  0  0  0  0  0
   -5.5260  -29.3580   42.4530 C   0  0  0  0  0  0  0  0  0  0  0  0
  -11.9180  -30.3520   39.4677 H   0  0  0  0  0  0  0  0  0  0  0  0
  -13.3550  -29.4098   38.9442 H   0  0  0  0  0  0  0  0  0  0  0  0
  -11.7302  -28.6440   38.9442 H   0  0  0  0  0  0  0  0  0  0  0  0
  -13.6785  -28.6717   41.0630 H   0  0  0  0  0  0  0  0  0  0  0  0
  -12.2648  -29.6905   41.5876 H   0  0  0  0  0  0  0  0  0  0  0  0
  -10.7277  -27.8469   41.2287 H   0  0  0  0  0  0  0  0  0  0  0  0
  -12.0224  -26.8272   40.5336 H   0  0  0  0  0  0  0  0  0  0  0  0
  -14.2626  -25.4756   45.9255 H   0  0  0  0  0  0  0  0  0  0  0  0
  -14.2544  -24.3389   44.5346 H   0  0  0  0  0  0  0  0  0  0  0  0
  -15.3657  -25.7501   44.5346 H   0  0  0  0  0  0  0  0  0  0  0  0
  -10.5712  -27.7672   47.4982 H   0  0  0  0  0  0  0  0  0  0  0  0
   -7.7066  -28.1919   44.3905 H   0  0  0  0  0  0  0  0  0  0  0  0
   -5.7237  -30.7526   47.2301 H   0  0  0  0  0  0  0  0  0  0  0  0
   -7.8743  -31.0363   48.4411 H   0  0  0  0  0  0  0  0  0  0  0  0
  -10.4927  -31.9478   48.2083 H   0  0  0  0  0  0  0  0  0  0  0  0
   -9.4279  -31.1104   49.3212 H   0  0  0  0  0  0  0  0  0  0  0  0
  -11.3317  -30.6319   50.5824 H   0  0  0  0  0  0  0  0  0  0  0  0
  -11.8160  -29.5153   49.2612 H   0  0  0  0  0  0  0  0  0  0  0  0
  -12.4006  -31.2138   49.2612 H   0  0  0  0  0  0  0  0  0  0  0  0
   -2.8817  -29.6868   43.5239 H   0  0  0  0  0  0  0  0  0  0  0  0
   -3.2760  -31.3850   44.0347 H   0  0  0  0  0  0  0  0  0  0  0  0
   -2.1827  -31.2422   41.7554 H   0  0  0  0  0  0  0  0  0  0  0  0
   -3.8281  -32.0104   41.7538 H   0  0  0  0  0  0  0  0  0  0  0  0
   -2.5962  -31.3476   39.5726 H   0  0  0  0  0  0  0  0  0  0  0  0
   -4.2218  -30.8961   38.9558 H   0  0  0  0  0  0  0  0  0  0  0  0
   -2.8934  -29.6869   38.9558 H   0  0  0  0  0  0  0  0  0  0  0  0
   -5.4904  -29.0679   40.2865 H   0  0  0  0  0  0  0  0  0  0  0  0
   -5.7319  -30.7794   40.8130 H   0  0  0  0  0  0  0  0  0  0  0  0
   -6.6200  -29.3668   42.5678 H   0  0  0  0  0  0  0  0  0  0  0  0
   -5.0815  -28.3565   42.5505 H   0  0  0  0  0  0  0  0  0  0  0  0
  1  2  1  0
  2  3  1  0
  3  4  1  0
  4  5  2  0
  5  6  1  0
  6  7  1  0
  6  8  1  0
  8  9  1  0
  9 10  2  0
  9 11  1  0
 11 12  1  0
 12 13  2  0
  4 14  1  0
  8 14  2  0
 13 14  1  0
 12 15  1  0
 15 16  2  0
 16 17  1  0
 17 18  2  0
 18 19  1  0
 15 20  1  0
 19 20  2  0
 20 21  1  0
 21 22  1  0
 22 23  1  0
 17 24  1  0
 24 25  2  0
 24 26  2  0
 24 27  1  0
 27 28  1  0
 28 29  1  0
 29 30  1  0
 30 31  1  0
 30 32  1  0
 27 33  1  0
 32 33  1  0
  1 34  1  0
  1 35  1  0
  1 36  1  0
  2 37  1  0
  2 38  1  0
  3 39  1  0
  3 40  1  0
  7 41  1  0
  7 42  1  0
  7 43  1  0
 11 44  1  0
 16 45  1  0
 18 46  1  0
 19 47  1  0
 22 48  1  0
 22 49  1  0
 23 50  1  0
 23 51  1  0
 23 52  1  0
 28 53  1  0
 28 54  1  0
 29 55  1  0
 29 56  1  0
 31 57  1  0
 31 58  1  0
 31 59  1  0
 32 60  1  0
 32 61  1  0
 33 62  1  0
 33 63  1  0
M  END
$$$$
