PDB_DB08912_97
     RDKit          3D

158164  0  0  0  0  0  0  0  0999 V2000
    4.8550   -1.3790  -18.6890 C   0  0  0  0  0  0  0  0  0  0  0  0
    3.1310   -2.1840  -20.0210 C   0  0  0  0  0  0  0  0  0  0  0  0
    4.4530   -1.9240  -19.8650 N   0  0  0  0  0  0  0  0  0  0  0  0
    2.2080   -1.9280  -19.0200 C   0  0  0  0  0  0  0  0  0  0  0  0
    4.0120   -1.0880  -17.6720 N   0  0  0  0  0  0  0  0  0  0  0  0
    2.7080   -1.3710  -17.8650 C   0  0  0  0  0  0  0  0  0  0  0  0
    6.2010   -1.0990  -18.5190 N   0  0  0  0  0  0  0  0  0  0  0  0
    2.7720   -2.7900  -21.3100 C   0  0  0  0  0  0  0  0  0  0  0  0
    4.0380   -3.4200  -22.2970 S   0  0  0  0  0  0  0  0  0  0  0  0
    2.9150   -3.9280  -23.4950 C   0  0  0  0  0  0  0  0  0  0  0  0
    1.6650   -3.6530  -23.1940 N   0  0  0  0  0  0  0  0  0  0  0  0
    1.5710   -3.0200  -21.9700 C   0  0  0  0  0  0  0  0  0  0  0  0
    3.3580   -4.6250  -24.7820 C   0  0  2  0  0  0  0  0  0  0  0  0
    3.1110   -3.7120  -25.9970 C   0  0  0  0  0  0  0  0  0  0  0  0
    2.5340   -5.9160  -24.9760 C   0  0  0  0  0  0  0  0  0  0  0  0
    4.8410   -5.0350  -24.7300 C   0  0  0  0  0  0  0  0  0  0  0  0
    0.2370   -2.6530  -21.5300 C   0  0  0  0  0  0  0  0  0  0  0  0
   -2.0300   -3.3300  -20.9750 C   0  0  0  0  0  0  0  0  0  0  0  0
   -0.7350   -3.6430  -21.3750 C   0  0  0  0  0  0  0  0  0  0  0  0
   -2.3790   -2.0010  -20.7250 C   0  0  0  0  0  0  0  0  0  0  0  0
   -0.1220   -1.3180  -21.2870 C   0  0  0  0  0  0  0  0  0  0  0  0
   -1.4200   -1.0000  -20.8840 C   0  0  0  0  0  0  0  0  0  0  0  0
   -0.4330   -4.9270  -21.6070 F   0  0  0  0  0  0  0  0  0  0  0  0
   -2.9390   -4.4300  -20.8410 N   0  0  0  0  0  0  0  0  0  0  0  0
   -4.6350   -4.2090  -20.9450 S   0  0  1  0  0  4  0  0  0  0  0  0
   -5.0650   -3.7710  -19.2800 C   0  0  0  0  0  0  0  0  0  0  0  0
   -5.9130   -2.2500  -17.6010 C   0  0  0  0  0  0  0  0  0  0  0  0
   -5.5840   -2.5250  -18.9280 C   0  0  0  0  0  0  0  0  0  0  0  0
   -5.7210   -3.2200  -16.6140 C   0  0  0  0  0  0  0  0  0  0  0  0
   -4.8790   -4.7330  -18.2890 C   0  0  0  0  0  0  0  0  0  0  0  0
   -5.2020   -4.4680  -16.9600 C   0  0  0  0  0  0  0  0  0  0  0  0
   -4.3800   -5.9350  -18.6060 F   0  0  0  0  0  0  0  0  0  0  0  0
   -5.7860   -1.5650  -19.8360 F   0  0  0  0  0  0  0  0  0  0  0  0
   -4.9590   -3.1260  -21.8520 O   0  0  0  0  0  0  0  0  0  0  0  0
   -5.2660   -5.4970  -21.1630 O   0  0  0  0  0  0  0  0  0  0  0  0
    0.3570   -5.1400    5.5770 C   0  0  0  0  0  0  0  0  0  0  0  0
   -1.1670   -3.6100    6.4300 C   0  0  0  0  0  0  0  0  0  0  0  0
   -0.0860   -4.4040    6.6270 N   0  0  0  0  0  0  0  0  0  0  0  0
   -1.8120   -3.5300    5.2090 C   0  0  0  0  0  0  0  0  0  0  0  0
   -0.2210   -5.1200    4.3570 N   0  0  0  0  0  0  0  0  0  0  0  0
   -1.2920   -4.3160    4.2060 C   0  0  0  0  0  0  0  0  0  0  0  0
    1.4600   -5.9590    5.7600 N   0  0  0  0  0  0  0  0  0  0  0  0
   -1.5770   -2.8400    7.6080 C   0  0  0  0  0  0  0  0  0  0  0  0
   -0.5020   -2.7910    8.9580 S   0  0  0  0  0  0  0  0  0  0  0  0
   -1.5910   -1.7820    9.8320 C   0  0  0  0  0  0  0  0  0  0  0  0
   -2.6910   -1.4890    9.1730 N   0  0  0  0  0  0  0  0  0  0  0  0
   -2.6970   -2.0770    7.9220 C   0  0  0  0  0  0  0  0  0  0  0  0
   -1.2900   -1.2790   11.2430 C   0  0  2  0  0  0  0  0  0  0  0  0
   -0.0120   -1.9150   11.8170 C   0  0  0  0  0  0  0  0  0  0  0  0
   -2.4570   -1.6500   12.1830 C   0  0  0  0  0  0  0  0  0  0  0  0
   -1.1420    0.2530   11.2430 C   0  0  0  0  0  0  0  0  0  0  0  0
   -3.8650   -1.8280    7.0970 C   0  0  0  0  0  0  0  0  0  0  0  0
   -5.2730   -0.1910    5.9690 C   0  0  0  0  0  0  0  0  0  0  0  0
   -4.1610   -0.5120    6.7420 C   0  0  0  0  0  0  0  0  0  0  0  0
   -6.1210   -1.2120    5.5330 C   0  0  0  0  0  0  0  0  0  0  0  0
   -4.7240   -2.8460    6.6640 C   0  0  0  0  0  0  0  0  0  0  0  0
   -5.8430   -2.5360    5.8840 C   0  0  0  0  0  0  0  0  0  0  0  0
   -3.3570    0.4840    7.1460 F   0  0  0  0  0  0  0  0  0  0  0  0
   -5.4560    1.2030    5.6650 N   0  0  0  0  0  0  0  0  0  0  0  0
   -6.9750    1.8620    5.2160 S   0  0  1  0  0  4  0  0  0  0  0  0
   -7.0410    1.5170    3.4750 C   0  0  0  0  0  0  0  0  0  0  0  0
   -7.9930    0.3640    1.5710 C   0  0  0  0  0  0  0  0  0  0  0  0
   -7.9570    0.6130    2.9420 C   0  0  0  0  0  0  0  0  0  0  0  0
   -7.1020    1.0170    0.7170 C   0  0  0  0  0  0  0  0  0  0  0  0
   -6.1550    2.1690    2.6160 C   0  0  0  0  0  0  0  0  0  0  0  0
   -6.1820    1.9230    1.2440 C   0  0  0  0  0  0  0  0  0  0  0  0
   -5.2600    3.0450    3.0940 F   0  0  0  0  0  0  0  0  0  0  0  0
   -8.8270   -0.0330    3.7270 F   0  0  0  0  0  0  0  0  0  0  0  0
   -8.0540    1.1580    5.8840 O   0  0  0  0  0  0  0  0  0  0  0  0
   -6.9020    3.3070    5.3240 O   0  0  0  0  0  0  0  0  0  0  0  0
    4.7024   -0.3716  -19.1037 H   0  0  0  0  0  0  0  0  0  0  0  0
    3.2832   -3.1975  -19.6215 H   0  0  0  0  0  0  0  0  0  0  0  0
    4.7292   -1.2745  -20.6152 H   0  0  0  0  0  0  0  0  0  0  0  0
    1.4534   -1.2386  -19.4266 H   0  0  0  0  0  0  0  0  0  0  0  0
    1.8094   -2.9104  -18.7265 H   0  0  0  0  0  0  0  0  0  0  0  0
    4.3266   -1.6158  -16.8454 H   0  0  0  0  0  0  0  0  0  0  0  0
    2.1730   -0.4185  -17.7363 H   0  0  0  0  0  0  0  0  0  0  0  0
    2.5634   -2.1966  -17.1526 H   0  0  0  0  0  0  0  0  0  0  0  0
    6.4179   -1.0539  -17.5131 H   0  0  0  0  0  0  0  0  0  0  0  0
    6.7642   -1.8408  -18.9587 H   0  0  0  0  0  0  0  0  0  0  0  0
    2.8775   -1.8107  -21.7998 H   0  0  0  0  0  0  0  0  0  0  0  0
    2.8213   -4.9027  -22.9938 H   0  0  0  0  0  0  0  0  0  0  0  0
    1.2724   -3.0378  -23.9209 H   0  0  0  0  0  0  0  0  0  0  0  0
    1.6579   -2.0433  -22.4685 H   0  0  0  0  0  0  0  0  0  0  0  0
    2.8385   -2.7046  -25.6493 H   0  0  0  0  0  0  0  0  0  0  0  0
    4.0260   -3.6550  -26.6049 H   0  0  0  0  0  0  0  0  0  0  0  0
    2.2921   -4.1241  -26.6049 H   0  0  0  0  0  0  0  0  0  0  0  0
    2.2682   -6.3325  -23.9932 H   0  0  0  0  0  0  0  0  0  0  0  0
    1.6163   -5.6845  -25.5365 H   0  0  0  0  0  0  0  0  0  0  0  0
    3.1304   -6.6509  -25.5365 H   0  0  0  0  0  0  0  0  0  0  0  0
    5.1604   -5.1233  -23.6811 H   0  0  0  0  0  0  0  0  0  0  0  0
    4.9718   -6.0030  -25.2359 H   0  0  0  0  0  0  0  0  0  0  0  0
    5.4504   -4.2716  -25.2359 H   0  0  0  0  0  0  0  0  0  0  0  0
   -0.0704   -2.5151  -22.5771 H   0  0  0  0  0  0  0  0  0  0  0  0
   -1.7339   -3.4503  -19.9224 H   0  0  0  0  0  0  0  0  0  0  0  0
   -0.4401   -3.7678  -20.3226 H   0  0  0  0  0  0  0  0  0  0  0  0
   -3.2127   -1.7562  -21.3995 H   0  0  0  0  0  0  0  0  0  0  0  0
   -2.5924   -1.9871  -19.6460 H   0  0  0  0  0  0  0  0  0  0  0  0
    0.5527   -0.9472  -20.5013 H   0  0  0  0  0  0  0  0  0  0  0  0
   -0.0491   -0.8549  -22.2821 H   0  0  0  0  0  0  0  0  0  0  0  0
   -1.8186   -0.2980  -21.6313 H   0  0  0  0  0  0  0  0  0  0  0  0
   -1.2762   -0.6310  -19.8578 H   0  0  0  0  0  0  0  0  0  0  0  0
   -2.6884   -5.1051  -21.5774 H   0  0  0  0  0  0  0  0  0  0  0  0
   -4.0452   -3.3925  -19.1162 H   0  0  0  0  0  0  0  0  0  0  0  0
   -5.3196   -1.3731  -17.3028 H   0  0  0  0  0  0  0  0  0  0  0  0
   -7.0067   -2.1370  -17.6321 H   0  0  0  0  0  0  0  0  0  0  0  0
   -6.6032   -2.9001  -19.1029 H   0  0  0  0  0  0  0  0  0  0  0  0
   -5.0373   -2.7860  -15.8696 H   0  0  0  0  0  0  0  0  0  0  0  0
   -6.7437   -3.4522  -16.2822 H   0  0  0  0  0  0  0  0  0  0  0  0
   -3.8596   -4.3577  -18.1161 H   0  0  0  0  0  0  0  0  0  0  0  0
   -4.2814   -4.6052  -16.3737 H   0  0  0  0  0  0  0  0  0  0  0  0
   -6.0327   -5.1590  -16.7538 H   0  0  0  0  0  0  0  0  0  0  0  0
   -5.2002   -2.3198  -21.3305 H   0  0  0  0  0  0  0  0  0  0  0  0
   -5.4712   -5.9159  -20.2898 H   0  0  0  0  0  0  0  0  0  0  0  0
   -0.3046   -5.9661    5.8769 H   0  0  0  0  0  0  0  0  0  0  0  0
   -0.5053   -2.7824    6.1347 H   0  0  0  0  0  0  0  0  0  0  0  0
   -0.3209   -5.0604    7.3852 H   0  0  0  0  0  0  0  0  0  0  0  0
   -2.8605   -3.8259    5.3608 H   0  0  0  0  0  0  0  0  0  0  0  0
   -1.6858   -2.4908    4.8711 H   0  0  0  0  0  0  0  0  0  0  0  0
    0.4931   -4.8188    3.6786 H   0  0  0  0  0  0  0  0  0  0  0  0
   -2.1144   -4.9721    3.8847 H   0  0  0  0  0  0  0  0  0  0  0  0
   -0.8846   -3.5498    3.5300 H   0  0  0  0  0  0  0  0  0  0  0  0
    1.6303   -6.0854    6.7679 H   0  0  0  0  0  0  0  0  0  0  0  0
    1.2834   -6.8753    5.3240 H   0  0  0  0  0  0  0  0  0  0  0  0
   -2.0602   -3.7357    8.0253 H   0  0  0  0  0  0  0  0  0  0  0  0
   -1.1020   -0.8906    9.4121 H   0  0  0  0  0  0  0  0  0  0  0  0
   -3.5033   -1.8286    9.7076 H   0  0  0  0  0  0  0  0  0  0  0  0
   -3.1859   -2.9679    8.3431 H   0  0  0  0  0  0  0  0  0  0  0  0
   -0.0538   -1.8942   12.9160 H   0  0  0  0  0  0  0  0  0  0  0  0
    0.0656   -2.9568   11.4727 H   0  0  0  0  0  0  0  0  0  0  0  0
    0.8659   -1.3487   11.4727 H   0  0  0  0  0  0  0  0  0  0  0  0
   -2.1324   -1.5468   13.2289 H   0  0  0  0  0  0  0  0  0  0  0  0
   -3.3072   -0.9778   11.9949 H   0  0  0  0  0  0  0  0  0  0  0  0
   -2.7630   -2.6897   11.9949 H   0  0  0  0  0  0  0  0  0  0  0  0
   -1.1067    0.6180   12.2801 H   0  0  0  0  0  0  0  0  0  0  0  0
   -0.2128    0.5316   10.7245 H   0  0  0  0  0  0  0  0  0  0  0  0
   -2.0007    0.7043   10.7245 H   0  0  0  0  0  0  0  0  0  0  0  0
   -4.4816   -1.7226    8.0018 H   0  0  0  0  0  0  0  0  0  0  0  0
   -4.6701   -0.3017    5.0557 H   0  0  0  0  0  0  0  0  0  0  0  0
   -3.5581   -0.6228    5.8287 H   0  0  0  0  0  0  0  0  0  0  0  0
   -7.1241   -0.9822    5.9215 H   0  0  0  0  0  0  0  0  0  0  0  0
   -5.9946   -1.2030    4.4403 H   0  0  0  0  0  0  0  0  0  0  0  0
   -4.1132   -3.5478    6.0772 H   0  0  0  0  0  0  0  0  0  0  0  0
   -5.1654   -3.2178    7.6004 H   0  0  0  0  0  0  0  0  0  0  0  0
   -6.7214   -2.9072    6.4323 H   0  0  0  0  0  0  0  0  0  0  0  0
   -5.6057   -3.0026    4.9165 H   0  0  0  0  0  0  0  0  0  0  0  0
   -5.1582    1.7195    6.5049 H   0  0  0  0  0  0  0  0  0  0  0  0
   -6.3146    0.7019    3.6090 H   0  0  0  0  0  0  0  0  0  0  0  0
   -7.8243   -0.7151    1.4402 H   0  0  0  0  0  0  0  0  0  0  0  0
   -8.9716    0.7647    1.2680 H   0  0  0  0  0  0  0  0  0  0  0  0
   -8.6855    1.4271    2.8133 H   0  0  0  0  0  0  0  0  0  0  0  0
   -6.5227    0.2364    0.2020 H   0  0  0  0  0  0  0  0  0  0  0  0
   -7.7557    1.6463    0.0952 H   0  0  0  0  0  0  0  0  0  0  0  0
   -5.4277    1.3543    2.7478 H   0  0  0  0  0  0  0  0  0  0  0  0
   -5.1820    1.5579    0.9669 H   0  0  0  0  0  0  0  0  0  0  0  0
   -6.5034    2.8859    0.8202 H   0  0  0  0  0  0  0  0  0  0  0  0
   -7.9395    1.2327    6.8645 H   0  0  0  0  0  0  0  0  0  0  0  0
   -6.8889    3.5663    6.2794 H   0  0  0  0  0  0  0  0  0  0  0  0
  1  3  1  0
  2  3  1  0
  2  4  1  0
  1  5  1  0
  4  6  1  0
  5  6  1  0
  1  7  1  0
  2  8  1  0
  8  9  1  0
  9 10  1  0
 10 11  1  0
  8 12  1  0
 11 12  1  0
 10 13  1  0
 13 14  1  6
 13 15  1  0
 13 16  1  0
 12 17  1  0
 17 19  1  0
 18 19  1  0
 18 20  1  0
 17 21  1  0
 20 22  1  0
 21 22  1  0
 19 23  1  0
 18 24  1  0
 24 25  1  0
 25 26  1  0
 26 28  1  0
 27 28  1  0
 27 29  1  0
 26 30  1  0
 29 31  1  0
 30 31  1  0
 30 32  1  0
 28 33  1  0
 25 34  1  6
 25 35  1  0
 36 38  1  0
 37 38  1  0
 37 39  1  0
 36 40  1  0
 39 41  1  0
 40 41  1  0
 36 42  1  0
 37 43  1  0
 43 44  1  0
 44 45  1  0
 45 46  1  0
 43 47  1  0
 46 47  1  0
 45 48  1  0
 48 49  1  1
 48 50  1  0
 48 51  1  0
 47 52  1  0
 52 54  1  0
 53 54  1  0
 53 55  1  0
 52 56  1  0
 55 57  1  0
 56 57  1  0
 54 58  1  0
 53 59  1  0
 59 60  1  0
 60 61  1  0
 61 63  1  0
 62 63  1  0
 62 64  1  0
 61 65  1  0
 64 66  1  0
 65 66  1  0
 65 67  1  0
 63 68  1  0
 60 69  1  1
 60 70  1  0
  1 71  1  0
  2 72  1  0
  3 73  1  0
  4 74  1  0
  4 75  1  0
  5 76  1  0
  6 77  1  0
  6 78  1  0
  7 79  1  0
  7 80  1  0
  8 81  1  0
 10 82  1  0
 11 83  1  0
 12 84  1  0
 14 85  1  0
 14 86  1  0
 14 87  1  0
 15 88  1  0
 15 89  1  0
 15 90  1  0
 16 91  1  0
 16 92  1  0
 16 93  1  0
 17 94  1  0
 18 95  1  0
 19 96  1  0
 20 97  1  0
 20 98  1  0
 21 99  1  0
 21100  1  0
 22101  1  0
 22102  1  0
 24103  1  0
 26104  1  0
 27105  1  0
 27106  1  0
 28107  1  0
 29108  1  0
 29109  1  0
 30110  1  0
 31111  1  0
 31112  1  0
 34113  1  0
 35114  1  0
 36115  1  0
 37116  1  0
 38117  1  0
 39118  1  0
 39119  1  0
 40120  1  0
 41121  1  0
 41122  1  0
 42123  1  0
 42124  1  0
 43125  1  0
 45126  1  0
 46127  1  0
 47128  1  0
 49129  1  0
 49130  1  0
 49131  1  0
 50132  1  0
 50133  1  0
 50134  1  0
 51135  1  0
 51136  1  0
 51137  1  0
 52138  1  0
 53139  1  0
 54140  1  0
 55141  1  0
 55142  1  0
 56143  1  0
 56144  1  0
 57145  1  0
 57146  1  0
 59147  1  0
 61148  1  0
 62149  1  0
 62150  1  0
 63151  1  0
 64152  1  0
 64153  1  0
 65154  1  0
 66155  1  0
 66156  1  0
 69157  1  0
 70158  1  0
M  END
>  <PDBID>  (1) 
4XV2

>  <PDB ID>  (1) 
4XV2

>  <Generic Name>  (1) 
Dabrafenib

>  <Brand Name>  (1) 
Tafinlar

>  <DrugBank ID>  (1) 
DB08912

>  <ATC Codes>  (1) 
L01XE23

>  <Ligand ID>  (1) 
P06

>  <Target Name>  (1) 
RAF proto-oncogene serine/threonine-protein kinase

>  <UniProt ID>  (1) 
P04049

>  <PDB ID.1>  (1) 
4XV2

>  <Seq. Identity>  (1) 
75%

$$$$
