PDB_DB01167_99
     RDKit          3D

 87 93  0  0  0  0  0  0  0  0999 V2000
  -45.3280   84.0380  -22.8400 C   0  0  0  0  0  0  0  0  0  0  0  0
  -46.4890   84.2310  -22.1040 C   0  0  0  0  0  0  0  0  0  0  0  0
  -50.6770   88.9440  -23.5340 C   0  0  0  0  0  0  0  0  0  0  0  0
  -49.3690   89.5010  -22.9900 C   0  0  0  0  0  0  0  0  0  0  0  0
  -48.1100   88.7620  -23.5210 C   0  0  1  0  0  0  0  0  0  0  0  0
  -46.8870   89.6460  -23.3190 C   0  0  0  0  0  0  0  0  0  0  0  0
  -47.9300   87.3960  -22.8610 N   0  0  0  0  0  0  0  0  0  0  0  0
  -46.9620   86.4810  -23.1280 C   0  0  0  0  0  0  0  0  0  0  0  0
  -46.0560   86.5510  -23.9380 O   0  0  0  0  0  0  0  0  0  0  0  0
  -47.2670   85.4380  -22.2570 N   0  0  0  0  0  0  0  0  0  0  0  0
  -48.3850   85.7580  -21.5280 C   0  0  0  0  0  0  0  0  0  0  0  0
  -48.8090   86.9780  -21.8910 N   0  0  0  0  0  0  0  0  0  0  0  0
  -44.5230   82.9380  -22.6000 C   0  0  0  0  0  0  0  0  0  0  0  0
  -44.8630   82.0110  -21.6180 C   0  0  0  0  0  0  0  0  0  0  0  0
  -46.0540   82.1890  -20.9190 C   0  0  0  0  0  0  0  0  0  0  0  0
  -46.8580   83.2890  -21.1580 C   0  0  0  0  0  0  0  0  0  0  0  0
  -43.9770   80.9910  -21.2600 N   0  0  0  0  0  0  0  0  0  0  0  0
  -42.7250   80.7980  -22.0060 C   0  0  0  0  0  0  0  0  0  0  0  0
  -42.6160   79.4160  -22.6390 C   0  0  0  0  0  0  0  0  0  0  0  0
  -42.9770   78.3730  -21.6790 N   0  0  0  0  0  0  0  0  0  0  0  0
  -44.3670   78.5630  -21.2720 C   0  0  0  0  0  0  0  0  0  0  0  0
  -44.5030   79.8490  -20.5020 C   0  0  0  0  0  0  0  0  0  0  0  0
  -42.5470   77.0570  -21.8740 C   0  0  0  0  0  0  0  0  0  0  0  0
  -42.1320   76.6210  -23.1280 C   0  0  0  0  0  0  0  0  0  0  0  0
  -41.6900   75.3230  -23.3170 C   0  0  0  0  0  0  0  0  0  0  0  0
  -41.6580   74.4440  -22.2500 C   0  0  0  0  0  0  0  0  0  0  0  0
  -42.0700   74.8600  -20.9960 C   0  0  0  0  0  0  0  0  0  0  0  0
  -42.5150   76.1570  -20.8130 C   0  0  0  0  0  0  0  0  0  0  0  0
  -41.2160   73.1700  -22.5090 O   0  0  0  0  0  0  0  0  0  0  0  0
  -41.1670   72.2280  -21.4320 C   0  0  0  0  0  0  0  0  0  0  0  0
  -41.2200   70.8330  -22.0040 C   0  0  1  0  0  0  0  0  0  0  0  0
  -41.9030   70.7660  -23.3450 C   0  0  0  0  0  0  0  0  0  0  0  0
  -40.8700   71.0690  -24.2500 O   0  0  0  0  0  0  0  0  0  0  0  0
  -39.6700   70.5220  -23.7170 C   0  0  2  0  0  0  0  0  0  0  0  0
  -39.8960   70.3450  -22.3160 O   0  0  0  0  0  0  0  0  0  0  0  0
  -38.5200   71.5780  -23.8830 C   0  0  0  0  0  0  0  0  0  0  0  0
  -37.2000   71.0080  -23.7100 N   0  0  0  0  0  0  0  0  0  0  0  0
  -36.7760   70.1040  -22.8320 C   0  0  0  0  0  0  0  0  0  0  0  0
  -35.5000   69.8360  -23.0000 N   0  0  0  0  0  0  0  0  0  0  0  0
  -35.1780   70.6400  -24.0320 C   0  0  0  0  0  0  0  0  0  0  0  0
  -36.1610   71.3690  -24.5070 N   0  0  0  0  0  0  0  0  0  0  0  0
  -39.4200   69.2100  -24.4440 C   0  0  0  0  0  0  0  0  0  0  0  0
  -39.4040   69.1150  -25.8390 C   0  0  0  0  0  0  0  0  0  0  0  0
  -39.1320   67.9230  -26.4800 C   0  0  0  0  0  0  0  0  0  0  0  0
  -38.8640   66.8090  -25.7170 C   0  0  0  0  0  0  0  0  0  0  0  0
  -38.8800   66.8560  -24.3450 C   0  0  0  0  0  0  0  0  0  0  0  0
  -39.1610   68.0540  -23.7190 C   0  0  0  0  0  0  0  0  0  0  0  0
  -38.4580   65.3150  -26.5140 Cl  0  0  0  0  0  0  0  0  0  0  0  0
  -39.7140   70.4950  -26.8430 Cl  0  0  0  0  0  0  0  0  0  0  0  0
  -45.0463   84.7629  -23.6179 H   0  0  0  0  0  0  0  0  0  0  0  0
  -51.3331   88.6646  -22.6964 H   0  0  0  0  0  0  0  0  0  0  0  0
  -51.1735   89.7088  -24.1493 H   0  0  0  0  0  0  0  0  0  0  0  0
  -50.4697   88.0561  -24.1493 H   0  0  0  0  0  0  0  0  0  0  0  0
  -49.2967   90.5607  -23.2758 H   0  0  0  0  0  0  0  0  0  0  0  0
  -49.3883   89.3625  -21.8989 H   0  0  0  0  0  0  0  0  0  0  0  0
  -48.2412   88.5696  -24.5961 H   0  0  0  0  0  0  0  0  0  0  0  0
  -46.7040   89.7783  -22.2424 H   0  0  0  0  0  0  0  0  0  0  0  0
  -46.0106   89.1713  -23.7843 H   0  0  0  0  0  0  0  0  0  0  0  0
  -47.0628   90.6271  -23.7843 H   0  0  0  0  0  0  0  0  0  0  0  0
  -48.8572   85.1175  -20.7686 H   0  0  0  0  0  0  0  0  0  0  0  0
  -43.6061   82.7947  -23.1905 H   0  0  0  0  0  0  0  0  0  0  0  0
  -46.3593   81.4459  -20.1676 H   0  0  0  0  0  0  0  0  0  0  0  0
  -47.7941   83.4161  -20.5945 H   0  0  0  0  0  0  0  0  0  0  0  0
  -42.6720   81.5539  -22.8033 H   0  0  0  0  0  0  0  0  0  0  0  0
  -41.8963   80.8980  -21.2895 H   0  0  0  0  0  0  0  0  0  0  0  0
  -43.2946   79.3609  -23.5030 H   0  0  0  0  0  0  0  0  0  0  0  0
  -41.5753   79.2560  -22.9575 H   0  0  0  0  0  0  0  0  0  0  0  0
  -45.0067   78.6035  -22.1659 H   0  0  0  0  0  0  0  0  0  0  0  0
  -44.6756   77.7230  -20.6323 H   0  0  0  0  0  0  0  0  0  0  0  0
  -43.9459   79.7603  -19.5577 H   0  0  0  0  0  0  0  0  0  0  0  0
  -45.5721   80.0250  -20.3123 H   0  0  0  0  0  0  0  0  0  0  0  0
  -42.1554   77.3163  -23.9800 H   0  0  0  0  0  0  0  0  0  0  0  0
  -41.3648   74.9913  -24.3141 H   0  0  0  0  0  0  0  0  0  0  0  0
  -42.0437   74.1611  -20.1470 H   0  0  0  0  0  0  0  0  0  0  0  0
  -42.8479   76.4811  -19.8159 H   0  0  0  0  0  0  0  0  0  0  0  0
  -40.2326   72.3607  -20.8669 H   0  0  0  0  0  0  0  0  0  0  0  0
  -42.0202   72.3878  -20.7564 H   0  0  0  0  0  0  0  0  0  0  0  0
  -41.7493   70.2563  -21.2312 H   0  0  0  0  0  0  0  0  0  0  0  0
  -42.3076   69.7602  -23.5313 H   0  0  0  0  0  0  0  0  0  0  0  0
  -42.7605   71.4503  -23.4259 H   0  0  0  0  0  0  0  0  0  0  0  0
  -38.5852   72.0118  -24.8917 H   0  0  0  0  0  0  0  0  0  0  0  0
  -38.6556   72.3385  -23.0999 H   0  0  0  0  0  0  0  0  0  0  0  0
  -37.4115   69.6398  -22.0635 H   0  0  0  0  0  0  0  0  0  0  0  0
  -34.1607   70.6827  -24.4482 H   0  0  0  0  0  0  0  0  0  0  0  0
  -39.1295   67.8645  -27.5784 H   0  0  0  0  0  0  0  0  0  0  0  0
  -38.6720   65.9524  -23.7532 H   0  0  0  0  0  0  0  0  0  0  0  0
  -39.1802   68.0939  -22.6199 H   0  0  0  0  0  0  0  0  0  0  0  0
  1  2  2  0
  3  4  1  0
  4  5  1  0
  5  6  1  0
  5  7  1  0
  7  8  1  0
  8  9  2  0
  2 10  1  0
  8 10  1  0
 10 11  1  0
  7 12  1  0
 11 12  2  0
  1 13  1  0
 13 14  2  0
 14 15  1  0
  2 16  1  0
 15 16  2  0
 14 17  1  0
 17 18  1  0
 18 19  1  0
 19 20  1  0
 20 21  1  0
 17 22  1  0
 21 22  1  0
 20 23  1  0
 23 24  2  0
 24 25  1  0
 25 26  2  0
 26 27  1  0
 23 28  1  0
 27 28  2  0
 26 29  1  0
 29 30  1  0
 30 31  1  0
 31 32  1  0
 32 33  1  0
 33 34  1  0
 31 35  1  0
 34 35  1  0
 34 36  1  1
 36 37  1  0
 37 38  1  0
 38 39  2  0
 40 39  1  0
 37 41  1  0
 40 41  2  0
 34 42  1  0
 42 43  2  0
 43 44  1  0
 44 45  2  0
 45 46  1  0
 42 47  1  0
 46 47  2  0
 45 48  1  0
 43 49  1  0
  1 50  1  0
  3 51  1  0
  3 52  1  0
  3 53  1  0
  4 54  1  0
  4 55  1  0
  5 56  1  6
  6 57  1  0
  6 58  1  0
  6 59  1  0
 11 60  1  0
 13 61  1  0
 15 62  1  0
 16 63  1  0
 18 64  1  0
 18 65  1  0
 19 66  1  0
 19 67  1  0
 21 68  1  0
 21 69  1  0
 22 70  1  0
 22 71  1  0
 24 72  1  0
 25 73  1  0
 27 74  1  0
 28 75  1  0
 30 76  1  0
 30 77  1  0
 31 78  1  1
 32 79  1  0
 32 80  1  0
 36 81  1  0
 36 82  1  0
 38 83  1  0
 40 84  1  0
 44 85  1  0
 46 86  1  0
 47 87  1  0
M  END
>  <PDBID>  (1) 
5JLC

>  <PDB ID>  (1) 
5JLC

>  <Generic Name>  (1) 
Itraconazole

>  <Brand Name>  (1) 
Itraconazole#Onmel#Sporanox#Sporanox Oral Solution 10mg/ml#Itrizole#Oriconazole#Sporal

>  <DrugBank ID>  (1) 
DB01167

>  <ATC Codes>  (1) 
J02AC02

>  <Ligand ID>  (1) 
1YN

>  <Target Name>  (1) 
Lanosterol 14-alpha demethylase

>  <UniProt ID>  (1) 
P50859

>  <PDB ID.1>  (1) 
5JLC

>  <Seq. Identity>  (1) 
97%

$$$$
