PDB_DB00951_95
     RDKit          3D

 17 17  0  0  0  0  0  0  0  0999 V2000
  -23.6190  -57.9140  -15.3410 C   0  0  0  0  0  0  0  0  0  0  0  0
  -24.8890  -57.2270  -15.4030 C   0  0  0  0  0  0  0  0  0  0  0  0
  -27.2060  -55.8710  -15.3770 N   0  0  0  0  0  0  0  0  0  0  0  0
  -23.6740  -58.7760  -14.5470 O   0  0  0  0  0  0  0  0  0  0  0  0
  -25.1020  -56.2700  -16.3690 C   0  0  0  0  0  0  0  0  0  0  0  0
  -22.5340  -57.4300  -15.9870 N   0  0  0  0  0  0  0  0  0  0  0  0
  -26.3370  -55.6030  -16.3340 C   0  0  0  0  0  0  0  0  0  0  0  0
  -21.2840  -57.7780  -15.8320 N   0  0  0  0  0  0  0  0  0  0  0  0
  -27.0130  -56.8910  -14.4030 C   0  0  0  0  0  0  0  0  0  0  0  0
  -25.8280  -57.5550  -14.3980 C   0  0  0  0  0  0  0  0  0  0  0  0
  -24.3425  -56.0392  -17.1305 H   0  0  0  0  0  0  0  0  0  0  0  0
  -22.7152  -56.6968  -16.6874 H   0  0  0  0  0  0  0  0  0  0  0  0
  -26.5806  -54.8567  -17.1045 H   0  0  0  0  0  0  0  0  0  0  0  0
  -21.0665  -57.8385  -14.8270 H   0  0  0  0  0  0  0  0  0  0  0  0
  -21.1256  -58.6951  -16.2734 H   0  0  0  0  0  0  0  0  0  0  0  0
  -27.8010  -57.1345  -13.6752 H   0  0  0  0  0  0  0  0  0  0  0  0
  -25.6068  -58.3203  -13.6394 H   0  0  0  0  0  0  0  0  0  0  0  0
  1  2  1  0
  1  4  2  0
  2  5  2  0
  1  6  1  0
  3  7  2  0
  5  7  1  0
  6  8  1  0
  3  9  1  0
  2 10  1  0
  9 10  2  0
  5 11  1  0
  6 12  1  0
  7 13  1  0
  8 14  1  0
  8 15  1  0
  9 16  1  0
 10 17  1  0
M  END
$$$$
