PDB_DB00293_97
     RDKit          3D

 54 56  0  0  0  0  0  0  0  0999 V2000
   31.1500   40.8690   40.7760 N   0  0  0  0  0  0  0  0  0  0  0  0
   31.7850   41.0490   41.9630 C   0  0  0  0  0  0  0  0  0  0  0  0
   31.6700   42.3090   42.7060 C   0  0  0  0  0  0  0  0  0  0  0  0
   32.5510   40.0570   42.4820 N   0  0  0  0  0  0  0  0  0  0  0  0
   32.6960   38.8650   41.8430 C   0  0  0  0  0  0  0  0  0  0  0  0
   33.5020   37.9320   42.4180 O   0  0  0  0  0  0  0  0  0  0  0  0
   32.0440   38.6160   40.6080 C   0  0  0  0  0  0  0  0  0  0  0  0
   32.1300   37.3810   39.9020 C   0  0  0  0  0  0  0  0  0  0  0  0
   31.4200   37.2110   38.6470 C   0  0  0  0  0  0  0  0  0  0  0  0
   30.6500   38.2930   38.1300 C   0  0  0  0  0  0  0  0  0  0  0  0
   30.5640   39.5210   38.8400 C   0  0  0  0  0  0  0  0  0  0  0  0
   31.2490   39.6970   40.0830 C   0  0  0  0  0  0  0  0  0  0  0  0
   31.4270   35.9340   37.8500 C   0  0  0  0  0  0  0  0  0  0  0  0
   32.1860   34.7790   38.4010 N   0  0  0  0  0  0  0  0  0  0  0  0
   30.5990   33.3220   41.6290 C   0  0  0  0  0  0  0  0  0  0  0  0
   30.3630   34.5390   40.4640 S   0  0  0  0  0  0  0  0  0  0  0  0
   31.7790   34.1230   39.5410 C   0  0  0  0  0  0  0  0  0  0  0  0
   32.4290   33.0550   40.1300 C   0  0  0  0  0  0  0  0  0  0  0  0
   31.7250   32.5820   41.3690 C   0  0  0  0  0  0  0  0  0  0  0  0
   29.7320   33.0890   42.7670 C   0  0  0  0  0  0  0  0  0  0  0  0
   28.7340   33.8070   42.9240 O   0  0  0  0  0  0  0  0  0  0  0  0
   30.0570   32.0990   43.6060 N   0  0  0  0  0  0  0  0  0  0  0  0
   29.3110   31.7050   44.8170 C   0  0  1  0  0  0  0  0  0  0  0  0
   28.5810   30.3710   44.7070 C   0  0  0  0  0  0  0  0  0  0  0  0
   27.1750   30.1770   45.1910 C   0  0  0  0  0  0  0  0  0  0  0  0
   26.2880   29.9230   43.9770 C   0  0  0  0  0  0  0  0  0  0  0  0
   25.9080   30.8710   43.2820 O   0  0  0  0  0  0  0  0  0  0  0  0
   25.9550   28.7710   43.7000 O   0  0  0  0  0  0  0  0  0  0  0  0
   30.3330   31.5860   45.9450 C   0  0  0  0  0  0  0  0  0  0  0  0
   31.5160   31.2900   45.6710 O   0  0  0  0  0  0  0  0  0  0  0  0
   29.9620   31.7920   47.1030 O   0  0  0  0  0  0  0  0  0  0  0  0
   33.3910   34.3650   37.6710 C   0  0  0  0  0  0  0  0  0  0  0  0
   30.5802   41.6350   40.3895 H   0  0  0  0  0  0  0  0  0  0  0  0
   31.6890   42.1009   43.7860 H   0  0  0  0  0  0  0  0  0  0  0  0
   32.5118   42.9670   42.4445 H   0  0  0  0  0  0  0  0  0  0  0  0
   30.7230   42.8037   42.4445 H   0  0  0  0  0  0  0  0  0  0  0  0
   32.7344   36.5564   40.3080 H   0  0  0  0  0  0  0  0  0  0  0  0
   30.1182   38.1767   37.1741 H   0  0  0  0  0  0  0  0  0  0  0  0
   29.9635   40.3458   38.4287 H   0  0  0  0  0  0  0  0  0  0  0  0
   30.3811   35.6140   37.7330 H   0  0  0  0  0  0  0  0  0  0  0  0
   31.9505   36.1912   36.9174 H   0  0  0  0  0  0  0  0  0  0  0  0
   33.3527   32.6048   39.7376 H   0  0  0  0  0  0  0  0  0  0  0  0
   32.0700   31.7440   41.9926 H   0  0  0  0  0  0  0  0  0  0  0  0
   30.9076   31.5613   43.3862 H   0  0  0  0  0  0  0  0  0  0  0  0
   28.5371   32.4677   44.9881 H   0  0  0  0  0  0  0  0  0  0  0  0
   28.5734   30.1148   43.6373 H   0  0  0  0  0  0  0  0  0  0  0  0
   29.1491   29.7457   45.4115 H   0  0  0  0  0  0  0  0  0  0  0  0
   27.1307   29.3146   45.8724 H   0  0  0  0  0  0  0  0  0  0  0  0
   26.8318   31.0699   45.7341 H   0  0  0  0  0  0  0  0  0  0  0  0
   25.3321   30.7072   42.4936 H   0  0  0  0  0  0  0  0  0  0  0  0
   32.1867   31.2103   46.3948 H   0  0  0  0  0  0  0  0  0  0  0  0
   34.1795   34.0941   38.3886 H   0  0  0  0  0  0  0  0  0  0  0  0
   33.1563   33.4960   37.0388 H   0  0  0  0  0  0  0  0  0  0  0  0
   33.7399   35.1948   37.0388 H   0  0  0  0  0  0  0  0  0  0  0  0
  1  2  1  0
  2  3  1  0
  2  4  2  0
  4  5  1  0
  5  6  2  0
  5  7  1  0
  7  8  1  0
  8  9  2  0
  9 10  1  0
 10 11  2  0
  1 12  1  0
  7 12  2  0
 11 12  1  0
  9 13  1  0
 13 14  1  0
 15 16  1  0
 14 17  1  0
 16 17  1  0
 17 18  2  0
 15 19  2  0
 18 19  1  0
 15 20  1  0
 20 21  2  0
 20 22  1  0
 22 23  1  0
 23 24  1  0
 24 25  1  0
 25 26  1  0
 26 27  1  0
 26 28  2  0
 23 29  1  0
 29 30  1  0
 29 31  2  0
 14 32  1  0
  1 33  1  0
  3 34  1  0
  3 35  1  0
  3 36  1  0
  8 37  1  0
 10 38  1  0
 11 39  1  0
 13 40  1  0
 13 41  1  0
 18 42  1  0
 19 43  1  0
 22 44  1  0
 23 45  1  1
 24 46  1  0
 24 47  1  0
 25 48  1  0
 25 49  1  0
 27 50  1  0
 30 51  1  0
 32 52  1  0
 32 53  1  0
 32 54  1  0
M  END
$$$$
