PDB_DB08882_99
     RDKit          3D

170178  0  0  0  0  0  0  0  0999 V2000
   49.4690   47.4300   35.4360 C   0  0  0  0  0  0  0  0  0  0  0  0
   48.1320   47.7200   35.8280 N   0  0  0  0  0  0  0  0  0  0  0  0
   49.5620   47.8030   34.0770 C   0  0  0  0  0  0  0  0  0  0  0  0
   50.6500   46.8890   36.0520 C   0  0  0  0  0  0  0  0  0  0  0  0
   47.5710   48.3050   34.6930 C   0  0  0  0  0  0  0  0  0  0  0  0
   47.4490   47.4650   37.1480 C   0  0  0  0  0  0  0  0  0  0  0  0
   48.4260   48.3150   33.7200 N   0  0  0  0  0  0  0  0  0  0  0  0
   50.7390   47.6040   33.3630 N   0  0  0  0  0  0  0  0  0  0  0  0
   51.8100   46.7430   35.2970 N   0  0  0  0  0  0  0  0  0  0  0  0
   50.6290   46.5710   37.2360 O   0  0  0  0  0  0  0  0  0  0  0  0
   46.3270   48.8430   34.5060 N   0  0  0  0  0  0  0  0  0  0  0  0
   47.7600   48.3300   38.2790 C   0  0  0  0  0  0  0  0  0  0  0  0
   51.8330   47.0890   33.9690 C   0  0  0  0  0  0  0  0  0  0  0  0
   50.7730   47.9600   31.9220 C   0  0  0  0  0  0  0  0  0  0  0  0
   53.0530   46.2020   35.9300 C   0  0  0  0  0  0  0  0  0  0  0  0
   45.7830   49.7390   35.5090 C   0  0  0  0  0  0  0  0  0  0  0  0
   45.4010   48.3450   33.5390 C   0  0  0  0  0  0  0  0  0  0  0  0
   47.9460   48.9710   39.2330 C   0  0  0  0  0  0  0  0  0  0  0  0
   52.8580   46.9300   33.3080 O   0  0  0  0  0  0  0  0  0  0  0  0
   54.1340   47.2770   35.8150 C   0  0  0  0  0  0  0  0  0  0  0  0
   45.7360   51.0680   34.7710 C   0  0  1  0  0  0  0  0  0  0  0  0
   45.0410   49.6040   32.6770 C   0  0  0  0  0  0  0  0  0  0  0  0
   48.1510   49.7500   40.4490 C   0  0  0  0  0  0  0  0  0  0  0  0
   53.7480   48.5430   35.9010 N   0  0  0  0  0  0  0  0  0  0  0  0
   55.4120   46.9270   35.6130 N   0  0  0  0  0  0  0  0  0  0  0  0
   44.7760   50.9180   33.5430 C   0  0  0  0  0  0  0  0  0  0  0  0
   45.2640   52.1000   35.6950 N   0  0  0  0  0  0  0  0  0  0  0  0
   54.6250   49.5510   35.7880 C   0  0  0  0  0  0  0  0  0  0  0  0
   56.3930   47.8390   35.4830 C   0  0  0  0  0  0  0  0  0  0  0  0
   56.0370   49.2360   35.5610 C   0  0  0  0  0  0  0  0  0  0  0  0
   54.2130   50.9030   35.8790 C   0  0  0  0  0  0  0  0  0  0  0  0
   57.8260   47.3980   35.2610 C   0  0  0  0  0  0  0  0  0  0  0  0
   56.9820   50.3030   35.4330 C   0  0  0  0  0  0  0  0  0  0  0  0
   55.1580   51.9180   35.7520 C   0  0  0  0  0  0  0  0  0  0  0  0
   56.5370   51.6180   35.5280 C   0  0  0  0  0  0  0  0  0  0  0  0
   69.0230   69.5870   69.8910 C   0  0  0  0  0  0  0  0  0  0  0  0
   68.5930   70.8800   69.4780 N   0  0  0  0  0  0  0  0  0  0  0  0
   68.6460   69.4700   71.2410 C   0  0  0  0  0  0  0  0  0  0  0  0
   69.6890   68.4790   69.3030 C   0  0  0  0  0  0  0  0  0  0  0  0
   67.9320   71.3720   70.6010 C   0  0  0  0  0  0  0  0  0  0  0  0
   68.7950   71.5900   68.1420 C   0  0  0  0  0  0  0  0  0  0  0  0
   68.0080   70.5350   71.5700 N   0  0  0  0  0  0  0  0  0  0  0  0
   68.9620   68.3370   71.9770 N   0  0  0  0  0  0  0  0  0  0  0  0
   69.9520   67.3480   70.0640 N   0  0  0  0  0  0  0  0  0  0  0  0
   70.0100   68.5270   68.1350 O   0  0  0  0  0  0  0  0  0  0  0  0
   67.2480   72.5290   70.7930 N   0  0  0  0  0  0  0  0  0  0  0  0
   68.0580   71.1430   66.9590 C   0  0  0  0  0  0  0  0  0  0  0  0
   69.5960   67.2990   71.3980 C   0  0  0  0  0  0  0  0  0  0  0  0
   68.5970   68.2960   73.4070 C   0  0  0  0  0  0  0  0  0  0  0  0
   70.6310   66.1760   69.4380 C   0  0  0  0  0  0  0  0  0  0  0  0
   66.3910   73.0560   69.7640 C   0  0  0  0  0  0  0  0  0  0  0  0
   67.5170   73.3980   71.8960 C   0  0  0  0  0  0  0  0  0  0  0  0
   67.5090   70.8750   65.9620 C   0  0  0  0  0  0  0  0  0  0  0  0
   69.8520   66.3150   72.0710 O   0  0  0  0  0  0  0  0  0  0  0  0
   69.7000   64.9760   69.5580 C   0  0  0  0  0  0  0  0  0  0  0  0
   65.0140   72.7450   70.3660 C   0  0  1  0  0  0  0  0  0  0  0  0
   66.1730   73.3450   72.7010 C   0  0  0  0  0  0  0  0  0  0  0  0
   66.8410   70.5880   64.6840 C   0  0  0  0  0  0  0  0  0  0  0  0
   68.4020   65.1560   69.3030 N   0  0  0  0  0  0  0  0  0  0  0  0
   70.2020   63.7850   69.9320 N   0  0  0  0  0  0  0  0  0  0  0  0
   64.8790   73.4740   71.7640 C   0  0  0  0  0  0  0  0  0  0  0  0
   63.9670   73.1820   69.4360 N   0  0  0  0  0  0  0  0  0  0  0  0
   67.5260   64.1350   69.4110 C   0  0  0  0  0  0  0  0  0  0  0  0
   69.4330   62.6890   70.0740 C   0  0  0  0  0  0  0  0  0  0  0  0
   68.0230   62.8080   69.8190 C   0  0  0  0  0  0  0  0  0  0  0  0
   66.1440   64.3100   69.1420 C   0  0  0  0  0  0  0  0  0  0  0  0
   70.0490   61.3740   70.4930 C   0  0  0  0  0  0  0  0  0  0  0  0
   67.1010   61.7110   69.9400 C   0  0  0  0  0  0  0  0  0  0  0  0
   65.2750   63.2230   69.2680 C   0  0  0  0  0  0  0  0  0  0  0  0
   65.7520   61.9260   69.6670 C   0  0  0  0  0  0  0  0  0  0  0  0
   49.1616   46.4170   35.1369 H   0  0  0  0  0  0  0  0  0  0  0  0
   49.2062   46.8057   33.7789 H   0  0  0  0  0  0  0  0  0  0  0  0
   50.3353   45.8749   35.7646 H   0  0  0  0  0  0  0  0  0  0  0  0
   47.9335   49.2902   35.0216 H   0  0  0  0  0  0  0  0  0  0  0  0
   46.3659   47.5409   36.9714 H   0  0  0  0  0  0  0  0  0  0  0  0
   47.8264   46.4788   37.4562 H   0  0  0  0  0  0  0  0  0  0  0  0
   48.5780   49.2882   33.4188 H   0  0  0  0  0  0  0  0  0  0  0  0
   50.6827   47.3848   37.7973 H   0  0  0  0  0  0  0  0  0  0  0  0
   48.8327   48.1030   38.1909 H   0  0  0  0  0  0  0  0  0  0  0  0
   46.9596   49.0193   37.9719 H   0  0  0  0  0  0  0  0  0  0  0  0
   52.1611   48.1036   34.2390 H   0  0  0  0  0  0  0  0  0  0  0  0
   50.8771   49.0499   31.8159 H   0  0  0  0  0  0  0  0  0  0  0  0
   51.6276   47.4615   31.4412 H   0  0  0  0  0  0  0  0  0  0  0  0
   49.8395   47.6323   31.4412 H   0  0  0  0  0  0  0  0  0  0  0  0
   52.8649   45.9706   36.9888 H   0  0  0  0  0  0  0  0  0  0  0  0
   53.3721   45.2770   35.4274 H   0  0  0  0  0  0  0  0  0  0  0  0
   44.7772   49.4220   35.8218 H   0  0  0  0  0  0  0  0  0  0  0  0
   46.3752   49.7721   36.4354 H   0  0  0  0  0  0  0  0  0  0  0  0
   45.8657   47.5653   32.9176 H   0  0  0  0  0  0  0  0  0  0  0  0
   44.5170   47.8795   33.9992 H   0  0  0  0  0  0  0  0  0  0  0  0
   49.0261   48.7740   39.1661 H   0  0  0  0  0  0  0  0  0  0  0  0
   47.1371   49.6532   38.9323 H   0  0  0  0  0  0  0  0  0  0  0  0
   53.6287   46.8104   33.9178 H   0  0  0  0  0  0  0  0  0  0  0  0
   53.9885   47.3067   34.7251 H   0  0  0  0  0  0  0  0  0  0  0  0
   46.7317   51.3590   34.4051 H   0  0  0  0  0  0  0  0  0  0  0  0
   45.8752   49.8039   31.9885 H   0  0  0  0  0  0  0  0  0  0  0  0
   44.1055   49.3741   32.1460 H   0  0  0  0  0  0  0  0  0  0  0  0
   47.9825   49.1097   41.3274 H   0  0  0  0  0  0  0  0  0  0  0  0
   49.1811   50.1353   40.4683 H   0  0  0  0  0  0  0  0  0  0  0  0
   47.4440   50.5925   40.4683 H   0  0  0  0  0  0  0  0  0  0  0  0
   53.0460   48.6839   35.1606 H   0  0  0  0  0  0  0  0  0  0  0  0
   55.6766   46.3319   36.4109 H   0  0  0  0  0  0  0  0  0  0  0  0
   43.7408   50.8866   33.9135 H   0  0  0  0  0  0  0  0  0  0  0  0
   44.9605   51.7793   32.8842 H   0  0  0  0  0  0  0  0  0  0  0  0
   45.4083   51.7845   36.6648 H   0  0  0  0  0  0  0  0  0  0  0  0
   45.7905   52.9707   35.5353 H   0  0  0  0  0  0  0  0  0  0  0  0
   54.7941   49.5257   36.8746 H   0  0  0  0  0  0  0  0  0  0  0  0
   56.2308   47.8584   34.3952 H   0  0  0  0  0  0  0  0  0  0  0  0
   56.2079   49.2189   36.6475 H   0  0  0  0  0  0  0  0  0  0  0  0
   53.4637   51.0629   35.0897 H   0  0  0  0  0  0  0  0  0  0  0  0
   53.8694   50.9988   36.9195 H   0  0  0  0  0  0  0  0  0  0  0  0
   58.3178   47.2466   36.2332 H   0  0  0  0  0  0  0  0  0  0  0  0
   57.8359   46.4552   34.6943 H   0  0  0  0  0  0  0  0  0  0  0  0
   58.3643   48.1721   34.6943 H   0  0  0  0  0  0  0  0  0  0  0  0
   57.7360   50.1610   36.2212 H   0  0  0  0  0  0  0  0  0  0  0  0
   57.3323   50.2194   34.3936 H   0  0  0  0  0  0  0  0  0  0  0  0
   54.8332   52.5433   34.9074 H   0  0  0  0  0  0  0  0  0  0  0  0
   55.1686   52.3646   36.7572 H   0  0  0  0  0  0  0  0  0  0  0  0
   57.0947   52.0768   36.3577 H   0  0  0  0  0  0  0  0  0  0  0  0
   56.7038   52.0018   34.5107 H   0  0  0  0  0  0  0  0  0  0  0  0
   69.9920   70.0073   70.1980 H   0  0  0  0  0  0  0  0  0  0  0  0
   69.5915   69.9422   71.5460 H   0  0  0  0  0  0  0  0  0  0  0  0
   70.6590   68.9044   69.6000 H   0  0  0  0  0  0  0  0  0  0  0  0
   67.0007   70.8948   70.2619 H   0  0  0  0  0  0  0  0  0  0  0  0
   68.5318   72.6462   68.3003 H   0  0  0  0  0  0  0  0  0  0  0  0
   69.8414   71.3632   67.8898 H   0  0  0  0  0  0  0  0  0  0  0  0
   67.0543   70.2746   71.8592 H   0  0  0  0  0  0  0  0  0  0  0  0
   70.9868   68.6731   68.0670 H   0  0  0  0  0  0  0  0  0  0  0  0
   68.5444   70.1569   66.9914 H   0  0  0  0  0  0  0  0  0  0  0  0
   67.1825   71.7238   67.2850 H   0  0  0  0  0  0  0  0  0  0  0  0
   68.6257   66.8598   71.1229 H   0  0  0  0  0  0  0  0  0  0  0  0
   69.5046   68.3979   74.0201 H   0  0  0  0  0  0  0  0  0  0  0  0
   67.9070   69.1223   73.6331 H   0  0  0  0  0  0  0  0  0  0  0  0
   68.1075   67.3372   73.6331 H   0  0  0  0  0  0  0  0  0  0  0  0
   70.8361   66.3853   68.3777 H   0  0  0  0  0  0  0  0  0  0  0  0
   71.5863   65.9717   69.9436 H   0  0  0  0  0  0  0  0  0  0  0  0
   66.5395   74.1371   69.6252 H   0  0  0  0  0  0  0  0  0  0  0  0
   66.5612   72.6335   68.7627 H   0  0  0  0  0  0  0  0  0  0  0  0
   68.3577   73.0260   72.5000 H   0  0  0  0  0  0  0  0  0  0  0  0
   67.8088   74.4146   71.5939 H   0  0  0  0  0  0  0  0  0  0  0  0
   67.9949   69.8883   65.9445 H   0  0  0  0  0  0  0  0  0  0  0  0
   66.6239   71.4344   66.2990 H   0  0  0  0  0  0  0  0  0  0  0  0
   69.7916   66.5473   73.0315 H   0  0  0  0  0  0  0  0  0  0  0  0
   69.5254   65.2173   70.6169 H   0  0  0  0  0  0  0  0  0  0  0  0
   64.9034   71.6625   70.5268 H   0  0  0  0  0  0  0  0  0  0  0  0
   66.1232   72.3863   73.2381 H   0  0  0  0  0  0  0  0  0  0  0  0
   66.1676   74.2017   73.3910 H   0  0  0  0  0  0  0  0  0  0  0  0
   65.8462   70.1606   64.8781 H   0  0  0  0  0  0  0  0  0  0  0  0
   66.7340   71.5196   64.1089 H   0  0  0  0  0  0  0  0  0  0  0  0
   67.4431   69.8691   64.1089 H   0  0  0  0  0  0  0  0  0  0  0  0
   68.0760   65.8913   69.9464 H   0  0  0  0  0  0  0  0  0  0  0  0
   70.9179   63.5436   69.2319 H   0  0  0  0  0  0  0  0  0  0  0  0
   64.6922   74.5422   71.5792 H   0  0  0  0  0  0  0  0  0  0  0  0
   64.0524   72.9824   72.2979 H   0  0  0  0  0  0  0  0  0  0  0  0
   63.1538   73.5214   69.9694 H   0  0  0  0  0  0  0  0  0  0  0  0
   64.3300   73.9418   68.8428 H   0  0  0  0  0  0  0  0  0  0  0  0
   67.6986   63.8753   68.3561 H   0  0  0  0  0  0  0  0  0  0  0  0
   69.2635   62.9448   71.1303 H   0  0  0  0  0  0  0  0  0  0  0  0
   68.1918   62.5468   68.7639 H   0  0  0  0  0  0  0  0  0  0  0  0
   65.7812   65.0906   69.8269 H   0  0  0  0  0  0  0  0  0  0  0  0
   66.1173   64.5384   68.0663 H   0  0  0  0  0  0  0  0  0  0  0  0
   70.0765   61.3153   71.5911 H   0  0  0  0  0  0  0  0  0  0  0  0
   69.4461   60.5438   70.0964 H   0  0  0  0  0  0  0  0  0  0  0  0
   71.0728   61.3058   70.0964 H   0  0  0  0  0  0  0  0  0  0  0  0
   67.4465   60.9232   69.2544 H   0  0  0  0  0  0  0  0  0  0  0  0
   67.1167   61.4721   71.0136 H   0  0  0  0  0  0  0  0  0  0  0  0
   64.5154   63.5161   70.0076 H   0  0  0  0  0  0  0  0  0  0  0  0
   64.9572   63.0506   68.2291 H   0  0  0  0  0  0  0  0  0  0  0  0
   65.4818   61.2309   68.8584 H   0  0  0  0  0  0  0  0  0  0  0  0
   65.2806   61.7868   70.6511 H   0  0  0  0  0  0  0  0  0  0  0  0
  1  2  1  0
  1  3  1  0
  1  4  1  0
  2  5  1  0
  2  6  1  0
  3  7  1  0
  5  7  1  0
  3  8  1  0
  4  9  1  0
  4 10  1  0
  5 11  1  0
  6 12  1  0
  8 13  1  0
  9 13  1  0
  8 14  1  0
  9 15  1  0
 11 16  1  0
 11 17  1  0
 12 18  1  0
 13 19  1  0
 15 20  1  0
 16 21  1  0
 17 22  1  0
 18 23  1  0
 20 24  1  0
 20 25  1  0
 21 26  1  0
 22 26  1  0
 21 27  1  0
 24 28  1  0
 25 29  1  0
 28 30  1  0
 29 30  1  0
 28 31  1  0
 29 32  1  0
 30 33  1  0
 31 34  1  0
 33 35  1  0
 34 35  1  0
 36 37  1  0
 36 38  1  0
 36 39  1  0
 37 40  1  0
 37 41  1  0
 38 42  1  0
 40 42  1  0
 38 43  1  0
 39 44  1  0
 39 45  1  0
 40 46  1  0
 41 47  1  0
 43 48  1  0
 44 48  1  0
 43 49  1  0
 44 50  1  0
 46 51  1  0
 46 52  1  0
 47 53  1  0
 48 54  1  0
 50 55  1  0
 51 56  1  0
 52 57  1  0
 53 58  1  0
 55 59  1  0
 55 60  1  0
 56 61  1  0
 57 61  1  0
 56 62  1  0
 59 63  1  0
 60 64  1  0
 63 65  1  0
 64 65  1  0
 63 66  1  0
 64 67  1  0
 65 68  1  0
 66 69  1  0
 68 70  1  0
 69 70  1  0
  1 71  1  0
  3 72  1  0
  4 73  1  0
  5 74  1  0
  6 75  1  0
  6 76  1  0
  7 77  1  0
 10 78  1  0
 12 79  1  0
 12 80  1  0
 13 81  1  0
 14 82  1  0
 14 83  1  0
 14 84  1  0
 15 85  1  0
 15 86  1  0
 16 87  1  0
 16 88  1  0
 17 89  1  0
 17 90  1  0
 18 91  1  0
 18 92  1  0
 19 93  1  0
 20 94  1  0
 21 95  1  6
 22 96  1  0
 22 97  1  0
 23 98  1  0
 23 99  1  0
 23100  1  0
 24101  1  0
 25102  1  0
 26103  1  0
 26104  1  0
 27105  1  0
 27106  1  0
 28107  1  0
 29108  1  0
 30109  1  0
 31110  1  0
 31111  1  0
 32112  1  0
 32113  1  0
 32114  1  0
 33115  1  0
 33116  1  0
 34117  1  0
 34118  1  0
 35119  1  0
 35120  1  0
 36121  1  0
 38122  1  0
 39123  1  0
 40124  1  0
 41125  1  0
 41126  1  0
 42127  1  0
 45128  1  0
 47129  1  0
 47130  1  0
 48131  1  0
 49132  1  0
 49133  1  0
 49134  1  0
 50135  1  0
 50136  1  0
 51137  1  0
 51138  1  0
 52139  1  0
 52140  1  0
 53141  1  0
 53142  1  0
 54143  1  0
 55144  1  0
 56145  1  1
 57146  1  0
 57147  1  0
 58148  1  0
 58149  1  0
 58150  1  0
 59151  1  0
 60152  1  0
 61153  1  0
 61154  1  0
 62155  1  0
 62156  1  0
 63157  1  0
 64158  1  0
 65159  1  0
 66160  1  0
 66161  1  0
 67162  1  0
 67163  1  0
 67164  1  0
 68165  1  0
 68166  1  0
 69167  1  0
 69168  1  0
 70169  1  0
 70170  1  0
M  END
>  <PDBID>  (1) 
2RGU

>  <PDB ID>  (1) 
2RGU

>  <Generic Name>  (1) 
Linagliptin

>  <Brand Name>  (1) 
Glyxambi#Jentadueto#Jentadueto XR#Tradjenta#Trajenta

>  <DrugBank ID>  (1) 
DB08882

>  <ATC Codes>  (1) 
A10BH05#A10BD19#A10BD11

>  <Ligand ID>  (1) 
356

>  <Target Name>  (1) 
Dipeptidyl peptidase 4

>  <UniProt ID>  (1) 
P27487

>  <PDB ID.1>  (1) 
2RGU

>  <Seq. Identity>  (1) 
100%

$$$$
