PDB_DB01259_98
     RDKit          3D

131137  0  0  0  0  0  0  0  0999 V2000
  -43.1070   47.9300   15.8280 C   0  0  0  0  0  0  0  0  0  0  0  0
  -43.9820   47.9690   14.7410 C   0  0  0  0  0  0  0  0  0  0  0  0
  -43.6240   48.6640   13.5860 C   0  0  0  0  0  0  0  0  0  0  0  0
  -42.3920   49.3150   13.5180 C   0  0  0  0  0  0  0  0  0  0  0  0
  -42.0420   49.9880   12.3970 N   0  0  0  0  0  0  0  0  0  0  0  0
  -40.8590   50.6190   12.3220 C   0  0  0  0  0  0  0  0  0  0  0  0
  -39.9960   50.5980   13.3520 N   0  0  0  0  0  0  0  0  0  0  0  0
  -40.2880   49.9410   14.5040 C   0  0  0  0  0  0  0  0  0  0  0  0
  -39.4090   49.9240   15.5490 N   0  0  0  0  0  0  0  0  0  0  0  0
  -38.1570   50.5660   15.5280 C   0  0  0  0  0  0  0  0  0  0  0  0
  -36.9880   49.8070   15.5430 C   0  0  0  0  0  0  0  0  0  0  0  0
  -35.7460   50.4420   15.5290 C   0  0  0  0  0  0  0  0  0  0  0  0
  -35.6630   51.8380   15.5070 C   0  0  0  0  0  0  0  0  0  0  0  0
  -34.4460   52.4780   15.4850 O   0  0  0  0  0  0  0  0  0  0  0  0
  -33.4190   52.2220   16.4440 C   0  0  0  0  0  0  0  0  0  0  0  0
  -32.1190   51.8930   15.7400 C   0  0  0  0  0  0  0  0  0  0  0  0
  -31.8750   52.3430   14.4400 C   0  0  0  0  0  0  0  0  0  0  0  0
  -30.6750   52.0340   13.8010 C   0  0  0  0  0  0  0  0  0  0  0  0
  -29.7120   51.2730   14.4620 C   0  0  0  0  0  0  0  0  0  0  0  0
  -29.9530   50.8230   15.7590 C   0  0  0  0  0  0  0  0  0  0  0  0
  -29.0240   50.0900   16.3960 F   0  0  0  0  0  0  0  0  0  0  0  0
  -31.1520   51.1340   16.3980 C   0  0  0  0  0  0  0  0  0  0  0  0
  -36.8270   52.5950   15.4930 C   0  0  0  0  0  0  0  0  0  0  0  0
  -36.7320   54.3900   15.4600 Cl  0  0  0  0  0  0  0  0  0  0  0  0
  -38.0700   51.9610   15.5080 C   0  0  0  0  0  0  0  0  0  0  0  0
  -41.5140   49.2770   14.6050 C   0  0  0  0  0  0  0  0  0  0  0  0
  -41.8750   48.5820   15.7630 C   0  0  0  0  0  0  0  0  0  0  0  0
  -31.6880   59.6250  -13.3790 C   0  0  0  0  0  0  0  0  0  0  0  0
  -32.4410   59.1530  -12.1700 C   0  0  0  0  0  0  0  0  0  0  0  0
  -32.0490   59.5810  -10.9040 C   0  0  0  0  0  0  0  0  0  0  0  0
  -32.7390   59.1500   -9.7710 C   0  0  0  0  0  0  0  0  0  0  0  0
  -33.8240   58.2880   -9.9040 C   0  0  0  0  0  0  0  0  0  0  0  0
  -34.4960   57.8690   -8.8050 N   0  0  0  0  0  0  0  0  0  0  0  0
  -35.5440   57.0410   -8.9240 C   0  0  0  0  0  0  0  0  0  0  0  0
  -35.9500   56.6110  -10.1280 N   0  0  0  0  0  0  0  0  0  0  0  0
  -35.3180   56.9970  -11.2680 C   0  0  0  0  0  0  0  0  0  0  0  0
  -35.7420   56.5540  -12.4870 N   0  0  0  0  0  0  0  0  0  0  0  0
  -36.8400   55.6880  -12.6290 C   0  0  0  0  0  0  0  0  0  0  0  0
  -36.6350   54.3900  -13.0910 C   0  0  0  0  0  0  0  0  0  0  0  0
  -37.7200   53.5270  -13.2340 C   0  0  0  0  0  0  0  0  0  0  0  0
  -39.0100   53.9580  -12.9220 C   0  0  0  0  0  0  0  0  0  0  0  0
  -40.0900   53.1250  -13.0510 O   0  0  0  0  0  0  0  0  0  0  0  0
  -40.2520   52.2700  -14.1800 C   0  0  0  0  0  0  0  0  0  0  0  0
  -40.2560   50.8300  -13.7270 C   0  0  0  0  0  0  0  0  0  0  0  0
  -40.6050   50.4900  -12.4200 C   0  0  0  0  0  0  0  0  0  0  0  0
  -40.6030   49.1560  -12.0180 C   0  0  0  0  0  0  0  0  0  0  0  0
  -40.2510   48.1640  -12.9300 C   0  0  0  0  0  0  0  0  0  0  0  0
  -39.9010   48.5010  -14.2360 C   0  0  0  0  0  0  0  0  0  0  0  0
  -39.5600   47.5440  -15.1180 F   0  0  0  0  0  0  0  0  0  0  0  0
  -39.9060   49.8340  -14.6310 C   0  0  0  0  0  0  0  0  0  0  0  0
  -39.2160   55.2480  -12.4620 C   0  0  0  0  0  0  0  0  0  0  0  0
  -40.8850   55.7760  -12.0620 Cl  0  0  0  0  0  0  0  0  0  0  0  0
  -38.1350   56.1180  -12.3180 C   0  0  0  0  0  0  0  0  0  0  0  0
  -34.2230   57.8590  -11.1720 C   0  0  0  0  0  0  0  0  0  0  0  0
  -33.5300   58.2910  -12.3070 C   0  0  0  0  0  0  0  0  0  0  0  0
  -43.6473   48.3595   16.6845 H   0  0  0  0  0  0  0  0  0  0  0  0
  -42.8251   46.8682   15.8839 H   0  0  0  0  0  0  0  0  0  0  0  0
  -44.1640   46.9263   14.4414 H   0  0  0  0  0  0  0  0  0  0  0  0
  -44.8401   48.5397   15.1256 H   0  0  0  0  0  0  0  0  0  0  0  0
  -43.6462   47.9388   12.7592 H   0  0  0  0  0  0  0  0  0  0  0  0
  -44.3492   49.4904   13.5528 H   0  0  0  0  0  0  0  0  0  0  0  0
  -41.9317   48.4016   13.1133 H   0  0  0  0  0  0  0  0  0  0  0  0
  -42.0622   49.3063   11.6252 H   0  0  0  0  0  0  0  0  0  0  0  0
  -40.3284   50.1870   11.4608 H   0  0  0  0  0  0  0  0  0  0  0  0
  -41.1527   51.6780   12.2746 H   0  0  0  0  0  0  0  0  0  0  0  0
  -39.1240   50.1836   12.9932 H   0  0  0  0  0  0  0  0  0  0  0  0
  -39.8259   49.0280   14.1004 H   0  0  0  0  0  0  0  0  0  0  0  0
  -39.9171   50.3267   16.3493 H   0  0  0  0  0  0  0  0  0  0  0  0
  -38.1529   50.5940   16.6276 H   0  0  0  0  0  0  0  0  0  0  0  0
  -37.0202   49.1915   16.4541 H   0  0  0  0  0  0  0  0  0  0  0  0
  -37.0148   49.2806   14.5775 H   0  0  0  0  0  0  0  0  0  0  0  0
  -35.2114   50.1086   16.4307 H   0  0  0  0  0  0  0  0  0  0  0  0
  -35.3318   50.1540   14.5515 H   0  0  0  0  0  0  0  0  0  0  0  0
  -35.6519   51.8547   16.6068 H   0  0  0  0  0  0  0  0  0  0  0  0
  -33.2770   53.1140   17.0718 H   0  0  0  0  0  0  0  0  0  0  0  0
  -33.7158   51.3672   17.0695 H   0  0  0  0  0  0  0  0  0  0  0  0
  -32.5697   50.9739   15.3373 H   0  0  0  0  0  0  0  0  0  0  0  0
  -32.6814   51.9399   13.8097 H   0  0  0  0  0  0  0  0  0  0  0  0
  -31.8186   53.4349   14.5610 H   0  0  0  0  0  0  0  0  0  0  0  0
  -30.9353   51.4889   12.8817 H   0  0  0  0  0  0  0  0  0  0  0  0
  -30.1890   53.0140   13.6853 H   0  0  0  0  0  0  0  0  0  0  0  0
  -29.5321   50.3810   13.8440 H   0  0  0  0  0  0  0  0  0  0  0  0
  -28.8751   51.9757   14.5880 H   0  0  0  0  0  0  0  0  0  0  0  0
  -30.4026   49.9033   15.3564 H   0  0  0  0  0  0  0  0  0  0  0  0
  -30.8896   51.6813   17.3154 H   0  0  0  0  0  0  0  0  0  0  0  0
  -31.6373   50.1536   16.5134 H   0  0  0  0  0  0  0  0  0  0  0  0
  -36.8271   52.6152   16.5928 H   0  0  0  0  0  0  0  0  0  0  0  0
  -38.6054   52.2968   14.6077 H   0  0  0  0  0  0  0  0  0  0  0  0
  -38.4808   52.2475   16.4874 H   0  0  0  0  0  0  0  0  0  0  0  0
  -41.0528   48.3639   14.2006 H   0  0  0  0  0  0  0  0  0  0  0  0
  -41.8558   49.3085   16.5888 H   0  0  0  0  0  0  0  0  0  0  0  0
  -41.1489   47.7565   15.8002 H   0  0  0  0  0  0  0  0  0  0  0  0
  -30.7960   60.1841  -13.0602 H   0  0  0  0  0  0  0  0  0  0  0  0
  -31.3810   58.7574  -13.9816 H   0  0  0  0  0  0  0  0  0  0  0  0
  -32.3350   60.2794  -13.9816 H   0  0  0  0  0  0  0  0  0  0  0  0
  -31.7657   58.2886  -12.0869 H   0  0  0  0  0  0  0  0  0  0  0  0
  -31.0023   59.2686  -10.7746 H   0  0  0  0  0  0  0  0  0  0  0  0
  -32.2593   60.6604  -10.9290 H   0  0  0  0  0  0  0  0  0  0  0  0
  -32.0063   58.6416   -9.1270 H   0  0  0  0  0  0  0  0  0  0  0  0
  -33.1951   60.0738   -9.3855 H   0  0  0  0  0  0  0  0  0  0  0  0
  -33.1481   57.4242   -9.8200 H   0  0  0  0  0  0  0  0  0  0  0  0
  -33.8096   57.3920   -8.2031 H   0  0  0  0  0  0  0  0  0  0  0  0
  -35.3019   56.1432   -8.3363 H   0  0  0  0  0  0  0  0  0  0  0  0
  -36.3862   57.6666   -8.5932 H   0  0  0  0  0  0  0  0  0  0  0  0
  -35.9004   55.5825  -10.1017 H   0  0  0  0  0  0  0  0  0  0  0  0
  -34.6443   56.1312  -11.1877 H   0  0  0  0  0  0  0  0  0  0  0  0
  -35.9670   57.3957  -13.0363 H   0  0  0  0  0  0  0  0  0  0  0  0
  -36.9793   56.0343  -13.6637 H   0  0  0  0  0  0  0  0  0  0  0  0
  -36.1628   54.4749  -14.0808 H   0  0  0  0  0  0  0  0  0  0  0  0
  -36.0422   53.9244  -12.2899 H   0  0  0  0  0  0  0  0  0  0  0  0
  -37.7379   53.2143  -14.2885 H   0  0  0  0  0  0  0  0  0  0  0  0
  -37.5254   52.7547  -12.4753 H   0  0  0  0  0  0  0  0  0  0  0  0
  -39.1476   54.2971  -13.9594 H   0  0  0  0  0  0  0  0  0  0  0  0
  -41.2048   52.4995  -14.6795 H   0  0  0  0  0  0  0  0  0  0  0  0
  -39.4207   52.4302  -14.8823 H   0  0  0  0  0  0  0  0  0  0  0  0
  -39.2033   50.9231  -13.4217 H   0  0  0  0  0  0  0  0  0  0  0  0
  -39.9059   51.0213  -11.7574 H   0  0  0  0  0  0  0  0  0  0  0  0
  -41.6682   50.7666  -12.3648 H   0  0  0  0  0  0  0  0  0  0  0  0
  -39.9019   49.0776  -11.1740 H   0  0  0  0  0  0  0  0  0  0  0  0
  -41.6627   48.9486  -11.8080 H   0  0  0  0  0  0  0  0  0  0  0  0
  -39.3906   47.6304  -12.5000 H   0  0  0  0  0  0  0  0  0  0  0  0
  -41.1873   47.6015  -13.0601 H   0  0  0  0  0  0  0  0  0  0  0  0
  -38.8485   48.5940  -13.9300 H   0  0  0  0  0  0  0  0  0  0  0  0
  -40.6076   49.9115  -15.4747 H   0  0  0  0  0  0  0  0  0  0  0  0
  -38.8442   50.0398  -14.8318 H   0  0  0  0  0  0  0  0  0  0  0  0
  -39.3542   55.5949  -13.4967 H   0  0  0  0  0  0  0  0  0  0  0  0
  -38.1198   56.4326  -11.2640 H   0  0  0  0  0  0  0  0  0  0  0  0
  -38.3318   56.8905  -13.0759 H   0  0  0  0  0  0  0  0  0  0  0  0
  -33.5488   56.9936  -11.0914 H   0  0  0  0  0  0  0  0  0  0  0  0
  -34.2611   58.8017  -12.9510 H   0  0  0  0  0  0  0  0  0  0  0  0
  -33.0759   57.3672  -12.6948 H   0  0  0  0  0  0  0  0  0  0  0  0
  1  2  1  0
  2  3  1  0
  3  4  1  0
  4  5  1  0
  5  6  1  0
  6  7  1  0
  7  8  1  0
  8  9  1  0
  9 10  1  0
 10 11  1  0
 11 12  1  0
 12 13  1  0
 13 14  1  0
 14 15  1  0
 15 16  1  0
 16 17  1  0
 17 18  1  0
 18 19  1  0
 19 20  1  0
 20 21  1  0
 16 22  1  0
 20 22  1  0
 13 23  1  0
 23 24  1  0
 10 25  1  0
 23 25  1  0
  4 26  1  0
  8 26  1  0
  1 27  1  0
 26 27  1  0
 28 29  1  0
 29 30  1  0
 30 31  1  0
 31 32  1  0
 32 33  1  0
 33 34  1  0
 34 35  1  0
 35 36  1  0
 36 37  1  0
 37 38  1  0
 38 39  1  0
 39 40  1  0
 40 41  1  0
 41 42  1  0
 42 43  1  0
 43 44  1  0
 44 45  1  0
 45 46  1  0
 46 47  1  0
 47 48  1  0
 48 49  1  0
 44 50  1  0
 48 50  1  0
 41 51  1  0
 51 52  1  0
 38 53  1  0
 51 53  1  0
 32 54  1  0
 36 54  1  0
 29 55  1  0
 54 55  1  0
  1 56  1  0
  1 57  1  0
  2 58  1  0
  2 59  1  0
  3 60  1  0
  3 61  1  0
  4 62  1  0
  5 63  1  0
  6 64  1  0
  6 65  1  0
  7 66  1  0
  8 67  1  0
  9 68  1  0
 10 69  1  0
 11 70  1  0
 11 71  1  0
 12 72  1  0
 12 73  1  0
 13 74  1  0
 15 75  1  0
 15 76  1  0
 16 77  1  0
 17 78  1  0
 17 79  1  0
 18 80  1  0
 18 81  1  0
 19 82  1  0
 19 83  1  0
 20 84  1  0
 22 85  1  0
 22 86  1  0
 23 87  1  0
 25 88  1  0
 25 89  1  0
 26 90  1  0
 27 91  1  0
 27 92  1  0
 28 93  1  0
 28 94  1  0
 28 95  1  0
 29 96  1  0
 30 97  1  0
 30 98  1  0
 31 99  1  0
 31100  1  0
 32101  1  0
 33102  1  0
 34103  1  0
 34104  1  0
 35105  1  0
 36106  1  0
 37107  1  0
 38108  1  0
 39109  1  0
 39110  1  0
 40111  1  0
 40112  1  0
 41113  1  0
 43114  1  0
 43115  1  0
 44116  1  0
 45117  1  0
 45118  1  0
 46119  1  0
 46120  1  0
 47121  1  0
 47122  1  0
 48123  1  0
 50124  1  0
 50125  1  0
 51126  1  0
 53127  1  0
 53128  1  0
 54129  1  0
 55130  1  0
 55131  1  0
M  END
>  <PDBID>  (1) 
3BBT

>  <PDB ID>  (1) 
3BBT

>  <Generic Name>  (1) 
Lapatinib

>  <Brand Name>  (1) 
Tykerb#Tycerb

>  <DrugBank ID>  (1) 
DB01259

>  <ATC Codes>  (1) 
L01XE07

>  <Ligand ID>  (1) 
FMM

>  <Target Name>  (1) 
Receptor tyrosine-protein kinase erbB-2

>  <UniProt ID>  (1) 
P04626

>  <PDB ID.1>  (1) 
3BBT

>  <Seq. Identity>  (1) 
74%

$$$$
