PDB_DB00787_98
     RDKit          3D

 27 28  0  0  0  0  0  0  0  0999 V2000
   16.9740   96.7440   45.7930 C   0  0  0  0  0  0  0  0  0  0  0  0
   17.1270   95.5030   45.0650 O   0  0  0  0  0  0  0  0  0  0  0  0
   18.2740   97.5150   45.8290 C   0  0  0  0  0  0  0  0  0  0  0  0
   18.5240   97.8560   44.4880 O   0  0  0  0  0  0  0  0  0  0  0  0
   19.2610   96.8420   43.8760 C   0  0  0  0  0  0  0  0  0  0  0  0
   20.6100   97.2720   44.0770 N   0  0  0  0  0  0  0  0  0  0  0  0
   21.1130   98.5800   44.0610 C   0  0  0  0  0  0  0  0  0  0  0  0
   22.4180   98.6910   44.2530 N   0  0  0  0  0  0  0  0  0  0  0  0
   22.8030   97.3080   44.4410 C   0  0  0  0  0  0  0  0  0  0  0  0
   24.1020   96.7070   44.6460 C   0  0  0  0  0  0  0  0  0  0  0  0
   25.2320   97.1740   44.7640 O   0  0  0  0  0  0  0  0  0  0  0  0
   24.0670   95.3500   44.7000 N   0  0  0  0  0  0  0  0  0  0  0  0
   22.9690   94.6130   44.5530 C   0  0  0  0  0  0  0  0  0  0  0  0
   23.2210   93.3170   44.5980 N   0  0  0  0  0  0  0  0  0  0  0  0
   21.7540   95.1310   44.3660 N   0  0  0  0  0  0  0  0  0  0  0  0
   21.7280   96.4730   44.3100 C   0  0  0  0  0  0  0  0  0  0  0  0
   16.2054   97.3576   45.3003 H   0  0  0  0  0  0  0  0  0  0  0  0
   16.6767   96.5100   46.8259 H   0  0  0  0  0  0  0  0  0  0  0  0
   17.2194   94.7539   45.7056 H   0  0  0  0  0  0  0  0  0  0  0  0
   18.1716   98.4195   46.4466 H   0  0  0  0  0  0  0  0  0  0  0  0
   19.0938   96.9282   46.2690 H   0  0  0  0  0  0  0  0  0  0  0  0
   19.0776   95.8709   44.3591 H   0  0  0  0  0  0  0  0  0  0  0  0
   19.0029   96.6915   42.8173 H   0  0  0  0  0  0  0  0  0  0  0  0
   20.4668   99.4555   43.8997 H   0  0  0  0  0  0  0  0  0  0  0  0
   22.4523   92.6390   44.4963 H   0  0  0  0  0  0  0  0  0  0  0  0
   24.1862   92.9845   44.7348 H   0  0  0  0  0  0  0  0  0  0  0  0
   20.9078   94.5513   44.2725 H   0  0  0  0  0  0  0  0  0  0  0  0
  1  2  1  0
  1  3  1  0
  3  4  1  0
  4  5  1  0
  5  6  1  0
  6  7  1  0
  7  8  2  0
  8  9  1  0
  9 10  1  0
 10 11  2  0
 10 12  1  0
 12 13  2  0
 13 14  1  0
 13 15  1  0
  6 16  1  0
  9 16  2  0
 15 16  1  0
  1 17  1  0
  1 18  1  0
  2 19  1  0
  3 20  1  0
  3 21  1  0
  5 22  1  0
  5 23  1  0
  7 24  1  0
 14 25  1  0
 14 26  1  0
 15 27  1  0
M  END
$$$$
