PDB_DB09026_99
     RDKit          3D

204204  0  0  0  0  0  0  0  0999 V2000
   15.0150   42.2060   70.2320 C   0  0  0  0  0  0  0  0  0  0  0  0
   15.4670   43.5420   70.3270 O   0  0  0  0  0  0  0  0  0  0  0  0
   14.5690   44.3930   69.5720 C   0  0  0  0  0  0  0  0  0  0  0  0
   14.2460   45.6780   70.3420 C   0  0  0  0  0  0  0  0  0  0  0  0
   13.7670   45.3640   71.7650 C   0  0  0  0  0  0  0  0  0  0  0  0
   13.5730   46.5520   72.5430 O   0  0  0  0  0  0  0  0  0  0  0  0
   12.4480   47.3610   72.3100 C   0  0  0  0  0  0  0  0  0  0  0  0
   11.3440   46.9530   71.6000 C   0  0  0  0  0  0  0  0  0  0  0  0
   10.2990   47.8670   71.4030 C   0  0  0  0  0  0  0  0  0  0  0  0
   10.3860   49.1860   71.9330 C   0  0  0  0  0  0  0  0  0  0  0  0
   11.4920   49.5980   72.6540 C   0  0  0  0  0  0  0  0  0  0  0  0
   12.5320   48.6720   72.8450 C   0  0  0  0  0  0  0  0  0  0  0  0
   13.7160   48.9420   73.5900 O   0  0  0  0  0  0  0  0  0  0  0  0
   13.9310   50.2470   74.1580 C   0  0  0  0  0  0  0  0  0  0  0  0
    9.0560   47.4570   70.6110 C   0  0  0  0  0  0  0  0  0  0  0  0
    9.3830   46.9610   69.1900 C   0  0  2  0  0  0  0  0  0  0  0  0
   10.2440   48.0040   68.4170 C   0  0  1  0  0  0  0  0  0  0  0  0
   10.7340   47.4340   67.0790 C   0  0  0  0  0  0  0  0  0  0  0  0
    9.4810   49.3390   68.2340 C   0  0  0  0  0  0  0  0  0  0  0  0
    8.0620   46.6810   68.4600 C   0  0  0  0  0  0  0  0  0  0  0  0
    7.2830   45.4640   68.9730 C   0  0  2  0  0  0  0  0  0  0  0  0
    8.1090   44.2510   68.7700 N   0  0  0  0  0  0  0  0  0  0  0  0
    5.9490   45.3180   68.2140 C   0  0  1  0  0  0  0  0  0  0  0  0
    6.2230   44.8010   66.9080 O   0  0  0  0  0  0  0  0  0  0  0  0
    4.9930   44.3330   68.9230 C   0  0  0  0  0  0  0  0  0  0  0  0
    3.6730   44.0650   68.1510 C   0  0  1  0  0  0  0  0  0  0  0  0
    2.6600   43.2060   68.9760 C   0  0  1  0  0  0  0  0  0  0  0  0
    1.3860   42.9090   68.1490 C   0  0  0  0  0  0  0  0  0  0  0  0
    3.2960   41.8970   69.4400 C   0  0  0  0  0  0  0  0  0  0  0  0
    3.0420   45.3990   67.7650 C   0  0  0  0  0  0  0  0  0  0  0  0
    2.7040   46.2240   68.6280 O   0  0  0  0  0  0  0  0  0  0  0  0
    2.9320   45.6220   66.4630 N   0  0  0  0  0  0  0  0  0  0  0  0
    2.4060   46.8560   65.8820 C   0  0  0  0  0  0  0  0  0  0  0  0
    1.1490   46.6710   65.0450 C   0  0  2  0  0  0  0  0  0  0  0  0
    1.3890   45.6960   63.8770 C   0  0  0  0  0  0  0  0  0  0  0  0
    0.7810   48.0300   64.4790 C   0  0  0  0  0  0  0  0  0  0  0  0
    0.1120   46.2500   65.9150 C   0  0  1  0  0  0  0  0  0  0  0  0
   -0.3810   45.1300   65.7570 O   0  0  0  0  0  0  0  0  0  0  0  0
   -0.2300   47.0350   66.9330 N   0  0  0  0  0  0  0  0  0  0  0  0
   33.2010   21.0410   85.7020 C   0  0  0  0  0  0  0  0  0  0  0  0
   31.8980   20.8320   86.2110 O   0  0  0  0  0  0  0  0  0  0  0  0
   31.6220   19.4360   86.3200 C   0  0  0  0  0  0  0  0  0  0  0  0
   30.8830   19.2030   87.6190 C   0  0  0  0  0  0  0  0  0  0  0  0
   31.7710   19.5790   88.7990 C   0  0  0  0  0  0  0  0  0  0  0  0
   31.1370   19.2880   90.0510 O   0  0  0  0  0  0  0  0  0  0  0  0
   30.9400   17.9470   90.4610 C   0  0  0  0  0  0  0  0  0  0  0  0
   31.6320   16.8450   89.9320 C   0  0  0  0  0  0  0  0  0  0  0  0
   31.3860   15.5570   90.4280 C   0  0  1  0  0  0  0  0  0  0  0  0
   30.4360   15.3950   91.4450 C   0  0  0  0  0  0  0  0  0  0  0  0
   29.7400   16.4810   91.9760 C   0  0  0  0  0  0  0  0  0  0  0  0
   29.9910   17.7570   91.4900 C   0  0  0  0  0  0  0  0  0  0  0  0
   29.3590   18.9230   91.9890 O   0  0  0  0  0  0  0  0  0  0  0  0
   28.3960   18.8080   93.0030 C   0  0  0  0  0  0  0  0  0  0  0  0
   32.1720   14.3320   89.9290 C   0  0  0  0  0  0  0  0  0  0  0  0
   32.1060   14.1580   88.4090 C   0  0  2  0  0  0  0  0  0  0  0  0
   30.6450   14.1740   87.9080 C   0  0  1  0  0  0  0  0  0  0  0  0
   30.5990   14.1490   86.3960 C   0  0  0  0  0  0  0  0  0  0  0  0
   29.8530   13.0190   88.4970 C   0  0  0  0  0  0  0  0  0  0  0  0
   32.8380   12.8680   87.9900 C   0  0  0  0  0  0  0  0  0  0  0  0
   34.3560   12.8950   88.2640 C   0  0  2  0  0  0  0  0  0  0  0  0
   34.9950   14.0580   87.5960 N   0  0  0  0  0  0  0  0  0  0  0  0
   35.0360   11.5750   87.8380 C   0  0  1  0  0  0  0  0  0  0  0  0
   35.0250   11.4390   86.4100 O   0  0  0  0  0  0  0  0  0  0  0  0
   36.4900   11.5520   88.3000 C   0  0  0  0  0  0  0  0  0  0  0  0
   37.1880   10.2650   87.8780 C   0  0  1  0  0  0  0  0  0  0  0  0
   38.5830   10.1720   88.5430 C   0  0  1  0  0  0  0  0  0  0  0  0
   39.2940    8.9070   88.1120 C   0  0  0  0  0  0  0  0  0  0  0  0
   39.4230   11.3780   88.1820 C   0  0  0  0  0  0  0  0  0  0  0  0
   36.3160    9.0740   88.2880 C   0  0  0  0  0  0  0  0  0  0  0  0
   36.0230    8.8910   89.4740 O   0  0  0  0  0  0  0  0  0  0  0  0
   35.8580    8.3010   87.3070 N   0  0  0  0  0  0  0  0  0  0  0  0
   35.0050    7.1330   87.5210 C   0  0  0  0  0  0  0  0  0  0  0  0
   35.6700    5.8190   87.1360 C   0  0  2  0  0  0  0  0  0  0  0  0
   36.0120    5.8060   85.6520 C   0  0  0  0  0  0  0  0  0  0  0  0
   34.6610    4.7260   87.3810 C   0  0  0  0  0  0  0  0  0  0  0  0
   36.8380    5.5830   87.9550 C   0  0  0  0  0  0  0  0  0  0  0  0
   37.9240    5.3850   87.3840 O   0  0  0  0  0  0  0  0  0  0  0  0
   36.7390    5.6270   89.2840 N   0  0  0  0  0  0  0  0  0  0  0  0
   14.8754   41.7934   71.2421 H   0  0  0  0  0  0  0  0  0  0  0  0
   14.0582   42.1803   69.6900 H   0  0  0  0  0  0  0  0  0  0  0  0
   15.7597   41.6046   69.6900 H   0  0  0  0  0  0  0  0  0  0  0  0
   15.0442   44.6574   68.6158 H   0  0  0  0  0  0  0  0  0  0  0  0
   13.6311   43.8445   69.4001 H   0  0  0  0  0  0  0  0  0  0  0  0
   15.1510   46.3009   70.3969 H   0  0  0  0  0  0  0  0  0  0  0  0
   13.4419   46.2098   69.8122 H   0  0  0  0  0  0  0  0  0  0  0  0
   12.8134   44.8189   71.7061 H   0  0  0  0  0  0  0  0  0  0  0  0
   14.5425   44.7593   72.2578 H   0  0  0  0  0  0  0  0  0  0  0  0
   12.9074   47.7326   71.3822 H   0  0  0  0  0  0  0  0  0  0  0  0
   11.6948   46.6417   70.6050 H   0  0  0  0  0  0  0  0  0  0  0  0
   10.8981   46.1654   72.2253 H   0  0  0  0  0  0  0  0  0  0  0  0
    9.8237   47.5243   72.3339 H   0  0  0  0  0  0  0  0  0  0  0  0
   10.2986   49.8719   71.0775 H   0  0  0  0  0  0  0  0  0  0  0  0
    9.5899   49.1917   72.6921 H   0  0  0  0  0  0  0  0  0  0  0  0
   11.9185   50.4674   72.1322 H   0  0  0  0  0  0  0  0  0  0  0  0
   11.1062   49.7937   73.6654 H   0  0  0  0  0  0  0  0  0  0  0  0
   13.0117   49.0195   71.9181 H   0  0  0  0  0  0  0  0  0  0  0  0
   13.9192   50.1756   75.2556 H   0  0  0  0  0  0  0  0  0  0  0  0
   14.9052   50.6353   73.8262 H   0  0  0  0  0  0  0  0  0  0  0  0
   13.1328   50.9273   73.8262 H   0  0  0  0  0  0  0  0  0  0  0  0
    8.5447   46.6492   71.1550 H   0  0  0  0  0  0  0  0  0  0  0  0
    8.4218   48.3500   70.5095 H   0  0  0  0  0  0  0  0  0  0  0  0
    9.9770   46.0369   69.2461 H   0  0  0  0  0  0  0  0  0  0  0  0
   11.1353   48.2235   69.0231 H   0  0  0  0  0  0  0  0  0  0  0  0
   11.4405   46.6122   67.2673 H   0  0  0  0  0  0  0  0  0  0  0  0
    9.8753   47.0552   66.5053 H   0  0  0  0  0  0  0  0  0  0  0  0
   11.2374   48.2261   66.5053 H   0  0  0  0  0  0  0  0  0  0  0  0
    9.2395   49.7615   69.2205 H   0  0  0  0  0  0  0  0  0  0  0  0
   10.1105   50.0476   67.6758 H   0  0  0  0  0  0  0  0  0  0  0  0
    8.5510   49.1562   67.6758 H   0  0  0  0  0  0  0  0  0  0  0  0
    7.4190   47.5672   68.5662 H   0  0  0  0  0  0  0  0  0  0  0  0
    8.3290   46.4574   67.4166 H   0  0  0  0  0  0  0  0  0  0  0  0
    7.0608   45.5968   70.0421 H   0  0  0  0  0  0  0  0  0  0  0  0
    8.3753   43.8599   69.6849 H   0  0  0  0  0  0  0  0  0  0  0  0
    7.5678   43.5515   68.2420 H   0  0  0  0  0  0  0  0  0  0  0  0
    5.4698   46.3073   68.1717 H   0  0  0  0  0  0  0  0  0  0  0  0
    6.6851   43.9292   66.9885 H   0  0  0  0  0  0  0  0  0  0  0  0
    5.5179   43.3751   69.0529 H   0  0  0  0  0  0  0  0  0  0  0  0
    4.7123   44.7966   69.8802 H   0  0  0  0  0  0  0  0  0  0  0  0
    3.9196   43.4840   67.2501 H   0  0  0  0  0  0  0  0  0  0  0  0
    2.3777   43.7908   69.8639 H   0  0  0  0  0  0  0  0  0  0  0  0
    0.5445   42.7128   68.8297 H   0  0  0  0  0  0  0  0  0  0  0  0
    1.1501   43.7762   67.5148 H   0  0  0  0  0  0  0  0  0  0  0  0
    1.5579   42.0269   67.5148 H   0  0  0  0  0  0  0  0  0  0  0  0
    3.3110   41.8661   70.5395 H   0  0  0  0  0  0  0  0  0  0  0  0
    2.7097   41.0486   69.0573 H   0  0  0  0  0  0  0  0  0  0  0  0
    4.3253   41.8336   69.0573 H   0  0  0  0  0  0  0  0  0  0  0  0
    2.0433   44.9403   67.8124 H   0  0  0  0  0  0  0  0  0  0  0  0
    2.8602   45.8427   69.5282 H   0  0  0  0  0  0  0  0  0  0  0  0
    3.8832   45.5183   66.0816 H   0  0  0  0  0  0  0  0  0  0  0  0
    2.1737   47.5508   66.7025 H   0  0  0  0  0  0  0  0  0  0  0  0
    3.1819   47.2386   65.2026 H   0  0  0  0  0  0  0  0  0  0  0  0
    1.6341   44.7003   64.2750 H   0  0  0  0  0  0  0  0  0  0  0  0
    0.4800   45.6310   63.2609 H   0  0  0  0  0  0  0  0  0  0  0  0
    2.2243   46.0604   63.2609 H   0  0  0  0  0  0  0  0  0  0  0  0
    0.5910   48.7318   65.3045 H   0  0  0  0  0  0  0  0  0  0  0  0
    1.6096   48.4064   63.8611 H   0  0  0  0  0  0  0  0  0  0  0  0
   -0.1243   47.9369   63.8611 H   0  0  0  0  0  0  0  0  0  0  0  0
   -0.6358   46.6758   65.2298 H   0  0  0  0  0  0  0  0  0  0  0  0
   -0.5610   44.7211   66.6404 H   0  0  0  0  0  0  0  0  0  0  0  0
   -0.0214   46.5563   67.8208 H   0  0  0  0  0  0  0  0  0  0  0  0
    0.3043   47.9142   66.8832 H   0  0  0  0  0  0  0  0  0  0  0  0
   33.9073   21.1543   86.5377 H   0  0  0  0  0  0  0  0  0  0  0  0
   33.4968   20.1788   85.0862 H   0  0  0  0  0  0  0  0  0  0  0  0
   33.2123   21.9524   85.0862 H   0  0  0  0  0  0  0  0  0  0  0  0
   30.9990   19.1119   85.4733 H   0  0  0  0  0  0  0  0  0  0  0  0
   32.5591   18.8601   86.3061 H   0  0  0  0  0  0  0  0  0  0  0  0
   29.9732   19.8211   87.6364 H   0  0  0  0  0  0  0  0  0  0  0  0
   30.6132   18.1393   87.6949 H   0  0  0  0  0  0  0  0  0  0  0  0
   32.7104   19.0104   88.7341 H   0  0  0  0  0  0  0  0  0  0  0  0
   31.9625   20.6613   88.7540 H   0  0  0  0  0  0  0  0  0  0  0  0
   30.1615   17.8266   89.6933 H   0  0  0  0  0  0  0  0  0  0  0  0
   31.4096   16.8180   88.8550 H   0  0  0  0  0  0  0  0  0  0  0  0
   32.6738   17.0350   90.2297 H   0  0  0  0  0  0  0  0  0  0  0  0
   32.1719   15.6983   91.1846 H   0  0  0  0  0  0  0  0  0  0  0  0
   29.6767   14.7028   91.0521 H   0  0  0  0  0  0  0  0  0  0  0  0
   31.0551   15.0741   92.2957 H   0  0  0  0  0  0  0  0  0  0  0  0
   28.6695   16.2832   91.8181 H   0  0  0  0  0  0  0  0  0  0  0  0
   30.0897   16.5278   93.0179 H   0  0  0  0  0  0  0  0  0  0  0  0
   29.2004   17.6256   90.7366 H   0  0  0  0  0  0  0  0  0  0  0  0
   28.8885   18.8668   93.9848 H   0  0  0  0  0  0  0  0  0  0  0  0
   27.6658   19.6253   92.9096 H   0  0  0  0  0  0  0  0  0  0  0  0
   27.8788   17.8417   92.9096 H   0  0  0  0  0  0  0  0  0  0  0  0
   33.2256   14.4477   90.2233 H   0  0  0  0  0  0  0  0  0  0  0  0
   31.7148   13.4403   90.3827 H   0  0  0  0  0  0  0  0  0  0  0  0
   32.6169   15.0094   87.9357 H   0  0  0  0  0  0  0  0  0  0  0  0
   30.1768   15.1090   88.2494 H   0  0  0  0  0  0  0  0  0  0  0  0
   29.6772   13.6480   86.0654 H   0  0  0  0  0  0  0  0  0  0  0  0
   30.6143   15.1795   86.0116 H   0  0  0  0  0  0  0  0  0  0  0  0
   31.4721   13.6013   86.0116 H   0  0  0  0  0  0  0  0  0  0  0  0
   29.8892   13.0718   89.5951 H   0  0  0  0  0  0  0  0  0  0  0  0
   28.8074   13.0824   88.1612 H   0  0  0  0  0  0  0  0  0  0  0  0
   30.2889   12.0665   88.1612 H   0  0  0  0  0  0  0  0  0  0  0  0
   32.4005   12.0253   88.5454 H   0  0  0  0  0  0  0  0  0  0  0  0
   32.7111   12.7673   86.9020 H   0  0  0  0  0  0  0  0  0  0  0  0
   34.4927   13.0023   89.3502 H   0  0  0  0  0  0  0  0  0  0  0  0
   35.3529   14.7095   88.3090 H   0  0  0  0  0  0  0  0  0  0  0  0
   35.7746   13.7305   87.0079 H   0  0  0  0  0  0  0  0  0  0  0  0
   34.4757   10.7490   88.3005 H   0  0  0  0  0  0  0  0  0  0  0  0
   34.9476   10.4816   86.1703 H   0  0  0  0  0  0  0  0  0  0  0  0
   37.0198   12.4081   87.8569 H   0  0  0  0  0  0  0  0  0  0  0  0
   36.5048   11.6093   89.3984 H   0  0  0  0  0  0  0  0  0  0  0  0
   37.3294   10.2570   86.7872 H   0  0  0  0  0  0  0  0  0  0  0  0
   38.4414   10.1476   89.6336 H   0  0  0  0  0  0  0  0  0  0  0  0
   39.6109    8.3432   89.0018 H   0  0  0  0  0  0  0  0  0  0  0  0
   38.6109    8.2892   87.5105 H   0  0  0  0  0  0  0  0  0  0  0  0
   40.1768    9.1694   87.5105 H   0  0  0  0  0  0  0  0  0  0  0  0
   39.7679   11.8732   89.1017 H   0  0  0  0  0  0  0  0  0  0  0  0
   40.2928   11.0554   87.5910 H   0  0  0  0  0  0  0  0  0  0  0  0
   38.8188   12.0820   87.5910 H   0  0  0  0  0  0  0  0  0  0  0  0
   37.2180    8.4575   88.4157 H   0  0  0  0  0  0  0  0  0  0  0  0
   36.7048    9.3168   90.0519 H   0  0  0  0  0  0  0  0  0  0  0  0
   35.3264    8.9254   86.6838 H   0  0  0  0  0  0  0  0  0  0  0  0
   34.7361    7.0884   88.5867 H   0  0  0  0  0  0  0  0  0  0  0  0
   34.1235    7.2522   86.8739 H   0  0  0  0  0  0  0  0  0  0  0  0
   37.1042    5.7645   85.5278 H   0  0  0  0  0  0  0  0  0  0  0  0
   35.5553    4.9246   85.1782 H   0  0  0  0  0  0  0  0  0  0  0  0
   35.6235    6.7196   85.1782 H   0  0  0  0  0  0  0  0  0  0  0  0
   34.5299    4.5840   88.4639 H   0  0  0  0  0  0  0  0  0  0  0  0
   33.6985    5.0075   86.9289 H   0  0  0  0  0  0  0  0  0  0  0  0
   35.0184    3.7890   86.9289 H   0  0  0  0  0  0  0  0  0  0  0  0
   36.6319    4.5026   87.9376 H   0  0  0  0  0  0  0  0  0  0  0  0
   38.6342    5.2555   88.0614 H   0  0  0  0  0  0  0  0  0  0  0  0
   37.5980    5.2452   89.7051 H   0  0  0  0  0  0  0  0  0  0  0  0
   36.6128    6.6034   89.5868 H   0  0  0  0  0  0  0  0  0  0  0  0
  1  2  1  0
  2  3  1  0
  3  4  1  0
  4  5  1  0
  5  6  1  0
  6  7  1  0
  7  8  1  0
  8  9  1  0
  9 10  1  0
 10 11  1  0
  7 12  1  0
 11 12  1  0
 12 13  1  0
 13 14  1  0
  9 15  1  0
 15 16  1  0
 16 17  1  0
 17 18  1  0
 17 19  1  0
 16 20  1  0
 20 21  1  0
 21 22  1  0
 21 23  1  0
 23 24  1  0
 23 25  1  0
 25 26  1  0
 26 27  1  0
 27 28  1  0
 27 29  1  0
 26 30  1  0
 30 31  1  0
 30 32  1  0
 32 33  1  0
 34 33  1  1
 34 35  1  0
 34 36  1  0
 34 37  1  0
 37 38  1  0
 37 39  1  0
 40 41  1  0
 41 42  1  0
 42 43  1  0
 43 44  1  0
 44 45  1  0
 45 46  1  0
 46 47  1  0
 47 48  1  0
 48 49  1  0
 49 50  1  0
 46 51  1  0
 50 51  1  0
 51 52  1  0
 52 53  1  0
 48 54  1  0
 54 55  1  0
 55 56  1  0
 56 57  1  0
 56 58  1  0
 55 59  1  0
 59 60  1  0
 60 61  1  0
 60 62  1  0
 62 63  1  0
 62 64  1  0
 64 65  1  0
 65 66  1  0
 66 67  1  0
 66 68  1  0
 65 69  1  0
 69 70  1  0
 69 71  1  0
 71 72  1  0
 73 72  1  1
 73 74  1  0
 73 75  1  0
 73 76  1  0
 76 77  1  0
 76 78  1  0
  1 79  1  0
  1 80  1  0
  1 81  1  0
  3 82  1  0
  3 83  1  0
  4 84  1  0
  4 85  1  0
  5 86  1  0
  5 87  1  0
  7 88  1  0
  8 89  1  0
  8 90  1  0
  9 91  1  0
 10 92  1  0
 10 93  1  0
 11 94  1  0
 11 95  1  0
 12 96  1  0
 14 97  1  0
 14 98  1  0
 14 99  1  0
 15100  1  0
 15101  1  0
 16102  1  1
 17103  1  1
 18104  1  0
 18105  1  0
 18106  1  0
 19107  1  0
 19108  1  0
 19109  1  0
 20110  1  0
 20111  1  0
 21112  1  1
 22113  1  0
 22114  1  0
 23115  1  6
 24116  1  0
 25117  1  0
 25118  1  0
 26119  1  6
 27120  1  1
 28121  1  0
 28122  1  0
 28123  1  0
 29124  1  0
 29125  1  0
 29126  1  0
 30127  1  0
 31128  1  0
 32129  1  0
 33130  1  0
 33131  1  0
 35132  1  0
 35133  1  0
 35134  1  0
 36135  1  0
 36136  1  0
 36137  1  0
 37138  1  6
 38139  1  0
 39140  1  0
 39141  1  0
 40142  1  0
 40143  1  0
 40144  1  0
 42145  1  0
 42146  1  0
 43147  1  0
 43148  1  0
 44149  1  0
 44150  1  0
 46151  1  0
 47152  1  0
 47153  1  0
 48154  1  6
 49155  1  0
 49156  1  0
 50157  1  0
 50158  1  0
 51159  1  0
 53160  1  0
 53161  1  0
 53162  1  0
 54163  1  0
 54164  1  0
 55165  1  6
 56166  1  1
 57167  1  0
 57168  1  0
 57169  1  0
 58170  1  0
 58171  1  0
 58172  1  0
 59173  1  0
 59174  1  0
 60175  1  1
 61176  1  0
 61177  1  0
 62178  1  1
 63179  1  0
 64180  1  0
 64181  1  0
 65182  1  6
 66183  1  1
 67184  1  0
 67185  1  0
 67186  1  0
 68187  1  0
 68188  1  0
 68189  1  0
 69190  1  0
 70191  1  0
 71192  1  0
 72193  1  0
 72194  1  0
 74195  1  0
 74196  1  0
 74197  1  0
 75198  1  0
 75199  1  0
 75200  1  0
 76201  1  0
 77202  1  0
 78203  1  0
 78204  1  0
M  END
>  <PDBID>  (1) 
2V0Z

>  <PDB ID>  (1) 
2V0Z

>  <Generic Name>  (1) 
Aliskiren

>  <Brand Name>  (1) 
Amturnide#Rasilez#Rasilez Hct#Sandoz Aliskiren#Tekamlo#Tekturna#Tekturna Hct

>  <DrugBank ID>  (1) 
DB09026

>  <ATC Codes>  (1) 
C09DX02#C09XA02#C09XA52#C09XA53#C09XA54

>  <Ligand ID>  (1) 
C41

>  <Target Name>  (1) 
Renin

>  <UniProt ID>  (1) 
P00797

>  <PDB ID.1>  (1) 
2V0Z

>  <Seq. Identity>  (1) 
100%

$$$$
