PDB_DB01232_99
     RDKit          3D

 99103  0  0  0  0  0  0  0  0999 V2000
   19.0260   -3.5990    6.5160 C   0  0  0  0  0  0  0  0  0  0  0  0
   20.1680   -3.4210    6.0800 O   0  0  0  0  0  0  0  0  0  0  0  0
   17.0310   -4.8170    6.8790 N   0  0  0  0  0  0  0  0  0  0  0  0
   18.3400   -4.8180    6.5140 C   0  0  0  0  0  0  0  0  0  0  0  0
   18.9700   -6.0340    6.2250 C   0  0  0  0  0  0  0  0  0  0  0  0
   18.2400   -7.2190    6.3330 C   0  0  0  0  0  0  0  0  0  0  0  0
   16.1460   -8.3330    6.8450 C   0  0  0  0  0  0  0  0  0  0  0  0
   14.8060   -8.2410    7.2430 C   0  0  0  0  0  0  0  0  0  0  0  0
   14.2170   -7.0010    7.5160 C   0  0  0  0  0  0  0  0  0  0  0  0
   14.9660   -5.8350    7.3930 C   0  0  0  0  0  0  0  0  0  0  0  0
   16.8980   -7.1660    6.7210 C   0  0  0  0  0  0  0  0  0  0  0  0
   16.2970   -5.9290    6.9950 C   0  0  0  0  0  0  0  0  0  0  0  0
   18.2790   -2.6270    7.0450 N   0  0  0  0  0  0  0  0  0  0  0  0
   18.7730   -1.2910    7.3000 C   0  0  2  0  0  0  0  0  0  0  0  0
   18.6260   -0.8980    8.7610 C   0  0  0  0  0  0  0  0  0  0  0  0
   17.7090   -0.1980    9.2080 O   0  0  0  0  0  0  0  0  0  0  0  0
   18.0410   -0.3040    6.4420 C   0  0  0  0  0  0  0  0  0  0  0  0
   18.4490   -0.5710    5.0140 C   0  0  0  0  0  0  0  0  0  0  0  0
   19.6160   -0.6910    4.6750 O   0  0  0  0  0  0  0  0  0  0  0  0
   17.5560   -0.7630    4.0770 N   0  0  0  0  0  0  0  0  0  0  0  0
   20.5870    0.0830   11.1880 C   0  0  1  0  0  0  0  0  0  0  0  0
   21.8770   -0.5100   11.1080 O   0  0  0  0  0  0  0  0  0  0  0  0
   19.5590   -1.0490   10.9830 C   0  0  1  0  0  0  0  0  0  0  0  0
   19.5670   -1.3870    9.5690 N   0  0  0  0  0  0  0  0  0  0  0  0
   19.8880   -2.3140   11.7920 C   0  0  0  0  0  0  0  0  0  0  0  0
   19.0890   -3.5050   11.3210 C   0  0  0  0  0  0  0  0  0  0  0  0
   17.7280   -3.5760   11.5980 C   0  0  0  0  0  0  0  0  0  0  0  0
   19.7250   -4.4940   10.5720 C   0  0  0  0  0  0  0  0  0  0  0  0
   16.9950   -4.6560   11.1170 C   0  0  0  0  0  0  0  0  0  0  0  0
   18.9830   -5.5600   10.1010 C   0  0  0  0  0  0  0  0  0  0  0  0
   17.6200   -5.6400   10.3700 C   0  0  0  0  0  0  0  0  0  0  0  0
   19.4210    1.9070   12.4190 N   0  0  0  0  0  0  0  0  0  0  0  0
   20.4640    0.8860   12.4880 C   0  0  0  0  0  0  0  0  0  0  0  0
   18.8880    2.2870   13.7380 C   0  0  2  0  0  0  0  0  0  0  0  0
   18.2420    1.1880   14.5710 C   0  0  0  0  0  0  0  0  0  0  0  0
   17.3660    0.4830   14.0690 O   0  0  0  0  0  0  0  0  0  0  0  0
   17.8450    3.3900   13.5940 C   0  0  0  0  0  0  0  0  0  0  0  0
   18.4400    4.6080   12.9310 C   0  0  2  0  0  0  0  0  0  0  0  0
   17.3550    5.6530   12.7550 C   0  0  0  0  0  0  0  0  0  0  0  0
   16.3630    5.2980   11.6560 C   0  0  0  0  0  0  0  0  0  0  0  0
   17.0720    5.0810   10.3330 C   0  0  0  0  0  0  0  0  0  0  0  0
   17.9910    3.8940   10.5180 C   0  0  0  0  0  0  0  0  0  0  0  0
   19.0660    4.2160   11.5430 C   0  0  2  0  0  0  0  0  0  0  0  0
   20.0220    3.0510   11.7430 C   0  0  0  0  0  0  0  0  0  0  0  0
   18.7210    1.1200   15.8140 N   0  0  0  0  0  0  0  0  0  0  0  0
   18.3340    0.1420   16.8130 C   0  0  0  0  0  0  0  0  0  0  0  0
   19.1540    0.4560   18.0370 C   0  0  0  0  0  0  0  0  0  0  0  0
   16.8870    0.3020   17.1980 C   0  0  0  0  0  0  0  0  0  0  0  0
   18.6330   -1.2900   16.3650 C   0  0  0  0  0  0  0  0  0  0  0  0
   20.0258   -6.0556    5.9170 H   0  0  0  0  0  0  0  0  0  0  0  0
   18.7166   -8.1861    6.1147 H   0  0  0  0  0  0  0  0  0  0  0  0
   16.5986   -9.3130    6.6332 H   0  0  0  0  0  0  0  0  0  0  0  0
   14.2070   -9.1582    7.3426 H   0  0  0  0  0  0  0  0  0  0  0  0
   13.1633   -6.9484    7.8274 H   0  0  0  0  0  0  0  0  0  0  0  0
   14.5142   -4.8551    7.6066 H   0  0  0  0  0  0  0  0  0  0  0  0
   17.2999   -2.8392    7.2841 H   0  0  0  0  0  0  0  0  0  0  0  0
   19.8452   -1.2839    7.0542 H   0  0  0  0  0  0  0  0  0  0  0  0
   16.9550   -0.4373    6.5556 H   0  0  0  0  0  0  0  0  0  0  0  0
   18.2873    0.7276    6.7338 H   0  0  0  0  0  0  0  0  0  0  0  0
   17.8564   -0.9437    3.1085 H   0  0  0  0  0  0  0  0  0  0  0  0
   16.5527   -0.7334    4.3079 H   0  0  0  0  0  0  0  0  0  0  0  0
   20.3957    0.8297   10.4032 H   0  0  0  0  0  0  0  0  0  0  0  0
   22.2241   -0.6695   12.0213 H   0  0  0  0  0  0  0  0  0  0  0  0
   18.5779   -0.6927   11.3301 H   0  0  0  0  0  0  0  0  0  0  0  0
   20.2999   -2.0044    9.1914 H   0  0  0  0  0  0  0  0  0  0  0  0
   20.9593   -2.5381   11.6822 H   0  0  0  0  0  0  0  0  0  0  0  0
   19.6294   -2.1236   12.8441 H   0  0  0  0  0  0  0  0  0  0  0  0
   17.2377   -2.7887   12.1895 H   0  0  0  0  0  0  0  0  0  0  0  0
   20.8021   -4.4266   10.3591 H   0  0  0  0  0  0  0  0  0  0  0  0
   15.9183   -4.7283   11.3302 H   0  0  0  0  0  0  0  0  0  0  0  0
   19.4718   -6.3491    9.5107 H   0  0  0  0  0  0  0  0  0  0  0  0
   17.0359   -6.4898    9.9870 H   0  0  0  0  0  0  0  0  0  0  0  0
   20.2260    0.1937   13.3090 H   0  0  0  0  0  0  0  0  0  0  0  0
   21.4227    1.3986   12.6559 H   0  0  0  0  0  0  0  0  0  0  0  0
   19.7950    2.5986   14.2767 H   0  0  0  0  0  0  0  0  0  0  0  0
   17.0096    3.0185   12.9823 H   0  0  0  0  0  0  0  0  0  0  0  0
   17.4903    3.6724   14.5962 H   0  0  0  0  0  0  0  0  0  0  0  0
   19.2412    5.0218   13.5610 H   0  0  0  0  0  0  0  0  0  0  0  0
   16.8070    5.7531   13.7035 H   0  0  0  0  0  0  0  0  0  0  0  0
   17.8464    6.5934   12.4648 H   0  0  0  0  0  0  0  0  0  0  0  0
   15.8319    4.3760   11.9349 H   0  0  0  0  0  0  0  0  0  0  0  0
   15.6543    6.1314   11.5412 H   0  0  0  0  0  0  0  0  0  0  0  0
   16.3385    4.8719    9.5403 H   0  0  0  0  0  0  0  0  0  0  0  0
   17.6389    5.9763   10.0380 H   0  0  0  0  0  0  0  0  0  0  0  0
   17.4042    3.0311   10.8660 H   0  0  0  0  0  0  0  0  0  0  0  0
   18.4712    3.6591    9.5566 H   0  0  0  0  0  0  0  0  0  0  0  0
   19.6268    5.0736   11.1430 H   0  0  0  0  0  0  0  0  0  0  0  0
   20.8743    3.4008   12.3441 H   0  0  0  0  0  0  0  0  0  0  0  0
   20.3252    2.7094   10.7423 H   0  0  0  0  0  0  0  0  0  0  0  0
   19.4247    1.8207   16.0874 H   0  0  0  0  0  0  0  0  0  0  0  0
   18.5666    0.2311   18.9394 H   0  0  0  0  0  0  0  0  0  0  0  0
   20.0683   -0.1556   18.0327 H   0  0  0  0  0  0  0  0  0  0  0  0
   19.4259    1.5219   18.0327 H   0  0  0  0  0  0  0  0  0  0  0  0
   16.7982    0.3118   18.2944 H   0  0  0  0  0  0  0  0  0  0  0  0
   16.5016    1.2482   16.7904 H   0  0  0  0  0  0  0  0  0  0  0  0
   16.3042   -0.5372   16.7904 H   0  0  0  0  0  0  0  0  0  0  0  0
   18.7667   -1.9305   17.2493 H   0  0  0  0  0  0  0  0  0  0  0  0
   17.7944   -1.6681   15.7618 H   0  0  0  0  0  0  0  0  0  0  0  0
   19.5528   -1.3010   15.7618 H   0  0  0  0  0  0  0  0  0  0  0  0
  1  2  2  0
  1  4  1  0
  3  4  2  0
  4  5  1  0
  5  6  2  0
  7  8  1  0
  8  9  2  0
  9 10  1  0
  6 11  1  0
  7 11  2  0
  3 12  1  0
 10 12  2  0
 11 12  1  0
  1 13  1  0
 13 14  1  0
 14 15  1  0
 15 16  2  0
 14 17  1  0
 17 18  1  0
 18 19  2  0
 18 20  1  0
 21 22  1  0
 21 23  1  0
 15 24  1  0
 23 24  1  0
 23 25  1  0
 25 26  1  0
 26 27  2  0
 26 28  1  0
 27 29  1  0
 28 30  2  0
 29 31  2  0
 30 31  1  0
 21 33  1  0
 32 33  1  0
 32 34  1  0
 34 35  1  0
 35 36  2  0
 34 37  1  0
 37 38  1  0
 38 39  1  0
 39 40  1  0
 40 41  1  0
 41 42  1  0
 38 43  1  0
 42 43  1  0
 32 44  1  0
 43 44  1  0
 35 45  1  0
 45 46  1  0
 46 47  1  0
 46 48  1  0
 46 49  1  0
  5 50  1  0
  6 51  1  0
  7 52  1  0
  8 53  1  0
  9 54  1  0
 10 55  1  0
 13 56  1  0
 14 57  1  6
 17 58  1  0
 17 59  1  0
 20 60  1  0
 20 61  1  0
 21 62  1  6
 22 63  1  0
 23 64  1  1
 24 65  1  0
 25 66  1  0
 25 67  1  0
 27 68  1  0
 28 69  1  0
 29 70  1  0
 30 71  1  0
 31 72  1  0
 33 73  1  0
 33 74  1  0
 34 75  1  1
 37 76  1  0
 37 77  1  0
 38 78  1  1
 39 79  1  0
 39 80  1  0
 40 81  1  0
 40 82  1  0
 41 83  1  0
 41 84  1  0
 42 85  1  0
 42 86  1  0
 43 87  1  6
 44 88  1  0
 44 89  1  0
 45 90  1  0
 47 91  1  0
 47 92  1  0
 47 93  1  0
 48 94  1  0
 48 95  1  0
 48 96  1  0
 49 97  1  0
 49 98  1  0
 49 99  1  0
M  END
>  <PDBID>  (1) 
1HXB

>  <PDB ID>  (1) 
1HXB

>  <Generic Name>  (1) 
Saquinavir

>  <Brand Name>  (1) 
Fortovase Roche#Invirase#Invirase - Cap 200mg#Fortovase#ROC

>  <DrugBank ID>  (1) 
DB01232

>  <ATC Codes>  (1) 
J05AE01

>  <Ligand ID>  (1) 
ROC

>  <Target Name>  (1) 
Pol polyprotein

>  <UniProt ID>  (1) 
Q72874

>  <PDB ID.1>  (1) 
1HXB

>  <Seq. Identity>  (1) 
100%

$$$$
