PDB_DB00491_98
     RDKit          3D

 31 31  0  0  0  0  0  0  0  0999 V2000
  -17.2770  -34.7580   94.0600 O   0  0  0  0  0  0  0  0  0  0  0  0
  -16.5440  -30.1440   96.3220 O   0  0  0  0  0  0  0  0  0  0  0  0
  -11.3190  -32.3980   94.3060 O   0  0  0  0  0  0  0  0  0  0  0  0
  -11.3330  -30.7800   96.7230 O   0  0  0  0  0  0  0  0  0  0  0  0
  -13.6130  -31.0370   98.3700 O   0  0  0  0  0  0  0  0  0  0  0  0
  -16.3070  -34.1640   94.9240 C   0  0  0  0  0  0  0  0  0  0  0  0
  -16.2270  -31.3520   97.0260 C   0  0  0  0  0  0  0  0  0  0  0  0
  -16.1050  -32.7150   94.4660 C   0  0  0  0  0  0  0  0  0  0  0  0
  -13.6850  -32.6960   94.5510 C   0  0  0  0  0  0  0  0  0  0  0  0
  -12.4960  -31.8180   94.8750 C   0  0  1  0  0  0  0  0  0  0  0  0
  -12.4010  -31.6600   96.3870 C   0  0  2  0  0  0  0  0  0  0  0  0
  -13.7040  -31.1150   96.9550 C   0  0  1  0  0  0  0  0  0  0  0  0
  -14.9160  -31.9560   96.5260 C   0  0  2  0  0  0  0  0  0  0  0  0
  -14.9140  -32.0510   95.0540 N   0  0  0  0  0  0  0  0  0  0  0  0
  -17.9826  -35.1901   94.6037 H   0  0  0  0  0  0  0  0  0  0  0  0
  -16.7333  -29.4226   96.9731 H   0  0  0  0  0  0  0  0  0  0  0  0
  -10.7143  -32.6960   95.0310 H   0  0  0  0  0  0  0  0  0  0  0  0
  -11.2555  -30.7161   97.7079 H   0  0  0  0  0  0  0  0  0  0  0  0
  -14.2980  -31.6241   98.7776 H   0  0  0  0  0  0  0  0  0  0  0  0
  -16.6685  -34.1823   95.9627 H   0  0  0  0  0  0  0  0  0  0  0  0
  -15.3584  -34.7192   94.8800 H   0  0  0  0  0  0  0  0  0  0  0  0
  -16.1324  -31.1277   98.0987 H   0  0  0  0  0  0  0  0  0  0  0  0
  -17.0340  -32.0787   96.8510 H   0  0  0  0  0  0  0  0  0  0  0  0
  -15.9968  -32.7111   93.3713 H   0  0  0  0  0  0  0  0  0  0  0  0
  -16.9838  -32.1496   94.8095 H   0  0  0  0  0  0  0  0  0  0  0  0
  -13.7584  -32.8291   93.4616 H   0  0  0  0  0  0  0  0  0  0  0  0
  -13.5606  -33.6790   95.0288 H   0  0  0  0  0  0  0  0  0  0  0  0
  -12.6094  -30.8134   94.4414 H   0  0  0  0  0  0  0  0  0  0  0  0
  -12.2096  -32.6516   96.8231 H   0  0  0  0  0  0  0  0  0  0  0  0
  -13.8596  -30.1055   96.5466 H   0  0  0  0  0  0  0  0  0  0  0  0
  -14.8385  -32.9583   96.9726 H   0  0  0  0  0  0  0  0  0  0  0  0
  1  6  1  0
  2  7  1  0
  6  8  1  0
  3 10  1  0
  9 10  1  0
  4 11  1  0
 10 11  1  0
  5 12  1  0
 11 12  1  0
  7 13  1  0
 12 13  1  0
  8 14  1  0
  9 14  1  0
 13 14  1  0
  1 15  1  0
  2 16  1  0
  3 17  1  0
  4 18  1  0
  5 19  1  0
  6 20  1  0
  6 21  1  0
  7 22  1  0
  7 23  1  0
  8 24  1  0
  8 25  1  0
  9 26  1  0
  9 27  1  0
 10 28  1  6
 11 29  1  1
 12 30  1  6
 13 31  1  1
M  END
>  <PDBID>  (1) 
5NN6

>  <PDB ID>  (1) 
5NN6

>  <Generic Name>  (1) 
Miglitol

>  <Brand Name>  (1) 
Glyset#Miglitol#Diaban#Diamig#Diaset#Diastabol#Elitox#Euglitol#Glycet#Laiping#Migbose#Miglit#Mignar#Migtor#Misobit#Plumarol#Seibule

>  <DrugBank ID>  (1) 
DB00491

>  <ATC Codes>  (1) 
A10BF02

>  <Ligand ID>  (1) 
MIG

>  <Target Name>  (1) 
Maltase-glucoamylase, intestinal

>  <UniProt ID>  (1) 
O43451

>  <PDB ID.1>  (1) 
5NN6

>  <Seq. Identity>  (1) 
43%

$$$$
