PDB_DB00619_99
     RDKit          3D

 68 72  0  0  0  0  0  0  0  0999 V2000
   32.6960   24.7000   47.5410 C   0  0  0  0  0  0  0  0  0  0  0  0
   31.8180   25.4090   46.7190 C   0  0  0  0  0  0  0  0  0  0  0  0
   30.6070   24.8220   46.3550 C   0  0  0  0  0  0  0  0  0  0  0  0
   30.2890   23.5400   46.7930 C   0  0  0  0  0  0  0  0  0  0  0  0
   31.1560   22.8770   47.5750 N   0  0  0  0  0  0  0  0  0  0  0  0
   32.3300   23.4240   47.9550 C   0  0  0  0  0  0  0  0  0  0  0  0
   29.6570   25.5420   45.4790 C   0  0  0  0  0  0  0  0  0  0  0  0
   29.9720   26.7830   44.9260 C   0  0  0  0  0  0  0  0  0  0  0  0
   29.0340   27.3880   44.0930 C   0  0  0  0  0  0  0  0  0  0  0  0
   27.8540   26.7890   43.8490 N   0  0  0  0  0  0  0  0  0  0  0  0
   27.5660   25.5940   44.4210 C   0  0  0  0  0  0  0  0  0  0  0  0
   28.4650   24.9750   45.2160 N   0  0  0  0  0  0  0  0  0  0  0  0
   26.4040   24.9540   44.2010 N   0  0  0  0  0  0  0  0  0  0  0  0
   25.3470   25.5110   43.5600 C   0  0  0  0  0  0  0  0  0  0  0  0
   24.2990   26.0650   44.2940 C   0  0  0  0  0  0  0  0  0  0  0  0
   23.2070   26.6100   43.6280 C   0  0  0  0  0  0  0  0  0  0  0  0
   23.1490   26.6030   42.2330 C   0  0  0  0  0  0  0  0  0  0  0  0
   24.1950   26.0540   41.4950 C   0  0  0  0  0  0  0  0  0  0  0  0
   25.2830   25.4900   42.1650 C   0  0  0  0  0  0  0  0  0  0  0  0
   24.0610   26.0500   40.0970 N   0  0  0  0  0  0  0  0  0  0  0  0
   24.9820   25.6240   39.2380 C   0  0  0  0  0  0  0  0  0  0  0  0
   24.6520   25.6310   37.7790 C   0  0  0  0  0  0  0  0  0  0  0  0
   25.4430   24.8950   36.8960 C   0  0  0  0  0  0  0  0  0  0  0  0
   25.1350   24.8970   35.5390 C   0  0  0  0  0  0  0  0  0  0  0  0
   24.0400   25.6290   35.0810 C   0  0  0  0  0  0  0  0  0  0  0  0
   23.2420   26.3570   35.9610 C   0  0  0  0  0  0  0  0  0  0  0  0
   23.5530   26.3490   37.3180 C   0  0  0  0  0  0  0  0  0  0  0  0
   23.7080   25.6150   33.6100 C   0  0  0  0  0  0  0  0  0  0  0  0
   23.6120   26.9460   33.0270 N   0  0  0  0  0  0  0  0  0  0  0  0
   24.7780   27.8090   33.1870 C   0  0  0  0  0  0  0  0  0  0  0  0
   24.4070   29.2250   32.7690 C   0  0  0  0  0  0  0  0  0  0  0  0
   23.8580   29.1530   31.4220 N   0  0  0  0  0  0  0  0  0  0  0  0
   23.8300   30.4370   30.7290 C   0  0  0  0  0  0  0  0  0  0  0  0
   22.6960   28.3020   31.1910 C   0  0  0  0  0  0  0  0  0  0  0  0
   22.9660   26.9000   31.7180 C   0  0  0  0  0  0  0  0  0  0  0  0
   26.0670   25.2150   39.5910 O   0  0  0  0  0  0  0  0  0  0  0  0
   24.3250   26.0840   45.8060 C   0  0  0  0  0  0  0  0  0  0  0  0
   33.6543   25.1403   47.8536 H   0  0  0  0  0  0  0  0  0  0  0  0
   32.0782   26.4169   46.3635 H   0  0  0  0  0  0  0  0  0  0  0  0
   29.3362   23.0741   46.5013 H   0  0  0  0  0  0  0  0  0  0  0  0
   33.0089   22.8505   48.6033 H   0  0  0  0  0  0  0  0  0  0  0  0
   30.9343   27.2703   45.1417 H   0  0  0  0  0  0  0  0  0  0  0  0
   29.2590   28.3610   43.6319 H   0  0  0  0  0  0  0  0  0  0  0  0
   26.3116   23.9853   44.5387 H   0  0  0  0  0  0  0  0  0  0  0  0
   22.3810   27.0508   44.2055 H   0  0  0  0  0  0  0  0  0  0  0  0
   22.2771   27.0311   41.7167 H   0  0  0  0  0  0  0  0  0  0  0  0
   26.0966   25.0252   41.5889 H   0  0  0  0  0  0  0  0  0  0  0  0
   23.1774   26.4060   39.7054 H   0  0  0  0  0  0  0  0  0  0  0  0
   26.3022   24.3185   37.2692 H   0  0  0  0  0  0  0  0  0  0  0  0
   25.7521   24.3241   34.8312 H   0  0  0  0  0  0  0  0  0  0  0  0
   22.3794   26.9294   35.5892 H   0  0  0  0  0  0  0  0  0  0  0  0
   22.9284   26.9117   38.0274 H   0  0  0  0  0  0  0  0  0  0  0  0
   24.4947   25.0580   33.0801 H   0  0  0  0  0  0  0  0  0  0  0  0
   22.7207   25.1416   33.5040 H   0  0  0  0  0  0  0  0  0  0  0  0
   25.0969   27.8067   34.2397 H   0  0  0  0  0  0  0  0  0  0  0  0
   25.6026   27.4400   32.5594 H   0  0  0  0  0  0  0  0  0  0  0  0
   23.6558   29.6360   33.4595 H   0  0  0  0  0  0  0  0  0  0  0  0
   25.2900   29.8806   32.7935 H   0  0  0  0  0  0  0  0  0  0  0  0
   23.8122   31.2520   31.4676 H   0  0  0  0  0  0  0  0  0  0  0  0
   24.7263   30.5330   30.0985 H   0  0  0  0  0  0  0  0  0  0  0  0
   22.9304   30.4938   30.0985 H   0  0  0  0  0  0  0  0  0  0  0  0
   21.8247   28.7256   31.7119 H   0  0  0  0  0  0  0  0  0  0  0  0
   22.4951   28.2497   30.1108 H   0  0  0  0  0  0  0  0  0  0  0  0
   23.6226   26.3709   31.0117 H   0  0  0  0  0  0  0  0  0  0  0  0
   22.0053   26.3742   31.8207 H   0  0  0  0  0  0  0  0  0  0  0  0
   23.4942   25.4768   46.1947 H   0  0  0  0  0  0  0  0  0  0  0  0
   25.2798   25.6693   46.1615 H   0  0  0  0  0  0  0  0  0  0  0  0
   24.2200   27.1196   46.1615 H   0  0  0  0  0  0  0  0  0  0  0  0
  1  2  2  0
  2  3  1  0
  3  4  2  0
  4  5  1  0
  1  6  1  0
  5  6  2  0
  3  7  1  0
  7  8  2  0
  8  9  1  0
  9 10  2  0
 10 11  1  0
  7 12  1  0
 11 12  2  0
 11 13  1  0
 13 14  1  0
 14 15  2  0
 15 16  1  0
 16 17  2  0
 17 18  1  0
 14 19  1  0
 18 19  2  0
 18 20  1  0
 20 21  1  0
 21 22  1  0
 22 23  2  0
 23 24  1  0
 24 25  2  0
 25 26  1  0
 22 27  1  0
 26 27  2  0
 25 28  1  0
 28 29  1  0
 29 30  1  0
 30 31  1  0
 31 32  1  0
 32 33  1  0
 32 34  1  0
 29 35  1  0
 34 35  1  0
 21 36  2  0
 15 37  1  0
  1 38  1  0
  2 39  1  0
  4 40  1  0
  6 41  1  0
  8 42  1  0
  9 43  1  0
 13 44  1  0
 16 45  1  0
 17 46  1  0
 19 47  1  0
 20 48  1  0
 23 49  1  0
 24 50  1  0
 26 51  1  0
 27 52  1  0
 28 53  1  0
 28 54  1  0
 30 55  1  0
 30 56  1  0
 31 57  1  0
 31 58  1  0
 33 59  1  0
 33 60  1  0
 33 61  1  0
 34 62  1  0
 34 63  1  0
 35 64  1  0
 35 65  1  0
 37 66  1  0
 37 67  1  0
 37 68  1  0
M  END
>  <PDBID>  (1) 
1T46

>  <PDB ID>  (1) 
1T46

>  <Generic Name>  (1) 
Imatinib

>  <Brand Name>  (1) 
Apo-imatinib#Gleevec#Imatinib Mesylate#Mylan-imatinib#Nat-imatinib#PMS-imatinib#Ran-imatinib#Teva-imatinib#Celonib#Enliven#Glivec#Imatib#Mesylonib#Mitinab#Plivatinib#Shantinib

>  <DrugBank ID>  (1) 
DB00619

>  <ATC Codes>  (1) 
L01XE01

>  <Ligand ID>  (1) 
STI

>  <Target Name>  (1) 
Mast/stem cell growth factor receptor Kit

>  <UniProt ID>  (1) 
P10721

>  <PDB ID.1>  (1) 
1T46

>  <Seq. Identity>  (1) 
90%

$$$$
