PDB_DB04835_98
     RDKit          3D

 78 82  0  0  0  0  0  0  0  0999 V2000
  180.6070  115.0910   17.7180 F   0  0  0  0  0  0  0  0  0  0  0  0
  181.7160  112.6060   21.8210 O   0  0  0  0  0  0  0  0  0  0  0  0
  188.6140  108.2570   22.6070 C   0  0  0  0  0  0  0  0  0  0  0  0
  190.1250  108.0400   22.6250 N   0  0  0  0  0  0  0  0  0  0  0  0
  184.9490  110.5220   23.4210 C   0  0  0  0  0  0  0  0  0  0  0  0
  190.8430  109.7140   24.4350 C   0  0  0  0  0  0  0  0  0  0  0  0
  185.0370  112.0070   23.0730 C   0  0  0  0  0  0  0  0  0  0  0  0
  183.8560  112.7280   23.6750 C   0  0  1  0  0  0  0  0  0  0  0  0
  190.2500  106.2570   20.7800 C   0  0  0  0  0  0  0  0  0  0  0  0
  184.0850  113.1240   25.0020 C   0  0  0  0  0  0  0  0  0  0  0  0
  182.3610  113.6520   21.9310 C   0  0  0  0  0  0  0  0  0  0  0  0
  182.0570  114.8610   21.0270 C   0  0  0  0  0  0  0  0  0  0  0  0
  181.0790  116.1150   18.4820 C   0  0  0  0  0  0  0  0  0  0  0  0
  191.6840  110.9770   24.2050 C   0  0  0  0  0  0  0  0  0  0  0  0
  180.9460  117.1770   17.7130 F   0  0  0  0  0  0  0  0  0  0  0  0
  186.2690  109.8690   23.2700 N   0  0  0  0  0  0  0  0  0  0  0  0
  186.6350  109.6590   21.8550 C   0  0  1  0  0  0  0  0  0  0  0  0
  191.0460  109.1010   25.8130 C   0  0  0  0  0  0  0  0  0  0  0  0
  182.8020  114.6680   19.6730 C   0  0  0  0  0  0  0  0  0  0  0  0
  180.5230  115.0630   20.7980 C   0  0  0  0  0  0  0  0  0  0  0  0
  182.5960  115.8910   18.7600 C   0  0  0  0  0  0  0  0  0  0  0  0
  180.2610  116.2690   19.8270 C   0  0  0  0  0  0  0  0  0  0  0  0
  183.2060  112.6530   25.9960 C   0  0  0  0  0  0  0  0  0  0  0  0
  185.1980  113.9070   25.3670 C   0  0  0  0  0  0  0  0  0  0  0  0
  183.4080  112.9940   27.3380 C   0  0  0  0  0  0  0  0  0  0  0  0
  185.4100  114.2370   26.7090 C   0  0  0  0  0  0  0  0  0  0  0  0
  184.5130  113.7850   27.6910 C   0  0  0  0  0  0  0  0  0  0  0  0
  186.3540  108.4930   23.8350 C   0  0  2  0  0  0  0  0  0  0  0  0
  192.2790  108.1260   23.0220 N   0  0  0  0  0  0  0  0  0  0  0  0
  191.0820  108.6390   23.3480 C   0  0  0  0  0  0  0  0  0  0  0  0
  192.1270  107.2800   22.1390 N   0  0  0  0  0  0  0  0  0  0  0  0
  183.4230  113.8050   22.7690 N   0  0  0  0  0  0  0  0  0  0  0  0
  188.1650  109.4660   21.7580 C   0  0  0  0  0  0  0  0  0  0  0  0
  187.8330  108.0490   23.9560 C   0  0  0  0  0  0  0  0  0  0  0  0
  190.8240  107.1990   21.8490 C   0  0  0  0  0  0  0  0  0  0  0  0
  185.8620  108.3890   21.4600 C   0  0  0  0  0  0  0  0  0  0  0  0
  185.6610  107.6220   22.7780 C   0  0  0  0  0  0  0  0  0  0  0  0
  188.2629  107.3745   22.0521 H   0  0  0  0  0  0  0  0  0  0  0  0
  184.6103  110.4147   24.4620 H   0  0  0  0  0  0  0  0  0  0  0  0
  184.2362  110.0403   22.7356 H   0  0  0  0  0  0  0  0  0  0  0  0
  189.7999  110.0567   24.3687 H   0  0  0  0  0  0  0  0  0  0  0  0
  185.9697  112.4255   23.4791 H   0  0  0  0  0  0  0  0  0  0  0  0
  185.0286  112.1318   21.9801 H   0  0  0  0  0  0  0  0  0  0  0  0
  183.0091  112.0318   23.7644 H   0  0  0  0  0  0  0  0  0  0  0  0
  189.7374  105.4158   21.2696 H   0  0  0  0  0  0  0  0  0  0  0  0
  189.5338  106.8077   20.1525 H   0  0  0  0  0  0  0  0  0  0  0  0
  191.0677  105.8730   20.1525 H   0  0  0  0  0  0  0  0  0  0  0  0
  182.4136  115.7729   21.5283 H   0  0  0  0  0  0  0  0  0  0  0  0
  191.9711  111.4081   25.1754 H   0  0  0  0  0  0  0  0  0  0  0  0
  192.5894  110.7163   23.6374 H   0  0  0  0  0  0  0  0  0  0  0  0
  191.0943  111.7119   23.6374 H   0  0  0  0  0  0  0  0  0  0  0  0
  186.3856  110.4996   21.1907 H   0  0  0  0  0  0  0  0  0  0  0  0
  190.7997  109.8448   26.5851 H   0  0  0  0  0  0  0  0  0  0  0  0
  190.3899  108.2252   25.9250 H   0  0  0  0  0  0  0  0  0  0  0  0
  192.0951  108.7899   25.9250 H   0  0  0  0  0  0  0  0  0  0  0  0
  183.8770  114.5393   19.8674 H   0  0  0  0  0  0  0  0  0  0  0  0
  182.3963  113.7781   19.1695 H   0  0  0  0  0  0  0  0  0  0  0  0
  180.0998  114.1475   20.3591 H   0  0  0  0  0  0  0  0  0  0  0  0
  180.0462  115.2780   21.7657 H   0  0  0  0  0  0  0  0  0  0  0  0
  183.1178  115.7229   17.8064 H   0  0  0  0  0  0  0  0  0  0  0  0
  183.0011  116.7820   19.2619 H   0  0  0  0  0  0  0  0  0  0  0  0
  180.5636  117.2019   20.3252 H   0  0  0  0  0  0  0  0  0  0  0  0
  179.1892  116.2883   19.5802 H   0  0  0  0  0  0  0  0  0  0  0  0
  182.3559  112.0135   25.7161 H   0  0  0  0  0  0  0  0  0  0  0  0
  185.8999  114.2585   24.5964 H   0  0  0  0  0  0  0  0  0  0  0  0
  182.7066  112.6451   28.1103 H   0  0  0  0  0  0  0  0  0  0  0  0
  186.2777  114.8495   26.9953 H   0  0  0  0  0  0  0  0  0  0  0  0
  184.6776  114.0529   28.7451 H   0  0  0  0  0  0  0  0  0  0  0  0
  185.9027  108.4228   24.8357 H   0  0  0  0  0  0  0  0  0  0  0  0
  183.9371  114.6975   22.7693 H   0  0  0  0  0  0  0  0  0  0  0  0
  188.6680  110.3727   22.1253 H   0  0  0  0  0  0  0  0  0  0  0  0
  188.4338  109.2816   20.7074 H   0  0  0  0  0  0  0  0  0  0  0  0
  187.8644  106.9830   24.2256 H   0  0  0  0  0  0  0  0  0  0  0  0
  188.3142  108.6652   24.7298 H   0  0  0  0  0  0  0  0  0  0  0  0
  184.8917  108.6500   21.0123 H   0  0  0  0  0  0  0  0  0  0  0  0
  186.4026  107.7913   20.7113 H   0  0  0  0  0  0  0  0  0  0  0  0
  186.1287  106.6278   22.7252 H   0  0  0  0  0  0  0  0  0  0  0  0
  184.5986  107.4509   23.0061 H   0  0  0  0  0  0  0  0  0  0  0  0
  3  4  1  0
  5  7  1  0
  7  8  1  0
  8 10  1  0
  2 11  2  0
 11 12  1  0
  1 13  1  0
  6 14  1  0
 13 15  1  0
  5 16  1  0
 16 17  1  0
  6 18  1  0
 12 19  1  0
 12 20  1  0
 13 21  1  0
 19 21  1  0
 13 22  1  0
 20 22  1  0
 10 23  2  0
 10 24  1  0
 23 25  1  0
 24 26  2  0
 25 27  2  0
 26 27  1  0
 16 28  1  0
  4 30  1  0
  6 30  1  0
 29 30  2  0
 29 31  1  0
  8 32  1  0
 11 32  1  0
  3 33  1  0
 17 33  1  0
  3 34  1  0
 28 34  1  0
  4 35  1  0
  9 35  1  0
 31 35  2  0
 17 36  1  0
 28 37  1  0
 36 37  1  0
  3 38  1  0
  5 39  1  0
  5 40  1  0
  6 41  1  0
  7 42  1  0
  7 43  1  0
  8 44  1  1
  9 45  1  0
  9 46  1  0
  9 47  1  0
 12 48  1  0
 14 49  1  0
 14 50  1  0
 14 51  1  0
 17 52  1  6
 18 53  1  0
 18 54  1  0
 18 55  1  0
 19 56  1  0
 19 57  1  0
 20 58  1  0
 20 59  1  0
 21 60  1  0
 21 61  1  0
 22 62  1  0
 22 63  1  0
 23 64  1  0
 24 65  1  0
 25 66  1  0
 26 67  1  0
 27 68  1  0
 28 69  1  1
 32 70  1  0
 33 71  1  0
 33 72  1  0
 34 73  1  0
 34 74  1  0
 36 75  1  0
 36 76  1  0
 37 77  1  0
 37 78  1  0
M  END
$$$$
