PDB_DB00481_98
     RDKit          3D

166174  0  0  0  0  0  0  0  0999 V2000
   69.5710   36.2230   71.9170 C   0  0  0  0  0  0  0  0  0  0  0  0
   69.8160   37.4480   71.3520 C   0  0  0  0  0  0  0  0  0  0  0  0
   69.0830   37.9330   70.3050 C   0  0  0  0  0  0  0  0  0  0  0  0
   69.4100   39.1860   69.8500 O   0  0  0  0  0  0  0  0  0  0  0  0
   68.0290   37.1670   69.7940 C   0  0  0  0  0  0  0  0  0  0  0  0
   67.7650   35.9560   70.3850 C   0  0  1  0  0  0  0  0  0  0  0  0
   66.6380   34.8150   69.9860 S   0  0  0  0  0  0  0  0  0  0  0  0
   67.0010   33.6910   71.1920 C   0  0  1  0  0  0  0  0  0  0  0  0
   66.3470   32.3560   71.3010 C   0  0  1  0  0  0  0  0  0  0  0  0
   66.0870   31.7270   70.0990 C   0  0  0  0  0  0  0  0  0  0  0  0
   65.5600   30.4460   70.1280 C   0  0  0  0  0  0  0  0  0  0  0  0
   65.2590   29.8170   71.3200 C   0  0  1  0  0  0  0  0  0  0  0  0
   64.7350   28.5250   71.2490 O   0  0  0  0  0  0  0  0  0  0  0  0
   65.5620   30.4280   72.5190 C   0  0  0  0  0  0  0  0  0  0  0  0
   66.1060   31.7060   72.4800 C   0  0  0  0  0  0  0  0  0  0  0  0
   68.5560   35.4680   71.4640 C   0  0  0  0  0  0  0  0  0  0  0  0
   68.1280   34.1500   71.9060 C   0  0  0  0  0  0  0  0  0  0  0  0
   68.7710   33.4630   72.9180 C   0  0  0  0  0  0  0  0  0  0  0  0
   69.3680   32.4120   72.6530 O   0  0  0  0  0  0  0  0  0  0  0  0
   68.7680   33.9170   74.3130 C   0  0  0  0  0  0  0  0  0  0  0  0
   69.6210   33.3510   75.2390 C   0  0  0  0  0  0  0  0  0  0  0  0
   69.6330   33.7450   76.5630 C   0  0  0  0  0  0  0  0  0  0  0  0
   68.7330   34.7250   76.9780 C   0  0  0  0  0  0  0  0  0  0  0  0
   67.8790   35.3050   76.0570 C   0  0  0  0  0  0  0  0  0  0  0  0
   67.9070   34.9100   74.7300 C   0  0  0  0  0  0  0  0  0  0  0  0
   68.5550   35.2590   78.2200 O   0  0  0  0  0  0  0  0  0  0  0  0
   69.4610   34.8370   79.2280 C   0  0  0  0  0  0  0  0  0  0  0  0
   69.3110   35.6920   80.4580 C   0  0  0  0  0  0  0  0  0  0  0  0
   69.0230   37.1100   80.5570 N   0  0  0  0  0  0  0  0  0  0  0  0
   68.7200   37.4370   81.9650 C   0  0  0  0  0  0  0  0  0  0  0  0
   68.5440   38.9460   82.2290 C   0  0  0  0  0  0  0  0  0  0  0  0
   67.3380   39.4040   81.3930 C   0  0  0  0  0  0  0  0  0  0  0  0
   67.8040   39.1970   79.9190 C   0  0  0  0  0  0  0  0  0  0  0  0
   67.9600   37.6810   79.7070 C   0  0  0  0  0  0  0  0  0  0  0  0
   37.1360   24.7860   77.9430 C   0  0  0  0  0  0  0  0  0  0  0  0
   36.0770   25.0700   77.1120 C   0  0  0  0  0  0  0  0  0  0  0  0
   35.9570   26.3280   76.5780 C   0  0  0  0  0  0  0  0  0  0  0  0
   34.8710   26.5280   75.7540 O   0  0  0  0  0  0  0  0  0  0  0  0
   36.8820   27.3100   76.9070 C   0  0  0  0  0  0  0  0  0  0  0  0
   37.9250   27.0330   77.7380 C   0  0  0  0  0  0  0  0  0  0  0  0
   39.1460   28.0220   78.3550 S   0  0  0  0  0  0  0  0  0  0  0  0
   39.9700   26.8050   79.2080 C   0  0  1  0  0  0  0  0  0  0  0  0
   41.1990   27.0190   80.0190 C   0  0  0  0  0  0  0  0  0  0  0  0
   41.3450   28.1850   80.7280 C   0  0  0  0  0  0  0  0  0  0  0  0
   42.4380   28.4110   81.5480 C   0  0  0  0  0  0  0  0  0  0  0  0
   43.4370   27.4480   81.6120 C   0  0  0  0  0  0  0  0  0  0  0  0
   44.5210   27.6950   82.4320 O   0  0  0  0  0  0  0  0  0  0  0  0
   43.3140   26.2900   80.8850 C   0  0  0  0  0  0  0  0  0  0  0  0
   42.1790   26.0850   80.1080 C   0  0  0  0  0  0  0  0  0  0  0  0
   38.0540   25.7380   78.2520 C   0  0  0  0  0  0  0  0  0  0  0  0
   39.2270   25.6130   79.0900 C   0  0  0  0  0  0  0  0  0  0  0  0
   39.5400   24.4340   79.7180 C   0  0  1  0  0  0  0  0  0  0  0  0
   39.6340   24.3720   80.9320 O   0  0  0  0  0  0  0  0  0  0  0  0
   39.9140   23.2300   78.9940 C   0  0  1  0  0  0  0  0  0  0  0  0
   39.9720   22.0940   79.7650 C   0  0  0  0  0  0  0  0  0  0  0  0
   40.3960   20.8760   79.2140 C   0  0  0  0  0  0  0  0  0  0  0  0
   40.7710   20.8950   77.9010 C   0  0  0  0  0  0  0  0  0  0  0  0
   40.7520   22.0570   77.1160 C   0  0  0  0  0  0  0  0  0  0  0  0
   40.3050   23.2450   77.6790 C   0  0  0  0  0  0  0  0  0  0  0  0
   41.2040   19.7910   77.2000 O   0  0  0  0  0  0  0  0  0  0  0  0
   40.3190   18.7060   77.1230 C   0  0  0  0  0  0  0  0  0  0  0  0
   41.1960   17.6250   76.4110 C   0  0  0  0  0  0  0  0  0  0  0  0
   40.8950   17.5620   74.9840 N   0  0  0  0  0  0  0  0  0  0  0  0
   41.6590   16.5620   74.2940 C   0  0  0  0  0  0  0  0  0  0  0  0
   41.4880   16.5070   72.7790 C   0  0  0  0  0  0  0  0  0  0  0  0
   41.5760   17.9290   72.2160 C   0  0  0  0  0  0  0  0  0  0  0  0
   40.3880   18.7220   72.8420 C   0  0  0  0  0  0  0  0  0  0  0  0
   40.7480   18.8760   74.3550 C   0  0  0  0  0  0  0  0  0  0  0  0
   70.4884   35.6280   71.7969 H   0  0  0  0  0  0  0  0  0  0  0  0
   69.2635   36.4732   72.9431 H   0  0  0  0  0  0  0  0  0  0  0  0
   69.7149   38.1843   72.1629 H   0  0  0  0  0  0  0  0  0  0  0  0
   70.7991   37.2887   70.8849 H   0  0  0  0  0  0  0  0  0  0  0  0
   68.3666   38.3767   71.0121 H   0  0  0  0  0  0  0  0  0  0  0  0
   69.5667   39.7866   70.6212 H   0  0  0  0  0  0  0  0  0  0  0  0
   67.1155   37.7748   69.8720 H   0  0  0  0  0  0  0  0  0  0  0  0
   68.3468   36.9101   68.7727 H   0  0  0  0  0  0  0  0  0  0  0  0
   67.0378   36.4406   71.0531 H   0  0  0  0  0  0  0  0  0  0  0  0
   66.2763   33.2135   71.8679 H   0  0  0  0  0  0  0  0  0  0  0  0
   65.3585   32.8371   71.2630 H   0  0  0  0  0  0  0  0  0  0  0  0
   65.3754   32.3594   69.5479 H   0  0  0  0  0  0  0  0  0  0  0  0
   67.0780   31.6022   69.6383 H   0  0  0  0  0  0  0  0  0  0  0  0
   64.6241   30.4822   69.5511 H   0  0  0  0  0  0  0  0  0  0  0  0
   66.3927   29.8387   69.7436 H   0  0  0  0  0  0  0  0  0  0  0  0
   64.2410   30.2320   71.2819 H   0  0  0  0  0  0  0  0  0  0  0  0
   64.5933   28.1756   72.1644 H   0  0  0  0  0  0  0  0  0  0  0  0
   64.6305   30.4865   73.1011 H   0  0  0  0  0  0  0  0  0  0  0  0
   66.3571   29.8037   72.9526 H   0  0  0  0  0  0  0  0  0  0  0  0
   67.0729   31.6450   73.0010 H   0  0  0  0  0  0  0  0  0  0  0  0
   65.2999   32.3133   72.9176 H   0  0  0  0  0  0  0  0  0  0  0  0
   67.8763   35.9516   72.1810 H   0  0  0  0  0  0  0  0  0  0  0  0
   68.7897   33.6851   71.1604 H   0  0  0  0  0  0  0  0  0  0  0  0
   67.8518   32.8914   73.1140 H   0  0  0  0  0  0  0  0  0  0  0  0
   69.6259   31.9579   73.4941 H   0  0  0  0  0  0  0  0  0  0  0  0
   68.0040   33.1639   74.5564 H   0  0  0  0  0  0  0  0  0  0  0  0
   69.4012   32.2732   75.2410 H   0  0  0  0  0  0  0  0  0  0  0  0
   70.6042   33.6968   74.8873 H   0  0  0  0  0  0  0  0  0  0  0  0
   69.4376   32.8483   77.1694 H   0  0  0  0  0  0  0  0  0  0  0  0
   70.6187   34.2156   76.6926 H   0  0  0  0  0  0  0  0  0  0  0  0
   69.4837   35.5020   76.7712 H   0  0  0  0  0  0  0  0  0  0  0  0
   66.8557   35.1252   76.4184 H   0  0  0  0  0  0  0  0  0  0  0  0
   68.2303   36.3465   76.0138 H   0  0  0  0  0  0  0  0  0  0  0  0
   68.1498   35.8059   74.1397 H   0  0  0  0  0  0  0  0  0  0  0  0
   66.9162   34.4542   74.5869 H   0  0  0  0  0  0  0  0  0  0  0  0
   69.2523   33.7886   79.4874 H   0  0  0  0  0  0  0  0  0  0  0  0
   70.4888   34.9344   78.8483 H   0  0  0  0  0  0  0  0  0  0  0  0
   68.5044   35.2092   81.0292 H   0  0  0  0  0  0  0  0  0  0  0  0
   70.3708   35.7291   80.7503 H   0  0  0  0  0  0  0  0  0  0  0  0
   67.7886   36.9245   82.2475 H   0  0  0  0  0  0  0  0  0  0  0  0
   69.5811   37.1051   82.5636 H   0  0  0  0  0  0  0  0  0  0  0  0
   68.3538   39.1241   83.2977 H   0  0  0  0  0  0  0  0  0  0  0  0
   69.4510   39.5040   81.9531 H   0  0  0  0  0  0  0  0  0  0  0  0
   66.4527   38.7896   81.6137 H   0  0  0  0  0  0  0  0  0  0  0  0
   67.0455   40.4432   81.6038 H   0  0  0  0  0  0  0  0  0  0  0  0
   67.0523   39.6005   79.2246 H   0  0  0  0  0  0  0  0  0  0  0  0
   68.7528   39.7203   79.7294 H   0  0  0  0  0  0  0  0  0  0  0  0
   68.2099   37.4938   78.6522 H   0  0  0  0  0  0  0  0  0  0  0  0
   67.0098   37.2000   79.9824 H   0  0  0  0  0  0  0  0  0  0  0  0
   36.7042   24.4460   78.8959 H   0  0  0  0  0  0  0  0  0  0  0  0
   37.7217   24.0655   77.3532 H   0  0  0  0  0  0  0  0  0  0  0  0
   36.1357   24.3679   76.2673 H   0  0  0  0  0  0  0  0  0  0  0  0
   35.2005   24.9839   77.7711 H   0  0  0  0  0  0  0  0  0  0  0  0
   36.5579   26.0171   75.7106 H   0  0  0  0  0  0  0  0  0  0  0  0
   34.0619   26.6770   76.3047 H   0  0  0  0  0  0  0  0  0  0  0  0
   37.3192   27.6596   75.9601 H   0  0  0  0  0  0  0  0  0  0  0  0
   36.2841   28.0230   77.4936 H   0  0  0  0  0  0  0  0  0  0  0  0
   38.5555   26.7973   76.8680 H   0  0  0  0  0  0  0  0  0  0  0  0
   40.5898   26.6036   78.3219 H   0  0  0  0  0  0  0  0  0  0  0  0
   41.6901   27.4848   79.1519 H   0  0  0  0  0  0  0  0  0  0  0  0
   41.3414   28.9986   79.9877 H   0  0  0  0  0  0  0  0  0  0  0  0
   40.5204   28.1204   81.4531 H   0  0  0  0  0  0  0  0  0  0  0  0
   42.9101   29.3444   81.2076 H   0  0  0  0  0  0  0  0  0  0  0  0
   42.0122   28.4204   82.5622 H   0  0  0  0  0  0  0  0  0  0  0  0
   43.9594   27.9343   80.7750 H   0  0  0  0  0  0  0  0  0  0  0  0
   44.2398   27.6309   83.3790 H   0  0  0  0  0  0  0  0  0  0  0  0
   44.1784   26.2454   80.2062 H   0  0  0  0  0  0  0  0  0  0  0  0
   43.2433   25.5083   81.6556 H   0  0  0  0  0  0  0  0  0  0  0  0
   41.7019   25.1712   80.4919 H   0  0  0  0  0  0  0  0  0  0  0  0
   42.5907   26.0788   79.0880 H   0  0  0  0  0  0  0  0  0  0  0  0
   38.6497   25.4487   77.3736 H   0  0  0  0  0  0  0  0  0  0  0  0
   38.6297   25.8983   79.9686 H   0  0  0  0  0  0  0  0  0  0  0  0
   40.6097   24.6806   79.6478 H   0  0  0  0  0  0  0  0  0  0  0  0
   38.8836   24.8669   81.3468 H   0  0  0  0  0  0  0  0  0  0  0  0
   40.9741   23.4300   79.2090 H   0  0  0  0  0  0  0  0  0  0  0  0
   40.6532   22.3153   80.5999 H   0  0  0  0  0  0  0  0  0  0  0  0
   38.9145   21.9023   79.9994 H   0  0  0  0  0  0  0  0  0  0  0  0
   41.2574   20.5260   79.8018 H   0  0  0  0  0  0  0  0  0  0  0  0
   39.5153   20.2182   79.2539 H   0  0  0  0  0  0  0  0  0  0  0  0
   39.7353   20.6761   77.6020 H   0  0  0  0  0  0  0  0  0  0  0  0
   41.7827   22.2309   76.7735 H   0  0  0  0  0  0  0  0  0  0  0  0
   40.0050   21.8370   76.3391 H   0  0  0  0  0  0  0  0  0  0  0  0
   39.4428   23.5835   77.0857 H   0  0  0  0  0  0  0  0  0  0  0  0
   41.1857   23.9039   77.6629 H   0  0  0  0  0  0  0  0  0  0  0  0
   40.0068   18.3724   78.1236 H   0  0  0  0  0  0  0  0  0  0  0  0
   39.3804   18.9343   76.5968 H   0  0  0  0  0  0  0  0  0  0  0  0
   42.2579   17.8794   76.5435 H   0  0  0  0  0  0  0  0  0  0  0  0
   40.9750   16.6448   76.8587 H   0  0  0  0  0  0  0  0  0  0  0  0
   42.7225   16.7480   74.5048 H   0  0  0  0  0  0  0  0  0  0  0  0
   41.2842   15.5973   74.6668 H   0  0  0  0  0  0  0  0  0  0  0  0
   42.2834   15.8866   72.3402 H   0  0  0  0  0  0  0  0  0  0  0  0
   40.5102   16.0685   72.5307 H   0  0  0  0  0  0  0  0  0  0  0  0
   42.5333   18.3917   72.4979 H   0  0  0  0  0  0  0  0  0  0  0  0
   41.5213   17.9281   71.1174 H   0  0  0  0  0  0  0  0  0  0  0  0
   40.2904   19.7091   72.3666 H   0  0  0  0  0  0  0  0  0  0  0  0
   39.4281   18.2041   72.6991 H   0  0  0  0  0  0  0  0  0  0  0  0
   39.9466   19.4327   74.8628 H   0  0  0  0  0  0  0  0  0  0  0  0
   41.7005   19.4195   74.4403 H   0  0  0  0  0  0  0  0  0  0  0  0
  1  2  1  0
  2  3  1  0
  3  4  1  0
  3  5  1  0
  5  6  1  0
  6  7  1  0
  7  8  1  0
  8  9  1  0
  9 10  1  0
 10 11  1  0
 11 12  1  0
 12 13  1  0
 12 14  1  0
  9 15  1  0
 14 15  1  0
  1 16  1  0
  6 16  1  0
  8 17  1  0
 16 17  1  0
 17 18  1  0
 18 19  1  0
 18 20  1  0
 20 21  1  0
 21 22  1  0
 22 23  1  0
 23 24  1  0
 20 25  1  0
 24 25  1  0
 23 26  1  0
 26 27  1  0
 27 28  1  0
 28 29  1  0
 29 30  1  0
 30 31  1  0
 31 32  1  0
 32 33  1  0
 29 34  1  0
 33 34  1  0
 35 36  1  0
 36 37  1  0
 37 38  1  0
 37 39  1  0
 39 40  1  0
 40 41  1  0
 41 42  1  0
 42 43  1  0
 43 44  1  0
 44 45  1  0
 45 46  1  0
 46 47  1  0
 46 48  1  0
 43 49  1  0
 48 49  1  0
 35 50  1  0
 40 50  1  0
 42 51  1  0
 50 51  1  0
 51 52  1  0
 52 53  1  0
 52 54  1  0
 54 55  1  0
 55 56  1  0
 56 57  1  0
 57 58  1  0
 54 59  1  0
 58 59  1  0
 57 60  1  0
 60 61  1  0
 61 62  1  0
 62 63  1  0
 63 64  1  0
 64 65  1  0
 65 66  1  0
 66 67  1  0
 63 68  1  0
 67 68  1  0
  1 69  1  0
  1 70  1  0
  2 71  1  0
  2 72  1  0
  3 73  1  0
  4 74  1  0
  5 75  1  0
  5 76  1  0
  6 77  1  1
  8 78  1  1
  9 79  1  1
 10 80  1  0
 10 81  1  0
 11 82  1  0
 11 83  1  0
 12 84  1  1
 13 85  1  0
 14 86  1  0
 14 87  1  0
 15 88  1  0
 15 89  1  0
 16 90  1  0
 17 91  1  0
 18 92  1  0
 19 93  1  0
 20 94  1  0
 21 95  1  0
 21 96  1  0
 22 97  1  0
 22 98  1  0
 23 99  1  0
 24100  1  0
 24101  1  0
 25102  1  0
 25103  1  0
 27104  1  0
 27105  1  0
 28106  1  0
 28107  1  0
 30108  1  0
 30109  1  0
 31110  1  0
 31111  1  0
 32112  1  0
 32113  1  0
 33114  1  0
 33115  1  0
 34116  1  0
 34117  1  0
 35118  1  0
 35119  1  0
 36120  1  0
 36121  1  0
 37122  1  0
 38123  1  0
 39124  1  0
 39125  1  0
 40126  1  0
 42127  1  6
 43128  1  0
 44129  1  0
 44130  1  0
 45131  1  0
 45132  1  0
 46133  1  0
 47134  1  0
 48135  1  0
 48136  1  0
 49137  1  0
 49138  1  0
 50139  1  0
 51140  1  0
 52141  1  1
 53142  1  0
 54143  1  6
 55144  1  0
 55145  1  0
 56146  1  0
 56147  1  0
 57148  1  0
 58149  1  0
 58150  1  0
 59151  1  0
 59152  1  0
 61153  1  0
 61154  1  0
 62155  1  0
 62156  1  0
 64157  1  0
 64158  1  0
 65159  1  0
 65160  1  0
 66161  1  0
 66162  1  0
 67163  1  0
 67164  1  0
 68165  1  0
 68166  1  0
M  END
>  <PDBID>  (1) 
1ERR

>  <PDB ID>  (1) 
1ERR

>  <Generic Name>  (1) 
Raloxifene

>  <Brand Name>  (1) 
Act Raloxifene#Apo-raloxifene#Evista#Evista (60mg)#PMS-raloxifene#Raloxifene#Raloxifene Hydrochloride#Teva-raloxifene#Keoxifene

>  <DrugBank ID>  (1) 
DB00481

>  <ATC Codes>  (1) 
G03XC01

>  <Ligand ID>  (1) 
RAL

>  <Target Name>  (1) 
Estrogen receptor

>  <UniProt ID>  (1) 
P03372

>  <PDB ID.1>  (1) 
1ERR

>  <Seq. Identity>  (1) 
93%

$$$$
