PDB_DB00443_93
     RDKit          3D

 57 60  0  0  0  0  0  0  0  0999 V2000
   31.0330   40.3600  -13.3970 C   0  0  0  0  0  0  0  0  0  0  0  0
   30.4250   41.0850  -12.3570 C   0  0  0  0  0  0  0  0  0  0  0  0
   29.0570   41.7050  -12.5930 C   0  0  0  0  0  0  0  0  0  0  0  0
   28.4190   41.5050  -13.9780 C   0  0  0  0  0  0  0  0  0  0  0  0
   29.0070   40.7990  -15.0020 C   0  0  0  0  0  0  0  0  0  0  0  0
   28.2690   40.6260  -16.4510 C   0  0  0  0  0  0  0  0  0  0  0  0
   29.2590   40.9340  -17.6080 C   0  0  0  0  0  0  0  0  0  0  0  0
   30.6920   40.1630  -17.5070 C   0  0  2  0  0  0  0  0  0  0  0  0
   31.4450   40.4360  -16.1120 C   0  0  1  0  0  0  0  0  0  0  0  0
   30.4450   40.0950  -14.8560 C   0  0  1  0  0  0  0  0  0  0  0  0
   32.8910   39.7370  -16.0200 C   0  0  2  0  0  0  0  0  0  0  0  0
   33.7430   40.0780  -17.2560 C   0  0  0  0  0  0  0  0  0  0  0  0
   33.0770   39.8290  -18.7050 C   0  0  1  0  0  0  0  0  0  0  0  0
   31.6780   40.5370  -18.7290 C   0  0  1  0  0  0  0  0  0  0  0  0
   31.1750   40.2780  -20.2150 C   0  0  0  0  0  0  0  0  0  0  0  0
   32.3800   40.7300  -21.0100 C   0  0  2  0  0  0  0  0  0  0  0  0
   33.6430   40.4770  -20.0490 C   0  0  2  0  0  0  0  0  0  0  0  0
   33.0050   38.2060  -18.8840 C   0  0  0  0  0  0  0  0  0  0  0  0
   30.1020   38.5280  -14.8390 C   0  0  0  0  0  0  0  0  0  0  0  0
   34.8800   39.7880  -20.7130 C   0  0  0  0  0  0  0  0  0  0  0  0
   36.0990   39.5130  -19.8670 C   0  0  0  0  0  0  0  0  0  0  0  0
   32.2180   42.2300  -21.4670 C   0  0  0  0  0  0  0  0  0  0  0  0
   31.6530   41.7670  -16.0090 F   0  0  0  0  0  0  0  0  0  0  0  0
   28.4080   42.3790  -11.7190 O   0  0  0  0  0  0  0  0  0  0  0  0
   32.9240   38.4060  -15.8700 O   0  0  0  0  0  0  0  0  0  0  0  0
   34.3450   41.6590  -19.8180 O   0  0  0  0  0  0  0  0  0  0  0  0
   34.8180   39.4740  -21.9480 O   0  0  0  0  0  0  0  0  0  0  0  0
   37.0570   38.9020  -20.6260 O   0  0  0  0  0  0  0  0  0  0  0  0
   32.0216   39.9286  -13.1811 H   0  0  0  0  0  0  0  0  0  0  0  0
   30.9313   41.2018  -11.3875 H   0  0  0  0  0  0  0  0  0  0  0  0
   27.4317   41.9541  -14.1612 H   0  0  0  0  0  0  0  0  0  0  0  0
   27.9062   39.5924  -16.5510 H   0  0  0  0  0  0  0  0  0  0  0  0
   27.4269   41.3315  -16.5070 H   0  0  0  0  0  0  0  0  0  0  0  0
   28.7800   40.6429  -18.5545 H   0  0  0  0  0  0  0  0  0  0  0  0
   29.4816   42.0095  -17.5462 H   0  0  0  0  0  0  0  0  0  0  0  0
   30.4470   39.0923  -17.5660 H   0  0  0  0  0  0  0  0  0  0  0  0
   33.2914   40.1582  -15.0861 H   0  0  0  0  0  0  0  0  0  0  0  0
   34.0063   41.1441  -17.1920 H   0  0  0  0  0  0  0  0  0  0  0  0
   34.5944   39.3828  -17.2130 H   0  0  0  0  0  0  0  0  0  0  0  0
   31.7227   41.6164  -18.5221 H   0  0  0  0  0  0  0  0  0  0  0  0
   30.9533   39.2144  -20.3869 H   0  0  0  0  0  0  0  0  0  0  0  0
   30.2400   40.7963  -20.4743 H   0  0  0  0  0  0  0  0  0  0  0  0
   32.5078   40.1719  -21.9493 H   0  0  0  0  0  0  0  0  0  0  0  0
   32.9838   37.7284  -17.8933 H   0  0  0  0  0  0  0  0  0  0  0  0
   32.0941   37.9384  -19.4396 H   0  0  0  0  0  0  0  0  0  0  0  0
   33.8886   37.8588  -19.4396 H   0  0  0  0  0  0  0  0  0  0  0  0
   30.0260   38.1806  -13.7981 H   0  0  0  0  0  0  0  0  0  0  0  0
   29.1451   38.3565  -15.3536 H   0  0  0  0  0  0  0  0  0  0  0  0
   30.8998   37.9724  -15.3536 H   0  0  0  0  0  0  0  0  0  0  0  0
   36.4934   40.4618  -19.4744 H   0  0  0  0  0  0  0  0  0  0  0  0
   35.8215   38.8546  -19.0307 H   0  0  0  0  0  0  0  0  0  0  0  0
   32.1480   42.8778  -20.5807 H   0  0  0  0  0  0  0  0  0  0  0  0
   33.0894   42.5259  -22.0696 H   0  0  0  0  0  0  0  0  0  0  0  0
   31.3035   42.3330  -22.0696 H   0  0  0  0  0  0  0  0  0  0  0  0
   32.9295   38.1826  -14.9055 H   0  0  0  0  0  0  0  0  0  0  0  0
   34.4322   41.8058  -18.8428 H   0  0  0  0  0  0  0  0  0  0  0  0
   37.7255   38.4757  -20.0331 H   0  0  0  0  0  0  0  0  0  0  0  0
  1  2  2  0
  2  3  1  0
  3  4  1  0
  4  5  2  0
  5  6  1  0
  6  7  1  0
  7  8  1  0
  8  9  1  0
  1 10  1  0
  5 10  1  0
  9 10  1  0
  9 11  1  0
 11 12  1  0
 12 13  1  0
  8 14  1  0
 13 14  1  0
 14 15  1  0
 15 16  1  0
 13 17  1  0
 16 17  1  0
 13 18  1  6
 10 19  1  1
 17 20  1  0
 20 21  1  0
 16 22  1  0
  9 23  1  6
  3 24  2  0
 11 25  1  0
 17 26  1  1
 20 27  2  0
 21 28  1  0
  1 29  1  0
  2 30  1  0
  4 31  1  0
  6 32  1  0
  6 33  1  0
  7 34  1  0
  7 35  1  0
  8 36  1  6
 11 37  1  1
 12 38  1  0
 12 39  1  0
 14 40  1  6
 15 41  1  0
 15 42  1  0
 16 43  1  6
 18 44  1  0
 18 45  1  0
 18 46  1  0
 19 47  1  0
 19 48  1  0
 19 49  1  0
 21 50  1  0
 21 51  1  0
 22 52  1  0
 22 53  1  0
 22 54  1  0
 25 55  1  0
 26 56  1  0
 28 57  1  0
M  END
$$$$
