PDB_DB00773_97
     RDKit          3D

 88 94  0  0  0  0  0  0  0  0999 V2000
   12.2780   55.9360   44.2540 C   0  0  0  0  0  0  0  0  0  0  0  0
   12.2360   55.0300   43.1410 O   0  0  0  0  0  0  0  0  0  0  0  0
   12.5900   53.9980   45.1360 C   0  0  0  0  0  0  0  0  0  0  0  0
   12.7390   55.3210   45.4710 O   0  0  0  0  0  0  0  0  0  0  0  0
   12.7060   52.9220   45.9860 C   0  0  0  0  0  0  0  0  0  0  0  0
   12.2550   46.9770   45.3560 O   0  0  0  0  0  0  0  0  0  0  0  0
   12.5040   51.6550   45.4590 C   0  0  0  0  0  0  0  0  0  0  0  0
   13.3450   47.5950   47.2750 O   0  0  0  0  0  0  0  0  0  0  0  0
   12.5910   50.4930   46.4190 C   0  0  2  0  0  0  0  0  0  0  0  0
   10.5360   49.1490   50.7200 O   0  0  0  0  0  0  0  0  0  0  0  0
   12.8040   49.2410   45.5710 C   0  0  1  0  0  0  0  0  0  0  0  0
    8.1910   50.3100   49.9990 O   0  0  0  0  0  0  0  0  0  0  0  0
   12.8420   47.8830   46.2000 C   0  0  0  0  0  0  0  0  0  0  0  0
    7.8970   51.5730   47.6130 O   0  0  0  0  0  0  0  0  0  0  0  0
   11.7990   47.6340   44.1740 C   0  0  0  0  0  0  0  0  0  0  0  0
   13.0270   49.8490   42.5780 O   0  0  0  0  0  0  0  0  0  0  0  0
   11.7360   49.0990   44.5300 C   0  0  2  0  0  0  0  0  0  0  0  0
   12.1250   48.3160   41.0600 O   0  0  0  0  0  0  0  0  0  0  0  0
   11.9320   50.1550   43.4480 C   0  0  1  0  0  0  0  0  0  0  0  0
   10.7150   46.4130   38.2930 O   0  0  0  0  0  0  0  0  0  0  0  0
   12.1860   51.4940   44.1010 C   0  0  0  0  0  0  0  0  0  0  0  0
   12.3750   47.9080   37.4670 O   0  0  0  0  0  0  0  0  0  0  0  0
   12.0890   52.5970   43.2730 C   0  0  0  0  0  0  0  0  0  0  0  0
   14.7040   49.4920   38.1900 O   0  0  0  0  0  0  0  0  0  0  0  0
   12.2980   53.8390   43.8160 C   0  0  0  0  0  0  0  0  0  0  0  0
   13.9460   51.4050   40.3380 O   0  0  0  0  0  0  0  0  0  0  0  0
   11.4200   50.4350   47.3730 C   0  0  0  0  0  0  0  0  0  0  0  0
   11.5380   49.8260   48.6080 C   0  0  0  0  0  0  0  0  0  0  0  0
   10.4620   49.7670   49.4810 C   0  0  0  0  0  0  0  0  0  0  0  0
    9.2640   50.3630   49.1370 C   0  0  0  0  0  0  0  0  0  0  0  0
    9.1290   51.0000   47.9220 C   0  0  0  0  0  0  0  0  0  0  0  0
   10.2050   51.0160   47.0530 C   0  0  0  0  0  0  0  0  0  0  0  0
   11.5660   48.1650   50.7050 C   0  0  0  0  0  0  0  0  0  0  0  0
    8.0570   52.5970   46.6360 C   0  0  0  0  0  0  0  0  0  0  0  0
   12.5570   49.6730   41.2420 C   0  0  2  0  0  0  0  0  0  0  0  0
   11.6480   48.0920   39.7340 C   0  0  2  0  0  0  0  0  0  0  0  0
   11.0880   46.6860   39.6460 C   0  0  0  0  0  0  0  0  0  0  0  0
   11.8360   46.5850   37.4140 C   0  0  2  0  0  0  0  0  0  0  0  0
   12.8340   48.1730   38.7900 C   0  0  2  0  0  0  0  0  0  0  0  0
   13.4570   49.5560   38.8650 C   0  0  1  0  0  0  0  0  0  0  0  0
   13.7160   50.0000   40.3050 C   0  0  1  0  0  0  0  0  0  0  0  0
   11.3830   46.3160   35.9970 C   0  0  0  0  0  0  0  0  0  0  0  0
   12.9554   56.7657   44.0036 H   0  0  0  0  0  0  0  0  0  0  0  0
   11.2489   56.2810   44.4326 H   0  0  0  0  0  0  0  0  0  0  0  0
   13.6644   53.9345   44.9090 H   0  0  0  0  0  0  0  0  0  0  0  0
   13.7225   52.9441   46.4059 H   0  0  0  0  0  0  0  0  0  0  0  0
   11.8891   53.0532   46.7109 H   0  0  0  0  0  0  0  0  0  0  0  0
   13.5815   51.5678   45.2557 H   0  0  0  0  0  0  0  0  0  0  0  0
   12.7679   47.9254   48.0084 H   0  0  0  0  0  0  0  0  0  0  0  0
   13.4423   50.6018   47.1071 H   0  0  0  0  0  0  0  0  0  0  0  0
   13.8238   49.4654   45.2250 H   0  0  0  0  0  0  0  0  0  0  0  0
    8.5174   50.3261   50.9335 H   0  0  0  0  0  0  0  0  0  0  0  0
   11.8744   48.0472   46.6967 H   0  0  0  0  0  0  0  0  0  0  0  0
   12.5036   47.4690   43.3456 H   0  0  0  0  0  0  0  0  0  0  0  0
   10.8225   47.2506   43.8432 H   0  0  0  0  0  0  0  0  0  0  0  0
   10.6983   49.3145   44.8246 H   0  0  0  0  0  0  0  0  0  0  0  0
   11.0158   50.1782   42.8397 H   0  0  0  0  0  0  0  0  0  0  0  0
   13.2560   51.4083   43.8606 H   0  0  0  0  0  0  0  0  0  0  0  0
   12.8268   52.4654   42.4678 H   0  0  0  0  0  0  0  0  0  0  0  0
   11.0338   52.6110   42.9626 H   0  0  0  0  0  0  0  0  0  0  0  0
   15.4372   49.4544   38.8542 H   0  0  0  0  0  0  0  0  0  0  0  0
   13.3715   53.7653   43.5874 H   0  0  0  0  0  0  0  0  0  0  0  0
   13.9958   51.7092   41.2788 H   0  0  0  0  0  0  0  0  0  0  0  0
   11.1072   49.4776   46.9308 H   0  0  0  0  0  0  0  0  0  0  0  0
   11.8426   48.7865   48.4163 H   0  0  0  0  0  0  0  0  0  0  0  0
   12.2424   50.4852   49.1365 H   0  0  0  0  0  0  0  0  0  0  0  0
   10.7790   50.7170   49.9359 H   0  0  0  0  0  0  0  0  0  0  0  0
    9.5954   51.3006   49.6072 H   0  0  0  0  0  0  0  0  0  0  0  0
    9.4534   51.9453   48.3816 H   0  0  0  0  0  0  0  0  0  0  0  0
   10.4164   52.0754   46.8457 H   0  0  0  0  0  0  0  0  0  0  0  0
    9.8499   50.3693   46.2371 H   0  0  0  0  0  0  0  0  0  0  0  0
   11.8390   47.9042   51.7382 H   0  0  0  0  0  0  0  0  0  0  0  0
   11.2067   47.2661   50.1826 H   0  0  0  0  0  0  0  0  0  0  0  0
   12.4476   48.5649   50.1826 H   0  0  0  0  0  0  0  0  0  0  0  0
    8.2080   53.5635   47.1391 H   0  0  0  0  0  0  0  0  0  0  0  0
    8.9307   52.3705   46.0072 H   0  0  0  0  0  0  0  0  0  0  0  0
    7.1559   52.6478   46.0072 H   0  0  0  0  0  0  0  0  0  0  0  0
   11.7022   50.3321   41.0302 H   0  0  0  0  0  0  0  0  0  0  0  0
   10.8769   48.8330   39.4763 H   0  0  0  0  0  0  0  0  0  0  0  0
   10.2045   46.6004   40.2957 H   0  0  0  0  0  0  0  0  0  0  0  0
   11.8502   45.9632   39.9725 H   0  0  0  0  0  0  0  0  0  0  0  0
   12.6213   45.8848   37.7349 H   0  0  0  0  0  0  0  0  0  0  0  0
   13.5975   47.4335   39.0731 H   0  0  0  0  0  0  0  0  0  0  0  0
   12.7635   50.2796   38.4117 H   0  0  0  0  0  0  0  0  0  0  0  0
   14.5990   49.4455   40.6554 H   0  0  0  0  0  0  0  0  0  0  0  0
   10.4373   45.7544   36.0147 H   0  0  0  0  0  0  0  0  0  0  0  0
   11.2325   47.2712   35.4726 H   0  0  0  0  0  0  0  0  0  0  0  0
   12.1496   45.7267   35.4726 H   0  0  0  0  0  0  0  0  0  0  0  0
  1  2  1  0
  1  4  1  0
  3  4  1  0
  3  5  1  0
  5  7  1  0
  7  9  1  0
  9 11  1  0
  6 13  1  0
  8 13  1  0
 11 13  1  0
  6 15  1  0
 11 17  1  0
 15 17  1  0
 16 19  1  0
 17 19  1  0
  7 21  1  0
 19 21  1  0
 21 23  1  0
  2 25  1  0
  3 25  1  0
 23 25  1  0
  9 27  1  0
 27 28  1  0
 10 29  1  0
 28 29  1  0
 12 30  1  0
 29 30  1  0
 14 31  1  0
 30 31  1  0
 27 32  1  0
 31 32  1  0
 10 33  1  0
 14 34  1  0
 16 35  1  0
 18 35  1  0
 18 36  1  0
 20 37  1  0
 36 37  1  0
 20 38  1  0
 22 38  1  0
 22 39  1  0
 36 39  1  0
 24 40  1  0
 39 40  1  0
 26 41  1  0
 35 41  1  0
 40 41  1  0
 38 42  1  0
  1 43  1  0
  1 44  1  0
  3 45  1  0
  5 46  1  0
  5 47  1  0
  7 48  1  0
  8 49  1  0
  9 50  1  1
 11 51  1  6
 12 52  1  0
 13 53  1  0
 15 54  1  0
 15 55  1  0
 17 56  1  1
 19 57  1  6
 21 58  1  0
 23 59  1  0
 23 60  1  0
 24 61  1  0
 25 62  1  0
 26 63  1  0
 27 64  1  0
 28 65  1  0
 28 66  1  0
 29 67  1  0
 30 68  1  0
 31 69  1  0
 32 70  1  0
 32 71  1  0
 33 72  1  0
 33 73  1  0
 33 74  1  0
 34 75  1  0
 34 76  1  0
 34 77  1  0
 35 78  1  6
 36 79  1  6
 37 80  1  0
 37 81  1  0
 38 82  1  1
 39 83  1  1
 40 84  1  6
 41 85  1  1
 42 86  1  0
 42 87  1  0
 42 88  1  0
M  END
>  <PDBID>  (1) 
5CDP

>  <PDB ID>  (1) 
5CDP

>  <Generic Name>  (1) 
Etoposide

>  <Brand Name>  (1) 
Dom-etoposide#Eposin#Etopophos#Etoposide#Etoposide - Liq IV 20mg/ml#Etoposide Injection#Etoposide Injection USP#Etoposide Injection, USP#PMS-etoposide#Toposar#Vepesid#Vepesid Inj 20mg/ml#Etopofos#Lastet#Nexvep#Vepesid K#Vépéside

>  <DrugBank ID>  (1) 
DB00773

>  <ATC Codes>  (1) 
L01CB01

>  <Ligand ID>  (1) 
EVP

>  <Target Name>  (1) 
DNA topoisomerase 2-alpha

>  <UniProt ID>  (1) 
P11388

>  <PDB ID.1>  (1) 
5CDP

>  <Seq. Identity>  (1) 
40%

$$$$
