PDB_DB01268_99
     RDKit          3D

 72 74  0  0  0  0  0  0  0  0999 V2000
   50.6820    0.3670  -16.1610 C   0  0  0  0  0  0  0  0  0  0  0  0
   42.9760   -4.0970  -12.0930 C   0  0  0  0  0  0  0  0  0  0  0  0
   43.1080   -2.8170  -12.6960 C   0  0  0  0  0  0  0  0  0  0  0  0
   45.2970   -4.6700  -12.5600 C   0  0  0  0  0  0  0  0  0  0  0  0
   50.4040   -3.1660  -14.7440 C   0  0  0  0  0  0  0  0  0  0  0  0
   44.0560   -5.0260  -12.0210 C   0  0  0  0  0  0  0  0  0  0  0  0
   45.4340   -3.3660  -13.1770 C   0  0  0  0  0  0  0  0  0  0  0  0
   46.6220   -2.6830  -13.8380 C   0  0  0  0  0  0  0  0  0  0  0  0
   46.0000   -1.3910  -14.2210 C   0  0  0  0  0  0  0  0  0  0  0  0
   52.7490   -2.2040  -15.7730 C   0  0  0  0  0  0  0  0  0  0  0  0
   50.6720   -4.6410  -14.2650 C   0  0  0  0  0  0  0  0  0  0  0  0
   47.9450   -3.1720  -14.0210 C   0  0  0  0  0  0  0  0  0  0  0  0
   50.4360   -1.0270  -15.5620 C   0  0  0  0  0  0  0  0  0  0  0  0
   44.3520   -2.4790  -13.2330 C   0  0  0  0  0  0  0  0  0  0  0  0
   49.1440   -2.5460  -14.6150 C   0  0  0  0  0  0  0  0  0  0  0  0
   51.2780   -2.1530  -15.3750 C   0  0  0  0  0  0  0  0  0  0  0  0
   49.2210   -1.3050  -15.1090 N   0  0  0  0  0  0  0  0  0  0  0  0
   44.6980   -1.3280  -13.8490 N   0  0  0  0  0  0  0  0  0  0  0  0
   53.3480   -1.1340  -16.3410 N   0  0  0  0  0  0  0  0  0  0  0  0
   46.5690   -0.5000  -14.7920 O   0  0  0  0  0  0  0  0  0  0  0  0
   53.4890   -3.1810  -15.6130 O   0  0  0  0  0  0  0  0  0  0  0  0
   43.8400   -6.2100  -11.4410 F   0  0  0  0  0  0  0  0  0  0  0  0
   54.7670   -1.1510  -16.7250 C   0  0  0  0  0  0  0  0  0  0  0  0
   55.7440   -0.0290  -16.2620 C   0  0  0  0  0  0  0  0  0  0  0  0
   57.0620   -0.2560  -16.9650 N   0  0  0  0  0  0  0  0  0  0  0  0
   58.1790   -0.1130  -15.9310 C   0  0  0  0  0  0  0  0  0  0  0  0
   57.2000    0.6510  -18.2320 C   0  0  0  0  0  0  0  0  0  0  0  0
   57.1470    0.0830  -19.6840 C   0  0  0  0  0  0  0  0  0  0  0  0
   59.6930   -0.4920  -16.2000 C   0  0  0  0  0  0  0  0  0  0  0  0
   50.8109    1.0975  -15.3488 H   0  0  0  0  0  0  0  0  0  0  0  0
   51.5900    0.3445  -16.7814 H   0  0  0  0  0  0  0  0  0  0  0  0
   49.8211    0.6566  -16.7814 H   0  0  0  0  0  0  0  0  0  0  0  0
   42.6605   -3.9145  -11.0551 H   0  0  0  0  0  0  0  0  0  0  0  0
   42.2894   -4.6033  -12.7874 H   0  0  0  0  0  0  0  0  0  0  0  0
   42.3716   -2.7600  -13.5111 H   0  0  0  0  0  0  0  0  0  0  0  0
   42.9571   -2.1039  -11.8721 H   0  0  0  0  0  0  0  0  0  0  0  0
   46.0326   -4.7220  -11.7438 H   0  0  0  0  0  0  0  0  0  0  0  0
   45.4434   -5.3773  -13.3896 H   0  0  0  0  0  0  0  0  0  0  0  0
   50.1179   -3.5407  -15.7378 H   0  0  0  0  0  0  0  0  0  0  0  0
   43.7563   -5.4496  -12.9909 H   0  0  0  0  0  0  0  0  0  0  0  0
   45.7275   -2.9379  -12.2071 H   0  0  0  0  0  0  0  0  0  0  0  0
   46.3289   -3.1116  -14.8077 H   0  0  0  0  0  0  0  0  0  0  0  0
   45.7027   -1.8210  -15.1888 H   0  0  0  0  0  0  0  0  0  0  0  0
   52.4666   -2.5748  -16.7694 H   0  0  0  0  0  0  0  0  0  0  0  0
   50.6780   -4.6741  -13.1655 H   0  0  0  0  0  0  0  0  0  0  0  0
   49.8790   -5.3005  -14.6473 H   0  0  0  0  0  0  0  0  0  0  0  0
   51.6463   -4.9794  -14.6473 H   0  0  0  0  0  0  0  0  0  0  0  0
   48.2672   -3.4413  -13.0043 H   0  0  0  0  0  0  0  0  0  0  0  0
   47.7201   -3.8463  -14.8605 H   0  0  0  0  0  0  0  0  0  0  0  0
   50.1526   -1.4040  -16.5557 H   0  0  0  0  0  0  0  0  0  0  0  0
   44.6532   -2.0506  -12.2657 H   0  0  0  0  0  0  0  0  0  0  0  0
   48.8540   -2.9294  -15.6044 H   0  0  0  0  0  0  0  0  0  0  0  0
   51.5601   -1.7769  -14.3805 H   0  0  0  0  0  0  0  0  0  0  0  0
   48.9820   -0.6348  -14.3643 H   0  0  0  0  0  0  0  0  0  0  0  0
   44.5631   -0.5379  -13.2021 H   0  0  0  0  0  0  0  0  0  0  0  0
   52.8187   -0.9293  -17.2005 H   0  0  0  0  0  0  0  0  0  0  0  0
   46.9640    0.1185  -14.1276 H   0  0  0  0  0  0  0  0  0  0  0  0
   53.6136   -3.3455  -14.6448 H   0  0  0  0  0  0  0  0  0  0  0  0
   55.1801   -2.0984  -16.3486 H   0  0  0  0  0  0  0  0  0  0  0  0
   54.7219   -0.9944  -17.8129 H   0  0  0  0  0  0  0  0  0  0  0  0
   55.3388    0.9571  -16.5328 H   0  0  0  0  0  0  0  0  0  0  0  0
   55.8772   -0.0573  -15.1705 H   0  0  0  0  0  0  0  0  0  0  0  0
   58.1846    0.9489  -15.6441 H   0  0  0  0  0  0  0  0  0  0  0  0
   57.8948   -0.8929  -15.2092 H   0  0  0  0  0  0  0  0  0  0  0  0
   56.3905    1.3928  -18.1653 H   0  0  0  0  0  0  0  0  0  0  0  0
   58.2471    0.9799  -18.1586 H   0  0  0  0  0  0  0  0  0  0  0  0
   57.0449   -1.0116  -19.6460 H   0  0  0  0  0  0  0  0  0  0  0  0
   56.2851    0.5135  -20.2149 H   0  0  0  0  0  0  0  0  0  0  0  0
   58.0736    0.3466  -20.2149 H   0  0  0  0  0  0  0  0  0  0  0  0
   60.2144   -0.6225  -15.2403 H   0  0  0  0  0  0  0  0  0  0  0  0
   59.7400   -1.4296  -16.7733 H   0  0  0  0  0  0  0  0  0  0  0  0
   60.1762    0.3129  -16.7733 H   0  0  0  0  0  0  0  0  0  0  0  0
  2  3  1  0
  2  6  1  0
  4  6  1  0
  4  7  1  0
  7  8  1  0
  8  9  1  0
  5 11  1  0
  8 12  1  0
  1 13  1  0
  3 14  1  0
  7 14  1  0
  5 15  1  0
 12 15  1  0
  5 16  1  0
 10 16  1  0
 13 16  1  0
 13 17  1  0
 15 17  1  0
  9 18  1  0
 14 18  1  0
 10 19  1  0
  9 20  1  0
 10 21  1  0
  6 22  1  0
 19 23  1  0
 23 24  1  0
 24 25  1  0
 25 26  1  0
 25 27  1  0
 27 28  1  0
 26 29  1  0
  1 30  1  0
  1 31  1  0
  1 32  1  0
  2 33  1  0
  2 34  1  0
  3 35  1  0
  3 36  1  0
  4 37  1  0
  4 38  1  0
  5 39  1  0
  6 40  1  0
  7 41  1  0
  8 42  1  0
  9 43  1  0
 10 44  1  0
 11 45  1  0
 11 46  1  0
 11 47  1  0
 12 48  1  0
 12 49  1  0
 13 50  1  0
 14 51  1  0
 15 52  1  0
 16 53  1  0
 17 54  1  0
 18 55  1  0
 19 56  1  0
 20 57  1  0
 21 58  1  0
 23 59  1  0
 23 60  1  0
 24 61  1  0
 24 62  1  0
 26 63  1  0
 26 64  1  0
 27 65  1  0
 27 66  1  0
 28 67  1  0
 28 68  1  0
 28 69  1  0
 29 70  1  0
 29 71  1  0
 29 72  1  0
M  END
>  <PDBID>  (1) 
4AGD

>  <PDB ID>  (1) 
4AGD

>  <Generic Name>  (1) 
Sunitinib

>  <Brand Name>  (1) 
Sutent

>  <DrugBank ID>  (1) 
DB01268

>  <ATC Codes>  (1) 
L01XE04

>  <Ligand ID>  (1) 
B49

>  <Target Name>  (1) 
Vascular endothelial growth factor receptor 3

>  <UniProt ID>  (1) 
P35916

>  <PDB ID.1>  (1) 
4AGD

>  <Seq. Identity>  (1) 
66%

$$$$
