PDB_DB00951_97
     RDKit          3D

 17 17  0  0  0  0  0  0  0  0999 V2000
  -12.5590  -36.4680    0.3120 C   0  0  0  0  0  0  0  0  0  0  0  0
  -13.8100  -35.7390    0.2320 C   0  0  0  0  0  0  0  0  0  0  0  0
  -16.2830  -34.6040   -0.3030 N   0  0  0  0  0  0  0  0  0  0  0  0
  -11.7980  -36.1780   -0.5940 O   0  0  0  0  0  0  0  0  0  0  0  0
  -14.9910  -36.2310    0.9900 C   0  0  0  0  0  0  0  0  0  0  0  0
  -12.3410  -37.6050    1.0370 N   0  0  0  0  0  0  0  0  0  0  0  0
  -16.2110  -35.5310    0.6990 C   0  0  0  0  0  0  0  0  0  0  0  0
  -11.3930  -38.4570    0.6050 N   0  0  0  0  0  0  0  0  0  0  0  0
  -15.0220  -34.0150   -1.1020 C   0  0  0  0  0  0  0  0  0  0  0  0
  -13.8490  -34.7020   -0.8510 C   0  0  0  0  0  0  0  0  0  0  0  0
  -14.9351  -37.0596    1.7114 H   0  0  0  0  0  0  0  0  0  0  0  0
  -12.8855  -37.8042    1.8883 H   0  0  0  0  0  0  0  0  0  0  0  0
  -17.1090  -35.7461    1.2968 H   0  0  0  0  0  0  0  0  0  0  0  0
  -10.9193  -38.8827    1.4145 H   0  0  0  0  0  0  0  0  0  0  0  0
  -11.8292  -39.1957    0.0349 H   0  0  0  0  0  0  0  0  0  0  0  0
  -15.0847  -33.1517   -1.7809 H   0  0  0  0  0  0  0  0  0  0  0  0
  -12.9471  -34.4889   -1.4436 H   0  0  0  0  0  0  0  0  0  0  0  0
  1  2  1  0
  1  4  2  0
  2  5  2  0
  1  6  1  0
  3  7  2  0
  5  7  1  0
  6  8  1  0
  3  9  1  0
  2 10  1  0
  9 10  2  0
  5 11  1  0
  6 12  1  0
  7 13  1  0
  8 14  1  0
  8 15  1  0
  9 16  1  0
 10 17  1  0
M  END
$$$$
