PDB_DB00558_97
     RDKit          3D

100101  0  0  0  0  0  0  0  0999 V2000
   -2.2500   58.2420   -5.5910 C   0  0  0  0  0  0  0  0  0  0  0  0
   -3.1720   59.1980   -5.4520 O   0  0  0  0  0  0  0  0  0  0  0  0
   -1.3720   58.0410   -4.8130 O   0  0  0  0  0  0  0  0  0  0  0  0
   -2.3300   57.4010   -6.7980 C   0  0  0  0  0  0  0  0  0  0  0  0
   -1.4680   56.3850   -6.9670 C   0  0  0  0  0  0  0  0  0  0  0  0
   -1.5020   55.5410   -8.2050 C   0  0  1  0  0  0  0  0  0  0  0  0
   -2.2900   56.1690   -9.2970 C   0  0  1  0  0  0  0  0  0  0  0  0
   -2.6540   55.1780  -10.2990 N   0  0  0  0  0  0  0  0  0  0  0  0
   -2.1140   55.1230  -11.5200 C   0  0  0  0  0  0  0  0  0  0  0  0
   -1.3800   55.9770  -11.9750 O   0  0  0  0  0  0  0  0  0  0  0  0
   -2.4680   53.8830  -12.3160 C   0  0  0  0  0  0  0  0  0  0  0  0
   -3.5940   56.7640   -8.6860 C   0  0  2  0  0  0  0  0  0  0  0  0
   -3.2710   57.7090   -7.6700 O   0  0  0  0  0  0  0  0  0  0  0  0
   -4.6460   57.3120   -9.6380 C   0  0  2  0  0  0  0  0  0  0  0  0
   -3.8180   57.8920  -10.0820 O   0  0  0  0  0  0  0  0  0  0  0  0
   -5.8270   57.8570   -9.0220 C   0  0  2  0  0  0  0  0  0  0  0  0
   -6.4010   56.6980   -8.4110 O   0  0  0  0  0  0  0  0  0  0  0  0
   -6.8360   58.4830   -9.9830 C   0  0  0  0  0  0  0  0  0  0  0  0
   -7.4390   57.4730  -10.7910 O   0  0  0  0  0  0  0  0  0  0  0  0
   -0.1890   55.1810   -8.6950 N   0  0  0  0  0  0  0  0  0  0  0  0
    0.0430   54.0300   -9.3200 C   0  0  1  0  0  0  0  0  0  0  0  0
   -0.8960   53.0810   -9.4020 N   0  0  0  0  0  0  0  0  0  0  0  0
    1.2160   53.8670   -9.9260 N   0  0  0  0  0  0  0  0  0  0  0  0
   29.5970   40.0010  -30.9350 C   0  0  0  0  0  0  0  0  0  0  0  0
   29.6760   40.4360  -32.1910 O   0  0  0  0  0  0  0  0  0  0  0  0
   28.9740   40.5490  -30.0840 O   0  0  0  0  0  0  0  0  0  0  0  0
   30.2980   38.7360  -30.6390 C   0  0  0  0  0  0  0  0  0  0  0  0
   30.2460   38.2330  -29.3870 C   0  0  0  0  0  0  0  0  0  0  0  0
   30.9500   36.9580  -29.0430 C   0  0  1  0  0  0  0  0  0  0  0  0
   31.9240   36.5490  -30.1200 C   0  0  1  0  0  0  0  0  0  0  0  0
   32.1080   35.1260  -29.9050 N   0  0  0  0  0  0  0  0  0  0  0  0
   33.2620   34.5830  -29.5770 C   0  0  1  0  0  0  0  0  0  0  0  0
   34.2630   35.2350  -29.3330 O   0  0  0  0  0  0  0  0  0  0  0  0
   33.3330   33.0730  -29.6850 C   0  0  0  0  0  0  0  0  0  0  0  0
   31.2960   36.7770  -31.4810 C   0  0  1  0  0  0  0  0  0  0  0  0
   30.9500   38.1280  -31.6480 O   0  0  0  0  0  0  0  0  0  0  0  0
   32.1690   36.2990  -32.6490 C   0  0  2  0  0  0  0  0  0  0  0  0
   33.3870   37.0330  -32.7330 O   0  0  0  0  0  0  0  0  0  0  0  0
   31.4560   36.3720  -33.9960 C   0  0  2  0  0  0  0  0  0  0  0  0
   30.2830   35.5860  -33.8940 O   0  0  0  0  0  0  0  0  0  0  0  0
   32.3060   35.9010  -35.1940 C   0  0  0  0  0  0  0  0  0  0  0  0
   32.5630   34.5010  -35.1610 O   0  0  0  0  0  0  0  0  0  0  0  0
   31.6190   36.8560  -27.7440 N   0  0  0  0  0  0  0  0  0  0  0  0
   31.3610   35.9020  -26.8420 C   0  0  0  0  0  0  0  0  0  0  0  0
   30.2720   35.1530  -26.9660 N   0  0  0  0  0  0  0  0  0  0  0  0
   32.2000   35.7130  -25.8180 N   0  0  0  0  0  0  0  0  0  0  0  0
   -1.6042   58.9444   -6.1383 H   0  0  0  0  0  0  0  0  0  0  0  0
   -3.3324   59.3643   -4.4893 H   0  0  0  0  0  0  0  0  0  0  0  0
   -1.7233   58.1214   -3.8909 H   0  0  0  0  0  0  0  0  0  0  0  0
   -1.6340   58.0776   -7.3155 H   0  0  0  0  0  0  0  0  0  0  0  0
   -0.4587   56.8189   -6.9121 H   0  0  0  0  0  0  0  0  0  0  0  0
   -1.7731   55.6763   -6.1830 H   0  0  0  0  0  0  0  0  0  0  0  0
   -2.0050   54.6137   -7.8935 H   0  0  0  0  0  0  0  0  0  0  0  0
   -1.6846   56.9538   -9.7741 H   0  0  0  0  0  0  0  0  0  0  0  0
   -2.4660   54.2616   -9.8680 H   0  0  0  0  0  0  0  0  0  0  0  0
   -2.9859   55.6542  -11.9295 H   0  0  0  0  0  0  0  0  0  0  0  0
   -0.9526   56.4742  -11.2332 H   0  0  0  0  0  0  0  0  0  0  0  0
   -2.7032   53.0592  -11.6261 H   0  0  0  0  0  0  0  0  0  0  0  0
   -3.3425   54.0914  -12.9498 H   0  0  0  0  0  0  0  0  0  0  0  0
   -1.6152   53.5983  -12.9498 H   0  0  0  0  0  0  0  0  0  0  0  0
   -5.2955   56.7433  -10.3198 H   0  0  0  0  0  0  0  0  0  0  0  0
   -5.5696   58.6886   -8.3496 H   0  0  0  0  0  0  0  0  0  0  0  0
   -6.3565   56.7879   -7.4261 H   0  0  0  0  0  0  0  0  0  0  0  0
   -7.6162   58.9997   -9.4048 H   0  0  0  0  0  0  0  0  0  0  0  0
   -6.3145   59.1998  -10.6342 H   0  0  0  0  0  0  0  0  0  0  0  0
   -7.8493   56.7857  -10.2085 H   0  0  0  0  0  0  0  0  0  0  0  0
    0.0869   55.9252   -9.3514 H   0  0  0  0  0  0  0  0  0  0  0  0
    0.4041   53.5913   -8.3781 H   0  0  0  0  0  0  0  0  0  0  0  0
   -1.1789   52.7951   -8.4538 H   0  0  0  0  0  0  0  0  0  0  0  0
   -1.7139   53.4501   -9.9077 H   0  0  0  0  0  0  0  0  0  0  0  0
    1.9569   53.7640   -9.2179 H   0  0  0  0  0  0  0  0  0  0  0  0
    1.1839   53.0224  -10.5146 H   0  0  0  0  0  0  0  0  0  0  0  0
   30.4820   40.5991  -30.6722 H   0  0  0  0  0  0  0  0  0  0  0  0
   29.8529   41.4101  -32.1924 H   0  0  0  0  0  0  0  0  0  0  0  0
   29.3028   40.2598  -29.1961 H   0  0  0  0  0  0  0  0  0  0  0  0
   31.2045   39.3002  -30.3747 H   0  0  0  0  0  0  0  0  0  0  0  0
   30.6554   39.0068  -28.7209 H   0  0  0  0  0  0  0  0  0  0  0  0
   29.1853   37.9633  -29.2764 H   0  0  0  0  0  0  0  0  0  0  0  0
   30.0969   36.2679  -28.9662 H   0  0  0  0  0  0  0  0  0  0  0  0
   32.8670   37.1143  -30.0840 H   0  0  0  0  0  0  0  0  0  0  0  0
   31.4521   34.8678  -29.1540 H   0  0  0  0  0  0  0  0  0  0  0  0
   33.5458   34.5447  -30.6391 H   0  0  0  0  0  0  0  0  0  0  0  0
   34.3774   35.3095  -28.3525 H   0  0  0  0  0  0  0  0  0  0  0  0
   33.3536   32.6338  -28.6767 H   0  0  0  0  0  0  0  0  0  0  0  0
   32.4513   32.7024  -30.2284 H   0  0  0  0  0  0  0  0  0  0  0  0
   34.2456   32.7868  -30.2284 H   0  0  0  0  0  0  0  0  0  0  0  0
   30.3860   36.1594  -31.5028 H   0  0  0  0  0  0  0  0  0  0  0  0
   32.3877   35.2432  -32.4309 H   0  0  0  0  0  0  0  0  0  0  0  0
   33.7163   37.2314  -31.8207 H   0  0  0  0  0  0  0  0  0  0  0  0
   31.2351   37.4294  -34.2035 H   0  0  0  0  0  0  0  0  0  0  0  0
   30.0654   35.4402  -32.9393 H   0  0  0  0  0  0  0  0  0  0  0  0
   31.7687   36.1396  -36.1237 H   0  0  0  0  0  0  0  0  0  0  0  0
   33.2741   36.4207  -35.1428 H   0  0  0  0  0  0  0  0  0  0  0  0
   32.6187   34.1978  -34.2202 H   0  0  0  0  0  0  0  0  0  0  0  0
   32.6245   36.7777  -27.9533 H   0  0  0  0  0  0  0  0  0  0  0  0
   30.7942   36.6261  -26.2383 H   0  0  0  0  0  0  0  0  0  0  0  0
   29.9156   34.9079  -26.0312 H   0  0  0  0  0  0  0  0  0  0  0  0
   29.5511   35.6779  -27.4815 H   0  0  0  0  0  0  0  0  0  0  0  0
   31.6900   35.8279  -24.9306 H   0  0  0  0  0  0  0  0  0  0  0  0
   32.5933   34.7623  -25.8674 H   0  0  0  0  0  0  0  0  0  0  0  0
  1  2  1  0
  1  3  1  0
  1  4  1  0
  4  5  1  0
  5  6  1  0
  6  7  1  0
  7  8  1  0
  8  9  1  0
  9 10  1  0
  9 11  1  0
  7 12  1  0
  4 13  1  0
 12 13  1  6
 12 14  1  0
 14 15  1  0
 15 12  1  0
 14 16  1  0
 16 17  1  0
 16 18  1  0
 18 19  1  0
  6 20  1  0
 20 21  1  0
 21 22  1  0
 21 23  1  0
 24 25  1  0
 24 26  1  0
 24 27  1  0
 27 28  1  0
 28 29  1  0
 29 30  1  0
 30 31  1  0
 31 32  1  0
 32 33  1  0
 32 34  1  0
 30 35  1  0
 27 36  1  0
 35 36  1  0
 35 37  1  0
 37 38  1  0
 37 39  1  0
 39 40  1  0
 39 41  1  0
 41 42  1  0
 29 43  1  0
 43 44  1  0
 44 45  1  0
 44 46  1  0
  1 47  1  0
  2 48  1  0
  3 49  1  0
  4 50  1  0
  5 51  1  0
  5 52  1  0
  6 53  1  1
  7 54  1  6
  8 55  1  0
  9 56  1  0
 10 57  1  0
 11 58  1  0
 11 59  1  0
 11 60  1  0
 14 61  1  6
 16 62  1  1
 17 63  1  0
 18 64  1  0
 18 65  1  0
 19 66  1  0
 20 67  1  0
 21 68  1  1
 22 69  1  0
 22 70  1  0
 23 71  1  0
 23 72  1  0
 24 73  1  0
 25 74  1  0
 26 75  1  0
 27 76  1  0
 28 77  1  0
 28 78  1  0
 29 79  1  1
 30 80  1  6
 31 81  1  0
 32 82  1  1
 33 83  1  0
 34 84  1  0
 34 85  1  0
 34 86  1  0
 35 87  1  1
 37 88  1  1
 38 89  1  0
 39 90  1  6
 40 91  1  0
 41 92  1  0
 41 93  1  0
 42 94  1  0
 43 95  1  0
 44 96  1  0
 45 97  1  0
 45 98  1  0
 46 99  1  0
 46100  1  0
M  END
>  <PDBID>  (1) 
1A4G

>  <PDB ID>  (1) 
1A4G

>  <Generic Name>  (1) 
Zanamivir

>  <Brand Name>  (1) 
Relenza

>  <DrugBank ID>  (1) 
DB00558

>  <ATC Codes>  (1) 
J05AH01

>  <Ligand ID>  (1) 
ZMR

>  <Target Name>  (1) 
Neuraminidase

>  <UniProt ID>  (1) 
P27907

>  <PDB ID.1>  (1) 
1A4G

>  <Seq. Identity>  (1) 
97%

$$$$
