PDB_DB04835_99
     RDKit          3D

180188  0  0  0  0  0  0  0  0999 V2000
  144.6040  112.0550   17.6100 F   0  0  0  0  0  0  0  0  0  0  0  0
  145.9790  109.5470   21.1790 O   0  0  0  0  0  0  0  0  0  0  0  0
  152.6690  105.1870   22.2090 C   0  0  2  0  0  0  0  0  0  0  0  0
  154.1620  104.8850   22.1940 N   0  0  0  0  0  0  0  0  0  0  0  0
  149.0260  107.4660   23.0410 C   0  0  0  0  0  0  0  0  0  0  0  0
  155.0710  106.4570   24.0150 C   0  0  2  0  0  0  0  0  0  0  0  0
  149.0330  108.9610   22.7220 C   0  0  0  0  0  0  0  0  0  0  0  0
  147.8130  109.6160   23.3500 C   0  0  1  0  0  0  0  0  0  0  0  0
  154.0730  103.1520   20.3110 C   0  0  0  0  0  0  0  0  0  0  0  0
  148.0410  109.9470   24.6900 C   0  0  1  0  0  0  0  0  0  0  0  0
  146.5220  110.6120   21.4950 C   0  0  1  0  0  0  0  0  0  0  0  0
  146.3040  111.8690   20.6640 C   0  0  1  0  0  0  0  0  0  0  0  0
  145.2140  113.1280   18.2140 C   0  0  2  0  0  0  0  0  0  0  0  0
  156.0460  107.6320   23.8630 C   0  0  0  0  0  0  0  0  0  0  0  0
  145.0800  114.1900   17.3660 F   0  0  0  0  0  0  0  0  0  0  0  0
  150.3770  106.8640   22.9180 N   0  0  0  0  0  0  0  0  0  0  0  0
  150.7680  106.6800   21.4990 C   0  0  1  0  0  0  0  0  0  0  0  0
  155.2160  105.7160   25.3520 C   0  0  0  0  0  0  0  0  0  0  0  0
  146.8980  111.6000   19.2670 C   0  0  0  0  0  0  0  0  0  0  0  0
  144.7870  112.2380   20.5960 C   0  0  0  0  0  0  0  0  0  0  0  0
  146.7110  112.8360   18.3930 C   0  0  0  0  0  0  0  0  0  0  0  0
  144.5470  113.4140   19.6080 C   0  0  0  0  0  0  0  0  0  0  0  0
  147.2380  109.3410   25.6550 C   0  0  0  0  0  0  0  0  0  0  0  0
  149.1010  110.7810   25.0800 C   0  0  0  0  0  0  0  0  0  0  0  0
  147.4530  109.6060   27.0060 C   0  0  0  0  0  0  0  0  0  0  0  0
  149.3270  111.0300   26.4310 C   0  0  0  0  0  0  0  0  0  0  0  0
  148.5010  110.4450   27.3910 C   0  0  0  0  0  0  0  0  0  0  0  0
  150.4260  105.4650   23.4370 C   0  0  2  0  0  0  0  0  0  0  0  0
  156.3340  104.8490   22.4740 N   0  0  0  0  0  0  0  0  0  0  0  0
  155.1940  105.4320   22.8610 C   0  0  1  0  0  0  0  0  0  0  0  0
  156.0860  104.0420   21.5970 N   0  0  0  0  0  0  0  0  0  0  0  0
  147.4180  110.7540   22.5040 N   0  0  0  0  0  0  0  0  0  0  0  0
  152.2890  106.4510   21.4190 C   0  0  0  0  0  0  0  0  0  0  0  0
  151.8960  104.9800   23.5500 C   0  0  0  0  0  0  0  0  0  0  0  0
  154.7660  104.0230   21.3740 C   0  0  0  0  0  0  0  0  0  0  0  0
  149.9560  105.4450   21.0550 C   0  0  0  0  0  0  0  0  0  0  0  0
  149.6950  104.6540   22.3570 C   0  0  0  0  0  0  0  0  0  0  0  0
  180.6070  115.0910   17.7180 F   0  0  0  0  0  0  0  0  0  0  0  0
  181.7160  112.6060   21.8210 O   0  0  0  0  0  0  0  0  0  0  0  0
  188.6140  108.2570   22.6070 C   0  0  2  0  0  0  0  0  0  0  0  0
  190.1250  108.0400   22.6250 N   0  0  0  0  0  0  0  0  0  0  0  0
  184.9490  110.5220   23.4210 C   0  0  0  0  0  0  0  0  0  0  0  0
  190.8430  109.7140   24.4350 C   0  0  2  0  0  0  0  0  0  0  0  0
  185.0370  112.0070   23.0730 C   0  0  0  0  0  0  0  0  0  0  0  0
  183.8560  112.7280   23.6750 C   0  0  1  0  0  0  0  0  0  0  0  0
  190.2500  106.2570   20.7800 C   0  0  0  0  0  0  0  0  0  0  0  0
  184.0850  113.1240   25.0020 C   0  0  1  0  0  0  0  0  0  0  0  0
  182.3610  113.6520   21.9310 C   0  0  1  0  0  0  0  0  0  0  0  0
  182.0570  114.8610   21.0270 C   0  0  1  0  0  0  0  0  0  0  0  0
  181.0790  116.1150   18.4820 C   0  0  2  0  0  0  0  0  0  0  0  0
  191.6840  110.9770   24.2050 C   0  0  0  0  0  0  0  0  0  0  0  0
  180.9460  117.1770   17.7130 F   0  0  0  0  0  0  0  0  0  0  0  0
  186.2690  109.8690   23.2700 N   0  0  0  0  0  0  0  0  0  0  0  0
  186.6350  109.6590   21.8550 C   0  0  1  0  0  0  0  0  0  0  0  0
  191.0460  109.1010   25.8130 C   0  0  0  0  0  0  0  0  0  0  0  0
  182.8020  114.6680   19.6730 C   0  0  0  0  0  0  0  0  0  0  0  0
  180.5230  115.0630   20.7980 C   0  0  0  0  0  0  0  0  0  0  0  0
  182.5960  115.8910   18.7600 C   0  0  0  0  0  0  0  0  0  0  0  0
  180.2610  116.2690   19.8270 C   0  0  0  0  0  0  0  0  0  0  0  0
  183.2060  112.6530   25.9960 C   0  0  0  0  0  0  0  0  0  0  0  0
  185.1980  113.9070   25.3670 C   0  0  0  0  0  0  0  0  0  0  0  0
  183.4080  112.9940   27.3380 C   0  0  0  0  0  0  0  0  0  0  0  0
  185.4100  114.2370   26.7090 C   0  0  0  0  0  0  0  0  0  0  0  0
  184.5130  113.7850   27.6910 C   0  0  0  0  0  0  0  0  0  0  0  0
  186.3540  108.4930   23.8350 C   0  0  2  0  0  0  0  0  0  0  0  0
  192.2790  108.1260   23.0220 N   0  0  0  0  0  0  0  0  0  0  0  0
  191.0820  108.6390   23.3480 C   0  0  0  0  0  0  0  0  0  0  0  0
  192.1270  107.2800   22.1390 N   0  0  0  0  0  0  0  0  0  0  0  0
  183.4230  113.8050   22.7690 N   0  0  0  0  0  0  0  0  0  0  0  0
  188.1650  109.4660   21.7580 C   0  0  0  0  0  0  0  0  0  0  0  0
  187.8330  108.0490   23.9560 C   0  0  0  0  0  0  0  0  0  0  0  0
  190.8240  107.1990   21.8490 C   0  0  0  0  0  0  0  0  0  0  0  0
  185.8620  108.3890   21.4600 C   0  0  0  0  0  0  0  0  0  0  0  0
  185.6610  107.6220   22.7780 C   0  0  0  0  0  0  0  0  0  0  0  0
  145.7257  109.0503   21.9971 H   0  0  0  0  0  0  0  0  0  0  0  0
  152.2601  104.3438   21.6330 H   0  0  0  0  0  0  0  0  0  0  0  0
  148.6668  107.3245   24.0710 H   0  0  0  0  0  0  0  0  0  0  0  0
  148.3651  106.9675   22.3166 H   0  0  0  0  0  0  0  0  0  0  0  0
  154.0752  106.9231   23.9825 H   0  0  0  0  0  0  0  0  0  0  0  0
  149.9463  109.4191   23.1294 H   0  0  0  0  0  0  0  0  0  0  0  0
  149.0074  109.1046   21.6317 H   0  0  0  0  0  0  0  0  0  0  0  0
  146.9673  108.9136   23.3863 H   0  0  0  0  0  0  0  0  0  0  0  0
  153.4619  102.3840   20.8078 H   0  0  0  0  0  0  0  0  0  0  0  0
  153.4281  103.7839   19.6828 H   0  0  0  0  0  0  0  0  0  0  0  0
  154.8337  102.6656   19.6828 H   0  0  0  0  0  0  0  0  0  0  0  0
  147.3196  110.7734   24.6086 H   0  0  0  0  0  0  0  0  0  0  0  0
  147.3922  110.3525   20.8742 H   0  0  0  0  0  0  0  0  0  0  0  0
  146.8052  112.7347   21.1216 H   0  0  0  0  0  0  0  0  0  0  0  0
  156.3446  107.9918   24.8587 H   0  0  0  0  0  0  0  0  0  0  0  0
  156.9374  107.2997   23.3107 H   0  0  0  0  0  0  0  0  0  0  0  0
  155.5550  108.4468   23.3107 H   0  0  0  0  0  0  0  0  0  0  0  0
  150.5606  107.5451   20.8520 H   0  0  0  0  0  0  0  0  0  0  0  0
  155.0772  106.4253   26.1812 H   0  0  0  0  0  0  0  0  0  0  0  0
  154.4559  104.9235   25.4163 H   0  0  0  0  0  0  0  0  0  0  0  0
  156.2188  105.2684   25.4163 H   0  0  0  0  0  0  0  0  0  0  0  0
  147.9707  111.3753   19.3609 H   0  0  0  0  0  0  0  0  0  0  0  0
  146.3847  110.7426   18.8073 H   0  0  0  0  0  0  0  0  0  0  0  0
  144.2175  111.3602   20.2565 H   0  0  0  0  0  0  0  0  0  0  0  0
  144.4547  112.5469   21.5981 H   0  0  0  0  0  0  0  0  0  0  0  0
  147.1684  112.6590   17.4084 H   0  0  0  0  0  0  0  0  0  0  0  0
  147.1928  113.6982   18.8773 H   0  0  0  0  0  0  0  0  0  0  0  0
  144.9794  114.3326   20.0313 H   0  0  0  0  0  0  0  0  0  0  0  0
  143.4632  113.5293   19.4593 H   0  0  0  0  0  0  0  0  0  0  0  0
  146.2009  109.6341   25.4349 H   0  0  0  0  0  0  0  0  0  0  0  0
  147.4922  108.2748   25.5626 H   0  0  0  0  0  0  0  0  0  0  0  0
  150.0224  110.3320   24.6808 H   0  0  0  0  0  0  0  0  0  0  0  0
  148.8081  111.7653   24.6858 H   0  0  0  0  0  0  0  0  0  0  0  0
  146.5267  110.0551   27.3937 H   0  0  0  0  0  0  0  0  0  0  0  0
  147.7469  108.6276   27.4139 H   0  0  0  0  0  0  0  0  0  0  0  0
  150.3530  110.6985   26.6488 H   0  0  0  0  0  0  0  0  0  0  0  0
  149.1140  112.1045   26.5316 H   0  0  0  0  0  0  0  0  0  0  0  0
  148.0511  111.2689   27.9644 H   0  0  0  0  0  0  0  0  0  0  0  0
  149.1819  109.7637   27.9222 H   0  0  0  0  0  0  0  0  0  0  0  0
  149.9780  105.3664   24.4368 H   0  0  0  0  0  0  0  0  0  0  0  0
  156.9826  105.5633   22.1133 H   0  0  0  0  0  0  0  0  0  0  0  0
  155.2279  106.2558   22.1329 H   0  0  0  0  0  0  0  0  0  0  0  0
  156.5772  104.3113   20.7326 H   0  0  0  0  0  0  0  0  0  0  0  0
  147.0299  111.4665   23.1386 H   0  0  0  0  0  0  0  0  0  0  0  0
  152.8118  107.3194   21.8463 H   0  0  0  0  0  0  0  0  0  0  0  0
  152.5816  106.3226   20.3664 H   0  0  0  0  0  0  0  0  0  0  0  0
  151.9012  103.9099   23.8046 H   0  0  0  0  0  0  0  0  0  0  0  0
  152.3960  105.5698   24.3324 H   0  0  0  0  0  0  0  0  0  0  0  0
  154.6324  103.2228   22.1168 H   0  0  0  0  0  0  0  0  0  0  0  0
  149.0069  105.7517   20.5913 H   0  0  0  0  0  0  0  0  0  0  0  0
  150.4913  104.8443   20.3049 H   0  0  0  0  0  0  0  0  0  0  0  0
  150.1073  103.6367   22.2858 H   0  0  0  0  0  0  0  0  0  0  0  0
  148.6229  104.5331   22.5713 H   0  0  0  0  0  0  0  0  0  0  0  0
  181.4998  112.2554   22.7212 H   0  0  0  0  0  0  0  0  0  0  0  0
  188.2629  107.3745   22.0521 H   0  0  0  0  0  0  0  0  0  0  0  0
  184.6103  110.4147   24.4620 H   0  0  0  0  0  0  0  0  0  0  0  0
  184.2362  110.0403   22.7356 H   0  0  0  0  0  0  0  0  0  0  0  0
  189.7999  110.0567   24.3687 H   0  0  0  0  0  0  0  0  0  0  0  0
  185.9697  112.4255   23.4791 H   0  0  0  0  0  0  0  0  0  0  0  0
  185.0286  112.1318   21.9801 H   0  0  0  0  0  0  0  0  0  0  0  0
  183.0091  112.0318   23.7644 H   0  0  0  0  0  0  0  0  0  0  0  0
  189.7374  105.4158   21.2696 H   0  0  0  0  0  0  0  0  0  0  0  0
  189.5338  106.8077   20.1525 H   0  0  0  0  0  0  0  0  0  0  0  0
  191.0677  105.8730   20.1525 H   0  0  0  0  0  0  0  0  0  0  0  0
  183.4422  114.0037   24.8504 H   0  0  0  0  0  0  0  0  0  0  0  0
  183.0870  113.2820   21.1921 H   0  0  0  0  0  0  0  0  0  0  0  0
  182.4136  115.7729   21.5283 H   0  0  0  0  0  0  0  0  0  0  0  0
  191.9711  111.4081   25.1754 H   0  0  0  0  0  0  0  0  0  0  0  0
  192.5894  110.7163   23.6374 H   0  0  0  0  0  0  0  0  0  0  0  0
  191.0943  111.7119   23.6374 H   0  0  0  0  0  0  0  0  0  0  0  0
  186.3856  110.4996   21.1907 H   0  0  0  0  0  0  0  0  0  0  0  0
  190.7997  109.8448   26.5851 H   0  0  0  0  0  0  0  0  0  0  0  0
  190.3899  108.2252   25.9250 H   0  0  0  0  0  0  0  0  0  0  0  0
  192.0951  108.7899   25.9250 H   0  0  0  0  0  0  0  0  0  0  0  0
  183.8770  114.5393   19.8674 H   0  0  0  0  0  0  0  0  0  0  0  0
  182.3963  113.7781   19.1695 H   0  0  0  0  0  0  0  0  0  0  0  0
  180.0998  114.1475   20.3591 H   0  0  0  0  0  0  0  0  0  0  0  0
  180.0462  115.2780   21.7657 H   0  0  0  0  0  0  0  0  0  0  0  0
  183.1178  115.7229   17.8064 H   0  0  0  0  0  0  0  0  0  0  0  0
  183.0011  116.7820   19.2619 H   0  0  0  0  0  0  0  0  0  0  0  0
  180.5636  117.2019   20.3252 H   0  0  0  0  0  0  0  0  0  0  0  0
  179.1892  116.2883   19.5802 H   0  0  0  0  0  0  0  0  0  0  0  0
  182.2022  113.0130   25.7263 H   0  0  0  0  0  0  0  0  0  0  0  0
  183.3786  111.5667   25.9865 H   0  0  0  0  0  0  0  0  0  0  0  0
  186.0929  113.3645   25.0281 H   0  0  0  0  0  0  0  0  0  0  0  0
  184.9884  114.8793   24.8973 H   0  0  0  0  0  0  0  0  0  0  0  0
  182.5089  113.5338   27.6699 H   0  0  0  0  0  0  0  0  0  0  0  0
  183.6162  112.0282   27.8217 H   0  0  0  0  0  0  0  0  0  0  0  0
  186.4018  113.8459   26.9799 H   0  0  0  0  0  0  0  0  0  0  0  0
  185.2768  115.3288   26.7263 H   0  0  0  0  0  0  0  0  0  0  0  0
  184.1130  114.6808   28.1885 H   0  0  0  0  0  0  0  0  0  0  0  0
  185.1281  113.0969   28.2895 H   0  0  0  0  0  0  0  0  0  0  0  0
  185.9027  108.4228   24.8357 H   0  0  0  0  0  0  0  0  0  0  0  0
  192.8943  108.8770   22.6781 H   0  0  0  0  0  0  0  0  0  0  0  0
  191.1640  109.4279   22.5858 H   0  0  0  0  0  0  0  0  0  0  0  0
  192.6536  107.5569   21.2982 H   0  0  0  0  0  0  0  0  0  0  0  0
  183.2063  114.6159   23.3660 H   0  0  0  0  0  0  0  0  0  0  0  0
  188.6680  110.3727   22.1253 H   0  0  0  0  0  0  0  0  0  0  0  0
  188.4338  109.2816   20.7074 H   0  0  0  0  0  0  0  0  0  0  0  0
  187.8644  106.9830   24.2256 H   0  0  0  0  0  0  0  0  0  0  0  0
  188.3142  108.6652   24.7298 H   0  0  0  0  0  0  0  0  0  0  0  0
  190.7126  106.4083   22.6056 H   0  0  0  0  0  0  0  0  0  0  0  0
  184.8917  108.6500   21.0123 H   0  0  0  0  0  0  0  0  0  0  0  0
  186.4026  107.7913   20.7113 H   0  0  0  0  0  0  0  0  0  0  0  0
  186.1287  106.6278   22.7252 H   0  0  0  0  0  0  0  0  0  0  0  0
  184.5986  107.4509   23.0061 H   0  0  0  0  0  0  0  0  0  0  0  0
  3  4  1  0
  5  7  1  0
  7  8  1  0
  8 10  1  0
  2 11  1  0
 11 12  1  0
 13  1  1  6
  6 14  1  0
 13 15  1  0
  5 16  1  0
 16 17  1  0
  6 18  1  0
 12 19  1  0
 12 20  1  0
 13 21  1  0
 19 21  1  0
 13 22  1  0
 20 22  1  0
 10 23  1  0
 10 24  1  0
 23 25  1  0
 24 26  1  0
 25 27  1  0
 26 27  1  0
 16 28  1  0
  4 30  1  0
  6 30  1  0
 29 30  1  0
 29 31  1  0
  8 32  1  0
 11 32  1  0
  3 33  1  0
 17 33  1  0
  3 34  1  0
 28 34  1  0
  4 35  1  0
  9 35  1  0
 31 35  1  0
 17 36  1  0
 28 37  1  0
 36 37  1  0
 40 41  1  0
 42 44  1  0
 44 45  1  0
 45 47  1  0
 39 48  1  0
 48 49  1  0
 50 38  1  6
 43 51  1  0
 50 52  1  0
 42 53  1  0
 53 54  1  0
 43 55  1  0
 49 56  1  0
 49 57  1  0
 50 58  1  0
 56 58  1  0
 50 59  1  0
 57 59  1  0
 47 60  1  0
 47 61  1  0
 60 62  1  0
 61 63  1  0
 62 64  1  0
 63 64  1  0
 53 65  1  0
 41 67  1  0
 43 67  1  0
 66 67  1  0
 66 68  1  0
 45 69  1  0
 48 69  1  0
 40 70  1  0
 54 70  1  0
 40 71  1  0
 65 71  1  0
 41 72  1  0
 46 72  1  0
 68 72  1  0
 54 73  1  0
 65 74  1  0
 73 74  1  0
  2 75  1  0
  3 76  1  6
  5 77  1  0
  5 78  1  0
  6 79  1  1
  7 80  1  0
  7 81  1  0
  8 82  1  1
  9 83  1  0
  9 84  1  0
  9 85  1  0
 10 86  1  6
 11 87  1  1
 12 88  1  1
 14 89  1  0
 14 90  1  0
 14 91  1  0
 17 92  1  6
 18 93  1  0
 18 94  1  0
 18 95  1  0
 19 96  1  0
 19 97  1  0
 20 98  1  0
 20 99  1  0
 21100  1  0
 21101  1  0
 22102  1  0
 22103  1  0
 23104  1  0
 23105  1  0
 24106  1  0
 24107  1  0
 25108  1  0
 25109  1  0
 26110  1  0
 26111  1  0
 27112  1  0
 27113  1  0
 28114  1  1
 29115  1  0
 30116  1  6
 31117  1  0
 32118  1  0
 33119  1  0
 33120  1  0
 34121  1  0
 34122  1  0
 35123  1  0
 36124  1  0
 36125  1  0
 37126  1  0
 37127  1  0
 39128  1  0
 40129  1  6
 42130  1  0
 42131  1  0
 43132  1  1
 44133  1  0
 44134  1  0
 45135  1  1
 46136  1  0
 46137  1  0
 46138  1  0
 47139  1  6
 48140  1  1
 49141  1  1
 51142  1  0
 51143  1  0
 51144  1  0
 54145  1  6
 55146  1  0
 55147  1  0
 55148  1  0
 56149  1  0
 56150  1  0
 57151  1  0
 57152  1  0
 58153  1  0
 58154  1  0
 59155  1  0
 59156  1  0
 60157  1  0
 60158  1  0
 61159  1  0
 61160  1  0
 62161  1  0
 62162  1  0
 63163  1  0
 63164  1  0
 64165  1  0
 64166  1  0
 65167  1  1
 66168  1  0
 67169  1  0
 68170  1  0
 69171  1  0
 70172  1  0
 70173  1  0
 71174  1  0
 71175  1  0
 72176  1  0
 73177  1  0
 73178  1  0
 74179  1  0
 74180  1  0
M  END
>  <PDBID>  (1) 
4MBS

>  <PDB ID>  (1) 
4MBS

>  <Generic Name>  (1) 
Maraviroc

>  <Brand Name>  (1) 
Celsentri#Selzentry

>  <DrugBank ID>  (1) 
DB04835

>  <ATC Codes>  (1) 
J05AX09

>  <Ligand ID>  (1) 
MRV

>  <Target Name>  (1) 
C-C chemokine receptor type 5

>  <UniProt ID>  (1) 
P51681

>  <PDB ID.1>  (1) 
4MBS

>  <Seq. Identity>  (1) 
74%

$$$$
