PDB_DB08912_99
     RDKit          3D

 55 58  0  0  0  0  0  0  0  0999 V2000
  -44.7220   -4.2950   76.0440 C   0  0  0  0  0  0  0  0  0  0  0  0
  -46.1860   -3.6970   74.3470 C   0  0  0  0  0  0  0  0  0  0  0  0
  -45.9640   -4.1210   75.6000 N   0  0  0  0  0  0  0  0  0  0  0  0
  -45.0820   -3.3480   73.5370 C   0  0  0  0  0  0  0  0  0  0  0  0
  -43.6710   -4.0000   75.2760 N   0  0  0  0  0  0  0  0  0  0  0  0
  -43.8100   -3.5400   74.0360 C   0  0  0  0  0  0  0  0  0  0  0  0
  -44.5120   -4.7780   77.3270 N   0  0  0  0  0  0  0  0  0  0  0  0
  -47.5830   -3.5000   73.9230 C   0  0  0  0  0  0  0  0  0  0  0  0
  -48.8990   -3.6130   75.0700 S   0  0  0  0  0  0  0  0  0  0  0  0
  -50.0640   -3.1860   73.8910 C   0  0  0  0  0  0  0  0  0  0  0  0
  -49.4670   -3.0500   72.7550 N   0  0  0  0  0  0  0  0  0  0  0  0
  -48.1490   -3.2110   72.6920 C   0  0  0  0  0  0  0  0  0  0  0  0
  -51.5650   -3.0650   74.1370 C   0  0  0  0  0  0  0  0  0  0  0  0
  -51.8860   -2.4000   75.4740 C   0  0  0  0  0  0  0  0  0  0  0  0
  -52.2600   -2.2360   73.0620 C   0  0  0  0  0  0  0  0  0  0  0  0
  -52.1880   -4.4530   74.1470 C   0  0  0  0  0  0  0  0  0  0  0  0
  -47.4670   -3.0560   71.3740 C   0  0  0  0  0  0  0  0  0  0  0  0
  -47.0390   -1.6600   69.4230 C   0  0  0  0  0  0  0  0  0  0  0  0
  -47.5520   -1.8160   70.7190 C   0  0  0  0  0  0  0  0  0  0  0  0
  -46.3850   -2.7430   68.8060 C   0  0  0  0  0  0  0  0  0  0  0  0
  -46.8670   -4.1480   70.7070 C   0  0  0  0  0  0  0  0  0  0  0  0
  -46.3300   -3.9850   69.4330 C   0  0  0  0  0  0  0  0  0  0  0  0
  -48.1600   -0.7850   71.3490 F   0  0  0  0  0  0  0  0  0  0  0  0
  -47.1350   -0.3860   68.8310 N   0  0  0  0  0  0  0  0  0  0  0  0
  -47.1570   -0.0770   67.1980 S   0  0  0  0  0  0  0  0  0  0  0  0
  -45.4410    0.0910   66.7740 C   0  0  0  0  0  0  0  0  0  0  0  0
  -43.3500    1.2430   67.1450 C   0  0  0  0  0  0  0  0  0  0  0  0
  -44.6960    1.0750   67.4310 C   0  0  0  0  0  0  0  0  0  0  0  0
  -42.7170    0.4210   66.2280 C   0  0  0  0  0  0  0  0  0  0  0  0
  -44.7910   -0.7490   65.8500 C   0  0  0  0  0  0  0  0  0  0  0  0
  -43.4360   -0.5760   65.5890 C   0  0  0  0  0  0  0  0  0  0  0  0
  -45.4340   -1.7390   65.1940 F   0  0  0  0  0  0  0  0  0  0  0  0
  -45.2620    1.8750   68.3590 F   0  0  0  0  0  0  0  0  0  0  0  0
  -47.6750   -1.2110   66.5310 O   0  0  0  0  0  0  0  0  0  0  0  0
  -47.7490    1.2050   67.0460 O   0  0  0  0  0  0  0  0  0  0  0  0
  -45.2334   -2.9321   72.5300 H   0  0  0  0  0  0  0  0  0  0  0  0
  -42.9269   -3.3166   73.4193 H   0  0  0  0  0  0  0  0  0  0  0  0
  -43.5523   -4.9144   77.6753 H   0  0  0  0  0  0  0  0  0  0  0  0
  -45.3157   -5.0003   77.9316 H   0  0  0  0  0  0  0  0  0  0  0  0
  -51.5684   -3.0579   76.2964 H   0  0  0  0  0  0  0  0  0  0  0  0
  -51.3515   -1.4411   75.5443 H   0  0  0  0  0  0  0  0  0  0  0  0
  -52.9692   -2.2220   75.5443 H   0  0  0  0  0  0  0  0  0  0  0  0
  -52.8967   -1.4765   73.5392 H   0  0  0  0  0  0  0  0  0  0  0  0
  -51.5040   -1.7398   72.4357 H   0  0  0  0  0  0  0  0  0  0  0  0
  -52.8805   -2.8938   72.4357 H   0  0  0  0  0  0  0  0  0  0  0  0
  -52.3354   -4.7813   75.1865 H   0  0  0  0  0  0  0  0  0  0  0  0
  -53.1589   -4.4228   73.6309 H   0  0  0  0  0  0  0  0  0  0  0  0
  -51.5201   -5.1584   73.6309 H   0  0  0  0  0  0  0  0  0  0  0  0
  -45.9139   -2.6072   67.8213 H   0  0  0  0  0  0  0  0  0  0  0  0
  -46.8241   -5.1319   71.1971 H   0  0  0  0  0  0  0  0  0  0  0  0
  -45.8616   -4.8385   68.9210 H   0  0  0  0  0  0  0  0  0  0  0  0
  -47.1969    0.4240   69.4643 H   0  0  0  0  0  0  0  0  0  0  0  0
  -42.7799    2.0361   67.6509 H   0  0  0  0  0  0  0  0  0  0  0  0
  -41.6481    0.5590   66.0079 H   0  0  0  0  0  0  0  0  0  0  0  0
  -42.9308   -1.2365   64.8690 H   0  0  0  0  0  0  0  0  0  0  0  0
  1  3  2  0
  2  3  1  0
  2  4  2  0
  1  5  1  0
  4  6  1  0
  5  6  2  0
  1  7  1  0
  2  8  1  0
  8  9  1  0
  9 10  1  0
 10 11  2  0
  8 12  2  0
 11 12  1  0
 10 13  1  0
 13 14  1  0
 13 15  1  0
 13 16  1  0
 12 17  1  0
 17 19  2  0
 18 19  1  0
 18 20  2  0
 17 21  1  0
 20 22  1  0
 21 22  2  0
 19 23  1  0
 18 24  1  0
 24 25  1  0
 25 26  1  0
 26 28  1  0
 27 28  2  0
 27 29  1  0
 26 30  2  0
 29 31  2  0
 30 31  1  0
 30 32  1  0
 28 33  1  0
 25 34  2  0
 25 35  2  0
  4 36  1  0
  6 37  1  0
  7 38  1  0
  7 39  1  0
 14 40  1  0
 14 41  1  0
 14 42  1  0
 15 43  1  0
 15 44  1  0
 15 45  1  0
 16 46  1  0
 16 47  1  0
 16 48  1  0
 20 49  1  0
 21 50  1  0
 22 51  1  0
 24 52  1  0
 27 53  1  0
 29 54  1  0
 31 55  1  0
M  END
$$$$
