PDB_DB00452_78
     RDKit          3D

 88 91  0  0  0  0  0  0  0  0999 V2000
  -54.0410 -106.5040   50.9350 C   0  0  2  0  0  0  0  0  0  0  0  0
  -53.9670 -105.0980   50.9890 O   0  0  0  0  0  0  0  0  0  0  0  0
  -52.6450 -107.1900   51.0210 C   0  0  2  0  0  0  0  0  0  0  0  0
  -51.6970 -106.5430   51.9020 N   0  0  0  0  0  0  0  0  0  0  0  0
  -52.0110 -107.3110   49.7020 C   0  0  1  0  0  0  0  0  0  0  0  0
  -52.4910 -108.5080   49.1500 O   0  0  0  0  0  0  0  0  0  0  0  0
  -52.4110 -106.2730   48.8220 C   0  0  2  0  0  0  0  0  0  0  0  0
  -51.9730 -105.0110   49.2770 O   0  0  0  0  0  0  0  0  0  0  0  0
  -53.9030 -106.2160   48.6910 C   0  0  2  0  0  0  0  0  0  0  0  0
  -54.6770 -106.8860   49.7830 O   0  0  0  0  0  0  0  0  0  0  0  0
  -54.3110 -106.8180   47.4040 C   0  0  0  0  0  0  0  0  0  0  0  0
  -57.6760 -102.9790   51.5740 C   0  0  1  0  0  0  0  0  0  0  0  0
  -59.0260 -102.6060   51.1390 N   0  0  0  0  0  0  0  0  0  0  0  0
  -57.4630 -104.4480   51.9410 C   0  0  1  0  0  0  0  0  0  0  0  0
  -55.9930 -104.6780   52.3220 C   0  0  1  0  0  0  0  0  0  0  0  0
  -55.8040 -105.8540   53.1270 O   0  0  0  0  0  0  0  0  0  0  0  0
  -55.3260 -104.6820   50.9890 C   0  0  1  0  0  0  0  0  0  0  0  0
  -55.4330 -103.3060   50.3330 C   0  0  1  0  0  0  0  0  0  0  0  0
  -55.2060 -103.5030   48.9410 N   0  0  0  0  0  0  0  0  0  0  0  0
  -56.7380 -102.5020   50.5050 C   0  0  0  0  0  0  0  0  0  0  0  0
  -54.5580 -105.8120   53.8490 C   0  0  1  0  0  0  0  0  0  0  0  0
  -54.5550 -106.3900   55.2250 C   0  0  1  0  0  0  0  0  0  0  0  0
  -53.5320 -107.4080   55.3300 C   0  0  1  0  0  0  0  0  0  0  0  0
  -53.1450 -107.6390   53.9160 C   0  0  2  0  0  0  0  0  0  0  0  0
  -53.4290 -106.4650   53.2350 O   0  0  0  0  0  0  0  0  0  0  0  0
  -53.9170 -108.7990   53.2840 C   0  0  0  0  0  0  0  0  0  0  0  0
  -49.9300 -103.9160   55.9980 C   0  0  1  0  0  0  0  0  0  0  0  0
  -49.9050 -104.6450   57.2770 C   0  0  1  0  0  0  0  0  0  0  0  0
  -50.9400 -105.5880   57.4210 C   0  0  2  0  0  0  0  0  0  0  0  0
  -51.2590 -106.5070   56.2470 C   0  0  1  0  0  0  0  0  0  0  0  0
  -52.6330 -106.9270   56.3530 O   0  0  0  0  0  0  0  0  0  0  0  0
  -50.6230 -104.5960   54.8320 C   0  0  1  0  0  0  0  0  0  0  0  0
  -50.8640 -105.9710   54.9160 O   0  0  0  0  0  0  0  0  0  0  0  0
  -51.9790 -103.9580   54.5560 C   0  0  0  0  0  0  0  0  0  0  0  0
  -53.8680 -108.1880   47.1760 N   0  0  0  0  0  0  0  0  0  0  0  0
  -54.2800 -105.2980   56.0030 O   0  0  0  0  0  0  0  0  0  0  0  0
  -48.6910 -105.3730   57.4000 O   0  0  0  0  0  0  0  0  0  0  0  0
  -50.5830 -102.6850   56.1680 O   0  0  0  0  0  0  0  0  0  0  0  0
  -54.7860 -108.6230   52.2390 O   0  0  0  0  0  0  0  0  0  0  0  0
  -58.2860 -104.7760   52.9550 O   0  0  0  0  0  0  0  0  0  0  0  0
  -52.7640 -103.3760   55.6220 N   0  0  0  0  0  0  0  0  0  0  0  0
  -52.0960 -104.7330   57.6950 N   0  0  0  0  0  0  0  0  0  0  0  0
  -54.6121 -106.8326   51.8158 H   0  0  0  0  0  0  0  0  0  0  0  0
  -52.8792 -108.1781   51.4438 H   0  0  0  0  0  0  0  0  0  0  0  0
  -51.9604 -106.7228   52.8814 H   0  0  0  0  0  0  0  0  0  0  0  0
  -50.7538 -106.9174   51.7259 H   0  0  0  0  0  0  0  0  0  0  0  0
  -50.9183 -107.2706   49.8217 H   0  0  0  0  0  0  0  0  0  0  0  0
  -52.7406 -109.1305   49.8782 H   0  0  0  0  0  0  0  0  0  0  0  0
  -51.9523 -106.5011   47.8486 H   0  0  0  0  0  0  0  0  0  0  0  0
  -51.9693 -105.0002   50.2669 H   0  0  0  0  0  0  0  0  0  0  0  0
  -54.1457 -105.1450   48.7554 H   0  0  0  0  0  0  0  0  0  0  0  0
  -55.4100 -106.8068   47.3595 H   0  0  0  0  0  0  0  0  0  0  0  0
  -53.8256 -106.2132   46.6239 H   0  0  0  0  0  0  0  0  0  0  0  0
  -57.4802 -102.4911   52.5402 H   0  0  0  0  0  0  0  0  0  0  0  0
  -59.6197 -102.4420   51.9646 H   0  0  0  0  0  0  0  0  0  0  0  0
  -58.9793 -101.7464   50.5735 H   0  0  0  0  0  0  0  0  0  0  0  0
  -57.6969 -105.0904   51.0793 H   0  0  0  0  0  0  0  0  0  0  0  0
  -55.5622 -103.9136   52.9855 H   0  0  0  0  0  0  0  0  0  0  0  0
  -55.8719 -105.4417   50.4103 H   0  0  0  0  0  0  0  0  0  0  0  0
  -54.6924 -102.6844   50.8575 H   0  0  0  0  0  0  0  0  0  0  0  0
  -54.4344 -104.1726   48.8104 H   0  0  0  0  0  0  0  0  0  0  0  0
  -56.0609 -103.8746   48.5029 H   0  0  0  0  0  0  0  0  0  0  0  0
  -56.4632 -101.4630   50.7394 H   0  0  0  0  0  0  0  0  0  0  0  0
  -57.2850 -102.6244   49.5586 H   0  0  0  0  0  0  0  0  0  0  0  0
  -54.4576 -104.7166   53.8555 H   0  0  0  0  0  0  0  0  0  0  0  0
  -55.4918 -106.8880   55.5156 H   0  0  0  0  0  0  0  0  0  0  0  0
  -53.7355 -108.4251   55.6961 H   0  0  0  0  0  0  0  0  0  0  0  0
  -52.0795 -107.9072   53.8626 H   0  0  0  0  0  0  0  0  0  0  0  0
  -53.1592 -109.5153   52.9337 H   0  0  0  0  0  0  0  0  0  0  0  0
  -54.5988 -109.0859   54.0981 H   0  0  0  0  0  0  0  0  0  0  0  0
  -48.8642 -103.8378   55.7374 H   0  0  0  0  0  0  0  0  0  0  0  0
  -50.0205 -103.8673   58.0463 H   0  0  0  0  0  0  0  0  0  0  0  0
  -50.6445 -106.3180   58.1889 H   0  0  0  0  0  0  0  0  0  0  0  0
  -50.6213 -107.4007   56.3146 H   0  0  0  0  0  0  0  0  0  0  0  0
  -49.8780 -104.4528   54.0354 H   0  0  0  0  0  0  0  0  0  0  0  0
  -51.8029 -103.1555   53.8246 H   0  0  0  0  0  0  0  0  0  0  0  0
  -52.5913 -104.8192   54.2501 H   0  0  0  0  0  0  0  0  0  0  0  0
  -53.7169 -108.6552   48.0814 H   0  0  0  0  0  0  0  0  0  0  0  0
  -54.5872 -108.6972   46.6427 H   0  0  0  0  0  0  0  0  0  0  0  0
  -54.3433 -105.5492   56.9585 H   0  0  0  0  0  0  0  0  0  0  0  0
  -48.4783 -105.5005   58.3584 H   0  0  0  0  0  0  0  0  0  0  0  0
  -50.6835 -102.4955   57.1345 H   0  0  0  0  0  0  0  0  0  0  0  0
  -55.6928 -108.4393   52.5912 H   0  0  0  0  0  0  0  0  0  0  0  0
  -57.8348 -104.5962   53.8176 H   0  0  0  0  0  0  0  0  0  0  0  0
  -52.3753 -103.6642   56.5313 H   0  0  0  0  0  0  0  0  0  0  0  0
  -52.7370 -102.3491   55.5470 H   0  0  0  0  0  0  0  0  0  0  0  0
  -52.2210 -104.6405   58.7132 H   0  0  0  0  0  0  0  0  0  0  0  0
  -51.9401 -103.8023   57.2823 H   0  0  0  0  0  0  0  0  0  0  0  0
  2  1  1  0
  3  1  1  0
  4  3  1  0
  5  3  1  0
  6  5  1  0
  7  5  1  0
  8  7  1  0
  9  7  1  0
 10  9  1  0
 10  1  1  0
 11  9  1  0
 13 12  1  0
 14 12  1  0
 15 14  1  0
 16 15  1  0
 17 15  1  0
 17  2  1  0
 18 17  1  0
 19 18  1  0
 20 18  1  0
 20 12  1  0
 21 16  1  0
 22 21  1  0
 23 22  1  0
 24 23  1  0
 25 21  1  0
 25 24  1  0
 26 24  1  0
 28 27  1  0
 29 28  1  0
 30 29  1  0
 31 30  1  0
 31 23  1  0
 32 27  1  0
 33 32  1  0
 33 30  1  0
 34 32  1  0
 35 11  1  0
 36 22  1  0
 37 28  1  0
 38 27  1  0
 39 26  1  0
 40 14  1  0
 41 34  1  0
 42 29  1  0
  1 43  1  1
  3 44  1  1
  4 45  1  0
  4 46  1  0
  5 47  1  1
  6 48  1  0
  7 49  1  6
  8 50  1  0
  9 51  1  6
 11 52  1  0
 11 53  1  0
 12 54  1  1
 13 55  1  0
 13 56  1  0
 14 57  1  6
 15 58  1  1
 17 59  1  6
 18 60  1  1
 19 61  1  0
 19 62  1  0
 20 63  1  0
 20 64  1  0
 21 65  1  1
 22 66  1  1
 23 67  1  1
 24 68  1  1
 26 69  1  0
 26 70  1  0
 27 71  1  6
 28 72  1  1
 29 73  1  1
 30 74  1  1
 32 75  1  6
 34 76  1  0
 34 77  1  0
 35 78  1  0
 35 79  1  0
 36 80  1  0
 37 81  1  0
 38 82  1  0
 39 83  1  0
 40 84  1  0
 41 85  1  0
 41 86  1  0
 42 87  1  0
 42 88  1  0
M  END
$$$$
