PDB_DB01010_98
     RDKit          3D

 34 34  0  0  0  0  0  0  0  0999 V2000
    3.4050   66.7340   64.2890 C   0  0  0  0  0  0  0  0  0  0  0  0
    4.3300   67.2790   63.4170 C   0  0  0  0  0  0  0  0  0  0  0  0
    5.1850   66.3830   62.7860 C   0  0  0  0  0  0  0  0  0  0  0  0
    5.1290   65.0050   62.9870 C   0  0  0  0  0  0  0  0  0  0  0  0
    4.1920   64.4850   63.8680 C   0  0  0  0  0  0  0  0  0  0  0  0
    3.3270   65.3540   64.5140 C   0  0  0  0  0  0  0  0  0  0  0  0
    5.9810   64.1490   62.3510 O   0  0  0  0  0  0  0  0  0  0  0  0
    4.4660   68.7310   63.1190 N   0  0  1  0  0  4  0  0  0  0  0  0
    5.2730   69.0150   61.8320 C   0  0  0  0  0  0  0  0  0  0  0  0
    3.0320   69.2890   62.9100 C   0  0  0  0  0  0  0  0  0  0  0  0
    5.1620   69.4040   64.3260 C   0  0  0  0  0  0  0  0  0  0  0  0
    6.4990   68.7780   64.8590 C   0  0  0  0  0  0  0  0  0  0  0  0
    3.5943   67.1965   65.2689 H   0  0  0  0  0  0  0  0  0  0  0  0
    2.4529   66.9412   63.7785 H   0  0  0  0  0  0  0  0  0  0  0  0
    5.0484   67.3824   64.2436 H   0  0  0  0  0  0  0  0  0  0  0  0
    5.0409   66.5370   61.7064 H   0  0  0  0  0  0  0  0  0  0  0  0
    6.1479   66.6329   63.2554 H   0  0  0  0  0  0  0  0  0  0  0  0
    5.8528   65.0957   63.8103 H   0  0  0  0  0  0  0  0  0  0  0  0
    3.5725   63.7759   63.2993 H   0  0  0  0  0  0  0  0  0  0  0  0
    4.7991   64.0613   64.6815 H   0  0  0  0  0  0  0  0  0  0  0  0
    3.4757   65.2020   65.5932 H   0  0  0  0  0  0  0  0  0  0  0  0
    2.3478   65.0894   64.0883 H   0  0  0  0  0  0  0  0  0  0  0  0
    6.4938   63.6338   63.0231 H   0  0  0  0  0  0  0  0  0  0  0  0
    6.2792   69.3691   62.1008 H   0  0  0  0  0  0  0  0  0  0  0  0
    5.3553   68.0918   61.2396 H   0  0  0  0  0  0  0  0  0  0  0  0
    4.7590   69.7862   61.2396 H   0  0  0  0  0  0  0  0  0  0  0  0
    2.5633   69.4714   63.8883 H   0  0  0  0  0  0  0  0  0  0  0  0
    3.0841   70.2325   62.3468 H   0  0  0  0  0  0  0  0  0  0  0  0
    2.4327   68.5584   62.3468 H   0  0  0  0  0  0  0  0  0  0  0  0
    5.3811   70.4427   64.0378 H   0  0  0  0  0  0  0  0  0  0  0  0
    4.4518   69.2735   65.1558 H   0  0  0  0  0  0  0  0  0  0  0  0
    6.4924   68.7811   65.9590 H   0  0  0  0  0  0  0  0  0  0  0  0
    6.5900   67.7437   64.4958 H   0  0  0  0  0  0  0  0  0  0  0  0
    7.3517   69.3705   64.4958 H   0  0  0  0  0  0  0  0  0  0  0  0
  1  2  1  0
  2  3  1  0
  3  4  1  0
  4  5  1  0
  1  6  1  0
  5  6  1  0
  4  7  1  0
  2  8  1  0
  8  9  1  6
  8 10  1  0
  8 11  1  0
 11 12  1  0
  1 13  1  0
  1 14  1  0
  2 15  1  0
  3 16  1  0
  3 17  1  0
  4 18  1  0
  5 19  1  0
  5 20  1  0
  6 21  1  0
  6 22  1  0
  7 23  1  0
  9 24  1  0
  9 25  1  0
  9 26  1  0
 10 27  1  0
 10 28  1  0
 10 29  1  0
 11 30  1  0
 11 31  1  0
 12 32  1  0
 12 33  1  0
 12 34  1  0
M  CHG  1   8   1
M  END
>  <PDBID>  (1) 
1AX9

>  <PDB ID>  (1) 
1AX9

>  <Generic Name>  (1) 
Edrophonium

>  <Brand Name>  (1) 
Enlon#Enlon 10mg/ml#Enlon Liq IV 10mg/ml#Enlon Plus#Tensilon#Antirex#Reversol

>  <DrugBank ID>  (1) 
DB01010

>  <ATC Codes>  (1) 
nan

>  <Ligand ID>  (1) 
EDR

>  <Target Name>  (1) 
Acetylcholinesterase

>  <UniProt ID>  (1) 
P22303

>  <PDB ID.1>  (1) 
1AX9

>  <Seq. Identity>  (1) 
57%

$$$$
