PDB_DB00238_97
     RDKit          3D

 48 51  0  0  0  0  0  0  0  0999 V2000
    2.0010  -37.6360   20.9490 N   0  0  0  0  0  0  0  0  0  0  0  0
    2.6330  -38.8350   20.3520 C   0  0  1  0  0  0  0  0  0  0  0  0
    3.1160  -39.8640   21.3140 C   0  0  0  0  0  0  0  0  0  0  0  0
    1.8970  -40.1160   20.4990 C   0  0  0  0  0  0  0  0  0  0  0  0
    4.2110  -36.7760   21.3030 N   0  0  0  0  0  0  0  0  0  0  0  0
    5.0780  -36.0800   22.0860 C   0  0  0  0  0  0  0  0  0  0  0  0
    4.6470  -35.3790   23.2500 C   0  0  0  0  0  0  0  0  0  0  0  0
    3.2940  -35.3980   23.5900 C   0  0  0  0  0  0  0  0  0  0  0  0
    2.8180  -34.6920   24.8320 C   0  0  0  0  0  0  0  0  0  0  0  0
    2.8920  -36.7940   21.6540 C   0  0  1  0  0  0  0  0  0  0  0  0
    2.3920  -36.1050   22.7750 C   0  0  1  0  0  0  0  0  0  0  0  0
    0.9820  -36.0650   23.0550 N   0  0  0  0  0  0  0  0  0  0  0  0
   -0.1160  -36.1190   22.2900 C   0  0  0  0  0  0  0  0  0  0  0  0
   -1.2410  -36.0180   22.8000 O   0  0  0  0  0  0  0  0  0  0  0  0
   -0.0090  -36.2490   20.7640 C   0  0  1  0  0  0  0  0  0  0  0  0
    1.0390  -36.9710   20.1330 C   0  0  1  0  0  0  0  0  0  0  0  0
   -1.0060  -35.6980   19.9630 C   0  0  0  0  0  0  0  0  0  0  0  0
   -0.9450  -35.8600   18.5770 C   0  0  0  0  0  0  0  0  0  0  0  0
    0.1370  -36.5820   18.0190 C   0  0  0  0  0  0  0  0  0  0  0  0
    1.1120  -37.1250   18.7860 N   0  0  0  0  0  0  0  0  0  0  0  0
    3.0736  -38.2868   19.5062 H   0  0  0  0  0  0  0  0  0  0  0  0
    4.0419  -40.4204   21.1061 H   0  0  0  0  0  0  0  0  0  0  0  0
    3.3507  -39.8763   22.3886 H   0  0  0  0  0  0  0  0  0  0  0  0
    0.9076  -40.1294   20.9796 H   0  0  0  0  0  0  0  0  0  0  0  0
    1.5735  -40.9099   19.8097 H   0  0  0  0  0  0  0  0  0  0  0  0
    4.2687  -36.3770   20.3552 H   0  0  0  0  0  0  0  0  0  0  0  0
    5.8357  -36.8022   22.4241 H   0  0  0  0  0  0  0  0  0  0  0  0
    5.3828  -35.2587   21.4207 H   0  0  0  0  0  0  0  0  0  0  0  0
    5.1994  -35.8004   24.1028 H   0  0  0  0  0  0  0  0  0  0  0  0
    4.8433  -34.3237   23.0096 H   0  0  0  0  0  0  0  0  0  0  0  0
    3.4535  -36.3168   24.1734 H   0  0  0  0  0  0  0  0  0  0  0  0
    3.1803  -35.2293   25.7208 H   0  0  0  0  0  0  0  0  0  0  0  0
    3.2077  -33.6634   24.8412 H   0  0  0  0  0  0  0  0  0  0  0  0
    1.7183  -34.6676   24.8412 H   0  0  0  0  0  0  0  0  0  0  0  0
    3.0933  -37.6055   22.3688 H   0  0  0  0  0  0  0  0  0  0  0  0
    2.2457  -35.2065   22.1575 H   0  0  0  0  0  0  0  0  0  0  0  0
    0.8510  -36.8512   23.7074 H   0  0  0  0  0  0  0  0  0  0  0  0
   -0.1542  -37.2104   22.4219 H   0  0  0  0  0  0  0  0  0  0  0  0
   -1.1580  -36.0255   23.7865 H   0  0  0  0  0  0  0  0  0  0  0  0
    0.6003  -35.3338   20.7288 H   0  0  0  0  0  0  0  0  0  0  0  0
    0.4143  -37.8764   20.1315 H   0  0  0  0  0  0  0  0  0  0  0  0
   -1.9597  -36.1347   20.2941 H   0  0  0  0  0  0  0  0  0  0  0  0
   -0.8779  -34.6143   20.1014 H   0  0  0  0  0  0  0  0  0  0  0  0
   -1.8680  -36.3744   18.2713 H   0  0  0  0  0  0  0  0  0  0  0  0
   -0.8046  -34.8373   18.1970 H   0  0  0  0  0  0  0  0  0  0  0  0
   -0.3079  -37.4137   17.4530 H   0  0  0  0  0  0  0  0  0  0  0  0
    0.6825  -35.7956   17.4768 H   0  0  0  0  0  0  0  0  0  0  0  0
    2.0045  -36.7114   18.4808 H   0  0  0  0  0  0  0  0  0  0  0  0
  1  2  1  0
  2  3  1  0
  2  4  1  0
  3  4  1  0
  5  6  1  0
  6  7  1  0
  7  8  1  0
  8  9  1  0
  1 10  1  0
  5 10  1  0
  8 11  1  0
 10 11  1  0
 11 12  1  0
 12 13  1  0
 13 14  1  0
 13 15  1  0
  1 16  1  0
 15 16  1  0
 15 17  1  0
 17 18  1  0
 18 19  1  0
 16 20  1  0
 19 20  1  0
  2 21  1  6
  3 22  1  0
  3 23  1  0
  4 24  1  0
  4 25  1  0
  5 26  1  0
  6 27  1  0
  6 28  1  0
  7 29  1  0
  7 30  1  0
  8 31  1  0
  9 32  1  0
  9 33  1  0
  9 34  1  0
 10 35  1  6
 11 36  1  1
 12 37  1  0
 13 38  1  0
 14 39  1  0
 15 40  1  6
 16 41  1  6
 17 42  1  0
 17 43  1  0
 18 44  1  0
 18 45  1  0
 19 46  1  0
 19 47  1  0
 20 48  1  0
M  END
>  <PDBID>  (1) 
1LWC

>  <PDB ID>  (1) 
1LWC

>  <Generic Name>  (1) 
Nevirapine

>  <Brand Name>  (1) 
Apo-nevirapine#Apo-nevirapine XR#Apo-zidovudine-lamivudine-nevirapine#Auro-nevirapine#Mylan-nevirapine#Nevirapine#Nevirapine Extended Release#PMS-nevirapine#Teva-nevirapine#Viramune#Viramune XR

>  <DrugBank ID>  (1) 
DB00238

>  <ATC Codes>  (1) 
J05AR05#J05AG01#J05AR07

>  <Ligand ID>  (1) 
NVP

>  <Target Name>  (1) 
Reverse transcriptase/RNaseH

>  <UniProt ID>  (1) 
Q72547

>  <PDB ID.1>  (1) 
1LWC

>  <Seq. Identity>  (1) 
96%

$$$$
