PDB_DB00311_95
     RDKit          3D

 26 27  0  0  0  0  0  0  0  0999 V2000
   30.6440   -9.6930  -22.2550 N   0  0  0  0  0  0  0  0  0  0  0  0
   34.1830  -10.0450  -24.8940 C   0  0  0  0  0  0  0  0  0  0  0  0
   34.7460  -11.2840  -24.3380 C   0  0  0  0  0  0  0  0  0  0  0  0
   36.0780  -11.6390  -24.6220 C   0  0  0  0  0  0  0  0  0  0  0  0
   36.8610  -10.8020  -25.4440 C   0  0  0  0  0  0  0  0  0  0  0  0
   38.6470  -12.2890  -26.2250 C   0  0  0  0  0  0  0  0  0  0  0  0
   30.6060  -12.2210  -22.5080 O   0  0  0  0  0  0  0  0  0  0  0  0
   30.1050  -10.7620  -24.3130 O   0  0  0  0  0  0  0  0  0  0  0  0
   30.9230  -10.9710  -23.1540 S   0  0  0  0  0  0  0  0  0  0  0  0
   32.4930  -10.9100  -23.7250 C   0  0  0  0  0  0  0  0  0  0  0  0
   32.9060   -9.8940  -24.5020 N   0  0  0  0  0  0  0  0  0  0  0  0
   33.6540  -12.1510  -23.3920 S   0  0  0  0  0  0  0  0  0  0  0  0
   36.3280   -9.6400  -25.9710 C   0  0  0  0  0  0  0  0  0  0  0  0
   35.0120   -9.2880  -25.7080 C   0  0  0  0  0  0  0  0  0  0  0  0
   38.1670  -11.0220  -25.7670 O   0  0  0  0  0  0  0  0  0  0  0  0
   39.4810  -12.9340  -25.1290 C   0  0  0  0  0  0  0  0  0  0  0  0
   30.7010   -9.9539  -21.2602 H   0  0  0  0  0  0  0  0  0  0  0  0
   31.3466   -8.9685  -22.4607 H   0  0  0  0  0  0  0  0  0  0  0  0
   36.5055  -12.5631  -24.2057 H   0  0  0  0  0  0  0  0  0  0  0  0
   37.7940  -12.9392  -26.4690 H   0  0  0  0  0  0  0  0  0  0  0  0
   39.2646  -12.1470  -27.1241 H   0  0  0  0  0  0  0  0  0  0  0  0
   36.9515   -8.9904  -26.6029 H   0  0  0  0  0  0  0  0  0  0  0  0
   34.6099   -8.3711  -26.1637 H   0  0  0  0  0  0  0  0  0  0  0  0
   39.0909  -12.6323  -24.1458 H   0  0  0  0  0  0  0  0  0  0  0  0
   39.4282  -14.0286  -25.2242 H   0  0  0  0  0  0  0  0  0  0  0  0
   40.5272  -12.6077  -25.2242 H   0  0  0  0  0  0  0  0  0  0  0  0
  2  3  1  0
  3  4  2  0
  4  5  1  0
  1  9  1  0
  7  9  2  0
  8  9  2  0
  9 10  1  0
  2 11  1  0
 10 11  2  0
  3 12  1  0
 10 12  1  0
  5 13  2  0
  2 14  2  0
 13 14  1  0
  5 15  1  0
  6 15  1  0
  6 16  1  0
  1 17  1  0
  1 18  1  0
  4 19  1  0
  6 20  1  0
  6 21  1  0
 13 22  1  0
 14 23  1  0
 16 24  1  0
 16 25  1  0
 16 26  1  0
M  END
$$$$
