PDB_DB01261_96
     RDKit          3D

 43 45  0  0  0  0  0  0  0  0999 V2000
   49.0150  -31.7750   29.5060 C   0  0  0  0  0  0  0  0  0  0  0  0
   49.8120  -31.6550   28.3700 C   0  0  0  0  0  0  0  0  0  0  0  0
   50.4710  -32.7710   27.8680 C   0  0  0  0  0  0  0  0  0  0  0  0
   50.3360  -34.0020   28.5030 C   0  0  0  0  0  0  0  0  0  0  0  0
   49.5410  -34.1180   29.6400 C   0  0  0  0  0  0  0  0  0  0  0  0
   48.8820  -33.0080   30.1400 C   0  0  0  0  0  0  0  0  0  0  0  0
   49.4090  -35.3050   30.2540 F   0  0  0  0  0  0  0  0  0  0  0  0
   49.9300  -30.4580   27.7670 F   0  0  0  0  0  0  0  0  0  0  0  0
   51.3400  -32.6720   26.6340 C   0  0  0  0  0  0  0  0  0  0  0  0
   50.6060  -33.2570   25.4270 C   0  0  2  0  0  0  0  0  0  0  0  0
   51.3780  -32.9690   24.1400 C   0  0  0  0  0  0  0  0  0  0  0  0
   52.6590  -33.7790   24.0320 C   0  0  0  0  0  0  0  0  0  0  0  0
   53.5160  -33.5150   23.0310 N   0  0  0  0  0  0  0  0  0  0  0  0
   49.2870  -32.6620   25.3200 N   0  0  0  0  0  0  0  0  0  0  0  0
   52.8900  -34.6610   24.8450 O   0  0  0  0  0  0  0  0  0  0  0  0
   53.5610  -32.2660   22.2610 C   0  0  0  0  0  0  0  0  0  0  0  0
   53.0740  -32.5890   20.8460 C   0  0  0  0  0  0  0  0  0  0  0  0
   53.8610  -33.7110   20.3300 N   0  0  0  0  0  0  0  0  0  0  0  0
   54.5210  -34.5750   21.1050 C   0  0  0  0  0  0  0  0  0  0  0  0
   54.5240  -34.4900   22.6100 C   0  0  0  0  0  0  0  0  0  0  0  0
   54.0920  -34.1080   19.0780 C   0  0  0  0  0  0  0  0  0  0  0  0
   54.8750  -35.1920   18.9840 N   0  0  0  0  0  0  0  0  0  0  0  0
   55.1530  -35.4930   20.3280 N   0  0  0  0  0  0  0  0  0  0  0  0
   53.5420  -33.4160   17.8640 C   0  0  0  0  0  0  0  0  0  0  0  0
   54.1230  -32.2350   17.7460 F   0  0  0  0  0  0  0  0  0  0  0  0
   52.2360  -33.2650   17.9900 F   0  0  0  0  0  0  0  0  0  0  0  0
   53.7920  -34.1320   16.7830 F   0  0  0  0  0  0  0  0  0  0  0  0
   48.1170  -33.1250   31.2390 F   0  0  0  0  0  0  0  0  0  0  0  0
   48.4895  -30.8941   29.9033 H   0  0  0  0  0  0  0  0  0  0  0  0
   50.8583  -34.8849   28.1059 H   0  0  0  0  0  0  0  0  0  0  0  0
   51.5765  -31.6155   26.4392 H   0  0  0  0  0  0  0  0  0  0  0  0
   52.2681  -33.2384   26.8005 H   0  0  0  0  0  0  0  0  0  0  0  0
   50.5216  -34.3447   25.5673 H   0  0  0  0  0  0  0  0  0  0  0  0
   50.7345  -33.2118   23.2816 H   0  0  0  0  0  0  0  0  0  0  0  0
   51.6571  -31.9050   24.1505 H   0  0  0  0  0  0  0  0  0  0  0  0
   48.9096  -32.4918   26.2631 H   0  0  0  0  0  0  0  0  0  0  0  0
   49.3533  -31.7693   24.8105 H   0  0  0  0  0  0  0  0  0  0  0  0
   52.9042  -31.5144   22.7233 H   0  0  0  0  0  0  0  0  0  0  0  0
   54.5821  -31.8574   22.2389 H   0  0  0  0  0  0  0  0  0  0  0  0
   52.0092  -32.8639   20.8735 H   0  0  0  0  0  0  0  0  0  0  0  0
   53.1966  -31.7109   20.1949 H   0  0  0  0  0  0  0  0  0  0  0  0
   55.5165  -34.1698   22.9600 H   0  0  0  0  0  0  0  0  0  0  0  0
   54.2921  -35.4756   23.0398 H   0  0  0  0  0  0  0  0  0  0  0  0
  1  2  2  0
  2  3  1  0
  3  4  2  0
  4  5  1  0
  1  6  1  0
  5  6  2  0
  5  7  1  0
  2  8  1  0
  3  9  1  0
  9 10  1  0
 10 11  1  0
 11 12  1  0
 12 13  1  0
 10 14  1  0
 12 15  2  0
 13 16  1  0
 16 17  1  0
 17 18  1  0
 18 19  1  0
 13 20  1  0
 19 20  1  0
 18 21  1  0
 21 22  2  0
 19 23  2  0
 22 23  1  0
 21 24  1  0
 24 25  1  0
 24 26  1  0
 24 27  1  0
  6 28  1  0
  1 29  1  0
  4 30  1  0
  9 31  1  0
  9 32  1  0
 10 33  1  1
 11 34  1  0
 11 35  1  0
 14 36  1  0
 14 37  1  0
 16 38  1  0
 16 39  1  0
 17 40  1  0
 17 41  1  0
 20 42  1  0
 20 43  1  0
M  END
$$$$
