PDB_DB00452_98
     RDKit          3D

 88 91  0  0  0  0  0  0  0  0999 V2000
  101.0880    4.6540  -60.3210 C   0  0  2  0  0  0  0  0  0  0  0  0
  101.9390    3.4890  -60.2180 O   0  0  0  0  0  0  0  0  0  0  0  0
   99.9880    4.4370  -61.3980 C   0  0  2  0  0  0  0  0  0  0  0  0
   99.2000    3.2090  -61.1070 N   0  0  0  0  0  0  0  0  0  0  0  0
  100.6440    4.3680  -62.8450 C   0  0  1  0  0  0  0  0  0  0  0  0
   99.6350    4.1820  -63.8680 O   0  0  0  0  0  0  0  0  0  0  0  0
  101.4430    5.6850  -63.1170 C   0  0  2  0  0  0  0  0  0  0  0  0
  102.0260    5.6430  -64.4170 O   0  0  0  0  0  0  0  0  0  0  0  0
  102.5490    5.8780  -62.0110 C   0  0  2  0  0  0  0  0  0  0  0  0
  101.8710    5.8850  -60.6770 O   0  0  0  0  0  0  0  0  0  0  0  0
  103.3390    7.2130  -62.2380 C   0  0  0  0  0  0  0  0  0  0  0  0
  104.5130    1.5450  -57.2910 C   0  0  1  0  0  0  0  0  0  0  0  0
  105.3560    1.3250  -56.0850 N   0  0  0  0  0  0  0  0  0  0  0  0
  103.0050    1.8570  -56.9360 C   0  0  1  0  0  0  0  0  0  0  0  0
  102.1540    2.0940  -58.2110 C   0  0  1  0  0  0  0  0  0  0  0  0
  100.7880    2.4400  -57.8470 O   0  0  0  0  0  0  0  0  0  0  0  0
  102.7380    3.2880  -59.0010 C   0  0  1  0  0  0  0  0  0  0  0  0
  104.2420    3.0280  -59.3560 C   0  0  1  0  0  0  0  0  0  0  0  0
  104.8150    4.1770  -60.0810 N   0  0  0  0  0  0  0  0  0  0  0  0
  105.1010    2.7670  -58.0740 C   0  0  0  0  0  0  0  0  0  0  0  0
   99.7640    1.4150  -57.7780 C   0  0  1  0  0  0  0  0  0  0  0  0
   98.3720    1.9860  -57.8380 C   0  0  1  0  0  0  0  0  0  0  0  0
   97.5300    0.7260  -58.2560 C   0  0  1  0  0  0  0  0  0  0  0  0
   98.4650   -0.0800  -59.1540 C   0  0  2  0  0  0  0  0  0  0  0  0
   99.8280    0.4110  -58.8320 O   0  0  0  0  0  0  0  0  0  0  0  0
   98.1970    0.0930  -60.6420 C   0  0  0  0  0  0  0  0  0  0  0  0
   95.0690   -1.4960  -54.3120 C   0  0  1  0  0  0  0  0  0  0  0  0
   95.3660    0.0340  -54.5550 C   0  0  1  0  0  0  0  0  0  0  0  0
   94.9710    0.4610  -55.9850 C   0  0  2  0  0  0  0  0  0  0  0  0
   95.7410   -0.3980  -57.0250 C   0  0  1  0  0  0  0  0  0  0  0  0
   97.1270   -0.1170  -57.1070 O   0  0  0  0  0  0  0  0  0  0  0  0
   95.8210   -2.3970  -55.3390 C   0  0  1  0  0  0  0  0  0  0  0  0
   95.5000   -1.8770  -56.7140 O   0  0  0  0  0  0  0  0  0  0  0  0
   97.3840   -2.4360  -55.0710 C   0  0  0  0  0  0  0  0  0  0  0  0
  102.5250    8.4010  -61.9430 N   0  0  0  0  0  0  0  0  0  0  0  0
   98.0390    2.6460  -56.6080 O   0  0  0  0  0  0  0  0  0  0  0  0
   94.6610    0.8060  -53.6260 O   0  0  0  0  0  0  0  0  0  0  0  0
   95.4000   -1.9660  -52.9800 O   0  0  0  0  0  0  0  0  0  0  0  0
   99.1320   -0.7300  -61.3150 O   0  0  0  0  0  0  0  0  0  0  0  0
  102.4400    0.7610  -56.2370 O   0  0  0  0  0  0  0  0  0  0  0  0
   98.0890   -3.3060  -56.0670 N   0  0  0  0  0  0  0  0  0  0  0  0
   95.2070    1.9340  -56.2190 N   0  0  0  0  0  0  0  0  0  0  0  0
  100.6254    4.7981  -59.3335 H   0  0  0  0  0  0  0  0  0  0  0  0
   99.2960    5.2917  -61.3727 H   0  0  0  0  0  0  0  0  0  0  0  0
   99.1207    3.0855  -60.0875 H   0  0  0  0  0  0  0  0  0  0  0  0
   98.2591    3.2999  -61.5160 H   0  0  0  0  0  0  0  0  0  0  0  0
  101.3257    3.5053  -62.8791 H   0  0  0  0  0  0  0  0  0  0  0  0
   98.7571    4.0202  -63.4400 H   0  0  0  0  0  0  0  0  0  0  0  0
  100.7557    6.5429  -63.0753 H   0  0  0  0  0  0  0  0  0  0  0  0
  103.0101    5.5721  -64.3352 H   0  0  0  0  0  0  0  0  0  0  0  0
  103.2782    5.0560  -62.0613 H   0  0  0  0  0  0  0  0  0  0  0  0
  104.2218    7.2174  -61.5818 H   0  0  0  0  0  0  0  0  0  0  0  0
  103.6263    7.2573  -63.2989 H   0  0  0  0  0  0  0  0  0  0  0  0
  104.5265    0.6206  -57.8871 H   0  0  0  0  0  0  0  0  0  0  0  0
  104.7889    1.4730  -55.2380 H   0  0  0  0  0  0  0  0  0  0  0  0
  105.7190    0.3611  -56.0910 H   0  0  0  0  0  0  0  0  0  0  0  0
  102.9972    2.7680  -56.3195 H   0  0  0  0  0  0  0  0  0  0  0  0
  102.1672    1.1738  -58.8135 H   0  0  0  0  0  0  0  0  0  0  0  0
  102.6944    4.1975  -58.3839 H   0  0  0  0  0  0  0  0  0  0  0  0
  104.2677    2.1320  -59.9936 H   0  0  0  0  0  0  0  0  0  0  0  0
  105.1615    4.8718  -59.4042 H   0  0  0  0  0  0  0  0  0  0  0  0
  105.5945    3.8556  -60.6726 H   0  0  0  0  0  0  0  0  0  0  0  0
  106.1391    2.5501  -58.3662 H   0  0  0  0  0  0  0  0  0  0  0  0
  105.0797    3.6590  -57.4307 H   0  0  0  0  0  0  0  0  0  0  0  0
   99.9729    0.9403  -56.8080 H   0  0  0  0  0  0  0  0  0  0  0  0
   98.1943    2.8028  -58.5531 H   0  0  0  0  0  0  0  0  0  0  0  0
   96.5943    1.0419  -58.7404 H   0  0  0  0  0  0  0  0  0  0  0  0
   98.3217   -1.1539  -58.9635 H   0  0  0  0  0  0  0  0  0  0  0  0
   97.1708   -0.2215  -60.8828 H   0  0  0  0  0  0  0  0  0  0  0  0
   98.3004    1.1451  -60.9461 H   0  0  0  0  0  0  0  0  0  0  0  0
   93.9796   -1.5787  -54.4399 H   0  0  0  0  0  0  0  0  0  0  0  0
   96.4471    0.1952  -54.4319 H   0  0  0  0  0  0  0  0  0  0  0  0
   93.8915    0.2876  -56.1060 H   0  0  0  0  0  0  0  0  0  0  0  0
   95.3450   -0.1362  -58.0173 H   0  0  0  0  0  0  0  0  0  0  0  0
   95.4848   -3.4396  -55.2389 H   0  0  0  0  0  0  0  0  0  0  0  0
   97.7847   -1.4140  -55.1418 H   0  0  0  0  0  0  0  0  0  0  0  0
   97.5524   -2.8531  -54.0672 H   0  0  0  0  0  0  0  0  0  0  0  0
  102.4450    8.5177  -60.9228 H   0  0  0  0  0  0  0  0  0  0  0  0
  102.9736    9.2342  -62.3498 H   0  0  0  0  0  0  0  0  0  0  0  0
   98.3228    2.0835  -55.8443 H   0  0  0  0  0  0  0  0  0  0  0  0
   94.9127    0.5303  -52.7091 H   0  0  0  0  0  0  0  0  0  0  0  0
   94.9818   -1.3722  -52.3072 H   0  0  0  0  0  0  0  0  0  0  0  0
   99.6830   -1.2150  -60.6507 H   0  0  0  0  0  0  0  0  0  0  0  0
  102.5194    0.9150  -55.2623 H   0  0  0  0  0  0  0  0  0  0  0  0
   98.6568   -4.0067  -55.5696 H   0  0  0  0  0  0  0  0  0  0  0  0
   97.3940   -3.7841  -56.6580 H   0  0  0  0  0  0  0  0  0  0  0  0
   95.2845    2.4175  -55.3128 H   0  0  0  0  0  0  0  0  0  0  0  0
   96.0792    2.0616  -56.7519 H   0  0  0  0  0  0  0  0  0  0  0  0
  2  1  1  0
  3  1  1  0
  4  3  1  0
  5  3  1  0
  6  5  1  0
  7  5  1  0
  8  7  1  0
  9  7  1  0
 10  1  1  0
 10  9  1  0
 11  9  1  0
 13 12  1  0
 14 12  1  0
 15 14  1  0
 16 15  1  0
 17  2  1  0
 17 15  1  0
 18 17  1  0
 19 18  1  0
 20 18  1  0
 20 12  1  0
 21 16  1  0
 22 21  1  0
 23 22  1  0
 24 23  1  0
 25 24  1  0
 25 21  1  0
 26 24  1  0
 28 27  1  0
 29 28  1  0
 30 29  1  0
 31 30  1  0
 31 23  1  0
 32 27  1  0
 33 32  1  0
 33 30  1  0
 34 32  1  0
 35 11  1  0
 36 22  1  0
 37 28  1  0
 38 27  1  0
 39 26  1  0
 40 14  1  0
 41 34  1  0
 42 29  1  0
  1 43  1  1
  3 44  1  6
  4 45  1  0
  4 46  1  0
  5 47  1  1
  6 48  1  0
  7 49  1  6
  8 50  1  0
  9 51  1  1
 11 52  1  0
 11 53  1  0
 12 54  1  6
 13 55  1  0
 13 56  1  0
 14 57  1  1
 15 58  1  6
 17 59  1  1
 18 60  1  6
 19 61  1  0
 19 62  1  0
 20 63  1  0
 20 64  1  0
 21 65  1  1
 22 66  1  6
 23 67  1  6
 24 68  1  1
 26 69  1  0
 26 70  1  0
 27 71  1  6
 28 72  1  6
 29 73  1  1
 30 74  1  6
 32 75  1  6
 34 76  1  0
 34 77  1  0
 35 78  1  0
 35 79  1  0
 36 80  1  0
 37 81  1  0
 38 82  1  0
 39 83  1  0
 40 84  1  0
 41 85  1  0
 41 86  1  0
 42 87  1  0
 42 88  1  0
M  END
$$$$
