PDB_DB00421_98
     RDKit          3D

 69 73  0  0  0  0  0  0  0  0999 V2000
   20.4060   11.1410   -0.7490 C   0  0  0  0  0  0  0  0  0  0  0  0
   17.3590   13.2880   -0.1940 C   0  0  0  0  0  0  0  0  0  0  0  0
   18.7590   12.9370   -0.6750 C   0  0  1  0  0  0  0  0  0  0  0  0
   18.3130   16.2810    2.1040 C   0  0  1  0  0  0  0  0  0  0  0  0
   19.6550   12.9910    0.5530 C   0  0  1  0  0  0  0  0  0  0  0  0
   16.9060   16.5190    2.6230 C   0  0  0  0  0  0  0  0  0  0  0  0
   17.3460   14.6820    0.4020 C   0  0  0  0  0  0  0  0  0  0  0  0
   20.9110   12.2480    0.1590 C   0  0  0  0  0  0  0  0  0  0  0  0
   18.9730   11.4990   -1.1290 C   0  0  2  0  0  0  0  0  0  0  0  0
   19.1930   13.8800   -1.8060 C   0  0  0  0  0  0  0  0  0  0  0  0
   18.6600   17.3230    1.0510 C   0  0  0  0  0  0  0  0  0  0  0  0
   16.8240   17.8240    3.3910 C   0  0  0  0  0  0  0  0  0  0  0  0
   17.9430   10.5560   -0.5400 C   0  0  0  0  0  0  0  0  0  0  0  0
   16.9540   10.3230   -1.6410 C   0  0  0  0  0  0  0  0  0  0  0  0
   17.6710   10.8220   -2.8470 C   0  0  0  0  0  0  0  0  0  0  0  0
   21.5980   13.1350    4.7090 C   0  0  0  0  0  0  0  0  0  0  0  0
   21.5090   12.0230    5.7000 C   0  0  0  0  0  0  0  0  0  0  0  0
   17.8070   17.8040    4.5130 C   0  0  1  0  0  0  0  0  0  0  0  0
   19.1280   17.1700    4.3110 C   0  0  0  0  0  0  0  0  0  0  0  0
   19.3290   16.4630    3.1890 C   0  0  0  0  0  0  0  0  0  0  0  0
   20.6780   15.8510    2.9930 C   0  0  0  0  0  0  0  0  0  0  0  0
   20.6810   14.4600    2.3750 C   0  0  2  0  0  0  0  0  0  0  0  0
   19.7570   14.3820    1.1650 C   0  0  2  0  0  0  0  0  0  0  0  0
   18.3460   14.8470    1.5510 C   0  0  1  0  0  0  0  0  0  0  0  0
   17.2450   10.7610   -3.9800 O   0  0  0  0  0  0  0  0  0  0  0  0
   18.8750   11.3500   -2.5300 O   0  0  0  0  0  0  0  0  0  0  0  0
   22.5820   13.8560    4.6720 O   0  0  0  0  0  0  0  0  0  0  0  0
   17.5680   18.3570    5.5730 O   0  0  0  0  0  0  0  0  0  0  0  0
   20.1680   13.3110    3.6740 S   0  0  0  0  0  0  0  0  0  0  0  0
   21.0319   11.0768   -1.6513 H   0  0  0  0  0  0  0  0  0  0  0  0
   20.4469   10.1660   -0.2414 H   0  0  0  0  0  0  0  0  0  0  0  0
   16.6621   13.2495   -1.0442 H   0  0  0  0  0  0  0  0  0  0  0  0
   17.0514   12.5649    0.5758 H   0  0  0  0  0  0  0  0  0  0  0  0
   19.2455   12.4789    1.4362 H   0  0  0  0  0  0  0  0  0  0  0  0
   16.2103   16.5581    1.7718 H   0  0  0  0  0  0  0  0  0  0  0  0
   16.6386   15.6955    3.3015 H   0  0  0  0  0  0  0  0  0  0  0  0
   17.5971   15.4044   -0.3886 H   0  0  0  0  0  0  0  0  0  0  0  0
   16.3401   14.8573    0.8113 H   0  0  0  0  0  0  0  0  0  0  0  0
   21.4135   11.8305    1.0440 H   0  0  0  0  0  0  0  0  0  0  0  0
   21.6527   12.8957   -0.3312 H   0  0  0  0  0  0  0  0  0  0  0  0
   19.6161   14.7993   -1.3749 H   0  0  0  0  0  0  0  0  0  0  0  0
   19.9528   13.3827   -2.4268 H   0  0  0  0  0  0  0  0  0  0  0  0
   18.3211   14.1337   -2.4268 H   0  0  0  0  0  0  0  0  0  0  0  0
   18.9704   18.2551    1.5458 H   0  0  0  0  0  0  0  0  0  0  0  0
   19.4824   16.9498    0.4229 H   0  0  0  0  0  0  0  0  0  0  0  0
   17.7781   17.5174    0.4229 H   0  0  0  0  0  0  0  0  0  0  0  0
   17.0549   18.6615    2.7163 H   0  0  0  0  0  0  0  0  0  0  0  0
   15.8086   17.9479    3.7956 H   0  0  0  0  0  0  0  0  0  0  0  0
   18.4143    9.6093   -0.2373 H   0  0  0  0  0  0  0  0  0  0  0  0
   17.4679   10.9739    0.3598 H   0  0  0  0  0  0  0  0  0  0  0  0
   16.7147    9.2537   -1.7376 H   0  0  0  0  0  0  0  0  0  0  0  0
   15.9902   10.8252   -1.4712 H   0  0  0  0  0  0  0  0  0  0  0  0
   18.1453    9.8375   -2.9723 H   0  0  0  0  0  0  0  0  0  0  0  0
   21.1256   13.8167    5.4316 H   0  0  0  0  0  0  0  0  0  0  0  0
   21.5421   12.4363    6.7189 H   0  0  0  0  0  0  0  0  0  0  0  0
   20.5644   11.4781    5.5558 H   0  0  0  0  0  0  0  0  0  0  0  0
   22.3549   11.3348    5.5558 H   0  0  0  0  0  0  0  0  0  0  0  0
   17.3975   16.8419    4.8546 H   0  0  0  0  0  0  0  0  0  0  0  0
   19.8805   17.9721    4.3297 H   0  0  0  0  0  0  0  0  0  0  0  0
   19.1978   16.4252    5.1174 H   0  0  0  0  0  0  0  0  0  0  0  0
   19.7037   17.3670    2.6865 H   0  0  0  0  0  0  0  0  0  0  0  0
   21.2597   16.5150    2.3367 H   0  0  0  0  0  0  0  0  0  0  0  0
   21.1075   15.7363    3.9991 H   0  0  0  0  0  0  0  0  0  0  0  0
   21.6841   14.2042    2.0032 H   0  0  0  0  0  0  0  0  0  0  0  0
   20.2050   15.0410    0.4067 H   0  0  0  0  0  0  0  0  0  0  0  0
   18.0336   14.1813    2.3691 H   0  0  0  0  0  0  0  0  0  0  0  0
   16.2653   10.6207   -3.9571 H   0  0  0  0  0  0  0  0  0  0  0  0
   22.8709   14.0677    5.5949 H   0  0  0  0  0  0  0  0  0  0  0  0
   17.8252   17.7618    6.3211 H   0  0  0  0  0  0  0  0  0  0  0  0
  2  3  1  0
  3  5  1  0
  4  6  1  0
  2  7  1  0
  1  8  1  0
  5  8  1  0
  1  9  1  0
  3  9  1  0
  3 10  1  6
  4 11  1  6
  6 12  1  0
  9 13  1  0
 13 14  1  0
 14 15  1  0
 16 17  1  0
 12 18  1  0
 18 19  1  0
  4 20  1  0
 19 20  1  0
 20 21  1  0
 21 22  1  0
  5 23  1  0
 22 23  1  0
  4 24  1  0
  7 24  1  0
 23 24  1  0
 15 25  1  0
  9 26  1  6
 15 26  1  0
 16 27  1  0
 18 28  1  0
 16 29  1  0
 22 29  1  0
  1 30  1  0
  1 31  1  0
  2 32  1  0
  2 33  1  0
  5 34  1  1
  6 35  1  0
  6 36  1  0
  7 37  1  0
  7 38  1  0
  8 39  1  0
  8 40  1  0
 10 41  1  0
 10 42  1  0
 10 43  1  0
 11 44  1  0
 11 45  1  0
 11 46  1  0
 12 47  1  0
 12 48  1  0
 13 49  1  0
 13 50  1  0
 14 51  1  0
 14 52  1  0
 15 53  1  0
 16 54  1  0
 17 55  1  0
 17 56  1  0
 17 57  1  0
 18 58  1  1
 19 59  1  0
 19 60  1  0
 20 61  1  0
 21 62  1  0
 21 63  1  0
 22 64  1  6
 23 65  1  6
 24 66  1  1
 25 67  1  0
 27 68  1  0
 28 69  1  0
M  END
>  <PDBID>  (1) 
3VHU

>  <PDB ID>  (1) 
3VHU

>  <Generic Name>  (1) 
Spironolactone

>  <Brand Name>  (1) 
Aldactazide#Aldactazide 25#Aldactazide 50#Aldactone#Aldactone 100 mg#Aldactone 25 mg#Apo-spirozide Tab#Ntp-spironolactone#Spironolactone#Spironolactone and Hydrochlorothiazide#Teva-spironolactone#Teva-spironolactone/hctz#Osyrol#Spiresis#Spiretic#Spiroctan#Uractone#Verospiron#Xenalon

>  <DrugBank ID>  (1) 
DB00421

>  <ATC Codes>  (1) 
C03DA01

>  <Ligand ID>  (1) 
SNL

>  <Target Name>  (1) 
Mineralocorticoid receptor

>  <UniProt ID>  (1) 
P08235

>  <PDB ID.1>  (1) 
3VHU

>  <Seq. Identity>  (1) 
99%

$$$$
