PDB_DB00380_99
     RDKit          3D

 43 44  0  0  0  0  0  0  0  0999 V2000
   27.4120   29.8590   28.8810 O   0  0  0  0  0  0  0  0  0  0  0  0
   27.9330   29.9490   29.9780 C   0  0  0  0  0  0  0  0  0  0  0  0
   29.1050   29.3730   30.2920 N   0  0  0  0  0  0  0  0  0  0  0  0
   29.6890   29.4600   31.5010 C   0  0  0  0  0  0  0  0  0  0  0  0
   30.7550   28.9260   31.7470 O   0  0  0  0  0  0  0  0  0  0  0  0
   28.9870   30.2720   32.5730 C   0  0  0  0  0  0  0  0  0  0  0  0
   27.2420   30.7390   31.0550 C   0  0  0  0  0  0  0  0  0  0  0  0
   28.2870   31.3510   31.8730 N   0  0  0  0  0  0  0  0  0  0  0  0
   27.7070   32.3490   32.7740 C   0  0  0  0  0  0  0  0  0  0  0  0
   27.1680   33.5100   31.9270 C   0  0  2  0  0  0  0  0  0  0  0  0
   28.0150   33.7400   30.6750 C   0  0  0  0  0  0  0  0  0  0  0  0
   27.1470   34.7690   32.6670 N   0  0  0  0  0  0  0  0  0  0  0  0
   25.8990   35.4910   32.4170 C   0  0  0  0  0  0  0  0  0  0  0  0
   26.1060   36.8820   32.9600 C   0  0  0  0  0  0  0  0  0  0  0  0
   25.5770   37.8230   32.4070 O   0  0  0  0  0  0  0  0  0  0  0  0
   26.8930   37.0190   34.0380 N   0  0  0  0  0  0  0  0  0  0  0  0
   27.4930   35.9960   34.6690 C   0  0  0  0  0  0  0  0  0  0  0  0
   27.2760   34.6090   34.1160 C   0  0  0  0  0  0  0  0  0  0  0  0
   28.2020   36.1480   35.6440 O   0  0  0  0  0  0  0  0  0  0  0  0
   26.4423   29.6915   28.9890 H   0  0  0  0  0  0  0  0  0  0  0  0
   27.4005   29.0438   30.3052 H   0  0  0  0  0  0  0  0  0  0  0  0
   28.9765   28.3662   30.1165 H   0  0  0  0  0  0  0  0  0  0  0  0
   29.1595   28.5509   31.8222 H   0  0  0  0  0  0  0  0  0  0  0  0
   30.8753   28.8657   32.7278 H   0  0  0  0  0  0  0  0  0  0  0  0
   28.2690   29.6428   33.1195 H   0  0  0  0  0  0  0  0  0  0  0  0
   29.7018   30.6684   33.3091 H   0  0  0  0  0  0  0  0  0  0  0  0
   26.6095   31.5184   30.6050 H   0  0  0  0  0  0  0  0  0  0  0  0
   26.5958   30.0902   31.6645 H   0  0  0  0  0  0  0  0  0  0  0  0
   26.8862   31.8970   33.3503 H   0  0  0  0  0  0  0  0  0  0  0  0
   28.4713   32.7153   33.4752 H   0  0  0  0  0  0  0  0  0  0  0  0
   26.1445   33.2158   31.6516 H   0  0  0  0  0  0  0  0  0  0  0  0
   29.0377   34.0177   30.9701 H   0  0  0  0  0  0  0  0  0  0  0  0
   28.0437   32.8171   30.0771 H   0  0  0  0  0  0  0  0  0  0  0  0
   27.5730   34.5506   30.0771 H   0  0  0  0  0  0  0  0  0  0  0  0
   25.6896   35.5295   31.3378 H   0  0  0  0  0  0  0  0  0  0  0  0
   25.0436   34.9944   32.8983 H   0  0  0  0  0  0  0  0  0  0  0  0
   26.9905   37.0014   32.3170 H   0  0  0  0  0  0  0  0  0  0  0  0
   25.2245   38.4500   33.0873 H   0  0  0  0  0  0  0  0  0  0  0  0
   27.6525   37.6522   33.7496 H   0  0  0  0  0  0  0  0  0  0  0  0
   26.6105   35.8766   35.3147 H   0  0  0  0  0  0  0  0  0  0  0  0
   26.3590   34.1693   34.5353 H   0  0  0  0  0  0  0  0  0  0  0  0
   28.1074   33.9369   34.3751 H   0  0  0  0  0  0  0  0  0  0  0  0
   27.6622   36.0323   36.4658 H   0  0  0  0  0  0  0  0  0  0  0  0
  1  2  1  0
  2  3  1  0
  3  4  1  0
  4  5  1  0
  4  6  1  0
  2  7  1  0
  6  8  1  0
  7  8  1  0
  8  9  1  0
  9 10  1  0
 10 11  1  0
 10 12  1  0
 12 13  1  0
 13 14  1  0
 14 15  1  0
 14 16  1  0
 16 17  1  0
 12 18  1  0
 17 18  1  0
 17 19  1  0
  1 20  1  0
  2 21  1  0
  3 22  1  0
  4 23  1  0
  5 24  1  0
  6 25  1  0
  6 26  1  0
  7 27  1  0
  7 28  1  0
  9 29  1  0
  9 30  1  0
 10 31  1  6
 11 32  1  0
 11 33  1  0
 11 34  1  0
 13 35  1  0
 13 36  1  0
 14 37  1  0
 15 38  1  0
 16 39  1  0
 17 40  1  0
 18 41  1  0
 18 42  1  0
 19 43  1  0
M  END
>  <PDBID>  (1) 
1QZR

>  <PDB ID>  (1) 
1QZR

>  <Generic Name>  (1) 
Dexrazoxane

>  <Brand Name>  (1) 
Dexrazoxane#Dexrazoxane Hydrochloride#Zinecard#Ao Nuo Xian#Cardioxane#Dexrazoxane#Savene#Totect

>  <DrugBank ID>  (1) 
DB00380

>  <ATC Codes>  (1) 
V03AF02

>  <Ligand ID>  (1) 
CDX

>  <Target Name>  (1) 
DNA topoisomerase 2-alpha

>  <UniProt ID>  (1) 
P11388

>  <PDB ID.1>  (1) 
1QZR

>  <Seq. Identity>  (1) 
51%

$$$$
