PDB_DB09053_96
     RDKit          3D

 57 61  0  0  0  0  0  0  0  0999 V2000
    2.9300   12.4870   51.2810 N   0  0  0  0  0  0  0  0  0  0  0  0
    2.7950   13.3370   50.2020 C   0  0  0  0  0  0  0  0  0  0  0  0
    1.5160   13.7590   49.8520 N   0  0  0  0  0  0  0  0  0  0  0  0
    0.4680   13.3760   50.5850 C   0  0  0  0  0  0  0  0  0  0  0  0
    0.6320   12.5750   51.6280 C   0  0  0  0  0  0  0  0  0  0  0  0
    1.8500   12.1330   51.9710 C   0  0  0  0  0  0  0  0  0  0  0  0
   -3.5490   13.8880   44.1870 C   0  0  0  0  0  0  0  0  0  0  0  0
    1.9600   11.3110   53.0060 N   0  0  0  0  0  0  0  0  0  0  0  0
   -0.8160   13.8800   45.5300 O   0  0  0  0  0  0  0  0  0  0  0  0
   -2.7990   15.0260   44.8690 C   0  0  0  0  0  0  0  0  0  0  0  0
   -3.8590    6.1990   56.9880 C   0  0  0  0  0  0  0  0  0  0  0  0
   -4.7080    7.2820   57.1140 C   0  0  0  0  0  0  0  0  0  0  0  0
   -2.5140    6.4160   56.7490 C   0  0  0  0  0  0  0  0  0  0  0  0
   -4.2180    8.5750   56.9960 C   0  0  0  0  0  0  0  0  0  0  0  0
   -2.0180    7.7010   56.6300 C   0  0  0  0  0  0  0  0  0  0  0  0
   -2.4530   10.1090   54.2210 C   0  0  0  0  0  0  0  0  0  0  0  0
   -1.1200   11.6100   55.5100 C   0  0  0  0  0  0  0  0  0  0  0  0
   -1.9910   10.7260   53.0550 C   0  0  0  0  0  0  0  0  0  0  0  0
   -0.6630   12.2100   54.3540 C   0  0  0  0  0  0  0  0  0  0  0  0
   -3.2930   15.9790   48.5710 C   0  0  0  0  0  0  0  0  0  0  0  0
   -2.6680   15.2470   49.7670 C   0  0  0  0  0  0  0  0  0  0  0  0
   -3.6000   14.9820   47.4770 C   0  0  0  0  0  0  0  0  0  0  0  0
   -1.5510   13.6870   48.1730 C   0  0  0  0  0  0  0  0  0  0  0  0
   -1.3970   13.1550   51.2630 N   0  0  0  0  0  0  0  0  0  0  0  0
   -2.4060   10.0420   56.6500 O   0  0  0  0  0  0  0  0  0  0  0  0
   -1.8790   14.3680   45.8810 C   0  0  0  0  0  0  0  0  0  0  0  0
   -2.8730    8.7830   56.7450 C   0  0  0  0  0  0  0  0  0  0  0  0
   -2.0050   10.5540   55.4610 C   0  0  0  0  0  0  0  0  0  0  0  0
   -1.0730   11.7690   53.1110 C   0  0  0  0  0  0  0  0  0  0  0  0
   -0.6120   12.4290   52.0490 C   0  0  0  0  0  0  0  0  0  0  0  0
   -1.3640   14.5290   49.3920 C   0  0  2  0  0  0  0  0  0  0  0  0
   -0.8290   13.6540   50.4820 N   0  0  0  0  0  0  0  0  0  0  0  0
   -2.3440   14.3330   47.1290 N   0  0  0  0  0  0  0  0  0  0  0  0
    3.6752   13.6720   49.6337 H   0  0  0  0  0  0  0  0  0  0  0  0
   -4.2869   14.1085   43.4016 H   0  0  0  0  0  0  0  0  0  0  0  0
   -3.3524   12.8462   44.4802 H   0  0  0  0  0  0  0  0  0  0  0  0
    1.1216   11.0385   53.5386 H   0  0  0  0  0  0  0  0  0  0  0  0
    2.8838   10.9451   53.2771 H   0  0  0  0  0  0  0  0  0  0  0  0
   -2.9030   16.1026   44.6690 H   0  0  0  0  0  0  0  0  0  0  0  0
   -4.2490    5.1743   57.0769 H   0  0  0  0  0  0  0  0  0  0  0  0
   -5.7781    7.1183   57.3089 H   0  0  0  0  0  0  0  0  0  0  0  0
   -1.8325    5.5579   56.6527 H   0  0  0  0  0  0  0  0  0  0  0  0
   -4.8977    9.4334   57.1018 H   0  0  0  0  0  0  0  0  0  0  0  0
   -0.9460    7.8630   56.4443 H   0  0  0  0  0  0  0  0  0  0  0  0
   -3.1677    9.2752   54.1587 H   0  0  0  0  0  0  0  0  0  0  0  0
   -0.7726   11.9802   56.4858 H   0  0  0  0  0  0  0  0  0  0  0  0
   -2.3594   10.3811   52.0776 H   0  0  0  0  0  0  0  0  0  0  0  0
    0.0395   13.0535   54.4239 H   0  0  0  0  0  0  0  0  0  0  0  0
   -4.2229   16.4735   48.8885 H   0  0  0  0  0  0  0  0  0  0  0  0
   -2.5880   16.7340   48.1929 H   0  0  0  0  0  0  0  0  0  0  0  0
   -2.4534   15.9805   50.5582 H   0  0  0  0  0  0  0  0  0  0  0  0
   -3.3853   14.4865   50.1092 H   0  0  0  0  0  0  0  0  0  0  0  0
   -4.3236   14.2361   47.8376 H   0  0  0  0  0  0  0  0  0  0  0  0
   -4.0395   15.4823   46.6015 H   0  0  0  0  0  0  0  0  0  0  0  0
   -0.5597   13.4496   47.7594 H   0  0  0  0  0  0  0  0  0  0  0  0
   -2.1019   12.7874   48.4850 H   0  0  0  0  0  0  0  0  0  0  0  0
   -0.6356   15.3324   49.2076 H   0  0  0  0  0  0  0  0  0  0  0  0
  1  2  2  0
  2  3  1  0
  3  4  2  0
  4  5  1  0
  1  6  1  0
  5  6  2  0
  6  8  1  0
  7 10  2  3
 11 12  2  0
 11 13  1  0
 12 14  1  0
 13 15  2  0
 16 18  2  0
 17 19  1  0
 20 21  1  0
 20 22  1  0
  9 26  2  0
 10 26  1  0
 14 27  2  0
 15 27  1  0
 25 27  1  0
 16 28  1  0
 17 28  2  0
 25 28  1  0
 18 29  1  0
 19 29  2  0
  5 30  1  0
 24 30  2  0
 29 30  1  0
 21 31  1  0
 23 31  1  0
  4 32  1  0
 24 32  1  0
 31 32  1  0
 22 33  1  0
 23 33  1  0
 26 33  1  0
  2 34  1  0
  7 35  1  0
  7 36  1  0
  8 37  1  0
  8 38  1  0
 10 39  1  0
 11 40  1  0
 12 41  1  0
 13 42  1  0
 14 43  1  0
 15 44  1  0
 16 45  1  0
 17 46  1  0
 18 47  1  0
 19 48  1  0
 20 49  1  0
 20 50  1  0
 21 51  1  0
 21 52  1  0
 22 53  1  0
 22 54  1  0
 23 55  1  0
 23 56  1  0
 31 57  1  6
M  END
$$$$
