PDB_DB00328_95
     RDKit          3D

 41 43  0  0  0  0  0  0  0  0999 V2000
   52.3780   40.1290    8.5890 C   0  0  0  0  0  0  0  0  0  0  0  0
   52.8480   38.9440    7.8220 C   0  0  0  0  0  0  0  0  0  0  0  0
   54.1530   38.8880    7.3670 C   0  0  0  0  0  0  0  0  0  0  0  0
   55.0430   39.9260    7.6030 C   0  0  0  0  0  0  0  0  0  0  0  0
   54.6210   41.0400    8.3190 C   0  0  0  0  0  0  0  0  0  0  0  0
   53.3120   41.1460    8.8050 C   0  0  0  0  0  0  0  0  0  0  0  0
   57.1030   40.9140    6.6390 C   0  0  0  0  0  0  0  0  0  0  0  0
   51.7120   37.9890    7.6990 C   0  0  0  0  0  0  0  0  0  0  0  0
   50.6060   38.6650    8.4200 C   0  0  0  0  0  0  0  0  0  0  0  0
   50.1540   40.7730    9.3300 C   0  0  0  0  0  0  0  0  0  0  0  0
   50.2690   41.9760   10.2340 C   0  0  0  0  0  0  0  0  0  0  0  0
   49.1080   42.7480   10.2360 C   0  0  0  0  0  0  0  0  0  0  0  0
   49.0090   43.9030   10.9920 C   0  0  0  0  0  0  0  0  0  0  0  0
   50.0840   44.3060   11.7650 C   0  0  0  0  0  0  0  0  0  0  0  0
   51.2480   43.5500   11.7760 C   0  0  0  0  0  0  0  0  0  0  0  0
   51.3500   42.3870   11.0120 C   0  0  0  0  0  0  0  0  0  0  0  0
   49.1980   38.1740    8.6260 C   0  0  0  0  0  0  0  0  0  0  0  0
   51.8600   36.6750    6.9480 C   0  0  0  0  0  0  0  0  0  0  0  0
   50.7640   35.6270    6.7430 C   0  0  0  0  0  0  0  0  0  0  0  0
   51.0840   39.8470    8.8730 N   0  0  0  0  0  0  0  0  0  0  0  0
   56.3340   39.8130    7.1280 O   0  0  0  0  0  0  0  0  0  0  0  0
   49.0630   40.7300    8.8100 O   0  0  0  0  0  0  0  0  0  0  0  0
   49.9640   35.2160    7.5720 O   0  0  0  0  0  0  0  0  0  0  0  0
   50.7050   35.0770    5.5270 O   0  0  0  0  0  0  0  0  0  0  0  0
   49.9570   45.8000   12.7470 Cl  0  0  0  0  0  0  0  0  0  0  0  0
   54.4917   38.0037    6.8074 H   0  0  0  0  0  0  0  0  0  0  0  0
   55.3320   41.8577    8.5084 H   0  0  0  0  0  0  0  0  0  0  0  0
   53.0141   42.0442    9.3658 H   0  0  0  0  0  0  0  0  0  0  0  0
   57.5035   41.4874    7.4880 H   0  0  0  0  0  0  0  0  0  0  0  0
   57.9350   40.5367    6.0263 H   0  0  0  0  0  0  0  0  0  0  0  0
   56.4624   41.5653    6.0263 H   0  0  0  0  0  0  0  0  0  0  0  0
   48.2512   42.4319    9.6228 H   0  0  0  0  0  0  0  0  0  0  0  0
   48.0828   44.4963   10.9786 H   0  0  0  0  0  0  0  0  0  0  0  0
   52.0995   43.8713   12.3939 H   0  0  0  0  0  0  0  0  0  0  0  0
   52.2787   41.7975   11.0236 H   0  0  0  0  0  0  0  0  0  0  0  0
   48.9891   38.1011    9.7035 H   0  0  0  0  0  0  0  0  0  0  0  0
   48.4923   38.8791    8.1625 H   0  0  0  0  0  0  0  0  0  0  0  0
   49.0838   37.1830    8.1625 H   0  0  0  0  0  0  0  0  0  0  0  0
   52.1823   36.9569    5.9348 H   0  0  0  0  0  0  0  0  0  0  0  0
   52.5102   36.1311    7.6490 H   0  0  0  0  0  0  0  0  0  0  0  0
   50.0193   34.3917    5.3264 H   0  0  0  0  0  0  0  0  0  0  0  0
  1  2  1  0
  2  3  2  0
  3  4  1  0
  4  5  2  0
  1  6  2  0
  5  6  1  0
  2  8  1  0
  8  9  2  0
 10 11  1  0
 11 12  2  0
 12 13  1  0
 13 14  2  0
 14 15  1  0
 11 16  1  0
 15 16  2  0
  9 17  1  0
  8 18  1  0
 18 19  1  0
  1 20  1  0
  9 20  1  0
 10 20  1  0
  4 21  1  0
  7 21  1  0
 10 22  2  0
 19 23  2  0
 19 24  1  0
 14 25  1  0
  3 26  1  0
  5 27  1  0
  6 28  1  0
  7 29  1  0
  7 30  1  0
  7 31  1  0
 12 32  1  0
 13 33  1  0
 15 34  1  0
 16 35  1  0
 17 36  1  0
 17 37  1  0
 17 38  1  0
 18 39  1  0
 18 40  1  0
 24 41  1  0
M  END
>  <PDBID>  (1) 
3FO7

>  <PDB ID>  (1) 
3FO7

>  <Generic Name>  (1) 
Indomethacin

>  <Brand Name>  (1) 
Apo Indomethacin Cap 25mg#Apo Indomethacin Cap 50mg#Ftp-indomethacin#Indocid Cap 25mg#Indocid Cap 50mg#Indocid SR 75mg#Indocid Sterile Oph Susp 1%#Indocid Sup 100mg#Indocid Sup 50mg#Indocin#Indocollyre#Indomethacin#Indomethacin ER#Indomethacin Extended-release#Mint-indomethacin#Novo-methacin - 100mg Sup#Novo-methacin - Sup 50mg#Ntp-indomethacin#Nu-indo Cap 25mg#Nu-indo Cap 50mg#Pro-indo 25 Cap 25mg#Pro-indo 50 Cap 50mg#Ratio-indomethacin#Rhodacine - Cap 25mg#Rhodacine - Cap 50mg#Rhodacine - Sup 100mg#Rhodacine - Sup 50mg#Sandoz Indomethacin#Teva-indomethacin#Tivorbex#Arthrexin#Elmetacin#Indaflex#Indocid#Indolar SR#Indomed#Indoxen#Metindol#Mikametan#Nu-Indo#Reumacide

>  <DrugBank ID>  (1) 
DB00328

>  <ATC Codes>  (1) 
S01CC02#M02AA23#M01AB01#M01AB51#S01BC01#C01EB03

>  <Ligand ID>  (1) 
IMN

>  <Target Name>  (1) 
Phospholipase A2, membrane associated

>  <UniProt ID>  (1) 
P14555

>  <PDB ID.1>  (1) 
3FO7

>  <Seq. Identity>  (1) 
53%

$$$$
