PDB_DB00443_96
     RDKit          3D

 57 60  0  0  0  0  0  0  0  0999 V2000
   45.3620   11.6490    1.4280 C   0  0  0  0  0  0  0  0  0  0  0  0
   44.5080   11.6060    2.5580 C   0  0  0  0  0  0  0  0  0  0  0  0
   43.2750   10.7160    2.5210 C   0  0  0  0  0  0  0  0  0  0  0  0
   43.0340    9.8980    1.2260 C   0  0  0  0  0  0  0  0  0  0  0  0
   43.8680    9.9340    0.1110 C   0  0  0  0  0  0  0  0  0  0  0  0
   43.5710    9.0470   -1.2390 C   0  0  0  0  0  0  0  0  0  0  0  0
   43.6360    9.9620   -2.5010 C   0  0  0  0  0  0  0  0  0  0  0  0
   44.9910   10.8500   -2.6160 C   0  0  2  0  0  0  0  0  0  0  0  0
   45.2330   11.7580   -1.3120 C   0  0  1  0  0  0  0  0  0  0  0  0
   45.1930   10.8430    0.0490 C   0  0  1  0  0  0  0  0  0  0  0  0
   46.5450   12.6900   -1.4270 C   0  0  2  0  0  0  0  0  0  0  0  0
   46.5410   13.5010   -2.7560 C   0  0  0  0  0  0  0  0  0  0  0  0
   46.2500   12.7010   -4.1270 C   0  0  1  0  0  0  0  0  0  0  0  0
   44.9760   11.7950   -3.9210 C   0  0  1  0  0  0  0  0  0  0  0  0
   44.8000   11.1280   -5.3530 C   0  0  0  0  0  0  0  0  0  0  0  0
   44.8440   12.3550   -6.2390 C   0  0  2  0  0  0  0  0  0  0  0  0
   45.7500   13.4130   -5.4670 C   0  0  2  0  0  0  0  0  0  0  0  0
   47.6290   11.8760   -4.4420 C   0  0  0  0  0  0  0  0  0  0  0  0
   46.4090    9.8030    0.0310 C   0  0  0  0  0  0  0  0  0  0  0  0
   46.7980   14.1950   -6.3250 C   0  0  0  0  0  0  0  0  0  0  0  0
   47.6820   15.2200   -5.6550 C   0  0  0  0  0  0  0  0  0  0  0  0
   43.3910   12.8960   -6.5150 C   0  0  0  0  0  0  0  0  0  0  0  0
   44.1630   12.5830   -1.1720 F   0  0  0  0  0  0  0  0  0  0  0  0
   42.4370   10.6010    3.4880 O   0  0  0  0  0  0  0  0  0  0  0  0
   47.7590   12.0980   -1.3080 O   0  0  0  0  0  0  0  0  0  0  0  0
   45.0280   14.5770   -5.2180 O   0  0  0  0  0  0  0  0  0  0  0  0
   46.8780   13.9440   -7.5680 O   0  0  0  0  0  0  0  0  0  0  0  0
   48.5160   15.7820   -6.5820 O   0  0  0  0  0  0  0  0  0  0  0  0
   46.2392   12.3084    1.5038 H   0  0  0  0  0  0  0  0  0  0  0  0
   44.7338   12.2084    3.4503 H   0  0  0  0  0  0  0  0  0  0  0  0
   42.1477    9.2477    1.1853 H   0  0  0  0  0  0  0  0  0  0  0  0
   44.3258    8.2515   -1.3260 H   0  0  0  0  0  0  0  0  0  0  0  0
   42.5678    8.6016   -1.1661 H   0  0  0  0  0  0  0  0  0  0  0  0
   43.5667    9.3228   -3.3935 H   0  0  0  0  0  0  0  0  0  0  0  0
   42.8007   10.6728   -2.4171 H   0  0  0  0  0  0  0  0  0  0  0  0
   45.8173   10.1291   -2.7021 H   0  0  0  0  0  0  0  0  0  0  0  0
   46.4426   13.3242   -0.5341 H   0  0  0  0  0  0  0  0  0  0  0  0
   45.7709   14.2808   -2.6618 H   0  0  0  0  0  0  0  0  0  0  0  0
   47.5743   13.8632   -2.8616 H   0  0  0  0  0  0  0  0  0  0  0  0
   44.0692   12.3489   -3.6365 H   0  0  0  0  0  0  0  0  0  0  0  0
   45.6220   10.4334   -5.5808 H   0  0  0  0  0  0  0  0  0  0  0  0
   43.8928   10.5158   -5.4641 H   0  0  0  0  0  0  0  0  0  0  0  0
   45.2681   12.1362   -7.2301 H   0  0  0  0  0  0  0  0  0  0  0  0
   48.1090   11.5889   -3.4948 H   0  0  0  0  0  0  0  0  0  0  0  0
   47.3911   10.9717   -5.0214 H   0  0  0  0  0  0  0  0  0  0  0  0
   48.3133   12.5132   -5.0214 H   0  0  0  0  0  0  0  0  0  0  0  0
   46.6965    9.5571    1.0639 H   0  0  0  0  0  0  0  0  0  0  0  0
   46.0994    8.8859   -0.4916 H   0  0  0  0  0  0  0  0  0  0  0  0
   47.2670   10.2510   -0.4916 H   0  0  0  0  0  0  0  0  0  0  0  0
   47.0563   16.0035   -5.2026 H   0  0  0  0  0  0  0  0  0  0  0  0
   48.2813   14.7306   -4.8731 H   0  0  0  0  0  0  0  0  0  0  0  0
   42.8824   13.0854   -5.5582 H   0  0  0  0  0  0  0  0  0  0  0  0
   43.4513   13.8319   -7.0898 H   0  0  0  0  0  0  0  0  0  0  0  0
   42.8245   12.1486   -7.0898 H   0  0  0  0  0  0  0  0  0  0  0  0
   47.9808   11.9898   -0.3493 H   0  0  0  0  0  0  0  0  0  0  0  0
   44.9449   14.7110   -4.2406 H   0  0  0  0  0  0  0  0  0  0  0  0
   49.2418   16.2711   -6.1194 H   0  0  0  0  0  0  0  0  0  0  0  0
  1  2  2  0
  2  3  1  0
  3  4  1  0
  4  5  2  0
  5  6  1  0
  6  7  1  0
  7  8  1  0
  8  9  1  0
  1 10  1  0
  5 10  1  0
  9 10  1  0
  9 11  1  0
 11 12  1  0
 12 13  1  0
  8 14  1  0
 13 14  1  0
 14 15  1  0
 15 16  1  0
 13 17  1  0
 16 17  1  0
 13 18  1  6
 10 19  1  6
 17 20  1  0
 20 21  1  0
 16 22  1  0
  9 23  1  1
  3 24  2  0
 11 25  1  0
 17 26  1  1
 20 27  2  0
 21 28  1  0
  1 29  1  0
  2 30  1  0
  4 31  1  0
  6 32  1  0
  6 33  1  0
  7 34  1  0
  7 35  1  0
  8 36  1  6
 11 37  1  1
 12 38  1  0
 12 39  1  0
 14 40  1  1
 15 41  1  0
 15 42  1  0
 16 43  1  6
 18 44  1  0
 18 45  1  0
 18 46  1  0
 19 47  1  0
 19 48  1  0
 19 49  1  0
 21 50  1  0
 21 51  1  0
 22 52  1  0
 22 53  1  0
 22 54  1  0
 25 55  1  0
 26 56  1  0
 28 57  1  0
M  END
$$$$
