PDB_DB01586_98
     RDKit          3D

 68 71  0  0  0  0  0  0  0  0999 V2000
   -3.5270   62.5320  -24.6350 C   0  0  0  0  0  0  0  0  0  0  0  0
   -3.7070   61.0820  -24.0550 C   0  0  1  0  0  0  0  0  0  0  0  0
   -2.5350   61.6080  -21.7710 C   0  0  0  0  0  0  0  0  0  0  0  0
   -1.4120   61.1960  -20.7500 C   0  0  0  0  0  0  0  0  0  0  0  0
   -1.6220   59.7670  -20.1980 C   0  0  1  0  0  0  0  0  0  0  0  0
   -1.6190   58.8410  -21.4730 C   0  0  1  0  0  0  0  0  0  0  0  0
   -1.6430   57.3900  -20.8710 C   0  0  0  0  0  0  0  0  0  0  0  0
   -0.8070   57.5540  -19.5560 C   0  0  0  0  0  0  0  0  0  0  0  0
   -0.4050   59.0850  -19.4700 C   0  0  2  0  0  0  0  0  0  0  0  0
   -2.9720   59.6400  -19.3700 C   0  0  0  0  0  0  0  0  0  0  0  0
   -5.1410   61.0260  -23.4240 C   0  0  0  0  0  0  0  0  0  0  0  0
   -2.9360   56.8660  -23.4340 O   0  0  0  0  0  0  0  0  0  0  0  0
   -0.8570   61.8690  -27.2640 O   0  0  0  0  0  0  0  0  0  0  0  0
   -2.1640   62.7490  -25.3600 C   0  0  0  0  0  0  0  0  0  0  0  0
   -0.0810   59.5070  -17.9690 C   0  0  2  0  0  0  0  0  0  0  0  0
    0.2580   60.9460  -17.8020 C   0  0  0  0  0  0  0  0  0  0  0  0
    1.0340   58.5570  -17.4600 C   0  0  0  0  0  0  0  0  0  0  0  0
    0.8910   58.2250  -16.0390 C   0  0  0  0  0  0  0  0  0  0  0  0
   -0.4900   57.6110  -15.5680 C   0  0  0  0  0  0  0  0  0  0  0  0
   -2.1180   61.7390  -26.5490 C   0  0  2  0  0  0  0  0  0  0  0  0
   -2.2620   60.2760  -26.0780 C   0  0  0  0  0  0  0  0  0  0  0  0
   -1.0720   56.7180  -16.2530 O   0  0  0  0  0  0  0  0  0  0  0  0
   -0.8330   58.0850  -14.5130 O   0  0  0  0  0  0  0  0  0  0  0  0
   -3.6250   60.1230  -25.3270 C   0  0  1  0  0  0  0  0  0  0  0  0
   -3.8020   58.6600  -24.8420 C   0  0  0  0  0  0  0  0  0  0  0  0
   -2.7240   58.2690  -23.8080 C   0  0  1  0  0  0  0  0  0  0  0  0
   -2.7690   59.1930  -22.5320 C   0  0  2  0  0  0  0  0  0  0  0  0
   -2.5600   60.6790  -23.0100 C   0  0  1  0  0  0  0  0  0  0  0  0
   -4.3375   62.7221  -25.3539 H   0  0  0  0  0  0  0  0  0  0  0  0
   -3.5531   63.2263  -23.7822 H   0  0  0  0  0  0  0  0  0  0  0  0
   -3.5111   61.5540  -21.2666 H   0  0  0  0  0  0  0  0  0  0  0  0
   -2.3224   62.6305  -22.1165 H   0  0  0  0  0  0  0  0  0  0  0  0
   -0.4374   61.2401  -21.2582 H   0  0  0  0  0  0  0  0  0  0  0  0
   -1.4526   61.8955  -19.9020 H   0  0  0  0  0  0  0  0  0  0  0  0
   -0.7349   58.9809  -22.1124 H   0  0  0  0  0  0  0  0  0  0  0  0
   -2.6715   57.0681  -20.6506 H   0  0  0  0  0  0  0  0  0  0  0  0
   -1.2418   56.6258  -21.5530 H   0  0  0  0  0  0  0  0  0  0  0  0
   -1.4121   57.2698  -18.6824 H   0  0  0  0  0  0  0  0  0  0  0  0
    0.0830   56.9077  -19.5658 H   0  0  0  0  0  0  0  0  0  0  0  0
    0.5339   59.3899  -19.9553 H   0  0  0  0  0  0  0  0  0  0  0  0
   -2.7454   59.6613  -18.2938 H   0  0  0  0  0  0  0  0  0  0  0  0
   -3.6367   60.4796  -19.6215 H   0  0  0  0  0  0  0  0  0  0  0  0
   -3.4685   58.6912  -19.6215 H   0  0  0  0  0  0  0  0  0  0  0  0
   -5.0593   61.0292  -22.3270 H   0  0  0  0  0  0  0  0  0  0  0  0
   -5.7200   61.9022  -23.7511 H   0  0  0  0  0  0  0  0  0  0  0  0
   -5.6499   60.1073  -23.7511 H   0  0  0  0  0  0  0  0  0  0  0  0
   -2.9481   56.7857  -22.4473 H   0  0  0  0  0  0  0  0  0  0  0  0
   -0.1150   61.9455  -26.6131 H   0  0  0  0  0  0  0  0  0  0  0  0
   -2.0957   63.7803  -25.7366 H   0  0  0  0  0  0  0  0  0  0  0  0
   -1.3214   62.5862  -24.6719 H   0  0  0  0  0  0  0  0  0  0  0  0
   -0.9881   59.3977  -17.3564 H   0  0  0  0  0  0  0  0  0  0  0  0
    0.3149   61.1873  -16.7303 H   0  0  0  0  0  0  0  0  0  0  0  0
    1.2291   61.1513  -18.2761 H   0  0  0  0  0  0  0  0  0  0  0  0
   -0.5193   61.5632  -18.2761 H   0  0  0  0  0  0  0  0  0  0  0  0
    0.9964   57.6257  -18.0443 H   0  0  0  0  0  0  0  0  0  0  0  0
    1.9952   59.0772  -17.5840 H   0  0  0  0  0  0  0  0  0  0  0  0
    1.6774   57.4973  -15.7898 H   0  0  0  0  0  0  0  0  0  0  0  0
    0.9614   59.1906  -15.5168 H   0  0  0  0  0  0  0  0  0  0  0  0
   -2.9667   61.9801  -27.2060 H   0  0  0  0  0  0  0  0  0  0  0  0
   -2.2412   59.6033  -26.9481 H   0  0  0  0  0  0  0  0  0  0  0  0
   -1.4319   60.0155  -25.4049 H   0  0  0  0  0  0  0  0  0  0  0  0
   -1.9353   56.3430  -15.9462 H   0  0  0  0  0  0  0  0  0  0  0  0
   -4.4199   60.3976  -26.0360 H   0  0  0  0  0  0  0  0  0  0  0  0
   -4.7946   58.5549  -24.3798 H   0  0  0  0  0  0  0  0  0  0  0  0
   -3.7011   57.9947  -25.7122 H   0  0  0  0  0  0  0  0  0  0  0  0
   -1.7295   58.4021  -24.2587 H   0  0  0  0  0  0  0  0  0  0  0  0
   -3.7378   59.0413  -22.0335 H   0  0  0  0  0  0  0  0  0  0  0  0
   -1.5978   60.7858  -23.5323 H   0  0  0  0  0  0  0  0  0  0  0  0
  1  2  1  0
  3  4  1  0
  4  5  1  0
  5  6  1  0
  6  7  1  0
  7  8  1  0
  5  9  1  0
  8  9  1  0
  5 10  1  1
  2 11  1  1
  1 14  1  0
  9 15  1  0
 15 16  1  0
 15 17  1  0
 17 18  1  0
 18 19  1  0
 13 20  1  0
 14 20  1  0
 20 21  1  0
 19 22  1  0
 19 23  2  0
  2 24  1  0
 21 24  1  0
 24 25  1  0
 12 26  1  0
 25 26  1  0
  6 27  1  0
 26 27  1  0
  2 28  1  0
  3 28  1  0
 27 28  1  0
  1 29  1  0
  1 30  1  0
  3 31  1  0
  3 32  1  0
  4 33  1  0
  4 34  1  0
  6 35  1  6
  7 36  1  0
  7 37  1  0
  8 38  1  0
  8 39  1  0
  9 40  1  6
 10 41  1  0
 10 42  1  0
 10 43  1  0
 11 44  1  0
 11 45  1  0
 11 46  1  0
 12 47  1  0
 13 48  1  0
 14 49  1  0
 14 50  1  0
 15 51  1  1
 16 52  1  0
 16 53  1  0
 16 54  1  0
 17 55  1  0
 17 56  1  0
 18 57  1  0
 18 58  1  0
 20 59  1  6
 21 60  1  0
 21 61  1  0
 22 62  1  0
 24 63  1  6
 25 64  1  0
 25 65  1  0
 26 66  1  6
 27 67  1  1
 28 68  1  6
M  END
$$$$
