PDB_DB01045_98
     RDKit          3D

282290  0  0  0  0  0  0  0  0999 V2000
 -113.1570   26.4420    8.4140 C   0  0  0  0  0  0  0  0  0  0  0  0
 -112.0110   26.1610    7.6560 C   0  0  0  0  0  0  0  0  0  0  0  0
 -110.7220   26.3310    8.1320 C   0  0  1  0  0  0  0  0  0  0  0  0
 -110.5060   26.8070    9.4110 C   0  0  0  0  0  0  0  0  0  0  0  0
 -111.5050   27.5780   11.5580 C   0  0  0  0  0  0  0  0  0  0  0  0
 -112.6880   27.8420   12.2940 C   0  0  0  0  0  0  0  0  0  0  0  0
 -113.9900   27.6890   11.8840 C   0  0  0  0  0  0  0  0  0  0  0  0
 -114.1500   27.2060   10.5610 C   0  0  0  0  0  0  0  0  0  0  0  0
 -112.9590   26.9190    9.7520 C   0  0  0  0  0  0  0  0  0  0  0  0
 -111.5950   27.0970   10.2340 C   0  0  0  0  0  0  0  0  0  0  0  0
 -110.4700   27.9030   12.4580 C   0  0  0  0  0  0  0  0  0  0  0  0
 -110.8310   28.5720   13.5880 C   0  0  2  0  0  0  0  0  0  0  0  0
 -110.0870   27.9080   14.7240 C   0  0  0  0  0  0  0  0  0  0  0  0
 -115.1840   27.9950   12.7500 C   0  0  0  0  0  0  0  0  0  0  0  0
 -113.1370   25.8740    5.3110 C   0  0  0  0  0  0  0  0  0  0  0  0
 -112.8440   25.2980    3.9340 C   0  0  1  0  0  0  0  0  0  0  0  0
 -112.0470   26.1860    3.1850 C   0  0  0  0  0  0  0  0  0  0  0  0
 -112.2850   27.7150    3.3180 C   0  0  0  0  0  0  0  0  0  0  0  0
 -111.5580   28.5950    2.4810 C   0  0  0  0  0  0  0  0  0  0  0  0
 -110.8010   29.8210    2.9660 C   0  0  1  0  0  0  0  0  0  0  0  0
 -110.9600   30.0580    4.4610 C   0  0  1  0  0  0  0  0  0  0  0  0
 -109.9870   31.0380    5.0560 C   0  0  2  0  0  0  0  0  0  0  0  0
 -110.6340   31.6020    6.2960 C   0  0  2  0  0  0  0  0  0  0  0  0
 -109.6980   31.7220    7.4680 C   0  0  2  0  0  0  0  0  0  0  0  0
 -110.3040   32.7430    8.4340 C   0  0  1  0  0  0  0  0  0  0  0  0
 -110.8190   32.0730    9.6950 C   0  0  1  0  0  0  0  0  0  0  0  0
 -110.3910   32.8070   10.9590 C   0  0  2  0  0  0  0  0  0  0  0  0
 -110.7820   32.0650   12.2190 C   0  0  0  0  0  0  0  0  0  0  0  0
 -110.7670   30.6630   12.2560 C   0  0  0  0  0  0  0  0  0  0  0  0
 -112.4090   23.8450    4.0370 C   0  0  0  0  0  0  0  0  0  0  0  0
 -109.3990   29.6180    2.4950 C   0  0  0  0  0  0  0  0  0  0  0  0
 -109.6030   32.1840    4.1530 C   0  0  0  0  0  0  0  0  0  0  0  0
 -108.2630   32.0730    7.0900 C   0  0  0  0  0  0  0  0  0  0  0  0
 -112.3170   31.9050    9.6320 C   0  0  0  0  0  0  0  0  0  0  0  0
 -109.2060   34.8330    7.7070 C   0  0  2  0  0  0  0  0  0  0  0  0
 -107.8490   35.3960    7.4190 C   0  0  0  0  0  0  0  0  0  0  0  0
 -111.9590   34.5560   11.7230 C   0  0  0  0  0  0  0  0  0  0  0  0
 -103.4190   25.5160    6.1440 C   0  0  0  0  0  0  0  0  0  0  0  0
 -105.6080   25.9440    7.3140 C   0  0  0  0  0  0  0  0  0  0  0  0
 -107.0230   26.3240    7.0090 C   0  0  0  0  0  0  0  0  0  0  0  0
 -107.0330   24.7850    5.0720 C   0  0  0  0  0  0  0  0  0  0  0  0
 -105.6130   24.4350    5.4970 C   0  0  0  0  0  0  0  0  0  0  0  0
 -109.6810   25.3780    7.5370 C   0  0  0  0  0  0  0  0  0  0  0  0
 -112.0260   25.6720    6.2710 N   0  0  0  0  0  0  0  0  0  0  0  0
 -108.9690   25.8550    6.5150 N   0  0  0  0  0  0  0  0  0  0  0  0
 -107.7070   25.3480    6.2190 N   0  0  0  0  0  0  0  0  0  0  0  0
 -104.9080   25.5260    6.1300 N   0  0  0  0  0  0  0  0  0  0  0  0
 -114.3990   26.2410    7.9090 O   0  0  0  0  0  0  0  0  0  0  0  0
 -115.4170   27.0030    9.9830 O   0  0  0  0  0  0  0  0  0  0  0  0
 -112.2320   28.3550   13.7070 O   0  0  0  0  0  0  0  0  0  0  0  0
 -109.3000   27.5970   12.2430 O   0  0  0  0  0  0  0  0  0  0  0  0
 -110.5390   29.9600   13.4570 O   0  0  0  0  0  0  0  0  0  0  0  0
 -110.8530   34.1200   10.9850 O   0  0  0  0  0  0  0  0  0  0  0  0
 -109.3790   33.7730    8.6350 O   0  0  0  0  0  0  0  0  0  0  0  0
 -110.0490   35.0390    6.8480 O   0  0  0  0  0  0  0  0  0  0  0  0
 -111.7030   30.7800    6.6320 O   0  0  0  0  0  0  0  0  0  0  0  0
 -112.2570   30.4910    4.7130 O   0  0  0  0  0  0  0  0  0  0  0  0
 -114.1760   26.4630    5.5830 O   0  0  0  0  0  0  0  0  0  0  0  0
 -109.2250   26.9650    9.8480 O   0  0  0  0  0  0  0  0  0  0  0  0
 -110.4330   28.2330   15.5720 H   0  0  0  0  0  0  0  0  0  0  0  0
 -110.2100   26.9360   14.6710 H   0  0  0  0  0  0  0  0  0  0  0  0
 -109.1410   28.1190   14.6590 H   0  0  0  0  0  0  0  0  0  0  0  0
 -115.7000   27.1810   12.8910 H   0  0  0  0  0  0  0  0  0  0  0  0
 -114.8870   28.3370   13.5990 H   0  0  0  0  0  0  0  0  0  0  0  0
 -115.7460   28.6650   12.3080 H   0  0  0  0  0  0  0  0  0  0  0  0
 -111.2190   25.8690    2.7990 H   0  0  0  0  0  0  0  0  0  0  0  0
 -112.7300   28.0660    4.1070 H   0  0  0  0  0  0  0  0  0  0  0  0
 -111.4850   28.3610    1.5500 H   0  0  0  0  0  0  0  0  0  0  0  0
 -111.1630   30.5970    2.4970 H   0  0  0  0  0  0  0  0  0  0  0  0
 -110.8370   29.2060    4.9070 H   0  0  0  0  0  0  0  0  0  0  0  0
 -109.1800   30.5630    5.3120 H   0  0  0  0  0  0  0  0  0  0  0  0
 -110.9810   32.4850    6.0880 H   0  0  0  0  0  0  0  0  0  0  0  0
 -109.6770   30.8620    7.9150 H   0  0  0  0  0  0  0  0  0  0  0  0
 -111.0700   33.1180    7.9890 H   0  0  0  0  0  0  0  0  0  0  0  0
 -110.4350   31.1870    9.7350 H   0  0  0  0  0  0  0  0  0  0  0  0
 -109.4150   32.8480   10.9460 H   0  0  0  0  0  0  0  0  0  0  0  0
 -111.1030   32.5610   12.9870 H   0  0  0  0  0  0  0  0  0  0  0  0
 -110.9710   30.1710   11.4560 H   0  0  0  0  0  0  0  0  0  0  0  0
 -111.4730   23.8040    4.3290 H   0  0  0  0  0  0  0  0  0  0  0  0
 -112.9690   23.3840    4.6820 H   0  0  0  0  0  0  0  0  0  0  0  0
 -112.4970   23.4150    3.1630 H   0  0  0  0  0  0  0  0  0  0  0  0
 -108.7880   29.6640    3.2510 H   0  0  0  0  0  0  0  0  0  0  0  0
 -109.3250   28.7410    2.0740 H   0  0  0  0  0  0  0  0  0  0  0  0
 -109.1680   30.3020    1.8440 H   0  0  0  0  0  0  0  0  0  0  0  0
 -109.5100   33.0040    4.6810 H   0  0  0  0  0  0  0  0  0  0  0  0
 -108.7490   31.9820    3.7250 H   0  0  0  0  0  0  0  0  0  0  0  0
 -110.2830   32.3150    3.4650 H   0  0  0  0  0  0  0  0  0  0  0  0
 -107.7870   32.4080    7.8750 H   0  0  0  0  0  0  0  0  0  0  0  0
 -107.8030   31.2680    6.7570 H   0  0  0  0  0  0  0  0  0  0  0  0
 -108.2610   32.7540    6.4020 H   0  0  0  0  0  0  0  0  0  0  0  0
 -112.5930   31.1830   10.2140 H   0  0  0  0  0  0  0  0  0  0  0  0
 -112.7570   32.7320    9.9350 H   0  0  0  0  0  0  0  0  0  0  0  0
 -112.5920   31.7070    8.7130 H   0  0  0  0  0  0  0  0  0  0  0  0
 -107.2880   34.7010    6.9950 H   0  0  0  0  0  0  0  0  0  0  0  0
 -107.9330   36.1490    6.8220 H   0  0  0  0  0  0  0  0  0  0  0  0
 -107.4370   35.6840    8.2450 H   0  0  0  0  0  0  0  0  0  0  0  0
 -112.6770   33.8990   11.6510 H   0  0  0  0  0  0  0  0  0  0  0  0
 -111.7050   34.6600   12.6680 H   0  0  0  0  0  0  0  0  0  0  0  0
 -112.2670   35.4120   11.3740 H   0  0  0  0  0  0  0  0  0  0  0  0
 -103.1030   24.7950    6.7330 H   0  0  0  0  0  0  0  0  0  0  0  0
 -103.0840   25.3670    5.2360 H   0  0  0  0  0  0  0  0  0  0  0  0
 -103.0890   26.3750    6.4750 H   0  0  0  0  0  0  0  0  0  0  0  0
 -105.1480   26.7050    7.7090 H   0  0  0  0  0  0  0  0  0  0  0  0
 -105.5930   25.2240    7.9640 H   0  0  0  0  0  0  0  0  0  0  0  0
 -107.5130   26.4840    7.8370 H   0  0  0  0  0  0  0  0  0  0  0  0
 -106.9990   27.1590    6.5060 H   0  0  0  0  0  0  0  0  0  0  0  0
 -107.0450   25.3990    4.3180 H   0  0  0  0  0  0  0  0  0  0  0  0
 -107.4810   23.9600    4.8290 H   0  0  0  0  0  0  0  0  0  0  0  0
 -105.6420   23.6890    6.1190 H   0  0  0  0  0  0  0  0  0  0  0  0
 -105.1120   24.1400    4.7250 H   0  0  0  0  0  0  0  0  0  0  0  0
 -109.7400   24.4310    7.6900 H   0  0  0  0  0  0  0  0  0  0  0  0
 -111.2740   25.2340    5.9650 H   0  0  0  0  0  0  0  0  0  0  0  0
 -114.8760   26.9970    7.9800 H   0  0  0  0  0  0  0  0  0  0  0  0
 -115.9890   26.6590   10.6120 H   0  0  0  0  0  0  0  0  0  0  0  0
 -112.4520   31.1070    6.2740 H   0  0  0  0  0  0  0  0  0  0  0  0
 -112.4060   31.2590    4.2770 H   0  0  0  0  0  0  0  0  0  0  0  0
 -108.7710   27.4250    9.2580 H   0  0  0  0  0  0  0  0  0  0  0  0
  -21.1680  -39.4140   64.6120 C   0  0  0  0  0  0  0  0  0  0  0  0
  -21.1650  -39.0360   63.2520 C   0  0  0  0  0  0  0  0  0  0  0  0
  -22.2520  -39.2980   62.4070 C   0  0  1  0  0  0  0  0  0  0  0  0
  -23.3790  -39.9300   62.9090 C   0  0  0  0  0  0  0  0  0  0  0  0
  -24.5450  -40.9770   64.8490 C   0  0  0  0  0  0  0  0  0  0  0  0
  -24.5000  -41.3350   66.2120 C   0  0  0  0  0  0  0  0  0  0  0  0
  -23.4800  -41.1210   67.0870 C   0  0  0  0  0  0  0  0  0  0  0  0
  -22.3430  -40.4660   66.5500 C   0  0  0  0  0  0  0  0  0  0  0  0
  -22.3270  -40.0720   65.1350 C   0  0  0  0  0  0  0  0  0  0  0  0
  -23.4450  -40.3250   64.2450 C   0  0  0  0  0  0  0  0  0  0  0  0
  -25.8120  -41.4430   64.4550 C   0  0  0  0  0  0  0  0  0  0  0  0
  -26.3440  -42.4010   65.2670 C   0  0  2  0  0  0  0  0  0  0  0  0
  -27.8440  -42.3250   65.2450 C   0  0  0  0  0  0  0  0  0  0  0  0
  -23.5460  -41.5450   68.5240 C   0  0  0  0  0  0  0  0  0  0  0  0
  -18.6780  -38.1060   63.2030 C   0  0  0  0  0  0  0  0  0  0  0  0
  -17.6780  -37.3810   62.2900 C   0  0  1  0  0  0  0  0  0  0  0  0
  -17.2110  -38.1400   61.2150 C   0  0  0  0  0  0  0  0  0  0  0  0
  -16.4900  -39.4830   61.4080 C   0  0  0  0  0  0  0  0  0  0  0  0
  -16.3840  -40.2140   60.2160 C   0  0  0  0  0  0  0  0  0  0  0  0
  -16.3600  -41.7190   60.1390 C   0  0  1  0  0  0  0  0  0  0  0  0
  -17.4490  -42.3660   60.9730 C   0  0  1  0  0  0  0  0  0  0  0  0
  -17.6660  -43.8070   60.6000 C   0  0  2  0  0  0  0  0  0  0  0  0
  -18.6530  -44.4990   61.5160 C   0  0  2  0  0  0  0  0  0  0  0  0
  -20.0850  -44.1120   61.2980 C   0  0  2  0  0  0  0  0  0  0  0  0
  -20.9500  -45.1030   62.0730 C   0  0  1  0  0  0  0  0  0  0  0  0
  -22.1790  -44.4910   62.6960 C   0  0  1  0  0  0  0  0  0  0  0  0
  -22.9470  -45.5910   63.4140 C   0  0  2  0  0  0  0  0  0  0  0  0
  -24.3550  -45.2710   63.8620 C   0  0  0  0  0  0  0  0  0  0  0  0
  -24.8210  -43.9640   64.0200 C   0  0  0  0  0  0  0  0  0  0  0  0
  -18.0050  -35.9350   61.9700 C   0  0  0  0  0  0  0  0  0  0  0  0
  -16.4900  -42.0100   58.6850 C   0  0  0  0  0  0  0  0  0  0  0  0
  -16.3880  -44.5960   60.6910 C   0  0  0  0  0  0  0  0  0  0  0  0
  -20.4580  -44.1280   59.8390 C   0  0  0  0  0  0  0  0  0  0  0  0
  -21.7650  -43.3890   63.6370 C   0  0  0  0  0  0  0  0  0  0  0  0
  -20.9290  -47.4830   61.4690 C   0  0  1  0  0  0  0  0  0  0  0  0
  -21.5690  -48.5710   60.6800 C   0  0  0  0  0  0  0  0  0  0  0  0
  -22.2830  -47.2600   64.9830 C   0  0  0  0  0  0  0  0  0  0  0  0
  -26.3700  -40.0730   55.9080 C   0  0  0  0  0  0  0  0  0  0  0  0
  -24.1080  -40.3150   56.9790 C   0  0  0  0  0  0  0  0  0  0  0  0
  -23.4950  -40.5970   58.3200 C   0  0  0  0  0  0  0  0  0  0  0  0
  -24.6300  -38.4480   58.8840 C   0  0  0  0  0  0  0  0  0  0  0  0
  -25.8130  -39.0640   58.1360 C   0  0  0  0  0  0  0  0  0  0  0  0
  -22.2810  -38.7270   60.9700 C   0  0  0  0  0  0  0  0  0  0  0  0
  -20.0250  -38.3540   62.6020 N   0  0  0  0  0  0  0  0  0  0  0  0
  -22.4190  -39.5420   59.9130 N   0  0  0  0  0  0  0  0  0  0  0  0
  -23.5790  -39.4170   59.1240 N   0  0  0  0  0  0  0  0  0  0  0  0
  -25.5180  -40.0630   57.1270 N   0  0  0  0  0  0  0  0  0  0  0  0
  -20.1260  -39.1700   65.4330 O   0  0  0  0  0  0  0  0  0  0  0  0
  -21.2370  -40.1970   67.3650 O   0  0  0  0  0  0  0  0  0  0  0  0
  -25.8580  -42.0430   66.5520 O   0  0  0  0  0  0  0  0  0  0  0  0
  -26.3790  -41.0330   63.4480 O   0  0  0  0  0  0  0  0  0  0  0  0
  -25.9100  -43.7020   64.8800 O   0  0  0  0  0  0  0  0  0  0  0  0
  -22.2420  -45.9430   64.5410 O   0  0  0  0  0  0  0  0  0  0  0  0
  -21.2870  -46.1480   61.2230 O   0  0  0  0  0  0  0  0  0  0  0  0
  -20.1440  -47.7850   62.3540 O   0  0  0  0  0  0  0  0  0  0  0  0
  -18.2830  -44.2360   62.8270 O   0  0  0  0  0  0  0  0  0  0  0  0
  -17.1290  -42.2910   62.3200 O   0  0  0  0  0  0  0  0  0  0  0  0
  -18.3680  -38.4520   64.3420 O   0  0  0  0  0  0  0  0  0  0  0  0
  -24.4210  -40.1680   62.0780 O   0  0  0  0  0  0  0  0  0  0  0  0
  -28.2050  -42.8400   65.9870 H   0  0  0  0  0  0  0  0  0  0  0  0
  -28.1250  -41.3880   65.3300 H   0  0  0  0  0  0  0  0  0  0  0  0
  -28.1750  -42.6880   64.4080 H   0  0  0  0  0  0  0  0  0  0  0  0
  -23.4830  -40.7590   69.0960 H   0  0  0  0  0  0  0  0  0  0  0  0
  -24.3790  -41.9960   68.6890 H   0  0  0  0  0  0  0  0  0  0  0  0
  -22.8010  -42.1510   68.7200 H   0  0  0  0  0  0  0  0  0  0  0  0
  -17.4530  -37.8700   60.3180 H   0  0  0  0  0  0  0  0  0  0  0  0
  -16.5210  -39.9440   62.2640 H   0  0  0  0  0  0  0  0  0  0  0  0
  -16.3040  -39.7180   59.3940 H   0  0  0  0  0  0  0  0  0  0  0  0
  -15.4890  -42.0350   60.4460 H   0  0  0  0  0  0  0  0  0  0  0  0
  -18.2750  -41.8790   60.8240 H   0  0  0  0  0  0  0  0  0  0  0  0
  -17.9960  -43.8510   59.6890 H   0  0  0  0  0  0  0  0  0  0  0  0
  -18.5760  -45.4570   61.3720 H   0  0  0  0  0  0  0  0  0  0  0  0
  -20.2280  -43.2200   61.6470 H   0  0  0  0  0  0  0  0  0  0  0  0
  -20.4090  -45.4510   62.7880 H   0  0  0  0  0  0  0  0  0  0  0  0
  -22.7390  -44.1180   62.0040 H   0  0  0  0  0  0  0  0  0  0  0  0
  -22.9870  -46.3670   62.8230 H   0  0  0  0  0  0  0  0  0  0  0  0
  -24.8750  -45.9870   64.2580 H   0  0  0  0  0  0  0  0  0  0  0  0
  -24.2800  -43.2320   63.7130 H   0  0  0  0  0  0  0  0  0  0  0  0
  -18.6560  -35.9010   61.2380 H   0  0  0  0  0  0  0  0  0  0  0  0
  -18.3790  -35.5060   62.7550 H   0  0  0  0  0  0  0  0  0  0  0  0
  -17.1880  -35.4680   61.7010 H   0  0  0  0  0  0  0  0  0  0  0  0
  -16.3070  -42.9520   58.5200 H   0  0  0  0  0  0  0  0  0  0  0  0
  -17.3990  -41.8050   58.3960 H   0  0  0  0  0  0  0  0  0  0  0  0
  -15.8660  -41.4610   58.1820 H   0  0  0  0  0  0  0  0  0  0  0  0
  -16.5770  -45.5480   60.5620 H   0  0  0  0  0  0  0  0  0  0  0  0
  -15.7750  -44.2940   59.9920 H   0  0  0  0  0  0  0  0  0  0  0  0
  -15.9690  -44.4620   61.5630 H   0  0  0  0  0  0  0  0  0  0  0  0
  -21.4290  -44.1830   59.7460 H   0  0  0  0  0  0  0  0  0  0  0  0
  -20.1430  -43.2980   59.4090 H   0  0  0  0  0  0  0  0  0  0  0  0
  -20.0520  -44.8910   59.4030 H   0  0  0  0  0  0  0  0  0  0  0  0
  -22.2780  -43.4460   64.4560 H   0  0  0  0  0  0  0  0  0  0  0  0
  -20.8120  -43.4840   63.8620 H   0  0  0  0  0  0  0  0  0  0  0  0
  -21.9170  -42.5170   63.2160 H   0  0  0  0  0  0  0  0  0  0  0  0
  -21.1690  -48.6020   59.7770 H   0  0  0  0  0  0  0  0  0  0  0  0
  -21.4270  -49.4170   61.1220 H   0  0  0  0  0  0  0  0  0  0  0  0
  -22.5180  -48.4020   60.6070 H   0  0  0  0  0  0  0  0  0  0  0  0
  -21.9950  -47.2980   65.9140 H   0  0  0  0  0  0  0  0  0  0  0  0
  -23.2020  -47.6040   64.9100 H   0  0  0  0  0  0  0  0  0  0  0  0
  -21.6870  -47.8050   64.4360 H   0  0  0  0  0  0  0  0  0  0  0  0
  -26.1930  -40.8910   55.3920 H   0  0  0  0  0  0  0  0  0  0  0  0
  -27.3140  -40.0490   56.1680 H   0  0  0  0  0  0  0  0  0  0  0  0
  -26.1640  -39.2900   55.3590 H   0  0  0  0  0  0  0  0  0  0  0  0
  -23.6880  -39.5150   56.6180 H   0  0  0  0  0  0  0  0  0  0  0  0
  -23.9570  -41.0560   56.3700 H   0  0  0  0  0  0  0  0  0  0  0  0
  -23.9700  -41.3230   58.7650 H   0  0  0  0  0  0  0  0  0  0  0  0
  -22.5630  -40.8590   58.2110 H   0  0  0  0  0  0  0  0  0  0  0  0
  -24.2790  -37.6760   58.4090 H   0  0  0  0  0  0  0  0  0  0  0  0
  -24.9630  -38.1590   59.7480 H   0  0  0  0  0  0  0  0  0  0  0  0
  -26.4140  -39.4650   58.7860 H   0  0  0  0  0  0  0  0  0  0  0  0
  -26.3040  -38.3470   57.7140 H   0  0  0  0  0  0  0  0  0  0  0  0
  -22.3880  -37.7790   60.8470 H   0  0  0  0  0  0  0  0  0  0  0  0
  -20.1550  -38.0580   61.7380 H   0  0  0  0  0  0  0  0  0  0  0  0
  -19.6610  -39.9270   65.5580 H   0  0  0  0  0  0  0  0  0  0  0  0
  -21.4630  -39.5620   67.9880 H   0  0  0  0  0  0  0  0  0  0  0  0
  -18.6560  -43.4700   63.0920 H   0  0  0  0  0  0  0  0  0  0  0  0
  -16.2560  -42.4610   62.4300 H   0  0  0  0  0  0  0  0  0  0  0  0
  -24.8140  -39.4120   61.8790 H   0  0  0  0  0  0  0  0  0  0  0  0
 -113.1659   25.4063    8.7845 H   0  0  0  0  0  0  0  0  0  0  0  0
 -112.0077   27.1940    7.2781 H   0  0  0  0  0  0  0  0  0  0  0  0
 -110.4922   27.2997    7.6642 H   0  0  0  0  0  0  0  0  0  0  0  0
 -110.5197   27.8386    9.0294 H   0  0  0  0  0  0  0  0  0  0  0  0
 -111.5022   26.5441   11.9334 H   0  0  0  0  0  0  0  0  0  0  0  0
 -112.6911   28.8758   11.9182 H   0  0  0  0  0  0  0  0  0  0  0  0
 -113.9927   28.7224   11.5071 H   0  0  0  0  0  0  0  0  0  0  0  0
 -114.1567   28.2395   10.1845 H   0  0  0  0  0  0  0  0  0  0  0  0
 -112.9601   27.9552    9.3828 H   0  0  0  0  0  0  0  0  0  0  0  0
 -111.5869   26.0630   10.6091 H   0  0  0  0  0  0  0  0  0  0  0  0
 -110.3194   28.8611   11.9389 H   0  0  0  0  0  0  0  0  0  0  0  0
 -113.5775   24.9142    5.6188 H   0  0  0  0  0  0  0  0  0  0  0  0
 -113.7560   25.2244    3.3234 H   0  0  0  0  0  0  0  0  0  0  0  0
 -112.6300   26.0742    2.2589 H   0  0  0  0  0  0  0  0  0  0  0  0
 -113.2083   27.7214    2.7201 H   0  0  0  0  0  0  0  0  0  0  0  0
 -112.4608   29.2077    2.3411 H   0  0  0  0  0  0  0  0  0  0  0  0
 -111.8290   32.0449   11.8823 H   0  0  0  0  0  0  0  0  0  0  0  0
 -109.6857   30.6692   12.0544 H   0  0  0  0  0  0  0  0  0  0  0  0
 -109.5207   35.5084    8.5162 H   0  0  0  0  0  0  0  0  0  0  0  0
 -108.9243   25.3981    8.3351 H   0  0  0  0  0  0  0  0  0  0  0  0
 -109.5434   25.7207    5.6706 H   0  0  0  0  0  0  0  0  0  0  0  0
 -108.8276   27.4735   13.1042 H   0  0  0  0  0  0  0  0  0  0  0  0
 -110.9147   35.2505    7.2792 H   0  0  0  0  0  0  0  0  0  0  0  0
 -114.2756   26.5195    6.5664 H   0  0  0  0  0  0  0  0  0  0  0  0
  -21.5997  -38.4390   64.8821 H   0  0  0  0  0  0  0  0  0  0  0  0
  -20.7222  -40.0064   62.9833 H   0  0  0  0  0  0  0  0  0  0  0  0
  -21.7387  -40.2139   62.0789 H   0  0  0  0  0  0  0  0  0  0  0  0
  -22.9503  -40.9070   62.6413 H   0  0  0  0  0  0  0  0  0  0  0  0
  -24.9748  -40.0013   65.1195 H   0  0  0  0  0  0  0  0  0  0  0  0
  -24.0642  -42.3082   65.9420 H   0  0  0  0  0  0  0  0  0  0  0  0
  -23.0455  -42.0953   66.8187 H   0  0  0  0  0  0  0  0  0  0  0  0
  -21.9075  -41.4404   66.2836 H   0  0  0  0  0  0  0  0  0  0  0  0
  -21.8937  -41.0472   64.8683 H   0  0  0  0  0  0  0  0  0  0  0  0
  -23.8767  -39.3492   64.5122 H   0  0  0  0  0  0  0  0  0  0  0  0
  -25.3350  -42.2246   63.8454 H   0  0  0  0  0  0  0  0  0  0  0  0
  -19.0284  -37.1372   63.5885 H   0  0  0  0  0  0  0  0  0  0  0  0
  -16.7918  -37.2775   62.9334 H   0  0  0  0  0  0  0  0  0  0  0  0
  -16.2366  -37.7052   61.4824 H   0  0  0  0  0  0  0  0  0  0  0  0
  -15.4559  -39.1887   61.6404 H   0  0  0  0  0  0  0  0  0  0  0  0
  -15.2877  -40.2011   60.3056 H   0  0  0  0  0  0  0  0  0  0  0  0
  -24.6432  -45.2036   62.8026 H   0  0  0  0  0  0  0  0  0  0  0  0
  -25.4587  -44.0233   63.1257 H   0  0  0  0  0  0  0  0  0  0  0  0
  -20.1301  -47.4074   60.7167 H   0  0  0  0  0  0  0  0  0  0  0  0
  -21.1848  -38.7772   60.8939 H   0  0  0  0  0  0  0  0  0  0  0  0
  -21.6106  -39.3809   59.2954 H   0  0  0  0  0  0  0  0  0  0  0  0
  -27.1527  -40.4735   63.7096 H   0  0  0  0  0  0  0  0  0  0  0  0
  -20.5633  -47.6237   63.2362 H   0  0  0  0  0  0  0  0  0  0  0  0
  -18.8616  -37.9011   65.0001 H   0  0  0  0  0  0  0  0  0  0  0  0
  1  2  1  0
  2  3  1  0
  3  4  1  0
  5  6  1  0
  6  7  1  0
  7  8  1  0
  1  9  1  0
  8  9  1  0
  4 10  1  0
  5 10  1  0
  9 10  1  0
  5 11  1  0
 11 12  1  0
 12 13  1  1
  7 14  1  0
 15 16  1  0
 16 17  1  0
 17 18  1  0
 18 19  1  0
 19 20  1  0
 20 21  1  0
 21 22  1  0
 22 23  1  0
 23 24  1  0
 24 25  1  0
 25 26  1  0
 26 27  1  0
 27 28  1  0
 28 29  1  0
 16 30  1  0
 20 31  1  0
 22 32  1  0
 24 33  1  0
 26 34  1  0
 35 36  1  0
 39 40  1  0
 41 42  1  0
  3 43  1  0
  2 44  1  0
 15 44  1  0
 43 45  1  0
 40 46  1  0
 41 46  1  0
 45 46  1  0
 38 47  1  0
 39 47  1  0
 42 47  1  0
  1 48  1  0
  8 49  1  0
  6 50  1  0
 12 50  1  0
 11 51  1  0
 12 52  1  0
 29 52  1  0
 27 53  1  0
 37 53  1  0
 25 54  1  0
 35 54  1  0
 35 55  1  0
 23 56  1  0
 21 57  1  0
 15 58  1  0
  4 59  1  0
 13 60  1  0
 13 61  1  0
 13 62  1  0
 14 63  1  0
 14 64  1  0
 14 65  1  0
 17 66  1  0
 18 67  1  0
 19 68  1  0
 20 69  1  6
 21 70  1  1
 22 71  1  1
 23 72  1  6
 24 73  1  1
 25 74  1  6
 26 75  1  1
 27 76  1  6
 28 77  1  0
 29 78  1  0
 30 79  1  0
 30 80  1  0
 30 81  1  0
 31 82  1  0
 31 83  1  0
 31 84  1  0
 32 85  1  0
 32 86  1  0
 32 87  1  0
 33 88  1  0
 33 89  1  0
 33 90  1  0
 34 91  1  0
 34 92  1  0
 34 93  1  0
 36 94  1  0
 36 95  1  0
 36 96  1  0
 37 97  1  0
 37 98  1  0
 37 99  1  0
 38100  1  0
 38101  1  0
 38102  1  0
 39103  1  0
 39104  1  0
 40105  1  0
 40106  1  0
 41107  1  0
 41108  1  0
 42109  1  0
 42110  1  0
 43111  1  0
 44112  1  0
 48113  1  0
 49114  1  0
 56115  1  0
 57116  1  0
 59117  1  0
118119  1  0
119120  1  0
120121  1  0
122123  1  0
123124  1  0
124125  1  0
118126  1  0
125126  1  0
121127  1  0
122127  1  0
126127  1  0
122128  1  0
128129  1  0
129130  1  1
124131  1  0
132133  1  0
133134  1  0
134135  1  0
135136  1  0
136137  1  0
137138  1  0
138139  1  0
139140  1  0
140141  1  0
141142  1  0
142143  1  0
143144  1  0
144145  1  0
145146  1  0
133147  1  0
137148  1  0
139149  1  0
141150  1  0
143151  1  0
152153  1  0
156157  1  0
158159  1  0
120160  1  0
119161  1  0
132161  1  0
160162  1  0
157163  1  0
158163  1  0
162163  1  0
155164  1  0
156164  1  0
159164  1  0
118165  1  0
125166  1  0
123167  1  0
129167  1  0
128168  1  0
129169  1  0
146169  1  0
144170  1  0
154170  1  0
142171  1  0
152171  1  0
152172  1  0
140173  1  0
138174  1  0
132175  1  0
121176  1  0
130177  1  0
130178  1  0
130179  1  0
131180  1  0
131181  1  0
131182  1  0
134183  1  0
135184  1  0
136185  1  0
137186  1  1
138187  1  1
139188  1  6
140189  1  1
141190  1  1
142191  1  1
143192  1  6
144193  1  6
145194  1  0
146195  1  0
147196  1  0
147197  1  0
147198  1  0
148199  1  0
148200  1  0
148201  1  0
149202  1  0
149203  1  0
149204  1  0
150205  1  0
150206  1  0
150207  1  0
151208  1  0
151209  1  0
151210  1  0
153211  1  0
153212  1  0
153213  1  0
154214  1  0
154215  1  0
154216  1  0
155217  1  0
155218  1  0
155219  1  0
156220  1  0
156221  1  0
157222  1  0
157223  1  0
158224  1  0
158225  1  0
159226  1  0
159227  1  0
160228  1  0
161229  1  0
165230  1  0
166231  1  0
173232  1  0
174233  1  0
176234  1  0
  1235  1  0
  2236  1  0
  3237  1  6
  4238  1  0
  5239  1  0
  6240  1  0
  7241  1  0
  8242  1  0
  9243  1  0
 10244  1  0
 11245  1  0
 15246  1  0
 16247  1  6
 17248  1  0
 18249  1  0
 19250  1  0
 28251  1  0
 29252  1  0
 35253  1  1
 43254  1  0
 45255  1  0
 51256  1  0
 55257  1  0
 58258  1  0
118259  1  0
119260  1  0
120261  1  6
121262  1  0
122263  1  0
123264  1  0
124265  1  0
125266  1  0
126267  1  0
127268  1  0
128269  1  0
132270  1  0
133271  1  1
134272  1  0
135273  1  0
136274  1  0
145275  1  0
146276  1  0
152277  1  6
160278  1  0
162279  1  0
168280  1  0
172281  1  0
175282  1  0
M  END
>  <PDBID>  (1) 
4KMU

>  <PDB ID>  (1) 
4KMU

>  <Generic Name>  (1) 
Rifampicin

>  <Brand Name>  (1) 
Isonarif#Rifadin#Rifadin Cap 300mg#Rifadin IV#Rifadin IV Novaplus#Rifamate#Rifampin#Rifater#Rofact 150mg#Rofact 300mg#Rifadine#Rifaldin#Rifoldin#Rimactan#Rimactane#Rofact#Tubocin

>  <DrugBank ID>  (1) 
DB01045

>  <ATC Codes>  (1) 
J04AM02#J04AB02#J04AM06#J04AM05

>  <Ligand ID>  (1) 
RFP

>  <Target Name>  (1) 
DNA-directed RNA polymerase subunit beta

>  <UniProt ID>  (1) 
P0A8V2

>  <PDB ID.1>  (1) 
4KMU

>  <Seq. Identity>  (1) 
100%

$$$$
