PDB_DB01254_97
     RDKit          3D

154160  0  0  0  0  0  0  0  0999 V2000
   31.2900   24.1120   -2.3480 C   0  0  0  0  0  0  0  0  0  0  0  0
   31.4430   22.7400   -1.9990 C   0  0  0  0  0  0  0  0  0  0  0  0
   32.3510   22.0170   -1.0300 C   0  0  1  0  0  0  0  0  0  0  0  0
   23.7970   21.0210   -9.6040 N   0  0  0  0  0  0  0  0  0  0  0  0
   35.8010   21.2030    2.4460 C   0  0  0  0  0  0  0  0  0  0  0  0
   36.2220   21.3960    1.1310 C   0  0  0  0  0  0  0  0  0  0  0  0
   35.3890   22.0070    0.1890 C   0  0  1  0  0  0  0  0  0  0  0  0
   35.9280   22.2630   -1.1530 C   0  0  0  0  0  0  0  0  0  0  0  0
   28.3320   22.0500   -5.1290 C   0  0  0  0  0  0  0  0  0  0  0  0
   27.3530   22.2000   -6.1110 C   0  0  0  0  0  0  0  0  0  0  0  0
   26.6940   21.0670   -6.5770 C   0  0  0  0  0  0  0  0  0  0  0  0
   28.0160   19.7300   -5.1540 C   0  0  0  0  0  0  0  0  0  0  0  0
   28.3740   18.3830   -4.6700 C   0  0  0  0  0  0  0  0  0  0  0  0
   24.5650   20.1440   -7.4170 C   0  0  0  0  0  0  0  0  0  0  0  0
   25.0540   22.4150   -7.8380 C   0  0  0  0  0  0  0  0  0  0  0  0
   24.1170   20.7160  -11.0100 C   0  0  0  0  0  0  0  0  0  0  0  0
   23.5750   21.7890  -11.9370 C   0  0  0  0  0  0  0  0  0  0  0  0
   28.8940   23.1650   -4.6690 N   0  0  0  0  0  0  0  0  0  0  0  0
   29.8230   23.1730   -3.6990 C   0  0  0  0  0  0  0  0  0  0  0  0
   30.3340   24.3410   -3.3090 N   0  0  0  0  0  0  0  0  0  0  0  0
   30.3820   21.7530   -2.9150 S   0  0  0  0  0  0  0  0  0  0  0  0
   33.0760   22.8550   -0.2770 N   0  0  0  0  0  0  0  0  0  0  0  0
   34.0180   22.4750    0.5970 C   0  0  1  0  0  0  0  0  0  0  0  0
   33.6100   22.1570    1.9850 C   0  0  0  0  0  0  0  0  0  0  0  0
   34.5060   21.5360    2.8570 C   0  0  0  0  0  0  0  0  0  0  0  0
   31.9770   22.6340    2.5180 Cl  0  0  0  0  0  0  0  0  0  0  0  0
   32.4160   20.8140   -1.0390 O   0  0  0  0  0  0  0  0  0  0  0  0
   27.0620   19.8490   -6.1090 N   0  0  0  0  0  0  0  0  0  0  0  0
   28.6700   20.8180   -4.6480 N   0  0  0  0  0  0  0  0  0  0  0  0
   25.6790   21.1190   -7.5630 N   0  0  0  0  0  0  0  0  0  0  0  0
   24.2630   19.8180   -8.8560 C   0  0  0  0  0  0  0  0  0  0  0  0
   24.3820   22.3380   -9.2210 C   0  0  0  0  0  0  0  0  0  0  0  0
   24.7250   22.3200  -12.6260 O   0  0  0  0  0  0  0  0  0  0  0  0
   52.1600   55.4370  -23.7430 C   0  0  0  0  0  0  0  0  0  0  0  0
   53.4630   55.8610  -24.0440 C   0  0  0  0  0  0  0  0  0  0  0  0
   54.5470   55.2950  -24.9280 C   0  0  0  0  0  0  0  0  0  0  0  0
   51.6430   63.9210  -16.7770 N   0  0  0  0  0  0  0  0  0  0  0  0
   56.9940   52.5830  -28.1580 C   0  0  0  0  0  0  0  0  0  0  0  0
   56.8220   52.1160  -26.8500 C   0  0  0  0  0  0  0  0  0  0  0  0
   55.8350   52.6490  -26.0450 C   0  0  0  0  0  0  0  0  0  0  0  0
   55.6560   52.1570  -24.6660 C   0  0  0  0  0  0  0  0  0  0  0  0
   52.6780   59.1430  -21.0830 C   0  0  0  0  0  0  0  0  0  0  0  0
   52.1610   59.9840  -20.1100 C   0  0  0  0  0  0  0  0  0  0  0  0
   52.9590   61.0020  -19.5710 C   0  0  1  0  0  0  0  0  0  0  0  0
   54.7360   60.2910  -20.9360 C   0  0  0  0  0  0  0  0  0  0  0  0
   56.1310   60.5010  -21.4080 C   0  0  0  0  0  0  0  0  0  0  0  0
   53.0560   63.2400  -18.7200 C   0  0  0  0  0  0  0  0  0  0  0  0
   51.0460   62.0200  -18.3880 C   0  0  0  0  0  0  0  0  0  0  0  0
   51.8160   64.3070  -15.3410 C   0  0  0  0  0  0  0  0  0  0  0  0
   50.6730   63.9420  -14.3880 C   0  0  0  0  0  0  0  0  0  0  0  0
   51.8680   58.1690  -21.5760 N   0  0  0  0  0  0  0  0  0  0  0  0
   52.3010   57.2430  -22.4630 C   0  0  0  0  0  0  0  0  0  0  0  0
   51.4810   56.2260  -22.8290 N   0  0  0  0  0  0  0  0  0  0  0  0
   53.8930   57.3000  -23.1730 S   0  0  0  0  0  0  0  0  0  0  0  0
   54.0950   54.4130  -25.7990 N   0  0  0  0  0  0  0  0  0  0  0  0
   54.9310   53.6870  -26.5790 C   0  0  1  0  0  0  0  0  0  0  0  0
   55.2050   54.1300  -27.9230 C   0  0  0  0  0  0  0  0  0  0  0  0
   56.2170   53.5920  -28.6930 C   0  0  0  0  0  0  0  0  0  0  0  0
   54.1490   55.4160  -28.5090 Cl  0  0  0  0  0  0  0  0  0  0  0  0
   55.7270   55.5940  -24.7980 O   0  0  0  0  0  0  0  0  0  0  0  0
   54.2580   61.1030  -19.9730 N   0  0  0  0  0  0  0  0  0  0  0  0
   53.9690   59.3120  -21.4830 N   0  0  0  0  0  0  0  0  0  0  0  0
   52.5010   61.8880  -18.5560 N   0  0  0  0  0  0  0  0  0  0  0  0
   53.0190   63.8240  -17.3230 C   0  0  0  0  0  0  0  0  0  0  0  0
   50.7880   62.7140  -17.0410 C   0  0  0  0  0  0  0  0  0  0  0  0
   51.1500   62.9410  -13.4740 O   0  0  0  0  0  0  0  0  0  0  0  0
   31.0107   24.6703   -1.4423 H   0  0  0  0  0  0  0  0  0  0  0  0
   32.2508   24.4423   -2.7696 H   0  0  0  0  0  0  0  0  0  0  0  0
   32.1958   22.6221   -2.7923 H   0  0  0  0  0  0  0  0  0  0  0  0
   33.1495   22.0059   -1.7865 H   0  0  0  0  0  0  0  0  0  0  0  0
   35.9273   20.1310    2.6577 H   0  0  0  0  0  0  0  0  0  0  0  0
   36.4172   21.9271    2.9992 H   0  0  0  0  0  0  0  0  0  0  0  0
   37.1360   22.0059    1.1819 H   0  0  0  0  0  0  0  0  0  0  0  0
   36.3026   20.3672    0.7502 H   0  0  0  0  0  0  0  0  0  0  0  0
   35.7410   22.9956    0.5189 H   0  0  0  0  0  0  0  0  0  0  0  0
   36.9186   22.7335   -1.0667 H   0  0  0  0  0  0  0  0  0  0  0  0
   36.0199   21.3123   -1.6987 H   0  0  0  0  0  0  0  0  0  0  0  0
   35.2492   22.9349   -1.6987 H   0  0  0  0  0  0  0  0  0  0  0  0
   29.1044   21.9826   -5.9093 H   0  0  0  0  0  0  0  0  0  0  0  0
   26.5865   22.8754   -5.7032 H   0  0  0  0  0  0  0  0  0  0  0  0
   27.9083   22.5650   -6.9876 H   0  0  0  0  0  0  0  0  0  0  0  0
   27.4274   20.9755   -7.3917 H   0  0  0  0  0  0  0  0  0  0  0  0
   28.7877   19.6547   -5.9343 H   0  0  0  0  0  0  0  0  0  0  0  0
   28.3756   18.3770   -3.5700 H   0  0  0  0  0  0  0  0  0  0  0  0
   27.6387   17.6531   -5.0396 H   0  0  0  0  0  0  0  0  0  0  0  0
   29.3747   18.1145   -5.0396 H   0  0  0  0  0  0  0  0  0  0  0  0
   24.8833   19.2502   -6.8605 H   0  0  0  0  0  0  0  0  0  0  0  0
   23.7025   20.5287   -6.8531 H   0  0  0  0  0  0  0  0  0  0  0  0
   24.2995   22.6358   -7.0686 H   0  0  0  0  0  0  0  0  0  0  0  0
   25.8107   23.2133   -7.8259 H   0  0  0  0  0  0  0  0  0  0  0  0
   25.2094   20.6589  -11.1259 H   0  0  0  0  0  0  0  0  0  0  0  0
   23.6503   19.7558  -11.2750 H   0  0  0  0  0  0  0  0  0  0  0  0
   22.8641   21.3537  -12.6547 H   0  0  0  0  0  0  0  0  0  0  0  0
   23.0339   22.5708  -11.3838 H   0  0  0  0  0  0  0  0  0  0  0  0
   29.3315   23.6184   -5.4838 H   0  0  0  0  0  0  0  0  0  0  0  0
   30.6149   23.0795   -4.4567 H   0  0  0  0  0  0  0  0  0  0  0  0
   29.5863   24.9320   -2.9185 H   0  0  0  0  0  0  0  0  0  0  0  0
   33.5528   23.4808   -0.9417 H   0  0  0  0  0  0  0  0  0  0  0  0
   34.3129   23.5330    0.5370 H   0  0  0  0  0  0  0  0  0  0  0  0
   33.2499   21.1719    1.6535 H   0  0  0  0  0  0  0  0  0  0  0  0
   34.0296   20.5981    3.1785 H   0  0  0  0  0  0  0  0  0  0  0  0
   34.6860   22.3151    3.6124 H   0  0  0  0  0  0  0  0  0  0  0  0
   32.4342   20.4775   -0.1081 H   0  0  0  0  0  0  0  0  0  0  0  0
   26.2105   19.4111   -5.7293 H   0  0  0  0  0  0  0  0  0  0  0  0
   29.6748   20.6833   -4.8300 H   0  0  0  0  0  0  0  0  0  0  0  0
   23.4771   19.0492   -8.8907 H   0  0  0  0  0  0  0  0  0  0  0  0
   25.1877   19.4552   -9.3285 H   0  0  0  0  0  0  0  0  0  0  0  0
   25.1387   22.5996   -9.9753 H   0  0  0  0  0  0  0  0  0  0  0  0
   23.5295   23.0313   -9.1695 H   0  0  0  0  0  0  0  0  0  0  0  0
   25.3931   22.6285  -11.9637 H   0  0  0  0  0  0  0  0  0  0  0  0
   51.5813   55.4245  -24.6784 H   0  0  0  0  0  0  0  0  0  0  0  0
   52.2608   54.4460  -23.2764 H   0  0  0  0  0  0  0  0  0  0  0  0
   53.8492   55.2763  -23.1961 H   0  0  0  0  0  0  0  0  0  0  0  0
   54.7191   54.4882  -24.2004 H   0  0  0  0  0  0  0  0  0  0  0  0
   58.0353   52.9315  -28.2237 H   0  0  0  0  0  0  0  0  0  0  0  0
   56.6758   51.7136  -28.7520 H   0  0  0  0  0  0  0  0  0  0  0  0
   56.6219   51.0368  -26.9232 H   0  0  0  0  0  0  0  0  0  0  0  0
   57.7497   52.4293  -26.3487 H   0  0  0  0  0  0  0  0  0  0  0  0
   55.1281   51.8884  -26.4081 H   0  0  0  0  0  0  0  0  0  0  0  0
   55.9430   52.9458  -23.9551 H   0  0  0  0  0  0  0  0  0  0  0  0
   54.6017   51.8862  -24.5073 H   0  0  0  0  0  0  0  0  0  0  0  0
   56.2898   51.2721  -24.5073 H   0  0  0  0  0  0  0  0  0  0  0  0
   53.0300   58.4544  -20.3008 H   0  0  0  0  0  0  0  0  0  0  0  0
   51.2769   60.4708  -20.5475 H   0  0  0  0  0  0  0  0  0  0  0  0
   51.9952   59.3118  -19.2552 H   0  0  0  0  0  0  0  0  0  0  0  0
   53.2638   60.3308  -18.7546 H   0  0  0  0  0  0  0  0  0  0  0  0
   55.1010   59.5941  -20.1672 H   0  0  0  0  0  0  0  0  0  0  0  0
   56.8002   60.6017  -20.5408 H   0  0  0  0  0  0  0  0  0  0  0  0
   56.4458   59.6401  -22.0161 H   0  0  0  0  0  0  0  0  0  0  0  0
   56.1785   61.4164  -22.0161 H   0  0  0  0  0  0  0  0  0  0  0  0
   54.0881   63.1957  -19.0979 H   0  0  0  0  0  0  0  0  0  0  0  0
   52.4918   63.8438  -19.4460 H   0  0  0  0  0  0  0  0  0  0  0  0
   50.6285   62.6250  -19.2063 H   0  0  0  0  0  0  0  0  0  0  0  0
   50.5662   61.0303  -18.4077 H   0  0  0  0  0  0  0  0  0  0  0  0
   52.7281   63.8156  -14.9713 H   0  0  0  0  0  0  0  0  0  0  0  0
   51.8537   65.4064  -15.3396 H   0  0  0  0  0  0  0  0  0  0  0  0
   50.3551   64.8346  -13.8293 H   0  0  0  0  0  0  0  0  0  0  0  0
   49.8136   63.5573  -14.9567 H   0  0  0  0  0  0  0  0  0  0  0  0
   51.5227   57.6439  -20.7599 H   0  0  0  0  0  0  0  0  0  0  0  0
   52.6896   56.6317  -21.6352 H   0  0  0  0  0  0  0  0  0  0  0  0
   50.6260   56.6045  -23.2610 H   0  0  0  0  0  0  0  0  0  0  0  0
   53.5389   53.7336  -25.2605 H   0  0  0  0  0  0  0  0  0  0  0  0
   54.0546   53.0227  -26.6035 H   0  0  0  0  0  0  0  0  0  0  0  0
   55.9036   54.8844  -27.5319 H   0  0  0  0  0  0  0  0  0  0  0  0
   56.8951   54.4166  -28.9581 H   0  0  0  0  0  0  0  0  0  0  0  0
   55.6884   53.1076  -29.5272 H   0  0  0  0  0  0  0  0  0  0  0  0
   55.9490   55.6503  -23.8349 H   0  0  0  0  0  0  0  0  0  0  0  0
   54.3904   62.0683  -20.3069 H   0  0  0  0  0  0  0  0  0  0  0  0
   54.4534   58.4212  -21.3020 H   0  0  0  0  0  0  0  0  0  0  0  0
   53.4576   64.8324  -17.3518 H   0  0  0  0  0  0  0  0  0  0  0  0
   53.5890   63.1498  -16.6669 H   0  0  0  0  0  0  0  0  0  0  0  0
   50.9716   61.9833  -16.2395 H   0  0  0  0  0  0  0  0  0  0  0  0
   49.7488   63.0732  -17.0732 H   0  0  0  0  0  0  0  0  0  0  0  0
   51.0042   63.2471  -12.5439 H   0  0  0  0  0  0  0  0  0  0  0  0
  1  2  1  0
  2  3  1  0
  5  6  1  0
  6  7  1  0
  7  8  1  0
  9 10  1  0
 10 11  1  0
 12 13  1  0
  4 16  1  0
 16 17  1  0
  9 18  1  0
 18 19  1  0
  1 20  1  0
 19 20  1  0
  2 21  1  0
 19 21  1  0
  3 22  1  0
  7 23  1  0
 22 23  1  0
 23 24  1  0
  5 25  1  0
 24 25  1  0
 24 26  1  0
  3 27  1  0
 11 28  1  0
 12 28  1  0
  9 29  1  0
 12 29  1  0
 11 30  1  0
 14 30  1  0
 15 30  1  0
  4 31  1  0
 14 31  1  0
  4 32  1  0
 15 32  1  0
 17 33  1  0
 34 35  1  0
 35 36  1  0
 38 39  1  0
 39 40  1  0
 40 41  1  0
 42 43  1  0
 43 44  1  0
 45 46  1  0
 37 49  1  0
 49 50  1  0
 42 51  1  0
 51 52  1  0
 34 53  1  0
 52 53  1  0
 35 54  1  0
 52 54  1  0
 36 55  1  0
 40 56  1  0
 55 56  1  0
 56 57  1  0
 38 58  1  0
 57 58  1  0
 57 59  1  0
 36 60  1  0
 44 61  1  0
 45 61  1  0
 42 62  1  0
 45 62  1  0
 44 63  1  0
 47 63  1  0
 48 63  1  0
 37 64  1  0
 47 64  1  0
 37 65  1  0
 48 65  1  0
 50 66  1  0
  1 67  1  0
  1 68  1  0
  2 69  1  0
  3 70  1  1
  5 71  1  0
  5 72  1  0
  6 73  1  0
  6 74  1  0
  7 75  1  6
  8 76  1  0
  8 77  1  0
  8 78  1  0
  9 79  1  0
 10 80  1  0
 10 81  1  0
 11 82  1  0
 12 83  1  0
 13 84  1  0
 13 85  1  0
 13 86  1  0
 14 87  1  0
 14 88  1  0
 15 89  1  0
 15 90  1  0
 16 91  1  0
 16 92  1  0
 17 93  1  0
 17 94  1  0
 18 95  1  0
 19 96  1  0
 20 97  1  0
 22 98  1  0
 23 99  1  1
 24100  1  0
 25101  1  0
 25102  1  0
 27103  1  0
 28104  1  0
 29105  1  0
 31106  1  0
 31107  1  0
 32108  1  0
 32109  1  0
 33110  1  0
 34111  1  0
 34112  1  0
 35113  1  0
 36114  1  0
 38115  1  0
 38116  1  0
 39117  1  0
 39118  1  0
 40119  1  0
 41120  1  0
 41121  1  0
 41122  1  0
 42123  1  0
 43124  1  0
 43125  1  0
 44126  1  6
 45127  1  0
 46128  1  0
 46129  1  0
 46130  1  0
 47131  1  0
 47132  1  0
 48133  1  0
 48134  1  0
 49135  1  0
 49136  1  0
 50137  1  0
 50138  1  0
 51139  1  0
 52140  1  0
 53141  1  0
 55142  1  0
 56143  1  6
 57144  1  0
 58145  1  0
 58146  1  0
 60147  1  0
 61148  1  0
 62149  1  0
 64150  1  0
 64151  1  0
 65152  1  0
 65153  1  0
 66154  1  0
M  END
>  <PDBID>  (1) 
4XLI

>  <PDB ID>  (1) 
4XLI

>  <Generic Name>  (1) 
Dasatinib

>  <Brand Name>  (1) 
Sprycel

>  <DrugBank ID>  (1) 
DB01254

>  <ATC Codes>  (1) 
L01XE06

>  <Ligand ID>  (1) 
1N1

>  <Target Name>  (1) 
Tyrosine-protein kinase ABL1

>  <UniProt ID>  (1) 
P00519

>  <PDB ID.1>  (1) 
4XLI

>  <Seq. Identity>  (1) 
88%

$$$$
