PDB_DB00755_98
     RDKit          3D

124124  0  0  0  0  0  0  0  0999 V2000
   85.0760   60.0410   32.4650 C   0  0  2  0  0  0  0  0  0  0  0  0
   84.4570   61.3230   31.9650 C   0  0  0  0  0  0  0  0  0  0  0  0
   84.4000   62.3540   33.0680 C   0  0  0  0  0  0  0  0  0  0  0  0
   83.4520   61.8650   34.1340 C   0  0  0  0  0  0  0  0  0  0  0  0
   83.9180   60.5400   34.6140 C   0  0  0  0  0  0  0  0  0  0  0  0
   84.6520   59.7210   33.8540 C   0  0  0  0  0  0  0  0  0  0  0  0
   85.0870   58.4560   34.3620 C   0  0  0  0  0  0  0  0  0  0  0  0
   85.7620   58.3500   35.5100 C   0  0  0  0  0  0  0  0  0  0  0  0
   86.1950   57.0780   35.9980 C   0  0  0  0  0  0  0  0  0  0  0  0
   86.9300   56.8990   37.1000 C   0  0  0  0  0  0  0  0  0  0  0  0
   87.4250   57.8920   38.0070 C   0  0  0  0  0  0  0  0  0  0  0  0
   88.0450   57.4520   39.1080 C   0  0  0  0  0  0  0  0  0  0  0  0
   88.6170   58.2490   40.1570 C   0  0  0  0  0  0  0  0  0  0  0  0
   88.9650   57.6430   41.3000 C   0  0  0  0  0  0  0  0  0  0  0  0
   89.5550   58.5090   42.3950 C   0  0  0  0  0  0  0  0  0  0  0  0
   86.5750   60.1710   32.4300 C   0  0  0  0  0  0  0  0  0  0  0  0
   84.6480   58.9270   31.5500 C   0  0  0  0  0  0  0  0  0  0  0  0
   83.5300   60.1600   35.9960 C   0  0  0  0  0  0  0  0  0  0  0  0
   85.7820   55.9050   35.1980 C   0  0  0  0  0  0  0  0  0  0  0  0
   88.7880   59.6980   39.8870 C   0  0  0  0  0  0  0  0  0  0  0  0
   89.5470   57.9770   43.5450 O   0  0  0  0  0  0  0  0  0  0  0  0
   89.9790   59.6440   42.0480 O   0  0  0  0  0  0  0  0  0  0  0  0
   83.9310   59.5170   14.1260 C   0  0  2  0  0  0  0  0  0  0  0  0
   84.9700   60.4970   14.6050 C   0  0  0  0  0  0  0  0  0  0  0  0
   85.2130   61.4710   13.4810 C   0  0  0  0  0  0  0  0  0  0  0  0
   85.9720   60.7540   12.3930 C   0  0  0  0  0  0  0  0  0  0  0  0
   85.2260   59.5370   11.9980 C   0  0  0  0  0  0  0  0  0  0  0  0
   84.2970   58.9830   12.7830 C   0  0  0  0  0  0  0  0  0  0  0  0
   83.5930   57.8070   12.3650 C   0  0  0  0  0  0  0  0  0  0  0  0
   82.9100   57.7240   11.2180 C   0  0  0  0  0  0  0  0  0  0  0  0
   82.2380   56.5070   10.8880 C   0  0  0  0  0  0  0  0  0  0  0  0
   81.4100   56.3890    9.8470 C   0  0  0  0  0  0  0  0  0  0  0  0
   81.0950   57.4390    8.9140 C   0  0  0  0  0  0  0  0  0  0  0  0
   80.2960   57.1960    7.8700 C   0  0  0  0  0  0  0  0  0  0  0  0
   79.9400   58.1610    6.8650 C   0  0  0  0  0  0  0  0  0  0  0  0
   79.3300   57.7550    5.7460 C   0  0  0  0  0  0  0  0  0  0  0  0
   79.0100   58.8200    4.7180 C   0  0  0  0  0  0  0  0  0  0  0  0
   82.6040   60.2320   14.0720 C   0  0  0  0  0  0  0  0  0  0  0  0
   83.8330   58.3690   15.0960 C   0  0  0  0  0  0  0  0  0  0  0  0
   85.5560   58.9680   10.6680 C   0  0  0  0  0  0  0  0  0  0  0  0
   82.5080   55.3670   11.8020 C   0  0  0  0  0  0  0  0  0  0  0  0
   80.3060   59.5720    7.1340 C   0  0  0  0  0  0  0  0  0  0  0  0
   78.9530   58.3800    3.5340 O   0  0  0  0  0  0  0  0  0  0  0  0
   78.8490   60.0000    5.1260 O   0  0  0  0  0  0  0  0  0  0  0  0
   85.0616   61.7159   31.1343 H   0  0  0  0  0  0  0  0  0  0  0  0
   83.4324   61.1119   31.6248 H   0  0  0  0  0  0  0  0  0  0  0  0
   85.4028   62.4920   33.4986 H   0  0  0  0  0  0  0  0  0  0  0  0
   84.0498   63.3161   32.6658 H   0  0  0  0  0  0  0  0  0  0  0  0
   83.4373   62.5779   34.9716 H   0  0  0  0  0  0  0  0  0  0  0  0
   82.4363   61.7779   33.7209 H   0  0  0  0  0  0  0  0  0  0  0  0
   82.9990   60.0763   34.2262 H   0  0  0  0  0  0  0  0  0  0  0  0
   85.5710   60.1851   34.2414 H   0  0  0  0  0  0  0  0  0  0  0  0
   84.1812   57.8429   34.4792 H   0  0  0  0  0  0  0  0  0  0  0  0
   85.8421   58.1558   33.6206 H   0  0  0  0  0  0  0  0  0  0  0  0
   86.6666   58.9658   35.3982 H   0  0  0  0  0  0  0  0  0  0  0  0
   85.0139   58.6524   36.2576 H   0  0  0  0  0  0  0  0  0  0  0  0
   87.1137   57.1608   35.3987 H   0  0  0  0  0  0  0  0  0  0  0  0
   86.3286   56.2252   37.7279 H   0  0  0  0  0  0  0  0  0  0  0  0
   87.8816   56.6276   36.6195 H   0  0  0  0  0  0  0  0  0  0  0  0
   88.1375   58.5215   37.4537 H   0  0  0  0  0  0  0  0  0  0  0  0
   86.5303   58.4172   38.3727 H   0  0  0  0  0  0  0  0  0  0  0  0
   87.3068   56.8100   39.6109 H   0  0  0  0  0  0  0  0  0  0  0  0
   88.9708   57.0746   38.6493 H   0  0  0  0  0  0  0  0  0  0  0  0
   87.6118   58.4367   40.5625 H   0  0  0  0  0  0  0  0  0  0  0  0
   88.0627   57.1640   41.7079 H   0  0  0  0  0  0  0  0  0  0  0  0
   89.7746   56.9535   41.0186 H   0  0  0  0  0  0  0  0  0  0  0  0
   88.5621   58.9413   42.5881 H   0  0  0  0  0  0  0  0  0  0  0  0
   86.9642   60.2048   33.4583 H   0  0  0  0  0  0  0  0  0  0  0  0
   87.0058   59.3068   31.9031 H   0  0  0  0  0  0  0  0  0  0  0  0
   86.8506   61.0964   31.9031 H   0  0  0  0  0  0  0  0  0  0  0  0
   84.3173   58.0663   32.1499 H   0  0  0  0  0  0  0  0  0  0  0  0
   83.8184   59.2720   30.9154 H   0  0  0  0  0  0  0  0  0  0  0  0
   85.4952   58.6278   30.9154 H   0  0  0  0  0  0  0  0  0  0  0  0
   84.1238   60.7415   36.7166 H   0  0  0  0  0  0  0  0  0  0  0  0
   82.4610   60.3701   36.1476 H   0  0  0  0  0  0  0  0  0  0  0  0
   83.7178   59.0868   36.1476 H   0  0  0  0  0  0  0  0  0  0  0  0
   85.4932   55.0849   35.8718 H   0  0  0  0  0  0  0  0  0  0  0  0
   84.9256   56.1770   34.5635 H   0  0  0  0  0  0  0  0  0  0  0  0
   86.6199   55.5805   34.5635 H   0  0  0  0  0  0  0  0  0  0  0  0
   88.8524   60.2435   40.8401 H   0  0  0  0  0  0  0  0  0  0  0  0
   89.7112   59.8571   39.3104 H   0  0  0  0  0  0  0  0  0  0  0  0
   87.9272   60.0676   39.3104 H   0  0  0  0  0  0  0  0  0  0  0  0
   89.5577   58.6855   44.2364 H   0  0  0  0  0  0  0  0  0  0  0  0
   90.1799   60.1819   42.8545 H   0  0  0  0  0  0  0  0  0  0  0  0
   84.6034   61.0309   15.4941 H   0  0  0  0  0  0  0  0  0  0  0  0
   85.8998   59.9779   14.8807 H   0  0  0  0  0  0  0  0  0  0  0  0
   84.2517   61.8334   13.0878 H   0  0  0  0  0  0  0  0  0  0  0  0
   85.7918   62.3333   13.8435 H   0  0  0  0  0  0  0  0  0  0  0  0
   86.0810   61.4173   11.5223 H   0  0  0  0  0  0  0  0  0  0  0  0
   86.9689   60.4721   12.7627 H   0  0  0  0  0  0  0  0  0  0  0  0
   85.9978   58.9109   12.4695 H   0  0  0  0  0  0  0  0  0  0  0  0
   83.5273   59.6184   12.3206 H   0  0  0  0  0  0  0  0  0  0  0  0
   84.3445   57.0047   12.3261 H   0  0  0  0  0  0  0  0  0  0  0  0
   82.7781   57.7711   13.1030 H   0  0  0  0  0  0  0  0  0  0  0  0
   82.1463   58.5153   11.2419 H   0  0  0  0  0  0  0  0  0  0  0  0
   83.6889   57.8077   10.4458 H   0  0  0  0  0  0  0  0  0  0  0  0
   81.3924   56.8006   11.5273 H   0  0  0  0  0  0  0  0  0  0  0  0
   81.8211   55.5705    9.2379 H   0  0  0  0  0  0  0  0  0  0  0  0
   80.4474   56.2975   10.3715 H   0  0  0  0  0  0  0  0  0  0  0  0
   80.6217   58.2453    9.4935 H   0  0  0  0  0  0  0  0  0  0  0  0
   82.0651   57.6526    8.4416 H   0  0  0  0  0  0  0  0  0  0  0  0
   80.7685   56.3652    7.3254 H   0  0  0  0  0  0  0  0  0  0  0  0
   79.3299   57.0751    8.3819 H   0  0  0  0  0  0  0  0  0  0  0  0
   80.9185   58.0198    6.3828 H   0  0  0  0  0  0  0  0  0  0  0  0
   79.9810   57.0113    5.2632 H   0  0  0  0  0  0  0  0  0  0  0  0
   78.3536   57.3690    6.0742 H   0  0  0  0  0  0  0  0  0  0  0  0
   80.0841   59.0208    4.5917 H   0  0  0  0  0  0  0  0  0  0  0  0
   82.2487   60.4234   15.0953 H   0  0  0  0  0  0  0  0  0  0  0  0
   82.7238   61.1877   13.5407 H   0  0  0  0  0  0  0  0  0  0  0  0
   81.8717   59.6063   13.5407 H   0  0  0  0  0  0  0  0  0  0  0  0
   83.8660   58.7550   16.1255 H   0  0  0  0  0  0  0  0  0  0  0  0
   82.8858   57.8332   14.9355 H   0  0  0  0  0  0  0  0  0  0  0  0
   84.6756   57.6804   14.9355 H   0  0  0  0  0  0  0  0  0  0  0  0
   86.1039   58.0232   10.7991 H   0  0  0  0  0  0  0  0  0  0  0  0
   84.6274   58.7789   10.1095 H   0  0  0  0  0  0  0  0  0  0  0  0
   86.1813   59.6801   10.1095 H   0  0  0  0  0  0  0  0  0  0  0  0
   82.4276   55.7065   12.8452 H   0  0  0  0  0  0  0  0  0  0  0  0
   81.7742   54.5683   11.6187 H   0  0  0  0  0  0  0  0  0  0  0  0
   83.5221   54.9823   11.6187 H   0  0  0  0  0  0  0  0  0  0  0  0
   80.3493   59.7388    8.2204 H   0  0  0  0  0  0  0  0  0  0  0  0
   81.2895   59.7866    6.6906 H   0  0  0  0  0  0  0  0  0  0  0  0
   79.5508   60.2376    6.6906 H   0  0  0  0  0  0  0  0  0  0  0  0
   78.8258   57.3984    3.5525 H   0  0  0  0  0  0  0  0  0  0  0  0
   78.8477   60.0096    6.1160 H   0  0  0  0  0  0  0  0  0  0  0  0
  1  2  1  0
  2  3  1  0
  3  4  1  0
  4  5  1  0
  1  6  1  0
  5  6  1  0
  6  7  1  0
  7  8  1  0
  8  9  1  0
  9 10  1  0
 10 11  1  0
 11 12  1  0
 12 13  1  0
 13 14  1  0
 14 15  1  0
  1 16  1  1
  1 17  1  0
  5 18  1  0
  9 19  1  0
 13 20  1  0
 15 21  1  0
 15 22  1  0
 23 24  1  0
 24 25  1  0
 25 26  1  0
 26 27  1  0
 23 28  1  0
 27 28  1  0
 28 29  1  0
 29 30  1  0
 30 31  1  0
 31 32  1  0
 32 33  1  0
 33 34  1  0
 34 35  1  0
 35 36  1  0
 36 37  1  0
 23 38  1  6
 23 39  1  0
 27 40  1  0
 31 41  1  0
 35 42  1  0
 37 43  1  0
 37 44  1  0
  2 45  1  0
  2 46  1  0
  3 47  1  0
  3 48  1  0
  4 49  1  0
  4 50  1  0
  5 51  1  0
  6 52  1  0
  7 53  1  0
  7 54  1  0
  8 55  1  0
  8 56  1  0
  9 57  1  0
 10 58  1  0
 10 59  1  0
 11 60  1  0
 11 61  1  0
 12 62  1  0
 12 63  1  0
 13 64  1  0
 14 65  1  0
 14 66  1  0
 15 67  1  0
 16 68  1  0
 16 69  1  0
 16 70  1  0
 17 71  1  0
 17 72  1  0
 17 73  1  0
 18 74  1  0
 18 75  1  0
 18 76  1  0
 19 77  1  0
 19 78  1  0
 19 79  1  0
 20 80  1  0
 20 81  1  0
 20 82  1  0
 21 83  1  0
 22 84  1  0
 24 85  1  0
 24 86  1  0
 25 87  1  0
 25 88  1  0
 26 89  1  0
 26 90  1  0
 27 91  1  0
 28 92  1  0
 29 93  1  0
 29 94  1  0
 30 95  1  0
 30 96  1  0
 31 97  1  0
 32 98  1  0
 32 99  1  0
 33100  1  0
 33101  1  0
 34102  1  0
 34103  1  0
 35104  1  0
 36105  1  0
 36106  1  0
 37107  1  0
 38108  1  0
 38109  1  0
 38110  1  0
 39111  1  0
 39112  1  0
 39113  1  0
 40114  1  0
 40115  1  0
 40116  1  0
 41117  1  0
 41118  1  0
 41119  1  0
 42120  1  0
 42121  1  0
 42122  1  0
 43123  1  0
 44124  1  0
M  END
>  <PDBID>  (1) 
3FAL

>  <PDB ID>  (1) 
3FAL

>  <Generic Name>  (1) 
Tretinoin

>  <Brand Name>  (1) 
Atralin#Avita#Biacna Topical Gel#Clindamycin Phosphate and Tretinoin#Dr. Throwers Hydrotet#Dr. Throwers Pbc No. 1#Obagi#Refissa#Rejuva-A#Renova#Retin-A#Retin-A Micro#Retisol-A#Solagé#Stie Vaa Sol 0.05%#Stieva-A Cream#Stieva-A Gel#Stieva-A Solution#Stievaa Gel 0.01%#Stievamycin Forte#Stievamycin Mild#Stievamycin Regular#Tretin.x#Tretinoin#Tretinoin Cream#Tretinoin Gel#Tretinoin Gel Microsphere#Tretinx#Tri-luma#Veltin#Vesanoid#Vitamin A Acid 0.01% Cream#Vitamin A Acid 0.01% Gel#Vitamin A Acid 0.025% Cream#Vitamin A Acid 0.025% Gel#Vitamin A Acid 0.05% Cream#Vitamin A Acid 0.05% Gel#Vitamin A Acid 0.1% Cream#Vitinoin - Crm 0.025%#Vitinoin - Crm 0.05%#Vitinoin - Crm 0.1%#Vitinoin Gel - 0.025%#Ziana#Aberel#Aberela#Airol#Dermairol#Eudyna#Kétrel#Retisol-A#Sotret#Stieva-A#Vitinoin

>  <DrugBank ID>  (1) 
DB00755

>  <ATC Codes>  (1) 
L01XX14#D10AD01#D10AD51

>  <Ligand ID>  (1) 
3KV,REA

>  <Target Name>  (1) 
Retinoic acid receptor RXR-beta

>  <UniProt ID>  (1) 
P28702

>  <PDB ID.1>  (1) 
3FAL

>  <Seq. Identity>  (1) 
87%

$$$$
