PDB_DB01026_99
     RDKit          3D

164172  0  0  0  0  0  0  0  0999 V2000
   39.1250    3.9020   -3.7730 C   0  0  0  0  0  0  0  0  0  0  0  0
   40.3120    3.7010   -3.1550 N   0  0  0  0  0  0  0  0  0  0  0  0
   40.9400    6.6610   -1.2370 O   0  0  0  0  0  0  0  0  0  0  0  0
   42.6240    7.5830   -7.6390 Cl  0  0  0  0  0  0  0  0  0  0  0  0
   40.1650    2.4230   -4.8900 C   0  0  0  0  0  0  0  0  0  0  0  0
   39.0450    3.1430   -4.8150 N   0  0  0  0  0  0  0  0  0  0  0  0
   42.8010    5.3500   -1.3640 O   0  0  0  0  0  0  0  0  0  0  0  0
   43.8620    4.1810   -3.6170 Cl  0  0  0  0  0  0  0  0  0  0  0  0
   40.9680    2.7420   -3.8540 C   0  0  0  0  0  0  0  0  0  0  0  0
   43.4570    4.1770    6.8610 N   0  0  0  0  0  0  0  0  0  0  0  0
   41.9600    5.3380    1.5750 O   0  0  0  0  0  0  0  0  0  0  0  0
   40.7570    4.3390   -1.9180 C   0  0  0  0  0  0  0  0  0  0  0  0
   43.9790    3.6750    9.4900 N   0  0  0  0  0  0  0  0  0  0  0  0
   42.9170    3.5650   11.4480 O   0  0  0  0  0  0  0  0  0  0  0  0
   41.5630    5.6290   -2.0010 C   0  0  1  0  0  0  0  0  0  0  0  0
   41.7300    6.9820   -0.1050 C   0  0  2  0  0  0  0  0  0  0  0  0
   43.0510    6.2770   -0.3100 C   0  0  0  0  0  0  0  0  0  0  0  0
   41.8210    6.1010   -3.3970 C   0  0  0  0  0  0  0  0  0  0  0  0
   42.8210    5.5300   -4.1840 C   0  0  0  0  0  0  0  0  0  0  0  0
   43.0470    5.9830   -5.4770 C   0  0  0  0  0  0  0  0  0  0  0  0
   42.2880    7.0250   -5.9730 C   0  0  0  0  0  0  0  0  0  0  0  0
   41.2880    7.6050   -5.1970 C   0  0  0  0  0  0  0  0  0  0  0  0
   41.0530    7.1410   -3.9060 C   0  0  0  0  0  0  0  0  0  0  0  0
   41.0860    6.3570    1.1130 C   0  0  0  0  0  0  0  0  0  0  0  0
   42.2920    5.0940    2.8870 C   0  0  1  0  0  0  0  0  0  0  0  0
   43.6350    4.9780    3.2230 C   0  0  0  0  0  0  0  0  0  0  0  0
   44.0130    4.6860    4.5320 C   0  0  0  0  0  0  0  0  0  0  0  0
   43.0550    4.5160    5.5330 C   0  0  1  0  0  0  0  0  0  0  0  0
   41.7050    4.6020    5.1750 C   0  0  0  0  0  0  0  0  0  0  0  0
   41.3230    4.9000    3.8650 C   0  0  0  0  0  0  0  0  0  0  0  0
   44.4720    5.0130    7.5300 C   0  0  0  0  0  0  0  0  0  0  0  0
   45.0890    4.1620    8.6540 C   0  0  0  0  0  0  0  0  0  0  0  0
   42.9310    2.9140    8.8080 C   0  0  0  0  0  0  0  0  0  0  0  0
   42.3480    3.8950    7.7940 C   0  0  0  0  0  0  0  0  0  0  0  0
   43.8670    3.9620   10.7920 C   0  0  0  0  0  0  0  0  0  0  0  0
   44.9670    4.7700   11.4300 C   0  0  0  0  0  0  0  0  0  0  0  0
   45.7910  -21.0070   45.9100 C   0  0  0  0  0  0  0  0  0  0  0  0
   46.5770  -20.1480   45.2400 N   0  0  0  0  0  0  0  0  0  0  0  0
   48.7410  -22.1670   43.3160 O   0  0  0  0  0  0  0  0  0  0  0  0
   50.4830  -22.0590   49.8960 Cl  0  0  0  0  0  0  0  0  0  0  0  0
   45.7460  -19.1310   46.9530 C   0  0  0  0  0  0  0  0  0  0  0  0
   45.3020  -20.3950   46.9410 N   0  0  0  0  0  0  0  0  0  0  0  0
   49.5900  -20.0610   43.5850 O   0  0  0  0  0  0  0  0  0  0  0  0
   49.6090  -18.5190   45.9560 Cl  0  0  0  0  0  0  0  0  0  0  0  0
   46.5440  -18.9480   45.8880 C   0  0  0  0  0  0  0  0  0  0  0  0
   49.8610  -18.5410   35.4400 N   0  0  0  0  0  0  0  0  0  0  0  0
   48.9140  -20.4020   40.6180 O   0  0  0  0  0  0  0  0  0  0  0  0
   47.2850  -20.4480   44.0060 C   0  0  0  0  0  0  0  0  0  0  0  0
   50.2470  -18.1730   32.7340 N   0  0  0  0  0  0  0  0  0  0  0  0
   49.3140  -18.2500   30.7100 O   0  0  0  0  0  0  0  0  0  0  0  0
   48.6920  -21.0090   44.1540 C   0  0  1  0  0  0  0  0  0  0  0  0
   49.7280  -21.9760   42.3010 C   0  0  2  0  0  0  0  0  0  0  0  0
   50.4680  -20.7050   42.6680 C   0  0  0  0  0  0  0  0  0  0  0  0
   49.1270  -21.2870   45.5790 C   0  0  0  0  0  0  0  0  0  0  0  0
   49.5490  -20.2510   46.4290 C   0  0  0  0  0  0  0  0  0  0  0  0
   49.9500  -20.5170   47.7290 C   0  0  0  0  0  0  0  0  0  0  0  0
   49.9540  -21.8140   48.2030 C   0  0  0  0  0  0  0  0  0  0  0  0
   49.5510  -22.8660   47.3790 C   0  0  0  0  0  0  0  0  0  0  0  0
   49.1380  -22.5990   46.0710 C   0  0  0  0  0  0  0  0  0  0  0  0
   49.0640  -21.7790   40.9460 C   0  0  0  0  0  0  0  0  0  0  0  0
   49.1380  -19.9630   39.3420 C   0  0  0  0  0  0  0  0  0  0  0  0
   50.3030  -19.2550   39.0510 C   0  0  0  0  0  0  0  0  0  0  0  0
   50.5280  -18.7980   37.7570 C   0  0  0  0  0  0  0  0  0  0  0  0
   49.6050  -19.0490   36.7420 C   0  0  0  0  0  0  0  0  0  0  0  0
   48.4360  -19.7470   37.0450 C   0  0  0  0  0  0  0  0  0  0  0  0
   48.2060  -20.2060   38.3370 C   0  0  0  0  0  0  0  0  0  0  0  0
   51.0960  -19.0610   34.8230 C   0  0  0  0  0  0  0  0  0  0  0  0
   51.4400  -18.2110   33.5990 C   0  0  0  0  0  0  0  0  0  0  0  0
   49.0030  -17.7050   33.3590 C   0  0  0  0  0  0  0  0  0  0  0  0
   48.7260  -18.6670   34.5070 C   0  0  0  0  0  0  0  0  0  0  0  0
   50.3070  -18.3490   31.4080 C   0  0  1  0  0  0  0  0  0  0  0  0
   51.6260  -18.7560   30.8160 C   0  0  0  0  0  0  0  0  0  0  0  0
   38.3058    3.6599   -3.0800 H   0  0  0  0  0  0  0  0  0  0  0  0
   39.0474    4.9551   -4.0813 H   0  0  0  0  0  0  0  0  0  0  0  0
   39.9174    1.3521   -4.8473 H   0  0  0  0  0  0  0  0  0  0  0  0
   40.6806    2.6395   -5.8373 H   0  0  0  0  0  0  0  0  0  0  0  0
   38.2322    2.5163   -4.7289 H   0  0  0  0  0  0  0  0  0  0  0  0
   41.9307    3.1274   -4.2210 H   0  0  0  0  0  0  0  0  0  0  0  0
   41.1859    1.8644   -3.2276 H   0  0  0  0  0  0  0  0  0  0  0  0
   39.8560    4.5593   -1.3267 H   0  0  0  0  0  0  0  0  0  0  0  0
   41.4629    3.6141   -1.4864 H   0  0  0  0  0  0  0  0  0  0  0  0
   43.1230    3.6511   12.4125 H   0  0  0  0  0  0  0  0  0  0  0  0
   41.8372    8.0694    0.0221 H   0  0  0  0  0  0  0  0  0  0  0  0
   43.3572    5.7508    0.6062 H   0  0  0  0  0  0  0  0  0  0  0  0
   43.8651    6.9760   -0.5520 H   0  0  0  0  0  0  0  0  0  0  0  0
   42.5427    6.8378   -3.0145 H   0  0  0  0  0  0  0  0  0  0  0  0
   42.0953    4.8039   -4.5792 H   0  0  0  0  0  0  0  0  0  0  0  0
   44.0988    6.3013   -5.5257 H   0  0  0  0  0  0  0  0  0  0  0  0
   42.7564    5.1284   -6.1057 H   0  0  0  0  0  0  0  0  0  0  0  0
   41.5535    6.3046   -6.3624 H   0  0  0  0  0  0  0  0  0  0  0  0
   41.5325    8.6740   -5.1108 H   0  0  0  0  0  0  0  0  0  0  0  0
   40.3651    7.3396   -5.7335 H   0  0  0  0  0  0  0  0  0  0  0  0
   40.0047    6.8093   -3.8723 H   0  0  0  0  0  0  0  0  0  0  0  0
   41.3293    7.9967   -3.2724 H   0  0  0  0  0  0  0  0  0  0  0  0
   40.1115    5.9238    0.8433 H   0  0  0  0  0  0  0  0  0  0  0  0
   40.9182    7.1114    1.8958 H   0  0  0  0  0  0  0  0  0  0  0  0
   42.2460    4.0115    2.6973 H   0  0  0  0  0  0  0  0  0  0  0  0
   44.0508    4.1807    2.5894 H   0  0  0  0  0  0  0  0  0  0  0  0
   44.0161    5.9995    3.0771 H   0  0  0  0  0  0  0  0  0  0  0  0
   44.5917    3.7514    4.4900 H   0  0  0  0  0  0  0  0  0  0  0  0
   44.5326    5.6034    4.8457 H   0  0  0  0  0  0  0  0  0  0  0  0
   43.1275    5.5846    5.7838 H   0  0  0  0  0  0  0  0  0  0  0  0
   41.2552    3.6279    5.4174 H   0  0  0  0  0  0  0  0  0  0  0  0
   41.3644    5.4872    5.7321 H   0  0  0  0  0  0  0  0  0  0  0  0
   40.7273    5.8236    3.9099 H   0  0  0  0  0  0  0  0  0  0  0  0
   40.8102    3.9842    3.5358 H   0  0  0  0  0  0  0  0  0  0  0  0
   45.2498    5.3100    6.8111 H   0  0  0  0  0  0  0  0  0  0  0  0
   44.0189    5.9294    7.9362 H   0  0  0  0  0  0  0  0  0  0  0  0
   45.7748    4.7747    9.2575 H   0  0  0  0  0  0  0  0  0  0  0  0
   45.6625    3.3209    8.2373 H   0  0  0  0  0  0  0  0  0  0  0  0
   43.3558    2.0357    8.3000 H   0  0  0  0  0  0  0  0  0  0  0  0
   42.1711    2.5299    9.5045 H   0  0  0  0  0  0  0  0  0  0  0  0
   42.0177    4.8178    8.2934 H   0  0  0  0  0  0  0  0  0  0  0  0
   41.4665    3.4851    7.2793 H   0  0  0  0  0  0  0  0  0  0  0  0
   43.3117    4.8781   10.5423 H   0  0  0  0  0  0  0  0  0  0  0  0
   44.8808    4.7067   12.5248 H   0  0  0  0  0  0  0  0  0  0  0  0
   45.9434    4.3728   11.1155 H   0  0  0  0  0  0  0  0  0  0  0  0
   44.8800    5.8205   11.1155 H   0  0  0  0  0  0  0  0  0  0  0  0
   44.9733  -21.3481   45.2581 H   0  0  0  0  0  0  0  0  0  0  0  0
   46.3754  -21.8816   46.2318 H   0  0  0  0  0  0  0  0  0  0  0  0
   44.8933  -18.4380   46.9009 H   0  0  0  0  0  0  0  0  0  0  0  0
   46.3055  -18.9375   47.8801 H   0  0  0  0  0  0  0  0  0  0  0  0
   44.2734  -20.3986   46.8882 H   0  0  0  0  0  0  0  0  0  0  0  0
   47.5549  -18.6590   46.2115 H   0  0  0  0  0  0  0  0  0  0  0  0
   46.1716  -18.1446   45.2353 H   0  0  0  0  0  0  0  0  0  0  0  0
   46.6879  -21.1841   43.4477 H   0  0  0  0  0  0  0  0  0  0  0  0
   47.4074  -19.4810   43.4961 H   0  0  0  0  0  0  0  0  0  0  0  0
   48.5126  -18.1701   31.2857 H   0  0  0  0  0  0  0  0  0  0  0  0
   50.3958  -22.8477   42.2360 H   0  0  0  0  0  0  0  0  0  0  0  0
   50.6372  -20.0784   41.7799 H   0  0  0  0  0  0  0  0  0  0  0  0
   51.4644  -20.8973   43.0926 H   0  0  0  0  0  0  0  0  0  0  0  0
   50.1626  -21.4270   45.2356 H   0  0  0  0  0  0  0  0  0  0  0  0
   48.5153  -20.1190   46.7813 H   0  0  0  0  0  0  0  0  0  0  0  0
   50.9793  -20.1413   47.8260 H   0  0  0  0  0  0  0  0  0  0  0  0
   49.1719  -20.0307   48.3358 H   0  0  0  0  0  0  0  0  0  0  0  0
   48.9157  -21.6922   48.5451 H   0  0  0  0  0  0  0  0  0  0  0  0
   50.4006  -23.5613   47.3101 H   0  0  0  0  0  0  0  0  0  0  0  0
   48.6379  -23.2389   47.8660 H   0  0  0  0  0  0  0  0  0  0  0  0
   48.1085  -22.9764   45.9832 H   0  0  0  0  0  0  0  0  0  0  0  0
   49.9174  -23.0826   45.4638 H   0  0  0  0  0  0  0  0  0  0  0  0
   48.0697  -22.2490   40.9667 H   0  0  0  0  0  0  0  0  0  0  0  0
   49.7081  -22.2406   40.1830 H   0  0  0  0  0  0  0  0  0  0  0  0
   48.6231  -19.0196   39.5762 H   0  0  0  0  0  0  0  0  0  0  0  0
   50.3115  -18.3719   39.7068 H   0  0  0  0  0  0  0  0  0  0  0  0
   51.0986  -19.9996   39.2009 H   0  0  0  0  0  0  0  0  0  0  0  0
   50.6320  -17.7050   37.8236 H   0  0  0  0  0  0  0  0  0  0  0  0
   51.4050  -19.3816   37.4403 H   0  0  0  0  0  0  0  0  0  0  0  0
   50.1392  -19.9757   36.4854 H   0  0  0  0  0  0  0  0  0  0  0  0
   47.5968  -19.0823   36.7920 H   0  0  0  0  0  0  0  0  0  0  0  0
   48.5443  -20.6763   36.4665 H   0  0  0  0  0  0  0  0  0  0  0  0
   48.0905  -21.2978   38.2694 H   0  0  0  0  0  0  0  0  0  0  0  0
   47.3315  -19.6216   38.6590 H   0  0  0  0  0  0  0  0  0  0  0  0
   51.9202  -19.0109   35.5497 H   0  0  0  0  0  0  0  0  0  0  0  0
   50.9457  -20.1070   34.5175 H   0  0  0  0  0  0  0  0  0  0  0  0
   52.2837  -18.6607   33.0550 H   0  0  0  0  0  0  0  0  0  0  0  0
   51.7294  -17.1943   33.9033 H   0  0  0  0  0  0  0  0  0  0  0  0
   49.1278  -16.6806   33.7397 H   0  0  0  0  0  0  0  0  0  0  0  0
   48.1716  -17.6848   32.6390 H   0  0  0  0  0  0  0  0  0  0  0  0
   48.6559  -19.6982   34.1305 H   0  0  0  0  0  0  0  0  0  0  0  0
   47.7736  -18.4305   35.0040 H   0  0  0  0  0  0  0  0  0  0  0  0
   50.1062  -19.4223   31.5414 H   0  0  0  0  0  0  0  0  0  0  0  0
   52.3386  -18.9759   31.6246 H   0  0  0  0  0  0  0  0  0  0  0  0
   51.4879  -19.6533   30.1949 H   0  0  0  0  0  0  0  0  0  0  0  0
   52.0175  -17.9369   30.1949 H   0  0  0  0  0  0  0  0  0  0  0  0
  1  2  1  0
  1  6  1  0
  5  6  1  0
  2  9  1  0
  5  9  1  0
  2 12  1  0
  3 15  1  0
  7 15  1  0
 15 12  1  6
  3 16  1  0
  7 17  1  0
 16 17  1  0
 15 18  1  0
  8 19  1  0
 18 19  1  0
 19 20  1  0
  4 21  1  0
 20 21  1  0
 21 22  1  0
 18 23  1  0
 22 23  1  0
 11 24  1  0
 16 24  1  0
 11 25  1  0
 25 26  1  0
 26 27  1  0
 10 28  1  0
 27 28  1  0
 28 29  1  0
 25 30  1  0
 29 30  1  0
 10 31  1  0
 13 32  1  0
 31 32  1  0
 13 33  1  0
 10 34  1  0
 33 34  1  0
 13 35  1  0
 14 35  1  0
 35 36  1  0
 37 38  1  0
 37 42  1  0
 41 42  1  0
 38 45  1  0
 41 45  1  0
 38 48  1  0
 39 51  1  0
 43 51  1  0
 51 48  1  1
 39 52  1  0
 43 53  1  0
 52 53  1  0
 51 54  1  0
 44 55  1  0
 54 55  1  0
 55 56  1  0
 40 57  1  0
 56 57  1  0
 57 58  1  0
 54 59  1  0
 58 59  1  0
 47 60  1  0
 52 60  1  0
 47 61  1  0
 61 62  1  0
 62 63  1  0
 46 64  1  0
 63 64  1  0
 64 65  1  0
 61 66  1  0
 65 66  1  0
 46 67  1  0
 49 68  1  0
 67 68  1  0
 49 69  1  0
 46 70  1  0
 69 70  1  0
 49 71  1  0
 50 71  1  0
 71 72  1  0
  1 73  1  0
  1 74  1  0
  5 75  1  0
  5 76  1  0
  6 77  1  1
  9 78  1  0
  9 79  1  0
 12 80  1  0
 12 81  1  0
 14 82  1  0
 16 83  1  1
 17 84  1  0
 17 85  1  0
 18 86  1  0
 19 87  1  0
 20 88  1  0
 20 89  1  0
 21 90  1  0
 22 91  1  0
 22 92  1  0
 23 93  1  0
 23 94  1  0
 24 95  1  0
 24 96  1  0
 25 97  1  1
 26 98  1  0
 26 99  1  0
 27100  1  0
 27101  1  0
 28102  1  1
 29103  1  0
 29104  1  0
 30105  1  0
 30106  1  0
 31107  1  0
 31108  1  0
 32109  1  0
 32110  1  0
 33111  1  0
 33112  1  0
 34113  1  0
 34114  1  0
 35115  1  0
 36116  1  0
 36117  1  0
 36118  1  0
 37119  1  0
 37120  1  0
 41121  1  0
 41122  1  0
 42123  1  6
 45124  1  0
 45125  1  0
 48126  1  0
 48127  1  0
 50128  1  0
 52129  1  6
 53130  1  0
 53131  1  0
 54132  1  0
 55133  1  0
 56134  1  0
 56135  1  0
 57136  1  0
 58137  1  0
 58138  1  0
 59139  1  0
 59140  1  0
 60141  1  0
 60142  1  0
 61143  1  0
 62144  1  0
 62145  1  0
 63146  1  0
 63147  1  0
 64148  1  0
 65149  1  0
 65150  1  0
 66151  1  0
 66152  1  0
 67153  1  0
 67154  1  0
 68155  1  0
 68156  1  0
 69157  1  0
 69158  1  0
 70159  1  0
 70160  1  0
 71161  1  6
 72162  1  0
 72163  1  0
 72164  1  0
M  END
>  <PDBID>  (1) 
3LD6

>  <PDB ID>  (1) 
3LD6

>  <Generic Name>  (1) 
Ketoconazole

>  <Brand Name>  (1) 
Apo-ketoconazole#Extina#Ketoconazole#Ketodan#Ketoderm Cream 2%#Nizoral#Nizoral  - 2%#Nizoral A-D#Nizoral Cream 2%#Nizoral Oral Suspension 20mg/ml#Nizoral Shp 2%#Nizoral Tablets 200mg#Nu-ketocon Tablets - 200mg#Teva-ketoconazole#Xolegel#Fungarest#Fungoral#Ketoderm#Ketoisdin#Ketozole#Nizoral Cream#Nizoral Shampoo#Orifungal#Orifungal M#Panfungol

>  <DrugBank ID>  (1) 
DB01026

>  <ATC Codes>  (1) 
G01AF11#D01AC08#J02AB02

>  <Ligand ID>  (1) 
KKK,KLN,KTN

>  <Target Name>  (1) 
Lanosterol 14-alpha demethylase

>  <UniProt ID>  (1) 
P10613

>  <PDB ID.1>  (1) 
3LD6

>  <Seq. Identity>  (1) 
40%

$$$$
