PDB_DB06203_98
     RDKit          3D

 46 48  0  0  0  0  0  0  0  0999 V2000
    2.0400   18.5810   19.6610 O   0  0  0  0  0  0  0  0  0  0  0  0
    1.1910   19.4990   19.5750 C   0  0  0  0  0  0  0  0  0  0  0  0
    0.7700   19.8850   18.3420 N   0  0  0  0  0  0  0  0  0  0  0  0
    1.3360   19.2120   17.1540 C   0  0  0  0  0  0  0  0  0  0  0  0
    0.7220   20.0910   20.6960 N   0  0  0  0  0  0  0  0  0  0  0  0
    1.2180   19.6200   22.0170 C   0  0  0  0  0  0  0  0  0  0  0  0
    2.7240   19.7850   22.2360 C   0  0  0  0  0  0  0  0  0  0  0  0
    3.4280   20.9850   21.9720 C   0  0  0  0  0  0  0  0  0  0  0  0
    2.8530   22.0590   21.5000 C   0  0  0  0  0  0  0  0  0  0  0  0
    2.3470   23.0360   21.0930 N   0  0  0  0  0  0  0  0  0  0  0  0
    4.8120   21.0290   22.2120 C   0  0  0  0  0  0  0  0  0  0  0  0
    5.4930   19.9090   22.7200 C   0  0  0  0  0  0  0  0  0  0  0  0
    4.7890   18.7360   23.0110 C   0  0  0  0  0  0  0  0  0  0  0  0
    3.4150   18.6890   22.7570 C   0  0  0  0  0  0  0  0  0  0  0  0
   -0.2120   21.0900   20.5880 C   0  0  0  0  0  0  0  0  0  0  0  0
   -0.6530   21.5080   19.3260 C   0  0  0  0  0  0  0  0  0  0  0  0
   -0.1390   20.8780   18.2110 C   0  0  0  0  0  0  0  0  0  0  0  0
   -0.5510   21.2540   17.0990 O   0  0  0  0  0  0  0  0  0  0  0  0
   -0.9160   21.6580   21.6790 N   0  0  0  0  0  0  0  0  0  0  0  0
   -1.0600   23.1280   21.8210 C   0  0  0  0  0  0  0  0  0  0  0  0
   -1.1300   23.6310   23.2720 C   0  0  2  0  0  0  0  0  0  0  0  0
    0.2080   23.6370   23.9220 N   0  0  0  0  0  0  0  0  0  0  0  0
   -2.1080   22.7980   24.0870 C   0  0  0  0  0  0  0  0  0  0  0  0
   -1.8040   21.3100   23.9770 C   0  0  0  0  0  0  0  0  0  0  0  0
   -1.7700   20.8310   22.5420 C   0  0  0  0  0  0  0  0  0  0  0  0
    2.0129   18.4071   17.4763 H   0  0  0  0  0  0  0  0  0  0  0  0
    0.5208   18.7859   16.5508 H   0  0  0  0  0  0  0  0  0  0  0  0
    1.8955   19.9421   16.5508 H   0  0  0  0  0  0  0  0  0  0  0  0
    0.6945   20.1873   22.8006 H   0  0  0  0  0  0  0  0  0  0  0  0
    1.0174   18.5391   22.0544 H   0  0  0  0  0  0  0  0  0  0  0  0
    5.3702   21.9527   21.9994 H   0  0  0  0  0  0  0  0  0  0  0  0
    6.5790   19.9551   22.8886 H   0  0  0  0  0  0  0  0  0  0  0  0
    5.3087   17.8634   23.4334 H   0  0  0  0  0  0  0  0  0  0  0  0
    2.8627   17.7627   22.9736 H   0  0  0  0  0  0  0  0  0  0  0  0
   -1.3905   22.3180   19.2262 H   0  0  0  0  0  0  0  0  0  0  0  0
   -0.1965   23.6051   21.3346 H   0  0  0  0  0  0  0  0  0  0  0  0
   -2.0208   23.3918   21.3548 H   0  0  0  0  0  0  0  0  0  0  0  0
   -1.4905   24.6697   23.2376 H   0  0  0  0  0  0  0  0  0  0  0  0
    0.0925   23.6365   24.9455 H   0  0  0  0  0  0  0  0  0  0  0  0
    0.7328   22.7984   23.6353 H   0  0  0  0  0  0  0  0  0  0  0  0
   -2.0401   23.0992   25.1428 H   0  0  0  0  0  0  0  0  0  0  0  0
   -3.1201   22.9725   23.6931 H   0  0  0  0  0  0  0  0  0  0  0  0
   -0.8243   21.1149   24.4375 H   0  0  0  0  0  0  0  0  0  0  0  0
   -2.6084   20.7651   24.4927 H   0  0  0  0  0  0  0  0  0  0  0  0
   -2.7946   20.8498   22.1422 H   0  0  0  0  0  0  0  0  0  0  0  0
   -1.3479   19.8152   22.5450 H   0  0  0  0  0  0  0  0  0  0  0  0
  1  2  2  0
  2  3  1  0
  3  4  1  0
  2  5  1  0
  5  6  1  0
  6  7  1  0
  7  8  2  0
  8  9  1  0
  9 10  3  0
  8 11  1  0
 11 12  2  0
 12 13  1  0
  7 14  1  0
 13 14  2  0
  5 15  1  0
 15 16  2  0
  3 17  1  0
 16 17  1  0
 17 18  2  0
 15 19  1  0
 19 20  1  0
 20 21  1  0
 21 22  1  0
 21 23  1  0
 23 24  1  0
 19 25  1  0
 24 25  1  0
  4 26  1  0
  4 27  1  0
  4 28  1  0
  6 29  1  0
  6 30  1  0
 11 31  1  0
 12 32  1  0
 13 33  1  0
 14 34  1  0
 16 35  1  0
 20 36  1  0
 20 37  1  0
 21 38  1  6
 22 39  1  0
 22 40  1  0
 23 41  1  0
 23 42  1  0
 24 43  1  0
 24 44  1  0
 25 45  1  0
 25 46  1  0
M  END
$$$$
