PDB_DB00951_98
     RDKit          3D

 75 75  0  0  0  0  0  0  0  0999 V2000
  -10.1900  -62.2670  -35.2300 C   0  0  0  0  0  0  0  0  0  0  0  0
   -9.0420  -62.7060  -34.3390 C   0  0  1  0  0  0  0  0  0  0  0  0
   -6.7390  -63.3920  -32.8490 N   0  0  0  0  0  0  0  0  0  0  0  0
  -10.0360  -61.2670  -35.8340 O   0  0  0  0  0  0  0  0  0  0  0  0
   -8.9680  -64.0390  -33.6950 C   0  0  0  0  0  0  0  0  0  0  0  0
  -11.3790  -63.0130  -35.2590 N   0  0  0  0  0  0  0  0  0  0  0  0
   -7.8480  -64.3220  -32.9160 C   0  0  0  0  0  0  0  0  0  0  0  0
  -12.3560  -62.8500  -36.2520 N   0  0  0  0  0  0  0  0  0  0  0  0
   -6.8260  -62.1030  -33.4500 C   0  0  0  0  0  0  0  0  0  0  0  0
   -7.9380  -61.7840  -34.2530 C   0  0  0  0  0  0  0  0  0  0  0  0
  -12.5590  -36.4680    0.3120 C   0  0  2  0  0  0  0  0  0  0  0  0
  -13.8100  -35.7390    0.2320 C   0  0  2  0  0  0  0  0  0  0  0  0
  -16.2830  -34.6040   -0.3030 N   0  0  0  0  0  0  0  0  0  0  0  0
  -11.7980  -36.1780   -0.5940 O   0  0  0  0  0  0  0  0  0  0  0  0
  -14.9910  -36.2310    0.9900 C   0  0  0  0  0  0  0  0  0  0  0  0
  -12.3410  -37.6050    1.0370 N   0  0  0  0  0  0  0  0  0  0  0  0
  -16.2110  -35.5310    0.6990 C   0  0  0  0  0  0  0  0  0  0  0  0
  -11.3930  -38.4570    0.6050 N   0  0  0  0  0  0  0  0  0  0  0  0
  -15.0220  -34.0150   -1.1020 C   0  0  0  0  0  0  0  0  0  0  0  0
  -13.8490  -34.7020   -0.8510 C   0  0  0  0  0  0  0  0  0  0  0  0
   -2.0730  -44.7350   20.2560 C   0  0  1  0  0  0  0  0  0  0  0  0
   -1.0540  -45.4660   19.4340 C   0  0  1  0  0  0  0  0  0  0  0  0
    0.8690  -47.1480   18.1100 N   0  0  0  0  0  0  0  0  0  0  0  0
   -2.7950  -45.4170   20.9370 O   0  0  0  0  0  0  0  0  0  0  0  0
    0.0730  -44.8320   18.7340 C   0  0  0  0  0  0  0  0  0  0  0  0
   -2.1890  -43.3290   20.3290 N   0  0  0  0  0  0  0  0  0  0  0  0
    0.9920  -45.7090   18.1040 C   0  0  0  0  0  0  0  0  0  0  0  0
   -2.9270  -42.7400   21.4160 N   0  0  0  0  0  0  0  0  0  0  0  0
   -0.3090  -47.6680   18.8240 C   0  0  0  0  0  0  0  0  0  0  0  0
   -1.2610  -46.8630   19.4840 C   0  0  0  0  0  0  0  0  0  0  0  0
  -10.6203  -61.6959  -34.3942 H   0  0  0  0  0  0  0  0  0  0  0  0
   -9.5729  -62.3110  -33.4603 H   0  0  0  0  0  0  0  0  0  0  0  0
   -6.5468  -63.2367  -31.8491 H   0  0  0  0  0  0  0  0  0  0  0  0
   -9.9201  -60.5141  -35.2017 H   0  0  0  0  0  0  0  0  0  0  0  0
   -9.8519  -64.1406  -33.0482 H   0  0  0  0  0  0  0  0  0  0  0  0
   -8.9096  -64.7491  -34.5331 H   0  0  0  0  0  0  0  0  0  0  0  0
  -11.0934  -64.0017  -35.3007 H   0  0  0  0  0  0  0  0  0  0  0  0
   -7.4386  -65.2727  -33.2882 H   0  0  0  0  0  0  0  0  0  0  0  0
   -8.2495  -64.2988  -31.8921 H   0  0  0  0  0  0  0  0  0  0  0  0
  -13.2733  -62.6970  -35.8093 H   0  0  0  0  0  0  0  0  0  0  0  0
  -12.1177  -62.0371  -36.8380 H   0  0  0  0  0  0  0  0  0  0  0  0
   -6.8003  -61.3670  -32.6329 H   0  0  0  0  0  0  0  0  0  0  0  0
   -5.9850  -62.0922  -34.1589 H   0  0  0  0  0  0  0  0  0  0  0  0
   -7.5619  -61.6396  -35.2766 H   0  0  0  0  0  0  0  0  0  0  0  0
   -8.3738  -60.9071  -33.7520 H   0  0  0  0  0  0  0  0  0  0  0  0
  -12.2656  -36.1253    1.3152 H   0  0  0  0  0  0  0  0  0  0  0  0
  -14.0263  -35.0153    1.0317 H   0  0  0  0  0  0  0  0  0  0  0  0
  -16.8926  -35.0216   -1.0206 H   0  0  0  0  0  0  0  0  0  0  0  0
  -10.9432  -35.8523   -0.2155 H   0  0  0  0  0  0  0  0  0  0  0  0
  -15.1373  -37.2942    0.7486 H   0  0  0  0  0  0  0  0  0  0  0  0
  -14.7758  -36.0614    2.0553 H   0  0  0  0  0  0  0  0  0  0  0  0
  -12.0810  -37.3152    1.9906 H   0  0  0  0  0  0  0  0  0  0  0  0
  -16.4977  -35.0100    1.6244 H   0  0  0  0  0  0  0  0  0  0  0  0
  -16.8600  -36.3354    0.3227 H   0  0  0  0  0  0  0  0  0  0  0  0
  -10.9193  -38.8827    1.4145 H   0  0  0  0  0  0  0  0  0  0  0  0
  -11.8292  -39.1957    0.0349 H   0  0  0  0  0  0  0  0  0  0  0  0
  -15.2349  -34.0688   -2.1799 H   0  0  0  0  0  0  0  0  0  0  0  0
  -14.8737  -32.9797   -0.7613 H   0  0  0  0  0  0  0  0  0  0  0  0
  -13.0869  -33.9498   -0.5994 H   0  0  0  0  0  0  0  0  0  0  0  0
  -13.6941  -35.2866   -1.7698 H   0  0  0  0  0  0  0  0  0  0  0  0
   -2.7915  -44.8032   19.4259 H   0  0  0  0  0  0  0  0  0  0  0  0
   -1.6820  -45.3364   18.5402 H   0  0  0  0  0  0  0  0  0  0  0  0
    0.8176  -47.4685   17.1325 H   0  0  0  0  0  0  0  0  0  0  0  0
   -2.6091  -45.2414   21.8934 H   0  0  0  0  0  0  0  0  0  0  0  0
   -0.3424  -44.1692   17.9606 H   0  0  0  0  0  0  0  0  0  0  0  0
    0.6492  -44.3126   19.5139 H   0  0  0  0  0  0  0  0  0  0  0  0
   -1.2323  -42.9502   20.3748 H   0  0  0  0  0  0  0  0  0  0  0  0
    1.9704  -45.4915   18.5573 H   0  0  0  0  0  0  0  0  0  0  0  0
    0.7997  -45.4871   17.0439 H   0  0  0  0  0  0  0  0  0  0  0  0
   -2.5300  -43.0569   22.3120 H   0  0  0  0  0  0  0  0  0  0  0  0
   -2.8649  -41.7136   21.3568 H   0  0  0  0  0  0  0  0  0  0  0  0
   -0.8755  -48.2460   18.0790 H   0  0  0  0  0  0  0  0  0  0  0  0
    0.1726  -48.1602   19.6818 H   0  0  0  0  0  0  0  0  0  0  0  0
   -1.2726  -47.1607   20.5429 H   0  0  0  0  0  0  0  0  0  0  0  0
   -2.2063  -47.0348   18.9484 H   0  0  0  0  0  0  0  0  0  0  0  0
  1  2  1  0
  1  4  1  0
  2  5  1  0
  1  6  1  0
  3  7  1  0
  5  7  1  0
  6  8  1  0
  3  9  1  0
  2 10  1  0
  9 10  1  0
 11 12  1  0
 11 14  1  0
 12 15  1  0
 11 16  1  0
 13 17  1  0
 15 17  1  0
 16 18  1  0
 13 19  1  0
 12 20  1  0
 19 20  1  0
 21 22  1  0
 21 24  1  0
 22 25  1  0
 21 26  1  0
 23 27  1  0
 25 27  1  0
 26 28  1  0
 23 29  1  0
 22 30  1  0
 29 30  1  0
  1 31  1  0
  2 32  1  1
  3 33  1  0
  4 34  1  0
  5 35  1  0
  5 36  1  0
  6 37  1  0
  7 38  1  0
  7 39  1  0
  8 40  1  0
  8 41  1  0
  9 42  1  0
  9 43  1  0
 10 44  1  0
 10 45  1  0
 11 46  1  1
 12 47  1  1
 13 48  1  0
 14 49  1  0
 15 50  1  0
 15 51  1  0
 16 52  1  0
 17 53  1  0
 17 54  1  0
 18 55  1  0
 18 56  1  0
 19 57  1  0
 19 58  1  0
 20 59  1  0
 20 60  1  0
 21 61  1  6
 22 62  1  6
 23 63  1  0
 24 64  1  0
 25 65  1  0
 25 66  1  0
 26 67  1  0
 27 68  1  0
 27 69  1  0
 28 70  1  0
 28 71  1  0
 29 72  1  0
 29 73  1  0
 30 74  1  0
 30 75  1  0
M  END
>  <PDBID>  (1) 
5SYI

>  <PDB ID>  (1) 
5SYI

>  <Generic Name>  (1) 
Isoniazid

>  <Brand Name>  (1) 
Dom-isoniazid 300mg Tablets#Isonarif#Isoniazid#Isoniazid Syrup 50mg/5ml#Isoniazid Tab 100mg#Isoniazid Tab 300mg#Isoniazid Tab 50mg#Isoniazide 100mg Tablets#Isotamine B 300#Isotamine Powder#Isotamine Syr Pediatric 50mg/5ml#Isotamine-100#Isotamine-300#Pdp-isoniazid#Rifamate#Rifater#Nicozid#Nidrazid#Nydrazid#Rimicid#Rimifon#Servizid#Tibinide

>  <DrugBank ID>  (1) 
DB00951

>  <ATC Codes>  (1) 
J04AM04#J04AM02#J04AM06#J04AM03#J04AM05#J04AM01#J04AC51#J04AC01

>  <Ligand ID>  (1) 
NIZ

>  <Target Name>  (1) 
Catalase-peroxidase

>  <UniProt ID>  (1) 
Q08129

>  <PDB ID.1>  (1) 
5SYI

>  <Seq. Identity>  (1) 
66%

$$$$
