PDB_DB00323_99
     RDKit          3D

 31 32  0  0  0  0  0  0  0  0999 V2000
  -13.3170   35.2330   60.2030 O   0  0  0  0  0  0  0  0  0  0  0  0
  -13.5590   36.0750   61.0640 C   0  0  0  0  0  0  0  0  0  0  0  0
  -12.3980   36.6530   61.8190 C   0  0  0  0  0  0  0  0  0  0  0  0
  -11.2040   35.8810   61.9370 C   0  0  0  0  0  0  0  0  0  0  0  0
  -10.0940   36.4350   62.6250 C   0  0  0  0  0  0  0  0  0  0  0  0
   -8.9270   35.7180   62.7920 O   0  0  0  0  0  0  0  0  0  0  0  0
  -12.4720   37.9530   62.3310 C   0  0  0  0  0  0  0  0  0  0  0  0
  -11.3610   38.4980   62.9780 C   0  0  0  0  0  0  0  0  0  0  0  0
  -11.4610   39.8150   63.4940 N   0  0  0  0  0  0  0  0  0  0  0  0
  -12.4810   40.4540   63.2540 O   0  0  0  0  0  0  0  0  0  0  0  0
  -10.5760   40.3390   64.1970 O   0  0  0  0  0  0  0  0  0  0  0  0
  -10.1770   37.7240   63.1130 C   0  0  0  0  0  0  0  0  0  0  0  0
   -9.0720   38.2390   63.7360 O   0  0  0  0  0  0  0  0  0  0  0  0
  -14.9510   36.5700   61.2700 C   0  0  0  0  0  0  0  0  0  0  0  0
  -15.7120   36.8580   60.1250 C   0  0  0  0  0  0  0  0  0  0  0  0
  -17.0150   37.3330   60.2810 C   0  0  0  0  0  0  0  0  0  0  0  0
  -17.5400   37.5300   61.5650 C   0  0  0  0  0  0  0  0  0  0  0  0
  -18.9460   38.0550   61.7210 C   0  0  0  0  0  0  0  0  0  0  0  0
  -16.7690   37.2590   62.7070 C   0  0  0  0  0  0  0  0  0  0  0  0
  -15.4610   36.7790   62.5580 C   0  0  0  0  0  0  0  0  0  0  0  0
  -11.1451   34.8726   61.5016 H   0  0  0  0  0  0  0  0  0  0  0  0
   -8.1629   36.1216   63.2751 H   0  0  0  0  0  0  0  0  0  0  0  0
  -13.3962   38.5400   62.2249 H   0  0  0  0  0  0  0  0  0  0  0  0
   -9.0926   39.1598   64.0991 H   0  0  0  0  0  0  0  0  0  0  0  0
  -15.2875   36.7114   59.1209 H   0  0  0  0  0  0  0  0  0  0  0  0
  -17.6299   37.5527   59.3958 H   0  0  0  0  0  0  0  0  0  0  0  0
  -19.1872   38.1451   62.7904 H   0  0  0  0  0  0  0  0  0  0  0  0
  -19.0237   39.0427   61.2431 H   0  0  0  0  0  0  0  0  0  0  0  0
  -19.6521   37.3599   61.2431 H   0  0  0  0  0  0  0  0  0  0  0  0
  -17.1886   37.4223   63.7106 H   0  0  0  0  0  0  0  0  0  0  0  0
  -14.8416   36.5687   63.4424 H   0  0  0  0  0  0  0  0  0  0  0  0
  1  2  2  0
  2  3  1  0
  3  4  2  0
  4  5  1  0
  5  6  1  0
  3  7  1  0
  7  8  2  0
  8  9  1  0
  9 10  1  0
  9 11  2  0
  5 12  2  0
  8 12  1  0
 12 13  1  0
  2 14  1  0
 14 15  2  0
 15 16  1  0
 16 17  2  0
 17 18  1  0
 17 19  1  0
 14 20  1  0
 19 20  2  0
  4 21  1  0
  6 22  1  0
  7 23  1  0
 13 24  1  0
 15 25  1  0
 16 26  1  0
 18 27  1  0
 18 28  1  0
 18 29  1  0
 19 30  1  0
 20 31  1  0
M  CHG  2   9   1  10  -1
M  END
>  <PDBID>  (1) 
3S68

>  <PDB ID>  (1) 
3S68

>  <Generic Name>  (1) 
Tolcapone

>  <Brand Name>  (1) 
Tasmar#Tolcapone#Sen De Ning

>  <DrugBank ID>  (1) 
DB00323

>  <ATC Codes>  (1) 
N04BX01

>  <Ligand ID>  (1) 
TCW

>  <Target Name>  (1) 
Catechol O-methyltransferase

>  <UniProt ID>  (1) 
P21964

>  <PDB ID.1>  (1) 
3S68

>  <Seq. Identity>  (1) 
81%

$$$$
