PDB_DB04868_98
     RDKit          3D

364380  0  0  0  0  0  0  0  0999 V2000
   27.4370    2.8950   51.2430 O   0  0  0  0  0  0  0  0  0  0  0  0
   27.1160    2.6680   52.3840 C   0  0  1  0  0  0  0  0  0  0  0  0
   26.0130    3.0980   53.0150 N   0  0  0  0  0  0  0  0  0  0  0  0
   25.1140    4.0420   52.5350 C   0  0  1  0  0  0  0  0  0  0  0  0
   24.3180    4.8060   53.4240 C   0  0  0  0  0  0  0  0  0  0  0  0
   23.4180    5.7650   52.9510 C   0  0  0  0  0  0  0  0  0  0  0  0
   22.6560    6.5560   53.8240 N   0  0  0  0  0  0  0  0  0  0  0  0
   22.3140    6.3130   55.1530 C   0  0  0  0  0  0  0  0  0  0  0  0
   21.4970    7.3060   55.5670 C   0  0  0  0  0  0  0  0  0  0  0  0
   20.8800    7.4930   56.9320 C   0  0  0  0  0  0  0  0  0  0  0  0
   21.3460    8.1740   54.5420 N   0  0  0  0  0  0  0  0  0  0  0  0
   22.0110    7.6890   53.5220 C   0  0  0  0  0  0  0  0  0  0  0  0
   23.2420    5.9220   51.5800 C   0  0  0  0  0  0  0  0  0  0  0  0
   24.8860    4.1760   51.1480 C   0  0  0  0  0  0  0  0  0  0  0  0
   23.9850    5.1690   50.6680 C   0  0  1  0  0  0  0  0  0  0  0  0
   23.8080    5.3300   49.1930 C   0  0  1  0  0  0  0  0  0  0  0  0
   23.7250    4.1770   48.5000 F   0  0  0  0  0  0  0  0  0  0  0  0
   22.6440    5.9040   48.9120 F   0  0  0  0  0  0  0  0  0  0  0  0
   24.8490    5.9670   48.6180 F   0  0  0  0  0  0  0  0  0  0  0  0
   27.8680    1.5870   53.0510 C   0  0  1  0  0  0  0  0  0  0  0  0
   27.5140    1.0020   54.2760 C   0  0  0  0  0  0  0  0  0  0  0  0
   28.2050   -0.1000   54.7820 C   0  0  0  0  0  0  0  0  0  0  0  0
   29.2140   -0.7110   54.0550 C   0  0  0  0  0  0  0  0  0  0  0  0
   29.9540   -1.9170   54.6160 C   0  0  0  0  0  0  0  0  0  0  0  0
   29.5010   -0.1980   52.7910 C   0  0  1  0  0  0  0  0  0  0  0  0
   28.8130    0.9240   52.3120 C   0  0  0  0  0  0  0  0  0  0  0  0
   30.6200   -0.6930   52.1090 N   0  0  0  0  0  0  0  0  0  0  0  0
   31.8450   -0.0340   52.2300 C   0  0  1  0  0  0  0  0  0  0  0  0
   32.1570    1.0110   52.9860 N   0  0  0  0  0  0  0  0  0  0  0  0
   33.4140    1.4820   52.8790 C   0  0  0  0  0  0  0  0  0  0  0  0
   34.3070    0.9710   52.0170 C   0  0  0  0  0  0  0  0  0  0  0  0
   33.9360   -0.0810   51.2560 C   0  0  0  0  0  0  0  0  0  0  0  0
   32.7080   -0.6040   51.3500 N   0  0  0  0  0  0  0  0  0  0  0  0
   34.8530   -0.7620   50.3050 C   0  0  0  0  0  0  0  0  0  0  0  0
   36.1840   -0.3460   50.1410 C   0  0  0  0  0  0  0  0  0  0  0  0
   36.9880   -1.0040   49.2190 C   0  0  0  0  0  0  0  0  0  0  0  0
   36.4440   -2.0750   48.5110 C   0  0  0  0  0  0  0  0  0  0  0  0
   35.1680   -2.4770   48.6290 N   0  0  0  0  0  0  0  0  0  0  0  0
   34.4000   -1.8440   49.5250 C   0  0  0  0  0  0  0  0  0  0  0  0
   22.9930   12.5330   86.4300 O   0  0  0  0  0  0  0  0  0  0  0  0
   23.4830   12.4820   87.5510 C   0  0  1  0  0  0  0  0  0  0  0  0
   23.0200   11.6350   88.5060 N   0  0  0  0  0  0  0  0  0  0  0  0
   21.8470   10.8690   88.3780 C   0  0  1  0  0  0  0  0  0  0  0  0
   21.2270   10.3580   89.5190 C   0  0  0  0  0  0  0  0  0  0  0  0
   20.0680    9.5700   89.4430 C   0  0  0  0  0  0  0  0  0  0  0  0
   19.4190    9.1250   90.6260 N   0  0  0  0  0  0  0  0  0  0  0  0
   19.9910    8.8320   91.8610 C   0  0  0  0  0  0  0  0  0  0  0  0
   18.9960    8.4430   92.7170 C   0  0  0  0  0  0  0  0  0  0  0  0
   19.2000    8.0560   94.1780 C   0  0  0  0  0  0  0  0  0  0  0  0
   17.7800    8.4700   92.0490 N   0  0  0  0  0  0  0  0  0  0  0  0
   18.0900    8.8830   90.8170 C   0  0  0  0  0  0  0  0  0  0  0  0
   19.5860    9.2450   88.1590 C   0  0  0  0  0  0  0  0  0  0  0  0
   21.3430   10.4780   87.1060 C   0  0  0  0  0  0  0  0  0  0  0  0
   20.2160    9.6870   86.9790 C   0  0  0  0  0  0  0  0  0  0  0  0
   19.6820    9.3030   85.5860 C   0  0  1  0  0  0  0  0  0  0  0  0
   20.6700    8.9870   84.6720 F   0  0  0  0  0  0  0  0  0  0  0  0
   18.9410    8.1490   85.6490 F   0  0  0  0  0  0  0  0  0  0  0  0
   18.9250   10.2690   85.0240 F   0  0  0  0  0  0  0  0  0  0  0  0
   24.8270   13.1270   87.7530 C   0  0  1  0  0  0  0  0  0  0  0  0
   25.6120   12.9010   88.9030 C   0  0  0  0  0  0  0  0  0  0  0  0
   26.9280   13.3880   89.0390 C   0  0  0  0  0  0  0  0  0  0  0  0
   27.5570   14.0530   87.9750 C   0  0  0  0  0  0  0  0  0  0  0  0
   28.9960   14.5540   88.1610 C   0  0  0  0  0  0  0  0  0  0  0  0
   26.8350   14.2210   86.7560 C   0  0  1  0  0  0  0  0  0  0  0  0
   25.4920   13.7540   86.6670 C   0  0  0  0  0  0  0  0  0  0  0  0
   27.3600   15.0760   85.7610 N   0  0  0  0  0  0  0  0  0  0  0  0
   26.8420   16.3890   85.7150 C   0  0  1  0  0  0  0  0  0  0  0  0
   25.9880   16.9840   86.5400 N   0  0  0  0  0  0  0  0  0  0  0  0
   25.5750   18.2440   86.2390 C   0  0  0  0  0  0  0  0  0  0  0  0
   25.9980   18.8880   85.1430 C   0  0  0  0  0  0  0  0  0  0  0  0
   26.8530   18.2350   84.3190 C   0  0  1  0  0  0  0  0  0  0  0  0
   27.2850   17.0100   84.6130 N   0  0  0  0  0  0  0  0  0  0  0  0
   27.4470   18.8380   83.1080 C   0  0  1  0  0  0  0  0  0  0  0  0
   27.1930   20.1930   82.7870 C   0  0  0  0  0  0  0  0  0  0  0  0
   27.8090   20.7510   81.6720 C   0  0  0  0  0  0  0  0  0  0  0  0
   28.6750   19.9550   80.9110 C   0  0  0  0  0  0  0  0  0  0  0  0
   28.9420   18.6630   81.2140 N   0  0  0  0  0  0  0  0  0  0  0  0
   28.3400   18.1150   82.2950 C   0  0  0  0  0  0  0  0  0  0  0  0
   23.6190   58.3870  101.3840 O   0  0  0  0  0  0  0  0  0  0  0  0
   24.1220   59.0950  102.2310 C   0  0  1  0  0  0  0  0  0  0  0  0
   25.1710   58.7320  102.9640 N   0  0  0  0  0  0  0  0  0  0  0  0
   25.7770   57.4640  102.9480 C   0  0  1  0  0  0  0  0  0  0  0  0
   26.5410   57.0920  104.0490 C   0  0  0  0  0  0  0  0  0  0  0  0
   27.2270   55.8640  104.1090 C   0  0  0  0  0  0  0  0  0  0  0  0
   27.9700   55.5140  105.2580 N   0  0  0  0  0  0  0  0  0  0  0  0
   28.8180   56.3640  106.0120 C   0  0  0  0  0  0  0  0  0  0  0  0
   29.3500   55.5920  107.0240 C   0  0  0  0  0  0  0  0  0  0  0  0
   30.3290   56.0300  108.1170 C   0  0  0  0  0  0  0  0  0  0  0  0
   28.8390   54.3070  106.9250 N   0  0  0  0  0  0  0  0  0  0  0  0
   28.0120   54.2890  105.8550 C   0  0  0  0  0  0  0  0  0  0  0  0
   27.1520   55.0020  103.0080 C   0  0  0  0  0  0  0  0  0  0  0  0
   25.7580   56.6060  101.8250 C   0  0  0  0  0  0  0  0  0  0  0  0
   26.4150   55.3650  101.8560 C   0  0  0  0  0  0  0  0  0  0  0  0
   26.3300   54.4360  100.6690 C   0  0  1  0  0  0  0  0  0  0  0  0
   26.6020   55.0900   99.5050 F   0  0  0  0  0  0  0  0  0  0  0  0
   27.2130   53.4090  100.8120 F   0  0  0  0  0  0  0  0  0  0  0  0
   25.1000   53.8880  100.5160 F   0  0  0  0  0  0  0  0  0  0  0  0
   23.6810   60.5230  102.3350 C   0  0  1  0  0  0  0  0  0  0  0  0
   24.2210   61.4970  103.2090 C   0  0  0  0  0  0  0  0  0  0  0  0
   23.8180   62.8450  103.1770 C   0  0  0  0  0  0  0  0  0  0  0  0
   22.8280   63.2510  102.2460 C   0  0  1  0  0  0  0  0  0  0  0  0
   22.4280   64.6900  102.3080 C   0  0  0  0  0  0  0  0  0  0  0  0
   22.3300   62.3130  101.2990 C   0  0  1  0  0  0  0  0  0  0  0  0
   22.7480   60.9840  101.3800 C   0  0  0  0  0  0  0  0  0  0  0  0
   21.2360   62.5560  100.4470 N   0  0  0  0  0  0  0  0  0  0  0  0
   19.9470   62.2700  100.8970 C   0  0  0  0  0  0  0  0  0  0  0  0
   19.5450   61.7630  102.0430 N   0  0  0  0  0  0  0  0  0  0  0  0
   18.2140   61.6070  102.2040 C   0  0  0  0  0  0  0  0  0  0  0  0
   17.3300   61.9240  101.2380 C   0  0  0  0  0  0  0  0  0  0  0  0
   17.7740   62.4470  100.0760 C   0  0  1  0  0  0  0  0  0  0  0  0
   19.0880   62.5940   99.9020 N   0  0  0  0  0  0  0  0  0  0  0  0
   16.8680   62.7880   98.9310 C   0  0  1  0  0  0  0  0  0  0  0  0
   15.4790   62.6390   99.0280 C   0  0  0  0  0  0  0  0  0  0  0  0
   14.6450   62.9740   97.9330 C   0  0  0  0  0  0  0  0  0  0  0  0
   15.2380   63.4120   96.7730 C   0  0  0  0  0  0  0  0  0  0  0  0
   16.5780   63.5190   96.6350 N   0  0  0  0  0  0  0  0  0  0  0  0
   17.3480   63.2050   97.6940 C   0  0  0  0  0  0  0  0  0  0  0  0
   20.8950   39.1740   14.0370 O   0  0  0  0  0  0  0  0  0  0  0  0
   20.1830   39.6480   14.9410 C   0  0  1  0  0  0  0  0  0  0  0  0
   20.3160   40.8830   15.5010 N   0  0  0  0  0  0  0  0  0  0  0  0
   21.3540   41.7820   15.2460 C   0  0  0  0  0  0  0  0  0  0  0  0
   21.6540   42.7880   16.1990 C   0  0  0  0  0  0  0  0  0  0  0  0
   22.7120   43.7270   15.9890 C   0  0  0  0  0  0  0  0  0  0  0  0
   23.0470   44.7120   16.9470 N   0  0  0  0  0  0  0  0  0  0  0  0
   22.1980   45.2940   17.8830 C   0  0  0  0  0  0  0  0  0  0  0  0
   22.9290   46.1650   18.6540 C   0  0  0  0  0  0  0  0  0  0  0  0
   22.3830   47.0240   19.8130 C   0  0  0  0  0  0  0  0  0  0  0  0
   24.2480   46.1470   18.2270 N   0  0  0  0  0  0  0  0  0  0  0  0
   24.2680   45.2600   17.2010 C   0  0  0  0  0  0  0  0  0  0  0  0
   23.4390   43.6070   14.7930 C   0  0  0  0  0  0  0  0  0  0  0  0
   22.0690   41.7320   14.0430 C   0  0  0  0  0  0  0  0  0  0  0  0
   23.1260   42.6300   13.8400 C   0  0  0  0  0  0  0  0  0  0  0  0
   23.8930   42.5380   12.5510 C   0  0  1  0  0  0  0  0  0  0  0  0
   23.0060   42.5060   11.4960 F   0  0  0  0  0  0  0  0  0  0  0  0
   24.6870   43.6420   12.3790 F   0  0  0  0  0  0  0  0  0  0  0  0
   24.6090   41.3780   12.4940 F   0  0  0  0  0  0  0  0  0  0  0  0
   18.9470   38.9060   15.3820 C   0  0  1  0  0  0  0  0  0  0  0  0
   18.1330   39.2630   16.4830 C   0  0  0  0  0  0  0  0  0  0  0  0
   16.9450   38.5500   16.7910 C   0  0  0  0  0  0  0  0  0  0  0  0
   16.5060   37.4830   16.0020 C   0  0  1  0  0  0  0  0  0  0  0  0
   15.2210   36.7430   16.3700 C   0  0  0  0  0  0  0  0  0  0  0  0
   17.2440   37.1830   14.8350 C   0  0  1  0  0  0  0  0  0  0  0  0
   18.4460   37.8720   14.5750 C   0  0  0  0  0  0  0  0  0  0  0  0
   16.9440   35.9990   14.1520 N   0  0  0  0  0  0  0  0  0  0  0  0
   17.6150   34.8810   14.6890 C   0  0  0  0  0  0  0  0  0  0  0  0
   18.3800   34.7470   15.7780 N   0  0  0  0  0  0  0  0  0  0  0  0
   18.9340   33.5080   16.0130 C   0  0  0  0  0  0  0  0  0  0  0  0
   18.7440   32.4420   15.1820 C   0  0  0  0  0  0  0  0  0  0  0  0
   17.9620   32.6500   14.0980 C   0  0  0  0  0  0  0  0  0  0  0  0
   17.4250   33.8590   13.8690 N   0  0  0  0  0  0  0  0  0  0  0  0
   17.6090   31.6440   13.0670 C   0  0  0  0  0  0  0  0  0  0  0  0
   17.9220   30.2690   13.2200 C   0  0  0  0  0  0  0  0  0  0  0  0
   17.5580   29.3780   12.1930 C   0  0  0  0  0  0  0  0  0  0  0  0
   16.8920   29.8760   11.0740 C   0  0  0  0  0  0  0  0  0  0  0  0
   16.5730   31.1760   10.9240 N   0  0  0  0  0  0  0  0  0  0  0  0
   16.9210   32.0380   11.8980 C   0  0  0  0  0  0  0  0  0  0  0  0
   28.2453    3.4666   51.2351 H   0  0  0  0  0  0  0  0  0  0  0  0
   27.3400    3.7392   52.4952 H   0  0  0  0  0  0  0  0  0  0  0  0
   25.4512    2.2514   53.1841 H   0  0  0  0  0  0  0  0  0  0  0  0
   24.3288    3.2728   52.4929 H   0  0  0  0  0  0  0  0  0  0  0  0
   23.7269    4.0863   54.0094 H   0  0  0  0  0  0  0  0  0  0  0  0
   25.0664    5.4188   53.9478 H   0  0  0  0  0  0  0  0  0  0  0  0
   22.6190    5.0090   52.9386 H   0  0  0  0  0  0  0  0  0  0  0  0
   21.7954    5.3463   55.2332 H   0  0  0  0  0  0  0  0  0  0  0  0
   23.2185    6.2797   55.7781 H   0  0  0  0  0  0  0  0  0  0  0  0
   20.6225    6.7177   55.2523 H   0  0  0  0  0  0  0  0  0  0  0  0
   21.6276    7.2664   57.7065 H   0  0  0  0  0  0  0  0  0  0  0  0
   20.5419    8.5340   57.0421 H   0  0  0  0  0  0  0  0  0  0  0  0
   20.0209    6.8149   57.0421 H   0  0  0  0  0  0  0  0  0  0  0  0
   20.3487    8.2659   54.3015 H   0  0  0  0  0  0  0  0  0  0  0  0
   22.7471    8.4371   53.1926 H   0  0  0  0  0  0  0  0  0  0  0  0
   21.2853    7.4595   52.7279 H   0  0  0  0  0  0  0  0  0  0  0  0
   22.1832    5.7065   51.3740 H   0  0  0  0  0  0  0  0  0  0  0  0
   23.6086    6.9442   51.4048 H   0  0  0  0  0  0  0  0  0  0  0  0
   25.8619    4.3815   50.6840 H   0  0  0  0  0  0  0  0  0  0  0  0
   24.3884    3.2321   50.8808 H   0  0  0  0  0  0  0  0  0  0  0  0
   24.7900    5.9177   50.7057 H   0  0  0  0  0  0  0  0  0  0  0  0
   28.2332    2.4371   53.6459 H   0  0  0  0  0  0  0  0  0  0  0  0
   27.5954    1.7948   55.0341 H   0  0  0  0  0  0  0  0  0  0  0  0
   26.5209    0.5811   54.0601 H   0  0  0  0  0  0  0  0  0  0  0  0
   28.6572    0.2245   55.7308 H   0  0  0  0  0  0  0  0  0  0  0  0
   27.4271   -0.8772   54.8118 H   0  0  0  0  0  0  0  0  0  0  0  0
   29.9535   -0.0416   54.5187 H   0  0  0  0  0  0  0  0  0  0  0  0
   29.9324   -1.8817   55.7152 H   0  0  0  0  0  0  0  0  0  0  0  0
   29.4667   -2.8401   54.2691 H   0  0  0  0  0  0  0  0  0  0  0  0
   30.9977   -1.9007   54.2691 H   0  0  0  0  0  0  0  0  0  0  0  0
   28.7595   -0.7792   52.2232 H   0  0  0  0  0  0  0  0  0  0  0  0
   28.3062    0.5996   51.3912 H   0  0  0  0  0  0  0  0  0  0  0  0
   29.6179    1.6719   52.2582 H   0  0  0  0  0  0  0  0  0  0  0  0
   30.7660   -1.6593   52.4343 H   0  0  0  0  0  0  0  0  0  0  0  0
   31.5616    0.6432   51.4108 H   0  0  0  0  0  0  0  0  0  0  0  0
   31.5146    1.7774   52.7393 H   0  0  0  0  0  0  0  0  0  0  0  0
   33.3196    2.5479   52.6241 H   0  0  0  0  0  0  0  0  0  0  0  0
   33.8458    1.1911   53.8480 H   0  0  0  0  0  0  0  0  0  0  0  0
   34.5982    1.7811   51.3322 H   0  0  0  0  0  0  0  0  0  0  0  0
   35.1052    0.5714   52.6599 H   0  0  0  0  0  0  0  0  0  0  0  0
   34.2894   -0.7705   52.0368 H   0  0  0  0  0  0  0  0  0  0  0  0
   32.8144   -1.5923   51.6197 H   0  0  0  0  0  0  0  0  0  0  0  0
   34.5391   -0.0718   49.5081 H   0  0  0  0  0  0  0  0  0  0  0  0
   36.1562    0.7133   49.8459 H   0  0  0  0  0  0  0  0  0  0  0  0
   36.6525   -0.5753   51.1095 H   0  0  0  0  0  0  0  0  0  0  0  0
   37.3137   -0.2572   48.4799 H   0  0  0  0  0  0  0  0  0  0  0  0
   37.7830   -1.4583   49.8286 H   0  0  0  0  0  0  0  0  0  0  0  0
   36.5842   -1.8326   47.4472 H   0  0  0  0  0  0  0  0  0  0  0  0
   36.9759   -2.9226   48.9678 H   0  0  0  0  0  0  0  0  0  0  0  0
   34.7227   -2.3646   47.7070 H   0  0  0  0  0  0  0  0  0  0  0  0
   34.0724   -2.6141   50.2389 H   0  0  0  0  0  0  0  0  0  0  0  0
   33.6679   -1.3480   48.8708 H   0  0  0  0  0  0  0  0  0  0  0  0
   22.0110   12.6352   86.5034 H   0  0  0  0  0  0  0  0  0  0  0  0
   22.7540   13.2164   87.9241 H   0  0  0  0  0  0  0  0  0  0  0  0
   23.7787   10.9580   88.6700 H   0  0  0  0  0  0  0  0  0  0  0  0
   22.4530    9.9545   88.2977 H   0  0  0  0  0  0  0  0  0  0  0  0
   21.9829    9.7461   90.0330 H   0  0  0  0  0  0  0  0  0  0  0  0
   20.8561   11.2699   90.0098 H   0  0  0  0  0  0  0  0  0  0  0  0
   20.6866    8.6604   89.4402 H   0  0  0  0  0  0  0  0  0  0  0  0
   20.7227    8.0185   91.7478 H   0  0  0  0  0  0  0  0  0  0  0  0
   20.5062    9.7188   92.2587 H   0  0  0  0  0  0  0  0  0  0  0  0
   19.1485    7.3954   92.4182 H   0  0  0  0  0  0  0  0  0  0  0  0
   18.7858    8.8418   94.8267 H   0  0  0  0  0  0  0  0  0  0  0  0
   18.6862    7.1047   94.3805 H   0  0  0  0  0  0  0  0  0  0  0  0
   20.2752    7.9423   94.3805 H   0  0  0  0  0  0  0  0  0  0  0  0
   17.3566    7.5314   92.0236 H   0  0  0  0  0  0  0  0  0  0  0  0
   17.5377    9.8127   90.6157 H   0  0  0  0  0  0  0  0  0  0  0  0
   17.8157    8.0673   90.1319 H   0  0  0  0  0  0  0  0  0  0  0  0
   19.5750    8.1463   88.1061 H   0  0  0  0  0  0  0  0  0  0  0  0
   18.6362    9.7990   88.1282 H   0  0  0  0  0  0  0  0  0  0  0  0
   21.1301   11.4084   86.5592 H   0  0  0  0  0  0  0  0  0  0  0  0
   22.1369    9.8125   86.7360 H   0  0  0  0  0  0  0  0  0  0  0  0
   19.5841   10.5874   86.9789 H   0  0  0  0  0  0  0  0  0  0  0  0
   24.1525   13.8815   88.1841 H   0  0  0  0  0  0  0  0  0  0  0  0
   25.0440   13.3216   89.7459 H   0  0  0  0  0  0  0  0  0  0  0  0
   25.7824   11.8158   88.8450 H   0  0  0  0  0  0  0  0  0  0  0  0
   26.9181   14.0892   89.8865 H   0  0  0  0  0  0  0  0  0  0  0  0
   27.5221   12.4677   89.1400 H   0  0  0  0  0  0  0  0  0  0  0  0
   27.1741   15.0139   88.3492 H   0  0  0  0  0  0  0  0  0  0  0  0
   29.2210   14.6324   89.2349 H   0  0  0  0  0  0  0  0  0  0  0  0
   29.6944   13.8461   87.6907 H   0  0  0  0  0  0  0  0  0  0  0  0
   29.1038   15.5425   87.6907 H   0  0  0  0  0  0  0  0  0  0  0  0
   27.2052   13.3135   86.2566 H   0  0  0  0  0  0  0  0  0  0  0  0
   25.4753   13.0293   85.8397 H   0  0  0  0  0  0  0  0  0  0  0  0
   24.9323   14.6965   86.5750 H   0  0  0  0  0  0  0  0  0  0  0  0
   28.3760   15.1466   85.9146 H   0  0  0  0  0  0  0  0  0  0  0  0
   26.0014   16.0358   85.0996 H   0  0  0  0  0  0  0  0  0  0  0  0
   25.1474   16.3908   86.5892 H   0  0  0  0  0  0  0  0  0  0  0  0
   24.4784   18.1990   86.1654 H   0  0  0  0  0  0  0  0  0  0  0  0
   26.0335   18.8355   87.0452 H   0  0  0  0  0  0  0  0  0  0  0  0
   25.1080   19.1501   84.5520 H   0  0  0  0  0  0  0  0  0  0  0  0
   26.5786   19.7394   85.5277 H   0  0  0  0  0  0  0  0  0  0  0  0
   27.7064   18.6664   84.8626 H   0  0  0  0  0  0  0  0  0  0  0  0
   28.3100   17.0684   84.6965 H   0  0  0  0  0  0  0  0  0  0  0  0
   26.5654   18.5345   82.5244 H   0  0  0  0  0  0  0  0  0  0  0  0
   26.1076   20.2903   82.6374 H   0  0  0  0  0  0  0  0  0  0  0  0
   27.6260   20.7487   83.6318 H   0  0  0  0  0  0  0  0  0  0  0  0
   27.0097   21.0942   80.9988 H   0  0  0  0  0  0  0  0  0  0  0  0
   28.4627   21.5302   82.0910 H   0  0  0  0  0  0  0  0  0  0  0  0
   28.2641   19.9490   79.8906 H   0  0  0  0  0  0  0  0  0  0  0  0
   29.6457   20.4337   81.1072 H   0  0  0  0  0  0  0  0  0  0  0  0
   28.6725   18.0972   80.3966 H   0  0  0  0  0  0  0  0  0  0  0  0
   29.1501   17.7754   82.9571 H   0  0  0  0  0  0  0  0  0  0  0  0
   27.6740   17.3723   81.8314 H   0  0  0  0  0  0  0  0  0  0  0  0
   23.1047   57.6632  101.8218 H   0  0  0  0  0  0  0  0  0  0  0  0
   23.5279   58.3736  102.8111 H   0  0  0  0  0  0  0  0  0  0  0  0
   25.9193   59.3948  102.7159 H   0  0  0  0  0  0  0  0  0  0  0  0
   26.6704   57.8970  102.4743 H   0  0  0  0  0  0  0  0  0  0  0  0
   27.3036   57.8752  104.1714 H   0  0  0  0  0  0  0  0  0  0  0  0
   25.7727   56.9614  104.8253 H   0  0  0  0  0  0  0  0  0  0  0  0
   28.1192   56.3413  103.6775 H   0  0  0  0  0  0  0  0  0  0  0  0
   29.6219   56.7607  105.3745 H   0  0  0  0  0  0  0  0  0  0  0  0
   28.2613   57.2216  106.4177 H   0  0  0  0  0  0  0  0  0  0  0  0
   30.1958   55.3230  106.3742 H   0  0  0  0  0  0  0  0  0  0  0  0
   29.8877   55.8326  109.1051 H   0  0  0  0  0  0  0  0  0  0  0  0
   31.2681   55.4662  108.0155 H   0  0  0  0  0  0  0  0  0  0  0  0
   30.5345   57.1059  108.0155 H   0  0  0  0  0  0  0  0  0  0  0  0
   29.6050   53.6316  106.7909 H   0  0  0  0  0  0  0  0  0  0  0  0
   26.9997   54.0135  106.1856 H   0  0  0  0  0  0  0  0  0  0  0  0
   28.3893   53.5542  105.1286 H   0  0  0  0  0  0  0  0  0  0  0  0
   28.1858   54.8245  102.6767 H   0  0  0  0  0  0  0  0  0  0  0  0
   26.5838   54.1473  103.4037 H   0  0  0  0  0  0  0  0  0  0  0  0
   24.7001   56.3954  101.6092 H   0  0  0  0  0  0  0  0  0  0  0  0
   26.3365   57.1694  101.0780 H   0  0  0  0  0  0  0  0  0  0  0  0
   25.5154   54.8994  102.2848 H   0  0  0  0  0  0  0  0  0  0  0  0
   22.9468   60.2403  103.1037 H   0  0  0  0  0  0  0  0  0  0  0  0
   24.0155   61.1403  104.2291 H   0  0  0  0  0  0  0  0  0  0  0  0
   25.2618   61.5633  102.8592 H   0  0  0  0  0  0  0  0  0  0  0  0
   23.4359   63.0897  104.1791 H   0  0  0  0  0  0  0  0  0  0  0  0
   24.7211   63.3794  102.8470 H   0  0  0  0  0  0  0  0  0  0  0  0
   22.0415   63.0010  102.9733 H   0  0  0  0  0  0  0  0  0  0  0  0
   22.3414   65.0015  103.3594 H   0  0  0  0  0  0  0  0  0  0  0  0
   23.1895   65.3042  101.8051 H   0  0  0  0  0  0  0  0  0  0  0  0
   21.4588   64.8232  101.8051 H   0  0  0  0  0  0  0  0  0  0  0  0
   22.9931   62.9391  100.6839 H   0  0  0  0  0  0  0  0  0  0  0  0
   23.1778   60.7422  100.3968 H   0  0  0  0  0  0  0  0  0  0  0  0
   21.8270   60.4864  101.7179 H   0  0  0  0  0  0  0  0  0  0  0  0
   21.2564   63.5580  100.2091 H   0  0  0  0  0  0  0  0  0  0  0  0
   20.0249   61.2567  100.4760 H   0  0  0  0  0  0  0  0  0  0  0  0
   19.9823   60.8360  102.1445 H   0  0  0  0  0  0  0  0  0  0  0  0
   18.0551   60.5417  102.4272 H   0  0  0  0  0  0  0  0  0  0  0  0
   17.9882   62.3586  102.9748 H   0  0  0  0  0  0  0  0  0  0  0  0
   16.7865   61.0013  100.9865 H   0  0  0  0  0  0  0  0  0  0  0  0
   16.7446   62.7424  101.6824 H   0  0  0  0  0  0  0  0  0  0  0  0
   17.7184   63.4566  100.5092 H   0  0  0  0  0  0  0  0  0  0  0  0
   19.2488   63.5876   99.6833 H   0  0  0  0  0  0  0  0  0  0  0  0
   16.9525   61.7570   98.5571 H   0  0  0  0  0  0  0  0  0  0  0  0
   15.2901   61.5797   99.2564 H   0  0  0  0  0  0  0  0  0  0  0  0
   15.2013   63.3829   99.7892 H   0  0  0  0  0  0  0  0  0  0  0  0
   14.0612   62.0763   97.6816 H   0  0  0  0  0  0  0  0  0  0  0  0
   14.0671   63.8406   98.2867 H   0  0  0  0  0  0  0  0  0  0  0  0
   14.9040   62.7249   95.9816 H   0  0  0  0  0  0  0  0  0  0  0  0
   14.9251   64.4662   96.7457 H   0  0  0  0  0  0  0  0  0  0  0  0
   16.8567   62.9012   95.8594 H   0  0  0  0  0  0  0  0  0  0  0  0
   17.9464   64.1049   97.8992 H   0  0  0  0  0  0  0  0  0  0  0  0
   17.8103   62.2736   97.3352 H   0  0  0  0  0  0  0  0  0  0  0  0
   21.6482   38.6726   14.4388 H   0  0  0  0  0  0  0  0  0  0  0  0
   20.8654   39.2318   15.6967 H   0  0  0  0  0  0  0  0  0  0  0  0
   19.4523   41.3877   15.2555 H   0  0  0  0  0  0  0  0  0  0  0  0
   20.6440   42.4617   14.7520 H   0  0  0  0  0  0  0  0  0  0  0  0
   20.7351   43.3795   16.3250 H   0  0  0  0  0  0  0  0  0  0  0  0
   22.0258   42.2011   17.0519 H   0  0  0  0  0  0  0  0  0  0  0  0
   22.0008   44.4237   15.5213 H   0  0  0  0  0  0  0  0  0  0  0  0
   21.3951   45.8403   17.3663 H   0  0  0  0  0  0  0  0  0  0  0  0
   21.7478   44.5164   18.5176 H   0  0  0  0  0  0  0  0  0  0  0  0
   22.7065   46.9777   17.9469 H   0  0  0  0  0  0  0  0  0  0  0  0
   22.6712   46.5705   20.7728 H   0  0  0  0  0  0  0  0  0  0  0  0
   22.8022   48.0388   19.7463 H   0  0  0  0  0  0  0  0  0  0  0  0
   21.2862   47.0752   19.7463 H   0  0  0  0  0  0  0  0  0  0  0  0
   24.5378   47.0813   17.9046 H   0  0  0  0  0  0  0  0  0  0  0  0
   24.9702   44.4509   17.4508 H   0  0  0  0  0  0  0  0  0  0  0  0
   24.5768   45.8079   16.2985 H   0  0  0  0  0  0  0  0  0  0  0  0
   23.3562   44.5771   14.2812 H   0  0  0  0  0  0  0  0  0  0  0  0
   24.4271   43.2806   15.1495 H   0  0  0  0  0  0  0  0  0  0  0  0
   22.4875   40.7182   13.9593 H   0  0  0  0  0  0  0  0  0  0  0  0
   21.3275   42.0235   13.2846 H   0  0  0  0  0  0  0  0  0  0  0  0
   23.8161   41.9289   14.3321 H   0  0  0  0  0  0  0  0  0  0  0  0
   19.5612   38.2745   16.0408 H   0  0  0  0  0  0  0  0  0  0  0  0
   18.7731   39.1990   17.3753 H   0  0  0  0  0  0  0  0  0  0  0  0
   17.7455   40.2469   16.1802 H   0  0  0  0  0  0  0  0  0  0  0  0
   17.0783   38.1498   17.8069 H   0  0  0  0  0  0  0  0  0  0  0  0
   16.1651   39.3065   16.6190 H   0  0  0  0  0  0  0  0  0  0  0  0
   17.0860   36.7848   16.6234 H   0  0  0  0  0  0  0  0  0  0  0  0
   15.1291   36.6901   17.4649 H   0  0  0  0  0  0  0  0  0  0  0  0
   14.3562   37.2814   15.9550 H   0  0  0  0  0  0  0  0  0  0  0  0
   15.2526   35.7248   15.9550 H   0  0  0  0  0  0  0  0  0  0  0  0
   16.7141   37.8451   14.1344 H   0  0  0  0  0  0  0  0  0  0  0  0
   18.3299   38.3064   13.5711 H   0  0  0  0  0  0  0  0  0  0  0  0
   19.1865   37.0808   14.7639 H   0  0  0  0  0  0  0  0  0  0  0  0
   15.9290   35.8334   14.2081 H   0  0  0  0  0  0  0  0  0  0  0  0
   18.5059   35.1298   14.0938 H   0  0  0  0  0  0  0  0  0  0  0  0
   19.1541   35.4216   15.6971 H   0  0  0  0  0  0  0  0  0  0  0  0
   20.0216   33.6657   16.0608 H   0  0  0  0  0  0  0  0  0  0  0  0
   18.3874   33.1879   16.9123 H   0  0  0  0  0  0  0  0  0  0  0  0
   19.7322   32.1184   14.8233 H   0  0  0  0  0  0  0  0  0  0  0  0
   18.2084   31.6953   15.7866 H   0  0  0  0  0  0  0  0  0  0  0  0
   17.0749   32.3669   14.6836 H   0  0  0  0  0  0  0  0  0  0  0  0
   16.4062   33.7163   13.8185 H   0  0  0  0  0  0  0  0  0  0  0  0
   18.5780   31.8097   12.5735 H   0  0  0  0  0  0  0  0  0  0  0  0
   19.0128   30.1961   13.3414 H   0  0  0  0  0  0  0  0  0  0  0  0
   17.3157   29.9495   14.0804 H   0  0  0  0  0  0  0  0  0  0  0  0
   18.4834   28.9041   11.8336 H   0  0  0  0  0  0  0  0  0  0  0  0
   16.8199   28.7143   12.6671 H   0  0  0  0  0  0  0  0  0  0  0  0
   17.5198   29.6171   10.2087 H   0  0  0  0  0  0  0  0  0  0  0  0
   15.8980   29.4196   11.1909 H   0  0  0  0  0  0  0  0  0  0  0  0
   17.0212   31.5011   10.0555 H   0  0  0  0  0  0  0  0  0  0  0  0
   15.9843   32.5022   12.2401 H   0  0  0  0  0  0  0  0  0  0  0  0
   17.6835   32.6465   11.3897 H   0  0  0  0  0  0  0  0  0  0  0  0
  1  2  1  0
  2  3  1  0
  3  4  1  0
  4  5  1  0
  5  6  1  0
  6  7  1  0
  7  8  1  0
  8  9  1  0
  9 10  1  0
  9 11  1  0
  7 12  1  0
 11 12  1  0
  6 13  1  0
  4 14  1  0
 13 15  1  0
 14 15  1  0
 15 16  1  0
 16 17  1  6
 16 18  1  0
 16 19  1  0
  2 20  1  0
 20 21  1  0
 21 22  1  0
 22 23  1  0
 23 24  1  0
 23 25  1  0
 20 26  1  0
 25 26  1  0
 25 27  1  0
 27 28  1  0
 28 29  1  0
 29 30  1  0
 30 31  1  0
 31 32  1  0
 28 33  1  0
 32 33  1  0
 32 34  1  0
 34 35  1  0
 35 36  1  0
 36 37  1  0
 37 38  1  0
 34 39  1  0
 38 39  1  0
 40 41  1  0
 41 42  1  0
 42 43  1  0
 43 44  1  0
 44 45  1  0
 45 46  1  0
 46 47  1  0
 47 48  1  0
 48 49  1  0
 48 50  1  0
 46 51  1  0
 50 51  1  0
 45 52  1  0
 43 53  1  0
 52 54  1  0
 53 54  1  0
 54 55  1  0
 55 56  1  6
 55 57  1  0
 55 58  1  0
 41 59  1  0
 59 60  1  0
 60 61  1  0
 61 62  1  0
 62 63  1  0
 62 64  1  0
 59 65  1  0
 64 65  1  0
 64 66  1  0
 66 67  1  0
 67 68  1  0
 68 69  1  0
 69 70  1  0
 70 71  1  0
 67 72  1  0
 71 72  1  0
 71 73  1  0
 73 74  1  0
 74 75  1  0
 75 76  1  0
 76 77  1  0
 73 78  1  0
 77 78  1  0
 79 80  1  0
 80 81  1  0
 81 82  1  0
 82 83  1  0
 83 84  1  0
 84 85  1  0
 85 86  1  0
 86 87  1  0
 87 88  1  0
 87 89  1  0
 85 90  1  0
 89 90  1  0
 84 91  1  0
 82 92  1  0
 91 93  1  0
 92 93  1  0
 93 94  1  0
 94 95  1  6
 94 96  1  0
 94 97  1  0
 80 98  1  0
 98 99  1  0
 99100  1  0
100101  1  0
101102  1  0
101103  1  0
 98104  1  0
103104  1  0
103105  1  0
105106  1  0
106107  1  0
107108  1  0
108109  1  0
109110  1  0
106111  1  0
110111  1  0
110112  1  0
112113  1  0
113114  1  0
114115  1  0
115116  1  0
112117  1  0
116117  1  0
118119  1  0
119120  1  0
120121  1  0
121122  1  0
122123  1  0
123124  1  0
124125  1  0
125126  1  0
126127  1  0
126128  1  0
124129  1  0
128129  1  0
123130  1  0
121131  1  0
130132  1  0
131132  1  0
132133  1  0
133134  1  6
133135  1  0
133136  1  0
119137  1  0
137138  1  0
138139  1  0
139140  1  0
140141  1  0
140142  1  0
137143  1  0
142143  1  0
142144  1  0
144145  1  0
145146  1  0
146147  1  0
147148  1  0
148149  1  0
145150  1  0
149150  1  0
149151  1  0
151152  1  0
152153  1  0
153154  1  0
154155  1  0
151156  1  0
155156  1  0
  1157  1  0
  2158  1  1
  3159  1  0
  4160  1  6
  5161  1  0
  5162  1  0
  6163  1  0
  8164  1  0
  8165  1  0
  9166  1  0
 10167  1  0
 10168  1  0
 10169  1  0
 11170  1  0
 12171  1  0
 12172  1  0
 13173  1  0
 13174  1  0
 14175  1  0
 14176  1  0
 15177  1  6
 20178  1  1
 21179  1  0
 21180  1  0
 22181  1  0
 22182  1  0
 23183  1  0
 24184  1  0
 24185  1  0
 24186  1  0
 25187  1  6
 26188  1  0
 26189  1  0
 27190  1  0
 28191  1  1
 29192  1  0
 30193  1  0
 30194  1  0
 31195  1  0
 31196  1  0
 32197  1  0
 33198  1  0
 34199  1  0
 35200  1  0
 35201  1  0
 36202  1  0
 36203  1  0
 37204  1  0
 37205  1  0
 38206  1  0
 39207  1  0
 39208  1  0
 40209  1  0
 41210  1  1
 42211  1  0
 43212  1  1
 44213  1  0
 44214  1  0
 45215  1  0
 47216  1  0
 47217  1  0
 48218  1  0
 49219  1  0
 49220  1  0
 49221  1  0
 50222  1  0
 51223  1  0
 51224  1  0
 52225  1  0
 52226  1  0
 53227  1  0
 53228  1  0
 54229  1  0
 59230  1  1
 60231  1  0
 60232  1  0
 61233  1  0
 61234  1  0
 62235  1  0
 63236  1  0
 63237  1  0
 63238  1  0
 64239  1  6
 65240  1  0
 65241  1  0
 66242  1  0
 67243  1  1
 68244  1  0
 69245  1  0
 69246  1  0
 70247  1  0
 70248  1  0
 71249  1  6
 72250  1  0
 73251  1  6
 74252  1  0
 74253  1  0
 75254  1  0
 75255  1  0
 76256  1  0
 76257  1  0
 77258  1  0
 78259  1  0
 78260  1  0
 79261  1  0
 80262  1  1
 81263  1  0
 82264  1  1
 83265  1  0
 83266  1  0
 84267  1  0
 86268  1  0
 86269  1  0
 87270  1  0
 88271  1  0
 88272  1  0
 88273  1  0
 89274  1  0
 90275  1  0
 90276  1  0
 91277  1  0
 91278  1  0
 92279  1  0
 92280  1  0
 93281  1  0
 98282  1  1
 99283  1  0
 99284  1  0
100285  1  0
100286  1  0
101287  1  1
102288  1  0
102289  1  0
102290  1  0
103291  1  6
104292  1  0
104293  1  0
105294  1  0
106295  1  0
107296  1  0
108297  1  0
108298  1  0
109299  1  0
109300  1  0
110301  1  1
111302  1  0
112303  1  1
113304  1  0
113305  1  0
114306  1  0
114307  1  0
115308  1  0
115309  1  0
116310  1  0
117311  1  0
117312  1  0
118313  1  0
119314  1  1
120315  1  0
121316  1  0
122317  1  0
122318  1  0
123319  1  0
125320  1  0
125321  1  0
126322  1  0
127323  1  0
127324  1  0
127325  1  0
128326  1  0
129327  1  0
129328  1  0
130329  1  0
130330  1  0
131331  1  0
131332  1  0
132333  1  0
137334  1  1
138335  1  0
138336  1  0
139337  1  0
139338  1  0
140339  1  1
141340  1  0
141341  1  0
141342  1  0
142343  1  6
143344  1  0
143345  1  0
144346  1  0
145347  1  0
146348  1  0
147349  1  0
147350  1  0
148351  1  0
148352  1  0
149353  1  0
150354  1  0
151355  1  0
152356  1  0
152357  1  0
153358  1  0
153359  1  0
154360  1  0
154361  1  0
155362  1  0
156363  1  0
156364  1  0
M  END
>  <PDBID>  (1) 
3CS9

>  <PDB ID>  (1) 
3CS9

>  <Generic Name>  (1) 
Nilotinib

>  <Brand Name>  (1) 
Tasigna

>  <DrugBank ID>  (1) 
DB04868

>  <ATC Codes>  (1) 
L01XE08

>  <Ligand ID>  (1) 
NIL

>  <Target Name>  (1) 
Tyrosine-protein kinase ABL1

>  <UniProt ID>  (1) 
P00519

>  <PDB ID.1>  (1) 
3CS9

>  <Seq. Identity>  (1) 
96%

$$$$
