PDB_DB08881_99
     RDKit          3D

 75 78  0  0  0  0  0  0  0  0999 V2000
    9.4540   -4.1760  -21.7350 C   0  0  0  0  0  0  0  0  0  0  0  0
    1.9340   -1.2310  -18.3570 C   0  0  0  0  0  0  0  0  0  0  0  0
    1.5160   -2.3160  -20.5970 C   0  0  0  0  0  0  0  0  0  0  0  0
   -0.8450   -3.0530  -20.4180 C   0  0  0  0  0  0  0  0  0  0  0  0
   -2.2070   -2.7780  -20.3740 C   0  0  0  0  0  0  0  0  0  0  0  0
   -2.6580   -1.4610  -20.4690 C   0  0  0  0  0  0  0  0  0  0  0  0
   -0.3870   -0.7200  -20.6490 C   0  0  0  0  0  0  0  0  0  0  0  0
    6.1300   -2.5620  -19.5770 C   0  0  0  0  0  0  0  0  0  0  0  0
    6.3090   -1.9530  -18.3330 C   0  0  0  0  0  0  0  0  0  0  0  0
    5.3540   -1.3930  -17.5580 N   0  0  0  0  0  0  0  0  0  0  0  0
    4.8250   -2.6070  -20.0890 C   0  0  0  0  0  0  0  0  0  0  0  0
    2.9990   -0.9880  -17.5350 N   0  0  0  0  0  0  0  0  0  0  0  0
    2.3650   -1.8860  -19.4910 C   0  0  0  0  0  0  0  0  0  0  0  0
    3.7810   -2.0440  -19.3350 C   0  0  0  0  0  0  0  0  0  0  0  0
    4.1330   -1.4740  -18.1140 C   0  0  0  0  0  0  0  0  0  0  0  0
    7.2690   -3.1240  -20.3170 C   0  0  0  0  0  0  0  0  0  0  0  0
    0.0730   -2.0290  -20.5490 C   0  0  0  0  0  0  0  0  0  0  0  0
   -1.7420   -0.4200  -20.6080 C   0  0  0  0  0  0  0  0  0  0  0  0
    0.4770    0.2870  -20.7820 F   0  0  0  0  0  0  0  0  0  0  0  0
   -0.4260   -4.3170  -20.3250 F   0  0  0  0  0  0  0  0  0  0  0  0
   -3.1160   -3.8770  -20.2300 N   0  0  0  0  0  0  0  0  0  0  0  0
   -4.8030   -3.5710  -20.1630 S   0  0  2  0  0  4  0  0  0  0  0  0
   -5.5100   -4.8280  -20.0310 O   0  0  0  0  0  0  0  0  0  0  0  0
   -5.2060   -2.5980  -21.1570 O   0  0  0  0  0  0  0  0  0  0  0  0
   -4.9970   -2.7740  -18.5710 C   0  0  0  0  0  0  0  0  0  0  0  0
   -5.0160   -3.7200  -17.3780 C   0  0  0  0  0  0  0  0  0  0  0  0
   -4.2770   -3.0960  -16.2050 C   0  0  0  0  0  0  0  0  0  0  0  0
    7.1460   -4.3190  -21.0470 C   0  0  0  0  0  0  0  0  0  0  0  0
    8.2320   -4.8460  -21.7510 C   0  0  0  0  0  0  0  0  0  0  0  0
    9.6030   -2.9860  -21.0240 C   0  0  0  0  0  0  0  0  0  0  0  0
    8.5140   -2.4650  -20.3230 C   0  0  0  0  0  0  0  0  0  0  0  0
   10.7950   -4.8200  -22.6010 Cl  0  0  0  0  0  0  0  0  0  0  0  0
    1.9420   -2.8980  -21.5920 O   0  0  0  0  0  0  0  0  0  0  0  0
    9.1530   -3.6058  -22.6262 H   0  0  0  0  0  0  0  0  0  0  0  0
    1.1997   -1.8573  -17.8293 H   0  0  0  0  0  0  0  0  0  0  0  0
    1.4670   -0.2766  -18.6416 H   0  0  0  0  0  0  0  0  0  0  0  0
    1.3418   -3.2765  -20.0899 H   0  0  0  0  0  0  0  0  0  0  0  0
   -0.8989   -3.1447  -21.5128 H   0  0  0  0  0  0  0  0  0  0  0  0
   -2.1519   -2.6802  -19.2797 H   0  0  0  0  0  0  0  0  0  0  0  0
   -3.3252   -1.4159  -21.3424 H   0  0  0  0  0  0  0  0  0  0  0  0
   -3.1053   -1.2746  -19.4815 H   0  0  0  0  0  0  0  0  0  0  0  0
   -0.4429   -0.8232  -21.7427 H   0  0  0  0  0  0  0  0  0  0  0  0
    5.9684   -3.5299  -19.0799 H   0  0  0  0  0  0  0  0  0  0  0  0
    6.7687   -2.7275  -17.7015 H   0  0  0  0  0  0  0  0  0  0  0  0
    6.8328   -1.0411  -18.6557 H   0  0  0  0  0  0  0  0  0  0  0  0
    5.3373   -1.8789  -16.6500 H   0  0  0  0  0  0  0  0  0  0  0  0
    4.8402   -2.0872  -21.0583 H   0  0  0  0  0  0  0  0  0  0  0  0
    4.5861   -3.6805  -20.1131 H   0  0  0  0  0  0  0  0  0  0  0  0
    3.0955    0.0268  -17.3873 H   0  0  0  0  0  0  0  0  0  0  0  0
    2.2058   -2.8536  -18.9926 H   0  0  0  0  0  0  0  0  0  0  0  0
    3.9437   -1.0764  -19.8322 H   0  0  0  0  0  0  0  0  0  0  0  0
    3.9713   -2.4423  -17.6179 H   0  0  0  0  0  0  0  0  0  0  0  0
    7.5641   -3.6984  -19.4265 H   0  0  0  0  0  0  0  0  0  0  0  0
    0.0184   -2.1202  -21.6439 H   0  0  0  0  0  0  0  0  0  0  0  0
   -1.9857    0.1016  -21.5453 H   0  0  0  0  0  0  0  0  0  0  0  0
   -1.8571    0.1600  -19.6805 H   0  0  0  0  0  0  0  0  0  0  0  0
   -2.9565   -4.5052  -21.0305 H   0  0  0  0  0  0  0  0  0  0  0  0
   -5.6294   -5.0403  -19.0714 H   0  0  0  0  0  0  0  0  0  0  0  0
   -5.5430   -1.7844  -20.7047 H   0  0  0  0  0  0  0  0  0  0  0  0
   -4.1613   -2.0714  -18.4366 H   0  0  0  0  0  0  0  0  0  0  0  0
   -5.9808   -2.2823  -18.5902 H   0  0  0  0  0  0  0  0  0  0  0  0
   -6.0582   -3.9184  -17.0875 H   0  0  0  0  0  0  0  0  0  0  0  0
   -4.5197   -4.6612  -17.6568 H   0  0  0  0  0  0  0  0  0  0  0  0
   -4.7101   -3.4617  -15.2623 H   0  0  0  0  0  0  0  0  0  0  0  0
   -3.2136   -3.3736  -16.2520 H   0  0  0  0  0  0  0  0  0  0  0  0
   -4.3725   -2.0012  -16.2520 H   0  0  0  0  0  0  0  0  0  0  0  0
    6.8323   -5.0925  -20.3306 H   0  0  0  0  0  0  0  0  0  0  0  0
    6.4478   -4.0416  -21.8504 H   0  0  0  0  0  0  0  0  0  0  0  0
    7.9233   -4.9221  -22.8041 H   0  0  0  0  0  0  0  0  0  0  0  0
    8.4479   -5.7869  -21.2236 H   0  0  0  0  0  0  0  0  0  0  0  0
   10.4071   -3.1491  -20.2914 H   0  0  0  0  0  0  0  0  0  0  0  0
    9.7887   -2.2372  -21.8081 H   0  0  0  0  0  0  0  0  0  0  0  0
    8.3329   -1.4594  -20.7303 H   0  0  0  0  0  0  0  0  0  0  0  0
    8.8378   -2.5533  -19.2755 H   0  0  0  0  0  0  0  0  0  0  0  0
    2.5028   -3.6641  -21.3114 H   0  0  0  0  0  0  0  0  0  0  0  0
  4  5  1  0
  5  6  1  0
  8  9  1  0
  9 10  1  0
  8 11  1  0
  2 12  1  0
  2 13  1  0
  3 13  1  0
 11 14  1  0
 13 14  1  0
 10 15  1  0
 12 15  1  0
 14 15  1  0
  8 16  1  0
  3 17  1  0
  4 17  1  0
  7 17  1  0
  6 18  1  0
  7 18  1  0
  7 19  1  0
  4 20  1  0
  5 21  1  0
 21 22  1  0
 22 23  1  1
 22 24  1  0
 22 25  1  0
 25 26  1  0
 26 27  1  0
 16 28  1  0
  1 29  1  0
 28 29  1  0
  1 30  1  0
 16 31  1  0
 30 31  1  0
  1 32  1  0
  3 33  1  0
  1 34  1  0
  2 35  1  0
  2 36  1  0
  3 37  1  0
  4 38  1  0
  5 39  1  0
  6 40  1  0
  6 41  1  0
  7 42  1  0
  8 43  1  0
  9 44  1  0
  9 45  1  0
 10 46  1  0
 11 47  1  0
 11 48  1  0
 12 49  1  0
 13 50  1  0
 14 51  1  0
 15 52  1  0
 16 53  1  0
 17 54  1  0
 18 55  1  0
 18 56  1  0
 21 57  1  0
 23 58  1  0
 24 59  1  0
 25 60  1  0
 25 61  1  0
 26 62  1  0
 26 63  1  0
 27 64  1  0
 27 65  1  0
 27 66  1  0
 28 67  1  0
 28 68  1  0
 29 69  1  0
 29 70  1  0
 30 71  1  0
 30 72  1  0
 31 73  1  0
 31 74  1  0
 33 75  1  0
M  END
>  <PDBID>  (1) 
3OG7

>  <PDB ID>  (1) 
3OG7

>  <Generic Name>  (1) 
Vemurafenib

>  <Brand Name>  (1) 
Zelboraf

>  <DrugBank ID>  (1) 
DB08881

>  <ATC Codes>  (1) 
L01XE15

>  <Ligand ID>  (1) 
032

>  <Target Name>  (1) 
Serine/threonine-protein kinase B-raf

>  <UniProt ID>  (1) 
P15056

>  <PDB ID.1>  (1) 
3OG7

>  <Seq. Identity>  (1) 
94%

$$$$
