PDB_DB00452_82
     RDKit          3D

 88 91  0  0  0  0  0  0  0  0999 V2000
  -75.4090 -115.9150    5.9120 C   0  0  2  0  0  0  0  0  0  0  0  0
  -76.4380 -115.0390    5.4980 O   0  0  0  0  0  0  0  0  0  0  0  0
  -75.6700 -117.2760    5.2350 C   0  0  2  0  0  0  0  0  0  0  0  0
  -76.1590 -117.0490    3.9100 N   0  0  0  0  0  0  0  0  0  0  0  0
  -76.6840 -118.0840    5.9140 C   0  0  1  0  0  0  0  0  0  0  0  0
  -76.5890 -119.3830    5.3800 O   0  0  0  0  0  0  0  0  0  0  0  0
  -76.4510 -118.1490    7.3110 C   0  0  2  0  0  0  0  0  0  0  0  0
  -77.5050 -118.8530    7.9280 O   0  0  0  0  0  0  0  0  0  0  0  0
  -76.4250 -116.7790    7.8990 C   0  0  2  0  0  0  0  0  0  0  0  0
  -75.3040 -115.9860    7.2970 O   0  0  0  0  0  0  0  0  0  0  0  0
  -76.3550 -116.8370    9.3980 C   0  0  0  0  0  0  0  0  0  0  0  0
  -75.9020 -111.9880    2.5380 C   0  0  1  0  0  0  0  0  0  0  0  0
  -74.6880 -111.1910    2.4190 N   0  0  0  0  0  0  0  0  0  0  0  0
  -75.6050 -113.4480    2.1700 C   0  0  1  0  0  0  0  0  0  0  0  0
  -75.8540 -114.5310    3.2430 C   0  0  1  0  0  0  0  0  0  0  0  0
  -74.8560 -115.5350    3.2520 O   0  0  0  0  0  0  0  0  0  0  0  0
  -75.9080 -114.0350    4.6530 C   0  0  1  0  0  0  0  0  0  0  0  0
  -76.7660 -112.8000    4.8730 C   0  0  1  0  0  0  0  0  0  0  0  0
  -76.5750 -112.3670    6.2310 N   0  0  0  0  0  0  0  0  0  0  0  0
  -76.4960 -111.6590    3.8860 C   0  0  0  0  0  0  0  0  0  0  0  0
  -74.4430 -116.1650    2.0360 C   0  0  1  0  0  0  0  0  0  0  0  0
  -73.9550 -117.5540    2.2290 C   0  0  1  0  0  0  0  0  0  0  0  0
  -73.4520 -117.7530    0.9220 C   0  0  1  0  0  0  0  0  0  0  0  0
  -74.4980 -117.1080    0.0820 C   0  0  2  0  0  0  0  0  0  0  0  0
  -75.3520 -116.4160    0.9520 O   0  0  0  0  0  0  0  0  0  0  0  0
  -75.2410 -118.0560   -0.8330 C   0  0  0  0  0  0  0  0  0  0  0  0
  -69.2490 -116.8910   -1.2810 C   0  0  1  0  0  0  0  0  0  0  0  0
  -69.4670 -116.1210   -0.0540 C   0  0  1  0  0  0  0  0  0  0  0  0
  -69.8870 -116.9900    0.9690 C   0  0  2  0  0  0  0  0  0  0  0  0
  -71.1250 -117.7530    0.5980 C   0  0  1  0  0  0  0  0  0  0  0  0
  -72.2770 -116.9740    0.8560 O   0  0  0  0  0  0  0  0  0  0  0  0
  -70.5920 -117.4000   -1.7420 C   0  0  1  0  0  0  0  0  0  0  0  0
  -71.1460 -118.2660   -0.8070 O   0  0  0  0  0  0  0  0  0  0  0  0
  -71.5590 -116.2490   -1.9540 C   0  0  0  0  0  0  0  0  0  0  0  0
  -77.3060 -117.7230   10.0730 N   0  0  0  0  0  0  0  0  0  0  0  0
  -72.9660 -117.5030    3.1780 O   0  0  0  0  0  0  0  0  0  0  0  0
  -68.2340 -115.4910    0.3170 O   0  0  0  0  0  0  0  0  0  0  0  0
  -68.6590 -116.0930   -2.2790 O   0  0  0  0  0  0  0  0  0  0  0  0
  -74.5280 -118.6580   -1.8250 O   0  0  0  0  0  0  0  0  0  0  0  0
  -76.3980 -113.7310    1.1090 O   0  0  0  0  0  0  0  0  0  0  0  0
  -71.3380 -115.4240   -3.1130 N   0  0  0  0  0  0  0  0  0  0  0  0
  -70.2460 -116.1130    2.0730 N   0  0  0  0  0  0  0  0  0  0  0  0
  -74.4247 -115.5393    5.5958 H   0  0  0  0  0  0  0  0  0  0  0  0
  -74.7126 -117.8170    5.2609 H   0  0  0  0  0  0  0  0  0  0  0  0
  -77.0922 -116.6158    3.9580 H   0  0  0  0  0  0  0  0  0  0  0  0
  -75.5143 -116.4211    3.4090 H   0  0  0  0  0  0  0  0  0  0  0  0
  -77.6772 -117.6365    5.7614 H   0  0  0  0  0  0  0  0  0  0  0  0
  -76.5409 -120.0406    6.1184 H   0  0  0  0  0  0  0  0  0  0  0  0
  -75.4862 -118.6508    7.4763 H   0  0  0  0  0  0  0  0  0  0  0  0
  -77.4120 -118.7909    8.9117 H   0  0  0  0  0  0  0  0  0  0  0  0
  -77.3641 -116.2610    7.6545 H   0  0  0  0  0  0  0  0  0  0  0  0
  -75.3419 -117.1677    9.6706 H   0  0  0  0  0  0  0  0  0  0  0  0
  -76.6180 -115.8239    9.7363 H   0  0  0  0  0  0  0  0  0  0  0  0
  -76.6996 -111.7532    1.8178 H   0  0  0  0  0  0  0  0  0  0  0  0
  -74.3357 -110.9597    3.3588 H   0  0  0  0  0  0  0  0  0  0  0  0
  -73.9736 -111.7280    1.9070 H   0  0  0  0  0  0  0  0  0  0  0  0
  -74.5200 -113.4957    1.9956 H   0  0  0  0  0  0  0  0  0  0  0  0
  -76.8395 -114.9151    2.9409 H   0  0  0  0  0  0  0  0  0  0  0  0
  -74.8656 -113.7713    4.8849 H   0  0  0  0  0  0  0  0  0  0  0  0
  -77.8135 -113.0793    4.6865 H   0  0  0  0  0  0  0  0  0  0  0  0
  -76.8995 -113.1026    6.8748 H   0  0  0  0  0  0  0  0  0  0  0  0
  -75.5749 -112.1835    6.3954 H   0  0  0  0  0  0  0  0  0  0  0  0
  -77.4572 -111.1569    3.7017 H   0  0  0  0  0  0  0  0  0  0  0  0
  -75.7176 -111.0590    4.3800 H   0  0  0  0  0  0  0  0  0  0  0  0
  -73.7361 -115.3663    1.7669 H   0  0  0  0  0  0  0  0  0  0  0  0
  -74.6547 -118.3323    2.5677 H   0  0  0  0  0  0  0  0  0  0  0  0
  -73.2434 -118.7936    0.6328 H   0  0  0  0  0  0  0  0  0  0  0  0
  -74.0135 -116.4180   -0.6246 H   0  0  0  0  0  0  0  0  0  0  0  0
  -75.6700 -118.8514   -0.2058 H   0  0  0  0  0  0  0  0  0  0  0  0
  -75.9737 -117.4246   -1.3569 H   0  0  0  0  0  0  0  0  0  0  0  0
  -68.5622 -117.7276   -1.0848 H   0  0  0  0  0  0  0  0  0  0  0  0
  -70.2398 -115.3551   -0.2156 H   0  0  0  0  0  0  0  0  0  0  0  0
  -69.0946 -117.7202    1.1902 H   0  0  0  0  0  0  0  0  0  0  0  0
  -71.1204 -118.6492    1.2357 H   0  0  0  0  0  0  0  0  0  0  0  0
  -70.4279 -117.9337   -2.6897 H   0  0  0  0  0  0  0  0  0  0  0  0
  -72.5703 -116.6740   -2.0353 H   0  0  0  0  0  0  0  0  0  0  0  0
  -71.4086 -115.5826   -1.0919 H   0  0  0  0  0  0  0  0  0  0  0  0
  -77.2015 -117.6256   11.0930 H   0  0  0  0  0  0  0  0  0  0  0  0
  -78.2659 -117.4679    9.8003 H   0  0  0  0  0  0  0  0  0  0  0  0
  -73.3730 -117.5240    4.0802 H   0  0  0  0  0  0  0  0  0  0  0  0
  -68.1653 -115.4559    1.3040 H   0  0  0  0  0  0  0  0  0  0  0  0
  -68.1272 -115.3737   -1.8548 H   0  0  0  0  0  0  0  0  0  0  0  0
  -73.8358 -119.2425   -1.4258 H   0  0  0  0  0  0  0  0  0  0  0  0
  -77.2798 -114.0457    1.4307 H   0  0  0  0  0  0  0  0  0  0  0  0
  -71.0830 -114.4721   -2.8133 H   0  0  0  0  0  0  0  0  0  0  0  0
  -70.5741 -115.8224   -3.6774 H   0  0  0  0  0  0  0  0  0  0  0  0
  -70.0516 -116.5880    2.9660 H   0  0  0  0  0  0  0  0  0  0  0  0
  -69.6920 -115.2465    2.0173 H   0  0  0  0  0  0  0  0  0  0  0  0
  2  1  1  0
  3  1  1  0
  4  3  1  0
  5  3  1  0
  6  5  1  0
  7  5  1  0
  8  7  1  0
  9  7  1  0
 10  9  1  0
 10  1  1  0
 11  9  1  0
 13 12  1  0
 14 12  1  0
 15 14  1  0
 16 15  1  0
 17  2  1  0
 17 15  1  0
 18 17  1  0
 19 18  1  0
 20 18  1  0
 20 12  1  0
 21 16  1  0
 22 21  1  0
 23 22  1  0
 24 23  1  0
 25 24  1  0
 25 21  1  0
 26 24  1  0
 28 27  1  0
 29 28  1  0
 30 29  1  0
 31 30  1  0
 31 23  1  0
 32 27  1  0
 33 30  1  0
 33 32  1  0
 34 32  1  0
 35 11  1  0
 36 22  1  0
 37 28  1  0
 38 27  1  0
 39 26  1  0
 40 14  1  0
 41 34  1  0
 42 29  1  0
  1 43  1  6
  3 44  1  6
  4 45  1  0
  4 46  1  0
  5 47  1  1
  6 48  1  0
  7 49  1  6
  8 50  1  0
  9 51  1  1
 11 52  1  0
 11 53  1  0
 12 54  1  6
 13 55  1  0
 13 56  1  0
 14 57  1  6
 15 58  1  6
 17 59  1  1
 18 60  1  1
 19 61  1  0
 19 62  1  0
 20 63  1  0
 20 64  1  0
 21 65  1  6
 22 66  1  1
 23 67  1  6
 24 68  1  6
 26 69  1  0
 26 70  1  0
 27 71  1  1
 28 72  1  6
 29 73  1  1
 30 74  1  1
 32 75  1  6
 34 76  1  0
 34 77  1  0
 35 78  1  0
 35 79  1  0
 36 80  1  0
 37 81  1  0
 38 82  1  0
 39 83  1  0
 40 84  1  0
 41 85  1  0
 41 86  1  0
 42 87  1  0
 42 88  1  0
M  END
$$$$
