PDB_DB00819_77
     RDKit          3D

 19 19  0  0  0  0  0  0  0  0999 V2000
   16.6360   -1.0040   10.2100 C   0  0  0  0  0  0  0  0  0  0  0  0
   16.0890   -2.6880   11.6600 C   0  0  0  0  0  0  0  0  0  0  0  0
   16.6750   -4.5910   13.1670 C   0  0  0  0  0  0  0  0  0  0  0  0
   16.0380   -5.6050   14.0930 C   0  0  0  0  0  0  0  0  0  0  0  0
   16.5190    0.1700    7.8050 N   0  0  0  0  0  0  0  0  0  0  0  0
   15.0250   -2.0420   11.2670 N   0  0  0  0  0  0  0  0  0  0  0  0
   15.3470   -1.0280   10.3950 N   0  0  0  0  0  0  0  0  0  0  0  0
   15.8030   -3.7090   12.5420 N   0  0  0  0  0  0  0  0  0  0  0  0
   18.7530   -0.2270    8.8590 O   0  0  0  0  0  0  0  0  0  0  0  0
   17.4280    1.4710    9.8580 O   0  0  0  0  0  0  0  0  0  0  0  0
   17.8940   -4.6180   13.0490 O   0  0  0  0  0  0  0  0  0  0  0  0
   17.3890    0.2050    9.1320 S   0  0  0  0  0  0  0  0  0  0  0  0
   17.5780   -2.1730   11.0420 S   0  0  0  0  0  0  0  0  0  0  0  0
   16.2212   -5.3134   15.1377 H   0  0  0  0  0  0  0  0  0  0  0  0
   14.9544   -5.6415   13.9071 H   0  0  0  0  0  0  0  0  0  0  0  0
   16.4755   -6.5970   13.9071 H   0  0  0  0  0  0  0  0  0  0  0  0
   15.5195    0.1298    8.0507 H   0  0  0  0  0  0  0  0  0  0  0  0
   16.7026    1.0191    7.2516 H   0  0  0  0  0  0  0  0  0  0  0  0
   14.8060   -3.8346   12.7682 H   0  0  0  0  0  0  0  0  0  0  0  0
  3  4  1  0
  2  6  2  0
  1  7  2  0
  6  7  1  0
  2  8  1  0
  3  8  1  0
  3 11  2  0
  1 12  1  0
  5 12  1  0
  9 12  2  0
 10 12  2  0
  1 13  1  0
  2 13  1  0
  4 14  1  0
  4 15  1  0
  4 16  1  0
  5 17  1  0
  5 18  1  0
  8 19  1  0
M  END
$$$$
