PDB_DB00932_98
     RDKit          3D

 99102  0  0  0  0  0  0  0  0999 V2000
  -16.0880   22.0460   17.0640 O   0  0  0  0  0  0  0  0  0  0  0  0
  -17.3050   21.3080   17.2500 C   0  0  0  0  0  0  0  0  0  0  0  0
  -17.2570   19.9700   17.8440 C   0  0  1  0  0  0  0  0  0  0  0  0
  -16.0410   19.4140   18.0920 C   0  0  0  0  0  0  0  0  0  0  0  0
  -14.7450   20.1290   17.7510 C   0  0  0  0  0  0  0  0  0  0  0  0
  -14.8580   21.6540   17.6830 C   0  0  2  0  0  0  0  0  0  0  0  0
  -18.3210   21.8640   16.8750 O   0  0  0  0  0  0  0  0  0  0  0  0
  -15.9190   18.1980   18.6100 O   0  0  0  0  0  0  0  0  0  0  0  0
  -14.7790   22.2010   19.1190 C   0  0  0  0  0  0  0  0  0  0  0  0
  -14.9540   23.7160   19.2320 C   0  0  0  0  0  0  0  0  0  0  0  0
  -14.8230   24.1530   20.6710 C   0  0  0  0  0  0  0  0  0  0  0  0
  -13.7470   22.2220   16.7960 C   0  0  0  0  0  0  0  0  0  0  0  0
  -13.8150   21.7920   15.3290 C   0  0  0  0  0  0  0  0  0  0  0  0
  -12.7100   22.4940   14.5620 C   0  0  0  0  0  0  0  0  0  0  0  0
  -11.4090   21.9960   14.6290 C   0  0  0  0  0  0  0  0  0  0  0  0
  -10.3780   22.6300   13.9420 C   0  0  0  0  0  0  0  0  0  0  0  0
  -10.6470   23.7590   13.1720 C   0  0  0  0  0  0  0  0  0  0  0  0
  -11.9520   24.2610   13.0980 C   0  0  0  0  0  0  0  0  0  0  0  0
  -12.9830   23.6270   13.7910 C   0  0  0  0  0  0  0  0  0  0  0  0
  -18.5930   19.2740   18.0760 C   0  0  2  0  0  0  0  0  0  0  0  0
  -18.6860   18.4680   19.3850 C   0  0  0  0  0  0  0  0  0  0  0  0
  -18.5710   19.3060   20.6440 C   0  0  0  0  0  0  0  0  0  0  0  0
  -18.9780   18.4390   16.8780 C   0  0  0  0  0  0  0  0  0  0  0  0
  -18.0340   18.0090   15.9410 C   0  0  0  0  0  0  0  0  0  0  0  0
  -18.4250   17.2430   14.8460 C   0  0  0  0  0  0  0  0  0  0  0  0
  -19.7590   16.8950   14.6730 C   0  0  0  0  0  0  0  0  0  0  0  0
  -20.7190   17.3000   15.5930 C   0  0  0  0  0  0  0  0  0  0  0  0
  -22.0280   16.9480   15.4050 N   0  0  0  0  0  0  0  0  0  0  0  0
  -20.3210   18.0740   16.6870 C   0  0  0  0  0  0  0  0  0  0  0  0
  -22.6400   15.5980   16.0560 S   0  0  2  0  0  4  0  0  0  0  0  0
  -21.7500   14.5110   15.6780 O   0  0  0  0  0  0  0  0  0  0  0  0
  -24.0140   15.4550   15.6110 O   0  0  0  0  0  0  0  0  0  0  0  0
  -22.5560   15.8920   17.6470 C   0  0  1  0  0  0  0  0  0  0  0  0
  -21.5050   15.4150   18.3750 N   0  0  0  0  0  0  0  0  0  0  0  0
  -21.3790   15.6760   19.6930 C   0  0  0  0  0  0  0  0  0  0  0  0
  -22.3150   16.4520   20.3730 C   0  0  0  0  0  0  0  0  0  0  0  0
  -23.3950   16.9690   19.6480 C   0  0  0  0  0  0  0  0  0  0  0  0
  -23.5280   16.6890   18.2820 C   0  0  0  0  0  0  0  0  0  0  0  0
  -22.1310   16.7670   21.8380 C   0  0  2  0  0  0  0  0  0  0  0  0
  -21.4310   15.8570   22.4940 F   0  0  0  0  0  0  0  0  0  0  0  0
  -23.2750   16.9800   22.4520 F   0  0  0  0  0  0  0  0  0  0  0  0
  -21.4210   17.8850   21.8740 F   0  0  0  0  0  0  0  0  0  0  0  0
  -17.1909   20.8675   16.2485 H   0  0  0  0  0  0  0  0  0  0  0  0
  -17.2560   19.5237   16.8386 H   0  0  0  0  0  0  0  0  0  0  0  0
  -16.0487   18.9519   17.0938 H   0  0  0  0  0  0  0  0  0  0  0  0
  -14.0000   19.8740   18.5191 H   0  0  0  0  0  0  0  0  0  0  0  0
  -14.4586   19.7922   16.7438 H   0  0  0  0  0  0  0  0  0  0  0  0
  -18.8486   22.1527   17.6613 H   0  0  0  0  0  0  0  0  0  0  0  0
  -15.9250   18.2581   19.5982 H   0  0  0  0  0  0  0  0  0  0  0  0
  -15.5685   21.7188   19.7141 H   0  0  0  0  0  0  0  0  0  0  0  0
  -13.7661   21.9754   19.4840 H   0  0  0  0  0  0  0  0  0  0  0  0
  -14.1819   24.2164   18.6291 H   0  0  0  0  0  0  0  0  0  0  0  0
  -15.9544   23.9888   18.8650 H   0  0  0  0  0  0  0  0  0  0  0  0
  -15.0751   23.3122   21.3339 H   0  0  0  0  0  0  0  0  0  0  0  0
  -13.7889   24.4747   20.8638 H   0  0  0  0  0  0  0  0  0  0  0  0
  -15.5096   24.9905   20.8638 H   0  0  0  0  0  0  0  0  0  0  0  0
  -13.8061   23.3197   16.8340 H   0  0  0  0  0  0  0  0  0  0  0  0
  -12.8007   21.8247   17.1919 H   0  0  0  0  0  0  0  0  0  0  0  0
  -13.6809   20.7026   15.2565 H   0  0  0  0  0  0  0  0  0  0  0  0
  -14.7936   22.0618   14.9054 H   0  0  0  0  0  0  0  0  0  0  0  0
  -12.5103   23.1331   15.4347 H   0  0  0  0  0  0  0  0  0  0  0  0
  -11.1259   21.9936   15.6919 H   0  0  0  0  0  0  0  0  0  0  0  0
  -11.4874   21.0241   14.1198 H   0  0  0  0  0  0  0  0  0  0  0  0
   -9.6317   22.9280   14.6932 H   0  0  0  0  0  0  0  0  0  0  0  0
  -10.0725   21.8814   13.1962 H   0  0  0  0  0  0  0  0  0  0  0  0
  -10.0167   24.5698   13.5661 H   0  0  0  0  0  0  0  0  0  0  0  0
  -10.4485   23.4180   12.1452 H   0  0  0  0  0  0  0  0  0  0  0  0
  -11.9146   25.2980   13.4631 H   0  0  0  0  0  0  0  0  0  0  0  0
  -12.2233   24.1060   12.0433 H   0  0  0  0  0  0  0  0  0  0  0  0
  -13.7331   23.3298   13.0433 H   0  0  0  0  0  0  0  0  0  0  0  0
  -13.2851   24.3759   14.5380 H   0  0  0  0  0  0  0  0  0  0  0  0
  -19.3267   20.0840   18.2009 H   0  0  0  0  0  0  0  0  0  0  0  0
  -19.6568   17.9510   19.4029 H   0  0  0  0  0  0  0  0  0  0  0  0
  -17.8320   17.7747   19.3892 H   0  0  0  0  0  0  0  0  0  0  0  0
  -18.6602   18.6557   21.5267 H   0  0  0  0  0  0  0  0  0  0  0  0
  -17.5949   19.8129   20.6592 H   0  0  0  0  0  0  0  0  0  0  0  0
  -19.3745   20.0571   20.6592 H   0  0  0  0  0  0  0  0  0  0  0  0
  -19.1422   19.3554   16.2921 H   0  0  0  0  0  0  0  0  0  0  0  0
  -17.5548   18.9135   15.5382 H   0  0  0  0  0  0  0  0  0  0  0  0
  -17.4092   17.3130   16.5200 H   0  0  0  0  0  0  0  0  0  0  0  0
  -18.1250   17.8011   13.9468 H   0  0  0  0  0  0  0  0  0  0  0  0
  -17.9373   16.2748   15.0325 H   0  0  0  0  0  0  0  0  0  0  0  0
  -20.0664   17.3003   13.6977 H   0  0  0  0  0  0  0  0  0  0  0  0
  -19.7469   15.8017   14.7934 H   0  0  0  0  0  0  0  0  0  0  0  0
  -20.8838   18.2215   15.0153 H   0  0  0  0  0  0  0  0  0  0  0  0
  -22.5942   17.7284   15.7673 H   0  0  0  0  0  0  0  0  0  0  0  0
  -20.6224   17.5177   17.5868 H   0  0  0  0  0  0  0  0  0  0  0  0
  -20.8018   19.0414   16.4796 H   0  0  0  0  0  0  0  0  0  0  0  0
  -21.3945   14.0768   16.4936 H   0  0  0  0  0  0  0  0  0  0  0  0
  -24.6111   15.3929   16.3982 H   0  0  0  0  0  0  0  0  0  0  0  0
  -23.1151   14.9662   17.8476 H   0  0  0  0  0  0  0  0  0  0  0  0
  -21.5313   14.3894   18.2840 H   0  0  0  0  0  0  0  0  0  0  0  0
  -21.3554   14.7010   20.2018 H   0  0  0  0  0  0  0  0  0  0  0  0
  -20.4794   16.3082   19.7244 H   0  0  0  0  0  0  0  0  0  0  0  0
  -21.7303   17.3558   20.1465 H   0  0  0  0  0  0  0  0  0  0  0  0
  -24.3091   16.6006   20.1366 H   0  0  0  0  0  0  0  0  0  0  0  0
  -23.2099   18.0532   19.6636 H   0  0  0  0  0  0  0  0  0  0  0  0
  -23.5455   17.6549   17.7560 H   0  0  0  0  0  0  0  0  0  0  0  0
  -24.4425   16.0802   18.2272 H   0  0  0  0  0  0  0  0  0  0  0  0
  1  2  1  0
  2  3  1  0
  3  4  1  0
  4  5  1  0
  1  6  1  0
  5  6  1  0
  2  7  1  0
  4  8  1  0
  6  9  1  1
  9 10  1  0
 10 11  1  0
  6 12  1  0
 12 13  1  0
 13 14  1  0
 14 15  1  0
 15 16  1  0
 16 17  1  0
 17 18  1  0
 14 19  1  0
 18 19  1  0
  3 20  1  0
 20 21  1  0
 21 22  1  0
 20 23  1  0
 23 24  1  0
 24 25  1  0
 25 26  1  0
 26 27  1  0
 27 28  1  0
 23 29  1  0
 27 29  1  0
 28 30  1  0
 30 31  1  1
 30 32  1  0
 30 33  1  0
 33 34  1  0
 34 35  1  0
 35 36  1  0
 36 37  1  0
 33 38  1  0
 37 38  1  0
 36 39  1  0
 39 40  1  1
 39 41  1  0
 39 42  1  0
  2 43  1  0
  3 44  1  1
  4 45  1  0
  5 46  1  0
  5 47  1  0
  7 48  1  0
  8 49  1  0
  9 50  1  0
  9 51  1  0
 10 52  1  0
 10 53  1  0
 11 54  1  0
 11 55  1  0
 11 56  1  0
 12 57  1  0
 12 58  1  0
 13 59  1  0
 13 60  1  0
 14 61  1  0
 15 62  1  0
 15 63  1  0
 16 64  1  0
 16 65  1  0
 17 66  1  0
 17 67  1  0
 18 68  1  0
 18 69  1  0
 19 70  1  0
 19 71  1  0
 20 72  1  1
 21 73  1  0
 21 74  1  0
 22 75  1  0
 22 76  1  0
 22 77  1  0
 23 78  1  0
 24 79  1  0
 24 80  1  0
 25 81  1  0
 25 82  1  0
 26 83  1  0
 26 84  1  0
 27 85  1  0
 28 86  1  0
 29 87  1  0
 29 88  1  0
 31 89  1  0
 32 90  1  0
 33 91  1  1
 34 92  1  0
 35 93  1  0
 35 94  1  0
 36 95  1  0
 37 96  1  0
 37 97  1  0
 38 98  1  0
 38 99  1  0
M  END
>  <PDBID>  (1) 
2O4L

>  <PDB ID>  (1) 
2O4L

>  <Generic Name>  (1) 
Tipranavir

>  <Brand Name>  (1) 
Aptivus

>  <DrugBank ID>  (1) 
DB00932

>  <ATC Codes>  (1) 
J05AE09

>  <Ligand ID>  (1) 
TPV

>  <Target Name>  (1) 
Pol polyprotein

>  <UniProt ID>  (1) 
Q72874

>  <PDB ID.1>  (1) 
2O4L

>  <Seq. Identity>  (1) 
97%

$$$$
