PDB_DB00563_98
     RDKit          3D

 55 57  0  0  0  0  0  0  0  0999 V2000
   13.7900   -8.0710  -15.3750 N   0  0  0  0  0  0  0  0  0  0  0  0
   13.5670   -8.1020  -14.0340 C   0  0  0  0  0  0  0  0  0  0  0  0
   13.3220   -9.3020  -13.4380 N   0  0  0  0  0  0  0  0  0  0  0  0
   13.6170   -6.9460  -13.2890 N   0  0  0  0  0  0  0  0  0  0  0  0
   13.8530   -5.7390  -13.8280 C   0  0  0  0  0  0  0  0  0  0  0  0
   13.8750   -4.5690  -13.1010 N   0  0  0  0  0  0  0  0  0  0  0  0
   14.0970   -5.6660  -15.2410 C   0  0  0  0  0  0  0  0  0  0  0  0
   14.3620   -4.4500  -15.8140 N   0  0  0  0  0  0  0  0  0  0  0  0
   14.5570   -4.4340  -17.1310 C   0  0  0  0  0  0  0  0  0  0  0  0
   14.5080   -5.6550  -17.8760 C   0  0  0  0  0  0  0  0  0  0  0  0
   14.2620   -6.8530  -17.3460 N   0  0  0  0  0  0  0  0  0  0  0  0
   14.0540   -6.8690  -15.9790 C   0  0  0  0  0  0  0  0  0  0  0  0
   14.8270   -3.0620  -17.6710 C   0  0  0  0  0  0  0  0  0  0  0  0
   14.7650   -3.0040  -19.1580 N   0  0  0  0  0  0  0  0  0  0  0  0
   15.9530   -2.9930  -20.0180 C   0  0  0  0  0  0  0  0  0  0  0  0
   10.9830   -3.6320  -20.9860 C   0  0  0  0  0  0  0  0  0  0  0  0
   11.0400   -3.5140  -19.5840 C   0  0  0  0  0  0  0  0  0  0  0  0
   12.2910   -3.2950  -19.0170 C   0  0  0  0  0  0  0  0  0  0  0  0
   13.4950   -3.2140  -19.7500 C   0  0  0  0  0  0  0  0  0  0  0  0
   13.3980   -3.3460  -21.1550 C   0  0  0  0  0  0  0  0  0  0  0  0
   12.1630   -3.5410  -21.7330 C   0  0  0  0  0  0  0  0  0  0  0  0
    9.7410   -3.8570  -21.7510 C   0  0  0  0  0  0  0  0  0  0  0  0
    9.6030   -3.5050  -22.9290 O   0  0  0  0  0  0  0  0  0  0  0  0
    8.6850   -4.2550  -20.9790 N   0  0  0  0  0  0  0  0  0  0  0  0
    7.3350   -4.2060  -21.5260 C   0  0  2  0  0  0  0  0  0  0  0  0
    6.3420   -4.3580  -20.3940 C   0  0  0  0  0  0  0  0  0  0  0  0
    5.1360   -4.2550  -20.6600 O   0  0  0  0  0  0  0  0  0  0  0  0
    6.7960   -4.5330  -19.2370 O   0  0  0  0  0  0  0  0  0  0  0  0
    7.1010   -5.3000  -22.5740 C   0  0  0  0  0  0  0  0  0  0  0  0
    7.2440   -6.6640  -21.9120 C   0  0  0  0  0  0  0  0  0  0  0  0
    7.3410   -7.7990  -22.9150 C   0  0  0  0  0  0  0  0  0  0  0  0
    7.3160   -7.5450  -24.1450 O   0  0  0  0  0  0  0  0  0  0  0  0
    7.4500   -8.9540  -22.4650 O   0  0  0  0  0  0  0  0  0  0  0  0
   13.1506   -9.3476  -12.4234 H   0  0  0  0  0  0  0  0  0  0  0  0
   13.3082  -10.1638  -14.0019 H   0  0  0  0  0  0  0  0  0  0  0  0
   14.0621   -3.6728  -13.5730 H   0  0  0  0  0  0  0  0  0  0  0  0
   13.7043   -4.5904  -12.0855 H   0  0  0  0  0  0  0  0  0  0  0  0
   14.6855   -5.6011  -18.9602 H   0  0  0  0  0  0  0  0  0  0  0  0
   14.0775   -2.3692  -17.2608 H   0  0  0  0  0  0  0  0  0  0  0  0
   15.8480   -2.7833  -17.3712 H   0  0  0  0  0  0  0  0  0  0  0  0
   16.8581   -2.9846  -19.3929 H   0  0  0  0  0  0  0  0  0  0  0  0
   15.9543   -3.8912  -20.6530 H   0  0  0  0  0  0  0  0  0  0  0  0
   15.9376   -2.0950  -20.6530 H   0  0  0  0  0  0  0  0  0  0  0  0
   10.1346   -3.5916  -18.9642 H   0  0  0  0  0  0  0  0  0  0  0  0
   12.3460   -3.1770  -17.9247 H   0  0  0  0  0  0  0  0  0  0  0  0
   14.3012   -3.2934  -21.7807 H   0  0  0  0  0  0  0  0  0  0  0  0
   12.1016   -3.6289  -22.8278 H   0  0  0  0  0  0  0  0  0  0  0  0
    8.8426   -4.5874  -20.0169 H   0  0  0  0  0  0  0  0  0  0  0  0
    7.2006   -3.2368  -22.0286 H   0  0  0  0  0  0  0  0  0  0  0  0
    4.4609   -4.3493  -19.9420 H   0  0  0  0  0  0  0  0  0  0  0  0
    6.0890   -5.1983  -22.9928 H   0  0  0  0  0  0  0  0  0  0  0  0
    7.8398   -5.2018  -23.3831 H   0  0  0  0  0  0  0  0  0  0  0  0
    8.1550   -6.6614  -21.2955 H   0  0  0  0  0  0  0  0  0  0  0  0
    6.3413   -6.8339  -21.3068 H   0  0  0  0  0  0  0  0  0  0  0  0
    7.3789   -8.2812  -24.8039 H   0  0  0  0  0  0  0  0  0  0  0  0
  1  2  2  0
  2  3  1  0
  2  4  1  0
  4  5  2  0
  5  6  1  0
  5  7  1  0
  7  8  1  0
  8  9  2  0
  9 10  1  0
 10 11  2  0
  1 12  1  0
  7 12  2  0
 11 12  1  0
  9 13  1  0
 13 14  1  0
 14 15  1  0
 16 17  2  0
 17 18  1  0
 14 19  1  0
 18 19  2  0
 19 20  1  0
 16 21  1  0
 20 21  2  0
 16 22  1  0
 22 23  2  0
 22 24  1  0
 24 25  1  0
 25 26  1  0
 26 27  1  0
 26 28  2  0
 25 29  1  0
 29 30  1  0
 30 31  1  0
 31 32  1  0
 31 33  2  0
  3 34  1  0
  3 35  1  0
  6 36  1  0
  6 37  1  0
 10 38  1  0
 13 39  1  0
 13 40  1  0
 15 41  1  0
 15 42  1  0
 15 43  1  0
 17 44  1  0
 18 45  1  0
 20 46  1  0
 21 47  1  0
 24 48  1  0
 25 49  1  6
 27 50  1  0
 29 51  1  0
 29 52  1  0
 30 53  1  0
 30 54  1  0
 32 55  1  0
M  END
>  <PDBID>  (1) 
3EIG

>  <PDB ID>  (1) 
3EIG

>  <Generic Name>  (1) 
Methotrexate

>  <Brand Name>  (1) 
Apo-methotrexate#Jamp-methotrexate#Methotrexate#Methotrexate Dbl Inj 10mg/ml#Methotrexate Dbl Inj 2.5mg/ml#Methotrexate Dbl Inj 25mg/ml#Methotrexate Injection BP#Methotrexate Injection USP#Methotrexate Injection, BP#Methotrexate Injection, USP#Methotrexate PF/sa Injection#Methotrexate Sod Inj 25mg/ml USP#Methotrexate Sodium#Methotrexate Sodium Inj 20mg#Methotrexate Sodium Inj 25.0mg/ml#Methotrexate Sodium Inj 25mg/ml#Methotrexate Sodium Inj 25mg/ml USP#Methotrexate Sodium Injection#Methotrexate Sodium Injection USP#Methotrexate Tab 2.5mg#Methotrexate Tab 2.5mg USP#Methotrexate Tablets, USP#Methotrexate-liq Im IV Iar Int Ivr 25mg/ml#Methotrexate-pws Im IV Iar Int Ivr 20mg/vial#Metoject#Metoject Subcutaneous#Otrexup#Rasuvo#Ratio-methotrexate Sodium#Rheumatrex Dose Pack#Rheumatrex Tab 2.5mg#Rheumatrex-tab 2.5mg#Trexall#Abitrexate#Alltrex#Artrait#Atrexel#Bendatrexat#Carditrex#Dermotrex#Ebetrex#Emtexate#Ledertrexate#Maxtrex#Meisusheng#Mexate#Rheumatrex#Trexan#Zexate

>  <DrugBank ID>  (1) 
DB00563

>  <ATC Codes>  (1) 
L01BA01#L04AX03

>  <Ligand ID>  (1) 
MTX

>  <Target Name>  (1) 
Dihydrofolate reductase

>  <UniProt ID>  (1) 
P00374

>  <PDB ID.1>  (1) 
3EIG

>  <Seq. Identity>  (1) 
99%

$$$$
