PDB_DB00282_97
     RDKit          3D

 28 27  0  0  0  0  0  0  0  0999 V2000
   15.0900   35.6680   -7.4960 P   0  0  0  0  0  5  0  0  0  0  0  0
   16.5010   35.6940   -6.8110 O   0  0  0  0  0  0  0  0  0  0  0  0
   14.8350   36.8910   -8.3940 O   0  0  0  0  0  0  0  0  0  0  0  0
   14.1670   35.6740   -6.3130 O   0  0  0  0  0  0  0  0  0  0  0  0
   14.8440   34.1030   -8.4100 C   0  0  2  0  0  0  0  0  0  0  0  0
   16.0970   33.9920   -9.6970 P   0  0  0  0  0  5  0  0  0  0  0  0
   17.5560   33.8500   -9.1160 O   0  0  0  0  0  0  0  0  0  0  0  0
   15.9820   35.2840  -10.5640 O   0  0  0  0  0  0  0  0  0  0  0  0
   15.8220   32.8640  -10.6410 O   0  0  0  0  0  0  0  0  0  0  0  0
   13.6180   34.1250   -9.0550 O   0  0  0  0  0  0  0  0  0  0  0  0
   14.9850   32.9620   -7.4570 C   0  0  0  0  0  0  0  0  0  0  0  0
   14.8360   31.5530   -7.9430 C   0  0  0  0  0  0  0  0  0  0  0  0
   14.0190   31.3460   -9.1140 N   0  0  0  0  0  0  0  0  0  0  0  0
    0.0000    0.0000    0.0000 H   0  0  0  0  0  0  0  0  0  0  0  0
   16.3903   35.6920   -5.8272 H   0  0  0  0  0  0  0  0  0  0  0  0
   14.6691   37.6866   -7.8287 H   0  0  0  0  0  0  0  0  0  0  0  0
   14.6999   35.6705   -5.4787 H   0  0  0  0  0  0  0  0  0  0  0  0
    0.0000    0.0000    0.0000 H   0  0  0  0  0  0  0  0  0  0  0  0
   17.5190   33.8536   -8.1267 H   0  0  0  0  0  0  0  0  0  0  0  0
   15.9117   36.0739   -9.9714 H   0  0  0  0  0  0  0  0  0  0  0  0
   15.6219   32.0432  -10.1250 H   0  0  0  0  0  0  0  0  0  0  0  0
   12.8915   34.1380   -8.3826 H   0  0  0  0  0  0  0  0  0  0  0  0
   15.9894   33.0403   -7.0154 H   0  0  0  0  0  0  0  0  0  0  0  0
   14.1235   33.0883   -6.7848 H   0  0  0  0  0  0  0  0  0  0  0  0
   15.8428   31.1721   -8.1695 H   0  0  0  0  0  0  0  0  0  0  0  0
   14.3116   31.0257   -7.1325 H   0  0  0  0  0  0  0  0  0  0  0  0
   13.0605   31.1032   -8.8254 H   0  0  0  0  0  0  0  0  0  0  0  0
   14.0000   32.2088   -9.6763 H   0  0  0  0  0  0  0  0  0  0  0  0
  1  2  1  0
  1  3  1  0
  1  4  1  0
  1  5  1  0
  5  6  1  0
  6  7  1  0
  6  8  1  0
  6  9  1  0
  5 10  1  6
  5 11  1  0
 11 12  1  0
 12 13  1  0
  1 14  1  0
  2 15  1  0
  3 16  1  0
  4 17  1  0
  6 18  1  0
  7 19  1  6
  8 20  1  0
  9 21  1  0
 10 22  1  0
 11 23  1  0
 11 24  1  0
 12 25  1  0
 12 26  1  0
 13 27  1  0
 13 28  1  0
M  END
>  <PDBID>  (1) 
4NKF

>  <PDB ID>  (1) 
4NKF

>  <Generic Name>  (1) 
Pamidronate

>  <Brand Name>  (1) 
Aredia#Aredia 30mg#Aredia 90mg#Aredia Liq Inj 3mg/ml#PMS-pamidronate#Pamidronate Disodium#Pamidronate Disodium Omega 3 mg/ml#Pamidronate Disodium Omega 6 mg/ml#Pamidronate Disodium Omega 9 mg/ml#Pamidronate Disodium for Injection#Val-pamidronate Disodium#Aminomux#Pamimed

>  <DrugBank ID>  (1) 
DB00282

>  <ATC Codes>  (1) 
M05BA03

>  <Ligand ID>  (1) 
210

>  <Target Name>  (1) 
Farnesyl pyrophosphate synthase

>  <UniProt ID>  (1) 
P14324

>  <PDB ID.1>  (1) 
4NKF

>  <Seq. Identity>  (1) 
99%

$$$$
