PDB_DB04868_99
     RDKit          3D

 61 65  0  0  0  0  0  0  0  0999 V2000
  -43.7170   23.6320  -18.5490 O   0  0  0  0  0  0  0  0  0  0  0  0
  -43.7140   23.6950  -19.7730 C   0  0  0  0  0  0  0  0  0  0  0  0
  -43.2610   24.7760  -20.4800 N   0  0  0  0  0  0  0  0  0  0  0  0
  -42.7640   25.9970  -19.9780 C   0  0  0  0  0  0  0  0  0  0  0  0
  -42.9980   27.1850  -20.6870 C   0  0  0  0  0  0  0  0  0  0  0  0
  -42.4330   28.4060  -20.2490 C   0  0  0  0  0  0  0  0  0  0  0  0
  -42.7190   29.5640  -20.9290 N   0  0  0  0  0  0  0  0  0  0  0  0
  -42.8170   29.6910  -22.2440 C   0  0  0  0  0  0  0  0  0  0  0  0
  -43.1360   30.9630  -22.5520 C   0  0  0  0  0  0  0  0  0  0  0  0
  -43.3710   31.6240  -23.8840 C   0  0  0  0  0  0  0  0  0  0  0  0
  -43.2100   31.5760  -21.2580 N   0  0  0  0  0  0  0  0  0  0  0  0
  -42.9660   30.7220  -20.3780 C   0  0  0  0  0  0  0  0  0  0  0  0
  -41.6060   28.4050  -19.0940 C   0  0  0  0  0  0  0  0  0  0  0  0
  -41.9180   26.0110  -18.8550 C   0  0  0  0  0  0  0  0  0  0  0  0
  -41.3600   27.2120  -18.3750 C   0  0  0  0  0  0  0  0  0  0  0  0
  -40.4840   27.2000  -17.1050 C   0  0  0  0  0  0  0  0  0  0  0  0
  -39.7310   28.3190  -16.9530 F   0  0  0  0  0  0  0  0  0  0  0  0
  -41.2640   27.1110  -16.0010 F   0  0  0  0  0  0  0  0  0  0  0  0
  -39.6870   26.0950  -17.1120 F   0  0  0  0  0  0  0  0  0  0  0  0
  -44.1420   22.4630  -20.5440 C   0  0  0  0  0  0  0  0  0  0  0  0
  -44.0790   22.4100  -21.9460 C   0  0  0  0  0  0  0  0  0  0  0  0
  -44.3820   21.2290  -22.6360 C   0  0  0  0  0  0  0  0  0  0  0  0
  -44.7640   20.0780  -21.9350 C   0  0  0  0  0  0  0  0  0  0  0  0
  -45.1000   18.7980  -22.7120 C   0  0  0  0  0  0  0  0  0  0  0  0
  -44.8550   20.1280  -20.5340 C   0  0  0  0  0  0  0  0  0  0  0  0
  -44.4740   21.2900  -19.8450 C   0  0  0  0  0  0  0  0  0  0  0  0
  -45.1480   18.9950  -19.8540 N   0  0  0  0  0  0  0  0  0  0  0  0
  -46.1300   18.8090  -18.9620 C   0  0  0  0  0  0  0  0  0  0  0  0
  -47.1730   19.6570  -18.7920 N   0  0  0  0  0  0  0  0  0  0  0  0
  -48.1510   19.3610  -17.8900 C   0  0  0  0  0  0  0  0  0  0  0  0
  -48.0390   18.2270  -17.0650 C   0  0  0  0  0  0  0  0  0  0  0  0
  -46.9420   17.3680  -17.2830 C   0  0  0  0  0  0  0  0  0  0  0  0
  -46.0180   17.6990  -18.2130 N   0  0  0  0  0  0  0  0  0  0  0  0
  -46.7570   16.0860  -16.5700 C   0  0  0  0  0  0  0  0  0  0  0  0
  -47.7810   15.5860  -15.7430 C   0  0  0  0  0  0  0  0  0  0  0  0
  -47.6160   14.3660  -15.0790 C   0  0  0  0  0  0  0  0  0  0  0  0
  -46.4210   13.6650  -15.2810 C   0  0  0  0  0  0  0  0  0  0  0  0
  -45.4210   14.1830  -16.0430 N   0  0  0  0  0  0  0  0  0  0  0  0
  -45.5700   15.3530  -16.7100 C   0  0  0  0  0  0  0  0  0  0  0  0
  -43.2861   24.6868  -21.5058 H   0  0  0  0  0  0  0  0  0  0  0  0
  -43.6255   27.1669  -21.5903 H   0  0  0  0  0  0  0  0  0  0  0  0
  -42.6617   28.8818  -22.9727 H   0  0  0  0  0  0  0  0  0  0  0  0
  -43.7356   32.6496  -23.7251 H   0  0  0  0  0  0  0  0  0  0  0  0
  -42.4283   31.6536  -24.4501 H   0  0  0  0  0  0  0  0  0  0  0  0
  -44.1208   31.0518  -24.4501 H   0  0  0  0  0  0  0  0  0  0  0  0
  -42.9602   30.9178  -19.2956 H   0  0  0  0  0  0  0  0  0  0  0  0
  -41.1500   29.3464  -18.7536 H   0  0  0  0  0  0  0  0  0  0  0  0
  -41.6875   25.0659  -18.3414 H   0  0  0  0  0  0  0  0  0  0  0  0
  -43.7877   23.3083  -22.5102 H   0  0  0  0  0  0  0  0  0  0  0  0
  -44.3196   21.2054  -23.7340 H   0  0  0  0  0  0  0  0  0  0  0  0
  -45.3136   17.9843  -22.0033 H   0  0  0  0  0  0  0  0  0  0  0  0
  -45.9823   18.9741  -23.3448 H   0  0  0  0  0  0  0  0  0  0  0  0
  -44.2449   18.5181  -23.3448 H   0  0  0  0  0  0  0  0  0  0  0  0
  -44.4349   21.2824  -18.7457 H   0  0  0  0  0  0  0  0  0  0  0  0
  -44.5460   18.1812  -20.0445 H   0  0  0  0  0  0  0  0  0  0  0  0
  -49.0332   20.0127  -17.8066 H   0  0  0  0  0  0  0  0  0  0  0  0
  -48.7796   18.0181  -16.2790 H   0  0  0  0  0  0  0  0  0  0  0  0
  -48.7133   16.1564  -15.6187 H   0  0  0  0  0  0  0  0  0  0  0  0
  -48.4011   13.9695  -14.4184 H   0  0  0  0  0  0  0  0  0  0  0  0
  -46.2887   12.6775  -14.8149 H   0  0  0  0  0  0  0  0  0  0  0  0
  -44.7634   15.7260  -17.3583 H   0  0  0  0  0  0  0  0  0  0  0  0
  1  2  2  0
  2  3  1  0
  3  4  1  0
  4  5  2  0
  5  6  1  0
  6  7  1  0
  7  8  1  0
  8  9  2  0
  9 10  1  0
  9 11  1  0
  7 12  1  0
 11 12  2  0
  6 13  2  0
  4 14  1  0
 13 15  1  0
 14 15  2  0
 15 16  1  0
 16 17  1  0
 16 18  1  0
 16 19  1  0
  2 20  1  0
 20 21  2  0
 21 22  1  0
 22 23  2  0
 23 24  1  0
 23 25  1  0
 20 26  1  0
 25 26  2  0
 25 27  1  0
 27 28  1  0
 28 29  2  0
 29 30  1  0
 30 31  2  0
 31 32  1  0
 28 33  1  0
 32 33  2  0
 32 34  1  0
 34 35  2  0
 35 36  1  0
 36 37  2  0
 37 38  1  0
 34 39  1  0
 38 39  2  0
  3 40  1  0
  5 41  1  0
  8 42  1  0
 10 43  1  0
 10 44  1  0
 10 45  1  0
 12 46  1  0
 13 47  1  0
 14 48  1  0
 21 49  1  0
 22 50  1  0
 24 51  1  0
 24 52  1  0
 24 53  1  0
 26 54  1  0
 27 55  1  0
 30 56  1  0
 31 57  1  0
 35 58  1  0
 36 59  1  0
 37 60  1  0
 39 61  1  0
M  END
>  <PDBID>  (1) 
5MO4

>  <PDB ID>  (1) 
5MO4

>  <Generic Name>  (1) 
Nilotinib

>  <Brand Name>  (1) 
Tasigna

>  <DrugBank ID>  (1) 
DB04868

>  <ATC Codes>  (1) 
L01XE08

>  <Ligand ID>  (1) 
NIL

>  <Target Name>  (1) 
Tyrosine-protein kinase ABL1

>  <UniProt ID>  (1) 
P00519

>  <PDB ID.1>  (1) 
5MO4

>  <Seq. Identity>  (1) 
97%

$$$$
