PDB_DB05812_92
     RDKit          3D

 57 61  0  0  0  0  0  0  0  0999 V2000
   -1.0080   24.5680  -23.3660 C   0  0  0  0  0  0  0  0  0  0  0  0
   -2.2100   24.9580  -24.2610 C   0  0  0  0  0  0  0  0  0  0  0  0
   -1.5250   25.8720  -25.3020 C   0  0  2  0  0  0  0  0  0  0  0  0
   -2.4980   26.5130  -26.1760 O   0  0  0  0  0  0  0  0  0  0  0  0
   -0.4800   25.0140  -26.0910 C   0  0  0  0  0  0  0  0  0  0  0  0
    0.4910   24.5740  -25.1790 C   0  0  0  0  0  0  0  0  0  0  0  0
    1.8310   24.9090  -25.2680 C   0  0  0  0  0  0  0  0  0  0  0  0
    2.6600   24.3880  -24.2610 C   0  0  0  0  0  0  0  0  0  0  0  0
    2.3300   23.1020  -23.6020 C   0  0  2  0  0  0  0  0  0  0  0  0
    1.1660   23.5300  -22.9460 C   0  0  1  0  0  0  0  0  0  0  0  0
    0.1210   23.7640  -24.1040 C   0  0  1  0  0  0  0  0  0  0  0  0
    0.6260   22.6130  -21.8570 C   0  0  0  0  0  0  0  0  0  0  0  0
    1.7700   22.4280  -20.8350 C   0  0  0  0  0  0  0  0  0  0  0  0
    3.0410   21.8110  -21.6060 C   0  0  1  0  0  0  0  0  0  0  0  0
    3.4700   22.9300  -22.4970 C   0  0  1  0  0  0  0  0  0  0  0  0
    4.7220   22.4570  -22.9780 C   0  0  0  0  0  0  0  0  0  0  0  0
    5.3250   22.3550  -21.6900 C   0  0  0  0  0  0  0  0  0  0  0  0
    4.2900   21.9410  -20.8670 C   0  0  0  0  0  0  0  0  0  0  0  0
    2.9040   20.4320  -22.2670 C   0  0  0  0  0  0  0  0  0  0  0  0
   -0.4230   22.4460  -24.6000 C   0  0  0  0  0  0  0  0  0  0  0  0
    4.4110   21.7130  -19.5530 C   0  0  0  0  0  0  0  0  0  0  0  0
    5.5630   22.0290  -18.8230 C   0  0  0  0  0  0  0  0  0  0  0  0
    5.6700   21.6940  -17.4350 N   0  0  0  0  0  0  0  0  0  0  0  0
    4.7020   20.8730  -16.8340 C   0  0  0  0  0  0  0  0  0  0  0  0
    3.6110   20.4280  -17.5990 C   0  0  0  0  0  0  0  0  0  0  0  0
    3.5070   20.8220  -18.9500 C   0  0  0  0  0  0  0  0  0  0  0  0
   -0.5653   25.4913  -22.9641 H   0  0  0  0  0  0  0  0  0  0  0  0
   -1.4038   23.9040  -22.5834 H   0  0  0  0  0  0  0  0  0  0  0  0
   -2.6624   24.0748  -24.7357 H   0  0  0  0  0  0  0  0  0  0  0  0
   -3.0405   25.4341  -23.7192 H   0  0  0  0  0  0  0  0  0  0  0  0
   -1.0021   26.6962  -24.7948 H   0  0  0  0  0  0  0  0  0  0  0  0
   -3.1862   26.9663  -25.6273 H   0  0  0  0  0  0  0  0  0  0  0  0
   -0.9786   24.1491  -26.5529 H   0  0  0  0  0  0  0  0  0  0  0  0
   -0.0148   25.6129  -26.8878 H   0  0  0  0  0  0  0  0  0  0  0  0
    2.2222   25.5436  -26.0768 H   0  0  0  0  0  0  0  0  0  0  0  0
    3.6581   24.2659  -24.7070 H   0  0  0  0  0  0  0  0  0  0  0  0
    2.5464   25.1183  -23.4463 H   0  0  0  0  0  0  0  0  0  0  0  0
    2.2387   22.1919  -24.2130 H   0  0  0  0  0  0  0  0  0  0  0  0
    1.3900   24.4366  -22.3648 H   0  0  0  0  0  0  0  0  0  0  0  0
   -0.2474   23.0726  -21.3712 H   0  0  0  0  0  0  0  0  0  0  0  0
    0.3031   21.6473  -22.2730 H   0  0  0  0  0  0  0  0  0  0  0  0
    2.0374   23.4004  -20.3958 H   0  0  0  0  0  0  0  0  0  0  0  0
    1.4515   21.7522  -20.0276 H   0  0  0  0  0  0  0  0  0  0  0  0
    3.5938   23.9286  -22.0526 H   0  0  0  0  0  0  0  0  0  0  0  0
    4.6446   21.4879  -23.4926 H   0  0  0  0  0  0  0  0  0  0  0  0
    5.2389   23.0642  -23.7358 H   0  0  0  0  0  0  0  0  0  0  0  0
    6.3702   22.5580  -21.4136 H   0  0  0  0  0  0  0  0  0  0  0  0
    2.8271   19.6584  -21.4888 H   0  0  0  0  0  0  0  0  0  0  0  0
    1.9996   20.4136  -22.8929 H   0  0  0  0  0  0  0  0  0  0  0  0
    3.7871   20.2360  -22.8929 H   0  0  0  0  0  0  0  0  0  0  0  0
   -0.6851   21.8109  -23.7409 H   0  0  0  0  0  0  0  0  0  0  0  0
   -1.3203   22.6260  -25.2102 H   0  0  0  0  0  0  0  0  0  0  0  0
    0.3401   21.9407  -25.2102 H   0  0  0  0  0  0  0  0  0  0  0  0
    6.3979   22.5420  -19.3228 H   0  0  0  0  0  0  0  0  0  0  0  0
    4.7969   20.5820  -15.7774 H   0  0  0  0  0  0  0  0  0  0  0  0
    2.8453   19.7788  -17.1493 H   0  0  0  0  0  0  0  0  0  0  0  0
    2.6843   20.4149  -19.5562 H   0  0  0  0  0  0  0  0  0  0  0  0
  1  2  1  0
  2  3  1  0
  3  4  1  0
  3  5  1  0
  5  6  1  0
  6  7  2  0
  7  8  1  0
  8  9  1  0
  9 10  1  0
  1 11  1  0
  6 11  1  0
 10 11  1  0
 10 12  1  0
 12 13  1  0
 13 14  1  0
  9 15  1  0
 14 15  1  0
 15 16  1  0
 16 17  1  0
 14 18  1  0
 17 18  2  0
 14 19  1  6
 11 20  1  6
 18 21  1  0
 21 22  2  0
 22 23  1  0
 24 23  2  0
 24 25  1  0
 21 26  1  0
 25 26  2  0
  1 27  1  0
  1 28  1  0
  2 29  1  0
  2 30  1  0
  3 31  1  1
  4 32  1  0
  5 33  1  0
  5 34  1  0
  7 35  1  0
  8 36  1  0
  8 37  1  0
  9 38  1  6
 10 39  1  1
 12 40  1  0
 12 41  1  0
 13 42  1  0
 13 43  1  0
 15 44  1  1
 16 45  1  0
 16 46  1  0
 17 47  1  0
 19 48  1  0
 19 49  1  0
 19 50  1  0
 20 51  1  0
 20 52  1  0
 20 53  1  0
 22 54  1  0
 24 55  1  0
 25 56  1  0
 26 57  1  0
M  END
$$$$
