PDB_DB01336_92
     RDKit          3D

 96102  0  0  0  0  0  0  0  0999 V2000
  -59.9360  -71.5140   64.1720 N   0  0  0  0  0  0  0  0  0  0  0  0
  -59.5840  -70.0830   64.0210 C   0  0  0  0  0  0  0  0  0  0  0  0
  -60.7860  -69.1530   63.8520 C   0  0  0  0  0  0  0  0  0  0  0  0
  -61.6730  -69.5090   65.0130 C   0  0  0  0  0  0  0  0  0  0  0  0
  -61.5460  -70.6890   65.7710 C   0  0  0  0  0  0  0  0  0  0  0  0
  -60.5230  -71.7830   65.4890 C   0  0  2  0  0  0  0  0  0  0  0  0
  -62.6300  -68.5590   65.3010 C   0  0  0  0  0  0  0  0  0  0  0  0
  -63.5110  -68.7550   66.3540 C   0  0  0  0  0  0  0  0  0  0  0  0
  -63.4200  -69.9090   67.1110 C   0  0  0  0  0  0  0  0  0  0  0  0
  -62.4410  -70.8780   66.8100 C   0  0  0  0  0  0  0  0  0  0  0  0
  -64.3030  -70.1450   68.1450 O   0  0  0  0  0  0  0  0  0  0  0  0
  -64.8000  -71.4320   68.1510 C   0  0  0  0  0  0  0  0  0  0  0  0
  -65.7870  -71.8660   67.2110 C   0  0  0  0  0  0  0  0  0  0  0  0
  -66.1980  -73.1940   67.2640 C   0  0  0  0  0  0  0  0  0  0  0  0
  -65.6250  -74.0640   68.1900 C   0  0  0  0  0  0  0  0  0  0  0  0
  -64.6390  -73.6620   69.0970 C   0  0  0  0  0  0  0  0  0  0  0  0
  -64.2060  -72.3280   69.0640 C   0  0  0  0  0  0  0  0  0  0  0  0
  -64.0480  -74.7370   70.0290 C   0  0  0  0  0  0  0  0  0  0  0  0
  -64.2120  -74.4770   71.5190 C   0  0  1  0  0  0  0  0  0  0  0  0
  -65.4800  -75.0990   72.0670 N   0  0  0  0  0  0  0  0  0  0  0  0
  -65.3780  -76.5890   72.1870 C   0  0  0  0  0  0  0  0  0  0  0  0
  -64.2520  -77.0540   73.1300 C   0  0  0  0  0  0  0  0  0  0  0  0
  -63.0580  -76.1200   73.0890 C   0  0  0  0  0  0  0  0  0  0  0  0
  -63.0130  -74.9140   72.3330 C   0  0  0  0  0  0  0  0  0  0  0  0
  -61.9670  -76.4980   73.8650 C   0  0  0  0  0  0  0  0  0  0  0  0
  -60.7940  -75.7100   73.9010 C   0  0  0  0  0  0  0  0  0  0  0  0
  -60.7250  -74.5250   73.1550 C   0  0  0  0  0  0  0  0  0  0  0  0
  -61.8240  -74.1410   72.3970 C   0  0  0  0  0  0  0  0  0  0  0  0
  -61.6520  -72.9710   71.7110 O   0  0  0  0  0  0  0  0  0  0  0  0
  -61.0920  -72.8360   70.4340 C   0  0  0  0  0  0  0  0  0  0  0  0
  -60.4960  -71.6090   70.1420 C   0  0  0  0  0  0  0  0  0  0  0  0
  -59.9610  -71.3850   68.8790 C   0  0  0  0  0  0  0  0  0  0  0  0
  -60.0120  -72.3410   67.8780 C   0  0  0  0  0  0  0  0  0  0  0  0
  -60.6230  -73.5730   68.1440 C   0  0  0  0  0  0  0  0  0  0  0  0
  -61.1560  -73.8240   69.4180 C   0  0  0  0  0  0  0  0  0  0  0  0
  -59.4200  -71.9810   66.5360 C   0  0  0  0  0  0  0  0  0  0  0  0
  -64.4760  -67.8110   66.6210 O   0  0  0  0  0  0  0  0  0  0  0  0
  -64.9220  -66.8330   65.6460 C   0  0  0  0  0  0  0  0  0  0  0  0
  -66.4250  -71.0270   66.2910 O   0  0  0  0  0  0  0  0  0  0  0  0
  -59.7750  -76.1590   74.7230 O   0  0  0  0  0  0  0  0  0  0  0  0
  -60.0680  -76.1720   76.1320 C   0  0  0  0  0  0  0  0  0  0  0  0
  -59.5860  -73.7150   73.1680 O   0  0  0  0  0  0  0  0  0  0  0  0
  -60.8860  -71.8920   63.0970 C   0  0  0  0  0  0  0  0  0  0  0  0
  -65.7990  -74.5650   73.4020 C   0  0  0  0  0  0  0  0  0  0  0  0
  -66.6700  -74.7940   71.2300 C   0  0  0  0  0  0  0  0  0  0  0  0
  -59.3380  -72.5790   72.3070 C   0  0  0  0  0  0  0  0  0  0  0  0
  -58.7400  -72.3510   64.0010 C   0  0  0  0  0  0  0  0  0  0  0  0
  -66.4600  -71.1620   64.8470 C   0  0  0  0  0  0  0  0  0  0  0  0
  -59.0286  -69.7686   64.9169 H   0  0  0  0  0  0  0  0  0  0  0  0
  -58.9903  -70.0006   63.0987 H   0  0  0  0  0  0  0  0  0  0  0  0
  -60.4771  -68.0985   63.9024 H   0  0  0  0  0  0  0  0  0  0  0  0
  -61.2858  -69.2722   62.8794 H   0  0  0  0  0  0  0  0  0  0  0  0
  -61.0749  -72.7338   65.5262 H   0  0  0  0  0  0  0  0  0  0  0  0
  -62.6948  -67.6437   64.6943 H   0  0  0  0  0  0  0  0  0  0  0  0
  -62.3876  -71.7984   67.4101 H   0  0  0  0  0  0  0  0  0  0  0  0
  -66.9750  -73.5573   66.5753 H   0  0  0  0  0  0  0  0  0  0  0  0
  -65.9624  -75.1108   68.2083 H   0  0  0  0  0  0  0  0  0  0  0  0
  -63.4117  -71.9845   69.7430 H   0  0  0  0  0  0  0  0  0  0  0  0
  -64.5387  -75.6936   69.7963 H   0  0  0  0  0  0  0  0  0  0  0  0
  -62.9642  -74.7359   69.8407 H   0  0  0  0  0  0  0  0  0  0  0  0
  -64.2910  -73.3844   71.6193 H   0  0  0  0  0  0  0  0  0  0  0  0
  -66.3345  -76.9737   72.5706 H   0  0  0  0  0  0  0  0  0  0  0  0
  -65.1430  -76.9789   71.1856 H   0  0  0  0  0  0  0  0  0  0  0  0
  -64.6411  -77.0888   74.1583 H   0  0  0  0  0  0  0  0  0  0  0  0
  -63.9185  -78.0483   72.7982 H   0  0  0  0  0  0  0  0  0  0  0  0
  -62.0178  -77.4227   74.4586 H   0  0  0  0  0  0  0  0  0  0  0  0
  -60.4496  -70.8216   70.9087 H   0  0  0  0  0  0  0  0  0  0  0  0
  -59.4818  -70.4177   68.6676 H   0  0  0  0  0  0  0  0  0  0  0  0
  -60.6848  -74.3402   67.3582 H   0  0  0  0  0  0  0  0  0  0  0  0
  -61.6273  -74.7950   69.6304 H   0  0  0  0  0  0  0  0  0  0  0  0
  -58.7523  -72.7911   66.2075 H   0  0  0  0  0  0  0  0  0  0  0  0
  -58.8592  -71.0403   66.6392 H   0  0  0  0  0  0  0  0  0  0  0  0
  -65.3238  -65.9519   66.1678 H   0  0  0  0  0  0  0  0  0  0  0  0
  -64.0730  -66.5302   65.0156 H   0  0  0  0  0  0  0  0  0  0  0  0
  -65.7073  -67.2755   65.0156 H   0  0  0  0  0  0  0  0  0  0  0  0
  -59.1283  -76.1303   76.7023 H   0  0  0  0  0  0  0  0  0  0  0  0
  -60.6896  -75.3006   76.3853 H   0  0  0  0  0  0  0  0  0  0  0  0
  -60.6100  -77.0951   76.3853 H   0  0  0  0  0  0  0  0  0  0  0  0
  -61.8190  -72.2632   63.5461 H   0  0  0  0  0  0  0  0  0  0  0  0
  -61.1037  -71.0120   62.4739 H   0  0  0  0  0  0  0  0  0  0  0  0
  -60.4396  -72.6810   62.4739 H   0  0  0  0  0  0  0  0  0  0  0  0
  -65.3963  -75.2391   74.1724 H   0  0  0  0  0  0  0  0  0  0  0  0
  -65.3484  -73.5679   73.5154 H   0  0  0  0  0  0  0  0  0  0  0  0
  -66.8905  -74.4891   73.5154 H   0  0  0  0  0  0  0  0  0  0  0  0
  -67.5292  -74.5738   71.8806 H   0  0  0  0  0  0  0  0  0  0  0  0
  -66.4577  -73.9212   70.5950 H   0  0  0  0  0  0  0  0  0  0  0  0
  -66.9037  -75.6613   70.5950 H   0  0  0  0  0  0  0  0  0  0  0  0
  -59.1435  -71.6881   72.9223 H   0  0  0  0  0  0  0  0  0  0  0  0
  -58.4635  -72.7841   71.6721 H   0  0  0  0  0  0  0  0  0  0  0  0
  -60.2184  -72.4010   71.6721 H   0  0  0  0  0  0  0  0  0  0  0  0
  -58.3428  -72.6290   64.9884 H   0  0  0  0  0  0  0  0  0  0  0  0
  -59.0060  -73.2611   63.4433 H   0  0  0  0  0  0  0  0  0  0  0  0
  -57.9761  -71.7894   63.4433 H   0  0  0  0  0  0  0  0  0  0  0  0
  -66.7279  -72.1954   64.5817 H   0  0  0  0  0  0  0  0  0  0  0  0
  -67.2087  -70.4711   64.4322 H   0  0  0  0  0  0  0  0  0  0  0  0
  -65.4699  -70.9219   64.4322 H   0  0  0  0  0  0  0  0  0  0  0  0
  1  2  1  0
  2  3  1  0
  3  4  1  0
  4  5  2  0
  1  6  1  0
  5  6  1  0
  4  7  1  0
  7  8  2  0
  8  9  1  0
  5 10  1  0
  9 10  2  0
  9 11  1  0
 11 12  1  0
 12 13  2  0
 13 14  1  0
 14 15  2  0
 15 16  1  0
 12 17  1  0
 16 17  2  0
 16 18  1  0
 18 19  1  0
 19 20  1  0
 20 21  1  0
 21 22  1  0
 22 23  1  0
 19 24  1  0
 23 24  2  0
 23 25  1  0
 25 26  2  0
 26 27  1  0
 24 28  1  0
 27 28  2  0
 28 29  1  0
 29 30  1  0
 30 31  2  0
 31 32  1  0
 32 33  2  0
 33 34  1  0
 30 35  1  0
 34 35  2  0
  6 36  1  0
 33 36  1  0
  8 37  1  0
 37 38  1  0
 13 39  1  0
 26 40  1  0
 40 41  1  0
 27 42  1  0
  1 43  1  0
 20 44  1  0
 20 45  1  0
 42 46  1  0
  1 47  1  0
 39 48  1  0
  2 49  1  0
  2 50  1  0
  3 51  1  0
  3 52  1  0
  6 53  1  6
  7 54  1  0
 10 55  1  0
 14 56  1  0
 15 57  1  0
 17 58  1  0
 18 59  1  0
 18 60  1  0
 19 61  1  6
 21 62  1  0
 21 63  1  0
 22 64  1  0
 22 65  1  0
 25 66  1  0
 31 67  1  0
 32 68  1  0
 34 69  1  0
 35 70  1  0
 36 71  1  0
 36 72  1  0
 38 73  1  0
 38 74  1  0
 38 75  1  0
 41 76  1  0
 41 77  1  0
 41 78  1  0
 43 79  1  0
 43 80  1  0
 43 81  1  0
 44 82  1  0
 44 83  1  0
 44 84  1  0
 45 85  1  0
 45 86  1  0
 45 87  1  0
 46 88  1  0
 46 89  1  0
 46 90  1  0
 47 91  1  0
 47 92  1  0
 47 93  1  0
 48 94  1  0
 48 95  1  0
 48 96  1  0
M  CHG  2   1   1  20   1
M  END
$$$$
