PDB_DB08912_92
     RDKit          3D

 55 58  0  0  0  0  0  0  0  0999 V2000
    0.3570   -5.1400    5.5770 C   0  0  0  0  0  0  0  0  0  0  0  0
   -1.1670   -3.6100    6.4300 C   0  0  0  0  0  0  0  0  0  0  0  0
   -0.0860   -4.4040    6.6270 N   0  0  0  0  0  0  0  0  0  0  0  0
   -1.8120   -3.5300    5.2090 C   0  0  0  0  0  0  0  0  0  0  0  0
   -0.2210   -5.1200    4.3570 N   0  0  0  0  0  0  0  0  0  0  0  0
   -1.2920   -4.3160    4.2060 C   0  0  0  0  0  0  0  0  0  0  0  0
    1.4600   -5.9590    5.7600 N   0  0  0  0  0  0  0  0  0  0  0  0
   -1.5770   -2.8400    7.6080 C   0  0  0  0  0  0  0  0  0  0  0  0
   -0.5020   -2.7910    8.9580 S   0  0  0  0  0  0  0  0  0  0  0  0
   -1.5910   -1.7820    9.8320 C   0  0  0  0  0  0  0  0  0  0  0  0
   -2.6910   -1.4890    9.1730 N   0  0  0  0  0  0  0  0  0  0  0  0
   -2.6970   -2.0770    7.9220 C   0  0  0  0  0  0  0  0  0  0  0  0
   -1.2900   -1.2790   11.2430 C   0  0  0  0  0  0  0  0  0  0  0  0
   -0.0120   -1.9150   11.8170 C   0  0  0  0  0  0  0  0  0  0  0  0
   -2.4570   -1.6500   12.1830 C   0  0  0  0  0  0  0  0  0  0  0  0
   -1.1420    0.2530   11.2430 C   0  0  0  0  0  0  0  0  0  0  0  0
   -3.8650   -1.8280    7.0970 C   0  0  0  0  0  0  0  0  0  0  0  0
   -5.2730   -0.1910    5.9690 C   0  0  0  0  0  0  0  0  0  0  0  0
   -4.1610   -0.5120    6.7420 C   0  0  0  0  0  0  0  0  0  0  0  0
   -6.1210   -1.2120    5.5330 C   0  0  0  0  0  0  0  0  0  0  0  0
   -4.7240   -2.8460    6.6640 C   0  0  0  0  0  0  0  0  0  0  0  0
   -5.8430   -2.5360    5.8840 C   0  0  0  0  0  0  0  0  0  0  0  0
   -3.3570    0.4840    7.1460 F   0  0  0  0  0  0  0  0  0  0  0  0
   -5.4560    1.2030    5.6650 N   0  0  0  0  0  0  0  0  0  0  0  0
   -6.9750    1.8620    5.2160 S   0  0  0  0  0  0  0  0  0  0  0  0
   -7.0410    1.5170    3.4750 C   0  0  0  0  0  0  0  0  0  0  0  0
   -7.9930    0.3640    1.5710 C   0  0  0  0  0  0  0  0  0  0  0  0
   -7.9570    0.6130    2.9420 C   0  0  0  0  0  0  0  0  0  0  0  0
   -7.1020    1.0170    0.7170 C   0  0  0  0  0  0  0  0  0  0  0  0
   -6.1550    2.1690    2.6160 C   0  0  0  0  0  0  0  0  0  0  0  0
   -6.1820    1.9230    1.2440 C   0  0  0  0  0  0  0  0  0  0  0  0
   -5.2600    3.0450    3.0940 F   0  0  0  0  0  0  0  0  0  0  0  0
   -8.8270   -0.0330    3.7270 F   0  0  0  0  0  0  0  0  0  0  0  0
   -8.0540    1.1580    5.8840 O   0  0  0  0  0  0  0  0  0  0  0  0
   -6.9020    3.3070    5.3240 O   0  0  0  0  0  0  0  0  0  0  0  0
   -2.6848   -2.8797    5.0498 H   0  0  0  0  0  0  0  0  0  0  0  0
   -1.7804   -4.2861    3.2208 H   0  0  0  0  0  0  0  0  0  0  0  0
    1.8149   -6.5273    4.9777 H   0  0  0  0  0  0  0  0  0  0  0  0
    1.9248   -5.9994    6.6783 H   0  0  0  0  0  0  0  0  0  0  0  0
   -0.0538   -1.8942   12.9160 H   0  0  0  0  0  0  0  0  0  0  0  0
    0.0656   -2.9568   11.4727 H   0  0  0  0  0  0  0  0  0  0  0  0
    0.8659   -1.3487   11.4727 H   0  0  0  0  0  0  0  0  0  0  0  0
   -2.1324   -1.5468   13.2289 H   0  0  0  0  0  0  0  0  0  0  0  0
   -3.3072   -0.9778   11.9949 H   0  0  0  0  0  0  0  0  0  0  0  0
   -2.7630   -2.6897   11.9949 H   0  0  0  0  0  0  0  0  0  0  0  0
   -1.1067    0.6180   12.2801 H   0  0  0  0  0  0  0  0  0  0  0  0
   -0.2128    0.5316   10.7245 H   0  0  0  0  0  0  0  0  0  0  0  0
   -2.0007    0.7043   10.7245 H   0  0  0  0  0  0  0  0  0  0  0  0
   -7.0015   -0.9755    4.9176 H   0  0  0  0  0  0  0  0  0  0  0  0
   -4.5183   -3.8913    6.9378 H   0  0  0  0  0  0  0  0  0  0  0  0
   -6.5103   -3.3416    5.5438 H   0  0  0  0  0  0  0  0  0  0  0  0
   -4.6416    1.8313    5.7191 H   0  0  0  0  0  0  0  0  0  0  0  0
   -8.7245   -0.3480    1.1612 H   0  0  0  0  0  0  0  0  0  0  0  0
   -7.1256    0.8181   -0.3646 H   0  0  0  0  0  0  0  0  0  0  0  0
   -5.4782    2.4431    0.5776 H   0  0  0  0  0  0  0  0  0  0  0  0
  1  3  2  0
  2  3  1  0
  2  4  2  0
  1  5  1  0
  4  6  1  0
  5  6  2  0
  1  7  1  0
  2  8  1  0
  8  9  1  0
  9 10  1  0
 10 11  2  0
  8 12  2  0
 11 12  1  0
 10 13  1  0
 13 14  1  0
 13 15  1  0
 13 16  1  0
 12 17  1  0
 17 19  2  0
 18 19  1  0
 18 20  2  0
 17 21  1  0
 20 22  1  0
 21 22  2  0
 19 23  1  0
 18 24  1  0
 24 25  1  0
 25 26  1  0
 26 28  1  0
 27 28  2  0
 27 29  1  0
 26 30  2  0
 29 31  2  0
 30 31  1  0
 30 32  1  0
 28 33  1  0
 25 34  2  0
 25 35  2  0
  4 36  1  0
  6 37  1  0
  7 38  1  0
  7 39  1  0
 14 40  1  0
 14 41  1  0
 14 42  1  0
 15 43  1  0
 15 44  1  0
 15 45  1  0
 16 46  1  0
 16 47  1  0
 16 48  1  0
 20 49  1  0
 21 50  1  0
 22 51  1  0
 24 52  1  0
 27 53  1  0
 29 54  1  0
 31 55  1  0
M  END
$$$$
