PDB_DB00523_93
     RDKit          3D

 62 62  0  0  0  0  0  0  0  0999 V2000
   25.6590    3.0420  203.1350 C   0  0  1  0  0  0  0  0  0  0  0  0
   26.9030    2.3020  202.6660 C   0  0  0  0  0  0  0  0  0  0  0  0
   28.0460    2.8580  203.3810 C   0  0  0  0  0  0  0  0  0  0  0  0
   28.1560    4.2470  202.9560 C   0  0  0  0  0  0  0  0  0  0  0  0
   27.0660    4.9440  203.4630 C   0  0  0  0  0  0  0  0  0  0  0  0
   25.7670    4.4000  203.4420 C   0  0  2  0  0  0  0  0  0  0  0  0
   24.6720    5.1260  203.9970 C   0  0  0  0  0  0  0  0  0  0  0  0
   23.2470    4.6170  204.0800 C   0  0  0  0  0  0  0  0  0  0  0  0
   22.0420    5.3990  204.5430 C   0  0  2  0  0  0  0  0  0  0  0  0
   21.9150    6.7210  205.2360 C   0  0  0  0  0  0  0  0  0  0  0  0
   22.9680    7.7180  205.6270 C   0  0  0  0  0  0  0  0  0  0  0  0
   22.3700    8.9600  206.2810 C   0  0  0  0  0  0  0  0  0  0  0  0
   23.2100   10.1390  206.7630 C   0  0  1  0  0  0  0  0  0  0  0  0
   22.4660   11.3040  207.3850 C   0  0  0  0  0  0  0  0  0  0  0  0
   23.1980   12.5810  207.7580 C   0  0  0  0  0  0  0  0  0  0  0  0
   24.6660    2.8430  202.0820 C   0  0  0  0  0  0  0  0  0  0  0  0
   25.2500    2.2650  204.4690 C   0  0  0  0  0  0  0  0  0  0  0  0
   27.3850    6.2240  203.9390 C   0  0  0  0  0  0  0  0  0  0  0  0
   20.7130    4.6520  204.4550 C   0  0  0  0  0  0  0  0  0  0  0  0
   24.7290   10.1570  206.4930 C   0  0  0  0  0  0  0  0  0  0  0  0
   24.4180   12.7000  207.6770 O   0  0  0  0  0  0  0  0  0  0  0  0
   22.5790   13.5630  208.1210 O   0  0  0  0  0  0  0  0  0  0  0  0
   26.8072    1.2292  202.8894 H   0  0  0  0  0  0  0  0  0  0  0  0
   27.0341    2.4188  201.5801 H   0  0  0  0  0  0  0  0  0  0  0  0
   27.8794    2.8037  204.4670 H   0  0  0  0  0  0  0  0  0  0  0  0
   28.9668    2.2979  203.1612 H   0  0  0  0  0  0  0  0  0  0  0  0
   29.0891    4.6821  203.3434 H   0  0  0  0  0  0  0  0  0  0  0  0
   28.1687    4.3084  201.8578 H   0  0  0  0  0  0  0  0  0  0  0  0
   26.8936    5.3938  202.4741 H   0  0  0  0  0  0  0  0  0  0  0  0
   25.3705    4.7966  202.4957 H   0  0  0  0  0  0  0  0  0  0  0  0
   24.9642    5.3515  205.0332 H   0  0  0  0  0  0  0  0  0  0  0  0
   24.5567    5.9193  203.2437 H   0  0  0  0  0  0  0  0  0  0  0  0
   23.0004    4.2886  203.0595 H   0  0  0  0  0  0  0  0  0  0  0  0
   23.3500    3.9215  204.9260 H   0  0  0  0  0  0  0  0  0  0  0  0
   22.8145    6.0144  204.0587 H   0  0  0  0  0  0  0  0  0  0  0  0
   21.2301    7.2942  204.5939 H   0  0  0  0  0  0  0  0  0  0  0  0
   21.7057    6.3332  206.2439 H   0  0  0  0  0  0  0  0  0  0  0  0
   23.6604    7.2421  206.3370 H   0  0  0  0  0  0  0  0  0  0  0  0
   23.4893    8.0356  204.7119 H   0  0  0  0  0  0  0  0  0  0  0  0
   21.6604    9.3741  205.5496 H   0  0  0  0  0  0  0  0  0  0  0  0
   22.0055    8.5492  207.2341 H   0  0  0  0  0  0  0  0  0  0  0  0
   23.1183   10.6091  205.7728 H   0  0  0  0  0  0  0  0  0  0  0  0
   21.6782   11.5901  206.6725 H   0  0  0  0  0  0  0  0  0  0  0  0
   22.1572   10.9041  208.3621 H   0  0  0  0  0  0  0  0  0  0  0  0
   23.3019   12.2195  208.7917 H   0  0  0  0  0  0  0  0  0  0  0  0
   23.6839    2.6462  202.5366 H   0  0  0  0  0  0  0  0  0  0  0  0
   24.6068    3.7471  201.4583 H   0  0  0  0  0  0  0  0  0  0  0  0
   24.9597    1.9859  201.4583 H   0  0  0  0  0  0  0  0  0  0  0  0
   25.5596    2.8532  205.3455 H   0  0  0  0  0  0  0  0  0  0  0  0
   24.1596    2.1217  204.4902 H   0  0  0  0  0  0  0  0  0  0  0  0
   25.7491    1.2850  204.4902 H   0  0  0  0  0  0  0  0  0  0  0  0
   27.3833    6.2171  205.0390 H   0  0  0  0  0  0  0  0  0  0  0  0
   28.3825    6.5123  203.5757 H   0  0  0  0  0  0  0  0  0  0  0  0
   26.6395    6.9466  203.5757 H   0  0  0  0  0  0  0  0  0  0  0  0
   20.3418    4.4434  205.4692 H   0  0  0  0  0  0  0  0  0  0  0  0
   19.9799    5.2702  203.9162 H   0  0  0  0  0  0  0  0  0  0  0  0
   20.8600    3.7043  203.9162 H   0  0  0  0  0  0  0  0  0  0  0  0
   25.2715   10.1634  207.4499 H   0  0  0  0  0  0  0  0  0  0  0  0
   25.0099    9.2621  205.9183 H   0  0  0  0  0  0  0  0  0  0  0  0
   24.9886   11.0583  205.9183 H   0  0  0  0  0  0  0  0  0  0  0  0
   24.8070   12.7379  208.5866 H   0  0  0  0  0  0  0  0  0  0  0  0
   22.5596   13.5938  209.1103 H   0  0  0  0  0  0  0  0  0  0  0  0
  1  2  1  0
  2  3  1  0
  3  4  1  0
  4  5  1  0
  1  6  1  0
  5  6  1  0
  6  7  1  0
  7  8  1  0
  8  9  1  0
  9 10  1  0
 10 11  1  0
 11 12  1  0
 12 13  1  0
 13 14  1  0
 14 15  1  0
  1 16  1  6
  1 17  1  0
  5 18  1  0
  9 19  1  0
 13 20  1  0
 15 21  1  0
 15 22  1  0
  2 23  1  0
  2 24  1  0
  3 25  1  0
  3 26  1  0
  4 27  1  0
  4 28  1  0
  5 29  1  0
  6 30  1  6
  7 31  1  0
  7 32  1  0
  8 33  1  0
  8 34  1  0
  9 35  1  6
 10 36  1  0
 10 37  1  0
 11 38  1  0
 11 39  1  0
 12 40  1  0
 12 41  1  0
 13 42  1  1
 14 43  1  0
 14 44  1  0
 15 45  1  0
 16 46  1  0
 16 47  1  0
 16 48  1  0
 17 49  1  0
 17 50  1  0
 17 51  1  0
 18 52  1  0
 18 53  1  0
 18 54  1  0
 19 55  1  0
 19 56  1  0
 19 57  1  0
 20 58  1  0
 20 59  1  0
 20 60  1  0
 21 61  1  0
 22 62  1  0
M  END
>  <PDBID>  (1) 
5JI0

>  <PDB ID>  (1) 
5JI0

>  <Generic Name>  (1) 
Alitretinoin

>  <Brand Name>  (1) 
Panretin#Toctino

>  <DrugBank ID>  (1) 
DB00523

>  <ATC Codes>  (1) 
D11AH04#L01XX22

>  <Ligand ID>  (1) 
9CR

>  <Target Name>  (1) 
Retinoic acid receptor RXR-alpha

>  <UniProt ID>  (1) 
P19793

>  <PDB ID.1>  (1) 
5JI0

>  <Seq. Identity>  (1) 
100%

$$$$
