PDB_DB01254_96
     RDKit          3D

154160  0  0  0  0  0  0  0  0999 V2000
    7.8170  -34.4980   -6.8290 C   0  0  0  0  0  0  0  0  0  0  0  0
    6.8840  -35.4430   -6.6510 C   0  0  0  0  0  0  0  0  0  0  0  0
    5.4680  -35.4380   -7.2070 C   0  0  0  0  0  0  0  0  0  0  0  0
   14.1320  -40.8660   -0.5180 N   0  0  0  0  0  0  0  0  0  0  0  0
    1.3900  -34.2460   -9.7540 C   0  0  0  0  0  0  0  0  0  0  0  0
    2.4170  -34.8960  -10.4300 C   0  0  0  0  0  0  0  0  0  0  0  0
    3.6950  -34.9810   -9.8630 C   0  0  0  0  0  0  0  0  0  0  0  0
    4.8160  -35.6940  -10.6160 C   0  0  0  0  0  0  0  0  0  0  0  0
   10.0720  -37.5090   -4.1670 C   0  0  0  0  0  0  0  0  0  0  0  0
   11.2620  -38.0280   -3.6710 C   0  0  0  0  0  0  0  0  0  0  0  0
   11.2050  -39.2350   -2.9670 C   0  0  0  0  0  0  0  0  0  0  0  0
    8.8810  -39.3390   -3.3080 C   0  0  0  0  0  0  0  0  0  0  0  0
    7.5460  -40.0600   -3.0910 C   0  0  0  0  0  0  0  0  0  0  0  0
   12.1320  -41.2480   -1.8640 C   0  0  0  0  0  0  0  0  0  0  0  0
   13.6830  -39.2940   -2.3820 C   0  0  0  0  0  0  0  0  0  0  0  0
   14.6020  -41.0110    0.8820 C   0  0  0  0  0  0  0  0  0  0  0  0
   15.6760  -39.9760    1.2470 C   0  0  0  0  0  0  0  0  0  0  0  0
   10.0700  -36.3630   -4.8530 N   0  0  0  0  0  0  0  0  0  0  0  0
    9.0170  -35.9160   -5.5410 C   0  0  0  0  0  0  0  0  0  0  0  0
    8.9930  -34.7500   -6.2150 N   0  0  0  0  0  0  0  0  0  0  0  0
    7.4970  -36.6730   -5.6880 S   0  0  0  0  0  0  0  0  0  0  0  0
    5.1820  -34.4560   -8.0630 N   0  0  0  0  0  0  0  0  0  0  0  0
    3.9520  -34.3870   -8.6140 C   0  0  0  0  0  0  0  0  0  0  0  0
    2.9240  -33.7320   -7.9480 C   0  0  0  0  0  0  0  0  0  0  0  0
    1.6440  -33.6630   -8.5050 C   0  0  0  0  0  0  0  0  0  0  0  0
    3.2530  -33.0200   -6.4030 Cl  0  0  0  0  0  0  0  0  0  0  0  0
    4.6560  -36.2870   -6.8390 O   0  0  0  0  0  0  0  0  0  0  0  0
   10.0190  -39.8600   -2.8240 N   0  0  0  0  0  0  0  0  0  0  0  0
    8.9190  -38.1740   -3.9710 N   0  0  0  0  0  0  0  0  0  0  0  0
   12.3330  -39.8800   -2.4140 N   0  0  0  0  0  0  0  0  0  0  0  0
   12.7390  -41.3330   -0.4810 C   0  0  0  0  0  0  0  0  0  0  0  0
   14.2660  -39.4650   -0.9800 C   0  0  0  0  0  0  0  0  0  0  0  0
   16.6660  -40.6120    2.0890 O   0  0  0  0  0  0  0  0  0  0  0  0
    1.3910   -2.7550   33.2040 C   0  0  0  0  0  0  0  0  0  0  0  0
    2.2960   -3.7330   33.0750 C   0  0  0  0  0  0  0  0  0  0  0  0
    3.6930   -3.7370   33.7000 C   0  0  0  0  0  0  0  0  0  0  0  0
   -4.8200   -8.9690   26.8900 N   0  0  0  0  0  0  0  0  0  0  0  0
    7.5610   -2.5010   36.4630 C   0  0  0  0  0  0  0  0  0  0  0  0
    6.5200   -3.1940   37.0690 C   0  0  0  0  0  0  0  0  0  0  0  0
    5.2860   -3.2870   36.4370 C   0  0  0  0  0  0  0  0  0  0  0  0
    4.1400   -4.0490   37.1040 C   0  0  0  0  0  0  0  0  0  0  0  0
   -0.7490   -5.7770   30.5590 C   0  0  0  0  0  0  0  0  0  0  0  0
   -1.8700   -6.3330   29.9590 C   0  0  0  0  0  0  0  0  0  0  0  0
   -1.7420   -7.5540   29.3120 C   0  0  0  0  0  0  0  0  0  0  0  0
    0.5210   -7.6060   29.8710 C   0  0  0  0  0  0  0  0  0  0  0  0
    1.8700   -8.3250   29.8210 C   0  0  0  0  0  0  0  0  0  0  0  0
   -2.7210   -9.4700   28.0510 C   0  0  0  0  0  0  0  0  0  0  0  0
   -4.1540   -7.4420   28.6870 C   0  0  0  0  0  0  0  0  0  0  0  0
   -5.5620   -9.0970   25.6280 C   0  0  0  0  0  0  0  0  0  0  0  0
   -6.4780   -7.8850   25.4490 C   0  0  0  0  0  0  0  0  0  0  0  0
   -0.8370   -4.6080   31.1870 N   0  0  0  0  0  0  0  0  0  0  0  0
    0.1920   -4.1540   31.8980 C   0  0  0  0  0  0  0  0  0  0  0  0
    0.2280   -2.9880   32.5540 N   0  0  0  0  0  0  0  0  0  0  0  0
    1.6520   -4.9520   32.1170 S   0  0  0  0  0  0  0  0  0  0  0  0
    3.9120   -2.7760   34.5930 N   0  0  0  0  0  0  0  0  0  0  0  0
    5.0930   -2.6870   35.1980 C   0  0  0  0  0  0  0  0  0  0  0  0
    6.1340   -1.9940   34.5910 C   0  0  0  0  0  0  0  0  0  0  0  0
    7.3680   -1.9010   35.2240 C   0  0  0  0  0  0  0  0  0  0  0  0
    5.8940   -1.2480   33.0490 Cl  0  0  0  0  0  0  0  0  0  0  0  0
    4.5280   -4.5810   33.3790 O   0  0  0  0  0  0  0  0  0  0  0  0
   -0.5490   -8.1640   29.2820 N   0  0  0  0  0  0  0  0  0  0  0  0
    0.4220   -6.4260   30.5020 N   0  0  0  0  0  0  0  0  0  0  0  0
   -2.8510   -8.1440   28.6950 N   0  0  0  0  0  0  0  0  0  0  0  0
   -3.4460   -9.4570   26.7030 C   0  0  0  0  0  0  0  0  0  0  0  0
   -4.7880   -7.5570   27.2990 C   0  0  0  0  0  0  0  0  0  0  0  0
   -6.0150   -7.0950   24.3500 O   0  0  0  0  0  0  0  0  0  0  0  0
    8.0066  -34.4012   -7.9082 H   0  0  0  0  0  0  0  0  0  0  0  0
    7.4195  -33.5768   -6.3780 H   0  0  0  0  0  0  0  0  0  0  0  0
    6.5310  -34.9243   -5.7474 H   0  0  0  0  0  0  0  0  0  0  0  0
    5.1416  -34.8034   -6.3699 H   0  0  0  0  0  0  0  0  0  0  0  0
    1.0309  -33.4429  -10.4144 H   0  0  0  0  0  0  0  0  0  0  0  0
    0.6825  -35.0554   -9.5211 H   0  0  0  0  0  0  0  0  0  0  0  0
    2.0783  -35.9284  -10.6016 H   0  0  0  0  0  0  0  0  0  0  0  0
    2.5777  -34.2580  -11.3115 H   0  0  0  0  0  0  0  0  0  0  0  0
    3.4172  -35.9289   -9.3790 H   0  0  0  0  0  0  0  0  0  0  0  0
    5.5167  -36.1396   -9.8946 H   0  0  0  0  0  0  0  0  0  0  0  0
    4.3874  -36.4858  -11.2479 H   0  0  0  0  0  0  0  0  0  0  0  0
    5.3514  -34.9701  -11.2479 H   0  0  0  0  0  0  0  0  0  0  0  0
    9.9262  -36.9492   -3.2314 H   0  0  0  0  0  0  0  0  0  0  0  0
   11.9357  -38.1794   -4.5273 H   0  0  0  0  0  0  0  0  0  0  0  0
   11.5968  -37.2898   -2.9274 H   0  0  0  0  0  0  0  0  0  0  0  0
   11.0261  -38.6819   -2.0332 H   0  0  0  0  0  0  0  0  0  0  0  0
    8.7348  -38.7856   -2.3686 H   0  0  0  0  0  0  0  0  0  0  0  0
    7.3558  -40.1627   -2.0124 H   0  0  0  0  0  0  0  0  0  0  0  0
    6.7352  -39.4771   -3.5524 H   0  0  0  0  0  0  0  0  0  0  0  0
    7.5888  -41.0576   -3.5524 H   0  0  0  0  0  0  0  0  0  0  0  0
   11.0551  -41.4643   -1.8051 H   0  0  0  0  0  0  0  0  0  0  0  0
   12.6194  -41.9819   -2.5227 H   0  0  0  0  0  0  0  0  0  0  0  0
   14.3250  -39.8065   -3.1135 H   0  0  0  0  0  0  0  0  0  0  0  0
   13.6303  -38.2248   -2.6349 H   0  0  0  0  0  0  0  0  0  0  0  0
   13.7438  -40.8835    1.5581 H   0  0  0  0  0  0  0  0  0  0  0  0
   15.0496  -42.0105    0.9846 H   0  0  0  0  0  0  0  0  0  0  0  0
   16.1553  -39.6010    0.3307 H   0  0  0  0  0  0  0  0  0  0  0  0
   15.2164  -39.1314    1.7813 H   0  0  0  0  0  0  0  0  0  0  0  0
   10.2925  -35.6256   -4.1691 H   0  0  0  0  0  0  0  0  0  0  0  0
    8.6466  -35.4034   -4.6410 H   0  0  0  0  0  0  0  0  0  0  0  0
    9.7339  -34.7733   -6.9301 H   0  0  0  0  0  0  0  0  0  0  0  0
    5.3353  -33.5691   -7.5622 H   0  0  0  0  0  0  0  0  0  0  0  0
    3.6740  -35.3248   -8.1108 H   0  0  0  0  0  0  0  0  0  0  0  0
    3.1946  -32.7933   -8.4535 H   0  0  0  0  0  0  0  0  0  0  0  0
    1.3948  -32.5955   -8.5965 H   0  0  0  0  0  0  0  0  0  0  0  0
    1.0359  -34.2675   -7.8159 H   0  0  0  0  0  0  0  0  0  0  0  0
    4.6312  -36.3129   -5.8497 H   0  0  0  0  0  0  0  0  0  0  0  0
   10.1244  -40.7844   -3.2658 H   0  0  0  0  0  0  0  0  0  0  0  0
    8.2965  -37.5305   -3.4617 H   0  0  0  0  0  0  0  0  0  0  0  0
   12.7130  -42.3767   -0.1345 H   0  0  0  0  0  0  0  0  0  0  0  0
   12.1620  -40.6987    0.2080 H   0  0  0  0  0  0  0  0  0  0  0  0
   13.7294  -38.8035   -0.2839 H   0  0  0  0  0  0  0  0  0  0  0  0
   15.3347  -39.2061   -1.0102 H   0  0  0  0  0  0  0  0  0  0  0  0
   16.4348  -40.4635    3.0401 H   0  0  0  0  0  0  0  0  0  0  0  0
    1.1692   -2.6289   34.2740 H   0  0  0  0  0  0  0  0  0  0  0  0
    1.8316   -1.8543   32.7517 H   0  0  0  0  0  0  0  0  0  0  0  0
    2.6991   -3.2416   32.1772 H   0  0  0  0  0  0  0  0  0  0  0  0
    4.0533   -3.0748   32.8990 H   0  0  0  0  0  0  0  0  0  0  0  0
    7.8591   -1.7032   37.1592 H   0  0  0  0  0  0  0  0  0  0  0  0
    8.2991   -3.2884   36.2504 H   0  0  0  0  0  0  0  0  0  0  0  0
    6.8738   -4.2234   37.2276 H   0  0  0  0  0  0  0  0  0  0  0  0
    6.3014   -2.5908   37.9625 H   0  0  0  0  0  0  0  0  0  0  0  0
    5.6110   -4.2121   35.9385 H   0  0  0  0  0  0  0  0  0  0  0  0
    4.2419   -3.9812   38.1972 H   0  0  0  0  0  0  0  0  0  0  0  0
    3.1796   -3.6090   36.7973 H   0  0  0  0  0  0  0  0  0  0  0  0
    4.1742   -5.1048   36.7973 H   0  0  0  0  0  0  0  0  0  0  0  0
   -0.5061   -5.2551   29.6216 H   0  0  0  0  0  0  0  0  0  0  0  0
   -2.6284   -6.4610   30.7454 H   0  0  0  0  0  0  0  0  0  0  0  0
   -2.1193   -5.6277   29.1525 H   0  0  0  0  0  0  0  0  0  0  0  0
   -1.4986   -7.0319   28.3749 H   0  0  0  0  0  0  0  0  0  0  0  0
    0.7645   -7.0839   28.9339 H   0  0  0  0  0  0  0  0  0  0  0  0
    2.2233   -8.5133   30.8456 H   0  0  0  0  0  0  0  0  0  0  0  0
    1.7560   -9.2820   29.2907 H   0  0  0  0  0  0  0  0  0  0  0  0
    2.6009   -7.6968   29.2907 H   0  0  0  0  0  0  0  0  0  0  0  0
   -1.6566   -9.6976   27.8924 H   0  0  0  0  0  0  0  0  0  0  0  0
   -3.1680  -10.2376   28.6998 H   0  0  0  0  0  0  0  0  0  0  0  0
   -4.8208   -7.8984   29.4334 H   0  0  0  0  0  0  0  0  0  0  0  0
   -3.9998   -6.3809   28.9324 H   0  0  0  0  0  0  0  0  0  0  0  0
   -4.8523   -9.1472   24.7890 H   0  0  0  0  0  0  0  0  0  0  0  0
   -6.1685  -10.0144   25.6511 H   0  0  0  0  0  0  0  0  0  0  0  0
   -7.5038   -8.2273   25.2479 H   0  0  0  0  0  0  0  0  0  0  0  0
   -6.4669   -7.2785   26.3666 H   0  0  0  0  0  0  0  0  0  0  0  0
   -1.0369   -3.8986   30.4675 H   0  0  0  0  0  0  0  0  0  0  0  0
    0.5948   -3.6616   31.0006 H   0  0  0  0  0  0  0  0  0  0  0  0
   -0.5355   -2.9822   33.2453 H   0  0  0  0  0  0  0  0  0  0  0  0
    3.7574   -1.8798   34.1094 H   0  0  0  0  0  0  0  0  0  0  0  0
    5.4181   -3.6120   34.6994 H   0  0  0  0  0  0  0  0  0  0  0  0
    5.8087   -1.0689   35.0893 H   0  0  0  0  0  0  0  0  0  0  0  0
    7.5780   -0.8291   35.3542 H   0  0  0  0  0  0  0  0  0  0  0  0
    8.0357   -2.4705   34.5608 H   0  0  0  0  0  0  0  0  0  0  0  0
    4.9234   -4.9806   34.1939 H   0  0  0  0  0  0  0  0  0  0  0  0
   -0.6791   -9.0865   29.7214 H   0  0  0  0  0  0  0  0  0  0  0  0
    1.0890   -5.7897   30.0424 H   0  0  0  0  0  0  0  0  0  0  0  0
   -3.4720  -10.4765   26.2908 H   0  0  0  0  0  0  0  0  0  0  0  0
   -2.9129   -8.7932   26.0064 H   0  0  0  0  0  0  0  0  0  0  0  0
   -4.1940   -6.9791   26.5756 H   0  0  0  0  0  0  0  0  0  0  0  0
   -5.8138   -7.1612   27.3306 H   0  0  0  0  0  0  0  0  0  0  0  0
   -5.5456   -6.2941   24.6939 H   0  0  0  0  0  0  0  0  0  0  0  0
  1  2  1  0
  2  3  1  0
  5  6  1  0
  6  7  1  0
  7  8  1  0
  9 10  1  0
 10 11  1  0
 12 13  1  0
  4 16  1  0
 16 17  1  0
  9 18  1  0
 18 19  1  0
  1 20  1  0
 19 20  1  0
  2 21  1  0
 19 21  1  0
  3 22  1  0
  7 23  1  0
 22 23  1  0
 23 24  1  0
  5 25  1  0
 24 25  1  0
 24 26  1  0
  3 27  1  0
 11 28  1  0
 12 28  1  0
  9 29  1  0
 12 29  1  0
 11 30  1  0
 14 30  1  0
 15 30  1  0
  4 31  1  0
 14 31  1  0
  4 32  1  0
 15 32  1  0
 17 33  1  0
 34 35  1  0
 35 36  1  0
 38 39  1  0
 39 40  1  0
 40 41  1  0
 42 43  1  0
 43 44  1  0
 45 46  1  0
 37 49  1  0
 49 50  1  0
 42 51  1  0
 51 52  1  0
 34 53  1  0
 52 53  1  0
 35 54  1  0
 52 54  1  0
 36 55  1  0
 40 56  1  0
 55 56  1  0
 56 57  1  0
 38 58  1  0
 57 58  1  0
 57 59  1  0
 36 60  1  0
 44 61  1  0
 45 61  1  0
 42 62  1  0
 45 62  1  0
 44 63  1  0
 47 63  1  0
 48 63  1  0
 37 64  1  0
 47 64  1  0
 37 65  1  0
 48 65  1  0
 50 66  1  0
  1 67  1  0
  1 68  1  0
  2 69  1  0
  3 70  1  0
  5 71  1  0
  5 72  1  0
  6 73  1  0
  6 74  1  0
  7 75  1  0
  8 76  1  0
  8 77  1  0
  8 78  1  0
  9 79  1  0
 10 80  1  0
 10 81  1  0
 11 82  1  0
 12 83  1  0
 13 84  1  0
 13 85  1  0
 13 86  1  0
 14 87  1  0
 14 88  1  0
 15 89  1  0
 15 90  1  0
 16 91  1  0
 16 92  1  0
 17 93  1  0
 17 94  1  0
 18 95  1  0
 19 96  1  0
 20 97  1  0
 22 98  1  0
 23 99  1  0
 24100  1  0
 25101  1  0
 25102  1  0
 27103  1  0
 28104  1  0
 29105  1  0
 31106  1  0
 31107  1  0
 32108  1  0
 32109  1  0
 33110  1  0
 34111  1  0
 34112  1  0
 35113  1  0
 36114  1  0
 38115  1  0
 38116  1  0
 39117  1  0
 39118  1  0
 40119  1  0
 41120  1  0
 41121  1  0
 41122  1  0
 42123  1  0
 43124  1  0
 43125  1  0
 44126  1  0
 45127  1  0
 46128  1  0
 46129  1  0
 46130  1  0
 47131  1  0
 47132  1  0
 48133  1  0
 48134  1  0
 49135  1  0
 49136  1  0
 50137  1  0
 50138  1  0
 51139  1  0
 52140  1  0
 53141  1  0
 55142  1  0
 56143  1  0
 57144  1  0
 58145  1  0
 58146  1  0
 60147  1  0
 61148  1  0
 62149  1  0
 64150  1  0
 64151  1  0
 65152  1  0
 65153  1  0
 66154  1  0
M  END
>  <PDBID>  (1) 
3G5D

>  <PDB ID>  (1) 
3G5D

>  <Generic Name>  (1) 
Dasatinib

>  <Brand Name>  (1) 
Sprycel

>  <DrugBank ID>  (1) 
DB01254

>  <ATC Codes>  (1) 
L01XE06

>  <Ligand ID>  (1) 
1N1

>  <Target Name>  (1) 
Proto-oncogene tyrosine-protein kinase Src

>  <UniProt ID>  (1) 
P12931

>  <PDB ID.1>  (1) 
3G5D

>  <Seq. Identity>  (1) 
99%

$$$$
