PDB_DB00685_99
     RDKit          3D

 45 49  0  0  0  0  0  0  0  0999 V2000
  108.1830    6.2370   42.5050 C   0  0  0  0  0  0  0  0  0  0  0  0
  108.6980    5.3810   43.4660 C   0  0  0  0  0  0  0  0  0  0  0  0
  109.9180    4.7620   43.2630 C   0  0  0  0  0  0  0  0  0  0  0  0
  110.3990    3.9560   44.1650 F   0  0  0  0  0  0  0  0  0  0  0  0
  110.6280    5.0040   42.0950 C   0  0  0  0  0  0  0  0  0  0  0  0
  110.1120    5.8620   41.1380 C   0  0  0  0  0  0  0  0  0  0  0  0
  110.8030    6.0980   39.9980 F   0  0  0  0  0  0  0  0  0  0  0  0
  108.8840    6.4870   41.3410 C   0  0  0  0  0  0  0  0  0  0  0  0
  108.3760    7.3280   40.4030 N   0  0  0  0  0  0  0  0  0  0  0  0
  108.1830    8.6050   40.7800 C   0  0  0  0  0  0  0  0  0  0  0  0
  108.4870    9.0090   42.0270 N   0  0  0  0  0  0  0  0  0  0  0  0
  108.3060   10.2690   42.4690 C   0  0  0  0  0  0  0  0  0  0  0  0
  108.7160   10.5170   43.8520 N   0  0  0  0  0  0  0  0  0  0  0  0
  109.4340    9.5120   44.5880 C   0  0  0  0  0  0  0  0  0  0  0  0
  109.2720    9.9480   46.0100 C   0  0  1  0  0  0  0  0  0  0  0  0
  110.0900   11.1140   46.4490 C   0  0  0  0  0  0  0  0  0  0  0  0
  110.3820   11.2570   47.9050 N   0  0  0  0  0  0  0  0  0  0  0  0
  108.6700   11.3200   46.0220 C   0  0  1  0  0  0  0  0  0  0  0  0
  108.3990   11.7130   44.6010 C   0  0  0  0  0  0  0  0  0  0  0  0
  107.7970   11.2170   41.5910 C   0  0  0  0  0  0  0  0  0  0  0  0
  107.4690   10.8330   40.2870 C   0  0  0  0  0  0  0  0  0  0  0  0
  107.6640    9.5190   39.8770 C   0  0  0  0  0  0  0  0  0  0  0  0
  107.3450    9.1100   38.5870 C   0  0  0  0  0  0  0  0  0  0  0  0
  107.5610    7.7750   38.2220 C   0  0  0  0  0  0  0  0  0  0  0  0
  108.0800    6.8980   39.1710 C   0  0  0  0  0  0  0  0  0  0  0  0
  107.2470    7.2250   36.8500 C   0  0  0  0  0  0  0  0  0  0  0  0
  107.4720    6.0190   36.5850 O   0  0  0  0  0  0  0  0  0  0  0  0
  106.7920    7.9710   35.9710 O   0  0  0  0  0  0  0  0  0  0  0  0
  106.8890    9.9530   37.8290 O   0  0  0  0  0  0  0  0  0  0  0  0
  107.5970   12.4850   41.9480 F   0  0  0  0  0  0  0  0  0  0  0  0
  107.2090    6.7208   42.6704 H   0  0  0  0  0  0  0  0  0  0  0  0
  108.1350    5.1936   44.3922 H   0  0  0  0  0  0  0  0  0  0  0  0
  111.5993    4.5149   41.9297 H   0  0  0  0  0  0  0  0  0  0  0  0
  108.9942    8.5165   44.4282 H   0  0  0  0  0  0  0  0  0  0  0  0
  110.4867    9.4228   44.2816 H   0  0  0  0  0  0  0  0  0  0  0  0
  109.0931    8.9622   46.4641 H   0  0  0  0  0  0  0  0  0  0  0  0
  111.0659   11.5255   46.1520 H   0  0  0  0  0  0  0  0  0  0  0  0
  109.5980   10.8731   48.4517 H   0  0  0  0  0  0  0  0  0  0  0  0
  111.2447   10.7430   48.1343 H   0  0  0  0  0  0  0  0  0  0  0  0
  107.8470   11.8767   46.4940 H   0  0  0  0  0  0  0  0  0  0  0  0
  109.0434   12.5504   44.2952 H   0  0  0  0  0  0  0  0  0  0  0  0
  107.3662   12.0564   44.4416 H   0  0  0  0  0  0  0  0  0  0  0  0
  107.0560   11.5719   39.5845 H   0  0  0  0  0  0  0  0  0  0  0  0
  108.2479    5.8437   38.9058 H   0  0  0  0  0  0  0  0  0  0  0  0
  107.2647    5.6630   35.6848 H   0  0  0  0  0  0  0  0  0  0  0  0
  1  2  2  0
  2  3  1  0
  3  4  1  0
  3  5  2  0
  5  6  1  0
  6  7  1  0
  1  8  1  0
  6  8  2  0
  8  9  1  0
  9 10  1  0
 10 11  2  0
 11 12  1  0
 12 13  1  0
 13 14  1  0
 14 15  1  0
 15 16  1  0
 16 17  1  0
 15 18  1  0
 16 18  1  0
 13 19  1  0
 18 19  1  0
 12 20  2  0
 20 21  1  0
 10 22  1  0
 21 22  2  0
 22 23  1  0
 23 24  1  0
  9 25  1  0
 24 25  2  0
 24 26  1  0
 26 27  1  0
 26 28  2  0
 23 29  2  0
 20 30  1  0
  1 31  1  0
  2 32  1  0
  5 33  1  0
 14 34  1  0
 14 35  1  0
 15 36  1  1
 16 37  1  0
 17 38  1  0
 17 39  1  0
 18 40  1  1
 19 41  1  0
 19 42  1  0
 21 43  1  0
 25 44  1  0
 27 45  1  0
M  END
$$$$
