PDB_DB00443_97
     RDKit          3D

260272  0  0  0  0  0  0  0  0999 V2000
   45.3620   11.6490    1.4280 C   0  0  0  0  0  0  0  0  0  0  0  0
   44.5080   11.6060    2.5580 C   0  0  0  0  0  0  0  0  0  0  0  0
   43.2750   10.7160    2.5210 C   0  0  0  0  0  0  0  0  0  0  0  0
   43.0340    9.8980    1.2260 C   0  0  0  0  0  0  0  0  0  0  0  0
   43.8680    9.9340    0.1110 C   0  0  0  0  0  0  0  0  0  0  0  0
   43.5710    9.0470   -1.2390 C   0  0  0  0  0  0  0  0  0  0  0  0
   43.6360    9.9620   -2.5010 C   0  0  0  0  0  0  0  0  0  0  0  0
   44.9910   10.8500   -2.6160 C   0  0  2  0  0  0  0  0  0  0  0  0
   45.2330   11.7580   -1.3120 C   0  0  1  0  0  0  0  0  0  0  0  0
   45.1930   10.8430    0.0490 C   0  0  1  0  0  0  0  0  0  0  0  0
   46.5450   12.6900   -1.4270 C   0  0  2  0  0  0  0  0  0  0  0  0
   46.5410   13.5010   -2.7560 C   0  0  0  0  0  0  0  0  0  0  0  0
   46.2500   12.7010   -4.1270 C   0  0  1  0  0  0  0  0  0  0  0  0
   44.9760   11.7950   -3.9210 C   0  0  1  0  0  0  0  0  0  0  0  0
   44.8000   11.1280   -5.3530 C   0  0  0  0  0  0  0  0  0  0  0  0
   44.8440   12.3550   -6.2390 C   0  0  2  0  0  0  0  0  0  0  0  0
   45.7500   13.4130   -5.4670 C   0  0  2  0  0  0  0  0  0  0  0  0
   47.6290   11.8760   -4.4420 C   0  0  0  0  0  0  0  0  0  0  0  0
   46.4090    9.8030    0.0310 C   0  0  0  0  0  0  0  0  0  0  0  0
   46.7980   14.1950   -6.3250 C   0  0  0  0  0  0  0  0  0  0  0  0
   47.6820   15.2200   -5.6550 C   0  0  0  0  0  0  0  0  0  0  0  0
   43.3910   12.8960   -6.5150 C   0  0  0  0  0  0  0  0  0  0  0  0
   44.1630   12.5830   -1.1720 F   0  0  0  0  0  0  0  0  0  0  0  0
   42.4370   10.6010    3.4880 O   0  0  0  0  0  0  0  0  0  0  0  0
   47.7590   12.0980   -1.3080 O   0  0  0  0  0  0  0  0  0  0  0  0
   45.0280   14.5770   -5.2180 O   0  0  0  0  0  0  0  0  0  0  0  0
   46.8780   13.9440   -7.5680 O   0  0  0  0  0  0  0  0  0  0  0  0
   48.5160   15.7820   -6.5820 O   0  0  0  0  0  0  0  0  0  0  0  0
   53.8020    7.0210   35.4740 C   0  0  0  0  0  0  0  0  0  0  0  0
   54.2920    6.3130   34.3590 C   0  0  0  0  0  0  0  0  0  0  0  0
   54.4340    4.8120   34.4580 C   0  0  0  0  0  0  0  0  0  0  0  0
   54.0240    4.1390   35.7810 C   0  0  0  0  0  0  0  0  0  0  0  0
   53.5430    4.8190   36.8790 C   0  0  0  0  0  0  0  0  0  0  0  0
   53.1230    4.0510   38.2550 C   0  0  0  0  0  0  0  0  0  0  0  0
   53.7830    4.7500   39.4780 C   0  0  0  0  0  0  0  0  0  0  0  0
   53.5610    6.3660   39.5420 C   0  0  2  0  0  0  0  0  0  0  0  0
   54.0510    7.1080   38.2020 C   0  0  1  0  0  0  0  0  0  0  0  0
   53.3540    6.4140   36.8930 C   0  0  1  0  0  0  0  0  0  0  0  0
   53.8920    8.6910   38.2630 C   0  0  2  0  0  0  0  0  0  0  0  0
   54.5340    9.2710   39.5560 C   0  0  0  0  0  0  0  0  0  0  0  0
   54.1330    8.5880   40.9670 C   0  0  1  0  0  0  0  0  0  0  0  0
   54.2940    7.0280   40.8200 C   0  0  1  0  0  0  0  0  0  0  0  0
   53.9300    6.5000   42.2760 C   0  0  0  0  0  0  0  0  0  0  0  0
   54.8200    7.3790   43.1320 C   0  0  2  0  0  0  0  0  0  0  0  0
   55.0010    8.7370   42.3070 C   0  0  2  0  0  0  0  0  0  0  0  0
   52.6050    9.0880   41.2770 C   0  0  0  0  0  0  0  0  0  0  0  0
   51.7680    6.6260   36.9730 C   0  0  0  0  0  0  0  0  0  0  0  0
   54.8640   10.0630   43.1200 C   0  0  0  0  0  0  0  0  0  0  0  0
   55.0270   11.3830   42.3890 C   0  0  0  0  0  0  0  0  0  0  0  0
   56.1920    6.6600   43.4480 C   0  0  0  0  0  0  0  0  0  0  0  0
   55.3690    6.8730   38.0370 F   0  0  0  0  0  0  0  0  0  0  0  0
   54.8640    4.0780   33.5200 O   0  0  0  0  0  0  0  0  0  0  0  0
   52.6500    9.1890   38.1500 O   0  0  0  0  0  0  0  0  0  0  0  0
   56.3520    8.9790   42.0560 O   0  0  0  0  0  0  0  0  0  0  0  0
   54.6180    9.9870   44.3680 O   0  0  0  0  0  0  0  0  0  0  0  0
   54.8740   12.4290   43.2600 O   0  0  0  0  0  0  0  0  0  0  0  0
   31.8260   30.2790   19.6120 C   0  0  0  0  0  0  0  0  0  0  0  0
   31.3450   29.4740   18.5510 C   0  0  0  0  0  0  0  0  0  0  0  0
   30.0540   28.6950   18.7430 C   0  0  0  0  0  0  0  0  0  0  0  0
   29.3400   28.8290   20.1010 C   0  0  0  0  0  0  0  0  0  0  0  0
   29.7980   29.6080   21.1400 C   0  0  0  0  0  0  0  0  0  0  0  0
   28.9820   29.7010   22.5460 C   0  0  0  0  0  0  0  0  0  0  0  0
   29.9500   29.5200   23.7470 C   0  0  0  0  0  0  0  0  0  0  0  0
   31.2920   30.4560   23.7090 C   0  0  2  0  0  0  0  0  0  0  0  0
   32.1400   30.2670   22.3530 C   0  0  1  0  0  0  0  0  0  0  0  0
   31.1550   30.4850   21.0510 C   0  0  1  0  0  0  0  0  0  0  0  0
   33.5000   31.1410   22.3380 C   0  0  2  0  0  0  0  0  0  0  0  0
   34.3320   30.8870   23.6230 C   0  0  0  0  0  0  0  0  0  0  0  0
   33.5670   31.0370   25.0390 C   0  0  1  0  0  0  0  0  0  0  0  0
   32.2430   30.1870   24.9790 C   0  0  1  0  0  0  0  0  0  0  0  0
   31.6360   30.3810   26.4370 C   0  0  0  0  0  0  0  0  0  0  0  0
   32.8270   30.0270   27.2940 C   0  0  2  0  0  0  0  0  0  0  0  0
   34.0970   30.4040   26.4200 C   0  0  2  0  0  0  0  0  0  0  0  0
   33.3490   32.6420   25.2220 C   0  0  0  0  0  0  0  0  0  0  0  0
   30.6320   32.0000   21.0290 C   0  0  0  0  0  0  0  0  0  0  0  0
   35.2340   31.1260   27.1930 C   0  0  0  0  0  0  0  0  0  0  0  0
   36.4840   31.5220   26.4380 C   0  0  0  0  0  0  0  0  0  0  0  0
   32.8030   28.5020   27.7010 C   0  0  0  0  0  0  0  0  0  0  0  0
   32.5210   28.9740   22.2660 F   0  0  0  0  0  0  0  0  0  0  0  0
   29.5280   27.9430   17.8560 O   0  0  0  0  0  0  0  0  0  0  0  0
   33.3740   32.4760   22.2080 O   0  0  0  0  0  0  0  0  0  0  0  0
   34.8880   29.2710   26.2220 O   0  0  0  0  0  0  0  0  0  0  0  0
   35.0680   31.3590   28.4440 O   0  0  0  0  0  0  0  0  0  0  0  0
   37.3530   32.1370   27.2860 O   0  0  0  0  0  0  0  0  0  0  0  0
   31.0330   40.3600  -13.3970 C   0  0  0  0  0  0  0  0  0  0  0  0
   30.4250   41.0850  -12.3570 C   0  0  0  0  0  0  0  0  0  0  0  0
   29.0570   41.7050  -12.5930 C   0  0  0  0  0  0  0  0  0  0  0  0
   28.4190   41.5050  -13.9780 C   0  0  0  0  0  0  0  0  0  0  0  0
   29.0070   40.7990  -15.0020 C   0  0  0  0  0  0  0  0  0  0  0  0
   28.2690   40.6260  -16.4510 C   0  0  0  0  0  0  0  0  0  0  0  0
   29.2590   40.9340  -17.6080 C   0  0  0  0  0  0  0  0  0  0  0  0
   30.6920   40.1630  -17.5070 C   0  0  2  0  0  0  0  0  0  0  0  0
   31.4450   40.4360  -16.1120 C   0  0  1  0  0  0  0  0  0  0  0  0
   30.4450   40.0950  -14.8560 C   0  0  1  0  0  0  0  0  0  0  0  0
   32.8910   39.7370  -16.0200 C   0  0  2  0  0  0  0  0  0  0  0  0
   33.7430   40.0780  -17.2560 C   0  0  0  0  0  0  0  0  0  0  0  0
   33.0770   39.8290  -18.7050 C   0  0  1  0  0  0  0  0  0  0  0  0
   31.6780   40.5370  -18.7290 C   0  0  1  0  0  0  0  0  0  0  0  0
   31.1750   40.2780  -20.2150 C   0  0  0  0  0  0  0  0  0  0  0  0
   32.3800   40.7300  -21.0100 C   0  0  2  0  0  0  0  0  0  0  0  0
   33.6430   40.4770  -20.0490 C   0  0  2  0  0  0  0  0  0  0  0  0
   33.0050   38.2060  -18.8840 C   0  0  0  0  0  0  0  0  0  0  0  0
   30.1020   38.5280  -14.8390 C   0  0  0  0  0  0  0  0  0  0  0  0
   34.8800   39.7880  -20.7130 C   0  0  0  0  0  0  0  0  0  0  0  0
   36.0990   39.5130  -19.8670 C   0  0  0  0  0  0  0  0  0  0  0  0
   32.2180   42.2300  -21.4670 C   0  0  0  0  0  0  0  0  0  0  0  0
   31.6530   41.7670  -16.0090 F   0  0  0  0  0  0  0  0  0  0  0  0
   28.4080   42.3790  -11.7190 O   0  0  0  0  0  0  0  0  0  0  0  0
   32.9240   38.4060  -15.8700 O   0  0  0  0  0  0  0  0  0  0  0  0
   34.3450   41.6590  -19.8180 O   0  0  0  0  0  0  0  0  0  0  0  0
   34.8180   39.4740  -21.9480 O   0  0  0  0  0  0  0  0  0  0  0  0
   37.0570   38.9020  -20.6260 O   0  0  0  0  0  0  0  0  0  0  0  0
   45.3872   12.7087    1.1339 H   0  0  0  0  0  0  0  0  0  0  0  0
   46.2246   11.1060    1.8417 H   0  0  0  0  0  0  0  0  0  0  0  0
   45.1189   11.2741    3.4104 H   0  0  0  0  0  0  0  0  0  0  0  0
   44.0951   12.6240    2.6136 H   0  0  0  0  0  0  0  0  0  0  0  0
   42.6872   11.5476    2.1051 H   0  0  0  0  0  0  0  0  0  0  0  0
   43.0043    8.8445    1.5411 H   0  0  0  0  0  0  0  0  0  0  0  0
   42.1371   10.3967    0.8299 H   0  0  0  0  0  0  0  0  0  0  0  0
   44.4589    9.1043    0.5262 H   0  0  0  0  0  0  0  0  0  0  0  0
   44.3258    8.2515   -1.3260 H   0  0  0  0  0  0  0  0  0  0  0  0
   42.5678    8.6016   -1.1661 H   0  0  0  0  0  0  0  0  0  0  0  0
   43.5667    9.3228   -3.3935 H   0  0  0  0  0  0  0  0  0  0  0  0
   42.8007   10.6728   -2.4171 H   0  0  0  0  0  0  0  0  0  0  0  0
   45.8173   10.1291   -2.7021 H   0  0  0  0  0  0  0  0  0  0  0  0
   46.4426   13.3242   -0.5341 H   0  0  0  0  0  0  0  0  0  0  0  0
   45.7709   14.2808   -2.6618 H   0  0  0  0  0  0  0  0  0  0  0  0
   47.5743   13.8632   -2.8616 H   0  0  0  0  0  0  0  0  0  0  0  0
   44.0692   12.3489   -3.6365 H   0  0  0  0  0  0  0  0  0  0  0  0
   45.6220   10.4334   -5.5808 H   0  0  0  0  0  0  0  0  0  0  0  0
   43.8928   10.5158   -5.4641 H   0  0  0  0  0  0  0  0  0  0  0  0
   45.2681   12.1362   -7.2301 H   0  0  0  0  0  0  0  0  0  0  0  0
   48.1090   11.5889   -3.4948 H   0  0  0  0  0  0  0  0  0  0  0  0
   47.3911   10.9717   -5.0214 H   0  0  0  0  0  0  0  0  0  0  0  0
   48.3133   12.5132   -5.0214 H   0  0  0  0  0  0  0  0  0  0  0  0
   46.6965    9.5571    1.0639 H   0  0  0  0  0  0  0  0  0  0  0  0
   46.0994    8.8859   -0.4916 H   0  0  0  0  0  0  0  0  0  0  0  0
   47.2670   10.2510   -0.4916 H   0  0  0  0  0  0  0  0  0  0  0  0
   46.0491   14.9744   -6.5293 H   0  0  0  0  0  0  0  0  0  0  0  0
   47.0563   16.0035   -5.2026 H   0  0  0  0  0  0  0  0  0  0  0  0
   48.2813   14.7306   -4.8731 H   0  0  0  0  0  0  0  0  0  0  0  0
   42.8824   13.0854   -5.5582 H   0  0  0  0  0  0  0  0  0  0  0  0
   43.4513   13.8319   -7.0898 H   0  0  0  0  0  0  0  0  0  0  0  0
   42.8245   12.1486   -7.0898 H   0  0  0  0  0  0  0  0  0  0  0  0
   42.9178   10.6670    4.3509 H   0  0  0  0  0  0  0  0  0  0  0  0
   47.9808   11.9898   -0.3493 H   0  0  0  0  0  0  0  0  0  0  0  0
   44.9449   14.7110   -4.2406 H   0  0  0  0  0  0  0  0  0  0  0  0
   47.1761   13.0088   -7.6973 H   0  0  0  0  0  0  0  0  0  0  0  0
   49.2418   16.2711   -6.1194 H   0  0  0  0  0  0  0  0  0  0  0  0
   54.5912    7.7484   35.7151 H   0  0  0  0  0  0  0  0  0  0  0  0
   52.8116    7.2968   35.0828 H   0  0  0  0  0  0  0  0  0  0  0  0
   53.6114    6.5192   33.5198 H   0  0  0  0  0  0  0  0  0  0  0  0
   55.3256    6.6724   34.2475 H   0  0  0  0  0  0  0  0  0  0  0  0
   55.4591    4.9340   34.8378 H   0  0  0  0  0  0  0  0  0  0  0  0
   53.2419    3.4126   35.5151 H   0  0  0  0  0  0  0  0  0  0  0  0
   55.0030    3.8059   36.1561 H   0  0  0  0  0  0  0  0  0  0  0  0
   52.5165    4.7032   36.5010 H   0  0  0  0  0  0  0  0  0  0  0  0
   52.0291    4.0771   38.3673 H   0  0  0  0  0  0  0  0  0  0  0  0
   53.4685    3.0078   38.2058 H   0  0  0  0  0  0  0  0  0  0  0  0
   53.3608    4.3097   40.3933 H   0  0  0  0  0  0  0  0  0  0  0  0
   54.8668    4.5890   39.3803 H   0  0  0  0  0  0  0  0  0  0  0  0
   52.4749    6.5101   39.6406 H   0  0  0  0  0  0  0  0  0  0  0  0
   54.4211    9.0126   37.3538 H   0  0  0  0  0  0  0  0  0  0  0  0
   55.6253    9.1850   39.4479 H   0  0  0  0  0  0  0  0  0  0  0  0
   54.1442   10.2974   39.6234 H   0  0  0  0  0  0  0  0  0  0  0  0
   55.3079    6.7068   40.5393 H   0  0  0  0  0  0  0  0  0  0  0  0
   52.8659    6.6548   42.5077 H   0  0  0  0  0  0  0  0  0  0  0  0
   54.0853    5.4205   42.4193 H   0  0  0  0  0  0  0  0  0  0  0  0
   54.3790    7.5868   44.1181 H   0  0  0  0  0  0  0  0  0  0  0  0
   52.4494    9.1389   42.3648 H   0  0  0  0  0  0  0  0  0  0  0  0
   52.4488   10.0841   40.8373 H   0  0  0  0  0  0  0  0  0  0  0  0
   51.8902    8.3769   40.8373 H   0  0  0  0  0  0  0  0  0  0  0  0
   51.4564    6.6677   38.0271 H   0  0  0  0  0  0  0  0  0  0  0  0
   51.4983    7.5682   36.4734 H   0  0  0  0  0  0  0  0  0  0  0  0
   51.2604    5.7877   36.4734 H   0  0  0  0  0  0  0  0  0  0  0  0
   55.9437   10.0459   43.3298 H   0  0  0  0  0  0  0  0  0  0  0  0
   56.0302   11.4280   41.9400 H   0  0  0  0  0  0  0  0  0  0  0  0
   54.2600   11.4551   41.6038 H   0  0  0  0  0  0  0  0  0  0  0  0
   56.3266    6.5895   44.5375 H   0  0  0  0  0  0  0  0  0  0  0  0
   56.1851    5.6496   43.0132 H   0  0  0  0  0  0  0  0  0  0  0  0
   57.0189    7.2406   43.0132 H   0  0  0  0  0  0  0  0  0  0  0  0
   55.3255    3.2902   33.9026 H   0  0  0  0  0  0  0  0  0  0  0  0
   52.2719    9.3406   39.0523 H   0  0  0  0  0  0  0  0  0  0  0  0
   56.8368    9.0658   42.9148 H   0  0  0  0  0  0  0  0  0  0  0  0
   55.4277   10.2371   44.8798 H   0  0  0  0  0  0  0  0  0  0  0  0
   54.9230   12.0937   44.1902 H   0  0  0  0  0  0  0  0  0  0  0  0
   32.8349   29.8949   19.8231 H   0  0  0  0  0  0  0  0  0  0  0  0
   31.6267   31.2718   19.1824 H   0  0  0  0  0  0  0  0  0  0  0  0
   31.1958   30.1367   17.6858 H   0  0  0  0  0  0  0  0  0  0  0  0
   32.1114   28.6920   18.4452 H   0  0  0  0  0  0  0  0  0  0  0  0
   30.6276   27.8395   19.1290 H   0  0  0  0  0  0  0  0  0  0  0  0
   28.3310   29.2021   19.8714 H   0  0  0  0  0  0  0  0  0  0  0  0
   29.4892   27.8209   20.5151 H   0  0  0  0  0  0  0  0  0  0  0  0
   29.2256   30.4631   20.7512 H   0  0  0  0  0  0  0  0  0  0  0  0
   28.4951   30.6847   22.6180 H   0  0  0  0  0  0  0  0  0  0  0  0
   28.2263   28.9022   22.5734 H   0  0  0  0  0  0  0  0  0  0  0  0
   29.3969   29.7558   24.6681 H   0  0  0  0  0  0  0  0  0  0  0  0
   30.3029   28.4792   23.6999 H   0  0  0  0  0  0  0  0  0  0  0  0
   30.9312   31.4945   23.7449 H   0  0  0  0  0  0  0  0  0  0  0  0
   33.9933   30.7862   21.4211 H   0  0  0  0  0  0  0  0  0  0  0  0
   34.7246   29.8610   23.5658 H   0  0  0  0  0  0  0  0  0  0  0  0
   35.0958   31.6785   23.6277 H   0  0  0  0  0  0  0  0  0  0  0  0
   32.4122   29.1211   24.7665 H   0  0  0  0  0  0  0  0  0  0  0  0
   31.3117   31.4186   26.6048 H   0  0  0  0  0  0  0  0  0  0  0  0
   30.7376   29.7789   26.6380 H   0  0  0  0  0  0  0  0  0  0  0  0
   32.8315   30.5746   28.2480 H   0  0  0  0  0  0  0  0  0  0  0  0
   33.3156   32.8877   26.2937 H   0  0  0  0  0  0  0  0  0  0  0  0
   34.1821   33.1816   24.7479 H   0  0  0  0  0  0  0  0  0  0  0  0
   32.4022   32.9398   24.7479 H   0  0  0  0  0  0  0  0  0  0  0  0
   30.5077   32.3600   22.0610 H   0  0  0  0  0  0  0  0  0  0  0  0
   31.3637   32.6329   20.5055 H   0  0  0  0  0  0  0  0  0  0  0  0
   29.6657   32.0468   20.5055 H   0  0  0  0  0  0  0  0  0  0  0  0
   35.6877   30.1534   27.4341 H   0  0  0  0  0  0  0  0  0  0  0  0
   36.9577   30.6230   26.0167 H   0  0  0  0  0  0  0  0  0  0  0  0
   36.2166   32.2124   25.6244 H   0  0  0  0  0  0  0  0  0  0  0  0
   32.8016   28.4151   28.7976 H   0  0  0  0  0  0  0  0  0  0  0  0
   31.8973   28.0282   27.2945 H   0  0  0  0  0  0  0  0  0  0  0  0
   33.6934   28.0000   27.2945 H   0  0  0  0  0  0  0  0  0  0  0  0
   29.0202   27.2170   18.2978 H   0  0  0  0  0  0  0  0  0  0  0  0
   33.3347   32.8927   23.1052 H   0  0  0  0  0  0  0  0  0  0  0  0
   35.1508   28.8946   27.0991 H   0  0  0  0  0  0  0  0  0  0  0  0
   35.5533   30.6779   28.9738 H   0  0  0  0  0  0  0  0  0  0  0  0
   37.0890   31.9502   28.2217 H   0  0  0  0  0  0  0  0  0  0  0  0
   31.9963   40.8631  -13.5672 H   0  0  0  0  0  0  0  0  0  0  0  0
   30.9391   39.3454  -12.9825 H   0  0  0  0  0  0  0  0  0  0  0  0
   30.3254   40.4002  -11.5019 H   0  0  0  0  0  0  0  0  0  0  0  0
   31.0873   41.9521  -12.2174 H   0  0  0  0  0  0  0  0  0  0  0  0
   29.5370   42.6291  -12.9475 H   0  0  0  0  0  0  0  0  0  0  0  0
   27.4530   41.0125  -13.7928 H   0  0  0  0  0  0  0  0  0  0  0  0
   28.4633   42.5287  -14.3780 H   0  0  0  0  0  0  0  0  0  0  0  0
   28.5225   39.8781  -14.6453 H   0  0  0  0  0  0  0  0  0  0  0  0
   27.9062   39.5924  -16.5510 H   0  0  0  0  0  0  0  0  0  0  0  0
   27.4269   41.3315  -16.5070 H   0  0  0  0  0  0  0  0  0  0  0  0
   28.7800   40.6429  -18.5545 H   0  0  0  0  0  0  0  0  0  0  0  0
   29.4816   42.0095  -17.5462 H   0  0  0  0  0  0  0  0  0  0  0  0
   30.4470   39.0923  -17.5660 H   0  0  0  0  0  0  0  0  0  0  0  0
   33.2914   40.1582  -15.0861 H   0  0  0  0  0  0  0  0  0  0  0  0
   34.0063   41.1441  -17.1920 H   0  0  0  0  0  0  0  0  0  0  0  0
   34.5944   39.3828  -17.2130 H   0  0  0  0  0  0  0  0  0  0  0  0
   31.7227   41.6164  -18.5221 H   0  0  0  0  0  0  0  0  0  0  0  0
   30.9533   39.2144  -20.3869 H   0  0  0  0  0  0  0  0  0  0  0  0
   30.2400   40.7963  -20.4743 H   0  0  0  0  0  0  0  0  0  0  0  0
   32.5078   40.1719  -21.9493 H   0  0  0  0  0  0  0  0  0  0  0  0
   32.9838   37.7284  -17.8933 H   0  0  0  0  0  0  0  0  0  0  0  0
   32.0941   37.9384  -19.4396 H   0  0  0  0  0  0  0  0  0  0  0  0
   33.8886   37.8588  -19.4396 H   0  0  0  0  0  0  0  0  0  0  0  0
   30.0260   38.1806  -13.7981 H   0  0  0  0  0  0  0  0  0  0  0  0
   29.1451   38.3565  -15.3536 H   0  0  0  0  0  0  0  0  0  0  0  0
   30.8998   37.9724  -15.3536 H   0  0  0  0  0  0  0  0  0  0  0  0
   35.2870   40.7748  -20.9787 H   0  0  0  0  0  0  0  0  0  0  0  0
   36.4934   40.4618  -19.4744 H   0  0  0  0  0  0  0  0  0  0  0  0
   35.8215   38.8546  -19.0307 H   0  0  0  0  0  0  0  0  0  0  0  0
   32.1480   42.8778  -20.5807 H   0  0  0  0  0  0  0  0  0  0  0  0
   33.0894   42.5259  -22.0696 H   0  0  0  0  0  0  0  0  0  0  0  0
   31.3035   42.3330  -22.0696 H   0  0  0  0  0  0  0  0  0  0  0  0
   28.6827   42.0938  -10.8116 H   0  0  0  0  0  0  0  0  0  0  0  0
   32.9295   38.1826  -14.9055 H   0  0  0  0  0  0  0  0  0  0  0  0
   34.4322   41.8058  -18.8428 H   0  0  0  0  0  0  0  0  0  0  0  0
   34.6269   38.5064  -22.0333 H   0  0  0  0  0  0  0  0  0  0  0  0
   37.7255   38.4757  -20.0331 H   0  0  0  0  0  0  0  0  0  0  0  0
  1  2  1  0
  2  3  1  0
  3  4  1  0
  4  5  1  0
  5  6  1  0
  6  7  1  0
  7  8  1  0
  8  9  1  0
  1 10  1  0
  5 10  1  0
  9 10  1  0
  9 11  1  0
 11 12  1  0
 12 13  1  0
  8 14  1  0
 13 14  1  0
 14 15  1  0
 15 16  1  0
 13 17  1  0
 16 17  1  0
 13 18  1  6
 10 19  1  6
 17 20  1  0
 20 21  1  0
 16 22  1  0
  9 23  1  1
  3 24  1  0
 11 25  1  0
 17 26  1  1
 20 27  1  0
 21 28  1  0
 29 30  1  0
 30 31  1  0
 31 32  1  0
 32 33  1  0
 33 34  1  0
 34 35  1  0
 35 36  1  0
 36 37  1  0
 29 38  1  0
 33 38  1  0
 37 38  1  0
 37 39  1  0
 39 40  1  0
 40 41  1  0
 36 42  1  0
 41 42  1  0
 42 43  1  0
 43 44  1  0
 41 45  1  0
 44 45  1  0
 41 46  1  1
 38 47  1  1
 45 48  1  0
 48 49  1  0
 44 50  1  0
 37 51  1  6
 31 52  1  0
 39 53  1  0
 45 54  1  6
 48 55  1  0
 49 56  1  0
 57 58  1  0
 58 59  1  0
 59 60  1  0
 60 61  1  0
 61 62  1  0
 62 63  1  0
 63 64  1  0
 64 65  1  0
 57 66  1  0
 61 66  1  0
 65 66  1  0
 65 67  1  0
 67 68  1  0
 68 69  1  0
 64 70  1  0
 69 70  1  0
 70 71  1  0
 71 72  1  0
 69 73  1  0
 72 73  1  0
 69 74  1  1
 66 75  1  6
 73 76  1  0
 76 77  1  0
 72 78  1  0
 65 79  1  1
 59 80  1  0
 67 81  1  0
 73 82  1  6
 76 83  1  0
 77 84  1  0
 85 86  1  0
 86 87  1  0
 87 88  1  0
 88 89  1  0
 89 90  1  0
 90 91  1  0
 91 92  1  0
 92 93  1  0
 85 94  1  0
 89 94  1  0
 93 94  1  0
 93 95  1  0
 95 96  1  0
 96 97  1  0
 92 98  1  0
 97 98  1  0
 98 99  1  0
 99100  1  0
 97101  1  0
100101  1  0
 97102  1  6
 94103  1  1
101104  1  0
104105  1  0
100106  1  0
 93107  1  6
 87108  1  0
 95109  1  0
101110  1  1
104111  1  0
105112  1  0
  1113  1  0
  1114  1  0
  2115  1  0
  2116  1  0
  3117  1  0
  4118  1  0
  4119  1  0
  5120  1  0
  6121  1  0
  6122  1  0
  7123  1  0
  7124  1  0
  8125  1  6
 11126  1  1
 12127  1  0
 12128  1  0
 14129  1  1
 15130  1  0
 15131  1  0
 16132  1  6
 18133  1  0
 18134  1  0
 18135  1  0
 19136  1  0
 19137  1  0
 19138  1  0
 20139  1  0
 21140  1  0
 21141  1  0
 22142  1  0
 22143  1  0
 22144  1  0
 24145  1  0
 25146  1  0
 26147  1  0
 27148  1  0
 28149  1  0
 29150  1  0
 29151  1  0
 30152  1  0
 30153  1  0
 31154  1  0
 32155  1  0
 32156  1  0
 33157  1  0
 34158  1  0
 34159  1  0
 35160  1  0
 35161  1  0
 36162  1  1
 39163  1  6
 40164  1  0
 40165  1  0
 42166  1  6
 43167  1  0
 43168  1  0
 44169  1  1
 46170  1  0
 46171  1  0
 46172  1  0
 47173  1  0
 47174  1  0
 47175  1  0
 48176  1  0
 49177  1  0
 49178  1  0
 50179  1  0
 50180  1  0
 50181  1  0
 52182  1  0
 53183  1  0
 54184  1  0
 55185  1  0
 56186  1  0
 57187  1  0
 57188  1  0
 58189  1  0
 58190  1  0
 59191  1  0
 60192  1  0
 60193  1  0
 61194  1  0
 62195  1  0
 62196  1  0
 63197  1  0
 63198  1  0
 64199  1  1
 67200  1  6
 68201  1  0
 68202  1  0
 70203  1  1
 71204  1  0
 71205  1  0
 72206  1  1
 74207  1  0
 74208  1  0
 74209  1  0
 75210  1  0
 75211  1  0
 75212  1  0
 76213  1  0
 77214  1  0
 77215  1  0
 78216  1  0
 78217  1  0
 78218  1  0
 80219  1  0
 81220  1  0
 82221  1  0
 83222  1  0
 84223  1  0
 85224  1  0
 85225  1  0
 86226  1  0
 86227  1  0
 87228  1  0
 88229  1  0
 88230  1  0
 89231  1  0
 90232  1  0
 90233  1  0
 91234  1  0
 91235  1  0
 92236  1  6
 95237  1  1
 96238  1  0
 96239  1  0
 98240  1  6
 99241  1  0
 99242  1  0
100243  1  6
102244  1  0
102245  1  0
102246  1  0
103247  1  0
103248  1  0
103249  1  0
104250  1  0
105251  1  0
105252  1  0
106253  1  0
106254  1  0
106255  1  0
108256  1  0
109257  1  0
110258  1  0
111259  1  0
112260  1  0
M  END
>  <PDBID>  (1) 
1P93

>  <PDB ID>  (1) 
1P93

>  <Generic Name>  (1) 
Betamethasone

>  <Brand Name>  (1) 
Beben Gel 0.025%#Beta 1 Kit#Betacort Scalp Lotion 0.1%#Betaderm Crm 0.05%#Betaderm Crm 0.1%#Betaderm Lotion 0.1%#Betaderm Ont 0.05%#Betaderm Ont 0.1%#Betagel - 0.1%#Betaject#Betaloan Suik#Betamethasone#Betamethasone Clotrimazole#Betamethasone Combo 6mg/ml PF#Betamethasone Combo 7mg/ml#Betamethasone Dipropionate#Betamethasone Dipropionate Augmented#Betamethasone Sodium Phosphate and Betamethasone Acetate#Betamethasone Sp 24mg/2ml PF#Betamethasone Valerate#Betamethasone Valerate Lot 0.1% USP#Betamycin Ophthalmic/otic Solution#Betaprolene Cream 0.05%#Betaprolene Ointment 0.05%#Betaprone Cream 0.05%#Betaprone Lotion 0.05%#Betaprone Ointment 0.05%#Beteflam#Betnesol Eye and Ear Drops#Betnesol Eye and Ear Drops 0.1%#Betnesol Pellets 0.1mg#Betnesol Retention Enema 5mg/100ml#Betnesol Retention Enemas#Betnesol Tab 0.5mg#Betnesol Tablets#Betnovate 1/2 Crm 0.05%#Betnovate 1/2 Lot 0.05%#Betnovate 1/2 Ont 0.05%#Betnovate Crm 0.1%#Betnovate Lot 0.1%#Betnovate Lotion 0.1%#Betnovate Ont 0.1%#Calcipotriene 0.005% and Betamethasone Dipropionate 0.064%#Calcipotriene and Betamethasone Dipropionate#Celestoderm V#Celestoderm V Crm 0.1%#Celestoderm V Ont 0.1%#Celestoderm V/2#Celestoderm V/2 Cream .05%#Celestoderm V/2 Ointment 0.05%#Celestone Repetabs 1mg#Celestone Soluspan#Celestone Tab 0.5mg#Clotrimazole and Betamethasone Dipropionate#Dermacinrx Therazole Pak#Diprogen Cream#Diprogen Ointment#Diprolene#Diprolene AF#Diprosalic#Diprosone Cream 0.05%#Diprosone Lotion 0.05%#Diprosone Ointment 0.05%#Dom-gentamicin-betamethasone#Dovobet Gel#Dovobet Ointment#Dr. Throwers Beta#Dr. Throwers Pbc No. 1#Enstilar#Garasone Ophthalmic Ointment#Garasone Ophthalmic and Otic Solution#Lotriderm Cream#Lotrisone#Luxiq#Marbeta 25 Kit#Occlucort Film Forming Lot 0.05#PMS-clotrimazole-betamethasone#PMS-gentamicin-betamethasone#Prevex B Cream 0.1%#Pro-lene Glycol Cream - 0.05%#Pro-lene Glycol Lotion - 0.05%#Pro-lene Glycol Ointment - 0.05%#Pro-sone Cream - 0.05%#Pro-sone Lotion -  0.05%#Pro-sone Ointment - 0.05%#Ratio-ectosone#Ratio-ectosone Mild Cream 0.05%#Ratio-ectosone Mild Lotion 0.05%#Ratio-ectosone Regular Cream 0.1%#Ratio-ectosone Regular Lotion 0.1%#Ratio-topilene#Ratio-topisalic#Ratio-topisone#Readysharp Betamethasone#Rhoprolene Glycol Cream 0.5mg/gm#Rhoprolene Glycol Lotion 0.5mg/gm#Rhoprolene Glycol Ointment 0.5mg/gm#Rhoprosone Cream 0.05%#Rhoprosone Lotion 0.05%#Rhoprosone Oint 0.05%#Rivasone Scalp Lot 0.1%#Rolene Cream 0.05%#Rolene Lotion 0.05%#Rolene Ointment 0.05%#Rosone Cream 0.05%#Rosone Lotion 0.05%#Rosone Ointment 0.05%#Sandoz Pentasone#Sernivo#Taclonex#Taclonex Scalp#Taro Sone Lot 0.05%#Taro Sone Ont#Taro-sone Cream 0.05%#Valisone Scalp Lotion#Valisone-G Cream#Valisone-G Ointment#Bentelan#Betnovate#Celestamine#Celestone#Diprosone#Fucibet#Procort#Rinderon

>  <DrugBank ID>  (1) 
DB00443

>  <ATC Codes>  (1) 
S01BB04#R03BA04#S01CA05#H02AB01#R01AD06#D07BC01#C05AA05#D07CC01#D07AC01#S01CB04#D07XC01#S02BA07#A07EA04#S03BA03#S01BA06#S03CA06

>  <Ligand ID>  (1) 
DEX

>  <Target Name>  (1) 
Glucocorticoid receptor

>  <UniProt ID>  (1) 
P04150

>  <PDB ID.1>  (1) 
1P93

>  <Seq. Identity>  (1) 
99%

$$$$
