PDB_DB01024_97
     RDKit          3D

 43 44  0  0  0  0  0  0  0  0999 V2000
   19.7700   15.4400   36.0630 C   0  0  0  0  0  0  0  0  0  0  0  0
   24.5960   16.2010   32.8250 C   0  0  0  0  0  0  0  0  0  0  0  0
   25.7370   16.6630   32.2120 C   0  0  0  0  0  0  0  0  0  0  0  0
   27.0450   16.1500   32.8300 C   0  0  0  0  0  0  0  0  0  0  0  0
   27.6320   16.8750   33.9900 C   0  0  0  0  0  0  0  0  0  0  0  0
   27.0170   16.6580   35.3350 C   0  0  0  0  0  0  0  0  0  0  0  0
   21.0050   19.9830   35.6180 C   0  0  0  0  0  0  0  0  0  0  0  0
   24.1190   19.6710   34.1710 C   0  0  0  0  0  0  0  0  0  0  0  0
   25.7830   17.8910   31.3330 C   0  0  0  0  0  0  0  0  0  0  0  0
   19.4470   17.4410   36.8780 C   0  0  0  0  0  0  0  0  0  0  0  0
   20.4940   17.5010   35.6920 C   0  0  0  0  0  0  0  0  0  0  0  0
   21.2280   18.5440   35.1020 C   0  0  0  0  0  0  0  0  0  0  0  0
   22.0980   18.2640   34.0420 C   0  0  0  0  0  0  0  0  0  0  0  0
   22.2680   16.9290   33.6120 C   0  0  0  0  0  0  0  0  0  0  0  0
   21.5450   15.8980   34.2330 C   0  0  0  0  0  0  0  0  0  0  0  0
   20.6340   16.1940   35.2580 C   0  0  0  0  0  0  0  0  0  0  0  0
   23.1970   16.5700   32.4050 C   0  0  0  0  0  0  0  0  0  0  0  0
   19.7290   14.2120   36.0050 O   0  0  0  0  0  0  0  0  0  0  0  0
   19.2500   16.0490   37.1130 O   0  0  0  0  0  0  0  0  0  0  0  0
   22.8970   19.2970   33.5110 O   0  0  0  0  0  0  0  0  0  0  0  0
   21.6940   14.5820   33.8350 O   0  0  0  0  0  0  0  0  0  0  0  0
   26.8830   17.6510   36.1550 O   0  0  0  0  0  0  0  0  0  0  0  0
   26.6380   15.5010   35.6830 O   0  0  0  0  0  0  0  0  0  0  0  0
   24.7125   15.5168   33.6784 H   0  0  0  0  0  0  0  0  0  0  0  0
   26.8626   15.1154   33.1562 H   0  0  0  0  0  0  0  0  0  0  0  0
   27.7863   16.2917   32.0298 H   0  0  0  0  0  0  0  0  0  0  0  0
   28.6887   16.5778   34.0613 H   0  0  0  0  0  0  0  0  0  0  0  0
   27.4497   17.9376   33.7718 H   0  0  0  0  0  0  0  0  0  0  0  0
   21.0051   19.9822   36.7180 H   0  0  0  0  0  0  0  0  0  0  0  0
   21.8131   20.6332   35.2517 H   0  0  0  0  0  0  0  0  0  0  0  0
   20.0380   20.3581   35.2517 H   0  0  0  0  0  0  0  0  0  0  0  0
   23.9755   19.6271   35.2607 H   0  0  0  0  0  0  0  0  0  0  0  0
   24.9209   18.9772   33.8785 H   0  0  0  0  0  0  0  0  0  0  0  0
   24.3952   20.6948   33.8785 H   0  0  0  0  0  0  0  0  0  0  0  0
   25.8167   18.7920   31.9632 H   0  0  0  0  0  0  0  0  0  0  0  0
   26.6804   17.8539   30.6979 H   0  0  0  0  0  0  0  0  0  0  0  0
   24.8854   17.9212   30.6979 H   0  0  0  0  0  0  0  0  0  0  0  0
   19.8486   17.9335   37.7759 H   0  0  0  0  0  0  0  0  0  0  0  0
   18.5085   17.9598   36.6329 H   0  0  0  0  0  0  0  0  0  0  0  0
   23.2510   17.4399   31.7340 H   0  0  0  0  0  0  0  0  0  0  0  0
   22.7619   15.6914   31.9063 H   0  0  0  0  0  0  0  0  0  0  0  0
   21.1763   13.8675   34.2839 H   0  0  0  0  0  0  0  0  0  0  0  0
   26.4755   17.5060   37.0455 H   0  0  0  0  0  0  0  0  0  0  0  0
  2  3  2  0
  3  4  1  0
  4  5  1  0
  5  6  1  0
  3  9  1  0
 10 11  1  0
  7 12  1  0
 11 12  1  0
 12 13  2  0
 13 14  1  0
 14 15  2  0
  1 16  1  0
 11 16  2  0
 15 16  1  0
  2 17  1  0
 14 17  1  0
  1 18  2  0
  1 19  1  0
 10 19  1  0
  8 20  1  0
 13 20  1  0
 15 21  1  0
  6 22  1  0
  6 23  2  0
  2 24  1  0
  4 25  1  0
  4 26  1  0
  5 27  1  0
  5 28  1  0
  7 29  1  0
  7 30  1  0
  7 31  1  0
  8 32  1  0
  8 33  1  0
  8 34  1  0
  9 35  1  0
  9 36  1  0
  9 37  1  0
 10 38  1  0
 10 39  1  0
 17 40  1  0
 17 41  1  0
 21 42  1  0
 22 43  1  0
M  END
$$$$
