PDB_DB09073_99
     RDKit          3D

 80 84  0  0  0  0  0  0  0  0999 V2000
   16.4730   25.5570    3.3260 O   0  0  0  0  0  0  0  0  0  0  0  0
   15.5050   25.2870    4.0400 C   0  0  0  0  0  0  0  0  0  0  0  0
   14.3430   24.5330    3.4710 C   0  0  0  0  0  0  0  0  0  0  0  0
   15.4740   25.7210    5.4450 C   0  0  0  0  0  0  0  0  0  0  0  0
   16.3550   25.2010    6.3500 C   0  0  1  0  0  0  0  0  0  0  0  0
   17.2580   24.0690    5.9560 C   0  0  0  0  0  0  0  0  0  0  0  0
   16.3890   25.6910    7.7230 C   0  0  1  0  0  0  0  0  0  0  0  0
   17.3510   25.4040    8.6960 C   0  0  0  0  0  0  0  0  0  0  0  0
   17.4120   25.9800    9.8990 N   0  0  0  0  0  0  0  0  0  0  0  0
   16.4240   26.8420   10.1830 C   0  0  0  0  0  0  0  0  0  0  0  0
   15.4320   27.2180    9.3550 N   0  0  0  0  0  0  0  0  0  0  0  0
   15.4460   26.6610    8.1290 C   0  0  1  0  0  0  0  0  0  0  0  0
   14.5400   27.1640    7.2000 N   0  0  0  0  0  0  0  0  0  0  0  0
   13.6340   28.2790    7.5850 C   0  0  1  0  0  0  0  0  0  0  0  0
   14.0360   29.6370    7.0060 C   0  0  0  0  0  0  0  0  0  0  0  0
   12.7180   30.3190    6.7470 C   0  0  0  0  0  0  0  0  0  0  0  0
   11.7940   29.2310    6.3530 C   0  0  0  0  0  0  0  0  0  0  0  0
   12.1620   28.0550    7.2290 C   0  0  0  0  0  0  0  0  0  0  0  0
   14.5170   26.7310    5.8360 C   0  0  0  0  0  0  0  0  0  0  0  0
   13.7290   27.2180    5.0330 O   0  0  0  0  0  0  0  0  0  0  0  0
   16.4690   27.3160   11.4640 N   0  0  0  0  0  0  0  0  0  0  0  0
   15.6010   28.1320   12.1550 C   0  0  0  0  0  0  0  0  0  0  0  0
   14.9340   27.4670   13.1110 N   0  0  0  0  0  0  0  0  0  0  0  0
   14.0410   28.1470   13.8420 C   0  0  0  0  0  0  0  0  0  0  0  0
   13.7620   29.4980   13.6590 C   0  0  1  0  0  0  0  0  0  0  0  0
   14.4780   30.1740   12.6760 C   0  0  0  0  0  0  0  0  0  0  0  0
   15.4090   29.4980   11.9130 C   0  0  0  0  0  0  0  0  0  0  0  0
   12.7440   30.1180   14.3880 N   0  0  0  0  0  0  0  0  0  0  0  0
   12.9120   31.5260   14.7600 C   0  0  0  0  0  0  0  0  0  0  0  0
   11.9250   31.9060   15.8380 C   0  0  0  0  0  0  0  0  0  0  0  0
   10.5390   31.6160   15.3850 N   0  0  0  0  0  0  0  0  0  0  0  0
   10.3810   30.1800   15.0280 C   0  0  0  0  0  0  0  0  0  0  0  0
   11.3780   29.7950   13.9600 C   0  0  0  0  0  0  0  0  0  0  0  0
   14.6280   23.5760    3.0360 H   0  0  0  0  0  0  0  0  0  0  0  0
   13.5980   24.3400    4.2420 H   0  0  0  0  0  0  0  0  0  0  0  0
   13.8440   25.1060    2.6910 H   0  0  0  0  0  0  0  0  0  0  0  0
   17.8200   23.6110    6.7670 H   0  0  0  0  0  0  0  0  0  0  0  0
   16.6890   23.2530    5.5130 H   0  0  0  0  0  0  0  0  0  0  0  0
   17.9920   24.4010    5.2230 H   0  0  0  0  0  0  0  0  0  0  0  0
   18.1350   24.6680    8.5400 H   0  0  0  0  0  0  0  0  0  0  0  0
   13.6200   28.4290    8.6620 H   0  0  0  0  0  0  0  0  0  0  0  0
   14.6310   29.5750    6.0960 H   0  0  0  0  0  0  0  0  0  0  0  0
   14.6600   30.2000    7.6980 H   0  0  0  0  0  0  0  0  0  0  0  0
   12.7950   31.1020    5.9950 H   0  0  0  0  0  0  0  0  0  0  0  0
   12.3560   30.8230    7.6420 H   0  0  0  0  0  0  0  0  0  0  0  0
   10.7500   29.5140    6.4790 H   0  0  0  0  0  0  0  0  0  0  0  0
   11.8940   28.9990    5.2940 H   0  0  0  0  0  0  0  0  0  0  0  0
   11.5450   28.0230    8.1250 H   0  0  0  0  0  0  0  0  0  0  0  0
   11.9650   27.1150    6.7210 H   0  0  0  0  0  0  0  0  0  0  0  0
   17.2770   27.0270   12.0070 H   0  0  0  0  0  0  0  0  0  0  0  0
   13.5470   27.5430   14.6020 H   0  0  0  0  0  0  0  0  0  0  0  0
   14.3360   31.2330   12.4670 H   0  0  0  0  0  0  0  0  0  0  0  0
   15.9670   30.0530   11.1650 H   0  0  0  0  0  0  0  0  0  0  0  0
   12.8120   32.2070   13.9150 H   0  0  0  0  0  0  0  0  0  0  0  0
   13.9260   31.6850   15.1220 H   0  0  0  0  0  0  0  0  0  0  0  0
   12.1350   31.3460   16.7480 H   0  0  0  0  0  0  0  0  0  0  0  0
   12.0340   32.9480   16.1290 H   0  0  0  0  0  0  0  0  0  0  0  0
    9.8570   31.9020   16.0810 H   0  0  0  0  0  0  0  0  0  0  0  0
    9.3680   29.9730   14.6840 H   0  0  0  0  0  0  0  0  0  0  0  0
   10.5120   29.5570   15.9120 H   0  0  0  0  0  0  0  0  0  0  0  0
   11.3060   28.7220   13.7920 H   0  0  0  0  0  0  0  0  0  0  0  0
   11.0930   30.2350   13.0060 H   0  0  0  0  0  0  0  0  0  0  0  0
   17.2528   25.7745    3.8958 H   0  0  0  0  0  0  0  0  0  0  0  0
   15.0290   26.2365    3.7538 H   0  0  0  0  0  0  0  0  0  0  0  0
   14.7604   24.9169    5.6776 H   0  0  0  0  0  0  0  0  0  0  0  0
   15.5925   24.4788    6.6773 H   0  0  0  0  0  0  0  0  0  0  0  0
   15.8004   24.8205    8.0482 H   0  0  0  0  0  0  0  0  0  0  0  0
   18.0006   26.1914    8.2860 H   0  0  0  0  0  0  0  0  0  0  0  0
   17.3940   25.2334   10.6084 H   0  0  0  0  0  0  0  0  0  0  0  0
   17.0444   27.6735    9.8173 H   0  0  0  0  0  0  0  0  0  0  0  0
   14.5374   26.9729    9.8027 H   0  0  0  0  0  0  0  0  0  0  0  0
   14.7777   25.8627    8.4841 H   0  0  0  0  0  0  0  0  0  0  0  0
   13.7939   25.9445    6.0979 H   0  0  0  0  0  0  0  0  0  0  0  0
   12.9968   27.6705    5.5221 H   0  0  0  0  0  0  0  0  0  0  0  0
   14.8045   27.8949   11.4344 H   0  0  0  0  0  0  0  0  0  0  0  0
   14.4302   26.6945   12.6524 H   0  0  0  0  0  0  0  0  0  0  0  0
   14.8297   28.4076   14.5631 H   0  0  0  0  0  0  0  0  0  0  0  0
   14.5332   29.7575   14.3992 H   0  0  0  0  0  0  0  0  0  0  0  0
   15.2583   30.4178   13.4120 H   0  0  0  0  0  0  0  0  0  0  0  0
   14.6296   29.2577   11.1749 H   0  0  0  0  0  0  0  0  0  0  0  0
  1  2  1  0
  2  3  1  0
  2  4  1  0
  4  5  1  0
  5  6  1  0
  5  7  1  0
  7  8  1  0
  8  9  1  0
  9 10  1  0
 10 11  1  0
  7 12  1  0
 11 12  1  0
 12 13  1  0
 13 14  1  0
 14 15  1  0
 15 16  1  0
 16 17  1  0
 14 18  1  0
 17 18  1  0
  4 19  1  0
 13 19  1  0
 19 20  1  0
 10 21  1  0
 21 22  1  0
 22 23  1  0
 23 24  1  0
 24 25  1  0
 25 26  1  0
 22 27  1  0
 26 27  1  0
 25 28  1  0
 28 29  1  0
 29 30  1  0
 30 31  1  0
 31 32  1  0
 28 33  1  0
 32 33  1  0
  3 34  1  0
  3 35  1  0
  3 36  1  0
  6 37  1  0
  6 38  1  0
  6 39  1  0
  8 40  1  0
 14 41  1  1
 15 42  1  0
 15 43  1  0
 16 44  1  0
 16 45  1  0
 17 46  1  0
 17 47  1  0
 18 48  1  0
 18 49  1  0
 21 50  1  0
 24 51  1  0
 26 52  1  0
 27 53  1  0
 29 54  1  0
 29 55  1  0
 30 56  1  0
 30 57  1  0
 31 58  1  0
 32 59  1  0
 32 60  1  0
 33 61  1  0
 33 62  1  0
  1 63  1  0
  2 64  1  0
  4 65  1  0
  5 66  1  6
  7 67  1  1
  8 68  1  0
  9 69  1  0
 10 70  1  0
 11 71  1  0
 12 72  1  1
 19 73  1  0
 20 74  1  0
 22 75  1  0
 23 76  1  0
 24 77  1  0
 25 78  1  1
 26 79  1  0
 27 80  1  0
M  END
>  <PDBID>  (1) 
5L2I

>  <PDB ID>  (1) 
5L2I

>  <Generic Name>  (1) 
Palbociclib

>  <Brand Name>  (1) 
Ibrance

>  <DrugBank ID>  (1) 
DB09073

>  <ATC Codes>  (1) 
L01XE33

>  <Ligand ID>  (1) 
LQQ

>  <Target Name>  (1) 
Cyclin-dependent kinase 6

>  <UniProt ID>  (1) 
Q00534

>  <PDB ID.1>  (1) 
5L2I

>  <Seq. Identity>  (1) 
100%

$$$$
