PDB_DB00523_86
     RDKit          3D

 50 50  0  0  0  0  0  0  0  0999 V2000
  -24.1600   20.4390   30.7370 C   0  0  0  0  0  0  0  0  0  0  0  0
  -24.8860   21.8090   31.2260 C   0  0  0  0  0  0  0  0  0  0  0  0
  -24.6750   23.1340   30.3470 C   0  0  0  0  0  0  0  0  0  0  0  0
  -23.4520   23.1540   29.6610 C   0  0  0  0  0  0  0  0  0  0  0  0
  -23.0000   22.0410   28.9160 C   0  0  0  0  0  0  0  0  0  0  0  0
  -23.2710   20.6150   29.3280 C   0  0  0  0  0  0  0  0  0  0  0  0
  -22.8500   19.4380   28.6330 C   0  0  0  0  0  0  0  0  0  0  0  0
  -23.0160   18.9400   27.3630 C   0  0  0  0  0  0  0  0  0  0  0  0
  -22.4900   17.8350   26.6980 C   0  0  0  0  0  0  0  0  0  0  0  0
  -22.8270   17.5760   25.3620 C   0  0  0  0  0  0  0  0  0  0  0  0
  -23.6910   18.3960   24.6370 C   0  0  0  0  0  0  0  0  0  0  0  0
  -24.0200   18.1540   23.3320 C   0  0  0  0  0  0  0  0  0  0  0  0
  -24.8970   18.9800   22.5160 C   0  0  0  0  0  0  0  0  0  0  0  0
  -24.7870   18.6860   21.1450 C   0  0  0  0  0  0  0  0  0  0  0  0
  -25.5010   19.2990   19.9280 C   0  0  0  0  0  0  0  0  0  0  0  0
  -25.4200   19.5380   30.3700 C   0  0  0  0  0  0  0  0  0  0  0  0
  -23.4840   19.6950   31.9460 C   0  0  0  0  0  0  0  0  0  0  0  0
  -22.2240   22.5170   27.6820 C   0  0  0  0  0  0  0  0  0  0  0  0
  -21.4770   16.7910   27.3380 C   0  0  0  0  0  0  0  0  0  0  0  0
  -25.8500   20.0760   23.0630 C   0  0  0  0  0  0  0  0  0  0  0  0
  -24.9310   19.4480   18.8750 O   0  0  0  0  0  0  0  0  0  0  0  0
  -26.7310   19.6450   20.0830 O   0  0  0  0  0  0  0  0  0  0  0  0
  -25.9673   21.6102   31.2619 H   0  0  0  0  0  0  0  0  0  0  0  0
  -24.4082   22.0419   32.1891 H   0  0  0  0  0  0  0  0  0  0  0  0
  -25.4897   23.1983   29.6107 H   0  0  0  0  0  0  0  0  0  0  0  0
  -24.6749   23.9886   31.0396 H   0  0  0  0  0  0  0  0  0  0  0  0
  -23.5065   23.9967   28.9560 H   0  0  0  0  0  0  0  0  0  0  0  0
  -22.7228   23.1971   30.4834 H   0  0  0  0  0  0  0  0  0  0  0  0
  -22.2486   18.7708   29.2679 H   0  0  0  0  0  0  0  0  0  0  0  0
  -23.7047   19.5355   26.7457 H   0  0  0  0  0  0  0  0  0  0  0  0
  -22.3941   16.6938   24.8677 H   0  0  0  0  0  0  0  0  0  0  0  0
  -24.1262   19.2745   25.1359 H   0  0  0  0  0  0  0  0  0  0  0  0
  -23.5855   17.2606   22.8598 H   0  0  0  0  0  0  0  0  0  0  0  0
  -24.0724   17.8855   20.9030 H   0  0  0  0  0  0  0  0  0  0  0  0
  -25.9047   19.1914   31.2946 H   0  0  0  0  0  0  0  0  0  0  0  0
  -26.1354   20.1306   29.7809 H   0  0  0  0  0  0  0  0  0  0  0  0
  -25.0906   18.6694   29.7809 H   0  0  0  0  0  0  0  0  0  0  0  0
  -23.8626   20.1117   32.8910 H   0  0  0  0  0  0  0  0  0  0  0  0
  -23.7230   18.6224   31.8964 H   0  0  0  0  0  0  0  0  0  0  0  0
  -22.3935   19.8304   31.8964 H   0  0  0  0  0  0  0  0  0  0  0  0
  -21.3271   23.0672   28.0026 H   0  0  0  0  0  0  0  0  0  0  0  0
  -21.9245   21.6470   27.0791 H   0  0  0  0  0  0  0  0  0  0  0  0
  -22.8638   23.1782   27.0791 H   0  0  0  0  0  0  0  0  0  0  0  0
  -21.5341   16.8499   28.4349 H   0  0  0  0  0  0  0  0  0  0  0  0
  -21.7424   15.7748   27.0110 H   0  0  0  0  0  0  0  0  0  0  0  0
  -20.4533   17.0257   27.0110 H   0  0  0  0  0  0  0  0  0  0  0  0
  -25.8353   20.0591   24.1628 H   0  0  0  0  0  0  0  0  0  0  0  0
  -25.5173   21.0622   22.7070 H   0  0  0  0  0  0  0  0  0  0  0  0
  -26.8728   19.8835   22.7070 H   0  0  0  0  0  0  0  0  0  0  0  0
  -25.4099   19.8447   18.1047 H   0  0  0  0  0  0  0  0  0  0  0  0
  1  2  1  0
  2  3  1  0
  3  4  1  0
  4  5  1  0
  1  6  1  0
  5  6  2  0
  6  7  1  0
  7  8  2  0
  8  9  1  0
  9 10  2  0
 10 11  1  0
 11 12  2  0
 12 13  1  0
 13 14  2  0
 14 15  1  0
  1 16  1  0
  1 17  1  0
  5 18  1  0
  9 19  1  0
 13 20  1  0
 15 21  1  0
 15 22  2  0
  2 23  1  0
  2 24  1  0
  3 25  1  0
  3 26  1  0
  4 27  1  0
  4 28  1  0
  7 29  1  0
  8 30  1  0
 10 31  1  0
 11 32  1  0
 12 33  1  0
 14 34  1  0
 16 35  1  0
 16 36  1  0
 16 37  1  0
 17 38  1  0
 17 39  1  0
 17 40  1  0
 18 41  1  0
 18 42  1  0
 18 43  1  0
 19 44  1  0
 19 45  1  0
 19 46  1  0
 20 47  1  0
 20 48  1  0
 20 49  1  0
 21 50  1  0
M  END
$$$$
