PDB_DB00712_95
     RDKit          3D

 31 32  0  0  0  0  0  0  0  0999 V2000
   74.2860  -50.3880    5.8610 C   0  0  0  0  0  0  0  0  0  0  0  0
   74.5920  -49.2000    5.2080 C   0  0  0  0  0  0  0  0  0  0  0  0
   75.4990  -48.3120    5.7750 C   0  0  0  0  0  0  0  0  0  0  0  0
   76.1000  -48.6140    6.9860 C   0  0  0  0  0  0  0  0  0  0  0  0
   75.7800  -49.8020    7.6280 C   0  0  0  0  0  0  0  0  0  0  0  0
   74.8960  -50.7010    7.0610 C   0  0  0  0  0  0  0  0  0  0  0  0
   74.5440  -51.9510    7.7840 C   0  0  0  0  0  0  0  0  0  0  0  0
   75.4510  -52.7190    8.5030 C   0  0  0  0  0  0  0  0  0  0  0  0
   74.9960  -53.8630    9.1730 C   0  0  0  0  0  0  0  0  0  0  0  0
   76.7420  -52.3790    8.5420 F   0  0  0  0  0  0  0  0  0  0  0  0
   73.2180  -52.3200    7.7530 C   0  0  0  0  0  0  0  0  0  0  0  0
   72.7750  -53.4500    8.4120 C   0  0  0  0  0  0  0  0  0  0  0  0
   73.6520  -54.2380    9.1300 C   0  0  0  0  0  0  0  0  0  0  0  0
   73.0790  -55.4420    9.8340 C   0  0  1  0  0  0  0  0  0  0  0  0
   73.5160  -56.7360    9.2310 C   0  0  0  0  0  0  0  0  0  0  0  0
   73.3800  -55.3920   11.3060 C   0  0  0  0  0  0  0  0  0  0  0  0
   74.5620  -55.4180   11.7470 O   0  0  0  0  0  0  0  0  0  0  0  0
   72.4420  -55.3180   12.1370 O   0  0  0  0  0  0  0  0  0  0  0  0
   73.5551  -51.0823    5.4208 H   0  0  0  0  0  0  0  0  0  0  0  0
   74.1175  -48.9628    4.2444 H   0  0  0  0  0  0  0  0  0  0  0  0
   75.7395  -47.3692    5.2618 H   0  0  0  0  0  0  0  0  0  0  0  0
   76.8244  -47.9184    7.4347 H   0  0  0  0  0  0  0  0  0  0  0  0
   76.2364  -50.0317    8.6022 H   0  0  0  0  0  0  0  0  0  0  0  0
   75.7102  -54.4758    9.7425 H   0  0  0  0  0  0  0  0  0  0  0  0
   72.4987  -51.7039    7.1935 H   0  0  0  0  0  0  0  0  0  0  0  0
   71.7111  -53.7253    8.3642 H   0  0  0  0  0  0  0  0  0  0  0  0
   71.9882  -55.3983    9.6986 H   0  0  0  0  0  0  0  0  0  0  0  0
   73.7573  -57.4506   10.0316 H   0  0  0  0  0  0  0  0  0  0  0  0
   72.7054  -57.1427    8.6085 H   0  0  0  0  0  0  0  0  0  0  0  0
   74.4072  -56.5680    8.6085 H   0  0  0  0  0  0  0  0  0  0  0  0
   74.7272  -55.3836   12.7225 H   0  0  0  0  0  0  0  0  0  0  0  0
  1  2  2  0
  2  3  1  0
  3  4  2  0
  4  5  1  0
  1  6  1  0
  5  6  2  0
  6  7  1  0
  7  8  2  0
  8  9  1  0
  8 10  1  0
  7 11  1  0
 11 12  2  0
  9 13  2  0
 12 13  1  0
 13 14  1  0
 14 15  1  0
 14 16  1  0
 16 17  1  0
 16 18  2  0
  1 19  1  0
  2 20  1  0
  3 21  1  0
  4 22  1  0
  5 23  1  0
  9 24  1  0
 11 25  1  0
 12 26  1  0
 14 27  1  1
 15 28  1  0
 15 29  1  0
 15 30  1  0
 17 31  1  0
M  END
$$$$
