PDB_DB00741_97
     RDKit          3D

 56 59  0  0  0  0  0  0  0  0999 V2000
   -7.1170   31.6580  -40.4060 C   0  0  0  0  0  0  0  0  0  0  0  0
   -7.4010   32.0760  -41.8460 C   0  0  0  0  0  0  0  0  0  0  0  0
   -8.5560   33.0560  -41.9170 C   0  0  0  0  0  0  0  0  0  0  0  0
   -8.9430   33.8540  -40.7470 C   0  0  0  0  0  0  0  0  0  0  0  0
   -8.3190   33.7310  -39.5700 C   0  0  0  0  0  0  0  0  0  0  0  0
   -8.7130   34.6910  -38.4840 C   0  0  0  0  0  0  0  0  0  0  0  0
   -8.9560   33.9730  -37.1740 C   0  0  0  0  0  0  0  0  0  0  0  0
   -7.8760   32.9420  -36.8570 C   0  0  2  0  0  0  0  0  0  0  0  0
   -7.5710   31.9860  -38.0180 C   0  0  1  0  0  0  0  0  0  0  0  0
   -7.2010   32.7210  -39.3300 C   0  0  1  0  0  0  0  0  0  0  0  0
   -7.0780   30.1290  -36.3230 C   0  0  0  0  0  0  0  0  0  0  0  0
   -6.6360   30.8010  -37.6340 C   0  0  2  0  0  0  0  0  0  0  0  0
   -7.3960   31.0870  -35.1760 C   0  0  1  0  0  0  0  0  0  0  0  0
   -8.3840   32.1300  -35.6830 C   0  0  1  0  0  0  0  0  0  0  0  0
   -8.7520   32.8950  -34.4380 C   0  0  0  0  0  0  0  0  0  0  0  0
   -8.6810   31.8760  -33.3090 C   0  0  0  0  0  0  0  0  0  0  0  0
   -8.1710   30.6010  -33.9260 C   0  0  2  0  0  0  0  0  0  0  0  0
   -6.0980   31.7390  -34.7040 C   0  0  0  0  0  0  0  0  0  0  0  0
   -5.9030   33.5310  -39.2370 C   0  0  0  0  0  0  0  0  0  0  0  0
   -7.4000   29.7920  -32.9000 C   0  0  0  0  0  0  0  0  0  0  0  0
   -6.9620   28.4190  -33.2830 C   0  0  0  0  0  0  0  0  0  0  0  0
   -9.1960   33.1850  -42.9480 O   0  0  0  0  0  0  0  0  0  0  0  0
   -5.2380   31.1300  -37.5570 O   0  0  0  0  0  0  0  0  0  0  0  0
   -9.3360   29.8320  -34.2880 O   0  0  0  0  0  0  0  0  0  0  0  0
   -7.1190   30.2380  -31.7940 O   0  0  0  0  0  0  0  0  0  0  0  0
   -6.1590   27.8650  -32.2490 O   0  0  0  0  0  0  0  0  0  0  0  0
   -7.8388   30.8700  -40.1451 H   0  0  0  0  0  0  0  0  0  0  0  0
   -6.0602   31.3528  -40.4105 H   0  0  0  0  0  0  0  0  0  0  0  0
   -6.5017   32.5508  -42.2654 H   0  0  0  0  0  0  0  0  0  0  0  0
   -7.6711   31.1783  -42.4215 H   0  0  0  0  0  0  0  0  0  0  0  0
   -9.7697   34.5736  -40.8408 H   0  0  0  0  0  0  0  0  0  0  0  0
   -7.9059   35.4254  -38.3453 H   0  0  0  0  0  0  0  0  0  0  0  0
   -9.6466   35.1892  -38.7842 H   0  0  0  0  0  0  0  0  0  0  0  0
   -8.9804   34.7172  -36.3643 H   0  0  0  0  0  0  0  0  0  0  0  0
   -9.9118   33.4358  -37.2624 H   0  0  0  0  0  0  0  0  0  0  0  0
   -6.9391   33.4786  -36.6468 H   0  0  0  0  0  0  0  0  0  0  0  0
   -8.5228   31.4856  -38.2497 H   0  0  0  0  0  0  0  0  0  0  0  0
   -7.9810   29.5366  -36.5319 H   0  0  0  0  0  0  0  0  0  0  0  0
   -6.2233   29.5236  -35.9870 H   0  0  0  0  0  0  0  0  0  0  0  0
   -6.7433   30.0978  -38.4730 H   0  0  0  0  0  0  0  0  0  0  0  0
   -9.2805   31.6948  -36.1487 H   0  0  0  0  0  0  0  0  0  0  0  0
   -8.0391   33.7144  -34.2637 H   0  0  0  0  0  0  0  0  0  0  0  0
   -9.7487   33.3537  -34.5163 H   0  0  0  0  0  0  0  0  0  0  0  0
   -7.9916   32.2227  -32.5251 H   0  0  0  0  0  0  0  0  0  0  0  0
   -9.6647   31.7287  -32.8393 H   0  0  0  0  0  0  0  0  0  0  0  0
   -6.0728   31.7517  -33.6044 H   0  0  0  0  0  0  0  0  0  0  0  0
   -5.2400   31.1649  -35.0838 H   0  0  0  0  0  0  0  0  0  0  0  0
   -6.0463   32.7700  -35.0838 H   0  0  0  0  0  0  0  0  0  0  0  0
   -5.6459   33.6914  -38.1796 H   0  0  0  0  0  0  0  0  0  0  0  0
   -5.0903   32.9795  -39.7323 H   0  0  0  0  0  0  0  0  0  0  0  0
   -6.0413   34.5034  -39.7323 H   0  0  0  0  0  0  0  0  0  0  0  0
   -7.8463   27.7836  -33.4391 H   0  0  0  0  0  0  0  0  0  0  0  0
   -6.3747   28.4704  -34.2116 H   0  0  0  0  0  0  0  0  0  0  0  0
   -4.9659   31.1940  -36.6073 H   0  0  0  0  0  0  0  0  0  0  0  0
   -9.7981   29.5270  -33.4673 H   0  0  0  0  0  0  0  0  0  0  0  0
   -6.5314   28.1219  -31.3684 H   0  0  0  0  0  0  0  0  0  0  0  0
  1  2  1  0
  2  3  1  0
  3  4  1  0
  4  5  2  0
  5  6  1  0
  6  7  1  0
  7  8  1  0
  8  9  1  0
  1 10  1  0
  5 10  1  0
  9 10  1  0
  9 12  1  0
 11 12  1  0
 11 13  1  0
  8 14  1  0
 13 14  1  0
 14 15  1  0
 15 16  1  0
 13 17  1  0
 16 17  1  0
 13 18  1  1
 10 19  1  1
 17 20  1  0
 20 21  1  0
  3 22  2  0
 12 23  1  0
 17 24  1  6
 20 25  2  0
 21 26  1  0
  1 27  1  0
  1 28  1  0
  2 29  1  0
  2 30  1  0
  4 31  1  0
  6 32  1  0
  6 33  1  0
  7 34  1  0
  7 35  1  0
  8 36  1  1
  9 37  1  6
 11 38  1  0
 11 39  1  0
 12 40  1  6
 14 41  1  6
 15 42  1  0
 15 43  1  0
 16 44  1  0
 16 45  1  0
 18 46  1  0
 18 47  1  0
 18 48  1  0
 19 49  1  0
 19 50  1  0
 19 51  1  0
 21 52  1  0
 21 53  1  0
 23 54  1  0
 24 55  1  0
 26 56  1  0
M  END
$$$$
