PDB_DB00936_97
     RDKit          3D

 16 16  0  0  0  0  0  0  0  0999 V2000
   43.6010   23.2350  239.9000 C   0  0  0  0  0  0  0  0  0  0  0  0
   44.1640   23.7820  238.9820 O   0  0  0  0  0  0  0  0  0  0  0  0
   44.0830   22.3370  240.5710 O   0  0  0  0  0  0  0  0  0  0  0  0
   42.2630   23.6900  240.2150 C   0  0  0  0  0  0  0  0  0  0  0  0
   41.7600   24.8940  239.6030 C   0  0  0  0  0  0  0  0  0  0  0  0
   40.5120   25.3090  239.8950 C   0  0  0  0  0  0  0  0  0  0  0  0
   39.7720   24.5820  240.7700 C   0  0  0  0  0  0  0  0  0  0  0  0
   40.2570   23.4420  241.3580 C   0  0  0  0  0  0  0  0  0  0  0  0
   41.5110   22.9870  241.0870 C   0  0  0  0  0  0  0  0  0  0  0  0
   42.5050   25.6060  238.7580 O   0  0  0  0  0  0  0  0  0  0  0  0
   43.5602   21.9357  241.3097 H   0  0  0  0  0  0  0  0  0  0  0  0
   40.1010   26.2190  239.4334 H   0  0  0  0  0  0  0  0  0  0  0  0
   38.7532   24.9170  241.0148 H   0  0  0  0  0  0  0  0  0  0  0  0
   39.6209   22.8849  242.0617 H   0  0  0  0  0  0  0  0  0  0  0  0
   41.8990   22.0749  241.5640 H   0  0  0  0  0  0  0  0  0  0  0  0
   42.1391   26.4301  238.3491 H   0  0  0  0  0  0  0  0  0  0  0  0
  1  2  2  0
  1  3  1  0
  1  4  1  0
  4  5  2  0
  5  6  1  0
  6  7  2  0
  7  8  1  0
  4  9  1  0
  8  9  2  0
  5 10  1  0
  3 11  1  0
  6 12  1  0
  7 13  1  0
  8 14  1  0
  9 15  1  0
 10 16  1  0
M  END
$$$$
