PDB_DB01421_98
     RDKit          3D

 87 90  0  0  0  0  0  0  0  0999 V2000
  189.0750   87.0180  -11.5560 C   0  0  2  0  0  0  0  0  0  0  0  0
  189.8690   88.2160  -11.6150 O   0  0  0  0  0  0  0  0  0  0  0  0
  187.7170   87.2400  -10.8070 C   0  0  2  0  0  0  0  0  0  0  0  0
  186.9240   88.3400  -11.3930 N   0  0  0  0  0  0  0  0  0  0  0  0
  187.9840   87.5090   -9.2880 C   0  0  1  0  0  0  0  0  0  0  0  0
  186.7550   87.6970   -8.5610 O   0  0  0  0  0  0  0  0  0  0  0  0
  188.7930   86.3260   -8.6640 C   0  0  2  0  0  0  0  0  0  0  0  0
  189.0400   86.5990   -7.2890 O   0  0  0  0  0  0  0  0  0  0  0  0
  190.1170   86.1040   -9.4470 C   0  0  2  0  0  0  0  0  0  0  0  0
  189.8060   85.9420  -10.8800 O   0  0  0  0  0  0  0  0  0  0  0  0
  190.8580   84.8500   -8.9790 C   0  0  0  0  0  0  0  0  0  0  0  0
  192.0600   84.7060   -9.7210 O   0  0  0  0  0  0  0  0  0  0  0  0
  192.4780   90.4920  -14.1740 C   0  0  2  0  0  0  0  0  0  0  0  0
  193.5730   90.9470  -15.0450 N   0  0  0  0  0  0  0  0  0  0  0  0
  193.1070   89.8040  -12.9370 C   0  0  0  0  0  0  0  0  0  0  0  0
  192.0190   89.2880  -11.9550 C   0  0  2  0  0  0  0  0  0  0  0  0
  192.7370   88.6360  -10.8370 N   0  0  0  0  0  0  0  0  0  0  0  0
  190.9510   88.3370  -12.5950 C   0  0  2  0  0  0  0  0  0  0  0  0
  190.3980   88.9640  -13.9370 C   0  0  2  0  0  0  0  0  0  0  0  0
  189.6100   87.9750  -14.6740 O   0  0  0  0  0  0  0  0  0  0  0  0
  191.5510   89.4610  -14.8840 C   0  0  1  0  0  0  0  0  0  0  0  0
  190.9540   90.0380  -16.0580 O   0  0  0  0  0  0  0  0  0  0  0  0
  188.3010   88.3500  -15.1520 C   0  0  1  0  0  0  0  0  0  0  0  0
  187.8140   87.4960  -16.3180 C   0  0  2  0  0  0  0  0  0  0  0  0
  188.1840   88.0500  -17.5970 O   0  0  0  0  0  0  0  0  0  0  0  0
  186.2910   87.4200  -16.1170 C   0  0  2  0  0  0  0  0  0  0  0  0
  185.5940   88.4840  -16.8600 O   0  0  0  0  0  0  0  0  0  0  0  0
  186.0840   87.6760  -14.6040 C   0  0  2  0  0  0  0  0  0  0  0  0
  187.3480   88.1730  -14.0930 O   0  0  0  0  0  0  0  0  0  0  0  0
  185.6310   86.4610  -13.7730 C   0  0  0  0  0  0  0  0  0  0  0  0
  184.6900   86.9070  -12.8040 O   0  0  0  0  0  0  0  0  0  0  0  0
  184.7950   88.0980  -17.9940 C   0  0  2  0  0  0  0  0  0  0  0  0
  184.3810   89.2590  -18.9530 C   0  0  2  0  0  0  0  0  0  0  0  0
  185.5480   90.0110  -19.4380 N   0  0  0  0  0  0  0  0  0  0  0  0
  183.3180   90.1890  -18.2900 C   0  0  1  0  0  0  0  0  0  0  0  0
  182.9240   91.2230  -19.1800 O   0  0  0  0  0  0  0  0  0  0  0  0
  182.0630   89.3530  -17.8980 C   0  0  2  0  0  0  0  0  0  0  0  0
  181.0310   90.1530  -17.3210 O   0  0  0  0  0  0  0  0  0  0  0  0
  182.4420   88.2100  -16.9060 C   0  0  1  0  0  0  0  0  0  0  0  0
  183.5580   87.4150  -17.4870 O   0  0  0  0  0  0  0  0  0  0  0  0
  182.7650   88.7610  -15.4640 C   0  0  0  0  0  0  0  0  0  0  0  0
  182.0170   88.0800  -14.3770 N   0  0  0  0  0  0  0  0  0  0  0  0
  188.8617   86.7388  -12.5984 H   0  0  0  0  0  0  0  0  0  0  0  0
  187.1232   86.3210  -10.9203 H   0  0  0  0  0  0  0  0  0  0  0  0
  186.5144   88.9081  -10.6378 H   0  0  0  0  0  0  0  0  0  0  0  0
  187.5345   88.9312  -11.9749 H   0  0  0  0  0  0  0  0  0  0  0  0
  188.5718   88.4356   -9.2111 H   0  0  0  0  0  0  0  0  0  0  0  0
  186.9391   87.6688   -7.5887 H   0  0  0  0  0  0  0  0  0  0  0  0
  188.2077   85.3975   -8.7365 H   0  0  0  0  0  0  0  0  0  0  0  0
  188.4924   85.9937   -6.7288 H   0  0  0  0  0  0  0  0  0  0  0  0
  190.7599   86.9783   -9.2674 H   0  0  0  0  0  0  0  0  0  0  0  0
  191.0964   84.9428   -7.9092 H   0  0  0  0  0  0  0  0  0  0  0  0
  190.2212   83.9672   -9.1375 H   0  0  0  0  0  0  0  0  0  0  0  0
  192.8237   84.6145   -9.0977 H   0  0  0  0  0  0  0  0  0  0  0  0
  191.8689   91.3662  -13.9006 H   0  0  0  0  0  0  0  0  0  0  0  0
  194.3594   91.2738  -14.4656 H   0  0  0  0  0  0  0  0  0  0  0  0
  193.8858   90.1663  -15.6396 H   0  0  0  0  0  0  0  0  0  0  0  0
  193.7169   88.9527  -13.2735 H   0  0  0  0  0  0  0  0  0  0  0  0
  193.7247   90.5448  -12.4081 H   0  0  0  0  0  0  0  0  0  0  0  0
  191.4169   90.1432  -11.6142 H   0  0  0  0  0  0  0  0  0  0  0  0
  192.3605   88.9779   -9.9413 H   0  0  0  0  0  0  0  0  0  0  0  0
  192.6097   87.6156  -10.8958 H   0  0  0  0  0  0  0  0  0  0  0  0
  191.3843   87.3558  -12.8387 H   0  0  0  0  0  0  0  0  0  0  0  0
  189.7784   89.8246  -13.6446 H   0  0  0  0  0  0  0  0  0  0  0  0
  192.1846   88.6054  -15.1606 H   0  0  0  0  0  0  0  0  0  0  0  0
  190.2690   90.7000  -15.7885 H   0  0  0  0  0  0  0  0  0  0  0  0
  188.3852   89.3938  -15.4889 H   0  0  0  0  0  0  0  0  0  0  0  0
  188.2762   86.4979  -16.3273 H   0  0  0  0  0  0  0  0  0  0  0  0
  188.7284   88.8652  -17.4585 H   0  0  0  0  0  0  0  0  0  0  0  0
  185.8964   86.4555  -16.4691 H   0  0  0  0  0  0  0  0  0  0  0  0
  185.2538   88.3907  -14.5042 H   0  0  0  0  0  0  0  0  0  0  0  0
  185.1617   85.7148  -14.4309 H   0  0  0  0  0  0  0  0  0  0  0  0
  186.4964   85.9989  -13.2755 H   0  0  0  0  0  0  0  0  0  0  0  0
  185.0463   86.7381  -11.8959 H   0  0  0  0  0  0  0  0  0  0  0  0
  185.4300   87.4365  -18.6016 H   0  0  0  0  0  0  0  0  0  0  0  0
  183.9103   88.8050  -19.8375 H   0  0  0  0  0  0  0  0  0  0  0  0
  186.0897   90.3600  -18.6345 H   0  0  0  0  0  0  0  0  0  0  0  0
  186.1414   89.3929  -20.0096 H   0  0  0  0  0  0  0  0  0  0  0  0
  183.7677   90.6419  -17.3941 H   0  0  0  0  0  0  0  0  0  0  0  0
  182.6241   92.0099  -18.6595 H   0  0  0  0  0  0  0  0  0  0  0  0
  181.6770   88.9209  -18.8330 H   0  0  0  0  0  0  0  0  0  0  0  0
  181.0906   90.1068  -16.3339 H   0  0  0  0  0  0  0  0  0  0  0  0
  181.5770   87.5442  -16.7700 H   0  0  0  0  0  0  0  0  0  0  0  0
  183.8413   88.6318  -15.2771 H   0  0  0  0  0  0  0  0  0  0  0  0
  182.4571   89.8169  -15.4498 H   0  0  0  0  0  0  0  0  0  0  0  0
  182.3697   88.4011  -13.4641 H   0  0  0  0  0  0  0  0  0  0  0  0
  181.0150   88.3051  -14.4564 H   0  0  0  0  0  0  0  0  0  0  0  0
  1  2  1  0
  1  3  1  0
  3  4  1  0
  3  5  1  0
  5  6  1  0
  5  7  1  0
  7  8  1  0
  7  9  1  0
  1 10  1  0
  9 10  1  0
  9 11  1  0
 11 12  1  0
 13 14  1  0
 13 15  1  0
 15 16  1  0
 16 17  1  0
  2 18  1  0
 16 18  1  0
 18 19  1  0
 19 20  1  0
 13 21  1  0
 19 21  1  0
 21 22  1  0
 20 23  1  0
 23 24  1  0
 24 25  1  0
 24 26  1  0
 26 27  1  0
 26 28  1  0
 23 29  1  0
 28 29  1  0
 28 30  1  0
 30 31  1  0
 27 32  1  0
 32 33  1  0
 33 34  1  0
 33 35  1  0
 35 36  1  0
 35 37  1  0
 37 38  1  0
 37 39  1  0
 32 40  1  0
 39 40  1  0
 39 41  1  0
 41 42  1  0
  1 43  1  6
  3 44  1  1
  4 45  1  0
  4 46  1  0
  5 47  1  6
  6 48  1  0
  7 49  1  1
  8 50  1  0
  9 51  1  6
 11 52  1  0
 11 53  1  0
 12 54  1  0
 13 55  1  1
 14 56  1  0
 14 57  1  0
 15 58  1  0
 15 59  1  0
 16 60  1  1
 17 61  1  0
 17 62  1  0
 18 63  1  6
 19 64  1  1
 21 65  1  6
 22 66  1  0
 23 67  1  6
 24 68  1  1
 25 69  1  0
 26 70  1  6
 28 71  1  6
 30 72  1  0
 30 73  1  0
 31 74  1  0
 32 75  1  6
 33 76  1  6
 34 77  1  0
 34 78  1  0
 35 79  1  1
 36 80  1  0
 37 81  1  6
 38 82  1  0
 39 83  1  1
 41 84  1  0
 41 85  1  0
 42 86  1  0
 42 87  1  0
M  END
>  <PDBID>  (1) 
2UUB

>  <PDB ID>  (1) 
2UUB

>  <Generic Name>  (1) 
Paromomycin

>  <Brand Name>  (1) 
Humatin Cap 250mg#Paromomycin Sulfate#Humatin

>  <DrugBank ID>  (1) 
DB01421

>  <ATC Codes>  (1) 
A07AA06

>  <Ligand ID>  (1) 
PAR

>  <Target Name>  (1) 
30S ribosomal protein S10

>  <UniProt ID>  (1) 
Q5SHN7

>  <PDB ID.1>  (1) 
2UUB

>  <Seq. Identity>  (1) 
100%

$$$$
