PDB_DB08881_98
     RDKit          3D

150156  0  0  0  0  0  0  0  0999 V2000
   28.5690   71.5270   -5.7080 C   0  0  0  0  0  0  0  0  0  0  0  0
   26.8860   72.2050    2.7770 C   0  0  0  0  0  0  0  0  0  0  0  0
   26.3120   69.9160    1.9600 C   0  0  0  0  0  0  0  0  0  0  0  0
   26.1880   68.7280    4.1680 C   0  0  0  0  0  0  0  0  0  0  0  0
   25.5870   68.4590    5.3950 C   0  0  1  0  0  0  0  0  0  0  0  0
   24.3230   68.9480    5.6840 C   0  0  0  0  0  0  0  0  0  0  0  0
   24.3670   70.0400    3.5700 C   0  0  1  0  0  0  0  0  0  0  0  0
   27.9730   72.5170   -1.6180 C   0  0  0  0  0  0  0  0  0  0  0  0
   28.2020   73.8030   -1.1440 C   0  0  0  0  0  0  0  0  0  0  0  0
   27.9760   74.2030    0.0990 N   0  0  0  0  0  0  0  0  0  0  0  0
   27.4660   71.5530   -0.7380 C   0  0  0  0  0  0  0  0  0  0  0  0
   27.2820   73.3990    2.2550 N   0  0  0  0  0  0  0  0  0  0  0  0
   26.8220   71.2610    1.7910 C   0  0  1  0  0  0  0  0  0  0  0  0
   27.2470   71.9280    0.5810 C   0  0  0  0  0  0  0  0  0  0  0  0
   27.5230   73.2560    0.9230 C   0  0  0  0  0  0  0  0  0  0  0  0
   28.2350   72.1890   -3.0310 C   0  0  1  0  0  0  0  0  0  0  0  0
   25.6060   69.5390    3.2370 C   0  0  1  0  0  0  0  0  0  0  0  0
   23.7120   69.7620    4.7580 C   0  0  0  0  0  0  0  0  0  0  0  0
   23.7970   70.9030    2.7120 F   0  0  0  0  0  0  0  0  0  0  0  0
   27.3620   68.1420    3.8940 F   0  0  0  0  0  0  0  0  0  0  0  0
   26.3580   67.7260    6.3290 N   0  0  0  0  0  0  0  0  0  0  0  0
   26.0450   67.3550    7.8610 S   0  0  2  0  0  4  0  0  0  0  0  0
   27.1540   66.6220    8.3170 O   0  0  0  0  0  0  0  0  0  0  0  0
   24.7510   66.7690    7.9240 O   0  0  0  0  0  0  0  0  0  0  0  0
   25.9480   68.9480    8.6250 C   0  0  0  0  0  0  0  0  0  0  0  0
   27.1480   69.6740    8.8500 C   0  0  0  0  0  0  0  0  0  0  0  0
   26.8540   71.0220    9.5280 C   0  0  0  0  0  0  0  0  0  0  0  0
   28.7260   70.9360   -3.4040 C   0  0  0  0  0  0  0  0  0  0  0  0
   28.9140   70.6100   -4.7350 C   0  0  0  0  0  0  0  0  0  0  0  0
   28.0890   72.7720   -5.3790 C   0  0  0  0  0  0  0  0  0  0  0  0
   27.9350   73.1030   -4.0450 C   0  0  0  0  0  0  0  0  0  0  0  0
   28.6980   71.0750   -7.4060 Cl  0  0  0  0  0  0  0  0  0  0  0  0
   26.3960   69.0400    1.1550 O   0  0  0  0  0  0  0  0  0  0  0  0
   49.4650   77.7310  -24.9610 C   0  0  1  0  0  0  0  0  0  0  0  0
   51.2280   77.7880  -33.5030 C   0  0  0  0  0  0  0  0  0  0  0  0
   51.1300   75.4590  -32.6450 C   0  0  0  0  0  0  0  0  0  0  0  0
   50.8610   74.2710  -34.8260 C   0  0  0  0  0  0  0  0  0  0  0  0
   51.3370   73.8160  -36.0550 C   0  0  1  0  0  0  0  0  0  0  0  0
   52.6720   73.9530  -36.3830 C   0  0  0  0  0  0  0  0  0  0  0  0
   53.0010   75.0320  -34.2870 C   0  0  0  0  0  0  0  0  0  0  0  0
   50.2470   78.3980  -29.1000 C   0  0  0  0  0  0  0  0  0  0  0  0
   50.3460   79.6970  -29.5900 C   0  0  0  0  0  0  0  0  0  0  0  0
   50.6130   80.0180  -30.8600 N   0  0  0  0  0  0  0  0  0  0  0  0
   50.4430   77.3300  -29.9910 C   0  0  0  0  0  0  0  0  0  0  0  0
   51.1280   79.0370  -33.0060 N   0  0  0  0  0  0  0  0  0  0  0  0
   51.0180   76.8700  -32.5090 C   0  0  1  0  0  0  0  0  0  0  0  0
   50.7470   77.6270  -31.3200 C   0  0  0  0  0  0  0  0  0  0  0  0
   50.8170   78.9760  -31.6770 C   0  0  0  0  0  0  0  0  0  0  0  0
   49.9560   78.1690  -27.6640 C   0  0  0  0  0  0  0  0  0  0  0  0
   51.6770   74.9050  -33.9130 C   0  0  0  0  0  0  0  0  0  0  0  0
   53.5150   74.5700  -35.4860 C   0  0  0  0  0  0  0  0  0  0  0  0
   53.8300   75.6260  -33.4370 F   0  0  0  0  0  0  0  0  0  0  0  0
   49.5510   74.1330  -34.5540 F   0  0  0  0  0  0  0  0  0  0  0  0
   50.3810   73.2870  -36.9600 N   0  0  0  0  0  0  0  0  0  0  0  0
   50.5680   72.7440  -38.4800 S   0  0  2  0  0  4  0  0  0  0  0  0
   49.3060   72.2200  -38.8620 O   0  0  0  0  0  0  0  0  0  0  0  0
   51.7040   71.8960  -38.4560 O   0  0  0  0  0  0  0  0  0  0  0  0
   51.0260   74.1670  -39.4080 C   0  0  0  0  0  0  0  0  0  0  0  0
   49.9960   75.1060  -39.5460 C   0  0  0  0  0  0  0  0  0  0  0  0
   50.6180   76.2890  -40.2050 C   0  0  0  0  0  0  0  0  0  0  0  0
   49.1350   77.1250  -27.2450 C   0  0  0  0  0  0  0  0  0  0  0  0
   48.8910   76.8980  -25.8990 C   0  0  0  0  0  0  0  0  0  0  0  0
   50.2510   78.7840  -25.3370 C   0  0  0  0  0  0  0  0  0  0  0  0
   50.5020   78.9960  -26.6820 C   0  0  0  0  0  0  0  0  0  0  0  0
   49.2510   77.3900  -23.2470 Cl  0  0  0  0  0  0  0  0  0  0  0  0
   50.8120   74.6910  -31.7830 O   0  0  0  0  0  0  0  0  0  0  0  0
   27.5420   71.1330   -5.7152 H   0  0  0  0  0  0  0  0  0  0  0  0
   27.6087   71.8843    3.5417 H   0  0  0  0  0  0  0  0  0  0  0  0
   25.8903   72.3218    3.2297 H   0  0  0  0  0  0  0  0  0  0  0  0
   27.2719   69.6072    2.3996 H   0  0  0  0  0  0  0  0  0  0  0  0
   25.6792   67.8577    3.7280 H   0  0  0  0  0  0  0  0  0  0  0  0
   26.0359   69.3712    5.8149 H   0  0  0  0  0  0  0  0  0  0  0  0
   23.6654   68.0800    5.8391 H   0  0  0  0  0  0  0  0  0  0  0  0
   24.4762   69.5978    6.5582 H   0  0  0  0  0  0  0  0  0  0  0  0
   23.8883   69.1673    3.1018 H   0  0  0  0  0  0  0  0  0  0  0  0
   28.9983   72.2318   -1.3397 H   0  0  0  0  0  0  0  0  0  0  0  0
   29.2692   73.9979   -1.3262 H   0  0  0  0  0  0  0  0  0  0  0  0
   27.4155   74.3561   -1.6783 H   0  0  0  0  0  0  0  0  0  0  0  0
   28.8601   74.5651    0.4838 H   0  0  0  0  0  0  0  0  0  0  0  0
   26.5030   71.2116   -1.1456 H   0  0  0  0  0  0  0  0  0  0  0  0
   28.2561   70.7899   -0.6801 H   0  0  0  0  0  0  0  0  0  0  0  0
   26.5391   74.0984    2.3961 H   0  0  0  0  0  0  0  0  0  0  0  0
   27.8302   70.9124    2.0593 H   0  0  0  0  0  0  0  0  0  0  0  0
   26.1990   72.1603    0.3409 H   0  0  0  0  0  0  0  0  0  0  0  0
   28.5572   72.9525    1.1427 H   0  0  0  0  0  0  0  0  0  0  0  0
   29.2648   72.5614   -2.9265 H   0  0  0  0  0  0  0  0  0  0  0  0
   25.1753   68.6580    2.7388 H   0  0  0  0  0  0  0  0  0  0  0  0
   22.7548   69.2882    4.4947 H   0  0  0  0  0  0  0  0  0  0  0  0
   23.6563   70.7381    5.2621 H   0  0  0  0  0  0  0  0  0  0  0  0
   26.5034   66.8135    5.8740 H   0  0  0  0  0  0  0  0  0  0  0  0
   27.1618   66.6169    9.3070 H   0  0  0  0  0  0  0  0  0  0  0  0
   24.4884   66.6501    8.8711 H   0  0  0  0  0  0  0  0  0  0  0  0
   25.3065   69.5738    7.9871 H   0  0  0  0  0  0  0  0  0  0  0  0
   25.5728   68.7349    9.6368 H   0  0  0  0  0  0  0  0  0  0  0  0
   27.8111   69.0820    9.4979 H   0  0  0  0  0  0  0  0  0  0  0  0
   27.6301   69.8659    7.8801 H   0  0  0  0  0  0  0  0  0  0  0  0
   26.8813   70.8966   10.6205 H   0  0  0  0  0  0  0  0  0  0  0  0
   27.6127   71.7584    9.2243 H   0  0  0  0  0  0  0  0  0  0  0  0
   25.8576   71.3756    9.2243 H   0  0  0  0  0  0  0  0  0  0  0  0
   29.7047   70.8256   -2.9141 H   0  0  0  0  0  0  0  0  0  0  0  0
   27.9130   70.2591   -3.1026 H   0  0  0  0  0  0  0  0  0  0  0  0
   28.3278   69.6997   -4.9289 H   0  0  0  0  0  0  0  0  0  0  0  0
   30.0064   70.5241   -4.8317 H   0  0  0  0  0  0  0  0  0  0  0  0
   28.7793   73.5087   -5.8157 H   0  0  0  0  0  0  0  0  0  0  0  0
   27.0604   72.7683   -5.7690 H   0  0  0  0  0  0  0  0  0  0  0  0
   26.8785   73.3791   -3.9127 H   0  0  0  0  0  0  0  0  0  0  0  0
   28.7015   73.8788   -3.9015 H   0  0  0  0  0  0  0  0  0  0  0  0
   26.4794   68.1705    1.6210 H   0  0  0  0  0  0  0  0  0  0  0  0
   50.3519   77.0812  -24.9267 H   0  0  0  0  0  0  0  0  0  0  0  0
   50.4748   77.6487  -34.2925 H   0  0  0  0  0  0  0  0  0  0  0  0
   52.2360   77.6449  -33.9195 H   0  0  0  0  0  0  0  0  0  0  0  0
   50.1144   75.4189  -33.0656 H   0  0  0  0  0  0  0  0  0  0  0  0
   51.1067   73.3000  -34.3713 H   0  0  0  0  0  0  0  0  0  0  0  0
   51.1266   74.7995  -36.5006 H   0  0  0  0  0  0  0  0  0  0  0  0
   53.0680   72.9414  -36.5558 H   0  0  0  0  0  0  0  0  0  0  0  0
   52.6650   74.6295  -37.2504 H   0  0  0  0  0  0  0  0  0  0  0  0
   53.2267   74.0634  -33.8170 H   0  0  0  0  0  0  0  0  0  0  0  0
   49.1715   78.3930  -29.3306 H   0  0  0  0  0  0  0  0  0  0  0  0
   49.3789   80.1702  -29.3647 H   0  0  0  0  0  0  0  0  0  0  0  0
   51.2766   80.0230  -29.1026 H   0  0  0  0  0  0  0  0  0  0  0  0
   49.8176   80.5602  -31.2264 H   0  0  0  0  0  0  0  0  0  0  0  0
   51.2703   76.7227  -29.5951 H   0  0  0  0  0  0  0  0  0  0  0  0
   49.4629   76.8330  -30.0403 H   0  0  0  0  0  0  0  0  0  0  0  0
   52.0260   79.5270  -33.1261 H   0  0  0  0  0  0  0  0  0  0  0  0
   49.9552   76.8124  -32.7867 H   0  0  0  0  0  0  0  0  0  0  0  0
   51.8194   77.6260  -31.0749 H   0  0  0  0  0  0  0  0  0  0  0  0
   49.7461   78.9633  -31.9282 H   0  0  0  0  0  0  0  0  0  0  0  0
   49.0793   78.8294  -27.7363 H   0  0  0  0  0  0  0  0  0  0  0  0
   51.8638   73.9435  -33.4123 H   0  0  0  0  0  0  0  0  0  0  0  0
   54.3070   73.8476  -35.2395 H   0  0  0  0  0  0  0  0  0  0  0  0
   53.8283   75.4863  -36.0078 H   0  0  0  0  0  0  0  0  0  0  0  0
   49.9742   72.4863  -36.4557 H   0  0  0  0  0  0  0  0  0  0  0  0
   48.7804   72.0018  -38.0519 H   0  0  0  0  0  0  0  0  0  0  0  0
   51.9557   71.7081  -37.5172 H   0  0  0  0  0  0  0  0  0  0  0  0
   51.8734   74.6531  -38.9024 H   0  0  0  0  0  0  0  0  0  0  0  0
   51.2827   73.8211  -40.4202 H   0  0  0  0  0  0  0  0  0  0  0  0
   49.1870   74.6996  -40.1708 H   0  0  0  0  0  0  0  0  0  0  0  0
   49.5513   75.3681  -38.5746 H   0  0  0  0  0  0  0  0  0  0  0  0
   50.9845   76.9860  -39.4370 H   0  0  0  0  0  0  0  0  0  0  0  0
   51.4593   75.9591  -40.8322 H   0  0  0  0  0  0  0  0  0  0  0  0
   49.8694   76.7951  -40.8322 H   0  0  0  0  0  0  0  0  0  0  0  0
   48.1548   77.2912  -27.7157 H   0  0  0  0  0  0  0  0  0  0  0  0
   49.7117   76.2350  -27.5371 H   0  0  0  0  0  0  0  0  0  0  0  0
   49.2371   75.8777  -25.6773 H   0  0  0  0  0  0  0  0  0  0  0  0
   47.8128   77.0883  -25.7929 H   0  0  0  0  0  0  0  0  0  0  0  0
   49.7710   79.6960  -24.9525 H   0  0  0  0  0  0  0  0  0  0  0  0
   51.2390   78.5319  -24.9243 H   0  0  0  0  0  0  0  0  0  0  0  0
   51.5939   78.9458  -26.8057 H   0  0  0  0  0  0  0  0  0  0  0  0
   49.9940   79.9535  -26.8696 H   0  0  0  0  0  0  0  0  0  0  0  0
   50.9814   75.1001  -30.8976 H   0  0  0  0  0  0  0  0  0  0  0  0
  4  5  1  0
  5  6  1  0
  8  9  1  0
  9 10  1  0
  8 11  1  0
  2 12  1  0
  2 13  1  0
  3 13  1  0
 11 14  1  0
 13 14  1  0
 10 15  1  0
 12 15  1  0
 14 15  1  0
  8 16  1  0
  3 17  1  0
  4 17  1  0
  7 17  1  0
  6 18  1  0
  7 18  1  0
  7 19  1  0
  4 20  1  0
  5 21  1  0
 21 22  1  0
 22 23  1  1
 22 24  1  0
 22 25  1  0
 25 26  1  0
 26 27  1  0
 16 28  1  0
  1 29  1  0
 28 29  1  0
  1 30  1  0
 16 31  1  0
 30 31  1  0
  1 32  1  0
  3 33  1  0
 37 38  1  0
 38 39  1  0
 41 42  1  0
 42 43  1  0
 41 44  1  0
 35 45  1  0
 35 46  1  0
 36 46  1  0
 44 47  1  0
 46 47  1  0
 43 48  1  0
 45 48  1  0
 47 48  1  0
 41 49  1  0
 36 50  1  0
 37 50  1  0
 40 50  1  0
 39 51  1  0
 40 51  1  0
 40 52  1  0
 37 53  1  0
 38 54  1  0
 54 55  1  0
 55 56  1  6
 55 57  1  0
 55 58  1  0
 58 59  1  0
 59 60  1  0
 49 61  1  0
 34 62  1  0
 61 62  1  0
 34 63  1  0
 49 64  1  0
 63 64  1  0
 34 65  1  0
 36 66  1  0
  1 67  1  0
  2 68  1  0
  2 69  1  0
  3 70  1  0
  4 71  1  0
  5 72  1  6
  6 73  1  0
  6 74  1  0
  7 75  1  6
  8 76  1  0
  9 77  1  0
  9 78  1  0
 10 79  1  0
 11 80  1  0
 11 81  1  0
 12 82  1  0
 13 83  1  1
 14 84  1  0
 15 85  1  0
 16 86  1  1
 17 87  1  6
 18 88  1  0
 18 89  1  0
 21 90  1  0
 23 91  1  0
 24 92  1  0
 25 93  1  0
 25 94  1  0
 26 95  1  0
 26 96  1  0
 27 97  1  0
 27 98  1  0
 27 99  1  0
 28100  1  0
 28101  1  0
 29102  1  0
 29103  1  0
 30104  1  0
 30105  1  0
 31106  1  0
 31107  1  0
 33108  1  0
 34109  1  1
 35110  1  0
 35111  1  0
 36112  1  0
 37113  1  0
 38114  1  1
 39115  1  0
 39116  1  0
 40117  1  0
 41118  1  0
 42119  1  0
 42120  1  0
 43121  1  0
 44122  1  0
 44123  1  0
 45124  1  0
 46125  1  6
 47126  1  0
 48127  1  0
 49128  1  0
 50129  1  0
 51130  1  0
 51131  1  0
 54132  1  0
 56133  1  0
 57134  1  0
 58135  1  0
 58136  1  0
 59137  1  0
 59138  1  0
 60139  1  0
 60140  1  0
 60141  1  0
 61142  1  0
 61143  1  0
 62144  1  0
 62145  1  0
 63146  1  0
 63147  1  0
 64148  1  0
 64149  1  0
 66150  1  0
M  END
>  <PDBID>  (1) 
5HES

>  <PDB ID>  (1) 
5HES

>  <Generic Name>  (1) 
Vemurafenib

>  <Brand Name>  (1) 
Zelboraf

>  <DrugBank ID>  (1) 
DB08881

>  <ATC Codes>  (1) 
L01XE15

>  <Ligand ID>  (1) 
032

>  <Target Name>  (1) 
Serine/threonine-protein kinase B-raf

>  <UniProt ID>  (1) 
P15056

>  <PDB ID.1>  (1) 
5HES

>  <Seq. Identity>  (1) 
32%

$$$$
