PDB_DB00834_97
     RDKit          3D

166174  0  0  0  0  0  0  0  0999 V2000
  -28.2960    4.9500   20.2670 O   0  0  0  0  0  0  0  0  0  0  0  0
  -27.5550    5.0210   21.2380 C   0  0  1  0  0  0  0  0  0  0  0  0
  -27.7760    4.1140   22.4460 C   0  0  0  0  0  0  0  0  0  0  0  0
  -26.4780    6.0200   21.3130 C   0  0  0  0  0  0  0  0  0  0  0  0
  -25.7030    6.1970   22.4110 C   0  0  1  0  0  0  0  0  0  0  0  0
  -24.6880    7.3000   22.4250 C   0  0  0  0  0  0  0  0  0  0  0  0
  -25.8650    5.3910   23.6420 C   0  0  0  0  0  0  0  0  0  0  0  0
  -26.6310    4.0890   23.4670 C   0  0  0  0  0  0  0  0  0  0  0  0
  -25.3380    5.7770   24.8310 C   0  0  0  0  0  0  0  0  0  0  0  0
  -25.4430    4.8950   26.0850 C   0  0  1  0  0  0  0  0  0  0  0  0
  -24.2850    3.9060   26.1980 C   0  0  0  0  0  0  0  0  0  0  0  0
  -24.2390    3.0430   27.2920 C   0  0  0  0  0  0  0  0  0  0  0  0
  -23.2140    2.1240   27.4650 C   0  0  0  0  0  0  0  0  0  0  0  0
  -22.1510    2.0270   26.5210 C   0  0  0  0  0  0  0  0  0  0  0  0
  -21.1070    1.1090   26.6620 N   0  0  0  0  0  0  0  0  0  0  0  0
  -19.9900    1.1250   25.7260 C   0  0  0  0  0  0  0  0  0  0  0  0
  -21.3810   -0.1890   27.2750 C   0  0  0  0  0  0  0  0  0  0  0  0
  -22.2100    2.8900   25.4110 C   0  0  0  0  0  0  0  0  0  0  0  0
  -23.2420    3.8130   25.2610 C   0  0  0  0  0  0  0  0  0  0  0  0
  -25.6700    5.7150   27.3830 C   0  0  0  0  0  0  0  0  0  0  0  0
  -24.8280    6.9930   27.5160 C   0  0  2  0  0  0  0  0  0  0  0  0
  -23.3260    6.6860   27.6770 C   0  0  0  0  0  0  0  0  0  0  0  0
  -25.2340    8.0040   28.6630 C   0  0  1  0  0  0  0  0  0  0  0  0
  -26.6800    8.0810   28.8330 C   0  0  0  0  0  0  0  0  0  0  0  0
  -27.8750    8.1370   28.9420 C   0  0  0  0  0  0  0  0  0  0  0  0
  -29.3230    8.2230   29.0600 C   0  0  0  0  0  0  0  0  0  0  0  0
  -24.6130    7.6110   29.9020 O   0  0  0  0  0  0  0  0  0  0  0  0
  -24.7300    9.3830   28.1280 C   0  0  0  0  0  0  0  0  0  0  0  0
  -24.5930    9.2520   26.5740 C   0  0  0  0  0  0  0  0  0  0  0  0
  -25.1180    7.8280   26.2600 C   0  0  1  0  0  0  0  0  0  0  0  0
  -24.6400    7.1290   24.9820 C   0  0  2  0  0  0  0  0  0  0  0  0
  -24.8230    8.0340   23.7560 C   0  0  0  0  0  0  0  0  0  0  0  0
  -19.9180    4.7950   42.9620 O   0  0  0  0  0  0  0  0  0  0  0  0
  -20.7150    4.9070   42.0460 C   0  0  1  0  0  0  0  0  0  0  0  0
  -20.5650    4.0120   40.8150 C   0  0  0  0  0  0  0  0  0  0  0  0
  -21.7620    5.9430   42.0270 C   0  0  0  0  0  0  0  0  0  0  0  0
  -22.5720    6.1620   40.9480 C   0  0  1  0  0  0  0  0  0  0  0  0
  -23.5650    7.2870   40.9500 C   0  0  0  0  0  0  0  0  0  0  0  0
  -22.4630    5.3770   39.7010 C   0  0  0  0  0  0  0  0  0  0  0  0
  -21.7510    4.0400   39.8500 C   0  0  0  0  0  0  0  0  0  0  0  0
  -23.0000    5.7990   38.5260 C   0  0  0  0  0  0  0  0  0  0  0  0
  -22.8950    4.9410   37.2570 C   0  0  1  0  0  0  0  0  0  0  0  0
  -24.0310    3.9400   37.1110 C   0  0  0  0  0  0  0  0  0  0  0  0
  -24.0400    3.0530   36.0310 C   0  0  0  0  0  0  0  0  0  0  0  0
  -25.0550    2.1260   35.8430 C   0  0  0  0  0  0  0  0  0  0  0  0
  -26.1470    2.0440   36.7510 C   0  0  0  0  0  0  0  0  0  0  0  0
  -27.1890    1.1230   36.6010 N   0  0  0  0  0  0  0  0  0  0  0  0
  -28.4060    1.3060   37.3730 C   0  0  0  0  0  0  0  0  0  0  0  0
  -26.8880   -0.2410   36.1670 C   0  0  0  0  0  0  0  0  0  0  0  0
  -26.1240    2.9410   37.8280 C   0  0  0  0  0  0  0  0  0  0  0  0
  -25.1030    3.8710   37.9950 C   0  0  0  0  0  0  0  0  0  0  0  0
  -22.6940    5.7840   35.9680 C   0  0  0  0  0  0  0  0  0  0  0  0
  -23.5910    7.0150   35.8410 C   0  0  2  0  0  0  0  0  0  0  0  0
  -25.0790    6.6520   35.6380 C   0  0  0  0  0  0  0  0  0  0  0  0
  -23.1940    8.0260   34.7000 C   0  0  1  0  0  0  0  0  0  0  0  0
  -21.7460    8.1210   34.5990 C   0  0  0  0  0  0  0  0  0  0  0  0
  -20.5490    8.1810   34.6130 C   0  0  0  0  0  0  0  0  0  0  0  0
  -19.0970    8.2760   34.6790 C   0  0  0  0  0  0  0  0  0  0  0  0
  -23.7510    7.5780   33.4540 O   0  0  0  0  0  0  0  0  0  0  0  0
  -23.7780    9.3850   35.2170 C   0  0  0  0  0  0  0  0  0  0  0  0
  -23.9030    9.2710   36.7730 C   0  0  0  0  0  0  0  0  0  0  0  0
  -23.3230    7.8680   37.0940 C   0  0  1  0  0  0  0  0  0  0  0  0
  -23.7050    7.1540   38.4040 C   0  0  2  0  0  0  0  0  0  0  0  0
  -23.4730    8.0500   39.6280 C   0  0  0  0  0  0  0  0  0  0  0  0
  -29.2332    4.8602   20.5730 H   0  0  0  0  0  0  0  0  0  0  0  0
  -28.2148    5.7786   21.6861 H   0  0  0  0  0  0  0  0  0  0  0  0
  -28.6853    4.4535   22.9637 H   0  0  0  0  0  0  0  0  0  0  0  0
  -27.8503    3.0912   22.0481 H   0  0  0  0  0  0  0  0  0  0  0  0
  -25.7869    5.7809   20.4913 H   0  0  0  0  0  0  0  0  0  0  0  0
  -27.0513    6.9587   21.2983 H   0  0  0  0  0  0  0  0  0  0  0  0
  -24.9521    5.5113   21.9915 H   0  0  0  0  0  0  0  0  0  0  0  0
  -23.6760    6.8797   22.3293 H   0  0  0  0  0  0  0  0  0  0  0  0
  -24.8553    7.9898   21.5846 H   0  0  0  0  0  0  0  0  0  0  0  0
  -26.8067    5.9155   23.8615 H   0  0  0  0  0  0  0  0  0  0  0  0
  -27.0569    3.8153   24.4436 H   0  0  0  0  0  0  0  0  0  0  0  0
  -25.9006    3.3656   23.0756 H   0  0  0  0  0  0  0  0  0  0  0  0
  -26.2885    6.2642   25.0941 H   0  0  0  0  0  0  0  0  0  0  0  0
  -26.3516    4.2879   25.9591 H   0  0  0  0  0  0  0  0  0  0  0  0
  -23.7037    4.6509   26.7612 H   0  0  0  0  0  0  0  0  0  0  0  0
  -24.2329    3.6821   28.1873 H   0  0  0  0  0  0  0  0  0  0  0  0
  -25.1038    2.3894   27.1049 H   0  0  0  0  0  0  0  0  0  0  0  0
  -22.7505    2.3510   28.4364 H   0  0  0  0  0  0  0  0  0  0  0  0
  -23.7303    1.1596   27.3494 H   0  0  0  0  0  0  0  0  0  0  0  0
  -21.5753    2.7696   27.0930 H   0  0  0  0  0  0  0  0  0  0  0  0
  -19.0430    1.1386   26.2855 H   0  0  0  0  0  0  0  0  0  0  0  0
  -20.0291    0.2262   25.0930 H   0  0  0  0  0  0  0  0  0  0  0  0
  -20.0548    2.0223   25.0930 H   0  0  0  0  0  0  0  0  0  0  0  0
  -21.3599   -0.0890   28.3702 H   0  0  0  0  0  0  0  0  0  0  0  0
  -22.3735   -0.5420   26.9581 H   0  0  0  0  0  0  0  0  0  0  0  0
  -20.6159   -0.9130   26.9581 H   0  0  0  0  0  0  0  0  0  0  0  0
  -21.2746    3.4688   25.4178 H   0  0  0  0  0  0  0  0  0  0  0  0
  -22.3930    2.1935   24.5795 H   0  0  0  0  0  0  0  0  0  0  0  0
  -23.7141    3.5960   24.2915 H   0  0  0  0  0  0  0  0  0  0  0  0
  -22.7213    4.7733   25.3903 H   0  0  0  0  0  0  0  0  0  0  0  0
  -26.7309    6.0032   27.4201 H   0  0  0  0  0  0  0  0  0  0  0  0
  -25.3578    5.0612   28.2107 H   0  0  0  0  0  0  0  0  0  0  0  0
  -23.0749    6.6347   28.7467 H   0  0  0  0  0  0  0  0  0  0  0  0
  -23.0955    5.7222   27.1996 H   0  0  0  0  0  0  0  0  0  0  0  0
  -22.7358    7.4821   27.1996 H   0  0  0  0  0  0  0  0  0  0  0  0
  -26.6302    7.3554   29.6582 H   0  0  0  0  0  0  0  0  0  0  0  0
  -26.6535    9.1497   28.5739 H   0  0  0  0  0  0  0  0  0  0  0  0
  -27.9582    7.0870   28.6247 H   0  0  0  0  0  0  0  0  0  0  0  0
  -27.7647    8.8079   29.8067 H   0  0  0  0  0  0  0  0  0  0  0  0
  -29.6039    8.2397   30.1234 H   0  0  0  0  0  0  0  0  0  0  0  0
  -29.6765    9.1437   28.5729 H   0  0  0  0  0  0  0  0  0  0  0  0
  -29.7830    7.3506   28.5729 H   0  0  0  0  0  0  0  0  0  0  0  0
  -25.1491    7.9503   30.6620 H   0  0  0  0  0  0  0  0  0  0  0  0
  -25.4545   10.1722   28.3777 H   0  0  0  0  0  0  0  0  0  0  0  0
  -23.7659    9.6513   28.5847 H   0  0  0  0  0  0  0  0  0  0  0  0
  -25.2021   10.0128   26.0639 H   0  0  0  0  0  0  0  0  0  0  0  0
  -23.5593    9.4034   26.2298 H   0  0  0  0  0  0  0  0  0  0  0  0
  -26.1870    7.9309   26.0221 H   0  0  0  0  0  0  0  0  0  0  0  0
  -23.5605    6.9327   25.0598 H   0  0  0  0  0  0  0  0  0  0  0  0
  -24.0620    8.8274   23.7936 H   0  0  0  0  0  0  0  0  0  0  0  0
  -25.8475    8.4319   23.8007 H   0  0  0  0  0  0  0  0  0  0  0  0
  -20.3967    4.8623   43.8260 H   0  0  0  0  0  0  0  0  0  0  0  0
  -20.0683    5.6623   41.5756 H   0  0  0  0  0  0  0  0  0  0  0  0
  -19.6691    4.3352   40.2647 H   0  0  0  0  0  0  0  0  0  0  0  0
  -20.4970    2.9802   41.1903 H   0  0  0  0  0  0  0  0  0  0  0  0
  -22.4327    5.7118   42.8677 H   0  0  0  0  0  0  0  0  0  0  0  0
  -21.1609    6.8641   42.0420 H   0  0  0  0  0  0  0  0  0  0  0  0
  -23.3298    5.4924   41.3809 H   0  0  0  0  0  0  0  0  0  0  0  0
  -24.5800    6.8800   41.0687 H   0  0  0  0  0  0  0  0  0  0  0  0
  -23.3441    7.9697   41.7837 H   0  0  0  0  0  0  0  0  0  0  0  0
  -21.5021    5.8639   39.4785 H   0  0  0  0  0  0  0  0  0  0  0  0
  -21.3830    3.7429   38.8569 H   0  0  0  0  0  0  0  0  0  0  0  0
  -22.4968    3.3549   40.2793 H   0  0  0  0  0  0  0  0  0  0  0  0
  -22.0514    6.2936   38.2701 H   0  0  0  0  0  0  0  0  0  0  0  0
  -21.9781    4.3481   37.3899 H   0  0  0  0  0  0  0  0  0  0  0  0
  -24.5983    4.6706   36.5157 H   0  0  0  0  0  0  0  0  0  0  0  0
  -24.0202    3.6744   35.1236 H   0  0  0  0  0  0  0  0  0  0  0  0
  -23.1798    2.4065   36.2593 H   0  0  0  0  0  0  0  0  0  0  0  0
  -25.4864    2.3306   34.8520 H   0  0  0  0  0  0  0  0  0  0  0  0
  -24.5392    1.1666   35.9961 H   0  0  0  0  0  0  0  0  0  0  0  0
  -26.7049    2.7738   36.1459 H   0  0  0  0  0  0  0  0  0  0  0  0
  -28.1682    1.2702   38.4464 H   0  0  0  0  0  0  0  0  0  0  0  0
  -28.8521    2.2813   37.1286 H   0  0  0  0  0  0  0  0  0  0  0  0
  -29.1192    0.5050   37.1286 H   0  0  0  0  0  0  0  0  0  0  0  0
  -26.7462   -0.8834   37.0486 H   0  0  0  0  0  0  0  0  0  0  0  0
  -27.7227   -0.6262   35.5630 H   0  0  0  0  0  0  0  0  0  0  0  0
  -25.9687   -0.2391   35.5630 H   0  0  0  0  0  0  0  0  0  0  0  0
  -27.0584    3.5182   37.7670 H   0  0  0  0  0  0  0  0  0  0  0  0
  -25.9636    2.2683   38.6834 H   0  0  0  0  0  0  0  0  0  0  0  0
  -24.6731    3.6845   38.9902 H   0  0  0  0  0  0  0  0  0  0  0  0
  -25.6202    4.8249   37.8144 H   0  0  0  0  0  0  0  0  0  0  0  0
  -21.6478    6.1230   35.9443 H   0  0  0  0  0  0  0  0  0  0  0  0
  -22.9652    5.1247   35.1303 H   0  0  0  0  0  0  0  0  0  0  0  0
  -25.5645    6.5336   36.6179 H   0  0  0  0  0  0  0  0  0  0  0  0
  -25.5788    7.4546   35.0758 H   0  0  0  0  0  0  0  0  0  0  0  0
  -25.1531    5.7094   35.0758 H   0  0  0  0  0  0  0  0  0  0  0  0
  -21.7247    7.3571   33.8078 H   0  0  0  0  0  0  0  0  0  0  0  0
  -21.8025    9.2002   34.8042 H   0  0  0  0  0  0  0  0  0  0  0  0
  -20.4808    7.1030   34.4052 H   0  0  0  0  0  0  0  0  0  0  0  0
  -20.5939    9.1821   34.1593 H   0  0  0  0  0  0  0  0  0  0  0  0
  -18.7784    8.2968   35.7316 H   0  0  0  0  0  0  0  0  0  0  0  0
  -18.6494    7.4052   34.1776 H   0  0  0  0  0  0  0  0  0  0  0  0
  -18.7667    9.1977   34.1776 H   0  0  0  0  0  0  0  0  0  0  0  0
  -24.5098    6.9677   33.6322 H   0  0  0  0  0  0  0  0  0  0  0  0
  -23.1016   10.2112   34.9525 H   0  0  0  0  0  0  0  0  0  0  0  0
  -24.7575    9.5890   34.7598 H   0  0  0  0  0  0  0  0  0  0  0  0
  -23.3189   10.0589   37.2710 H   0  0  0  0  0  0  0  0  0  0  0  0
  -24.9382    9.3919   37.1247 H   0  0  0  0  0  0  0  0  0  0  0  0
  -22.2577    8.0201   37.3219 H   0  0  0  0  0  0  0  0  0  0  0  0
  -24.7852    6.9488   38.3705 H   0  0  0  0  0  0  0  0  0  0  0  0
  -24.2318    8.8464   39.6289 H   0  0  0  0  0  0  0  0  0  0  0  0
  -22.4535    8.4560   39.5514 H   0  0  0  0  0  0  0  0  0  0  0  0
  1  2  1  0
  2  3  1  0
  2  4  1  0
  4  5  1  0
  5  6  1  0
  5  7  1  0
  3  8  1  0
  7  8  1  0
  7  9  1  0
  9 10  1  0
 10 11  1  0
 11 12  1  0
 12 13  1  0
 13 14  1  0
 14 15  1  0
 15 16  1  0
 15 17  1  0
 14 18  1  0
 11 19  1  0
 18 19  1  0
 10 20  1  0
 20 21  1  0
 21 22  1  1
 21 23  1  0
 23 24  1  0
 24 25  1  0
 25 26  1  0
 23 27  1  1
 23 28  1  0
 28 29  1  0
 21 30  1  0
 29 30  1  0
  9 31  1  0
 30 31  1  0
  6 32  1  0
 31 32  1  0
 33 34  1  0
 34 35  1  0
 34 36  1  0
 36 37  1  0
 37 38  1  0
 37 39  1  0
 35 40  1  0
 39 40  1  0
 39 41  1  0
 41 42  1  0
 42 43  1  0
 43 44  1  0
 44 45  1  0
 45 46  1  0
 46 47  1  0
 47 48  1  0
 47 49  1  0
 46 50  1  0
 43 51  1  0
 50 51  1  0
 42 52  1  0
 52 53  1  0
 53 54  1  6
 53 55  1  0
 55 56  1  0
 56 57  1  0
 57 58  1  0
 55 59  1  6
 55 60  1  0
 60 61  1  0
 53 62  1  0
 61 62  1  0
 41 63  1  0
 62 63  1  0
 38 64  1  0
 63 64  1  0
  1 65  1  0
  2 66  1  6
  3 67  1  0
  3 68  1  0
  4 69  1  0
  4 70  1  0
  5 71  1  6
  6 72  1  0
  6 73  1  0
  7 74  1  0
  8 75  1  0
  8 76  1  0
  9 77  1  0
 10 78  1  6
 11 79  1  0
 12 80  1  0
 12 81  1  0
 13 82  1  0
 13 83  1  0
 14 84  1  0
 16 85  1  0
 16 86  1  0
 16 87  1  0
 17 88  1  0
 17 89  1  0
 17 90  1  0
 18 91  1  0
 18 92  1  0
 19 93  1  0
 19 94  1  0
 20 95  1  0
 20 96  1  0
 22 97  1  0
 22 98  1  0
 22 99  1  0
 24100  1  0
 24101  1  0
 25102  1  0
 25103  1  0
 26104  1  0
 26105  1  0
 26106  1  0
 27107  1  0
 28108  1  0
 28109  1  0
 29110  1  0
 29111  1  0
 30112  1  6
 31113  1  1
 32114  1  0
 32115  1  0
 33116  1  0
 34117  1  1
 35118  1  0
 35119  1  0
 36120  1  0
 36121  1  0
 37122  1  1
 38123  1  0
 38124  1  0
 39125  1  0
 40126  1  0
 40127  1  0
 41128  1  0
 42129  1  1
 43130  1  0
 44131  1  0
 44132  1  0
 45133  1  0
 45134  1  0
 46135  1  0
 48136  1  0
 48137  1  0
 48138  1  0
 49139  1  0
 49140  1  0
 49141  1  0
 50142  1  0
 50143  1  0
 51144  1  0
 51145  1  0
 52146  1  0
 52147  1  0
 54148  1  0
 54149  1  0
 54150  1  0
 56151  1  0
 56152  1  0
 57153  1  0
 57154  1  0
 58155  1  0
 58156  1  0
 58157  1  0
 59158  1  0
 60159  1  0
 60160  1  0
 61161  1  0
 61162  1  0
 62163  1  1
 63164  1  6
 64165  1  0
 64166  1  0
M  END
>  <PDBID>  (1) 
5UC1

>  <PDB ID>  (1) 
5UC1

>  <Generic Name>  (1) 
Mifepristone

>  <Brand Name>  (1) 
Korlym#Mifegymiso#Corlux#Mefipil#Mifegyne#Mifeprex

>  <DrugBank ID>  (1) 
DB00834

>  <ATC Codes>  (1) 
G03XB01#G03XB51

>  <Ligand ID>  (1) 
486

>  <Target Name>  (1) 
Progesterone receptor

>  <UniProt ID>  (1) 
P06401

>  <PDB ID.1>  (1) 
5UC1

>  <Seq. Identity>  (1) 
55%

$$$$
