PDB_DB01263_96
     RDKit          3D

 93 99  0  0  0  0  0  0  0  0999 V2000
    4.0900   22.0030   37.6010 C   0  0  0  0  0  0  0  0  0  0  0  0
    0.5750   21.9990   35.1200 C   0  0  0  0  0  0  0  0  0  0  0  0
    1.6060   19.3450   39.6790 O   0  0  0  0  0  0  0  0  0  0  0  0
   -0.7380   20.9900   36.8950 O   0  0  0  0  0  0  0  0  0  0  0  0
   13.6370   19.3460   51.9230 F   0  0  0  0  0  0  0  0  0  0  0  0
   16.0290   17.3110   55.2880 F   0  0  0  0  0  0  0  0  0  0  0  0
   14.8630   18.3370   53.6110 C   0  0  0  0  0  0  0  0  0  0  0  0
    5.8150   17.7360   50.1450 C   0  0  0  0  0  0  0  0  0  0  0  0
    6.4740   20.0630   49.7920 C   0  0  0  0  0  0  0  0  0  0  0  0
    4.7530   17.8710   49.2740 C   0  0  0  0  0  0  0  0  0  0  0  0
    5.3660   20.1980   48.9250 C   0  0  0  0  0  0  0  0  0  0  0  0
    0.9600   18.9330   43.8590 C   0  0  0  0  0  0  0  0  0  0  0  0
    0.8670   21.2010   44.5150 C   0  0  0  0  0  0  0  0  0  0  0  0
    0.8570   19.3380   42.5120 C   0  0  0  0  0  0  0  0  0  0  0  0
    0.7820   21.5810   43.1760 C   0  0  0  0  0  0  0  0  0  0  0  0
   14.8830   17.7590   54.8750 C   0  0  0  0  0  0  0  0  0  0  0  0
   13.0410   23.4560   54.8050 C   0  0  0  0  0  0  0  0  0  0  0  0
   12.4620   18.8700   53.9860 C   0  0  0  0  0  0  0  0  0  0  0  0
   11.6580   21.8100   55.3530 C   0  0  0  0  0  0  0  0  0  0  0  0
    0.4800   22.4970   40.5580 C   0  0  0  0  0  0  0  0  0  0  0  0
    3.0310   21.0110   37.1540 C   0  0  0  0  0  0  0  0  0  0  0  0
   10.8030   18.5470   52.2770 C   0  0  0  0  0  0  0  0  0  0  0  0
    2.3410   20.0210   48.3670 C   0  0  0  0  0  0  0  0  0  0  0  0
    2.9830   18.0730   47.0960 C   0  0  0  0  0  0  0  0  0  0  0  0
    1.6670   20.6420   47.1640 C   0  0  0  0  0  0  0  0  0  0  0  0
    1.5040   18.1890   46.7140 C   0  0  0  0  0  0  0  0  0  0  0  0
    8.8400   18.7930   51.3080 C   0  0  0  0  0  0  0  0  0  0  0  0
   11.3370   20.9190   52.9790 C   0  0  0  0  0  0  0  0  0  0  0  0
   12.3280   22.8560   55.7650 N   0  0  0  0  0  0  0  0  0  0  0  0
   12.7390   22.8160   53.6370 N   0  0  0  0  0  0  0  0  0  0  0  0
    0.7640   22.7060   39.2380 N   0  0  0  0  0  0  0  0  0  0  0  0
    7.5710   18.4450   51.2870 O   0  0  0  0  0  0  0  0  0  0  0  0
   10.1710   19.3470   54.4230 O   0  0  0  0  0  0  0  0  0  0  0  0
   13.6610   18.8640   53.1560 C   0  0  0  0  0  0  0  0  0  0  0  0
   12.5670   18.2900   55.2920 C   0  0  0  0  0  0  0  0  0  0  0  0
    6.6400   18.8060   50.4020 C   0  0  0  0  0  0  0  0  0  0  0  0
    4.5170   19.1190   48.6890 C   0  0  0  0  0  0  0  0  0  0  0  0
    0.9810   19.8670   44.9140 C   0  0  0  0  0  0  0  0  0  0  0  0
    0.7090   20.6790   42.0970 C   0  0  0  0  0  0  0  0  0  0  0  0
   13.8120   17.7440   55.7090 C   0  0  0  0  0  0  0  0  0  0  0  0
    1.2540   20.5860   39.7600 C   0  0  0  0  0  0  0  0  0  0  0  0
    0.5850   21.0640   36.3240 C   0  0  2  0  0  0  0  0  0  0  0  0
    1.6170   21.5930   37.3150 C   0  0  1  0  0  0  0  0  0  0  0  0
    3.4500   19.3020   47.7760 N   0  0  0  0  0  0  0  0  0  0  0  0
    1.0510   19.5610   46.3440 N   0  0  0  0  0  0  0  0  0  0  0  0
   11.8810   21.8080   53.9880 N   0  0  0  0  0  0  0  0  0  0  0  0
    0.7140   21.1750   40.8450 N   0  0  0  0  0  0  0  0  0  0  0  0
    1.2250   21.4750   38.7400 N   0  0  0  0  0  0  0  0  0  0  0  0
   11.2150   19.4730   53.4290 C   0  0  2  0  0  0  0  0  0  0  0  0
    9.0510   18.5760   53.9370 C   0  0  0  0  0  0  0  0  0  0  0  0
    9.4230   18.0780   52.5440 C   0  0  2  0  0  0  0  0  0  0  0  0
    4.1229   22.0338   38.7001 H   0  0  0  0  0  0  0  0  0  0  0  0
    5.0712   21.6914   37.2134 H   0  0  0  0  0  0  0  0  0  0  0  0
    3.8431   23.0024   37.2134 H   0  0  0  0  0  0  0  0  0  0  0  0
    0.5638   23.0429   35.4665 H   0  0  0  0  0  0  0  0  0  0  0  0
    1.4751   21.8240   34.5123 H   0  0  0  0  0  0  0  0  0  0  0  0
   -0.3211   21.8048   34.5123 H   0  0  0  0  0  0  0  0  0  0  0  0
   -0.6718   20.9937   37.8828 H   0  0  0  0  0  0  0  0  0  0  0  0
   15.7705   18.3759   52.9906 H   0  0  0  0  0  0  0  0  0  0  0  0
    6.0023   16.7693   50.6353 H   0  0  0  0  0  0  0  0  0  0  0  0
    7.1686   20.8951   49.9796 H   0  0  0  0  0  0  0  0  0  0  0  0
    4.1043   17.0129   49.0442 H   0  0  0  0  0  0  0  0  0  0  0  0
    5.1725   21.1625   48.4328 H   0  0  0  0  0  0  0  0  0  0  0  0
    1.0257   17.8600   44.0922 H   0  0  0  0  0  0  0  0  0  0  0  0
    0.8433   21.9831   45.2882 H   0  0  0  0  0  0  0  0  0  0  0  0
    0.8944   18.5596   41.7357 H   0  0  0  0  0  0  0  0  0  0  0  0
    0.7713   22.6569   42.9474 H   0  0  0  0  0  0  0  0  0  0  0  0
   13.7350   24.3000   54.9317 H   0  0  0  0  0  0  0  0  0  0  0  0
   11.0616   21.1031   55.9485 H   0  0  0  0  0  0  0  0  0  0  0  0
    0.1248   23.2576   41.2689 H   0  0  0  0  0  0  0  0  0  0  0  0
    3.1975   20.7617   36.0956 H   0  0  0  0  0  0  0  0  0  0  0  0
    3.1101   20.1118   37.7827 H   0  0  0  0  0  0  0  0  0  0  0  0
   10.8335   19.0976   51.3252 H   0  0  0  0  0  0  0  0  0  0  0  0
   11.4921   17.6925   52.2057 H   0  0  0  0  0  0  0  0  0  0  0  0
    2.6962   20.7933   49.0651 H   0  0  0  0  0  0  0  0  0  0  0  0
    1.6716   19.3798   48.9592 H   0  0  0  0  0  0  0  0  0  0  0  0
    3.1143   17.2152   47.7719 H   0  0  0  0  0  0  0  0  0  0  0  0
    3.5734   17.9326   46.1785 H   0  0  0  0  0  0  0  0  0  0  0  0
    0.8870   21.3419   47.4982 H   0  0  0  0  0  0  0  0  0  0  0  0
    2.4081   21.1892   46.5629 H   0  0  0  0  0  0  0  0  0  0  0  0
    1.3211   17.5267   45.8550 H   0  0  0  0  0  0  0  0  0  0  0  0
    0.9333   17.9101   47.6121 H   0  0  0  0  0  0  0  0  0  0  0  0
    9.3487   18.4596   50.3914 H   0  0  0  0  0  0  0  0  0  0  0  0
    8.9711   19.8840   51.3586 H   0  0  0  0  0  0  0  0  0  0  0  0
   10.3355   21.2809   52.7031 H   0  0  0  0  0  0  0  0  0  0  0  0
   12.0400   20.9304   52.1330 H   0  0  0  0  0  0  0  0  0  0  0  0
   11.6959   18.2674   55.9633 H   0  0  0  0  0  0  0  0  0  0  0  0
   13.9079   17.3067   56.7138 H   0  0  0  0  0  0  0  0  0  0  0  0
    0.8634   20.0396   36.0359 H   0  0  0  0  0  0  0  0  0  0  0  0
    1.6452   22.6581   37.0414 H   0  0  0  0  0  0  0  0  0  0  0  0
    8.8614   17.7229   54.6050 H   0  0  0  0  0  0  0  0  0  0  0  0
    8.1378   19.1884   53.9040 H   0  0  0  0  0  0  0  0  0  0  0  0
    9.1273   17.0205   52.6093 H   0  0  0  0  0  0  0  0  0  0  0  0
  8 10  2  0
  9 11  1  0
 12 14  2  0
 13 15  1  0
  6 16  1  0
  7 16  2  0
  1 21  1  0
 23 25  1  0
 24 26  1  0
 17 29  1  0
 19 29  2  0
 17 30  2  0
 20 31  2  0
 27 32  1  0
  5 34  1  0
  7 34  1  0
 18 34  2  0
 18 35  1  0
  8 36  1  0
  9 36  2  0
 32 36  1  0
 10 37  1  0
 11 37  2  0
 12 38  1  0
 13 38  2  0
 14 39  1  0
 15 39  2  0
 16 40  1  0
 35 40  2  0
  3 41  2  0
  2 42  1  0
  4 42  1  0
 21 43  1  0
 42 43  1  0
 23 44  1  0
 24 44  1  0
 37 44  1  0
 25 45  1  0
 26 45  1  0
 38 45  1  0
 19 46  1  0
 28 46  1  0
 30 46  1  0
 20 47  1  0
 39 47  1  0
 41 47  1  0
 31 48  1  0
 41 48  1  0
 43 48  1  0
 18 49  1  0
 22 49  1  0
 49 28  1  6
 33 49  1  0
 33 50  1  0
 22 51  1  0
 27 51  1  0
 50 51  1  0
  1 52  1  0
  1 53  1  0
  1 54  1  0
  2 55  1  0
  2 56  1  0
  2 57  1  0
  4 58  1  0
  7 59  1  0
  8 60  1  0
  9 61  1  0
 10 62  1  0
 11 63  1  0
 12 64  1  0
 13 65  1  0
 14 66  1  0
 15 67  1  0
 17 68  1  0
 19 69  1  0
 20 70  1  0
 21 71  1  0
 21 72  1  0
 22 73  1  0
 22 74  1  0
 23 75  1  0
 23 76  1  0
 24 77  1  0
 24 78  1  0
 25 79  1  0
 25 80  1  0
 26 81  1  0
 26 82  1  0
 27 83  1  0
 27 84  1  0
 28 85  1  0
 28 86  1  0
 35 87  1  0
 40 88  1  0
 42 89  1  6
 43 90  1  6
 50 91  1  0
 50 92  1  0
 51 93  1  1
M  END
>  <PDBID>  (1) 
5TL8

>  <PDB ID>  (1) 
5TL8

>  <Generic Name>  (1) 
Posaconazole

>  <Brand Name>  (1) 
Noxafil#Posanol

>  <DrugBank ID>  (1) 
DB01263

>  <ATC Codes>  (1) 
J02AC04

>  <Ligand ID>  (1) 
X2N

>  <Target Name>  (1) 
Lanosterol 14-alpha demethylase

>  <UniProt ID>  (1) 
P10613

>  <PDB ID.1>  (1) 
5TL8

>  <Seq. Identity>  (1) 
34%

$$$$
