PDB_DB00188_75
     RDKit          3D

 53 54  0  0  0  0  0  0  0  0999 V2000
   62.6180 -133.2940   35.8870 N   0  0  0  0  0  0  0  0  0  0  0  0
   62.1700 -134.5270   36.1760 C   0  0  0  0  0  0  0  0  0  0  0  0
   62.2780 -135.5510   35.2360 C   0  0  0  0  0  0  0  0  0  0  0  0
   62.8580 -135.2960   33.9890 N   0  0  0  0  0  0  0  0  0  0  0  0
   63.3210 -134.0080   33.6940 C   0  0  0  0  0  0  0  0  0  0  0  0
   63.2000 -133.0040   34.6470 C   0  0  0  0  0  0  0  0  0  0  0  0
   61.6030 -134.7440   37.4270 C   0  0  0  0  0  0  0  0  0  0  0  0
   60.9890 -133.8390   37.9910 O   0  0  0  0  0  0  0  0  0  0  0  0
   61.7840 -135.9700   37.9510 N   0  0  0  0  0  0  0  0  0  0  0  0
   61.2870 -136.3170   39.2860 C   0  0  1  0  0  0  0  0  0  0  0  0
   60.5410 -137.6290   39.2560 C   0  0  0  0  0  0  0  0  0  0  0  0
   59.3420 -137.4010   38.5550 C   0  0  0  0  0  0  0  0  0  0  0  0
   59.1470 -137.9340   37.2780 C   0  0  0  0  0  0  0  0  0  0  0  0
   57.9540 -137.7070   36.5940 C   0  0  0  0  0  0  0  0  0  0  0  0
   56.9420 -136.9500   37.1800 C   0  0  0  0  0  0  0  0  0  0  0  0
   57.1280 -136.4180   38.4520 C   0  0  0  0  0  0  0  0  0  0  0  0
   58.3190 -136.6460   39.1370 C   0  0  0  0  0  0  0  0  0  0  0  0
   62.5260 -136.4420   40.1700 C   0  0  0  0  0  0  0  0  0  0  0  0
   63.5880 -136.8290   39.6860 O   0  0  0  0  0  0  0  0  0  0  0  0
   62.3680 -136.0750   41.4510 N   0  0  0  0  0  0  0  0  0  0  0  0
   63.4900 -136.1200   42.4040 C   0  0  1  0  0  0  0  0  0  0  0  0
   63.6860 -134.7980   43.1160 C   0  0  0  0  0  0  0  0  0  0  0  0
   63.6050 -133.6290   42.1140 C   0  0  0  0  0  0  0  0  0  0  0  0
   63.2270 -132.3560   42.8850 C   0  0  0  0  0  0  0  0  0  0  0  0
   64.9380 -133.4260   41.3740 C   0  0  0  0  0  0  0  0  0  0  0  0
   63.2270 -137.1830   43.4840 B   0  0  0  0  0  0  0  0  0  0  0  0
   62.0000 -136.8790   44.1710 O   0  0  0  0  0  0  0  0  0  0  0  0
   63.1270 -138.4800   42.8880 O   0  0  0  0  0  0  0  0  0  0  0  0
   61.9073 -136.5587   35.4749 H   0  0  0  0  0  0  0  0  0  0  0  0
   63.7766 -133.7927   32.7162 H   0  0  0  0  0  0  0  0  0  0  0  0
   63.5593 -131.9875   34.4286 H   0  0  0  0  0  0  0  0  0  0  0  0
   62.2842 -136.6825   37.4005 H   0  0  0  0  0  0  0  0  0  0  0  0
   60.5874 -135.5554   39.6608 H   0  0  0  0  0  0  0  0  0  0  0  0
   61.1409 -138.3937   38.7409 H   0  0  0  0  0  0  0  0  0  0  0  0
   60.3389 -137.9907   40.2750 H   0  0  0  0  0  0  0  0  0  0  0  0
   59.9396 -138.5362   36.8099 H   0  0  0  0  0  0  0  0  0  0  0  0
   57.8110 -138.1272   35.5875 H   0  0  0  0  0  0  0  0  0  0  0  0
   56.0003 -136.7737   36.6396 H   0  0  0  0  0  0  0  0  0  0  0  0
   56.3333 -135.8164   38.9173 H   0  0  0  0  0  0  0  0  0  0  0  0
   58.4562 -136.2282   40.1453 H   0  0  0  0  0  0  0  0  0  0  0  0
   61.4437 -135.7555   41.7742 H   0  0  0  0  0  0  0  0  0  0  0  0
   64.3889 -136.3577   41.8162 H   0  0  0  0  0  0  0  0  0  0  0  0
   62.9017 -134.6771   43.8777 H   0  0  0  0  0  0  0  0  0  0  0  0
   64.6785 -134.7925   43.5902 H   0  0  0  0  0  0  0  0  0  0  0  0
   62.8431 -133.8586   41.3545 H   0  0  0  0  0  0  0  0  0  0  0  0
   63.2850 -132.5512   43.9660 H   0  0  0  0  0  0  0  0  0  0  0  0
   63.9236 -131.5468   42.6207 H   0  0  0  0  0  0  0  0  0  0  0  0
   62.2016 -132.0581   42.6207 H   0  0  0  0  0  0  0  0  0  0  0  0
   65.7490 -133.3025   42.1068 H   0  0  0  0  0  0  0  0  0  0  0  0
   65.1444 -134.3031   40.7430 H   0  0  0  0  0  0  0  0  0  0  0  0
   64.8739 -132.5273   40.7430 H   0  0  0  0  0  0  0  0  0  0  0  0
   62.1512 -136.9165   45.1487 H   0  0  0  0  0  0  0  0  0  0  0  0
   63.0741 -139.1667   43.5991 H   0  0  0  0  0  0  0  0  0  0  0  0
  1  2  2  0
  2  3  1  0
  3  4  2  0
  4  5  1  0
  1  6  1  0
  5  6  2  0
  2  7  1  0
  7  8  2  0
  7  9  1  0
  9 10  1  0
 10 11  1  0
 11 12  1  0
 12 13  2  0
 13 14  1  0
 14 15  2  0
 15 16  1  0
 12 17  1  0
 16 17  2  0
 10 18  1  0
 18 19  2  0
 18 20  1  0
 20 21  1  0
 21 22  1  0
 22 23  1  0
 23 24  1  0
 23 25  1  0
 21 26  1  0
 26 27  1  0
 26 28  1  0
  3 29  1  0
  5 30  1  0
  6 31  1  0
  9 32  1  0
 10 33  1  1
 11 34  1  0
 11 35  1  0
 13 36  1  0
 14 37  1  0
 15 38  1  0
 16 39  1  0
 17 40  1  0
 20 41  1  0
 21 42  1  6
 22 43  1  0
 22 44  1  0
 23 45  1  0
 24 46  1  0
 24 47  1  0
 24 48  1  0
 25 49  1  0
 25 50  1  0
 25 51  1  0
 27 52  1  0
 28 53  1  0
M  END
$$$$
