PDB_DB00703_95
     RDKit          3D

120120  0  0  0  0  0  0  0  0999 V2000
   33.0390    8.4230   18.1770 N   0  0  0  0  0  0  0  0  0  0  0  0
   33.2790    9.6110   19.2490 S   0  0  2  0  0  4  0  0  0  0  0  0
   32.5000    9.3860   20.4190 O   0  0  0  0  0  0  0  0  0  0  0  0
   32.9320   10.8930   18.7010 O   0  0  0  0  0  0  0  0  0  0  0  0
   34.8930    9.5830   19.6210 C   0  0  0  0  0  0  0  0  0  0  0  0
   35.9970   10.8700   19.1610 S   0  0  0  0  0  0  0  0  0  0  0  0
   37.1820    9.8770   19.9700 C   0  0  0  0  0  0  0  0  0  0  0  0
   36.7490    8.7370   20.4970 N   0  0  0  0  0  0  0  0  0  0  0  0
   37.4500    7.6680   21.2330 C   0  0  0  0  0  0  0  0  0  0  0  0
   35.3790    8.5160   20.3030 N   0  0  0  0  0  0  0  0  0  0  0  0
   38.4970   10.2050   20.0710 N   0  0  0  0  0  0  0  0  0  0  0  0
   38.9350   11.4300   20.3540 C   0  0  0  0  0  0  0  0  0  0  0  0
   38.3300   12.4440   20.0340 O   0  0  0  0  0  0  0  0  0  0  0  0
   40.2470   11.4760   21.0840 C   0  0  0  0  0  0  0  0  0  0  0  0
   30.6910   -9.6400  -22.3000 N   0  0  0  0  0  0  0  0  0  0  0  0
   30.9200  -10.8370  -23.3630 S   0  0  2  0  0  4  0  0  0  0  0  0
   30.1770  -10.5640  -24.5640 O   0  0  0  0  0  0  0  0  0  0  0  0
   30.5090  -12.0700  -22.7820 O   0  0  0  0  0  0  0  0  0  0  0  0
   32.5280  -10.9170  -23.7700 C   0  0  0  0  0  0  0  0  0  0  0  0
   33.4570  -12.3520  -23.4060 S   0  0  0  0  0  0  0  0  0  0  0  0
   34.7600  -11.4810  -24.1500 C   0  0  0  0  0  0  0  0  0  0  0  0
   34.4900  -10.2570  -24.5950 N   0  0  0  0  0  0  0  0  0  0  0  0
   35.3510   -9.2580  -25.2650 C   0  0  0  0  0  0  0  0  0  0  0  0
   33.1520   -9.8800  -24.3840 N   0  0  0  0  0  0  0  0  0  0  0  0
   36.0000  -12.0230  -24.2660 N   0  0  0  0  0  0  0  0  0  0  0  0
   36.3500  -12.7480  -25.3350 C   0  0  0  0  0  0  0  0  0  0  0  0
   35.8180  -13.8210  -25.6020 O   0  0  0  0  0  0  0  0  0  0  0  0
   37.4440  -12.1670  -26.1930 C   0  0  0  0  0  0  0  0  0  0  0  0
    5.2940   16.2380  -18.0720 N   0  0  0  0  0  0  0  0  0  0  0  0
    4.0330   16.3890  -17.0610 S   0  0  2  0  0  4  0  0  0  0  0  0
    4.1170   15.4480  -15.9910 O   0  0  0  0  0  0  0  0  0  0  0  0
    2.8370   16.1340  -17.8140 O   0  0  0  0  0  0  0  0  0  0  0  0
    4.0120   17.9430  -16.4360 C   0  0  0  0  0  0  0  0  0  0  0  0
    2.8840   19.1480  -17.0400 S   0  0  0  0  0  0  0  0  0  0  0  0
    3.6290   20.1990  -15.8670 C   0  0  0  0  0  0  0  0  0  0  0  0
    4.6130   19.6890  -15.1300 N   0  0  0  0  0  0  0  0  0  0  0  0
    5.4450   20.3020  -14.0530 C   0  0  0  0  0  0  0  0  0  0  0  0
    4.8700   18.3350  -15.4510 N   0  0  0  0  0  0  0  0  0  0  0  0
    3.2530   21.4940  -15.7200 N   0  0  0  0  0  0  0  0  0  0  0  0
    2.1070   21.8530  -15.1520 C   0  0  0  0  0  0  0  0  0  0  0  0
    1.0250   21.5870  -15.6490 O   0  0  0  0  0  0  0  0  0  0  0  0
    2.2330   22.6310  -13.8740 C   0  0  0  0  0  0  0  0  0  0  0  0
    5.1430  -16.8680   18.8390 N   0  0  0  0  0  0  0  0  0  0  0  0
    3.7560  -16.9370   18.0060 S   0  0  2  0  0  4  0  0  0  0  0  0
    3.8250  -16.1080   16.8390 O   0  0  0  0  0  0  0  0  0  0  0  0
    2.6720  -16.4670   18.8180 O   0  0  0  0  0  0  0  0  0  0  0  0
    3.4260  -18.5190   17.5830 C   0  0  0  0  0  0  0  0  0  0  0  0
    1.9600  -19.3340   18.1310 S   0  0  0  0  0  0  0  0  0  0  0  0
    2.5610  -20.6890   17.2160 C   0  0  0  0  0  0  0  0  0  0  0  0
    3.7270  -20.5050   16.6010 N   0  0  0  0  0  0  0  0  0  0  0  0
    4.5310  -21.4030   15.7520 C   0  0  0  0  0  0  0  0  0  0  0  0
    4.2740  -19.2190   16.7880 N   0  0  0  0  0  0  0  0  0  0  0  0
    1.9050  -21.8810   17.1420 N   0  0  0  0  0  0  0  0  0  0  0  0
    0.5910  -21.9710   16.8770 C   0  0  0  0  0  0  0  0  0  0  0  0
   -0.2650  -21.6940   17.7030 O   0  0  0  0  0  0  0  0  0  0  0  0
    0.2110  -22.4490   15.5070 C   0  0  0  0  0  0  0  0  0  0  0  0
   32.8607    7.5403   18.6769 H   0  0  0  0  0  0  0  0  0  0  0  0
   32.2274    8.6528   17.5858 H   0  0  0  0  0  0  0  0  0  0  0  0
   33.0564    9.5467   21.2219 H   0  0  0  0  0  0  0  0  0  0  0  0
   32.7593   11.5311   19.4380 H   0  0  0  0  0  0  0  0  0  0  0  0
   35.1024    9.0648   18.6736 H   0  0  0  0  0  0  0  0  0  0  0  0
   36.9699   10.3952   20.9168 H   0  0  0  0  0  0  0  0  0  0  0  0
   37.3405    7.8350   22.3147 H   0  0  0  0  0  0  0  0  0  0  0  0
   37.0151    6.6934   20.9666 H   0  0  0  0  0  0  0  0  0  0  0  0
   38.5172    7.6784   20.9666 H   0  0  0  0  0  0  0  0  0  0  0  0
   34.9029    8.4319   21.2125 H   0  0  0  0  0  0  0  0  0  0  0  0
   38.8828    9.5932   20.8043 H   0  0  0  0  0  0  0  0  0  0  0  0
   39.4816   11.4550   19.3998 H   0  0  0  0  0  0  0  0  0  0  0  0
   38.0417   12.9272   20.8486 H   0  0  0  0  0  0  0  0  0  0  0  0
   40.0636   11.4696   22.1686 H   0  0  0  0  0  0  0  0  0  0  0  0
   40.8506   10.5985   20.8090 H   0  0  0  0  0  0  0  0  0  0  0  0
   40.7876   12.3937   20.8090 H   0  0  0  0  0  0  0  0  0  0  0  0
   30.7623  -10.0128  -21.3425 H   0  0  0  0  0  0  0  0  0  0  0  0
   31.4084   -8.9144  -22.4402 H   0  0  0  0  0  0  0  0  0  0  0  0
   29.2750  -10.2326  -24.3259 H   0  0  0  0  0  0  0  0  0  0  0  0
   30.5342  -11.9944  -21.7952 H   0  0  0  0  0  0  0  0  0  0  0  0
   32.7969  -10.4945  -22.7906 H   0  0  0  0  0  0  0  0  0  0  0  0
   34.4803  -11.8984  -25.1285 H   0  0  0  0  0  0  0  0  0  0  0  0
   35.8711   -8.6546  -24.5065 H   0  0  0  0  0  0  0  0  0  0  0  0
   36.0914   -9.7746  -25.8934 H   0  0  0  0  0  0  0  0  0  0  0  0
   34.7308   -8.6019  -25.8934 H   0  0  0  0  0  0  0  0  0  0  0  0
   32.6966   -9.6798  -25.2859 H   0  0  0  0  0  0  0  0  0  0  0  0
   36.6656  -11.2385  -24.2167 H   0  0  0  0  0  0  0  0  0  0  0  0
   37.1055  -13.2727  -24.7318 H   0  0  0  0  0  0  0  0  0  0  0  0
   35.5847  -14.2915  -24.7628 H   0  0  0  0  0  0  0  0  0  0  0  0
   38.2317  -11.7486  -25.5492 H   0  0  0  0  0  0  0  0  0  0  0  0
   37.8707  -12.9573  -26.8281 H   0  0  0  0  0  0  0  0  0  0  0  0
   37.0282  -11.3709  -26.8281 H   0  0  0  0  0  0  0  0  0  0  0  0
    6.1612   16.1342  -17.5261 H   0  0  0  0  0  0  0  0  0  0  0  0
    5.1605   15.4070  -18.6657 H   0  0  0  0  0  0  0  0  0  0  0  0
    4.0742   15.9274  -15.1259 H   0  0  0  0  0  0  0  0  0  0  0  0
    2.0835   15.9734  -17.1922 H   0  0  0  0  0  0  0  0  0  0  0  0
    4.7498   18.2560  -17.1894 H   0  0  0  0  0  0  0  0  0  0  0  0
    2.8965   19.8761  -15.1125 H   0  0  0  0  0  0  0  0  0  0  0  0
    5.0469   20.0087  -13.0704 H   0  0  0  0  0  0  0  0  0  0  0  0
    6.4834   19.9514  -14.1475 H   0  0  0  0  0  0  0  0  0  0  0  0
    5.4179   21.3976  -14.1475 H   0  0  0  0  0  0  0  0  0  0  0  0
    4.7283   17.7490  -14.6159 H   0  0  0  0  0  0  0  0  0  0  0  0
    3.9969   21.9450  -15.1686 H   0  0  0  0  0  0  0  0  0  0  0  0
    2.1289   22.8021  -15.7077 H   0  0  0  0  0  0  0  0  0  0  0  0
    0.3631   21.4243  -14.9310 H   0  0  0  0  0  0  0  0  0  0  0  0
    2.1226   21.9496  -13.0175 H   0  0  0  0  0  0  0  0  0  0  0  0
    3.2209   23.1131  -13.8341 H   0  0  0  0  0  0  0  0  0  0  0  0
    1.4477   23.4003  -13.8341 H   0  0  0  0  0  0  0  0  0  0  0  0
    4.9382  -16.8782   19.8484 H   0  0  0  0  0  0  0  0  0  0  0  0
    5.7283  -17.6809   18.5992 H   0  0  0  0  0  0  0  0  0  0  0  0
    3.9039  -15.1597   17.1121 H   0  0  0  0  0  0  0  0  0  0  0  0
    2.9075  -16.5691   19.7741 H   0  0  0  0  0  0  0  0  0  0  0  0
    3.9565  -18.8697   18.4806 H   0  0  0  0  0  0  0  0  0  0  0  0
    2.0325  -20.3211   16.3241 H   0  0  0  0  0  0  0  0  0  0  0  0
    5.1293  -22.0713   16.3887 H   0  0  0  0  0  0  0  0  0  0  0  0
    3.8626  -22.0030   15.1169 H   0  0  0  0  0  0  0  0  0  0  0  0
    5.2009  -20.8048   15.1169 H   0  0  0  0  0  0  0  0  0  0  0  0
    4.3736  -18.7451   15.8790 H   0  0  0  0  0  0  0  0  0  0  0  0
    2.3818  -22.4238   16.4078 H   0  0  0  0  0  0  0  0  0  0  0  0
    0.5917  -23.0137   17.2274 H   0  0  0  0  0  0  0  0  0  0  0  0
    0.1043  -21.8135   18.6137 H   0  0  0  0  0  0  0  0  0  0  0  0
   -0.4714  -23.3073   15.5943 H   0  0  0  0  0  0  0  0  0  0  0  0
   -0.2902  -21.6362   14.9610 H   0  0  0  0  0  0  0  0  0  0  0  0
    1.1159  -22.7540   14.9610 H   0  0  0  0  0  0  0  0  0  0  0  0
  1  2  1  0
  2  3  1  1
  2  4  1  0
  2  5  1  0
  5  6  1  0
  6  7  1  0
  7  8  1  0
  8  9  1  0
  5 10  1  0
  8 10  1  0
  7 11  1  0
 11 12  1  0
 12 13  1  0
 12 14  1  0
 15 16  1  0
 16 17  1  6
 16 18  1  0
 16 19  1  0
 19 20  1  0
 20 21  1  0
 21 22  1  0
 22 23  1  0
 19 24  1  0
 22 24  1  0
 21 25  1  0
 25 26  1  0
 26 27  1  0
 26 28  1  0
 29 30  1  0
 30 31  1  1
 30 32  1  0
 30 33  1  0
 33 34  1  0
 34 35  1  0
 35 36  1  0
 36 37  1  0
 33 38  1  0
 36 38  1  0
 35 39  1  0
 39 40  1  0
 40 41  1  0
 40 42  1  0
 43 44  1  0
 44 45  1  6
 44 46  1  0
 44 47  1  0
 47 48  1  0
 48 49  1  0
 49 50  1  0
 50 51  1  0
 47 52  1  0
 50 52  1  0
 49 53  1  0
 53 54  1  0
 54 55  1  0
 54 56  1  0
  1 57  1  0
  1 58  1  0
  3 59  1  0
  4 60  1  0
  5 61  1  0
  7 62  1  0
  9 63  1  0
  9 64  1  0
  9 65  1  0
 10 66  1  0
 11 67  1  0
 12 68  1  0
 13 69  1  0
 14 70  1  0
 14 71  1  0
 14 72  1  0
 15 73  1  0
 15 74  1  0
 17 75  1  0
 18 76  1  0
 19 77  1  0
 21 78  1  0
 23 79  1  0
 23 80  1  0
 23 81  1  0
 24 82  1  0
 25 83  1  0
 26 84  1  0
 27 85  1  0
 28 86  1  0
 28 87  1  0
 28 88  1  0
 29 89  1  0
 29 90  1  0
 31 91  1  0
 32 92  1  0
 33 93  1  0
 35 94  1  0
 37 95  1  0
 37 96  1  0
 37 97  1  0
 38 98  1  0
 39 99  1  0
 40100  1  0
 41101  1  0
 42102  1  0
 42103  1  0
 42104  1  0
 43105  1  0
 43106  1  0
 45107  1  0
 46108  1  0
 47109  1  0
 49110  1  0
 51111  1  0
 51112  1  0
 51113  1  0
 52114  1  0
 53115  1  0
 54116  1  0
 55117  1  0
 56118  1  0
 56119  1  0
 56120  1  0
M  END
>  <PDBID>  (1) 
5KU6

>  <PDB ID>  (1) 
5KU6

>  <Generic Name>  (1) 
Methazolamide

>  <Brand Name>  (1) 
Methazolamide#Neptazane#Neptazane Tablets 25mg#Neptazane Tablets 25mg USP#Neptazane Tablets 50mg#Naptazane

>  <DrugBank ID>  (1) 
DB00703

>  <ATC Codes>  (1) 
S01EC05

>  <Ligand ID>  (1) 
MZM

>  <Target Name>  (1) 
Carbonic anhydrase 4

>  <UniProt ID>  (1) 
P22748

>  <PDB ID.1>  (1) 
5KU6

>  <Seq. Identity>  (1) 
100%

$$$$
