PDB_DB08865_97
     RDKit          3D

 52 55  0  0  0  0  0  0  0  0999 V2000
   33.2070   46.1070    6.4440 Cl  0  0  0  0  0  0  0  0  0  0  0  0
   33.6970   45.8390    8.0910 C   0  0  0  0  0  0  0  0  0  0  0  0
   34.5300   46.8340    8.6780 C   0  0  0  0  0  0  0  0  0  0  0  0
   34.9870   46.7120   10.0140 C   0  0  0  0  0  0  0  0  0  0  0  0
   34.6210   45.5890   10.8030 C   0  0  0  0  0  0  0  0  0  0  0  0
   35.0760   45.5080   12.0650 F   0  0  0  0  0  0  0  0  0  0  0  0
   33.2980   44.6720    8.8630 C   0  0  0  0  0  0  0  0  0  0  0  0
   33.7800   44.5630   10.2490 C   0  0  0  0  0  0  0  0  0  0  0  0
   33.3790   43.2190   11.2970 Cl  0  0  0  0  0  0  0  0  0  0  0  0
   32.3850   43.5800    8.2020 C   0  0  1  0  0  0  0  0  0  0  0  0
   33.1000   42.2190    8.1980 C   0  0  0  0  0  0  0  0  0  0  0  0
   31.0970   43.3550    8.8780 O   0  0  0  0  0  0  0  0  0  0  0  0
   30.0750   44.2980    9.0310 C   0  0  0  0  0  0  0  0  0  0  0  0
   29.9670   45.5330    8.3040 C   0  0  0  0  0  0  0  0  0  0  0  0
   29.0210   44.0250    9.9640 C   0  0  0  0  0  0  0  0  0  0  0  0
   29.0600   42.8270   10.7070 N   0  0  0  0  0  0  0  0  0  0  0  0
   27.9640   44.8480   10.1840 N   0  0  0  0  0  0  0  0  0  0  0  0
   27.8920   46.0120    9.4790 C   0  0  0  0  0  0  0  0  0  0  0  0
   28.8710   46.4160    8.5180 C   0  0  0  0  0  0  0  0  0  0  0  0
   28.7630   47.7180    7.7450 C   0  0  0  0  0  0  0  0  0  0  0  0
   29.8280   48.4300    7.0310 C   0  0  0  0  0  0  0  0  0  0  0  0
   27.6270   48.4950    7.5570 C   0  0  0  0  0  0  0  0  0  0  0  0
   28.0760   49.5740    6.7720 N   0  0  0  0  0  0  0  0  0  0  0  0
   29.3340   49.4940    6.4990 N   0  0  0  0  0  0  0  0  0  0  0  0
   27.2350   50.6960    6.2910 C   0  0  0  0  0  0  0  0  0  0  0  0
   26.8940   51.6490    7.4550 C   0  0  0  0  0  0  0  0  0  0  0  0
   26.0170   52.8090    6.9290 C   0  0  0  0  0  0  0  0  0  0  0  0
   24.7880   52.3200    6.2390 N   0  0  0  0  0  0  0  0  0  0  0  0
   25.0880   51.3610    5.1380 C   0  0  0  0  0  0  0  0  0  0  0  0
   25.9410   50.1670    5.6240 C   0  0  0  0  0  0  0  0  0  0  0  0
   34.8237   47.7122    8.0843 H   0  0  0  0  0  0  0  0  0  0  0  0
   35.6307   47.4937   10.4436 H   0  0  0  0  0  0  0  0  0  0  0  0
   32.1877   43.9732    7.1938 H   0  0  0  0  0  0  0  0  0  0  0  0
   33.2718   41.8920    9.2341 H   0  0  0  0  0  0  0  0  0  0  0  0
   32.4748   41.4779    7.6785 H   0  0  0  0  0  0  0  0  0  0  0  0
   34.0650   42.3133    7.6785 H   0  0  0  0  0  0  0  0  0  0  0  0
   30.7428   45.8000    7.5713 H   0  0  0  0  0  0  0  0  0  0  0  0
   28.3112   42.6148   11.3816 H   0  0  0  0  0  0  0  0  0  0  0  0
   29.8373   42.1642   10.5750 H   0  0  0  0  0  0  0  0  0  0  0  0
   27.0343   46.6769    9.6589 H   0  0  0  0  0  0  0  0  0  0  0  0
   30.8775   48.1079    6.9612 H   0  0  0  0  0  0  0  0  0  0  0  0
   26.6106   48.3099    7.9346 H   0  0  0  0  0  0  0  0  0  0  0  0
   27.8051   51.2561    5.5352 H   0  0  0  0  0  0  0  0  0  0  0  0
   26.3451   51.0972    8.2323 H   0  0  0  0  0  0  0  0  0  0  0  0
   27.8230   52.0550    7.8817 H   0  0  0  0  0  0  0  0  0  0  0  0
   25.7184   53.4405    7.7788 H   0  0  0  0  0  0  0  0  0  0  0  0
   26.6114   53.3760    6.1974 H   0  0  0  0  0  0  0  0  0  0  0  0
   24.1870   51.8497    6.9308 H   0  0  0  0  0  0  0  0  0  0  0  0
   24.1397   50.9780    4.7329 H   0  0  0  0  0  0  0  0  0  0  0  0
   25.6628   51.8973    4.3686 H   0  0  0  0  0  0  0  0  0  0  0  0
   26.2041   49.5308    4.7661 H   0  0  0  0  0  0  0  0  0  0  0  0
   25.3661   49.5780    6.3538 H   0  0  0  0  0  0  0  0  0  0  0  0
  1  2  1  0
  2  3  2  0
  3  4  1  0
  4  5  2  0
  5  6  1  0
  2  7  1  0
  5  8  1  0
  7  8  2  0
  8  9  1  0
  7 10  1  0
 10 11  1  0
 10 12  1  0
 12 13  1  0
 13 14  2  0
 13 15  1  0
 15 16  1  0
 15 17  2  0
 17 18  1  0
 14 19  1  0
 18 19  2  0
 19 20  1  0
 20 21  1  0
 20 22  2  0
 22 23  1  0
 21 24  2  0
 23 24  1  0
 23 25  1  0
 25 26  1  0
 26 27  1  0
 27 28  1  0
 28 29  1  0
 25 30  1  0
 29 30  1  0
  3 31  1  0
  4 32  1  0
 10 33  1  6
 11 34  1  0
 11 35  1  0
 11 36  1  0
 14 37  1  0
 16 38  1  0
 16 39  1  0
 18 40  1  0
 21 41  1  0
 22 42  1  0
 25 43  1  0
 26 44  1  0
 26 45  1  0
 27 46  1  0
 27 47  1  0
 28 48  1  0
 29 49  1  0
 29 50  1  0
 30 51  1  0
 30 52  1  0
M  END
>  <PDBID>  (1) 
2YFX

>  <PDB ID>  (1) 
2YFX

>  <Generic Name>  (1) 
Crizotinib

>  <Brand Name>  (1) 
Xalkori

>  <DrugBank ID>  (1) 
DB08865

>  <ATC Codes>  (1) 
L01XE16

>  <Ligand ID>  (1) 
VGH

>  <Target Name>  (1) 
ALK tyrosine kinase receptor

>  <UniProt ID>  (1) 
Q9UM73

>  <PDB ID.1>  (1) 
2YFX

>  <Seq. Identity>  (1) 
99%

$$$$
