PDB_DB01092_99
     RDKit          3D

178188  0  0  0  0  0  0  0  0999 V2000
  -26.3960  -19.0990   74.6690 C   0  0  2  0  0  0  0  0  0  0  0  0
  -27.9050  -19.3420   74.7150 C   0  0  0  0  0  0  0  0  0  0  0  0
  -28.2100  -20.3120   75.8420 C   0  0  1  0  0  0  0  0  0  0  0  0
  -27.4620  -21.6100   75.5740 C   0  0  0  0  0  0  0  0  0  0  0  0
  -25.9510  -21.4110   75.4250 C   0  0  1  0  0  0  0  0  0  0  0  0
  -25.2690  -22.7470   75.1730 C   0  0  0  0  0  0  0  0  0  0  0  0
  -25.6680  -23.2930   73.8150 C   0  0  0  0  0  0  0  0  0  0  0  0
  -25.3310  -22.2780   72.7220 C   0  0  2  0  0  0  0  0  0  0  0  0
  -25.9980  -20.9160   72.9380 C   0  0  1  0  0  0  0  0  0  0  0  0
  -25.6290  -20.3770   74.3270 C   0  0  1  0  0  0  0  0  0  0  0  0
  -25.5570  -20.0460   71.7540 C   0  0  1  0  0  0  0  0  0  0  0  0
  -26.2620  -20.5630   70.5080 C   0  0  0  0  0  0  0  0  0  0  0  0
  -25.8260  -21.9770   70.1400 C   0  0  1  0  0  0  0  0  0  0  0  0
  -25.5500  -22.9070   71.3430 C   0  0  2  0  0  0  0  0  0  0  0  0
  -26.6650  -23.9430   71.4350 C   0  0  0  0  0  0  0  0  0  0  0  0
  -27.4940  -23.8500   70.1760 C   0  0  0  0  0  0  0  0  0  0  0  0
  -27.0150  -22.6260   69.4230 C   0  0  2  0  0  0  0  0  0  0  0  0
  -24.5910  -21.8050   69.2530 C   0  0  0  0  0  0  0  0  0  0  0  0
  -24.1160  -20.1600   74.2110 C   0  0  0  0  0  0  0  0  0  0  0  0
  -26.7240  -23.1300   68.0570 C   0  0  1  0  0  0  0  0  0  0  0  0
  -25.7380  -24.2390   67.7120 C   0  0  0  0  0  0  0  0  0  0  0  0
  -27.4020  -22.6550   67.0260 C   0  0  0  0  0  0  0  0  0  0  0  0
  -26.9570  -23.4640   65.9010 C   0  0  0  0  0  0  0  0  0  0  0  0
  -28.2980  -20.0190   78.2670 C   0  0  2  0  0  0  0  0  0  0  0  0
  -27.5660  -19.1450   79.2690 C   0  0  1  0  0  0  0  0  0  0  0  0
  -27.7650  -17.6720   78.9010 C   0  0  1  0  0  0  0  0  0  0  0  0
  -29.2460  -17.3190   78.7390 C   0  0  2  0  0  0  0  0  0  0  0  0
  -29.9450  -18.3320   77.8330 C   0  0  2  0  0  0  0  0  0  0  0  0
  -31.4490  -18.1250   77.8010 C   0  0  0  0  0  0  0  0  0  0  0  0
  -25.9480  -18.6020   75.9400 O   0  0  0  0  0  0  0  0  0  0  0  0
  -27.6830  -19.7160   77.0210 O   0  0  0  0  0  0  0  0  0  0  0  0
  -25.4270  -20.9290   76.6630 O   0  0  0  0  0  0  0  0  0  0  0  0
  -25.8020  -18.6360   71.8960 O   0  0  0  0  0  0  0  0  0  0  0  0
  -24.3510  -23.6210   71.0630 O   0  0  0  0  0  0  0  0  0  0  0  0
  -23.7360  -18.8000   73.9650 O   0  0  0  0  0  0  0  0  0  0  0  0
  -26.0670  -24.5070   66.3520 O   0  0  0  0  0  0  0  0  0  0  0  0
  -27.2790  -23.3000   64.7480 O   0  0  0  0  0  0  0  0  0  0  0  0
  -28.0640  -19.4390   80.5760 O   0  0  0  0  0  0  0  0  0  0  0  0
  -27.1660  -16.8330   79.8910 O   0  0  0  0  0  0  0  0  0  0  0  0
  -29.3650  -16.0060   78.1770 O   0  0  0  0  0  0  0  0  0  0  0  0
  -29.6880  -19.6740   78.2670 O   0  0  0  0  0  0  0  0  0  0  0  0
  -58.2560  -83.3480   47.0710 C   0  0  2  0  0  0  0  0  0  0  0  0
  -58.9350  -81.9770   47.0410 C   0  0  0  0  0  0  0  0  0  0  0  0
  -58.2990  -81.1610   45.9280 C   0  0  1  0  0  0  0  0  0  0  0  0
  -56.8060  -81.0010   46.1890 C   0  0  0  0  0  0  0  0  0  0  0  0
  -56.0770  -82.3300   46.4050 C   0  0  1  0  0  0  0  0  0  0  0  0
  -54.6190  -82.0620   46.7500 C   0  0  0  0  0  0  0  0  0  0  0  0
  -54.5250  -81.4190   48.1210 C   0  0  0  0  0  0  0  0  0  0  0  0
  -55.2260  -82.2890   49.1670 C   0  0  2  0  0  0  0  0  0  0  0  0
  -56.7030  -82.5390   48.8570 C   0  0  1  0  0  0  0  0  0  0  0  0
  -56.7880  -83.1870   47.4710 C   0  0  1  0  0  0  0  0  0  0  0  0
  -57.2830  -83.3630   50.0160 C   0  0  1  0  0  0  0  0  0  0  0  0
  -57.3520  -82.4590   51.2240 C   0  0  0  0  0  0  0  0  0  0  0  0
  -55.9660  -82.0310   51.6780 C   0  0  1  0  0  0  0  0  0  0  0  0
  -54.9410  -81.7390   50.5610 C   0  0  2  0  0  0  0  0  0  0  0  0
  -54.7150  -80.2300   50.4630 C   0  0  0  0  0  0  0  0  0  0  0  0
  -55.3170  -79.5930   51.6920 C   0  0  0  0  0  0  0  0  0  0  0  0
  -56.1660  -80.6680   52.3470 C   0  0  2  0  0  0  0  0  0  0  0  0
  -55.4930  -83.1500   52.6150 C   0  0  0  0  0  0  0  0  0  0  0  0
  -56.0150  -84.4990   47.6400 C   0  0  0  0  0  0  0  0  0  0  0  0
  -55.8070  -80.6520   53.7850 C   0  0  0  0  0  0  0  0  0  0  0  0
  -54.4030  -80.8040   54.3530 C   0  0  0  0  0  0  0  0  0  0  0  0
  -56.7590  -80.4680   54.6860 C   0  0  0  0  0  0  0  0  0  0  0  0
  -56.1110  -80.7480   55.9570 C   0  0  0  0  0  0  0  0  0  0  0  0
  -58.5500  -81.3600   43.4850 C   0  0  2  0  0  0  0  0  0  0  0  0
  -58.7620  -82.5610   42.5710 C   0  0  1  0  0  0  0  0  0  0  0  0
  -60.1320  -83.1970   42.8480 C   0  0  1  0  0  0  0  0  0  0  0  0
  -61.2780  -82.1760   42.9140 C   0  0  2  0  0  0  0  0  0  0  0  0
  -60.9120  -80.9410   43.7420 C   0  0  2  0  0  0  0  0  0  0  0  0
  -61.9400  -79.8290   43.6030 C   0  0  0  0  0  0  0  0  0  0  0  0
  -58.3690  -84.0230   45.8040 O   0  0  0  0  0  0  0  0  0  0  0  0
  -58.4660  -81.9660   44.7710 O   0  0  0  0  0  0  0  0  0  0  0  0
  -56.0510  -83.0780   45.1880 O   0  0  0  0  0  0  0  0  0  0  0  0
  -58.5990  -83.8930   49.8200 O   0  0  0  0  0  0  0  0  0  0  0  0
  -53.7040  -82.3280   50.9580 O   0  0  0  0  0  0  0  0  0  0  0  0
  -56.8290  -85.6400   47.9270 O   0  0  0  0  0  0  0  0  0  0  0  0
  -54.7030  -81.0220   55.7310 O   0  0  0  0  0  0  0  0  0  0  0  0
  -56.6720  -80.7490   57.0400 O   0  0  0  0  0  0  0  0  0  0  0  0
  -58.5660  -82.1980   41.1970 O   0  0  0  0  0  0  0  0  0  0  0  0
  -60.4080  -84.2050   41.8700 O   0  0  0  0  0  0  0  0  0  0  0  0
  -62.4380  -82.7950   43.4840 O   0  0  0  0  0  0  0  0  0  0  0  0
  -59.6310  -80.4210   43.3670 O   0  0  0  0  0  0  0  0  0  0  0  0
  -26.1981  -18.3586   73.8799 H   0  0  0  0  0  0  0  0  0  0  0  0
  -28.4274  -18.3907   74.8944 H   0  0  0  0  0  0  0  0  0  0  0  0
  -28.2452  -19.7628   73.7573 H   0  0  0  0  0  0  0  0  0  0  0  0
  -29.2864  -20.5198   75.9328 H   0  0  0  0  0  0  0  0  0  0  0  0
  -27.6437  -22.2986   76.4123 H   0  0  0  0  0  0  0  0  0  0  0  0
  -27.8358  -22.0141   74.6216 H   0  0  0  0  0  0  0  0  0  0  0  0
  -24.1781  -22.6090   75.2025 H   0  0  0  0  0  0  0  0  0  0  0  0
  -25.5794  -23.4600   75.9510 H   0  0  0  0  0  0  0  0  0  0  0  0
  -25.1218  -24.2285   73.6240 H   0  0  0  0  0  0  0  0  0  0  0  0
  -26.7512  -23.4845   73.8075 H   0  0  0  0  0  0  0  0  0  0  0  0
  -24.2611  -22.0297   72.7819 H   0  0  0  0  0  0  0  0  0  0  0  0
  -27.0975  -20.9493   72.9470 H   0  0  0  0  0  0  0  0  0  0  0  0
  -24.4622  -20.1335   71.6922 H   0  0  0  0  0  0  0  0  0  0  0  0
  -27.3468  -20.5636   70.6901 H   0  0  0  0  0  0  0  0  0  0  0  0
  -25.9950  -19.9005   69.6714 H   0  0  0  0  0  0  0  0  0  0  0  0
  -26.2321  -24.9504   71.5233 H   0  0  0  0  0  0  0  0  0  0  0  0
  -27.2909  -23.7530   72.3194 H   0  0  0  0  0  0  0  0  0  0  0  0
  -27.3517  -24.7515   69.5620 H   0  0  0  0  0  0  0  0  0  0  0  0
  -28.5649  -23.7713   70.4147 H   0  0  0  0  0  0  0  0  0  0  0  0
  -27.7525  -21.8114   69.3725 H   0  0  0  0  0  0  0  0  0  0  0  0
  -23.6997  -21.6809   69.8855 H   0  0  0  0  0  0  0  0  0  0  0  0
  -24.4689  -22.6948   68.6179 H   0  0  0  0  0  0  0  0  0  0  0  0
  -24.7167  -20.9157   68.6179 H   0  0  0  0  0  0  0  0  0  0  0  0
  -23.6475  -20.4846   75.1519 H   0  0  0  0  0  0  0  0  0  0  0  0
  -23.7777  -20.7453   73.3433 H   0  0  0  0  0  0  0  0  0  0  0  0
  -25.9219  -22.3845   67.9528 H   0  0  0  0  0  0  0  0  0  0  0  0
  -24.6977  -23.8959   67.8125 H   0  0  0  0  0  0  0  0  0  0  0  0
  -25.8078  -25.1182   68.3693 H   0  0  0  0  0  0  0  0  0  0  0  0
  -28.4844  -22.7699   67.1849 H   0  0  0  0  0  0  0  0  0  0  0  0
  -27.2277  -21.5806   66.8667 H   0  0  0  0  0  0  0  0  0  0  0  0
  -26.0976  -22.7925   65.7580 H   0  0  0  0  0  0  0  0  0  0  0  0
  -28.2397  -21.0941   78.4925 H   0  0  0  0  0  0  0  0  0  0  0  0
  -26.4850  -19.3480   79.2533 H   0  0  0  0  0  0  0  0  0  0  0  0
  -27.2746  -17.5027   77.9310 H   0  0  0  0  0  0  0  0  0  0  0  0
  -29.7263  -17.3446   79.7283 H   0  0  0  0  0  0  0  0  0  0  0  0
  -29.5367  -18.1740   76.8239 H   0  0  0  0  0  0  0  0  0  0  0  0
  -31.8338  -18.0720   78.8301 H   0  0  0  0  0  0  0  0  0  0  0  0
  -31.6789  -17.1867   77.2748 H   0  0  0  0  0  0  0  0  0  0  0  0
  -31.9238  -18.9663   77.2748 H   0  0  0  0  0  0  0  0  0  0  0  0
  -26.3981  -19.1013   76.6668 H   0  0  0  0  0  0  0  0  0  0  0  0
  -25.9014  -21.3654   77.4144 H   0  0  0  0  0  0  0  0  0  0  0  0
  -25.8424  -18.4033   72.8574 H   0  0  0  0  0  0  0  0  0  0  0  0
  -23.9152  -23.8805   71.9132 H   0  0  0  0  0  0  0  0  0  0  0  0
  -23.6054  -18.3326   74.8279 H   0  0  0  0  0  0  0  0  0  0  0  0
  -28.1606  -22.8510   64.7122 H   0  0  0  0  0  0  0  0  0  0  0  0
  -27.4440  -19.0729   81.2554 H   0  0  0  0  0  0  0  0  0  0  0  0
  -27.4034  -17.1655   80.7928 H   0  0  0  0  0  0  0  0  0  0  0  0
  -29.4254  -15.3392   78.9062 H   0  0  0  0  0  0  0  0  0  0  0  0
  -58.7682  -83.9717   47.8184 H   0  0  0  0  0  0  0  0  0  0  0  0
  -60.0110  -82.0977   46.8470 H   0  0  0  0  0  0  0  0  0  0  0  0
  -58.8090  -81.4674   48.0077 H   0  0  0  0  0  0  0  0  0  0  0  0
  -58.7437  -80.1588   45.8392 H   0  0  0  0  0  0  0  0  0  0  0  0
  -56.3541  -80.4927   45.3245 H   0  0  0  0  0  0  0  0  0  0  0  0
  -56.7006  -80.4200   47.1171 H   0  0  0  0  0  0  0  0  0  0  0  0
  -54.0640  -83.0117   46.7533 H   0  0  0  0  0  0  0  0  0  0  0  0
  -54.1873  -81.3829   46.0000 H   0  0  0  0  0  0  0  0  0  0  0  0
  -53.4661  -81.3042   48.3957 H   0  0  0  0  0  0  0  0  0  0  0  0
  -55.0156  -80.4350   48.0882 H   0  0  0  0  0  0  0  0  0  0  0  0
  -54.8013  -83.3030   49.1302 H   0  0  0  0  0  0  0  0  0  0  0  0
  -57.3136  -81.6261   48.7964 H   0  0  0  0  0  0  0  0  0  0  0  0
  -56.6164  -84.2318   50.1202 H   0  0  0  0  0  0  0  0  0  0  0  0
  -57.9368  -81.5633   50.9675 H   0  0  0  0  0  0  0  0  0  0  0  0
  -57.8282  -83.0150   52.0450 H   0  0  0  0  0  0  0  0  0  0  0  0
  -53.6371  -80.0150   50.4198 H   0  0  0  0  0  0  0  0  0  0  0  0
  -55.1850  -79.8292   49.5528 H   0  0  0  0  0  0  0  0  0  0  0  0
  -54.5238  -79.2614   52.3782 H   0  0  0  0  0  0  0  0  0  0  0  0
  -55.9164  -78.7074   51.4344 H   0  0  0  0  0  0  0  0  0  0  0  0
  -57.2417  -80.4704   52.2293 H   0  0  0  0  0  0  0  0  0  0  0  0
  -55.6266  -82.8340   53.6601 H   0  0  0  0  0  0  0  0  0  0  0  0
  -56.0839  -84.0588   52.4283 H   0  0  0  0  0  0  0  0  0  0  0  0
  -54.4294  -83.3594   52.4283 H   0  0  0  0  0  0  0  0  0  0  0  0
  -55.4660  -84.6957   46.7073 H   0  0  0  0  0  0  0  0  0  0  0  0
  -55.3557  -84.3612   48.5097 H   0  0  0  0  0  0  0  0  0  0  0  0
  -55.9438  -81.7425   53.8313 H   0  0  0  0  0  0  0  0  0  0  0  0
  -53.8767  -81.6629   53.9110 H   0  0  0  0  0  0  0  0  0  0  0  0
  -53.7347  -79.9523   54.1582 H   0  0  0  0  0  0  0  0  0  0  0  0
  -57.1280  -79.4321   54.6568 H   0  0  0  0  0  0  0  0  0  0  0  0
  -57.6337  -81.1113   54.5100 H   0  0  0  0  0  0  0  0  0  0  0  0
  -56.3384  -81.8176   55.8373 H   0  0  0  0  0  0  0  0  0  0  0  0
  -57.6587  -80.7604   43.2482 H   0  0  0  0  0  0  0  0  0  0  0  0
  -58.0060  -83.3298   42.7889 H   0  0  0  0  0  0  0  0  0  0  0  0
  -60.0752  -83.6531   43.8474 H   0  0  0  0  0  0  0  0  0  0  0  0
  -61.4796  -81.8428   41.8852 H   0  0  0  0  0  0  0  0  0  0  0  0
  -60.8877  -81.2779   44.7888 H   0  0  0  0  0  0  0  0  0  0  0  0
  -62.2522  -79.4913   44.6022 H   0  0  0  0  0  0  0  0  0  0  0  0
  -61.4962  -78.9860   43.0531 H   0  0  0  0  0  0  0  0  0  0  0  0
  -62.8152  -80.2054   43.0531 H   0  0  0  0  0  0  0  0  0  0  0  0
  -58.5305  -84.9876   45.9573 H   0  0  0  0  0  0  0  0  0  0  0  0
  -56.0174  -84.0453   45.3959 H   0  0  0  0  0  0  0  0  0  0  0  0
  -59.0207  -84.0628   50.6994 H   0  0  0  0  0  0  0  0  0  0  0  0
  -53.6524  -82.3526   51.9463 H   0  0  0  0  0  0  0  0  0  0  0  0
  -56.9080  -85.7508   48.9076 H   0  0  0  0  0  0  0  0  0  0  0  0
  -55.9950  -80.7478   57.7623 H   0  0  0  0  0  0  0  0  0  0  0  0
  -58.0962  -81.3279   41.1493 H   0  0  0  0  0  0  0  0  0  0  0  0
  -60.6401  -85.0525   42.3260 H   0  0  0  0  0  0  0  0  0  0  0  0
  -62.3776  -82.7628   44.4716 H   0  0  0  0  0  0  0  0  0  0  0  0
  1  2  1  0
  2  3  1  0
  3  4  1  0
  4  5  1  0
  5  6  1  0
  6  7  1  0
  7  8  1  0
  8  9  1  0
  1 10  1  0
  5 10  1  0
  9 10  1  0
  9 11  1  0
 11 12  1  0
 12 13  1  0
  8 14  1  0
 13 14  1  0
 14 15  1  0
 15 16  1  0
 13 17  1  0
 16 17  1  0
 13 18  1  6
 10 19  1  6
 17 20  1  0
 20 21  1  0
 20 22  1  0
 22 23  1  0
 24 25  1  0
 25 26  1  0
 26 27  1  0
 27 28  1  0
 28 29  1  0
  1 30  1  0
  3 31  1  0
 24 31  1  0
  5 32  1  1
 11 33  1  0
 14 34  1  6
 19 35  1  0
 21 36  1  0
 23 36  1  0
 23 37  1  0
 25 38  1  0
 26 39  1  0
 27 40  1  0
 24 41  1  0
 28 41  1  0
 42 43  1  0
 43 44  1  0
 44 45  1  0
 45 46  1  0
 46 47  1  0
 47 48  1  0
 48 49  1  0
 49 50  1  0
 42 51  1  0
 46 51  1  0
 50 51  1  0
 50 52  1  0
 52 53  1  0
 53 54  1  0
 49 55  1  0
 54 55  1  0
 55 56  1  0
 56 57  1  0
 54 58  1  0
 57 58  1  0
 54 59  1  1
 51 60  1  1
 58 61  1  0
 61 62  1  0
 61 63  1  0
 63 64  1  0
 65 66  1  0
 66 67  1  0
 67 68  1  0
 68 69  1  0
 69 70  1  0
 42 71  1  0
 44 72  1  0
 65 72  1  0
 46 73  1  6
 52 74  1  0
 55 75  1  1
 60 76  1  0
 62 77  1  0
 64 77  1  0
 64 78  1  0
 66 79  1  0
 67 80  1  0
 68 81  1  0
 65 82  1  0
 69 82  1  0
  1 83  1  6
  2 84  1  0
  2 85  1  0
  3 86  1  1
  4 87  1  0
  4 88  1  0
  6 89  1  0
  6 90  1  0
  7 91  1  0
  7 92  1  0
  8 93  1  6
  9 94  1  1
 11 95  1  6
 12 96  1  0
 12 97  1  0
 15 98  1  0
 15 99  1  0
 16100  1  0
 16101  1  0
 17102  1  6
 18103  1  0
 18104  1  0
 18105  1  0
 19106  1  0
 19107  1  0
 20108  1  6
 21109  1  0
 21110  1  0
 22111  1  0
 22112  1  0
 23113  1  0
 24114  1  1
 25115  1  1
 26116  1  6
 27117  1  1
 28118  1  6
 29119  1  0
 29120  1  0
 29121  1  0
 30122  1  0
 32123  1  0
 33124  1  0
 34125  1  0
 35126  1  0
 37127  1  0
 38128  1  0
 39129  1  0
 40130  1  0
 42131  1  1
 43132  1  0
 43133  1  0
 44134  1  6
 45135  1  0
 45136  1  0
 47137  1  0
 47138  1  0
 48139  1  0
 48140  1  0
 49141  1  1
 50142  1  6
 52143  1  1
 53144  1  0
 53145  1  0
 56146  1  0
 56147  1  0
 57148  1  0
 57149  1  0
 58150  1  1
 59151  1  0
 59152  1  0
 59153  1  0
 60154  1  0
 60155  1  0
 61156  1  0
 62157  1  0
 62158  1  0
 63159  1  0
 63160  1  0
 64161  1  0
 65162  1  6
 66163  1  1
 67164  1  1
 68165  1  6
 69166  1  1
 70167  1  0
 70168  1  0
 70169  1  0
 71170  1  0
 73171  1  0
 74172  1  0
 75173  1  0
 76174  1  0
 78175  1  0
 79176  1  0
 80177  1  0
 81178  1  0
M  END
>  <PDBID>  (1) 
3N23

>  <PDB ID>  (1) 
3N23

>  <Generic Name>  (1) 
Ouabain

>  <Brand Name>  (1) 
Strodival

>  <DrugBank ID>  (1) 
DB01092

>  <ATC Codes>  (1) 
C01AC01

>  <Ligand ID>  (1) 
OBN

>  <Target Name>  (1) 
Sodium/potassium-transporting ATPase subunit alpha-1

>  <UniProt ID>  (1) 
P05023

>  <PDB ID.1>  (1) 
3N23

>  <Seq. Identity>  (1) 
95%

$$$$
