PDB_DB00284_98
     RDKit          3D

178184  0  0  0  0  0  0  0  0999 V2000
  -31.7350   30.9460   28.4860 C   0  0  2  0  0  0  0  0  0  0  0  0
  -32.9890   30.1310   28.2740 C   0  0  1  0  0  0  0  0  0  0  0  0
  -34.0510   30.6360   29.2270 C   0  0  2  0  0  0  0  0  0  0  0  0
  -33.6540   30.3090   30.6080 C   0  0  1  0  0  0  0  0  0  0  0  0
  -32.3340   30.9090   30.9190 C   0  0  1  0  0  0  0  0  0  0  0  0
  -31.8000   30.7390   32.3070 C   0  0  0  0  0  0  0  0  0  0  0  0
  -31.4060   31.0970   29.9270 C   0  0  0  0  0  0  0  0  0  0  0  0
  -33.4330   30.2690   26.9760 O   0  0  0  0  0  0  0  0  0  0  0  0
  -35.2640   30.0540   28.9480 O   0  0  0  0  0  0  0  0  0  0  0  0
  -34.6280   30.8420   31.4130 O   0  0  0  0  0  0  0  0  0  0  0  0
  -31.1800   29.5030   32.3800 O   0  0  0  0  0  0  0  0  0  0  0  0
  -28.7190   35.0470   27.7220 C   0  0  2  0  0  0  0  0  0  0  0  0
  -28.4590   33.6640   27.2200 C   0  0  1  0  0  0  0  0  0  0  0  0
  -29.7740   33.0190   26.8540 C   0  0  2  0  0  0  0  0  0  0  0  0
  -30.6250   33.0020   28.0600 C   0  0  1  0  0  0  0  0  0  0  0  0
  -30.8410   34.4230   28.4330 C   0  0  1  0  0  0  0  0  0  0  0  0
  -31.7620   34.4740   29.5930 C   0  0  0  0  0  0  0  0  0  0  0  0
  -31.8710   32.2800   27.8580 N   0  0  0  0  0  0  0  0  0  0  0  0
  -27.7010   33.6890   26.0860 O   0  0  0  0  0  0  0  0  0  0  0  0
  -29.5080   31.6890   26.2740 O   0  0  0  0  0  0  0  0  0  0  0  0
  -29.6280   35.0210   28.7990 O   0  0  0  0  0  0  0  0  0  0  0  0
  -27.9330   38.7630   24.1780 C   0  0  2  0  0  0  0  0  0  0  0  0
  -28.1270   37.3950   23.5890 C   0  0  1  0  0  0  0  0  0  0  0  0
  -28.4530   36.2560   24.5410 C   0  0  2  0  0  0  0  0  0  0  0  0
  -28.3730   36.5950   25.9970 C   0  0  1  0  0  0  0  0  0  0  0  0
  -28.7680   38.0020   26.2470 C   0  0  1  0  0  0  0  0  0  0  0  0
  -28.5050   38.3310   27.6750 C   0  0  0  0  0  0  0  0  0  0  0  0
  -29.0970   37.4320   22.6070 O   0  0  0  0  0  0  0  0  0  0  0  0
  -27.5870   35.2440   24.2290 O   0  0  0  0  0  0  0  0  0  0  0  0
  -29.2930   35.7620   26.6570 O   0  0  0  0  0  0  0  0  0  0  0  0
  -28.0180   38.9170   25.5500 O   0  0  0  0  0  0  0  0  0  0  0  0
  -29.7220   38.3810   28.3170 O   0  0  0  0  0  0  0  0  0  0  0  0
  -32.7620   40.6780   22.9170 C   0  0  1  0  0  0  0  0  0  0  0  0
  -32.1070   40.6470   24.3160 C   0  0  1  0  0  0  0  0  0  0  0  0
  -30.5970   40.4870   24.5500 C   0  0  2  0  0  0  0  0  0  0  0  0
  -30.0390   39.6830   23.4660 C   0  0  1  0  0  0  0  0  0  0  0  0
  -30.4880   40.3720   22.1540 C   0  0  1  0  0  0  0  0  0  0  0  0
  -29.8990   39.6010   20.8910 C   0  0  0  0  0  0  0  0  0  0  0  0
  -33.6430   41.7430   22.8240 O   0  0  0  0  0  0  0  0  0  0  0  0
  -32.5170   41.8960   25.0290 O   0  0  0  0  0  0  0  0  0  0  0  0
  -30.3400   39.9620   25.7990 O   0  0  0  0  0  0  0  0  0  0  0  0
  -28.6530   39.7670   23.5040 O   0  0  0  0  0  0  0  0  0  0  0  0
  -31.8560   40.7060   21.8570 O   0  0  0  0  0  0  0  0  0  0  0  0
  -28.9470   40.4200   20.2680 O   0  0  0  0  0  0  0  0  0  0  0  0
  -51.5590    4.7950  -64.5580 C   0  0  2  0  0  0  0  0  0  0  0  0
  -50.2990    4.3360  -63.8490 C   0  0  1  0  0  0  0  0  0  0  0  0
  -49.1160    4.2620  -64.8120 C   0  0  2  0  0  0  0  0  0  0  0  0
  -49.3260    3.2140  -65.8610 C   0  0  1  0  0  0  0  0  0  0  0  0
  -50.7130    3.3020  -66.3690 C   0  0  2  0  0  0  0  0  0  0  0  0
  -51.1570    2.3580  -67.4560 C   0  0  0  0  0  0  0  0  0  0  0  0
  -51.5090    4.3630  -65.9860 C   0  0  0  0  0  0  0  0  0  0  0  0
  -49.9920    5.2130  -62.8400 O   0  0  0  0  0  0  0  0  0  0  0  0
  -47.9570    4.0520  -64.0980 O   0  0  0  0  0  0  0  0  0  0  0  0
  -48.4710    3.3940  -66.9310 O   0  0  0  0  0  0  0  0  0  0  0  0
  -51.7390    1.2390  -66.8740 O   0  0  0  0  0  0  0  0  0  0  0  0
  -55.2190    8.3600  -65.5580 C   0  0  2  0  0  0  0  0  0  0  0  0
  -55.4170    7.2490  -64.5790 C   0  0  1  0  0  0  0  0  0  0  0  0
  -54.0810    6.9790  -63.9110 C   0  0  2  0  0  0  0  0  0  0  0  0
  -53.0910    6.6160  -64.9500 C   0  0  1  0  0  0  0  0  0  0  0  0
  -53.0310    7.7510  -65.9140 C   0  0  1  0  0  0  0  0  0  0  0  0
  -52.0760    7.4430  -67.0110 C   0  0  0  0  0  0  0  0  0  0  0  0
  -51.7800    6.2630  -64.4060 N   0  0  0  0  0  0  0  0  0  0  0  0
  -56.4050    7.5770  -63.6770 O   0  0  0  0  0  0  0  0  0  0  0  0
  -54.2340    5.9280  -62.8890 O   0  0  0  0  0  0  0  0  0  0  0  0
  -54.2760    7.9660  -66.5140 O   0  0  0  0  0  0  0  0  0  0  0  0
  -55.9880   13.3150  -64.4360 C   0  0  2  0  0  0  0  0  0  0  0  0
  -56.6740   12.3600  -63.5220 C   0  0  1  0  0  0  0  0  0  0  0  0
  -55.9110   11.0450  -63.4840 C   0  0  2  0  0  0  0  0  0  0  0  0
  -55.6470   10.5580  -64.8810 C   0  0  1  0  0  0  0  0  0  0  0  0
  -55.0630   11.6700  -65.6700 C   0  0  1  0  0  0  0  0  0  0  0  0
  -54.9390   11.2390  -67.0840 C   0  0  0  0  0  0  0  0  0  0  0  0
  -56.7680   12.9230  -62.2620 O   0  0  0  0  0  0  0  0  0  0  0  0
  -56.6090   10.1180  -62.7560 O   0  0  0  0  0  0  0  0  0  0  0  0
  -54.7270    9.4840  -64.8710 O   0  0  0  0  0  0  0  0  0  0  0  0
  -55.9070   12.7640  -65.6830 O   0  0  0  0  0  0  0  0  0  0  0  0
  -55.4790   12.2790  -67.8060 O   0  0  0  0  0  0  0  0  0  0  0  0
  -52.2690   16.8580  -63.5030 C   0  0  1  0  0  0  0  0  0  0  0  0
  -53.5650   16.7780  -62.6670 C   0  0  1  0  0  0  0  0  0  0  0  0
  -54.5060   15.5580  -62.7390 C   0  0  2  0  0  0  0  0  0  0  0  0
  -54.5220   14.9610  -64.0810 C   0  0  1  0  0  0  0  0  0  0  0  0
  -53.2500   15.2660  -64.9010 C   0  0  1  0  0  0  0  0  0  0  0  0
  -53.5730   14.9380  -66.4220 C   0  0  0  0  0  0  0  0  0  0  0  0
  -51.3190   15.9930  -62.9930 O   0  0  0  0  0  0  0  0  0  0  0  0
  -53.2590   17.0840  -61.2220 O   0  0  0  0  0  0  0  0  0  0  0  0
  -55.7960   15.9330  -62.4290 O   0  0  0  0  0  0  0  0  0  0  0  0
  -54.6960   13.5810  -63.9790 O   0  0  0  0  0  0  0  0  0  0  0  0
  -52.5570   16.5270  -64.8220 O   0  0  0  0  0  0  0  0  0  0  0  0
  -52.3560   14.5920  -67.0200 O   0  0  0  0  0  0  0  0  0  0  0  0
  -30.9086   30.3998   28.0078 H   0  0  0  0  0  0  0  0  0  0  0  0
  -32.7777   29.0679   28.4613 H   0  0  0  0  0  0  0  0  0  0  0  0
  -34.1491   31.7254   29.1108 H   0  0  0  0  0  0  0  0  0  0  0  0
  -33.5583   29.2235   30.7581 H   0  0  0  0  0  0  0  0  0  0  0  0
  -32.7212   31.9385   30.9347 H   0  0  0  0  0  0  0  0  0  0  0  0
  -31.0730   31.5346   32.5270 H   0  0  0  0  0  0  0  0  0  0  0  0
  -32.6176   30.7996   33.0404 H   0  0  0  0  0  0  0  0  0  0  0  0
  -30.5928   30.3849   30.1307 H   0  0  0  0  0  0  0  0  0  0  0  0
  -31.2124   32.1772   30.0017 H   0  0  0  0  0  0  0  0  0  0  0  0
  -34.3784   30.5628   26.9801 H   0  0  0  0  0  0  0  0  0  0  0  0
  -35.7262   29.8322   29.7949 H   0  0  0  0  0  0  0  0  0  0  0  0
  -34.3817   30.7072   32.3624 H   0  0  0  0  0  0  0  0  0  0  0  0
  -31.0543   29.2524   33.3295 H   0  0  0  0  0  0  0  0  0  0  0  0
  -27.7846   35.5096   28.0724 H   0  0  0  0  0  0  0  0  0  0  0  0
  -27.9338   33.1095   28.0116 H   0  0  0  0  0  0  0  0  0  0  0  0
  -30.3229   33.5807   26.0838 H   0  0  0  0  0  0  0  0  0  0  0  0
  -30.1315   32.4550   28.8768 H   0  0  0  0  0  0  0  0  0  0  0  0
  -31.2643   34.9613   27.5721 H   0  0  0  0  0  0  0  0  0  0  0  0
  -31.1794   34.4417   30.5255 H   0  0  0  0  0  0  0  0  0  0  0  0
  -32.3455   35.4058   29.5573 H   0  0  0  0  0  0  0  0  0  0  0  0
  -32.4448   33.6123   29.5573 H   0  0  0  0  0  0  0  0  0  0  0  0
  -32.0542   32.1745   26.8499 H   0  0  0  0  0  0  0  0  0  0  0  0
  -26.7422   33.7206   26.3306 H   0  0  0  0  0  0  0  0  0  0  0  0
  -29.3765   31.0316   27.0025 H   0  0  0  0  0  0  0  0  0  0  0  0
  -26.8568   38.8949   23.9928 H   0  0  0  0  0  0  0  0  0  0  0  0
  -27.1267   37.1561   23.1988 H   0  0  0  0  0  0  0  0  0  0  0  0
  -29.5086   35.9794   24.4026 H   0  0  0  0  0  0  0  0  0  0  0  0
  -27.3408   36.4573   26.3513 H   0  0  0  0  0  0  0  0  0  0  0  0
  -29.8237   38.0678   25.9451 H   0  0  0  0  0  0  0  0  0  0  0  0
  -27.8719   37.5546   28.1293 H   0  0  0  0  0  0  0  0  0  0  0  0
  -27.9805   39.2940   27.7614 H   0  0  0  0  0  0  0  0  0  0  0  0
  -29.9921   37.4661   23.0285 H   0  0  0  0  0  0  0  0  0  0  0  0
  -27.2397   34.8381   25.0625 H   0  0  0  0  0  0  0  0  0  0  0  0
  -29.5788   38.3751   29.2966 H   0  0  0  0  0  0  0  0  0  0  0  0
  -33.3040   39.7257   22.8200 H   0  0  0  0  0  0  0  0  0  0  0  0
  -32.4757   39.6744   24.6739 H   0  0  0  0  0  0  0  0  0  0  0  0
  -30.1043   41.4704   24.5367 H   0  0  0  0  0  0  0  0  0  0  0  0
  -30.3625   38.6345   23.5432 H   0  0  0  0  0  0  0  0  0  0  0  0
  -30.0728   41.3672   22.3712 H   0  0  0  0  0  0  0  0  0  0  0  0
  -29.4242   38.6641   21.2177 H   0  0  0  0  0  0  0  0  0  0  0  0
  -30.7089   39.3643   20.1853 H   0  0  0  0  0  0  0  0  0  0  0  0
  -33.8928   42.0450   23.7331 H   0  0  0  0  0  0  0  0  0  0  0  0
  -32.4687   41.7488   26.0068 H   0  0  0  0  0  0  0  0  0  0  0  0
  -30.6502   40.5957   26.4935 H   0  0  0  0  0  0  0  0  0  0  0  0
  -28.4084   40.8833   20.9575 H   0  0  0  0  0  0  0  0  0  0  0  0
  -52.4308    4.3181  -64.0864 H   0  0  0  0  0  0  0  0  0  0  0  0
  -50.4876    3.3317  -63.4417 H   0  0  0  0  0  0  0  0  0  0  0  0
  -49.0286    5.2196  -65.3463 H   0  0  0  0  0  0  0  0  0  0  0  0
  -49.1297    2.2342  -65.4012 H   0  0  0  0  0  0  0  0  0  0  0  0
  -51.2107    2.6807  -65.6099 H   0  0  0  0  0  0  0  0  0  0  0  0
  -51.8906    2.8604  -68.1037 H   0  0  0  0  0  0  0  0  0  0  0  0
  -50.2899    2.0536  -68.0606 H   0  0  0  0  0  0  0  0  0  0  0  0
  -52.5388    4.1044  -66.2734 H   0  0  0  0  0  0  0  0  0  0  0  0
  -51.0370    5.2205  -66.4878 H   0  0  0  0  0  0  0  0  0  0  0  0
  -50.1450    4.7759  -61.9650 H   0  0  0  0  0  0  0  0  0  0  0  0
  -48.1554    4.0880  -63.1288 H   0  0  0  0  0  0  0  0  0  0  0  0
  -47.5593    3.5859  -66.5962 H   0  0  0  0  0  0  0  0  0  0  0  0
  -51.6968    1.3201  -65.8882 H   0  0  0  0  0  0  0  0  0  0  0  0
  -56.1723    8.6016  -66.0508 H   0  0  0  0  0  0  0  0  0  0  0  0
  -55.7546    6.3305  -65.0813 H   0  0  0  0  0  0  0  0  0  0  0  0
  -53.7175    7.8791  -63.3936 H   0  0  0  0  0  0  0  0  0  0  0  0
  -53.4125    5.6973  -65.4625 H   0  0  0  0  0  0  0  0  0  0  0  0
  -52.7169    8.6397  -65.3470 H   0  0  0  0  0  0  0  0  0  0  0  0
  -51.1122    7.1322  -66.5816 H   0  0  0  0  0  0  0  0  0  0  0  0
  -52.4803    6.6297  -67.6315 H   0  0  0  0  0  0  0  0  0  0  0  0
  -51.9289    8.3393  -67.6315 H   0  0  0  0  0  0  0  0  0  0  0  0
  -51.7431    6.5145  -63.4079 H   0  0  0  0  0  0  0  0  0  0  0  0
  -56.0616    7.4630  -62.7555 H   0  0  0  0  0  0  0  0  0  0  0  0
  -54.1750    6.3331  -61.9876 H   0  0  0  0  0  0  0  0  0  0  0  0
  -56.5631   14.2522  -64.4667 H   0  0  0  0  0  0  0  0  0  0  0  0
  -57.6901   12.1514  -63.8880 H   0  0  0  0  0  0  0  0  0  0  0  0
  -54.9398   11.2032  -62.9922 H   0  0  0  0  0  0  0  0  0  0  0  0
  -56.5944   10.2152  -65.3225 H   0  0  0  0  0  0  0  0  0  0  0  0
  -54.0951   11.9312  -65.2173 H   0  0  0  0  0  0  0  0  0  0  0  0
  -53.8836   11.0847  -67.3530 H   0  0  0  0  0  0  0  0  0  0  0  0
  -55.4488   10.2838  -67.2781 H   0  0  0  0  0  0  0  0  0  0  0  0
  -56.6504   12.2187  -61.5763 H   0  0  0  0  0  0  0  0  0  0  0  0
  -56.4788   10.2910  -61.7900 H   0  0  0  0  0  0  0  0  0  0  0  0
  -55.8341   12.9629  -67.1844 H   0  0  0  0  0  0  0  0  0  0  0  0
  -51.8677   17.8813  -63.4599 H   0  0  0  0  0  0  0  0  0  0  0  0
  -54.1729   17.5327  -63.1876 H   0  0  0  0  0  0  0  0  0  0  0  0
  -54.1276   14.8196  -62.0168 H   0  0  0  0  0  0  0  0  0  0  0  0
  -55.3641   15.4182  -64.6213 H   0  0  0  0  0  0  0  0  0  0  0  0
  -52.5093   14.6272  -64.3977 H   0  0  0  0  0  0  0  0  0  0  0  0
  -54.2811   14.0988  -66.4879 H   0  0  0  0  0  0  0  0  0  0  0  0
  -54.0335   15.8004  -66.9262 H   0  0  0  0  0  0  0  0  0  0  0  0
  -51.3468   16.0183  -62.0037 H   0  0  0  0  0  0  0  0  0  0  0  0
  -53.8243   16.5187  -60.6381 H   0  0  0  0  0  0  0  0  0  0  0  0
  -55.9032   15.9642  -61.4453 H   0  0  0  0  0  0  0  0  0  0  0  0
  -51.6854   14.4013  -66.3171 H   0  0  0  0  0  0  0  0  0  0  0  0
  1  2  1  0
  2  3  1  0
  3  4  1  0
  4  5  1  0
  5  6  1  0
  1  7  1  0
  5  7  1  0
  2  8  1  0
  3  9  1  0
  4 10  1  0
  6 11  1  0
 12 13  1  0
 13 14  1  0
 14 15  1  0
 15 16  1  0
 16 17  1  0
  1 18  1  0
 15 18  1  0
 13 19  1  0
 14 20  1  0
 12 21  1  0
 16 21  1  0
 22 23  1  0
 23 24  1  0
 24 25  1  0
 25 26  1  0
 26 27  1  0
 23 28  1  0
 24 29  1  0
 12 30  1  0
 25 30  1  0
 22 31  1  0
 26 31  1  0
 27 32  1  0
 33 34  1  0
 34 35  1  0
 35 36  1  0
 36 37  1  0
 37 38  1  0
 33 39  1  0
 34 40  1  0
 35 41  1  0
 22 42  1  0
 36 42  1  0
 33 43  1  0
 37 43  1  0
 38 44  1  0
 45 46  1  0
 46 47  1  0
 47 48  1  0
 48 49  1  0
 49 50  1  0
 45 51  1  0
 49 51  1  0
 46 52  1  0
 47 53  1  0
 48 54  1  0
 50 55  1  0
 56 57  1  0
 57 58  1  0
 58 59  1  0
 59 60  1  0
 60 61  1  0
 45 62  1  0
 59 62  1  0
 57 63  1  0
 58 64  1  0
 56 65  1  0
 60 65  1  0
 66 67  1  0
 67 68  1  0
 68 69  1  0
 69 70  1  0
 70 71  1  0
 67 72  1  0
 68 73  1  0
 56 74  1  0
 69 74  1  0
 66 75  1  0
 70 75  1  0
 71 76  1  0
 77 78  1  0
 78 79  1  0
 79 80  1  0
 80 81  1  0
 81 82  1  0
 77 83  1  0
 78 84  1  0
 79 85  1  0
 66 86  1  0
 80 86  1  0
 77 87  1  0
 81 87  1  0
 82 88  1  0
  1 89  1  6
  2 90  1  1
  3 91  1  1
  4 92  1  6
  5 93  1  1
  6 94  1  0
  6 95  1  0
  7 96  1  0
  7 97  1  0
  8 98  1  0
  9 99  1  0
 10100  1  0
 11101  1  0
 12102  1  1
 13103  1  1
 14104  1  6
 15105  1  1
 16106  1  6
 17107  1  0
 17108  1  0
 17109  1  0
 18110  1  0
 19111  1  0
 20112  1  0
 22113  1  6
 23114  1  6
 24115  1  6
 25116  1  1
 26117  1  6
 27118  1  0
 27119  1  0
 28120  1  0
 29121  1  0
 32122  1  0
 33123  1  6
 34124  1  1
 35125  1  1
 36126  1  6
 37127  1  1
 38128  1  0
 38129  1  0
 39130  1  0
 40131  1  0
 41132  1  0
 44133  1  0
 45134  1  1
 46135  1  1
 47136  1  6
 48137  1  1
 49138  1  1
 50139  1  0
 50140  1  0
 51141  1  0
 51142  1  0
 52143  1  0
 53144  1  0
 54145  1  0
 55146  1  0
 56147  1  6
 57148  1  6
 58149  1  1
 59150  1  6
 60151  1  1
 61152  1  0
 61153  1  0
 61154  1  0
 62155  1  0
 63156  1  0
 64157  1  0
 66158  1  6
 67159  1  6
 68160  1  1
 69161  1  6
 70162  1  1
 71163  1  0
 71164  1  0
 72165  1  0
 73166  1  0
 76167  1  0
 77168  1  6
 78169  1  6
 79170  1  1
 80171  1  6
 81172  1  1
 82173  1  0
 82174  1  0
 83175  1  0
 84176  1  0
 85177  1  0
 88178  1  0
M  END
>  <PDBID>  (1) 
3TOP

>  <PDB ID>  (1) 
3TOP

>  <Generic Name>  (1) 
Acarbose

>  <Brand Name>  (1) 
Acarbose#Glucobay#Precose#Prandase

>  <DrugBank ID>  (1) 
DB00284

>  <ATC Codes>  (1) 
A10BF01#A10BD17

>  <Ligand ID>  (1) 
ACR,QPS

>  <Target Name>  (1) 
Maltase-glucoamylase, intestinal

>  <UniProt ID>  (1) 
O43451

>  <PDB ID.1>  (1) 
3TOP

>  <Seq. Identity>  (1) 
97%

$$$$
