PDB_DB02546_98
     RDKit          3D

 39 39  0  0  0  0  0  0  0  0999 V2000
   44.0540   -3.4540  -37.5880 O   0  0  0  0  0  0  0  0  0  0  0  0
   41.8170   -2.5100  -36.4020 O   0  0  0  0  0  0  0  0  0  0  0  0
   43.9490   -2.1680  -37.0260 N   0  0  0  0  0  0  0  0  0  0  0  0
   42.8050   -1.7680  -36.4420 C   0  0  0  0  0  0  0  0  0  0  0  0
   42.7800   -0.3760  -35.8640 C   0  0  0  0  0  0  0  0  0  0  0  0
   41.8350    0.5490  -36.6510 C   0  0  0  0  0  0  0  0  0  0  0  0
   42.0300    1.9680  -36.0820 C   0  0  0  0  0  0  0  0  0  0  0  0
   40.8570    2.8880  -36.4480 C   0  0  0  0  0  0  0  0  0  0  0  0
   41.1620    4.3150  -35.9460 C   0  0  0  0  0  0  0  0  0  0  0  0
   39.9370    5.2070  -36.1460 C   0  0  0  0  0  0  0  0  0  0  0  0
   38.9140    4.9770  -35.0470 C   0  0  0  0  0  0  0  0  0  0  0  0
   37.8980    4.3740  -35.3280 O   0  0  0  0  0  0  0  0  0  0  0  0
   39.1480    5.4650  -33.7960 N   0  0  0  0  0  0  0  0  0  0  0  0
   38.3250    5.3940  -32.6410 C   0  0  0  0  0  0  0  0  0  0  0  0
   38.8850    5.7550  -31.4080 C   0  0  0  0  0  0  0  0  0  0  0  0
   38.1150    5.7580  -30.2390 C   0  0  0  0  0  0  0  0  0  0  0  0
   36.7570    5.4480  -30.3030 C   0  0  0  0  0  0  0  0  0  0  0  0
   36.1770    5.1300  -31.5330 C   0  0  0  0  0  0  0  0  0  0  0  0
   36.9610    5.0720  -32.6830 C   0  0  0  0  0  0  0  0  0  0  0  0
   44.1090   -4.1270  -36.8640 H   0  0  0  0  0  0  0  0  0  0  0  0
   44.7549   -1.5276  -37.0621 H   0  0  0  0  0  0  0  0  0  0  0  0
   42.4387   -0.4295  -34.8197 H   0  0  0  0  0  0  0  0  0  0  0  0
   43.7967    0.0395  -35.9251 H   0  0  0  0  0  0  0  0  0  0  0  0
   42.0907    0.5309  -37.7207 H   0  0  0  0  0  0  0  0  0  0  0  0
   40.7890    0.2231  -36.5523 H   0  0  0  0  0  0  0  0  0  0  0  0
   42.1072    1.9061  -34.9865 H   0  0  0  0  0  0  0  0  0  0  0  0
   42.9480    2.3905  -36.5165 H   0  0  0  0  0  0  0  0  0  0  0  0
   40.7257    2.9014  -37.5401 H   0  0  0  0  0  0  0  0  0  0  0  0
   39.9339    2.5181  -35.9779 H   0  0  0  0  0  0  0  0  0  0  0  0
   41.4170    4.2792  -34.8766 H   0  0  0  0  0  0  0  0  0  0  0  0
   42.0083    4.7272  -36.5152 H   0  0  0  0  0  0  0  0  0  0  0  0
   40.2522    6.2607  -36.1298 H   0  0  0  0  0  0  0  0  0  0  0  0
   39.4756    4.9589  -37.1132 H   0  0  0  0  0  0  0  0  0  0  0  0
   40.0464    5.9530  -33.6711 H   0  0  0  0  0  0  0  0  0  0  0  0
   39.9462    6.0404  -31.3581 H   0  0  0  0  0  0  0  0  0  0  0  0
   38.5798    6.0041  -29.2729 H   0  0  0  0  0  0  0  0  0  0  0  0
   36.1453    5.4539  -29.3888 H   0  0  0  0  0  0  0  0  0  0  0  0
   35.0980    4.9247  -31.5939 H   0  0  0  0  0  0  0  0  0  0  0  0
   36.5039    4.7696  -33.6367 H   0  0  0  0  0  0  0  0  0  0  0  0
  1  3  1  0
  3  4  1  0
  4  2  2  0
  4  5  1  0
  5  6  1  0
  6  7  1  0
  7  8  1  0
  8  9  1  0
  9 10  1  0
 10 11  1  0
 11 12  2  0
 11 13  1  0
 13 14  1  0
 14 15  2  0
 15 16  1  0
 16 17  2  0
 17 18  1  0
 14 19  1  0
 18 19  2  0
  1 20  1  0
  3 21  1  0
  5 22  1  0
  5 23  1  0
  6 24  1  0
  6 25  1  0
  7 26  1  0
  7 27  1  0
  8 28  1  0
  8 29  1  0
  9 30  1  0
  9 31  1  0
 10 32  1  0
 10 33  1  0
 13 34  1  0
 15 35  1  0
 16 36  1  0
 17 37  1  0
 18 38  1  0
 19 39  1  0
M  END
$$$$
