PDB_DB00537_98
     RDKit          3D

 42 45  0  0  0  0  0  0  0  0999 V2000
  -13.4850   37.9600   71.9600 O   0  0  0  0  0  0  0  0  0  0  0  0
  -13.0190   36.5740   72.0250 C   0  0  0  0  0  0  0  0  0  0  0  0
  -12.8450   36.0450   73.1380 O   0  0  0  0  0  0  0  0  0  0  0  0
  -12.7590   35.8440   70.7120 C   0  0  0  0  0  0  0  0  0  0  0  0
  -12.3230   34.5200   70.6670 C   0  0  0  0  0  0  0  0  0  0  0  0
  -12.0960   33.8890   69.4970 N   0  0  0  0  0  0  0  0  0  0  0  0
  -12.2890   34.5090   68.3120 C   0  0  0  0  0  0  0  0  0  0  0  0
  -12.0630   33.8780   67.0760 C   0  0  0  0  0  0  0  0  0  0  0  0
  -12.3030   34.5970   65.8890 C   0  0  0  0  0  0  0  0  0  0  0  0
  -12.0580   34.0170   64.6240 N   0  0  0  0  0  0  0  0  0  0  0  0
  -12.3890   32.6290   64.3110 C   0  0  0  0  0  0  0  0  0  0  0  0
  -12.8860   32.5580   62.8570 C   0  0  0  0  0  0  0  0  0  0  0  0
  -12.1010   33.3310   61.9050 N   0  0  0  0  0  0  0  0  0  0  0  0
  -10.9860   34.0960   62.4190 C   0  0  0  0  0  0  0  0  0  0  0  0
  -11.4130   34.8940   63.6420 C   0  0  0  0  0  0  0  0  0  0  0  0
  -12.7360   35.9420   65.9420 C   0  0  0  0  0  0  0  0  0  0  0  0
  -12.9900   36.7020   64.8460 F   0  0  0  0  0  0  0  0  0  0  0  0
  -12.9480   36.5510   67.1660 C   0  0  0  0  0  0  0  0  0  0  0  0
  -12.7210   35.8310   68.3240 C   0  0  0  0  0  0  0  0  0  0  0  0
  -12.9490   36.4830   69.5000 C   0  0  0  0  0  0  0  0  0  0  0  0
  -13.3820   37.7610   69.3640 O   0  0  0  0  0  0  0  0  0  0  0  0
  -11.6290   32.5050   69.5640 C   0  0  0  0  0  0  0  0  0  0  0  0
  -11.4230   32.1630   71.0420 C   0  0  0  0  0  0  0  0  0  0  0  0
  -12.6740   31.6940   70.3090 C   0  0  0  0  0  0  0  0  0  0  0  0
  -13.6277   38.3936   71.0815 H   0  0  0  0  0  0  0  0  0  0  0  0
  -12.1602   33.9768   71.6096 H   0  0  0  0  0  0  0  0  0  0  0  0
  -11.7043   32.8389   67.0367 H   0  0  0  0  0  0  0  0  0  0  0  0
  -11.4946   31.9995   64.4279 H   0  0  0  0  0  0  0  0  0  0  0  0
  -13.1719   32.2666   64.9935 H   0  0  0  0  0  0  0  0  0  0  0  0
  -12.8678   31.5048   62.5402 H   0  0  0  0  0  0  0  0  0  0  0  0
  -13.8955   32.9950   62.8531 H   0  0  0  0  0  0  0  0  0  0  0  0
  -11.7267   32.6719   61.2076 H   0  0  0  0  0  0  0  0  0  0  0  0
  -10.1733   33.4097   62.6990 H   0  0  0  0  0  0  0  0  0  0  0  0
  -10.6399   34.7917   61.6404 H   0  0  0  0  0  0  0  0  0  0  0  0
  -12.1217   35.6772   63.3346 H   0  0  0  0  0  0  0  0  0  0  0  0
  -10.5225   35.3492   64.1002 H   0  0  0  0  0  0  0  0  0  0  0  0
  -13.2926   37.5944   67.2171 H   0  0  0  0  0  0  0  0  0  0  0  0
  -11.0537   32.3805   68.6348 H   0  0  0  0  0  0  0  0  0  0  0  0
  -10.6521   31.4360   71.3372 H   0  0  0  0  0  0  0  0  0  0  0  0
  -11.2253   32.7415   71.9565 H   0  0  0  0  0  0  0  0  0  0  0  0
  -13.6499   32.1425   70.5467 H   0  0  0  0  0  0  0  0  0  0  0  0
  -13.1589   30.7198   70.1482 H   0  0  0  0  0  0  0  0  0  0  0  0
  2  1  1  0
  2  3  2  0
  2  4  1  0
  4  5  2  0
  5  6  1  0
  6  7  1  0
  7  8  1  0
  8  9  2  0
  9 10  1  0
 10 11  1  0
 11 12  1  0
 12 13  1  0
 13 14  1  0
 10 15  1  0
 14 15  1  0
  9 16  1  0
 16 17  1  0
 16 18  2  0
  7 19  2  0
 18 19  1  0
  4 20  1  0
 19 20  1  0
 20 21  2  0
  6 22  1  0
 22 23  1  0
 22 24  1  0
 23 24  1  0
  1 25  1  0
  5 26  1  0
  8 27  1  0
 11 28  1  0
 11 29  1  0
 12 30  1  0
 12 31  1  0
 13 32  1  0
 14 33  1  0
 14 34  1  0
 15 35  1  0
 15 36  1  0
 18 37  1  0
 22 38  1  0
 23 39  1  0
 23 40  1  0
 24 41  1  0
 24 42  1  0
M  END
$$$$
