PDB_DB05239_98
     RDKit          3D

 65 68  0  0  0  0  0  0  0  0999 V2000
  -31.1580   12.8710   -6.2920 O   0  0  0  0  0  0  0  0  0  0  0  0
  -30.6740   12.7290   -5.1760 C   0  0  0  0  0  0  0  0  0  0  0  0
  -31.1960   11.7010   -4.2240 C   0  0  1  0  0  0  0  0  0  0  0  0
  -30.2890   11.0380   -3.3310 C   0  0  0  0  0  0  0  0  0  0  0  0
  -30.7470   10.0440   -2.4520 C   0  0  0  0  0  0  0  0  0  0  0  0
  -32.1190    9.7390   -2.5130 C   0  0  0  0  0  0  0  0  0  0  0  0
  -32.7780    8.8720   -1.7900 F   0  0  0  0  0  0  0  0  0  0  0  0
  -32.9780   10.3550   -3.3910 C   0  0  1  0  0  0  0  0  0  0  0  0
  -34.2420   10.0390   -3.3390 F   0  0  0  0  0  0  0  0  0  0  0  0
  -32.5580   11.3320   -4.2630 C   0  0  1  0  0  0  0  0  0  0  0  0
  -33.5470   11.8970   -5.0440 N   0  0  0  0  0  0  0  0  0  0  0  0
  -34.8100   12.4390   -4.7530 C   0  0  0  0  0  0  0  0  0  0  0  0
  -35.3320   12.4230   -3.4350 C   0  0  0  0  0  0  0  0  0  0  0  0
  -36.6090   12.9830   -3.1520 C   0  0  0  0  0  0  0  0  0  0  0  0
  -37.3470   13.5770   -4.1780 C   0  0  0  0  0  0  0  0  0  0  0  0
  -39.3310   14.4550   -3.8890 I   0  0  0  0  0  0  0  0  0  0  0  0
  -35.5700   13.0360   -5.7550 C   0  0  0  0  0  0  0  0  0  0  0  0
  -35.1060   13.0620   -7.0100 F   0  0  0  0  0  0  0  0  0  0  0  0
  -36.8320   13.5950   -5.4590 C   0  0  0  0  0  0  0  0  0  0  0  0
  -29.6500   13.5370   -4.8420 N   0  0  0  0  0  0  0  0  0  0  0  0
  -28.9250   13.6760   -3.5900 C   0  0  0  0  0  0  0  0  0  0  0  0
  -28.2250   14.8240   -4.4330 C   0  0  1  0  0  0  0  0  0  0  0  0
  -29.0660   14.5390   -5.7280 C   0  0  0  0  0  0  0  0  0  0  0  0
  -28.5980   16.1420   -4.0240 O   0  0  0  0  0  0  0  0  0  0  0  0
  -26.7130   14.7600   -4.6300 C   0  0  2  0  0  0  0  0  0  0  0  0
  -26.1890   13.3010   -4.7850 C   0  0  0  0  0  0  0  0  0  0  0  0
  -24.6570   13.3010   -4.6250 C   0  0  0  0  0  0  0  0  0  0  0  0
  -24.2860   13.7990   -3.2030 C   0  0  0  0  0  0  0  0  0  0  0  0
  -24.8170   15.2450   -3.0510 C   0  0  0  0  0  0  0  0  0  0  0  0
  -26.2470   15.4030   -3.3920 N   0  0  0  0  0  0  0  0  0  0  0  0
  -32.1046   13.1487   -6.2083 H   0  0  0  0  0  0  0  0  0  0  0  0
  -31.3868   13.4638   -4.7734 H   0  0  0  0  0  0  0  0  0  0  0  0
  -31.0270   10.9175   -4.9774 H   0  0  0  0  0  0  0  0  0  0  0  0
  -29.5158   10.5706   -3.9584 H   0  0  0  0  0  0  0  0  0  0  0  0
  -29.9819   11.8452   -2.6497 H   0  0  0  0  0  0  0  0  0  0  0  0
  -30.1890    9.1214   -2.6701 H   0  0  0  0  0  0  0  0  0  0  0  0
  -30.5821   10.4482   -1.4423 H   0  0  0  0  0  0  0  0  0  0  0  0
  -31.9123    8.9587   -3.2603 H   0  0  0  0  0  0  0  0  0  0  0  0
  -32.8071    9.5511   -4.1222 H   0  0  0  0  0  0  0  0  0  0  0  0
  -32.3280   10.5624   -5.0145 H   0  0  0  0  0  0  0  0  0  0  0  0
  -33.0606   12.6721   -5.5169 H   0  0  0  0  0  0  0  0  0  0  0  0
  -35.2747   11.4614   -4.9489 H   0  0  0  0  0  0  0  0  0  0  0  0
  -35.3768   11.3677   -3.1277 H   0  0  0  0  0  0  0  0  0  0  0  0
  -34.6463   13.0900   -2.8919 H   0  0  0  0  0  0  0  0  0  0  0  0
  -37.2289   12.1723   -2.7414 H   0  0  0  0  0  0  0  0  0  0  0  0
  -36.3769   13.8248   -2.4831 H   0  0  0  0  0  0  0  0  0  0  0  0
  -37.8101   12.6059   -4.4071 H   0  0  0  0  0  0  0  0  0  0  0  0
  -35.0789   13.9994   -5.5535 H   0  0  0  0  0  0  0  0  0  0  0  0
  -37.5607   13.0694   -6.0937 H   0  0  0  0  0  0  0  0  0  0  0  0
  -36.6609   14.6681   -5.6297 H   0  0  0  0  0  0  0  0  0  0  0  0
  -29.5151   14.0028   -2.7211 H   0  0  0  0  0  0  0  0  0  0  0  0
  -28.4037   12.8645   -3.0612 H   0  0  0  0  0  0  0  0  0  0  0  0
  -28.5068   14.1531   -6.5931 H   0  0  0  0  0  0  0  0  0  0  0  0
  -29.6324   15.2919   -6.2957 H   0  0  0  0  0  0  0  0  0  0  0  0
  -28.6114   16.1893   -3.0352 H   0  0  0  0  0  0  0  0  0  0  0  0
  -26.3561   15.2436   -5.5513 H   0  0  0  0  0  0  0  0  0  0  0  0
  -26.6409   12.6623   -4.0118 H   0  0  0  0  0  0  0  0  0  0  0  0
  -26.4599   12.9113   -5.7774 H   0  0  0  0  0  0  0  0  0  0  0  0
  -24.2733   12.2800   -4.7677 H   0  0  0  0  0  0  0  0  0  0  0  0
  -24.2097   13.9688   -5.3759 H   0  0  0  0  0  0  0  0  0  0  0  0
  -24.7502   13.1491   -2.4466 H   0  0  0  0  0  0  0  0  0  0  0  0
  -23.1955   13.7747   -3.0612 H   0  0  0  0  0  0  0  0  0  0  0  0
  -24.6748   15.5569   -2.0058 H   0  0  0  0  0  0  0  0  0  0  0  0
  -24.2515   15.8663   -3.7611 H   0  0  0  0  0  0  0  0  0  0  0  0
  -26.4370   16.4119   -3.4753 H   0  0  0  0  0  0  0  0  0  0  0  0
  1  2  1  0
  2  3  1  0
  3  4  1  0
  4  5  1  0
  5  6  1  0
  6  7  1  0
  6  8  1  0
  8  9  1  0
  3 10  1  0
  8 10  1  0
 10 11  1  0
 11 12  1  0
 12 13  1  0
 13 14  1  0
 14 15  1  0
 15 16  1  0
 12 17  1  0
 17 18  1  0
 15 19  1  0
 17 19  1  0
  2 20  1  0
 20 21  1  0
 21 22  1  0
 20 23  1  0
 22 23  1  0
 22 24  1  1
 22 25  1  0
 25 26  1  0
 26 27  1  0
 27 28  1  0
 28 29  1  0
 25 30  1  0
 29 30  1  0
  1 31  1  0
  2 32  1  0
  3 33  1  1
  4 34  1  0
  4 35  1  0
  5 36  1  0
  5 37  1  0
  6 38  1  0
  8 39  1  6
 10 40  1  6
 11 41  1  0
 12 42  1  0
 13 43  1  0
 13 44  1  0
 14 45  1  0
 14 46  1  0
 15 47  1  0
 17 48  1  0
 19 49  1  0
 19 50  1  0
 21 51  1  0
 21 52  1  0
 23 53  1  0
 23 54  1  0
 24 55  1  0
 25 56  1  6
 26 57  1  0
 26 58  1  0
 27 59  1  0
 27 60  1  0
 28 61  1  0
 28 62  1  0
 29 63  1  0
 29 64  1  0
 30 65  1  0
M  END
>  <PDBID>  (1) 
4AN2

>  <PDB ID>  (1) 
4AN2

>  <Generic Name>  (1) 
Cobimetinib

>  <Brand Name>  (1) 
Cotellic

>  <DrugBank ID>  (1) 
DB05239

>  <ATC Codes>  (1) 
nan

>  <Ligand ID>  (1) 
EUI

>  <Target Name>  (1) 
Dual specificity mitogen-activated protein kinase kinase 1

>  <UniProt ID>  (1) 
Q02750

>  <PDB ID.1>  (1) 
4AN2

>  <Seq. Identity>  (1) 
86%

$$$$
