PDB_DB00238_99
     RDKit          3D

 48 51  0  0  0  0  0  0  0  0999 V2000
    2.0550  -37.5580   21.2250 N   0  0  0  0  0  0  0  0  0  0  0  0
    2.6740  -38.7360   20.5530 C   0  0  1  0  0  0  0  0  0  0  0  0
    3.0180  -39.8890   21.4250 C   0  0  0  0  0  0  0  0  0  0  0  0
    1.8670  -39.9820   20.4860 C   0  0  0  0  0  0  0  0  0  0  0  0
    4.2720  -36.5990   21.4530 N   0  0  0  0  0  0  0  0  0  0  0  0
    5.1790  -35.8980   22.1850 C   0  0  0  0  0  0  0  0  0  0  0  0
    4.8290  -35.2590   23.3920 C   0  0  0  0  0  0  0  0  0  0  0  0
    3.5090  -35.3460   23.8440 C   0  0  0  0  0  0  0  0  0  0  0  0
    3.1150  -34.7240   25.1560 C   0  0  0  0  0  0  0  0  0  0  0  0
    2.9890  -36.6860   21.9030 C   0  0  1  0  0  0  0  0  0  0  0  0
    2.5640  -36.0420   23.0810 C   0  0  1  0  0  0  0  0  0  0  0  0
    1.1700  -35.9950   23.4490 N   0  0  0  0  0  0  0  0  0  0  0  0
    0.0130  -36.0160   22.7620 C   0  0  0  0  0  0  0  0  0  0  0  0
   -1.0680  -35.8990   23.3510 O   0  0  0  0  0  0  0  0  0  0  0  0
   -0.0110  -36.1490   21.2240 C   0  0  1  0  0  0  0  0  0  0  0  0
    0.9700  -36.8910   20.4950 C   0  0  1  0  0  0  0  0  0  0  0  0
   -1.1030  -35.6140   20.5150 C   0  0  0  0  0  0  0  0  0  0  0  0
   -1.2030  -35.8250   19.1310 C   0  0  0  0  0  0  0  0  0  0  0  0
   -0.1920  -36.5670   18.4840 C   0  0  0  0  0  0  0  0  0  0  0  0
    0.8690  -37.0840   19.1550 N   0  0  0  0  0  0  0  0  0  0  0  0
    3.2139  -38.1237   19.8157 H   0  0  0  0  0  0  0  0  0  0  0  0
    3.9323  -40.4699   21.2337 H   0  0  0  0  0  0  0  0  0  0  0  0
    3.1530  -40.0332   22.5071 H   0  0  0  0  0  0  0  0  0  0  0  0
    0.8385  -39.9929   20.8758 H   0  0  0  0  0  0  0  0  0  0  0  0
    1.5704  -40.6749   19.6848 H   0  0  0  0  0  0  0  0  0  0  0  0
    4.2362  -36.1647   20.5197 H   0  0  0  0  0  0  0  0  0  0  0  0
    5.9865  -36.6029   22.4323 H   0  0  0  0  0  0  0  0  0  0  0  0
    5.3987  -35.0448   21.5263 H   0  0  0  0  0  0  0  0  0  0  0  0
    5.4687  -35.6839   24.1796 H   0  0  0  0  0  0  0  0  0  0  0  0
    4.9648  -34.1893   23.1747 H   0  0  0  0  0  0  0  0  0  0  0  0
    3.7483  -36.2866   24.3618 H   0  0  0  0  0  0  0  0  0  0  0  0
    3.5029  -35.3364   25.9833 H   0  0  0  0  0  0  0  0  0  0  0  0
    3.5357  -33.7098   25.2220 H   0  0  0  0  0  0  0  0  0  0  0  0
    2.0183  -34.6710   25.2220 H   0  0  0  0  0  0  0  0  0  0  0  0
    3.2783  -37.5130   22.5681 H   0  0  0  0  0  0  0  0  0  0  0  0
    2.3551  -35.1279   22.5059 H   0  0  0  0  0  0  0  0  0  0  0  0
    1.0732  -36.7973   24.0876 H   0  0  0  0  0  0  0  0  0  0  0  0
   -0.0392  -37.1081   22.8832 H   0  0  0  0  0  0  0  0  0  0  0  0
   -0.9145  -35.9156   24.3289 H   0  0  0  0  0  0  0  0  0  0  0  0
    0.6081  -35.2441   21.1361 H   0  0  0  0  0  0  0  0  0  0  0  0
    0.3523  -37.7967   20.5856 H   0  0  0  0  0  0  0  0  0  0  0  0
   -2.0137  -36.0324   20.9683 H   0  0  0  0  0  0  0  0  0  0  0  0
   -0.9557  -34.5271   20.5989 H   0  0  0  0  0  0  0  0  0  0  0  0
   -2.1539  -36.3479   18.9511 H   0  0  0  0  0  0  0  0  0  0  0  0
   -1.1121  -34.8171   18.6998 H   0  0  0  0  0  0  0  0  0  0  0  0
   -0.6961  -37.4189   18.0042 H   0  0  0  0  0  0  0  0  0  0  0  0
    0.2864  -35.8013   17.8556 H   0  0  0  0  0  0  0  0  0  0  0  0
    1.7170  -36.6829   18.7296 H   0  0  0  0  0  0  0  0  0  0  0  0
  1  2  1  0
  2  3  1  0
  2  4  1  0
  3  4  1  0
  5  6  1  0
  6  7  1  0
  7  8  1  0
  8  9  1  0
  1 10  1  0
  5 10  1  0
  8 11  1  0
 10 11  1  0
 11 12  1  0
 12 13  1  0
 13 14  1  0
 13 15  1  0
  1 16  1  0
 15 16  1  0
 15 17  1  0
 17 18  1  0
 18 19  1  0
 16 20  1  0
 19 20  1  0
  2 21  1  6
  3 22  1  0
  3 23  1  0
  4 24  1  0
  4 25  1  0
  5 26  1  0
  6 27  1  0
  6 28  1  0
  7 29  1  0
  7 30  1  0
  8 31  1  0
  9 32  1  0
  9 33  1  0
  9 34  1  0
 10 35  1  6
 11 36  1  1
 12 37  1  0
 13 38  1  0
 14 39  1  0
 15 40  1  6
 16 41  1  6
 17 42  1  0
 17 43  1  0
 18 44  1  0
 18 45  1  0
 19 46  1  0
 19 47  1  0
 20 48  1  0
M  END
>  <PDBID>  (1) 
2HND

>  <PDB ID>  (1) 
2HND

>  <Generic Name>  (1) 
Nevirapine

>  <Brand Name>  (1) 
Apo-nevirapine#Apo-nevirapine XR#Apo-zidovudine-lamivudine-nevirapine#Auro-nevirapine#Mylan-nevirapine#Nevirapine#Nevirapine Extended Release#PMS-nevirapine#Teva-nevirapine#Viramune#Viramune XR

>  <DrugBank ID>  (1) 
DB00238

>  <ATC Codes>  (1) 
J05AR05#J05AG01#J05AR07

>  <Ligand ID>  (1) 
NVP

>  <Target Name>  (1) 
Reverse transcriptase/RNaseH

>  <UniProt ID>  (1) 
Q72547

>  <PDB ID.1>  (1) 
2HND

>  <Seq. Identity>  (1) 
96%

$$$$
