PDB_DB01128_98
     RDKit          3D

 63 64  0  0  0  0  0  0  0  0999 V2000
   29.1830    1.6830    8.6540 C   0  0  0  0  0  0  0  0  0  0  0  0
   28.6980    1.5240    9.9420 C   0  0  0  0  0  0  0  0  0  0  0  0
   29.4370    0.8180   10.8600 C   0  0  0  0  0  0  0  0  0  0  0  0
   29.0730    0.5900   12.1410 F   0  0  0  0  0  0  0  0  0  0  0  0
   30.6620    0.3310   10.5270 C   0  0  0  0  0  0  0  0  0  0  0  0
   31.1460    0.4820    9.2570 C   0  0  0  0  0  0  0  0  0  0  0  0
   30.4400    1.1690    8.2950 C   0  0  0  0  0  0  0  0  0  0  0  0
   31.0770    1.3140    6.8140 S   0  0  1  0  0  4  0  0  0  0  0  0
   30.5120    2.5410    6.2920 O   0  0  0  0  0  0  0  0  0  0  0  0
   32.5380    1.1990    6.8040 O   0  0  0  0  0  0  0  0  0  0  0  0
   30.5410    0.0300    5.8510 C   0  0  0  0  0  0  0  0  0  0  0  0
   29.9670    0.4130    4.4840 C   0  0  1  0  0  0  0  0  0  0  0  0
   30.9580    1.0480    3.6520 O   0  0  0  0  0  0  0  0  0  0  0  0
   29.5980   -0.8590    3.6990 C   0  0  0  0  0  0  0  0  0  0  0  0
   28.7090    1.2640    4.6180 C   0  0  0  0  0  0  0  0  0  0  0  0
   27.6960    0.8240    5.1740 O   0  0  0  0  0  0  0  0  0  0  0  0
   28.8030    2.5130    4.1210 N   0  0  0  0  0  0  0  0  0  0  0  0
   27.7510    3.3810    4.0530 C   0  0  1  0  0  0  0  0  0  0  0  0
   26.4090    3.0490    4.2900 C   0  0  0  0  0  0  0  0  0  0  0  0
   28.0850    4.7320    3.8230 C   0  0  0  0  0  0  0  0  0  0  0  0
   27.1230    5.7230    3.7540 C   0  0  0  0  0  0  0  0  0  0  0  0
   25.8130    5.4500    4.0110 C   0  0  1  0  0  0  0  0  0  0  0  0
   25.0340    6.4510    3.8890 C   0  0  0  0  0  0  0  0  0  0  0  0
   24.2970    7.3310    3.7570 N   0  0  0  0  0  0  0  0  0  0  0  0
   25.4210    4.0440    4.2510 C   0  0  1  0  0  0  0  0  0  0  0  0
   23.9780    3.7180    4.5350 C   0  0  1  0  0  0  0  0  0  0  0  0
   23.7490    3.6520    5.8010 F   0  0  0  0  0  0  0  0  0  0  0  0
   23.1520    4.6430    4.1270 F   0  0  0  0  0  0  0  0  0  0  0  0
   23.7400    2.5570    4.0500 F   0  0  0  0  0  0  0  0  0  0  0  0
   28.4484    1.2164    7.9812 H   0  0  0  0  0  0  0  0  0  0  0  0
   29.3309    2.7704    8.5789 H   0  0  0  0  0  0  0  0  0  0  0  0
   28.5523    2.5327   10.3560 H   0  0  0  0  0  0  0  0  0  0  0  0
   27.7977    0.9070    9.8051 H   0  0  0  0  0  0  0  0  0  0  0  0
   29.9406    1.7461   11.1683 H   0  0  0  0  0  0  0  0  0  0  0  0
   31.3865    0.8128   11.2000 H   0  0  0  0  0  0  0  0  0  0  0  0
   30.5280   -0.7574   10.6134 H   0  0  0  0  0  0  0  0  0  0  0  0
   32.1161    0.9916    9.3532 H   0  0  0  0  0  0  0  0  0  0  0  0
   31.1276   -0.5486    8.8729 H   0  0  0  0  0  0  0  0  0  0  0  0
   30.9155    2.1075    8.6162 H   0  0  0  0  0  0  0  0  0  0  0  0
   30.2425    3.1262    7.0437 H   0  0  0  0  0  0  0  0  0  0  0  0
   32.8733    1.1726    7.7351 H   0  0  0  0  0  0  0  0  0  0  0  0
   31.3943   -0.6432    5.6815 H   0  0  0  0  0  0  0  0  0  0  0  0
   29.7092   -0.4301    6.4046 H   0  0  0  0  0  0  0  0  0  0  0  0
   31.6385    1.4841    4.2237 H   0  0  0  0  0  0  0  0  0  0  0  0
   29.3628   -1.6698    4.4042 H   0  0  0  0  0  0  0  0  0  0  0  0
   28.7212   -0.6578    3.0660 H   0  0  0  0  0  0  0  0  0  0  0  0
   30.4464   -1.1582    3.0660 H   0  0  0  0  0  0  0  0  0  0  0  0
   28.3463    0.8798    3.6532 H   0  0  0  0  0  0  0  0  0  0  0  0
   27.8106    0.8738    6.1561 H   0  0  0  0  0  0  0  0  0  0  0  0
   29.5220    2.9868    4.6862 H   0  0  0  0  0  0  0  0  0  0  0  0
   27.6221    3.1413    2.9872 H   0  0  0  0  0  0  0  0  0  0  0  0
   26.1309    2.2963    3.5376 H   0  0  0  0  0  0  0  0  0  0  0  0
   26.4095    2.7357    5.3444 H   0  0  0  0  0  0  0  0  0  0  0  0
   28.7688    5.0226    4.6342 H   0  0  0  0  0  0  0  0  0  0  0  0
   28.4624    4.7041    2.7902 H   0  0  0  0  0  0  0  0  0  0  0  0
   27.4257    6.5027    4.4685 H   0  0  0  0  0  0  0  0  0  0  0  0
   27.1116    5.9741    2.6831 H   0  0  0  0  0  0  0  0  0  0  0  0
   25.9687    5.7004    5.0708 H   0  0  0  0  0  0  0  0  0  0  0  0
   25.0770    6.6329    4.9730 H   0  0  0  0  0  0  0  0  0  0  0  0
   25.4941    6.6909    2.9191 H   0  0  0  0  0  0  0  0  0  0  0  0
   24.0068    7.6775    4.6825 H   0  0  0  0  0  0  0  0  0  0  0  0
   24.7584    8.0899    3.2354 H   0  0  0  0  0  0  0  0  0  0  0  0
   25.5330    4.1977    5.3344 H   0  0  0  0  0  0  0  0  0  0  0  0
  1  2  1  0
  2  3  1  0
  3  4  1  0
  3  5  1  0
  5  6  1  0
  1  7  1  0
  6  7  1  0
  7  8  1  0
  8  9  1  6
  8 10  1  0
  8 11  1  0
 11 12  1  0
 12 13  1  6
 12 14  1  0
 12 15  1  0
 15 16  1  0
 15 17  1  0
 17 18  1  0
 18 19  1  0
 18 20  1  0
 20 21  1  0
 21 22  1  0
 22 23  1  0
 23 24  1  0
 19 25  1  0
 22 25  1  0
 25 26  1  0
 26 27  1  1
 26 28  1  0
 26 29  1  0
  1 30  1  0
  1 31  1  0
  2 32  1  0
  2 33  1  0
  3 34  1  0
  5 35  1  0
  5 36  1  0
  6 37  1  0
  6 38  1  0
  7 39  1  0
  9 40  1  0
 10 41  1  0
 11 42  1  0
 11 43  1  0
 13 44  1  0
 14 45  1  0
 14 46  1  0
 14 47  1  0
 15 48  1  0
 16 49  1  0
 17 50  1  0
 18 51  1  6
 19 52  1  0
 19 53  1  0
 20 54  1  0
 20 55  1  0
 21 56  1  0
 21 57  1  0
 22 58  1  1
 23 59  1  0
 23 60  1  0
 24 61  1  0
 24 62  1  0
 25 63  1  6
M  END
>  <PDBID>  (1) 
4OJB

>  <PDB ID>  (1) 
4OJB

>  <Generic Name>  (1) 
Bicalutamide

>  <Brand Name>  (1) 
Accel-bicalutamide Tablets USP#Ach-bicalutamide#Act Bicalutamide#Ag-bicalutamide#Apo-bicalutamide#Ava-bicalutamide#Bicalutamide#Bicalutamide Tablets#Casodex#Dom-bicalutamide#Jamp-bicalutamide#Med-bicalutamide#Mylan-bicalutamide#Ntp-bicalutamide#Nu-bicalutamide#PHL-bicalutamide#PMS-bicalutamide#Pro-bicalutamide - 50#Ran-bicalutamide#Ratio-bicalutamide#Sandoz Bicalutamide#Teva-bicalutamide#Van-bicalutamide

>  <DrugBank ID>  (1) 
DB01128

>  <ATC Codes>  (1) 
L02BB03

>  <Ligand ID>  (1) 
0U9,198

>  <Target Name>  (1) 
Androgen receptor

>  <UniProt ID>  (1) 
P10275

>  <PDB ID.1>  (1) 
4OJB

>  <Seq. Identity>  (1) 
99%

$$$$
