PDB_DB01041_97
     RDKit          3D

129135  0  0  0  0  0  0  0  0999 V2000
   26.1750   16.4530   -8.6480 O   0  0  0  0  0  0  0  0  0  0  0  0
   25.0720   16.9930   -8.1620 C   0  0  0  0  0  0  0  0  0  0  0  0
   23.9390   16.4200   -8.3530 N   0  0  0  0  0  0  0  0  0  0  0  0
   22.8720   16.7690   -7.7130 C   0  0  0  0  0  0  0  0  0  0  0  0
   21.8090   15.9850   -7.7870 O   0  0  0  0  0  0  0  0  0  0  0  0
   22.8270   18.0630   -6.8660 C   0  0  0  0  0  0  0  0  0  0  0  0
   23.8790   19.0250   -7.3510 C   0  0  0  0  0  0  0  0  0  0  0  0
   25.1750   18.2680   -7.3300 C   0  0  2  0  0  0  0  0  0  0  0  0
   26.2980   19.0630   -7.8540 N   0  0  0  0  0  0  0  0  0  0  0  0
   30.1810   21.3500   -8.6880 C   0  0  0  0  0  0  0  0  0  0  0  0
   29.5250   20.7630   -7.6400 C   0  0  0  0  0  0  0  0  0  0  0  0
   28.2990   20.1710   -7.9110 C   0  0  0  0  0  0  0  0  0  0  0  0
   27.7650   20.1600   -9.1970 C   0  0  0  0  0  0  0  0  0  0  0  0
   27.4780   19.1880   -5.7590 O   0  0  0  0  0  0  0  0  0  0  0  0
   25.6780   19.2660  -10.1860 O   0  0  0  0  0  0  0  0  0  0  0  0
   28.4200   20.7530  -10.2510 C   0  0  0  0  0  0  0  0  0  0  0  0
   29.6410   21.3670   -9.9740 C   0  0  0  0  0  0  0  0  0  0  0  0
   26.5810   19.4830   -9.0850 C   0  0  0  0  0  0  0  0  0  0  0  0
   27.3880   19.4770   -7.1670 C   0  0  0  0  0  0  0  0  0  0  0  0
   22.2040   15.4230   25.7030 O   0  0  0  0  0  0  0  0  0  0  0  0
   22.8240   14.3130   26.0070 C   0  0  0  0  0  0  0  0  0  0  0  0
   22.4540   13.1690   25.5300 N   0  0  0  0  0  0  0  0  0  0  0  0
   23.0870   12.0980   25.8380 C   0  0  1  0  0  0  0  0  0  0  0  0
   22.7510   11.0530   25.2490 O   0  0  0  0  0  0  0  0  0  0  0  0
   24.2740   12.0520   26.7250 C   0  0  0  0  0  0  0  0  0  0  0  0
   24.1730   13.1420   27.7520 C   0  0  0  0  0  0  0  0  0  0  0  0
   24.0030   14.4190   26.9410 C   0  0  2  0  0  0  0  0  0  0  0  0
   23.7900   15.5020   27.8760 N   0  0  0  0  0  0  0  0  0  0  0  0
   23.8300   19.2080   30.6670 C   0  0  0  0  0  0  0  0  0  0  0  0
   24.6110   18.5610   29.7380 C   0  0  0  0  0  0  0  0  0  0  0  0
   24.1240   17.4150   29.1500 C   0  0  0  0  0  0  0  0  0  0  0  0
   22.8970   16.9560   29.4600 C   0  0  1  0  0  0  0  0  0  0  0  0
   25.8610   16.8050   27.5560 O   0  0  0  0  0  0  0  0  0  0  0  0
   21.6040   15.0430   28.7620 O   0  0  0  0  0  0  0  0  0  0  0  0
   22.0870   17.5710   30.4080 C   0  0  0  0  0  0  0  0  0  0  0  0
   22.5800   18.6890   31.0360 C   0  0  0  0  0  0  0  0  0  0  0  0
   22.7930   15.7760   28.7120 C   0  0  1  0  0  0  0  0  0  0  0  0
   24.5990   16.5670   28.1920 C   0  0  0  0  0  0  0  0  0  0  0  0
   22.9070  -15.2280    0.3420 O   0  0  0  0  0  0  0  0  0  0  0  0
   23.8810  -14.9340   -0.5270 C   0  0  0  0  0  0  0  0  0  0  0  0
   23.8030  -15.2710   -1.7640 N   0  0  0  0  0  0  0  0  0  0  0  0
   24.5500  -14.9420   -2.7490 C   0  0  0  0  0  0  0  0  0  0  0  0
   24.2520  -15.3850   -3.9860 O   0  0  0  0  0  0  0  0  0  0  0  0
   25.7740  -14.0750   -2.4650 C   0  0  0  0  0  0  0  0  0  0  0  0
   26.2560  -14.3870   -1.0380 C   0  0  0  0  0  0  0  0  0  0  0  0
   25.0780  -14.1480   -0.0800 C   0  0  2  0  0  0  0  0  0  0  0  0
   25.4820  -14.3040    1.3570 N   0  0  0  0  0  0  0  0  0  0  0  0
   26.5270  -13.8470    5.8670 C   0  0  0  0  0  0  0  0  0  0  0  0
   26.0240  -13.1040    4.7910 C   0  0  0  0  0  0  0  0  0  0  0  0
   25.8830  -13.7690    3.5700 C   0  0  0  0  0  0  0  0  0  0  0  0
   26.2130  -15.1130    3.3940 C   0  0  0  0  0  0  0  0  0  0  0  0
   24.9810  -12.0030    2.0620 O   0  0  0  0  0  0  0  0  0  0  0  0
   26.1230  -16.6740    1.3590 O   0  0  0  0  0  0  0  0  0  0  0  0
   26.7200  -15.8370    4.4420 C   0  0  0  0  0  0  0  0  0  0  0  0
   26.8550  -15.2000    5.6860 C   0  0  0  0  0  0  0  0  0  0  0  0
   25.9580  -15.3700    2.0410 C   0  0  0  0  0  0  0  0  0  0  0  0
   25.4500  -13.3620    2.3090 C   0  0  0  0  0  0  0  0  0  0  0  0
   26.7591   16.1671   -7.9015 H   0  0  0  0  0  0  0  0  0  0  0  0
   24.9407   17.5631   -9.0935 H   0  0  0  0  0  0  0  0  0  0  0  0
   23.7241   16.5356   -9.3537 H   0  0  0  0  0  0  0  0  0  0  0  0
   22.5238   17.3244   -8.5963 H   0  0  0  0  0  0  0  0  0  0  0  0
   21.5018   15.7584   -6.8735 H   0  0  0  0  0  0  0  0  0  0  0  0
   21.8347   18.5280   -6.9615 H   0  0  0  0  0  0  0  0  0  0  0  0
   23.0192   17.8147   -5.8118 H   0  0  0  0  0  0  0  0  0  0  0  0
   23.6486   19.3595   -8.3732 H   0  0  0  0  0  0  0  0  0  0  0  0
   23.9268   19.9223   -6.7166 H   0  0  0  0  0  0  0  0  0  0  0  0
   25.3690   18.0272   -6.2743 H   0  0  0  0  0  0  0  0  0  0  0  0
   30.3383   22.4012   -8.4047 H   0  0  0  0  0  0  0  0  0  0  0  0
   31.0576   20.6970   -8.8108 H   0  0  0  0  0  0  0  0  0  0  0  0
   30.1853   19.9843   -7.2306 H   0  0  0  0  0  0  0  0  0  0  0  0
   29.2951   21.5889   -6.9508 H   0  0  0  0  0  0  0  0  0  0  0  0
   27.7929   21.1266   -7.7090 H   0  0  0  0  0  0  0  0  0  0  0  0
   27.2438   21.1060   -8.9887 H   0  0  0  0  0  0  0  0  0  0  0  0
   27.2273   19.9930   -5.2402 H   0  0  0  0  0  0  0  0  0  0  0  0
   24.7774   19.0496   -9.8364 H   0  0  0  0  0  0  0  0  0  0  0  0
   28.6038   19.9754  -11.0070 H   0  0  0  0  0  0  0  0  0  0  0  0
   27.7576   21.5690  -10.5757 H   0  0  0  0  0  0  0  0  0  0  0  0
   29.5282   22.4255  -10.2512 H   0  0  0  0  0  0  0  0  0  0  0  0
   30.3541   20.7520  -10.5426 H   0  0  0  0  0  0  0  0  0  0  0  0
   26.0589   20.4297   -8.8820 H   0  0  0  0  0  0  0  0  0  0  0  0
   27.9017   18.5365   -7.4153 H   0  0  0  0  0  0  0  0  0  0  0  0
   21.9416   15.8927   26.5341 H   0  0  0  0  0  0  0  0  0  0  0  0
   22.1513   14.1725   26.8659 H   0  0  0  0  0  0  0  0  0  0  0  0
   21.4771   13.0289   25.8248 H   0  0  0  0  0  0  0  0  0  0  0  0
   22.3503   11.8897   26.6278 H   0  0  0  0  0  0  0  0  0  0  0  0
   22.5269   10.3560   25.9154 H   0  0  0  0  0  0  0  0  0  0  0  0
   24.3172   11.0755   27.2296 H   0  0  0  0  0  0  0  0  0  0  0  0
   25.1854   12.1955   26.1260 H   0  0  0  0  0  0  0  0  0  0  0  0
   23.3043   12.9793   28.4068 H   0  0  0  0  0  0  0  0  0  0  0  0
   25.0545   13.1792   28.4089 H   0  0  0  0  0  0  0  0  0  0  0  0
   24.8990   14.5949   26.3276 H   0  0  0  0  0  0  0  0  0  0  0  0
   24.4273   19.2746   31.5883 H   0  0  0  0  0  0  0  0  0  0  0  0
   23.5658   20.1455   30.1559 H   0  0  0  0  0  0  0  0  0  0  0  0
   24.8147   19.2787   28.9296 H   0  0  0  0  0  0  0  0  0  0  0  0
   25.4827   18.2169   30.3139 H   0  0  0  0  0  0  0  0  0  0  0  0
   24.5546   16.8141   29.9645 H   0  0  0  0  0  0  0  0  0  0  0  0
   23.3330   16.3205   30.2448 H   0  0  0  0  0  0  0  0  0  0  0  0
   26.5586   16.9366   28.2460 H   0  0  0  0  0  0  0  0  0  0  0  0
   21.3517   14.8875   29.7066 H   0  0  0  0  0  0  0  0  0  0  0  0
   21.1530   17.8611   29.9046 H   0  0  0  0  0  0  0  0  0  0  0  0
   21.9786   16.8252   31.2092 H   0  0  0  0  0  0  0  0  0  0  0  0
   22.6394   18.4505   32.1082 H   0  0  0  0  0  0  0  0  0  0  0  0
   21.8785   19.4796   30.7313 H   0  0  0  0  0  0  0  0  0  0  0  0
   23.3108   15.2243   29.5104 H   0  0  0  0  0  0  0  0  0  0  0  0
   24.1082   17.1706   27.4143 H   0  0  0  0  0  0  0  0  0  0  0  0
   23.2471  -15.1253    1.2661 H   0  0  0  0  0  0  0  0  0  0  0  0
   24.3742  -15.8901   -0.2976 H   0  0  0  0  0  0  0  0  0  0  0  0
   23.8435  -16.3001   -1.7487 H   0  0  0  0  0  0  0  0  0  0  0  0
   25.1687  -15.8353   -2.5781 H   0  0  0  0  0  0  0  0  0  0  0  0
   23.7007  -16.2046   -3.9191 H   0  0  0  0  0  0  0  0  0  0  0  0
   26.5709  -14.3060   -3.1872 H   0  0  0  0  0  0  0  0  0  0  0  0
   25.5175  -13.0093   -2.5575 H   0  0  0  0  0  0  0  0  0  0  0  0
   26.5829  -15.4354   -0.9745 H   0  0  0  0  0  0  0  0  0  0  0  0
   27.1054  -13.7414   -0.7702 H   0  0  0  0  0  0  0  0  0  0  0  0
   24.7590  -13.0964   -0.1286 H   0  0  0  0  0  0  0  0  0  0  0  0
   27.4426  -13.3394    6.2046 H   0  0  0  0  0  0  0  0  0  0  0  0
   25.6829  -13.8805    6.5715 H   0  0  0  0  0  0  0  0  0  0  0  0
   25.0311  -12.7302    5.0816 H   0  0  0  0  0  0  0  0  0  0  0  0
   26.7778  -12.3246    4.6057 H   0  0  0  0  0  0  0  0  0  0  0  0
   26.9084  -13.4812    3.2948 H   0  0  0  0  0  0  0  0  0  0  0  0
   27.2329  -14.8241    3.1002 H   0  0  0  0  0  0  0  0  0  0  0  0
   24.8233  -11.5462    2.9260 H   0  0  0  0  0  0  0  0  0  0  0  0
   26.2137  -17.3911    2.0355 H   0  0  0  0  0  0  0  0  0  0  0  0
   26.0587  -16.7036    4.5896 H   0  0  0  0  0  0  0  0  0  0  0  0
   27.7527  -16.0660    4.1401 H   0  0  0  0  0  0  0  0  0  0  0  0
   27.9125  -15.3016    5.9711 H   0  0  0  0  0  0  0  0  0  0  0  0
   26.0883  -15.7070    6.2903 H   0  0  0  0  0  0  0  0  0  0  0  0
   26.9866  -15.0715    1.7904 H   0  0  0  0  0  0  0  0  0  0  0  0
   24.4222  -13.6573    2.5666 H   0  0  0  0  0  0  0  0  0  0  0  0
  1  2  1  0
  2  3  1  0
  3  4  1  0
  4  5  1  0
  4  6  1  0
  6  7  1  0
  2  8  1  0
  7  8  1  0
  8  9  1  0
 10 11  1  0
 11 12  1  0
 12 13  1  0
 13 16  1  0
 10 17  1  0
 16 17  1  0
  9 18  1  0
 13 18  1  0
 15 18  1  0
  9 19  1  0
 12 19  1  0
 14 19  1  0
 20 21  1  0
 21 22  1  0
 22 23  1  0
 23 24  1  0
 23 25  1  0
 25 26  1  0
 21 27  1  0
 26 27  1  0
 27 28  1  0
 29 30  1  0
 30 31  1  0
 31 32  1  0
 32 35  1  0
 29 36  1  0
 35 36  1  0
 28 37  1  0
 32 37  1  0
 34 37  1  0
 28 38  1  0
 31 38  1  0
 33 38  1  0
 39 40  1  0
 40 41  1  0
 41 42  1  0
 42 43  1  0
 42 44  1  0
 44 45  1  0
 40 46  1  0
 45 46  1  0
 46 47  1  0
 48 49  1  0
 49 50  1  0
 50 51  1  0
 51 54  1  0
 48 55  1  0
 54 55  1  0
 47 56  1  0
 51 56  1  0
 53 56  1  0
 47 57  1  0
 50 57  1  0
 52 57  1  0
  1 58  1  0
  2 59  1  0
  3 60  1  0
  4 61  1  0
  5 62  1  0
  6 63  1  0
  6 64  1  0
  7 65  1  0
  7 66  1  0
  8 67  1  1
 10 68  1  0
 10 69  1  0
 11 70  1  0
 11 71  1  0
 12 72  1  0
 13 73  1  0
 14 74  1  0
 15 75  1  0
 16 76  1  0
 16 77  1  0
 17 78  1  0
 17 79  1  0
 18 80  1  0
 19 81  1  0
 20 82  1  0
 21 83  1  0
 22 84  1  0
 23 85  1  1
 24 86  1  0
 25 87  1  0
 25 88  1  0
 26 89  1  0
 26 90  1  0
 27 91  1  6
 29 92  1  0
 29 93  1  0
 30 94  1  0
 30 95  1  0
 31 96  1  0
 32 97  1  6
 33 98  1  0
 34 99  1  0
 35100  1  0
 35101  1  0
 36102  1  0
 36103  1  0
 37104  1  1
 38105  1  0
 39106  1  0
 40107  1  0
 41108  1  0
 42109  1  0
 43110  1  0
 44111  1  0
 44112  1  0
 45113  1  0
 45114  1  0
 46115  1  1
 48116  1  0
 48117  1  0
 49118  1  0
 49119  1  0
 50120  1  0
 51121  1  0
 52122  1  0
 53123  1  0
 54124  1  0
 54125  1  0
 55126  1  0
 55127  1  0
 56128  1  0
 57129  1  0
M  END
>  <PDBID>  (1) 
4V32

>  <PDB ID>  (1) 
4V32

>  <Generic Name>  (1) 
Thalidomide

>  <Brand Name>  (1) 
Thalomid#Contergan#Distaval#K-17#Pro-ban M#Sedalis#Softenon#Talimol#Thaled

>  <DrugBank ID>  (1) 
DB01041

>  <ATC Codes>  (1) 
L04AX02

>  <Ligand ID>  (1) 
EF2

>  <Target Name>  (1) 
Protein cereblon

>  <UniProt ID>  (1) 
Q96SW2

>  <PDB ID.1>  (1) 
4V32

>  <Seq. Identity>  (1) 
40%

$$$$
