PDB_DB00481_93
     RDKit          3D

 61 65  0  0  0  0  0  0  0  0999 V2000
   16.9310   29.5250    8.7290 C   0  0  0  0  0  0  0  0  0  0  0  0
   15.8390   30.1280    8.1030 C   0  0  0  0  0  0  0  0  0  0  0  0
   15.1550   31.1320    8.7770 C   0  0  0  0  0  0  0  0  0  0  0  0
   14.0660   31.7180    8.1660 O   0  0  0  0  0  0  0  0  0  0  0  0
   15.5780   31.5290   10.0650 C   0  0  0  0  0  0  0  0  0  0  0  0
   16.6460   30.9470   10.6570 C   0  0  0  0  0  0  0  0  0  0  0  0
   17.3610   31.2370   12.1470 S   0  0  0  0  0  0  0  0  0  0  0  0
   18.5990   30.1110   12.0670 C   0  0  0  0  0  0  0  0  0  0  0  0
   19.6040   29.8810   13.1400 C   0  0  0  0  0  0  0  0  0  0  0  0
   19.2300   29.5540   14.4130 C   0  0  0  0  0  0  0  0  0  0  0  0
   20.1620   29.3210   15.4300 C   0  0  0  0  0  0  0  0  0  0  0  0
   21.5120   29.4270   15.1430 C   0  0  0  0  0  0  0  0  0  0  0  0
   22.4470   29.2040   16.1390 O   0  0  0  0  0  0  0  0  0  0  0  0
   21.9140   29.7600   13.8570 C   0  0  0  0  0  0  0  0  0  0  0  0
   20.9610   29.9850   12.8660 C   0  0  0  0  0  0  0  0  0  0  0  0
   17.3510   29.9080    9.9890 C   0  0  0  0  0  0  0  0  0  0  0  0
   18.4770   29.4450   10.8130 C   0  0  0  0  0  0  0  0  0  0  0  0
   19.3470   28.4220   10.4480 C   0  0  0  0  0  0  0  0  0  0  0  0
   19.2450   27.3330   11.0420 O   0  0  0  0  0  0  0  0  0  0  0  0
   20.3630   28.5880    9.4140 C   0  0  0  0  0  0  0  0  0  0  0  0
   21.1230   27.5080    8.9700 C   0  0  0  0  0  0  0  0  0  0  0  0
   22.1230   27.6120    7.9710 C   0  0  0  0  0  0  0  0  0  0  0  0
   22.3250   28.8770    7.4450 C   0  0  0  0  0  0  0  0  0  0  0  0
   21.5720   29.9490    7.8960 C   0  0  0  0  0  0  0  0  0  0  0  0
   20.6060   29.8300    8.8500 C   0  0  0  0  0  0  0  0  0  0  0  0
   23.2300   29.2790    6.4660 O   0  0  0  0  0  0  0  0  0  0  0  0
   23.4640   28.3530    5.4320 C   0  0  0  0  0  0  0  0  0  0  0  0
   24.7760   28.7900    4.7940 C   0  0  0  0  0  0  0  0  0  0  0  0
   24.7430   29.7120    3.6430 N   0  0  0  0  0  0  0  0  0  0  0  0
   26.0710   29.5940    2.9850 C   0  0  0  0  0  0  0  0  0  0  0  0
   26.1790   30.4500    1.7240 C   0  0  0  0  0  0  0  0  0  0  0  0
   25.9590   31.9320    2.0940 C   0  0  0  0  0  0  0  0  0  0  0  0
   24.6040   32.0420    2.7970 C   0  0  0  0  0  0  0  0  0  0  0  0
   24.5390   31.1170    4.0200 C   0  0  0  0  0  0  0  0  0  0  0  0
   17.4722   28.7231    8.2054 H   0  0  0  0  0  0  0  0  0  0  0  0
   15.5262   29.8146    7.0961 H   0  0  0  0  0  0  0  0  0  0  0  0
   13.5650   32.4352    8.6294 H   0  0  0  0  0  0  0  0  0  0  0  0
   15.0309   32.3230   10.5943 H   0  0  0  0  0  0  0  0  0  0  0  0
   18.1582   29.4710   14.6463 H   0  0  0  0  0  0  0  0  0  0  0  0
   19.8266   29.0572   16.4439 H   0  0  0  0  0  0  0  0  0  0  0  0
   23.4132   29.2791   15.9367 H   0  0  0  0  0  0  0  0  0  0  0  0
   22.9848   29.8462   13.6203 H   0  0  0  0  0  0  0  0  0  0  0  0
   21.2891   30.2494   11.8499 H   0  0  0  0  0  0  0  0  0  0  0  0
   20.9369   26.5212    9.4191 H   0  0  0  0  0  0  0  0  0  0  0  0
   22.7035   26.7406    7.6339 H   0  0  0  0  0  0  0  0  0  0  0  0
   21.7627   30.9425    7.4639 H   0  0  0  0  0  0  0  0  0  0  0  0
   20.0264   30.7091    9.1683 H   0  0  0  0  0  0  0  0  0  0  0  0
   23.5532   27.3349    5.8388 H   0  0  0  0  0  0  0  0  0  0  0  0
   22.6396   28.3326    4.7040 H   0  0  0  0  0  0  0  0  0  0  0  0
   25.3692   29.2789    5.5809 H   0  0  0  0  0  0  0  0  0  0  0  0
   25.1856   27.8598    4.3733 H   0  0  0  0  0  0  0  0  0  0  0  0
   26.8465   29.9147    3.6962 H   0  0  0  0  0  0  0  0  0  0  0  0
   26.2036   28.5434    2.6873 H   0  0  0  0  0  0  0  0  0  0  0  0
   27.1779   30.3263    1.2802 H   0  0  0  0  0  0  0  0  0  0  0  0
   25.4159   30.1341    0.9974 H   0  0  0  0  0  0  0  0  0  0  0  0
   26.7590   32.2723    2.7679 H   0  0  0  0  0  0  0  0  0  0  0  0
   25.9758   32.5602    1.1912 H   0  0  0  0  0  0  0  0  0  0  0  0
   24.4524   33.0812    3.1242 H   0  0  0  0  0  0  0  0  0  0  0  0
   23.8178   31.7408    2.0891 H   0  0  0  0  0  0  0  0  0  0  0  0
   23.5519   31.2202    4.4943 H   0  0  0  0  0  0  0  0  0  0  0  0
   25.3398   31.4077    4.7159 H   0  0  0  0  0  0  0  0  0  0  0  0
  1  2  2  0
  2  3  1  0
  3  4  1  0
  3  5  2  0
  5  6  1  0
  6  7  1  0
  7  8  1  0
  8  9  1  0
  9 10  2  0
 10 11  1  0
 11 12  2  0
 12 13  1  0
 12 14  1  0
  9 15  1  0
 14 15  2  0
  1 16  1  0
  6 16  2  0
  8 17  2  0
 16 17  1  0
 17 18  1  0
 18 19  2  0
 18 20  1  0
 20 21  2  0
 21 22  1  0
 22 23  2  0
 23 24  1  0
 20 25  1  0
 24 25  2  0
 23 26  1  0
 26 27  1  0
 27 28  1  0
 28 29  1  0
 29 30  1  0
 30 31  1  0
 31 32  1  0
 32 33  1  0
 29 34  1  0
 33 34  1  0
  1 35  1  0
  2 36  1  0
  4 37  1  0
  5 38  1  0
 10 39  1  0
 11 40  1  0
 13 41  1  0
 14 42  1  0
 15 43  1  0
 21 44  1  0
 22 45  1  0
 24 46  1  0
 25 47  1  0
 27 48  1  0
 27 49  1  0
 28 50  1  0
 28 51  1  0
 30 52  1  0
 30 53  1  0
 31 54  1  0
 31 55  1  0
 32 56  1  0
 32 57  1  0
 33 58  1  0
 33 59  1  0
 34 60  1  0
 34 61  1  0
M  END
>  <PDBID>  (1) 
1QKN

>  <PDB ID>  (1) 
1QKN

>  <Generic Name>  (1) 
Raloxifene

>  <Brand Name>  (1) 
Act Raloxifene#Apo-raloxifene#Evista#Evista (60mg)#PMS-raloxifene#Raloxifene#Raloxifene Hydrochloride#Teva-raloxifene#Keoxifene

>  <DrugBank ID>  (1) 
DB00481

>  <ATC Codes>  (1) 
G03XC01

>  <Ligand ID>  (1) 
RAL

>  <Target Name>  (1) 
Estrogen receptor beta

>  <UniProt ID>  (1) 
Q92731

>  <PDB ID.1>  (1) 
1QKN

>  <Seq. Identity>  (1) 
91%

$$$$
