PDB_DB00159_97
     RDKit          3D

128126  0  0  0  0  0  0  0  0999 V2000
   35.2730   12.1360   61.7350 C   0  0  0  0  0  0  0  0  0  0  0  0
   34.4850   13.0750   61.9770 O   0  0  0  0  0  0  0  0  0  0  0  0
   36.2310   11.8620   62.5240 O   0  0  0  0  0  0  0  0  0  0  0  0
   35.0620   11.3240   60.4380 C   0  0  0  0  0  0  0  0  0  0  0  0
   35.2530    9.8000   60.6270 C   0  0  0  0  0  0  0  0  0  0  0  0
   35.0240    9.1900   59.2230 C   0  0  0  0  0  0  0  0  0  0  0  0
   35.2220    7.6510   59.1200 C   0  0  0  0  0  0  0  0  0  0  0  0
   34.2240    6.7670   59.2710 C   0  0  0  0  0  0  0  0  0  0  0  0
   32.8570    7.2170   59.5780 C   0  0  0  0  0  0  0  0  0  0  0  0
   31.8960    6.9060   58.4600 C   0  0  0  0  0  0  0  0  0  0  0  0
   30.5870    7.0900   58.6680 C   0  0  0  0  0  0  0  0  0  0  0  0
   30.0590    7.6010   59.9920 C   0  0  0  0  0  0  0  0  0  0  0  0
   29.1350    8.7640   59.7240 C   0  0  0  0  0  0  0  0  0  0  0  0
   27.8580    8.7800   60.1850 C   0  0  0  0  0  0  0  0  0  0  0  0
   27.2020    7.6620   60.9890 C   0  0  0  0  0  0  0  0  0  0  0  0
   26.4500    8.2610   62.1380 C   0  0  0  0  0  0  0  0  0  0  0  0
   25.1970    8.0900   62.5490 C   0  0  0  0  0  0  0  0  0  0  0  0
   24.0940    7.2290   61.9490 C   0  0  0  0  0  0  0  0  0  0  0  0
   22.7550    7.9330   61.8760 C   0  0  0  0  0  0  0  0  0  0  0  0
   22.4130    9.0390   61.1600 C   0  0  0  0  0  0  0  0  0  0  0  0
   23.2550    9.9010   60.2500 C   0  0  0  0  0  0  0  0  0  0  0  0
   22.9110    9.4190   58.8640 C   0  0  0  0  0  0  0  0  0  0  0  0
   -5.6120   -4.9490   11.7280 C   0  0  0  0  0  0  0  0  0  0  0  0
   -6.2660   -5.5600   10.7820 O   0  0  0  0  0  0  0  0  0  0  0  0
   -5.4610   -5.4180   12.8500 O   0  0  0  0  0  0  0  0  0  0  0  0
   -5.0300   -3.5850   11.4560 C   0  0  0  0  0  0  0  0  0  0  0  0
   -6.0990   -2.4340   11.5670 C   0  0  0  0  0  0  0  0  0  0  0  0
   -5.3080   -1.2410   11.1020 C   0  0  0  0  0  0  0  0  0  0  0  0
   -6.0960    0.0470   11.1260 C   0  0  0  0  0  0  0  0  0  0  0  0
   -5.5320    1.1530   11.5490 C   0  0  0  0  0  0  0  0  0  0  0  0
   -4.0570    1.2220   12.0280 C   0  0  0  0  0  0  0  0  0  0  0  0
   -3.1550    1.5970   10.8370 C   0  0  0  0  0  0  0  0  0  0  0  0
   -1.8060    1.4960   10.8580 C   0  0  0  0  0  0  0  0  0  0  0  0
   -1.0750    0.9930   12.0850 C   0  0  0  0  0  0  0  0  0  0  0  0
   -0.6220   -0.4580   11.9060 C   0  0  0  0  0  0  0  0  0  0  0  0
    0.6100   -0.9550   12.2830 C   0  0  0  0  0  0  0  0  0  0  0  0
    1.7720   -0.2000   12.9340 C   0  0  0  0  0  0  0  0  0  0  0  0
    1.5950   -0.1900   14.4280 C   0  0  0  0  0  0  0  0  0  0  0  0
    2.4530    0.1050   15.4200 C   0  0  0  0  0  0  0  0  0  0  0  0
    3.8910    0.5180   15.3210 C   0  0  0  0  0  0  0  0  0  0  0  0
    4.7460   -0.2670   16.2470 C   0  0  0  0  0  0  0  0  0  0  0  0
    5.7240   -1.1410   15.9910 C   0  0  0  0  0  0  0  0  0  0  0  0
    6.3200   -1.6580   14.6950 C   0  0  0  0  0  0  0  0  0  0  0  0
    7.5680   -2.4090   15.1650 C   0  0  0  0  0  0  0  0  0  0  0  0
   35.9262   12.8268   61.1817 H   0  0  0  0  0  0  0  0  0  0  0  0
   34.3931   13.1845   62.9566 H   0  0  0  0  0  0  0  0  0  0  0  0
   35.9226   11.9502   63.4606 H   0  0  0  0  0  0  0  0  0  0  0  0
   34.0389   11.5047   60.0764 H   0  0  0  0  0  0  0  0  0  0  0  0
   35.8235   11.6592   59.7185 H   0  0  0  0  0  0  0  0  0  0  0  0
   36.2700    9.5791   60.9832 H   0  0  0  0  0  0  0  0  0  0  0  0
   34.5604    9.3866   61.3749 H   0  0  0  0  0  0  0  0  0  0  0  0
   33.9924    9.4199   58.9180 H   0  0  0  0  0  0  0  0  0  0  0  0
   35.7897    9.6367   58.5717 H   0  0  0  0  0  0  0  0  0  0  0  0
   35.6384    7.4671   58.1186 H   0  0  0  0  0  0  0  0  0  0  0  0
   35.8260    7.4503   60.0171 H   0  0  0  0  0  0  0  0  0  0  0  0
   34.1633    6.1992   58.3308 H   0  0  0  0  0  0  0  0  0  0  0  0
   34.5134    6.2269   60.1845 H   0  0  0  0  0  0  0  0  0  0  0  0
   32.5136    6.7113   60.4925 H   0  0  0  0  0  0  0  0  0  0  0  0
   32.8806    8.3086   59.7120 H   0  0  0  0  0  0  0  0  0  0  0  0
   32.1797    7.5365   57.6044 H   0  0  0  0  0  0  0  0  0  0  0  0
   31.9938    5.8196   58.3182 H   0  0  0  0  0  0  0  0  0  0  0  0
   30.2489    7.8044   57.9029 H   0  0  0  0  0  0  0  0  0  0  0  0
   30.1970    6.0618   58.6397 H   0  0  0  0  0  0  0  0  0  0  0  0
   29.5072    6.7997   60.5053 H   0  0  0  0  0  0  0  0  0  0  0  0
   30.8943    7.9235   60.6310 H   0  0  0  0  0  0  0  0  0  0  0  0
   29.6270    9.6536   60.1441 H   0  0  0  0  0  0  0  0  0  0  0  0
   28.9909    8.7035   58.6352 H   0  0  0  0  0  0  0  0  0  0  0  0
   27.7864    9.6768   60.8180 H   0  0  0  0  0  0  0  0  0  0  0  0
   27.3052    8.6925   59.2380 H   0  0  0  0  0  0  0  0  0  0  0  0
   26.5068    7.1039   60.3446 H   0  0  0  0  0  0  0  0  0  0  0  0
   27.9738    6.9762   61.3684 H   0  0  0  0  0  0  0  0  0  0  0  0
   27.0537    7.9897   63.0166 H   0  0  0  0  0  0  0  0  0  0  0  0
   26.3103    9.2597   61.6987 H   0  0  0  0  0  0  0  0  0  0  0  0
   25.2972    7.7231   63.5812 H   0  0  0  0  0  0  0  0  0  0  0  0
   24.8032    9.0724   62.2492 H   0  0  0  0  0  0  0  0  0  0  0  0
   24.3922    6.9400   60.9304 H   0  0  0  0  0  0  0  0  0  0  0  0
   23.9674    6.3572   62.6078 H   0  0  0  0  0  0  0  0  0  0  0  0
   22.0545    7.1568   61.5342 H   0  0  0  0  0  0  0  0  0  0  0  0
   22.7600    8.3877   62.8776 H   0  0  0  0  0  0  0  0  0  0  0  0
   21.5854    8.6998   60.5196 H   0  0  0  0  0  0  0  0  0  0  0  0
   22.3407    9.7424   62.0026 H   0  0  0  0  0  0  0  0  0  0  0  0
   22.9962   10.9635   60.3692 H   0  0  0  0  0  0  0  0  0  0  0  0
   24.3300    9.8218   60.4695 H   0  0  0  0  0  0  0  0  0  0  0  0
   22.2733    8.5255   58.9343 H   0  0  0  0  0  0  0  0  0  0  0  0
   22.3733   10.2116   58.3231 H   0  0  0  0  0  0  0  0  0  0  0  0
   23.8354    9.1681   58.3231 H   0  0  0  0  0  0  0  0  0  0  0  0
   -6.5421   -4.4623   12.0566 H   0  0  0  0  0  0  0  0  0  0  0  0
   -6.9272   -6.1777   11.1838 H   0  0  0  0  0  0  0  0  0  0  0  0
   -5.6822   -4.7308   13.5274 H   0  0  0  0  0  0  0  0  0  0  0  0
   -4.2290   -3.3926   12.1849 H   0  0  0  0  0  0  0  0  0  0  0  0
   -4.6496   -3.5863   10.4239 H   0  0  0  0  0  0  0  0  0  0  0  0
   -6.9623   -2.6234   10.9121 H   0  0  0  0  0  0  0  0  0  0  0  0
   -6.5316   -2.3202   12.5720 H   0  0  0  0  0  0  0  0  0  0  0  0
   -4.4321   -1.1263   11.7575 H   0  0  0  0  0  0  0  0  0  0  0  0
   -5.0228   -1.4279   10.0562 H   0  0  0  0  0  0  0  0  0  0  0  0
   -6.4291    0.2347   10.0946 H   0  0  0  0  0  0  0  0  0  0  0  0
   -6.8725   -0.1456   11.8810 H   0  0  0  0  0  0  0  0  0  0  0  0
   -5.6150    1.8714   10.7201 H   0  0  0  0  0  0  0  0  0  0  0  0
   -6.0762    1.3314   12.4882 H   0  0  0  0  0  0  0  0  0  0  0  0
   -3.9613    1.9834   12.8161 H   0  0  0  0  0  0  0  0  0  0  0  0
   -3.7524    0.2440   12.4289 H   0  0  0  0  0  0  0  0  0  0  0  0
   -3.4898    0.9695    9.9979 H   0  0  0  0  0  0  0  0  0  0  0  0
   -3.2866    2.6886   10.8052 H   0  0  0  0  0  0  0  0  0  0  0  0
   -1.5312    0.8218   10.0334 H   0  0  0  0  0  0  0  0  0  0  0  0
   -1.4866    2.5472   10.8034 H   0  0  0  0  0  0  0  0  0  0  0  0
   -0.1920    1.6251   12.2604 H   0  0  0  0  0  0  0  0  0  0  0  0
   -1.7627    1.0390   12.9423 H   0  0  0  0  0  0  0  0  0  0  0  0
   -1.3617   -1.0653   12.4483 H   0  0  0  0  0  0  0  0  0  0  0  0
   -0.5274   -0.5027   10.8110 H   0  0  0  0  0  0  0  0  0  0  0  0
    0.3786   -1.7692   12.9856 H   0  0  0  0  0  0  0  0  0  0  0  0
    1.0446   -1.0978   11.2826 H   0  0  0  0  0  0  0  0  0  0  0  0
    2.7195   -0.6983   12.6812 H   0  0  0  0  0  0  0  0  0  0  0  0
    1.7888    0.8349   12.5617 H   0  0  0  0  0  0  0  0  0  0  0  0
    0.7592    0.5069   14.5883 H   0  0  0  0  0  0  0  0  0  0  0  0
    1.6001   -1.2809   14.5690 H   0  0  0  0  0  0  0  0  0  0  0  0
    1.9679    0.9257   15.9688 H   0  0  0  0  0  0  0  0  0  0  0  0
    2.6056   -0.9132   15.8072 H   0  0  0  0  0  0  0  0  0  0  0  0
    4.2391    0.3575   14.2899 H   0  0  0  0  0  0  0  0  0  0  0  0
    3.9656    1.5800   15.5978 H   0  0  0  0  0  0  0  0  0  0  0  0
    5.2282    0.4959   16.8759 H   0  0  0  0  0  0  0  0  0  0  0  0
    3.9836   -0.9959   16.5593 H   0  0  0  0  0  0  0  0  0  0  0  0
    6.5904   -0.7189   16.5213 H   0  0  0  0  0  0  0  0  0  0  0  0
    5.1423   -2.0448   16.2251 H   0  0  0  0  0  0  0  0  0  0  0  0
    5.6216   -2.3348   14.1810 H   0  0  0  0  0  0  0  0  0  0  0  0
    6.5415   -0.8599   13.9711 H   0  0  0  0  0  0  0  0  0  0  0  0
    7.5941   -2.4247   16.2646 H   0  0  0  0  0  0  0  0  0  0  0  0
    7.5403   -3.4406   14.7841 H   0  0  0  0  0  0  0  0  0  0  0  0
    8.4665   -1.9015   14.7841 H   0  0  0  0  0  0  0  0  0  0  0  0
  1  2  1  0
  1  3  1  0
  1  4  1  0
  4  5  1  0
  5  6  1  0
  6  7  1  0
  7  8  1  0
  8  9  1  0
  9 10  1  0
 10 11  1  0
 11 12  1  0
 12 13  1  0
 13 14  1  0
 14 15  1  0
 15 16  1  0
 16 17  1  0
 17 18  1  0
 18 19  1  0
 19 20  1  0
 20 21  1  0
 21 22  1  0
 23 24  1  0
 23 25  1  0
 23 26  1  0
 26 27  1  0
 27 28  1  0
 28 29  1  0
 29 30  1  0
 30 31  1  0
 31 32  1  0
 32 33  1  0
 33 34  1  0
 34 35  1  0
 35 36  1  0
 36 37  1  0
 37 38  1  0
 38 39  1  0
 39 40  1  0
 40 41  1  0
 41 42  1  0
 42 43  1  0
 43 44  1  0
  1 45  1  0
  2 46  1  0
  3 47  1  0
  4 48  1  0
  4 49  1  0
  5 50  1  0
  5 51  1  0
  6 52  1  0
  6 53  1  0
  7 54  1  0
  7 55  1  0
  8 56  1  0
  8 57  1  0
  9 58  1  0
  9 59  1  0
 10 60  1  0
 10 61  1  0
 11 62  1  0
 11 63  1  0
 12 64  1  0
 12 65  1  0
 13 66  1  0
 13 67  1  0
 14 68  1  0
 14 69  1  0
 15 70  1  0
 15 71  1  0
 16 72  1  0
 16 73  1  0
 17 74  1  0
 17 75  1  0
 18 76  1  0
 18 77  1  0
 19 78  1  0
 19 79  1  0
 20 80  1  0
 20 81  1  0
 21 82  1  0
 21 83  1  0
 22 84  1  0
 22 85  1  0
 22 86  1  0
 23 87  1  0
 24 88  1  0
 25 89  1  0
 26 90  1  0
 26 91  1  0
 27 92  1  0
 27 93  1  0
 28 94  1  0
 28 95  1  0
 29 96  1  0
 29 97  1  0
 30 98  1  0
 30 99  1  0
 31100  1  0
 31101  1  0
 32102  1  0
 32103  1  0
 33104  1  0
 33105  1  0
 34106  1  0
 34107  1  0
 35108  1  0
 35109  1  0
 36110  1  0
 36111  1  0
 37112  1  0
 37113  1  0
 38114  1  0
 38115  1  0
 39116  1  0
 39117  1  0
 40118  1  0
 40119  1  0
 41120  1  0
 41121  1  0
 42122  1  0
 42123  1  0
 43124  1  0
 43125  1  0
 44126  1  0
 44127  1  0
 44128  1  0
M  END
>  <PDBID>  (1) 
3GWX

>  <PDB ID>  (1) 
3GWX

>  <Generic Name>  (1) 
Icosapent

>  <Brand Name>  (1) 
Animi-3#Animi-3 With Vitamin D#Citranatal Assure#Folcaps Care One#Folcaps Omega-3#Gesticare DHA#Herbalifeline#Natelle One#Prenate Essential#Se-tan DHA#Ultimatecare One Nf#Virt-PN Plus#Virt-bal DHA Plus#Vp-CH-pnv

>  <DrugBank ID>  (1) 
DB00159

>  <ATC Codes>  (1) 
nan

>  <Ligand ID>  (1) 
EPA

>  <Target Name>  (1) 
Peroxisome proliferator-activated receptor gamma

>  <UniProt ID>  (1) 
P37231

>  <PDB ID.1>  (1) 
3GWX

>  <Seq. Identity>  (1) 
60%

$$$$
