PDB_DB00773_98
     RDKit          3D

176188  0  0  0  0  0  0  0  0999 V2000
   32.4710   90.3360   48.6880 C   0  0  0  0  0  0  0  0  0  0  0  0
   31.4710   91.1950   49.1470 O   0  0  0  0  0  0  0  0  0  0  0  0
   33.3890   91.6630   50.1510 C   0  0  0  0  0  0  0  0  0  0  0  0
   33.4980   90.4150   49.6220 O   0  0  0  0  0  0  0  0  0  0  0  0
   34.3840   92.4970   50.9420 C   0  0  0  0  0  0  0  0  0  0  0  0
   34.4660   98.2960   53.3470 O   0  0  0  0  0  0  0  0  0  0  0  0
   33.9770   93.8600   51.3690 C   0  0  0  0  0  0  0  0  0  0  0  0
   36.2080   96.8610   54.1440 O   0  0  0  0  0  0  0  0  0  0  0  0
   35.0100   94.7710   52.1940 C   0  0  2  0  0  0  0  0  0  0  0  0
   37.2780   95.6200   47.6260 O   0  0  0  0  0  0  0  0  0  0  0  0
   34.3930   95.9780   52.7880 C   0  0  1  0  0  0  0  0  0  0  0  0
   39.7990   96.2160   48.9000 O   0  0  0  0  0  0  0  0  0  0  0  0
   35.1950   97.0470   53.5140 C   0  0  0  0  0  0  0  0  0  0  0  0
   40.0370   96.1330   51.7660 O   0  0  0  0  0  0  0  0  0  0  0  0
   33.3490   98.0680   52.4280 C   0  0  0  0  0  0  0  0  0  0  0  0
   31.4240   95.7940   52.7110 O   0  0  0  0  0  0  0  0  0  0  0  0
   33.4770   96.6700   51.8850 C   0  0  2  0  0  0  0  0  0  0  0  0
   30.1780   97.4950   52.3080 O   0  0  0  0  0  0  0  0  0  0  0  0
   32.2790   95.7960   51.5470 C   0  0  1  0  0  0  0  0  0  0  0  0
   27.9250  100.2190   52.1270 O   0  0  0  0  0  0  0  0  0  0  0  0
   32.6710   94.3810   51.0550 C   0  0  0  0  0  0  0  0  0  0  0  0
   26.7570   98.4450   53.2410 O   0  0  0  0  0  0  0  0  0  0  0  0
   31.7110   93.5520   50.3000 C   0  0  0  0  0  0  0  0  0  0  0  0
   27.3610   95.7930   54.5490 O   0  0  0  0  0  0  0  0  0  0  0  0
   32.1340   92.1510   49.8530 C   0  0  0  0  0  0  0  0  0  0  0  0
   29.1560   94.3330   53.2870 O   0  0  0  0  0  0  0  0  0  0  0  0
   36.2610   95.1500   51.3400 C   0  0  0  0  0  0  0  0  0  0  0  0
   36.1610   95.2050   49.8370 C   0  0  0  0  0  0  0  0  0  0  0  0
   37.3740   95.5670   48.9980 C   0  0  0  0  0  0  0  0  0  0  0  0
   38.6890   95.8720   49.6670 C   0  0  0  0  0  0  0  0  0  0  0  0
   38.7990   95.8220   51.1690 C   0  0  0  0  0  0  0  0  0  0  0  0
   37.5870   95.4670   52.0010 C   0  0  0  0  0  0  0  0  0  0  0  0
   36.1210   95.1430   47.0200 C   0  0  0  0  0  0  0  0  0  0  0  0
   40.1570   96.3400   53.1420 C   0  0  0  0  0  0  0  0  0  0  0  0
   29.9540   96.1830   52.4220 C   0  0  2  0  0  0  0  0  0  0  0  0
   28.9070   98.1320   52.2650 C   0  0  2  0  0  0  0  0  0  0  0  0
   29.1250   99.4990   52.1800 C   0  0  0  0  0  0  0  0  0  0  0  0
   26.9340   99.8340   53.1230 C   0  0  2  0  0  0  0  0  0  0  0  0
   27.9470   97.8140   53.4340 C   0  0  2  0  0  0  0  0  0  0  0  0
   28.0430   96.2800   53.4510 C   0  0  1  0  0  0  0  0  0  0  0  0
   29.4140   95.7630   53.4390 C   0  0  1  0  0  0  0  0  0  0  0  0
   25.6110  100.4900   52.8570 C   0  0  0  0  0  0  0  0  0  0  0  0
   28.1450   98.2930   33.8050 C   0  0  0  0  0  0  0  0  0  0  0  0
   29.1660   99.1680   34.1740 O   0  0  0  0  0  0  0  0  0  0  0  0
   27.2460  100.2430   33.9950 C   0  0  0  0  0  0  0  0  0  0  0  0
   27.1730   99.1130   33.2490 O   0  0  0  0  0  0  0  0  0  0  0  0
   26.2360  101.3410   34.2500 C   0  0  0  0  0  0  0  0  0  0  0  0
   26.0650  106.5460   37.7640 O   0  0  0  0  0  0  0  0  0  0  0  0
   26.6200  102.4500   35.1530 C   0  0  0  0  0  0  0  0  0  0  0  0
   24.3530  106.4200   36.1190 O   0  0  0  0  0  0  0  0  0  0  0  0
   25.5820  103.6210   35.4410 C   0  0  2  0  0  0  0  0  0  0  0  0
   23.4860  100.1550   38.6560 O   0  0  0  0  0  0  0  0  0  0  0  0
   26.1680  104.8040   36.1270 C   0  0  1  0  0  0  0  0  0  0  0  0
   20.8970  101.4970   38.4650 O   0  0  0  0  0  0  0  0  0  0  0  0
   25.3730  106.0030   36.6090 C   0  0  0  0  0  0  0  0  0  0  0  0
   20.6280  103.8400   36.8190 O   0  0  0  0  0  0  0  0  0  0  0  0
   27.1590  105.6410   38.1060 C   0  0  0  0  0  0  0  0  0  0  0  0
   29.1350  104.6420   36.0760 O   0  0  0  0  0  0  0  0  0  0  0  0
   27.0560  104.4340   37.2180 C   0  0  2  0  0  0  0  0  0  0  0  0
   30.4140  105.2670   37.6810 O   0  0  0  0  0  0  0  0  0  0  0  0
   28.2650  103.6770   36.6920 C   0  0  1  0  0  0  0  0  0  0  0  0
   32.7920  106.6650   39.9270 O   0  0  0  0  0  0  0  0  0  0  0  0
   27.9060  102.4900   35.7750 C   0  0  0  0  0  0  0  0  0  0  0  0
   33.9090  106.4640   37.8570 O   0  0  0  0  0  0  0  0  0  0  0  0
   28.8810  101.4140   35.5170 C   0  0  0  0  0  0  0  0  0  0  0  0
   33.1900  106.1500   35.0000 O   0  0  0  0  0  0  0  0  0  0  0  0
   28.4910  100.2740   34.5800 C   0  0  0  0  0  0  0  0  0  0  0  0
   31.3310  104.2460   34.4920 O   0  0  0  0  0  0  0  0  0  0  0  0
   24.3840  103.0500   36.2350 C   0  0  0  0  0  0  0  0  0  0  0  0
   24.5400  101.8200   37.0950 C   0  0  0  0  0  0  0  0  0  0  0  0
   23.3490  101.2760   37.8640 C   0  0  0  0  0  0  0  0  0  0  0  0
   22.0120  101.9700   37.7630 C   0  0  0  0  0  0  0  0  0  0  0  0
   21.8710  103.1900   36.9050 C   0  0  0  0  0  0  0  0  0  0  0  0
   23.0480  103.7280   36.1360 C   0  0  0  0  0  0  0  0  0  0  0  0
   24.6740   99.4350   38.5980 C   0  0  0  0  0  0  0  0  0  0  0  0
   20.5860  105.1210   36.2460 C   0  0  0  0  0  0  0  0  0  0  0  0
   30.6080  104.5720   36.5500 C   0  0  2  0  0  0  0  0  0  0  0  0
   31.7040  105.5960   38.2010 C   0  0  2  0  0  0  0  0  0  0  0  0
   31.5540  106.3780   39.3320 C   0  0  0  0  0  0  0  0  0  0  0  0
   33.7680  107.2320   39.0250 C   0  0  2  0  0  0  0  0  0  0  0  0
   32.6990  106.2940   37.2540 C   0  0  2  0  0  0  0  0  0  0  0  0
   32.5540  105.4380   35.9890 C   0  0  1  0  0  0  0  0  0  0  0  0
   31.1620  105.1560   35.6130 C   0  0  1  0  0  0  0  0  0  0  0  0
   35.0870  107.4330   39.7100 C   0  0  0  0  0  0  0  0  0  0  0  0
   32.0908   89.3058   48.6233 H   0  0  0  0  0  0  0  0  0  0  0  0
   32.8163   90.6182   47.6825 H   0  0  0  0  0  0  0  0  0  0  0  0
   33.0053   91.2324   51.0877 H   0  0  0  0  0  0  0  0  0  0  0  0
   34.6327   91.9312   51.8520 H   0  0  0  0  0  0  0  0  0  0  0  0
   35.2134   92.6685   50.2401 H   0  0  0  0  0  0  0  0  0  0  0  0
   33.5872   93.4483   52.3116 H   0  0  0  0  0  0  0  0  0  0  0  0
   36.0058   96.8981   55.1124 H   0  0  0  0  0  0  0  0  0  0  0  0
   35.3407   94.1446   53.0356 H   0  0  0  0  0  0  0  0  0  0  0  0
   33.9116   95.4297   53.6112 H   0  0  0  0  0  0  0  0  0  0  0  0
   40.5532   96.4497   49.4972 H   0  0  0  0  0  0  0  0  0  0  0  0
   35.7932   97.2766   52.6199 H   0  0  0  0  0  0  0  0  0  0  0  0
   32.3950   98.1748   52.9650 H   0  0  0  0  0  0  0  0  0  0  0  0
   33.3701   98.8016   51.6086 H   0  0  0  0  0  0  0  0  0  0  0  0
   33.8127   96.8336   50.8503 H   0  0  0  0  0  0  0  0  0  0  0  0
   31.7345   96.2091   50.6851 H   0  0  0  0  0  0  0  0  0  0  0  0
   32.2745   93.9478   51.9851 H   0  0  0  0  0  0  0  0  0  0  0  0
   30.8195   93.4332   50.9333 H   0  0  0  0  0  0  0  0  0  0  0  0
   31.5730   94.1003   49.3564 H   0  0  0  0  0  0  0  0  0  0  0  0
   27.8019   96.1078   55.3776 H   0  0  0  0  0  0  0  0  0  0  0  0
   31.7464   91.7270   50.7911 H   0  0  0  0  0  0  0  0  0  0  0  0
   29.0805   93.9144   54.1810 H   0  0  0  0  0  0  0  0  0  0  0  0
   36.5433   94.0884   51.2824 H   0  0  0  0  0  0  0  0  0  0  0  0
   35.8345   94.2081   49.5059 H   0  0  0  0  0  0  0  0  0  0  0  0
   35.4788   96.0505   49.6646 H   0  0  0  0  0  0  0  0  0  0  0  0
   37.0984   96.6302   49.0584 H   0  0  0  0  0  0  0  0  0  0  0  0
   38.4078   96.9332   49.7360 H   0  0  0  0  0  0  0  0  0  0  0  0
   38.5057   96.8807   51.2257 H   0  0  0  0  0  0  0  0  0  0  0  0
   37.4072   96.3187   52.6735 H   0  0  0  0  0  0  0  0  0  0  0  0
   37.8723   94.5051   52.4520 H   0  0  0  0  0  0  0  0  0  0  0  0
   35.3980   94.8449   47.7936 H   0  0  0  0  0  0  0  0  0  0  0  0
   35.6825   95.9337   46.3935 H   0  0  0  0  0  0  0  0  0  0  0  0
   36.3672   94.2730   46.3935 H   0  0  0  0  0  0  0  0  0  0  0  0
   39.6761   95.5104   53.6809 H   0  0  0  0  0  0  0  0  0  0  0  0
   41.2217   96.3859   53.4144 H   0  0  0  0  0  0  0  0  0  0  0  0
   39.6677   97.2868   53.4144 H   0  0  0  0  0  0  0  0  0  0  0  0
   29.3411   95.8315   51.5789 H   0  0  0  0  0  0  0  0  0  0  0  0
   28.3853   97.7288   51.3845 H   0  0  0  0  0  0  0  0  0  0  0  0
   29.7064   99.7101   51.2703 H   0  0  0  0  0  0  0  0  0  0  0  0
   29.6702   99.8130   53.0823 H   0  0  0  0  0  0  0  0  0  0  0  0
   27.3384  100.1885   54.0826 H   0  0  0  0  0  0  0  0  0  0  0  0
   28.1647   98.1885   54.4451 H   0  0  0  0  0  0  0  0  0  0  0  0
   27.5852   95.9270   52.5152 H   0  0  0  0  0  0  0  0  0  0  0  0
   30.0411   96.0275   54.3032 H   0  0  0  0  0  0  0  0  0  0  0  0
   25.1230  100.7320   53.8127 H   0  0  0  0  0  0  0  0  0  0  0  0
   25.7690  101.4141   52.2817 H   0  0  0  0  0  0  0  0  0  0  0  0
   24.9711   99.8048   52.2817 H   0  0  0  0  0  0  0  0  0  0  0  0
   28.5065   97.5619   33.0669 H   0  0  0  0  0  0  0  0  0  0  0  0
   27.7647   97.7090   34.6561 H   0  0  0  0  0  0  0  0  0  0  0  0
   27.6254  100.7947   33.1222 H   0  0  0  0  0  0  0  0  0  0  0  0
   25.9851  101.7859   33.2758 H   0  0  0  0  0  0  0  0  0  0  0  0
   25.4115  100.8360   34.7745 H   0  0  0  0  0  0  0  0  0  0  0  0
   27.0159  103.0121   34.2943 H   0  0  0  0  0  0  0  0  0  0  0  0
   23.7229  106.6776   36.8378 H   0  0  0  0  0  0  0  0  0  0  0  0
   25.2479  104.0024   34.4648 H   0  0  0  0  0  0  0  0  0  0  0  0
   26.6325  105.1958   35.2101 H   0  0  0  0  0  0  0  0  0  0  0  0
   21.0651  101.5683   39.4380 H   0  0  0  0  0  0  0  0  0  0  0  0
   24.7874  105.3459   37.2688 H   0  0  0  0  0  0  0  0  0  0  0  0
   28.1240  106.1432   37.9432 H   0  0  0  0  0  0  0  0  0  0  0  0
   27.0943  105.3448   39.1634 H   0  0  0  0  0  0  0  0  0  0  0  0
   26.7057  103.6595   37.9161 H   0  0  0  0  0  0  0  0  0  0  0  0
   28.7862  103.1848   37.5263 H   0  0  0  0  0  0  0  0  0  0  0  0
   28.3076  103.0372   34.9094 H   0  0  0  0  0  0  0  0  0  0  0  0
   29.7792  101.8871   35.0934 H   0  0  0  0  0  0  0  0  0  0  0  0
   28.9998  100.9242   36.4948 H   0  0  0  0  0  0  0  0  0  0  0  0
   33.7901  106.8218   35.4108 H   0  0  0  0  0  0  0  0  0  0  0  0
   28.8831  100.8305   33.7160 H   0  0  0  0  0  0  0  0  0  0  0  0
   31.5008  103.3318   34.8318 H   0  0  0  0  0  0  0  0  0  0  0  0
   24.1173  102.4160   35.3766 H   0  0  0  0  0  0  0  0  0  0  0  0
   24.8872  101.0122   36.4340 H   0  0  0  0  0  0  0  0  0  0  0  0
   25.2243  102.1519   37.8897 H   0  0  0  0  0  0  0  0  0  0  0  0
   23.6112  101.9136   38.7211 H   0  0  0  0  0  0  0  0  0  0  0  0
   22.2791  102.6089   38.6177 H   0  0  0  0  0  0  0  0  0  0  0  0
   22.1432  103.8240   37.7617 H   0  0  0  0  0  0  0  0  0  0  0  0
   23.1943  104.7672   36.4657 H   0  0  0  0  0  0  0  0  0  0  0  0
   22.7597  103.5655   35.0870 H   0  0  0  0  0  0  0  0  0  0  0  0
   25.0243   99.2227   39.6189 H   0  0  0  0  0  0  0  0  0  0  0  0
   24.5033   98.4882   38.0646 H   0  0  0  0  0  0  0  0  0  0  0  0
   25.4343  100.0244   38.0646 H   0  0  0  0  0  0  0  0  0  0  0  0
   20.5612  105.8786   37.0431 H   0  0  0  0  0  0  0  0  0  0  0  0
   21.4796  105.2735   35.6230 H   0  0  0  0  0  0  0  0  0  0  0  0
   19.6843  105.2146   35.6230 H   0  0  0  0  0  0  0  0  0  0  0  0
   31.1814  103.6540   36.7463 H   0  0  0  0  0  0  0  0  0  0  0  0
   32.1588  104.6146   38.4012 H   0  0  0  0  0  0  0  0  0  0  0  0
   30.9250  105.8408   40.0571 H   0  0  0  0  0  0  0  0  0  0  0  0
   31.0855  107.3279   39.0350 H   0  0  0  0  0  0  0  0  0  0  0  0
   33.3944  108.2202   38.7185 H   0  0  0  0  0  0  0  0  0  0  0  0
   32.5239  107.3444   36.9782 H   0  0  0  0  0  0  0  0  0  0  0  0
   32.9930  104.4438   36.1587 H   0  0  0  0  0  0  0  0  0  0  0  0
   30.5591  106.0446   35.3746 H   0  0  0  0  0  0  0  0  0  0  0  0
   34.9412  107.4108   40.8001 H   0  0  0  0  0  0  0  0  0  0  0  0
   35.7789  106.6299   39.4162 H   0  0  0  0  0  0  0  0  0  0  0  0
   35.5083  108.4057   39.4162 H   0  0  0  0  0  0  0  0  0  0  0  0
  1  2  1  0
  1  4  1  0
  3  4  1  0
  3  5  1  0
  5  7  1  0
  7  9  1  0
  9 11  1  0
  6 13  1  0
  8 13  1  0
 11 13  1  0
  6 15  1  0
 11 17  1  0
 15 17  1  0
 16 19  1  0
 17 19  1  0
  7 21  1  0
 19 21  1  0
 21 23  1  0
  2 25  1  0
  3 25  1  0
 23 25  1  0
  9 27  1  0
 27 28  1  0
 10 29  1  0
 28 29  1  0
 12 30  1  0
 29 30  1  0
 14 31  1  0
 30 31  1  0
 27 32  1  0
 31 32  1  0
 10 33  1  0
 14 34  1  0
 16 35  1  0
 18 35  1  0
 18 36  1  0
 20 37  1  0
 36 37  1  0
 20 38  1  0
 22 38  1  0
 22 39  1  0
 36 39  1  0
 24 40  1  0
 39 40  1  0
 26 41  1  0
 35 41  1  0
 40 41  1  0
 38 42  1  0
 43 44  1  0
 43 46  1  0
 45 46  1  0
 45 47  1  0
 47 49  1  0
 49 51  1  0
 51 53  1  0
 48 55  1  0
 50 55  1  0
 53 55  1  0
 48 57  1  0
 53 59  1  0
 57 59  1  0
 58 61  1  0
 59 61  1  0
 49 63  1  0
 61 63  1  0
 63 65  1  0
 44 67  1  0
 45 67  1  0
 65 67  1  0
 51 69  1  0
 69 70  1  0
 52 71  1  0
 70 71  1  0
 54 72  1  0
 71 72  1  0
 56 73  1  0
 72 73  1  0
 69 74  1  0
 73 74  1  0
 52 75  1  0
 56 76  1  0
 58 77  1  0
 60 77  1  0
 60 78  1  0
 62 79  1  0
 78 79  1  0
 62 80  1  0
 64 80  1  0
 64 81  1  0
 78 81  1  0
 66 82  1  0
 81 82  1  0
 68 83  1  0
 77 83  1  0
 82 83  1  0
 80 84  1  0
  1 85  1  0
  1 86  1  0
  3 87  1  0
  5 88  1  0
  5 89  1  0
  7 90  1  0
  8 91  1  0
  9 92  1  1
 11 93  1  1
 12 94  1  0
 13 95  1  0
 15 96  1  0
 15 97  1  0
 17 98  1  6
 19 99  1  6
 21100  1  0
 23101  1  0
 23102  1  0
 24103  1  0
 25104  1  0
 26105  1  0
 27106  1  0
 28107  1  0
 28108  1  0
 29109  1  0
 30110  1  0
 31111  1  0
 32112  1  0
 32113  1  0
 33114  1  0
 33115  1  0
 33116  1  0
 34117  1  0
 34118  1  0
 34119  1  0
 35120  1  6
 36121  1  6
 37122  1  0
 37123  1  0
 38124  1  1
 39125  1  1
 40126  1  6
 41127  1  1
 42128  1  0
 42129  1  0
 42130  1  0
 43131  1  0
 43132  1  0
 45133  1  0
 47134  1  0
 47135  1  0
 49136  1  0
 50137  1  0
 51138  1  6
 53139  1  6
 54140  1  0
 55141  1  0
 57142  1  0
 57143  1  0
 59144  1  1
 61145  1  1
 63146  1  0
 65147  1  0
 65148  1  0
 66149  1  0
 67150  1  0
 68151  1  0
 69152  1  0
 70153  1  0
 70154  1  0
 71155  1  0
 72156  1  0
 73157  1  0
 74158  1  0
 74159  1  0
 75160  1  0
 75161  1  0
 75162  1  0
 76163  1  0
 76164  1  0
 76165  1  0
 77166  1  1
 78167  1  1
 79168  1  0
 79169  1  0
 80170  1  6
 81171  1  6
 82172  1  1
 83173  1  6
 84174  1  0
 84175  1  0
 84176  1  0
M  END
>  <PDBID>  (1) 
3QX3

>  <PDB ID>  (1) 
3QX3

>  <Generic Name>  (1) 
Etoposide

>  <Brand Name>  (1) 
Dom-etoposide#Eposin#Etopophos#Etoposide#Etoposide - Liq IV 20mg/ml#Etoposide Injection#Etoposide Injection USP#Etoposide Injection, USP#PMS-etoposide#Toposar#Vepesid#Vepesid Inj 20mg/ml#Etopofos#Lastet#Nexvep#Vepesid K#Vépéside

>  <DrugBank ID>  (1) 
DB00773

>  <ATC Codes>  (1) 
L01CB01

>  <Ligand ID>  (1) 
EVP

>  <Target Name>  (1) 
DNA topoisomerase 2-alpha

>  <UniProt ID>  (1) 
P11388

>  <PDB ID.1>  (1) 
3QX3

>  <Seq. Identity>  (1) 
78%

$$$$
