PDB_DB00188_83
     RDKit          3D

 53 54  0  0  0  0  0  0  0  0999 V2000
   59.4820 -156.1810   17.7050 N   0  0  0  0  0  0  0  0  0  0  0  0
   58.9880 -157.2520   17.0560 C   0  0  0  0  0  0  0  0  0  0  0  0
   59.5400 -158.5160   17.2760 C   0  0  0  0  0  0  0  0  0  0  0  0
   60.6030 -158.6720   18.1820 N   0  0  0  0  0  0  0  0  0  0  0  0
   61.1060 -157.5510   18.8560 C   0  0  0  0  0  0  0  0  0  0  0  0
   60.5420 -156.3050   18.6140 C   0  0  0  0  0  0  0  0  0  0  0  0
   57.9410 -157.0840   16.1500 C   0  0  0  0  0  0  0  0  0  0  0  0
   57.4400 -158.0530   15.5760 O   0  0  0  0  0  0  0  0  0  0  0  0
   57.5630 -155.8040   15.9490 N   0  0  0  0  0  0  0  0  0  0  0  0
   56.5150 -155.4370   14.9820 C   0  0  1  0  0  0  0  0  0  0  0  0
   55.8260 -154.1730   15.4550 C   0  0  0  0  0  0  0  0  0  0  0  0
   54.9770 -153.7210   14.4210 C   0  0  0  0  0  0  0  0  0  0  0  0
   53.8570 -154.4720   14.0540 C   0  0  0  0  0  0  0  0  0  0  0  0
   53.0140 -154.0320   13.0360 C   0  0  0  0  0  0  0  0  0  0  0  0
   53.2770 -152.8320   12.3770 C   0  0  0  0  0  0  0  0  0  0  0  0
   54.3860 -152.0730   12.7370 C   0  0  0  0  0  0  0  0  0  0  0  0
   55.2280 -152.5150   13.7550 C   0  0  0  0  0  0  0  0  0  0  0  0
   57.2380 -155.2250   13.6440 C   0  0  0  0  0  0  0  0  0  0  0  0
   58.2150 -154.4800   13.5840 O   0  0  0  0  0  0  0  0  0  0  0  0
   56.7540 -155.9240   12.6020 N   0  0  0  0  0  0  0  0  0  0  0  0
   57.3690 -155.8490   11.2620 C   0  0  1  0  0  0  0  0  0  0  0  0
   57.4650 -157.2210   10.6170 C   0  0  0  0  0  0  0  0  0  0  0  0
   58.0730 -158.2470   11.5930 C   0  0  0  0  0  0  0  0  0  0  0  0
   58.0470 -159.6200   10.8960 C   0  0  0  0  0  0  0  0  0  0  0  0
   59.5110 -157.8830   12.0050 C   0  0  0  0  0  0  0  0  0  0  0  0
   56.5380 -154.9670   10.3100 B   0  0  0  0  0  0  0  0  0  0  0  0
   56.5720 -153.5930   10.7240 O   0  0  0  0  0  0  0  0  0  0  0  0
   55.1780 -155.4360   10.2710 O   0  0  0  0  0  0  0  0  0  0  0  0
   59.1424 -159.3902   16.7396 H   0  0  0  0  0  0  0  0  0  0  0  0
   61.9376 -157.6566   19.5682 H   0  0  0  0  0  0  0  0  0  0  0  0
   60.9268 -155.4161   19.1353 H   0  0  0  0  0  0  0  0  0  0  0  0
   58.0233 -155.0585   16.4905 H   0  0  0  0  0  0  0  0  0  0  0  0
   55.7381 -156.2087   14.8779 H   0  0  0  0  0  0  0  0  0  0  0  0
   55.2335 -154.3868   16.3568 H   0  0  0  0  0  0  0  0  0  0  0  0
   56.5716 -153.4020   15.6993 H   0  0  0  0  0  0  0  0  0  0  0  0
   53.6395 -155.4173   14.5727 H   0  0  0  0  0  0  0  0  0  0  0  0
   52.1380 -154.6333   12.7512 H   0  0  0  0  0  0  0  0  0  0  0  0
   52.6092 -152.4861   11.5742 H   0  0  0  0  0  0  0  0  0  0  0  0
   54.5975 -151.1260   12.2189 H   0  0  0  0  0  0  0  0  0  0  0  0
   56.1010 -151.9091   14.0392 H   0  0  0  0  0  0  0  0  0  0  0  0
   55.9318 -156.5282   12.7427 H   0  0  0  0  0  0  0  0  0  0  0  0
   58.3708 -155.4207   11.4132 H   0  0  0  0  0  0  0  0  0  0  0  0
   56.4575 -157.5536   10.3266 H   0  0  0  0  0  0  0  0  0  0  0  0
   58.1158 -157.1487    9.7331 H   0  0  0  0  0  0  0  0  0  0  0  0
   57.4809 -158.2591   12.5200 H   0  0  0  0  0  0  0  0  0  0  0  0
   58.0319 -160.4162   11.6548 H   0  0  0  0  0  0  0  0  0  0  0  0
   57.1473 -159.6953   10.2677 H   0  0  0  0  0  0  0  0  0  0  0  0
   58.9432 -159.7293   10.2677 H   0  0  0  0  0  0  0  0  0  0  0  0
   59.5844 -157.8644   13.1024 H   0  0  0  0  0  0  0  0  0  0  0  0
   60.2084 -158.6329   11.6035 H   0  0  0  0  0  0  0  0  0  0  0  0
   59.7676 -156.8916   11.6035 H   0  0  0  0  0  0  0  0  0  0  0  0
   56.5732 -153.5462   11.7129 H   0  0  0  0  0  0  0  0  0  0  0  0
   54.8422 -155.5518   11.1951 H   0  0  0  0  0  0  0  0  0  0  0  0
  1  2  2  0
  2  3  1  0
  3  4  2  0
  4  5  1  0
  1  6  1  0
  5  6  2  0
  2  7  1  0
  7  8  2  0
  7  9  1  0
  9 10  1  0
 10 11  1  0
 11 12  1  0
 12 13  2  0
 13 14  1  0
 14 15  2  0
 15 16  1  0
 12 17  1  0
 16 17  2  0
 10 18  1  0
 18 19  2  0
 18 20  1  0
 20 21  1  0
 21 22  1  0
 22 23  1  0
 23 24  1  0
 23 25  1  0
 21 26  1  0
 26 27  1  0
 26 28  1  0
  3 29  1  0
  5 30  1  0
  6 31  1  0
  9 32  1  0
 10 33  1  6
 11 34  1  0
 11 35  1  0
 13 36  1  0
 14 37  1  0
 15 38  1  0
 16 39  1  0
 17 40  1  0
 20 41  1  0
 21 42  1  1
 22 43  1  0
 22 44  1  0
 23 45  1  0
 24 46  1  0
 24 47  1  0
 24 48  1  0
 25 49  1  0
 25 50  1  0
 25 51  1  0
 27 52  1  0
 28 53  1  0
M  END
$$$$
