PDB_DB00317_98
     RDKit          3D

 71 74  0  0  0  0  0  0  0  0999 V2000
  -45.3040   -2.9970  -16.8970 C   0  0  0  0  0  0  0  0  0  0  0  0
  -43.8270   -3.4930  -16.9960 C   0  0  0  0  0  0  0  0  0  0  0  0
  -43.2200   -3.2470  -18.3060 O   0  0  0  0  0  0  0  0  0  0  0  0
  -43.9940   -3.9060  -19.3500 C   0  0  0  0  0  0  0  0  0  0  0  0
  -45.4960   -3.4890  -19.3580 C   0  0  0  0  0  0  0  0  0  0  0  0
  -46.1610   -3.4980  -18.0110 N   0  0  0  0  0  0  0  0  0  0  0  0
  -47.4070   -2.6730  -18.0340 C   0  0  0  0  0  0  0  0  0  0  0  0
  -48.6050   -3.3750  -18.8720 C   0  0  0  0  0  0  0  0  0  0  0  0
  -49.3370   -2.1730  -19.9370 C   0  0  0  0  0  0  0  0  0  0  0  0
  -50.0110   -1.1150  -19.0520 O   0  0  0  0  0  0  0  0  0  0  0  0
  -51.0590   -0.4110  -19.6070 C   0  0  0  0  0  0  0  0  0  0  0  0
  -51.8510    0.3220  -18.7380 C   0  0  0  0  0  0  0  0  0  0  0  0
  -52.9420    1.0520  -19.2100 C   0  0  0  0  0  0  0  0  0  0  0  0
  -51.5280    0.2890  -17.4160 O   0  0  0  0  0  0  0  0  0  0  0  0
  -51.8800    1.5010  -16.6950 C   0  0  0  0  0  0  0  0  0  0  0  0
  -51.3720   -0.4090  -20.9680 C   0  0  0  0  0  0  0  0  0  0  0  0
  -52.4640    0.3240  -21.4520 C   0  0  0  0  0  0  0  0  0  0  0  0
  -53.2450    1.0570  -20.5630 C   0  0  0  0  0  0  0  0  0  0  0  0
  -54.2870    1.7660  -21.0240 N   0  0  0  0  0  0  0  0  0  0  0  0
  -54.5850    1.7670  -22.3190 C   0  0  0  0  0  0  0  0  0  0  0  0
  -53.8690    1.0820  -23.2060 N   0  0  0  0  0  0  0  0  0  0  0  0
  -52.8030    0.3520  -22.8180 C   0  0  0  0  0  0  0  0  0  0  0  0
  -52.0740   -0.3550  -23.7040 N   0  0  0  0  0  0  0  0  0  0  0  0
  -52.1840   -0.3870  -25.0470 C   0  0  0  0  0  0  0  0  0  0  0  0
  -52.1700    0.7900  -25.8000 C   0  0  0  0  0  0  0  0  0  0  0  0
  -52.2600    0.7300  -27.1910 C   0  0  0  0  0  0  0  0  0  0  0  0
  -52.2640    2.1910  -28.1230 Cl  0  0  0  0  0  0  0  0  0  0  0  0
  -52.3590   -0.4990  -27.8370 C   0  0  0  0  0  0  0  0  0  0  0  0
  -52.4480   -0.5200  -29.1770 F   0  0  0  0  0  0  0  0  0  0  0  0
  -52.3660   -1.6850  -27.0980 C   0  0  0  0  0  0  0  0  0  0  0  0
  -52.2700   -1.6270  -25.7050 C   0  0  0  0  0  0  0  0  0  0  0  0
  -45.7281   -3.3457  -15.9438 H   0  0  0  0  0  0  0  0  0  0  0  0
  -45.2883   -1.8990  -16.9609 H   0  0  0  0  0  0  0  0  0  0  0  0
  -43.2317   -2.9717  -16.2319 H   0  0  0  0  0  0  0  0  0  0  0  0
  -43.8379   -4.5820  -16.8412 H   0  0  0  0  0  0  0  0  0  0  0  0
  -43.5549   -3.6493  -20.3253 H   0  0  0  0  0  0  0  0  0  0  0  0
  -43.9564   -4.9872  -19.1511 H   0  0  0  0  0  0  0  0  0  0  0  0
  -45.5658   -2.4702  -19.7670 H   0  0  0  0  0  0  0  0  0  0  0  0
  -46.0217   -4.2391  -19.9671 H   0  0  0  0  0  0  0  0  0  0  0  0
  -47.7454   -2.5172  -16.9990 H   0  0  0  0  0  0  0  0  0  0  0  0
  -47.1669   -1.7211  -18.5302 H   0  0  0  0  0  0  0  0  0  0  0  0
  -48.1999   -4.2028  -19.4726 H   0  0  0  0  0  0  0  0  0  0  0  0
  -49.3626   -3.7705  -18.1795 H   0  0  0  0  0  0  0  0  0  0  0  0
  -48.5618   -1.7023  -20.5595 H   0  0  0  0  0  0  0  0  0  0  0  0
  -50.0744   -2.6456  -20.6024 H   0  0  0  0  0  0  0  0  0  0  0  0
  -51.7164   -1.2824  -19.4711 H   0  0  0  0  0  0  0  0  0  0  0  0
  -51.2016    1.1976  -18.8848 H   0  0  0  0  0  0  0  0  0  0  0  0
  -53.8304    0.6668  -18.6880 H   0  0  0  0  0  0  0  0  0  0  0  0
  -52.6496    2.0943  -19.0147 H   0  0  0  0  0  0  0  0  0  0  0  0
  -51.8253    1.3127  -15.6126 H   0  0  0  0  0  0  0  0  0  0  0  0
  -51.1780    2.3043  -16.9634 H   0  0  0  0  0  0  0  0  0  0  0  0
  -52.9030    1.8033  -16.9634 H   0  0  0  0  0  0  0  0  0  0  0  0
  -50.4827   -0.0313  -21.4939 H   0  0  0  0  0  0  0  0  0  0  0  0
  -51.6769   -1.4501  -21.1499 H   0  0  0  0  0  0  0  0  0  0  0  0
  -53.1159   -0.5496  -21.3043 H   0  0  0  0  0  0  0  0  0  0  0  0
  -52.5899    1.9290  -20.7065 H   0  0  0  0  0  0  0  0  0  0  0  0
  -55.1213    1.4185  -20.5300 H   0  0  0  0  0  0  0  0  0  0  0  0
  -55.6157    1.3910  -22.3984 H   0  0  0  0  0  0  0  0  0  0  0  0
  -54.3734    2.8080  -22.6047 H   0  0  0  0  0  0  0  0  0  0  0  0
  -54.5192    0.4299  -23.6675 H   0  0  0  0  0  0  0  0  0  0  0  0
  -53.4543   -0.5227  -22.6743 H   0  0  0  0  0  0  0  0  0  0  0  0
  -51.1021   -0.0608  -23.5316 H   0  0  0  0  0  0  0  0  0  0  0  0
  -53.2783   -0.3177  -24.9590 H   0  0  0  0  0  0  0  0  0  0  0  0
  -53.0179    1.3989  -25.4530 H   0  0  0  0  0  0  0  0  0  0  0  0
  -51.1585    1.1870  -25.6293 H   0  0  0  0  0  0  0  0  0  0  0  0
  -53.3570    0.7711  -27.1218 H   0  0  0  0  0  0  0  0  0  0  0  0
  -53.4555   -0.4485  -27.7650 H   0  0  0  0  0  0  0  0  0  0  0  0
  -53.3075   -2.2030  -27.3328 H   0  0  0  0  0  0  0  0  0  0  0  0
  -51.4340   -2.1845  -27.4012 H   0  0  0  0  0  0  0  0  0  0  0  0
  -51.3696   -2.1945  -25.4271 H   0  0  0  0  0  0  0  0  0  0  0  0
  -53.2438   -2.0164  -25.3732 H   0  0  0  0  0  0  0  0  0  0  0  0
  1  2  1  0
  2  3  1  0
  3  4  1  0
  4  5  1  0
  1  6  1  0
  5  6  1  0
  6  7  1  0
  7  8  1  0
  8  9  1  0
  9 10  1  0
 10 11  1  0
 11 12  1  0
 12 13  1  0
 12 14  1  0
 14 15  1  0
 11 16  1  0
 16 17  1  0
 13 18  1  0
 17 18  1  0
 18 19  1  0
 19 20  1  0
 20 21  1  0
 17 22  1  0
 21 22  1  0
 22 23  1  0
 23 24  1  0
 24 25  1  0
 25 26  1  0
 26 27  1  0
 26 28  1  0
 28 29  1  0
 28 30  1  0
 24 31  1  0
 30 31  1  0
  1 32  1  0
  1 33  1  0
  2 34  1  0
  2 35  1  0
  4 36  1  0
  4 37  1  0
  5 38  1  0
  5 39  1  0
  7 40  1  0
  7 41  1  0
  8 42  1  0
  8 43  1  0
  9 44  1  0
  9 45  1  0
 11 46  1  0
 12 47  1  0
 13 48  1  0
 13 49  1  0
 15 50  1  0
 15 51  1  0
 15 52  1  0
 16 53  1  0
 16 54  1  0
 17 55  1  0
 18 56  1  0
 19 57  1  0
 20 58  1  0
 20 59  1  0
 21 60  1  0
 22 61  1  0
 23 62  1  0
 24 63  1  0
 25 64  1  0
 25 65  1  0
 26 66  1  0
 28 67  1  0
 30 68  1  0
 30 69  1  0
 31 70  1  0
 31 71  1  0
M  END
>  <PDBID>  (1) 
2ITY

>  <PDB ID>  (1) 
2ITY

>  <Generic Name>  (1) 
Gefitinib

>  <Brand Name>  (1) 
Iressa

>  <DrugBank ID>  (1) 
DB00317

>  <ATC Codes>  (1) 
L01XE02

>  <Ligand ID>  (1) 
IRE

>  <Target Name>  (1) 
Epidermal growth factor receptor

>  <UniProt ID>  (1) 
P00533

>  <PDB ID.1>  (1) 
2ITY

>  <Seq. Identity>  (1) 
96%

$$$$
