PDB_DB01283_96
     RDKit          3D

 33 34  0  0  0  0  0  0  0  0999 V2000
   67.1890  -48.2020  -26.0460 O   0  0  0  0  0  0  0  0  0  0  0  0
   67.1950  -48.8640  -24.8950 C   0  0  0  0  0  0  0  0  0  0  0  0
   66.1400  -49.0250  -24.3120 O   0  0  0  0  0  0  0  0  0  0  0  0
   68.4770  -49.4130  -24.3170 C   0  0  0  0  0  0  0  0  0  0  0  0
   68.8840  -48.6200  -23.0990 C   0  0  0  0  0  0  0  0  0  0  0  0
   69.2340  -47.2820  -23.2140 C   0  0  0  0  0  0  0  0  0  0  0  0
   69.6130  -46.5680  -22.0830 C   0  0  0  0  0  0  0  0  0  0  0  0
   69.9880  -45.1170  -22.2190 C   0  0  0  0  0  0  0  0  0  0  0  0
   69.6510  -47.1740  -20.8310 C   0  0  0  0  0  0  0  0  0  0  0  0
   69.3120  -48.5120  -20.6660 C   0  0  0  0  0  0  0  0  0  0  0  0
   68.9290  -49.2680  -21.7660 C   0  0  0  0  0  0  0  0  0  0  0  0
   68.5920  -50.5710  -21.6510 N   0  0  0  0  0  0  0  0  0  0  0  0
   68.6250  -51.2340  -20.4730 C   0  0  0  0  0  0  0  0  0  0  0  0
   67.3700  -51.6710  -19.8160 C   0  0  0  0  0  0  0  0  0  0  0  0
   65.7760  -51.3170  -20.5620 Cl  0  0  0  0  0  0  0  0  0  0  0  0
   67.4440  -52.3580  -18.6100 C   0  0  0  0  0  0  0  0  0  0  0  0
   68.6740  -52.6390  -18.0190 C   0  0  0  0  0  0  0  0  0  0  0  0
   69.8810  -52.2540  -18.5980 C   0  0  0  0  0  0  0  0  0  0  0  0
   69.9080  -51.5650  -19.8040 C   0  0  0  0  0  0  0  0  0  0  0  0
   71.0810  -51.1950  -20.3470 F   0  0  0  0  0  0  0  0  0  0  0  0
   66.1194  -49.5154  -23.4522 H   0  0  0  0  0  0  0  0  0  0  0  0
   68.3254  -50.4644  -24.0315 H   0  0  0  0  0  0  0  0  0  0  0  0
   69.2715  -49.3390  -25.0742 H   0  0  0  0  0  0  0  0  0  0  0  0
   69.2116  -46.7881  -24.1967 H   0  0  0  0  0  0  0  0  0  0  0  0
   70.1028  -44.6727  -21.2193 H   0  0  0  0  0  0  0  0  0  0  0  0
   70.9372  -45.0336  -22.7686 H   0  0  0  0  0  0  0  0  0  0  0  0
   69.1981  -44.5841  -22.7686 H   0  0  0  0  0  0  0  0  0  0  0  0
   69.9552  -46.5828  -19.9547 H   0  0  0  0  0  0  0  0  0  0  0  0
   69.3470  -48.9706  -19.6668 H   0  0  0  0  0  0  0  0  0  0  0  0
   68.2975  -51.0809  -22.4961 H   0  0  0  0  0  0  0  0  0  0  0  0
   66.5177  -52.6847  -18.1148 H   0  0  0  0  0  0  0  0  0  0  0  0
   68.6926  -53.1831  -17.0632 H   0  0  0  0  0  0  0  0  0  0  0  0
   70.8269  -52.4992  -18.0928 H   0  0  0  0  0  0  0  0  0  0  0  0
  1  2  2  0
  2  3  1  0
  2  4  1  0
  4  5  1  0
  5  6  2  0
  6  7  1  0
  7  8  1  0
  7  9  2  0
  9 10  1  0
  5 11  1  0
 10 11  2  0
 11 12  1  0
 12 13  1  0
 13 14  2  0
 14 15  1  0
 14 16  1  0
 16 17  2  0
 17 18  1  0
 13 19  1  0
 18 19  2  0
 19 20  1  0
  3 21  1  0
  4 22  1  0
  4 23  1  0
  6 24  1  0
  8 25  1  0
  8 26  1  0
  8 27  1  0
  9 28  1  0
 10 29  1  0
 12 30  1  0
 16 31  1  0
 17 32  1  0
 18 33  1  0
M  END
$$$$
