PDB_DB00299_99
     RDKit          3D

 82 84  0  0  0  0  0  0  0  0999 V2000
   43.7820   84.9180   54.0320 C   0  0  0  0  0  0  0  0  0  0  0  0
   45.5620   85.1640   55.3970 C   0  0  0  0  0  0  0  0  0  0  0  0
   44.8980   86.0070   56.2830 C   0  0  0  0  0  0  0  0  0  0  0  0
   50.0930   82.1860   53.3420 C   0  0  0  0  0  0  0  0  0  0  0  0
   51.0830   81.4290   54.0660 O   0  0  0  0  0  0  0  0  0  0  0  0
   50.8880   84.1840   54.2580 C   0  0  0  0  0  0  0  0  0  0  0  0
   51.3170   84.3360   52.8480 O   0  0  0  0  0  0  0  0  0  0  0  0
   49.7830   83.2010   54.3400 C   0  0  1  0  0  0  0  0  0  0  0  0
   48.4790   83.8510   54.0490 C   0  0  0  0  0  0  0  0  0  0  0  0
   47.9910   84.1700   55.4610 C   0  0  0  0  0  0  0  0  0  0  0  0
   46.8390   84.9920   55.9310 N   0  0  0  0  0  0  0  0  0  0  0  0
   45.0750   84.5790   54.2330 N   0  0  0  0  0  0  0  0  0  0  0  0
   43.1930   84.3930   52.9340 N   0  0  0  0  0  0  0  0  0  0  0  0
   43.0530   85.7900   54.8810 N   0  0  0  0  0  0  0  0  0  0  0  0
   43.5490   86.3930   56.0470 C   0  0  0  0  0  0  0  0  0  0  0  0
   42.9050   87.1620   56.7820 O   0  0  0  0  0  0  0  0  0  0  0  0
   45.7270   86.3800   57.3400 N   0  0  0  0  0  0  0  0  0  0  0  0
   46.8010   85.7380   57.0630 C   0  0  0  0  0  0  0  0  0  0  0  0
   23.5730   95.2450   44.6590 C   0  0  0  0  0  0  0  0  0  0  0  0
   22.2070   96.8390   44.4260 C   0  0  0  0  0  0  0  0  0  0  0  0
   23.1810   97.8190   44.4520 C   0  0  0  0  0  0  0  0  0  0  0  0
   16.7320   96.4120   44.6480 C   0  0  0  0  0  0  0  0  0  0  0  0
   16.6430   95.5310   45.7600 O   0  0  0  0  0  0  0  0  0  0  0  0
   17.6540   98.5360   43.9530 C   0  0  0  0  0  0  0  0  0  0  0  0
   18.6100   99.5320   44.2130 O   0  0  0  0  0  0  0  0  0  0  0  0
   17.5470   97.6070   45.1220 C   0  0  2  0  0  0  0  0  0  0  0  0
   18.9590   97.1830   45.4080 C   0  0  0  0  0  0  0  0  0  0  0  0
   19.6770   96.8060   44.1440 C   0  0  0  0  0  0  0  0  0  0  0  0
   20.9920   97.4560   44.2730 N   0  0  0  0  0  0  0  0  0  0  0  0
   22.3140   95.5410   44.5270 N   0  0  0  0  0  0  0  0  0  0  0  0
   23.8080   93.9400   44.7750 N   0  0  0  0  0  0  0  0  0  0  0  0
   24.6270   96.1300   44.7230 N   0  0  0  0  0  0  0  0  0  0  0  0
   24.5750   97.4900   44.6340 C   0  0  0  0  0  0  0  0  0  0  0  0
   25.6150   98.2070   44.7220 O   0  0  0  0  0  0  0  0  0  0  0  0
   22.5710   99.0850   44.3310 N   0  0  0  0  0  0  0  0  0  0  0  0
   21.3140   98.7820   44.2300 C   0  0  0  0  0  0  0  0  0  0  0  0
   44.1022   85.7902   53.4432 H   0  0  0  0  0  0  0  0  0  0  0  0
   45.9164   86.0381   54.8310 H   0  0  0  0  0  0  0  0  0  0  0  0
   45.2476   86.8808   55.7136 H   0  0  0  0  0  0  0  0  0  0  0  0
   50.5063   82.6277   52.4232 H   0  0  0  0  0  0  0  0  0  0  0  0
   49.2305   81.6044   52.9846 H   0  0  0  0  0  0  0  0  0  0  0  0
   50.9372   81.5405   55.0388 H   0  0  0  0  0  0  0  0  0  0  0  0
   51.7367   83.8315   54.8625 H   0  0  0  0  0  0  0  0  0  0  0  0
   50.5408   85.1553   54.6401 H   0  0  0  0  0  0  0  0  0  0  0  0
   52.2498   84.6665   52.8207 H   0  0  0  0  0  0  0  0  0  0  0  0
   49.6957   82.7662   55.3466 H   0  0  0  0  0  0  0  0  0  0  0  0
   48.6077   84.7646   53.4500 H   0  0  0  0  0  0  0  0  0  0  0  0
   47.7862   83.2335   53.4584 H   0  0  0  0  0  0  0  0  0  0  0  0
   47.8102   83.1813   55.9080 H   0  0  0  0  0  0  0  0  0  0  0  0
   48.7849   84.8854   55.7217 H   0  0  0  0  0  0  0  0  0  0  0  0
   45.1473   83.5547   54.3137 H   0  0  0  0  0  0  0  0  0  0  0  0
   42.4547   83.7350   53.2219 H   0  0  0  0  0  0  0  0  0  0  0  0
   42.7782   85.1498   52.3718 H   0  0  0  0  0  0  0  0  0  0  0  0
   42.7521   86.5690   54.2781 H   0  0  0  0  0  0  0  0  0  0  0  0
   43.8983   87.2514   55.4545 H   0  0  0  0  0  0  0  0  0  0  0  0
   43.0883   86.9431   57.7299 H   0  0  0  0  0  0  0  0  0  0  0  0
   45.8889   87.3971   57.3500 H   0  0  0  0  0  0  0  0  0  0  0  0
   46.9989   85.0589   57.9054 H   0  0  0  0  0  0  0  0  0  0  0  0
   47.5471   86.5272   56.8886 H   0  0  0  0  0  0  0  0  0  0  0  0
   23.4772   95.3249   45.7519 H   0  0  0  0  0  0  0  0  0  0  0  0
   22.1057   96.9106   45.5190 H   0  0  0  0  0  0  0  0  0  0  0  0
   23.0603   97.9101   45.5416 H   0  0  0  0  0  0  0  0  0  0  0  0
   17.2367   95.9151   43.8064 H   0  0  0  0  0  0  0  0  0  0  0  0
   15.7357   96.7184   44.2966 H   0  0  0  0  0  0  0  0  0  0  0  0
   16.6957   96.0529   46.5996 H   0  0  0  0  0  0  0  0  0  0  0  0
   16.6769   99.0079   43.7729 H   0  0  0  0  0  0  0  0  0  0  0  0
   17.9629   97.9637   43.0658 H   0  0  0  0  0  0  0  0  0  0  0  0
   18.7149   99.6413   45.1913 H   0  0  0  0  0  0  0  0  0  0  0  0
   17.0765   98.0484   46.0129 H   0  0  0  0  0  0  0  0  0  0  0  0
   19.4932   98.0150   45.8901 H   0  0  0  0  0  0  0  0  0  0  0  0
   18.9328   96.3049   46.0700 H   0  0  0  0  0  0  0  0  0  0  0  0
   19.7865   95.7141   44.0675 H   0  0  0  0  0  0  0  0  0  0  0  0
   19.1359   97.1217   43.2398 H   0  0  0  0  0  0  0  0  0  0  0  0
   21.9379   95.0934   43.6790 H   0  0  0  0  0  0  0  0  0  0  0  0
   23.8536   93.6867   45.7723 H   0  0  0  0  0  0  0  0  0  0  0  0
   23.0484   93.4127   44.3212 H   0  0  0  0  0  0  0  0  0  0  0  0
   25.0731   95.9426   45.6323 H   0  0  0  0  0  0  0  0  0  0  0  0
   24.4483   97.5565   45.7247 H   0  0  0  0  0  0  0  0  0  0  0  0
   25.8326   98.3570   45.6761 H   0  0  0  0  0  0  0  0  0  0  0  0
   22.7484   99.6649   45.1636 H   0  0  0  0  0  0  0  0  0  0  0  0
   20.9523   99.1807   43.2707 H   0  0  0  0  0  0  0  0  0  0  0  0
   20.8413   99.2205   45.1212 H   0  0  0  0  0  0  0  0  0  0  0  0
  2  3  1  0
  4  5  1  0
  6  7  1  0
  4  8  1  0
  6  8  1  0
  8  9  1  0
  9 10  1  0
  2 11  1  0
 10 11  1  0
  1 12  1  0
  2 12  1  0
  1 13  1  0
  1 14  1  0
  3 15  1  0
 14 15  1  0
 15 16  1  0
  3 17  1  0
 11 18  1  0
 17 18  1  0
 20 21  1  0
 22 23  1  0
 24 25  1  0
 22 26  1  0
 24 26  1  0
 26 27  1  0
 27 28  1  0
 20 29  1  0
 28 29  1  0
 19 30  1  0
 20 30  1  0
 19 31  1  0
 19 32  1  0
 21 33  1  0
 32 33  1  0
 33 34  1  0
 21 35  1  0
 29 36  1  0
 35 36  1  0
  1 37  1  0
  2 38  1  0
  3 39  1  0
  4 40  1  0
  4 41  1  0
  5 42  1  0
  6 43  1  0
  6 44  1  0
  7 45  1  0
  8 46  1  1
  9 47  1  0
  9 48  1  0
 10 49  1  0
 10 50  1  0
 12 51  1  0
 13 52  1  0
 13 53  1  0
 14 54  1  0
 15 55  1  0
 16 56  1  0
 17 57  1  0
 18 58  1  0
 18 59  1  0
 19 60  1  0
 20 61  1  0
 21 62  1  0
 22 63  1  0
 22 64  1  0
 23 65  1  0
 24 66  1  0
 24 67  1  0
 25 68  1  0
 26 69  1  1
 27 70  1  0
 27 71  1  0
 28 72  1  0
 28 73  1  0
 30 74  1  0
 31 75  1  0
 31 76  1  0
 32 77  1  0
 33 78  1  0
 34 79  1  0
 35 80  1  0
 36 81  1  0
 36 82  1  0
M  END
>  <PDBID>  (1) 
1KI3

>  <PDB ID>  (1) 
1KI3

>  <Generic Name>  (1) 
Penciclovir

>  <Brand Name>  (1) 
Denavir#Penciclovir

>  <DrugBank ID>  (1) 
DB00299

>  <ATC Codes>  (1) 
D06BB06#J05AB13

>  <Ligand ID>  (1) 
PE2

>  <Target Name>  (1) 
Thymidine kinase

>  <UniProt ID>  (1) 
P06478

>  <PDB ID.1>  (1) 
1KI3

>  <Seq. Identity>  (1) 
98%

$$$$
