PDB_DB06243_99
     RDKit          3D

 76 72  0  0  0  0  0  0  0  0999 V2000
   14.0720   -2.8440   -3.7440 C   0  0  1  0  0  0  0  0  0  0  0  0
   15.2920   -2.2790   -2.9870 C   0  0  0  0  0  3  0  0  0  0  0  0
   13.6570   -4.2670   -3.5000 N   0  0  0  0  0  2  0  0  0  0  0  0
   13.3140   -2.0600   -4.8170 C   0  0  0  0  0  0  0  0  0  0  0  0
   13.2130   -0.5380   -4.8160 C   0  0  0  0  0  0  0  0  0  0  0  0
   12.0550   -0.0370   -5.6910 C   0  0  0  0  0  0  0  0  0  0  0  0
   12.3400    1.3530   -6.1670 N   0  0  0  0  0  0  0  0  0  0  0  0
   19.6630   24.0160   -3.7760 C   0  0  0  0  0  0  0  0  0  0  0  0
   18.4340   23.5320   -2.9800 C   0  0  0  0  0  3  0  0  0  0  0  0
   20.1440   25.4030   -3.5340 N   0  0  0  0  0  2  0  0  0  0  0  0
   20.4400   23.2160   -4.8270 C   0  0  0  0  0  0  0  0  0  0  0  0
   20.2080   21.7400   -5.0630 C   0  0  0  0  0  0  0  0  0  0  0  0
   21.4670   21.0350   -5.5880 C   0  0  0  0  0  0  0  0  0  0  0  0
   21.1010   19.7840   -6.3420 N   0  0  0  0  0  0  0  0  0  0  0  0
   13.5480   53.3840   34.8070 C   0  0  1  0  0  0  0  0  0  0  0  0
   14.7530   53.8350   35.6570 C   0  0  0  0  0  3  0  0  0  0  0  0
   13.0270   52.0000   35.0420 N   0  0  0  0  0  2  0  0  0  0  0  0
   12.8690   54.1730   33.6900 C   0  0  0  0  0  0  0  0  0  0  0  0
   12.8340   55.6980   33.6550 C   0  0  0  0  0  0  0  0  0  0  0  0
   11.6060   56.1650   32.8440 C   0  0  0  0  0  0  0  0  0  0  0  0
   11.9580   57.4630   32.1560 N   0  0  0  0  0  0  0  0  0  0  0  0
   18.9080   80.1960   34.8280 C   0  0  1  0  0  0  0  0  0  0  0  0
   17.6630   79.6750   35.5990 C   0  0  0  0  0  3  0  0  0  0  0  0
   19.2110   81.6570   34.9610 N   0  0  0  0  0  2  0  0  0  0  0  0
   19.7610   79.3860   33.8840 C   0  0  0  0  0  0  0  0  0  0  0  0
   19.6760   77.9220   33.5920 C   0  0  0  0  0  0  0  0  0  0  0  0
   20.8940   77.4730   32.7480 C   0  0  0  0  0  0  0  0  0  0  0  0
   20.8130   75.9920   32.5290 N   0  0  0  0  0  0  0  0  0  0  0  0
   14.7316   -3.1762   -4.5592 H   0  0  0  0  0  0  0  0  0  0  0  0
   15.1202   -2.3586   -1.9034 H   0  0  0  0  0  0  0  0  0  0  0  0
   16.1902   -2.8528   -3.2590 H   0  0  0  0  0  0  0  0  0  0  0  0
   13.6063   -4.4408   -2.4860 H   0  0  0  0  0  0  0  0  0  0  0  0
   13.7779   -2.3326   -5.7764 H   0  0  0  0  0  0  0  0  0  0  0  0
   12.2736   -2.3504   -4.6089 H   0  0  0  0  0  0  0  0  0  0  0  0
   13.0527   -0.1936   -3.7837 H   0  0  0  0  0  0  0  0  0  0  0  0
   14.1495   -0.1354   -5.2293 H   0  0  0  0  0  0  0  0  0  0  0  0
   11.9390   -0.7030   -6.5588 H   0  0  0  0  0  0  0  0  0  0  0  0
   11.1285   -0.0337   -5.0981 H   0  0  0  0  0  0  0  0  0  0  0  0
   12.4674    1.9744   -5.3555 H   0  0  0  0  0  0  0  0  0  0  0  0
   13.1982    1.3517   -6.7365 H   0  0  0  0  0  0  0  0  0  0  0  0
   19.0012   24.3847   -4.5736 H   0  0  0  0  0  0  0  0  0  0  0  0
   18.6399   23.6131   -1.9025 H   0  0  0  0  0  0  0  0  0  0  0  0
   17.5637   24.1545   -3.2349 H   0  0  0  0  0  0  0  0  0  0  0  0
   20.2032   25.5738   -2.5200 H   0  0  0  0  0  0  0  0  0  0  0  0
   20.2501   23.7124   -5.7901 H   0  0  0  0  0  0  0  0  0  0  0  0
   21.4560   23.2189   -4.4054 H   0  0  0  0  0  0  0  0  0  0  0  0
   19.9088   21.2716   -4.1138 H   0  0  0  0  0  0  0  0  0  0  0  0
   19.4201   21.6380   -5.8237 H   0  0  0  0  0  0  0  0  0  0  0  0
   22.0086   21.7165   -6.2604 H   0  0  0  0  0  0  0  0  0  0  0  0
   22.1010   20.7596   -4.7323 H   0  0  0  0  0  0  0  0  0  0  0  0
   20.8810   19.0321   -5.6733 H   0  0  0  0  0  0  0  0  0  0  0  0
   20.2787   19.9683   -6.9342 H   0  0  0  0  0  0  0  0  0  0  0  0
   14.2343   52.9954   34.0402 H   0  0  0  0  0  0  0  0  0  0  0  0
   14.5041   53.7419   36.7244 H   0  0  0  0  0  0  0  0  0  0  0  0
   15.6220   53.2013   35.4265 H   0  0  0  0  0  0  0  0  0  0  0  0
   12.9612   51.8253   36.0549 H   0  0  0  0  0  0  0  0  0  0  0  0
   13.3583   53.8592   32.7561 H   0  0  0  0  0  0  0  0  0  0  0  0
   11.8096   53.9316   33.8615 H   0  0  0  0  0  0  0  0  0  0  0  0
   12.7652   56.0870   34.6816 H   0  0  0  0  0  0  0  0  0  0  0  0
   13.7521   56.0755   33.1811 H   0  0  0  0  0  0  0  0  0  0  0  0
   11.3451   55.4047   32.0930 H   0  0  0  0  0  0  0  0  0  0  0  0
   10.7441   56.3114   33.5116 H   0  0  0  0  0  0  0  0  0  0  0  0
   12.1538   58.1849   32.8642 H   0  0  0  0  0  0  0  0  0  0  0  0
   12.7918   57.3245   31.5674 H   0  0  0  0  0  0  0  0  0  0  0  0
   18.2772   80.4066   33.9518 H   0  0  0  0  0  0  0  0  0  0  0  0
   17.8439   79.7507   36.6814 H   0  0  0  0  0  0  0  0  0  0  0  0
   16.7853   80.2813   35.3306 H   0  0  0  0  0  0  0  0  0  0  0  0
   19.2629   81.9074   35.9587 H   0  0  0  0  0  0  0  0  0  0  0  0
   19.6329   79.8728   32.9059 H   0  0  0  0  0  0  0  0  0  0  0  0
   20.6956   79.3854   34.4641 H   0  0  0  0  0  0  0  0  0  0  0  0
   19.6644   77.3627   34.5392 H   0  0  0  0  0  0  0  0  0  0  0  0
   18.7541   77.7220   33.0262 H   0  0  0  0  0  0  0  0  0  0  0  0
   20.8821   77.9910   31.7777 H   0  0  0  0  0  0  0  0  0  0  0  0
   21.8260   77.7213   33.2768 H   0  0  0  0  0  0  0  0  0  0  0  0
   20.7867   75.5112   33.4395 H   0  0  0  0  0  0  0  0  0  0  0  0
   19.9586   75.7696   31.9985 H   0  0  0  0  0  0  0  0  0  0  0  0
  1  2  1  0
  1  3  1  0
  1  4  1  0
  4  5  1  0
  5  6  1  0
  6  7  1  0
  8  9  1  0
  8 10  1  0
  8 11  1  0
 11 12  1  0
 12 13  1  0
 13 14  1  0
 15 16  1  0
 15 17  1  0
 15 18  1  0
 18 19  1  0
 19 20  1  0
 20 21  1  0
 22 23  1  0
 22 24  1  0
 22 25  1  0
 25 26  1  0
 26 27  1  0
 27 28  1  0
  1 29  1  1
  2 30  1  0
  2 31  1  0
  3 32  1  0
  4 33  1  0
  4 34  1  0
  5 35  1  0
  5 36  1  0
  6 37  1  0
  6 38  1  0
  7 39  1  0
  7 40  1  0
  8 41  1  0
  9 42  1  0
  9 43  1  0
 10 44  1  0
 11 45  1  0
 11 46  1  0
 12 47  1  0
 12 48  1  0
 13 49  1  0
 13 50  1  0
 14 51  1  0
 14 52  1  0
 15 53  1  1
 16 54  1  0
 16 55  1  0
 17 56  1  0
 18 57  1  0
 18 58  1  0
 19 59  1  0
 19 60  1  0
 20 61  1  0
 20 62  1  0
 21 63  1  0
 21 64  1  0
 22 65  1  1
 23 66  1  0
 23 67  1  0
 24 68  1  0
 25 69  1  0
 25 70  1  0
 26 71  1  0
 26 72  1  0
 27 73  1  0
 27 74  1  0
 28 75  1  0
 28 76  1  0
M  RAD  8   2   2   3   2   9   2  10   2  16   2  17   2  23   2  24   2
M  END
>  <PDBID>  (1) 
2TOD

>  <PDB ID>  (1) 
2TOD

>  <Generic Name>  (1) 
Eflornithine

>  <Brand Name>  (1) 
Vaniqa

>  <DrugBank ID>  (1) 
DB06243

>  <ATC Codes>  (1) 
D11AX16#P01CX03

>  <Ligand ID>  (1) 
DMO

>  <Target Name>  (1) 
Ornithine decarboxylase

>  <UniProt ID>  (1) 
P11926

>  <PDB ID.1>  (1) 
2TOD

>  <Seq. Identity>  (1) 
65%

$$$$
