PDB_DB00188_78
     RDKit          3D

 53 54  0  0  0  0  0  0  0  0999 V2000
    7.2790 -162.8850   33.3500 N   0  0  0  0  0  0  0  0  0  0  0  0
    6.7510 -163.5040   34.3860 C   0  0  0  0  0  0  0  0  0  0  0  0
    5.6050 -164.2190   34.2170 C   0  0  0  0  0  0  0  0  0  0  0  0
    5.0260 -164.2800   32.9820 N   0  0  0  0  0  0  0  0  0  0  0  0
    5.5710 -163.6350   31.9110 C   0  0  0  0  0  0  0  0  0  0  0  0
    6.7110 -162.9220   32.1040 C   0  0  0  0  0  0  0  0  0  0  0  0
    7.3690 -163.4380   35.6180 C   0  0  0  0  0  0  0  0  0  0  0  0
    8.2620 -164.2080   35.9060 O   0  0  0  0  0  0  0  0  0  0  0  0
    6.9580 -162.4870   36.4250 N   0  0  0  0  0  0  0  0  0  0  0  0
    7.5440 -162.3150   37.7410 C   0  0  1  0  0  0  0  0  0  0  0  0
    8.2910 -160.9920   37.8260 C   0  0  0  0  0  0  0  0  0  0  0  0
    9.4820 -161.0270   37.1070 C   0  0  0  0  0  0  0  0  0  0  0  0
    9.6290 -160.2940   35.9470 C   0  0  0  0  0  0  0  0  0  0  0  0
   10.8030 -160.3190   35.2310 C   0  0  0  0  0  0  0  0  0  0  0  0
   11.8630 -161.0720   35.6710 C   0  0  0  0  0  0  0  0  0  0  0  0
   11.7340 -161.7940   36.8300 C   0  0  0  0  0  0  0  0  0  0  0  0
   10.5520 -161.7670   37.5420 C   0  0  0  0  0  0  0  0  0  0  0  0
    6.3900 -162.3340   38.7090 C   0  0  0  0  0  0  0  0  0  0  0  0
    5.2820 -161.9920   38.3440 O   0  0  0  0  0  0  0  0  0  0  0  0
    6.6580 -162.7780   39.9260 N   0  0  0  0  0  0  0  0  0  0  0  0
    5.6210 -162.9000   40.9360 C   0  0  1  0  0  0  0  0  0  0  0  0
    5.5090 -164.3780   41.2880 C   0  0  0  0  0  0  0  0  0  0  0  0
    4.4980 -165.1920   40.4760 C   0  0  0  0  0  0  0  0  0  0  0  0
    4.1030 -164.5460   39.1710 C   0  0  0  0  0  0  0  0  0  0  0  0
    5.1280 -166.5220   40.1320 C   0  0  0  0  0  0  0  0  0  0  0  0
    5.9350 -162.1270   42.2080 B   0  0  0  0  0  0  0  0  0  0  0  0
    6.3730 -160.8150   41.9610 O   0  0  0  0  0  0  0  0  0  0  0  0
    6.9540 -162.7760   42.9170 O   0  0  0  0  0  0  0  0  0  0  0  0
    5.1487 -164.7438   35.0693 H   0  0  0  0  0  0  0  0  0  0  0  0
    5.1004 -163.6906   30.9183 H   0  0  0  0  0  0  0  0  0  0  0  0
    7.1741 -162.3790   31.2669 H   0  0  0  0  0  0  0  0  0  0  0  0
    6.2068 -161.8524   36.1184 H   0  0  0  0  0  0  0  0  0  0  0  0
    8.2731 -163.1076   37.9650 H   0  0  0  0  0  0  0  0  0  0  0  0
    7.6518 -160.1948   37.4187 H   0  0  0  0  0  0  0  0  0  0  0  0
    8.5331 -160.8018   38.8820 H   0  0  0  0  0  0  0  0  0  0  0  0
    8.7912 -159.6780   35.5882 H   0  0  0  0  0  0  0  0  0  0  0  0
   10.8927 -159.7342   34.3036 H   0  0  0  0  0  0  0  0  0  0  0  0
   12.8038 -161.0961   35.1014 H   0  0  0  0  0  0  0  0  0  0  0  0
   12.5779 -162.3983   37.1943 H   0  0  0  0  0  0  0  0  0  0  0  0
   10.4667 -162.3477   38.4724 H   0  0  0  0  0  0  0  0  0  0  0  0
    7.6246 -163.0434   40.1630 H   0  0  0  0  0  0  0  0  0  0  0  0
    4.6888 -162.4838   40.5265 H   0  0  0  0  0  0  0  0  0  0  0  0
    6.4998 -164.8333   41.1434 H   0  0  0  0  0  0  0  0  0  0  0  0
    5.1442 -164.4065   42.3254 H   0  0  0  0  0  0  0  0  0  0  0  0
    3.5953 -165.2804   41.0984 H   0  0  0  0  0  0  0  0  0  0  0  0
    3.5391 -163.6237   39.3743 H   0  0  0  0  0  0  0  0  0  0  0  0
    5.0072 -164.3031   38.5936 H   0  0  0  0  0  0  0  0  0  0  0  0
    3.4747 -165.2402   38.5936 H   0  0  0  0  0  0  0  0  0  0  0  0
    5.3819 -167.0580   41.0584 H   0  0  0  0  0  0  0  0  0  0  0  0
    4.4186 -167.1225   39.5436 H   0  0  0  0  0  0  0  0  0  0  0  0
    6.0420 -166.3535   39.5436 H   0  0  0  0  0  0  0  0  0  0  0  0
    6.5278 -160.3512   42.8218 H   0  0  0  0  0  0  0  0  0  0  0  0
    6.7956 -162.6751   43.8890 H   0  0  0  0  0  0  0  0  0  0  0  0
  1  2  2  0
  2  3  1  0
  3  4  2  0
  4  5  1  0
  1  6  1  0
  5  6  2  0
  2  7  1  0
  7  8  2  0
  7  9  1  0
  9 10  1  0
 10 11  1  0
 11 12  1  0
 12 13  2  0
 13 14  1  0
 14 15  2  0
 15 16  1  0
 12 17  1  0
 16 17  2  0
 10 18  1  0
 18 19  2  0
 18 20  1  0
 20 21  1  0
 21 22  1  0
 22 23  1  0
 23 24  1  0
 23 25  1  0
 21 26  1  0
 26 27  1  0
 26 28  1  0
  3 29  1  0
  5 30  1  0
  6 31  1  0
  9 32  1  0
 10 33  1  1
 11 34  1  0
 11 35  1  0
 13 36  1  0
 14 37  1  0
 15 38  1  0
 16 39  1  0
 17 40  1  0
 20 41  1  0
 21 42  1  6
 22 43  1  0
 22 44  1  0
 23 45  1  0
 24 46  1  0
 24 47  1  0
 24 48  1  0
 25 49  1  0
 25 50  1  0
 25 51  1  0
 27 52  1  0
 28 53  1  0
M  END
$$$$
