PDB_DB04786_99
     RDKit          3D

192199  0  0  0  0  0  0  0  0999 V2000
   18.3120  -29.5950   13.5870 O   0  0  0  0  0  0  0  0  0  0  0  0
   17.7710  -28.5320   14.4640 S   0  0  2  0  0  4  0  0  0  0  0  0
   18.7700  -28.0920   15.4260 O   0  0  0  0  0  0  0  0  0  0  0  0
   16.5620  -29.0330   15.1680 O   0  0  0  0  0  0  0  0  0  0  0  0
   17.3320  -27.2850   13.5550 C   0  0  0  0  0  0  0  0  0  0  0  0
   17.0410  -26.0490   14.1140 C   0  0  0  0  0  0  0  0  0  0  0  0
   16.7070  -24.9360   13.3340 C   0  0  2  0  0  0  0  0  0  0  0  0
   16.3200  -23.6790   14.2640 S   0  0  1  0  0  4  0  0  0  0  0  0
   16.7430  -23.9110   15.6530 O   0  0  0  0  0  0  0  0  0  0  0  0
   16.9910  -22.4880   13.7130 O   0  0  0  0  0  0  0  0  0  0  0  0
   14.8590  -23.5220   14.1780 O   0  0  0  0  0  0  0  0  0  0  0  0
   17.2540  -27.4250   12.1810 C   0  0  0  0  0  0  0  0  0  0  0  0
   16.8910  -26.3650   11.3530 C   0  0  0  0  0  0  0  0  0  0  0  0
   16.8670  -26.6130    9.9620 C   0  0  1  0  0  0  0  0  0  0  0  0
   17.0990  -28.0700    9.2780 S   0  0  1  0  0  4  0  0  0  0  0  0
   18.5500  -28.3820    9.3820 O   0  0  0  0  0  0  0  0  0  0  0  0
   16.2920  -29.0460    9.9380 O   0  0  0  0  0  0  0  0  0  0  0  0
   16.7320  -27.9190    7.8480 O   0  0  0  0  0  0  0  0  0  0  0  0
   16.4860  -25.5890    9.1150 C   0  0  0  0  0  0  0  0  0  0  0  0
   16.1940  -24.3380    9.6250 C   0  0  0  0  0  0  0  0  0  0  0  0
   16.5920  -25.0820   11.9150 C   0  0  0  0  0  0  0  0  0  0  0  0
   16.1990  -24.0660   10.9930 C   0  0  1  0  0  0  0  0  0  0  0  0
   15.9340  -22.7050   11.2590 N   0  0  0  0  0  0  0  0  0  0  0  0
   15.0440  -21.8930   10.6820 C   0  0  0  0  0  0  0  0  0  0  0  0
   14.2090  -22.2700    9.8720 O   0  0  0  0  0  0  0  0  0  0  0  0
   15.0730  -20.4370   11.0520 C   0  0  1  0  0  0  0  0  0  0  0  0
   14.3400  -19.5410   10.2760 C   0  0  0  0  0  0  0  0  0  0  0  0
   15.8690  -19.9520   12.0920 C   0  0  0  0  0  0  0  0  0  0  0  0
   15.8850  -18.5810   12.3740 C   0  0  0  0  0  0  0  0  0  0  0  0
   15.1310  -17.6900   11.6100 C   0  0  0  0  0  0  0  0  0  0  0  0
   15.1750  -16.2170   11.9530 C   0  0  0  0  0  0  0  0  0  0  0  0
   14.3540  -18.1740   10.5530 C   0  0  0  0  0  0  0  0  0  0  0  0
   13.5530  -17.3490    9.7490 N   0  0  0  0  0  0  0  0  0  0  0  0
   14.0470  -16.5240    8.8200 C   0  0  0  0  0  0  0  0  0  0  0  0
   15.2430  -16.4080    8.6150 O   0  0  0  0  0  0  0  0  0  0  0  0
   13.0890  -15.6990    8.0130 C   0  0  0  0  0  0  0  0  0  0  0  0
   11.7860  -15.4960    8.4650 C   0  0  0  0  0  0  0  0  0  0  0  0
   13.5100  -15.1370    6.8070 C   0  0  0  0  0  0  0  0  0  0  0  0
   12.6390  -14.3750    6.0430 C   0  0  0  0  0  0  0  0  0  0  0  0
   11.3380  -14.1740    6.4940 C   0  0  0  0  0  0  0  0  0  0  0  0
   10.9090  -14.7400    7.7010 C   0  0  0  0  0  0  0  0  0  0  0  0
    9.5910  -14.4760    8.0760 N   0  0  0  0  0  0  0  0  0  0  0  0
    8.9790  -14.6340    9.2490 C   0  0  0  0  0  0  0  0  0  0  0  0
    9.4960  -15.1060   10.2420 O   0  0  0  0  0  0  0  0  0  0  0  0
    7.7080  -14.2430    9.2000 N   0  0  0  0  0  0  0  0  0  0  0  0
    6.7410  -14.2310   10.2030 C   0  0  0  0  0  0  0  0  0  0  0  0
    5.8690  -13.1690   10.0980 C   0  0  0  0  0  0  0  0  0  0  0  0
    6.5870  -15.1520   11.2460 C   0  0  0  0  0  0  0  0  0  0  0  0
    5.5410  -14.9630   12.1670 C   0  0  0  0  0  0  0  0  0  0  0  0
    4.6570  -13.8800   12.0520 C   0  0  0  0  0  0  0  0  0  0  0  0
    4.8490  -12.9710   11.0090 C   0  0  1  0  0  0  0  0  0  0  0  0
    3.9730  -11.7870   10.7380 C   0  0  0  0  0  0  0  0  0  0  0  0
    3.9180  -11.3760    9.5820 O   0  0  0  0  0  0  0  0  0  0  0  0
    3.2550  -11.1980   11.6750 N   0  0  0  0  0  0  0  0  0  0  0  0
    2.4630  -10.1330   11.2140 C   0  0  0  0  0  0  0  0  0  0  0  0
    3.0010   -8.8530   11.1170 C   0  0  0  0  0  0  0  0  0  0  0  0
    1.1340  -10.3700   10.8280 C   0  0  0  0  0  0  0  0  0  0  0  0
    0.5270  -11.7510   10.9030 C   0  0  0  0  0  0  0  0  0  0  0  0
    0.3420   -9.3230   10.3680 C   0  0  0  0  0  0  0  0  0  0  0  0
    0.8800   -8.0420   10.2870 C   0  0  0  0  0  0  0  0  0  0  0  0
    2.2080   -7.8070   10.6540 C   0  0  0  0  0  0  0  0  0  0  0  0
    2.7880   -6.4240   10.5800 C   0  0  0  0  0  0  0  0  0  0  0  0
    3.9570   -6.2630   10.9200 O   0  0  0  0  0  0  0  0  0  0  0  0
    1.9870   -5.4410   10.1510 N   0  0  0  0  0  0  0  0  0  0  0  0
    2.3620   -4.0940   10.0420 C   0  0  0  0  0  0  0  0  0  0  0  0
    2.7800   -3.5240   11.2440 C   0  0  0  0  0  0  0  0  0  0  0  0
    3.1700   -2.1960   11.3110 C   0  0  0  0  0  0  0  0  0  0  0  0
    3.1630   -1.3980   10.1750 C   0  0  1  0  0  0  0  0  0  0  0  0
    3.5720    0.1510   10.4250 S   0  0  1  0  0  4  0  0  0  0  0  0
    3.8850    0.2900   11.9070 O   0  0  0  0  0  0  0  0  0  0  0  0
    4.7830    0.4380    9.6660 O   0  0  0  0  0  0  0  0  0  0  0  0
    2.4740    1.0150   10.0740 O   0  0  0  0  0  0  0  0  0  0  0  0
    2.3050   -3.3170    8.8520 C   0  0  0  0  0  0  0  0  0  0  0  0
    2.7090   -1.9490    8.9580 C   0  0  0  0  0  0  0  0  0  0  0  0
    2.6940   -1.1210    7.8310 C   0  0  0  0  0  0  0  0  0  0  0  0
    1.9010   -3.8040    7.5670 C   0  0  1  0  0  0  0  0  0  0  0  0
    1.3350   -5.2770    7.1570 S   0  0  2  0  0  4  0  0  0  0  0  0
    1.0070   -5.2520    5.7350 O   0  0  0  0  0  0  0  0  0  0  0  0
    0.2090   -5.6240    7.9830 O   0  0  0  0  0  0  0  0  0  0  0  0
    2.4530   -6.2930    7.3790 O   0  0  0  0  0  0  0  0  0  0  0  0
    1.8880   -2.9220    6.4820 C   0  0  0  0  0  0  0  0  0  0  0  0
    2.2630   -1.5890    6.5980 C   0  0  1  0  0  0  0  0  0  0  0  0
    2.3030   -0.6120    5.3150 S   0  0  1  0  0  4  0  0  0  0  0  0
    3.1160    0.5810    5.5870 O   0  0  0  0  0  0  0  0  0  0  0  0
    2.9250   -1.3890    4.1970 O   0  0  0  0  0  0  0  0  0  0  0  0
    0.9310   -0.2640    4.9660 O   0  0  0  0  0  0  0  0  0  0  0  0
   18.6834  -30.3247   14.1435 H   0  0  0  0  0  0  0  0  0  0  0  0
   18.4318  -28.2410   16.3444 H   0  0  0  0  0  0  0  0  0  0  0  0
   16.7020  -28.9750   16.1463 H   0  0  0  0  0  0  0  0  0  0  0  0
   16.2775  -27.5803   13.6591 H   0  0  0  0  0  0  0  0  0  0  0  0
   16.1922  -26.2124   14.7943 H   0  0  0  0  0  0  0  0  0  0  0  0
   18.0151  -25.7519   14.5298 H   0  0  0  0  0  0  0  0  0  0  0  0
   17.1529  -24.2999   12.5552 H   0  0  0  0  0  0  0  0  0  0  0  0
   16.0649  -23.5391   16.2710 H   0  0  0  0  0  0  0  0  0  0  0  0
   17.3125  -21.9173   14.4553 H   0  0  0  0  0  0  0  0  0  0  0  0
   14.4772  -23.4810   15.0905 H   0  0  0  0  0  0  0  0  0  0  0  0
   18.2503  -27.7502   11.8470 H   0  0  0  0  0  0  0  0  0  0  0  0
   16.4028  -28.1122   12.0654 H   0  0  0  0  0  0  0  0  0  0  0  0
   17.9455  -26.0605   11.2805 H   0  0  0  0  0  0  0  0  0  0  0  0
   17.9478  -26.4156    9.9082 H   0  0  0  0  0  0  0  0  0  0  0  0
   18.8080  -28.4375   10.3362 H   0  0  0  0  0  0  0  0  0  0  0  0
   16.3804  -28.9391   10.9182 H   0  0  0  0  0  0  0  0  0  0  0  0
   15.8187  -27.5432    7.7796 H   0  0  0  0  0  0  0  0  0  0  0  0
   17.3051  -25.4536    8.3934 H   0  0  0  0  0  0  0  0  0  0  0  0
   15.5169  -25.9334    8.7249 H   0  0  0  0  0  0  0  0  0  0  0  0
   16.9211  -23.6469    9.1736 H   0  0  0  0  0  0  0  0  0  0  0  0
   15.1264  -24.2383    9.3794 H   0  0  0  0  0  0  0  0  0  0  0  0
   17.6450  -24.7859   11.7992 H   0  0  0  0  0  0  0  0  0  0  0  0
   15.1550  -24.4052   11.0643 H   0  0  0  0  0  0  0  0  0  0  0  0
   15.6899  -22.6826   12.2594 H   0  0  0  0  0  0  0  0  0  0  0  0
   15.7517  -21.6997    9.8624 H   0  0  0  0  0  0  0  0  0  0  0  0
   13.4202  -22.6261   10.3527 H   0  0  0  0  0  0  0  0  0  0  0  0
   15.9457  -20.2885   10.3991 H   0  0  0  0  0  0  0  0  0  0  0  0
   14.6998  -19.6547    9.2427 H   0  0  0  0  0  0  0  0  0  0  0  0
   13.3000  -19.8227   10.4976 H   0  0  0  0  0  0  0  0  0  0  0  0
   15.5402  -20.4622   13.0094 H   0  0  0  0  0  0  0  0  0  0  0  0
   16.8932  -20.1531   11.7447 H   0  0  0  0  0  0  0  0  0  0  0  0
   15.5448  -18.4697   13.4141 H   0  0  0  0  0  0  0  0  0  0  0  0
   16.9201  -18.2931   12.1379 H   0  0  0  0  0  0  0  0  0  0  0  0
   14.2799  -17.8238   12.2939 H   0  0  0  0  0  0  0  0  0  0  0  0
   15.1786  -16.0950   13.0462 H   0  0  0  0  0  0  0  0  0  0  0  0
   16.0869  -15.7694   11.5311 H   0  0  0  0  0  0  0  0  0  0  0  0
   14.2914  -15.7157   11.5311 H   0  0  0  0  0  0  0  0  0  0  0  0
   13.5032  -18.3041   11.2380 H   0  0  0  0  0  0  0  0  0  0  0  0
   12.9082  -17.9798    9.2519 H   0  0  0  0  0  0  0  0  0  0  0  0
   14.0961  -15.7154    9.5642 H   0  0  0  0  0  0  0  0  0  0  0  0
   15.7230  -16.3614    9.4796 H   0  0  0  0  0  0  0  0  0  0  0  0
   12.7624  -16.6024    7.4772 H   0  0  0  0  0  0  0  0  0  0  0  0
   11.3305  -16.4899    8.5857 H   0  0  0  0  0  0  0  0  0  0  0  0
   11.9190  -14.8952    9.3768 H   0  0  0  0  0  0  0  0  0  0  0  0
   14.3690  -14.4917    7.0430 H   0  0  0  0  0  0  0  0  0  0  0  0
   13.6888  -16.0179    6.1730 H   0  0  0  0  0  0  0  0  0  0  0  0
   13.0967  -13.3813    5.9291 H   0  0  0  0  0  0  0  0  0  0  0  0
   12.5090  -14.9677    5.1255 H   0  0  0  0  0  0  0  0  0  0  0  0
   11.2021  -13.0866    6.5899 H   0  0  0  0  0  0  0  0  0  0  0  0
   10.7315  -14.7022    5.7436 H   0  0  0  0  0  0  0  0  0  0  0  0
   11.2231  -13.8329    8.2380 H   0  0  0  0  0  0  0  0  0  0  0  0
    9.4662  -13.4762    7.8622 H   0  0  0  0  0  0  0  0  0  0  0  0
    8.6509  -15.6382    8.9425 H   0  0  0  0  0  0  0  0  0  0  0  0
    9.0730  -14.7198   11.0495 H   0  0  0  0  0  0  0  0  0  0  0  0
    7.7569  -13.2638    8.8844 H   0  0  0  0  0  0  0  0  0  0  0  0
    7.4048  -13.6234   10.8357 H   0  0  0  0  0  0  0  0  0  0  0  0
    6.4864  -12.2589   10.1231 H   0  0  0  0  0  0  0  0  0  0  0  0
    5.3162  -13.4116    9.1785 H   0  0  0  0  0  0  0  0  0  0  0  0
    6.4381  -16.1399   10.7858 H   0  0  0  0  0  0  0  0  0  0  0  0
    7.4985  -15.0265   11.8488 H   0  0  0  0  0  0  0  0  0  0  0  0
    4.9248  -15.8734   12.1297 H   0  0  0  0  0  0  0  0  0  0  0  0
    6.0804  -14.7336   13.0978 H   0  0  0  0  0  0  0  0  0  0  0  0
    3.6456  -14.2971   11.9372 H   0  0  0  0  0  0  0  0  0  0  0  0
    4.8365  -13.2881   12.9616 H   0  0  0  0  0  0  0  0  0  0  0  0
    4.1679  -13.5562   10.3736 H   0  0  0  0  0  0  0  0  0  0  0  0
    4.8205  -11.1145   10.9368 H   0  0  0  0  0  0  0  0  0  0  0  0
    3.7867  -10.3948    9.5865 H   0  0  0  0  0  0  0  0  0  0  0  0
    2.6335  -11.9033   12.0960 H   0  0  0  0  0  0  0  0  0  0  0  0
    2.1464   -9.9217   12.2460 H   0  0  0  0  0  0  0  0  0  0  0  0
    3.3428   -8.5730   12.1244 H   0  0  0  0  0  0  0  0  0  0  0  0
    3.7710   -8.9561   10.3383 H   0  0  0  0  0  0  0  0  0  0  0  0
    1.4688  -10.5730    9.8000 H   0  0  0  0  0  0  0  0  0  0  0  0
    0.4004  -12.0391   11.9570 H   0  0  0  0  0  0  0  0  0  0  0  0
   -0.4529  -11.7484   10.4033 H   0  0  0  0  0  0  0  0  0  0  0  0
    1.1915  -12.4712   10.4033 H   0  0  0  0  0  0  0  0  0  0  0  0
    0.0086   -9.5947    9.3556 H   0  0  0  0  0  0  0  0  0  0  0  0
   -0.4359   -9.2285   11.1400 H   0  0  0  0  0  0  0  0  0  0  0  0
    0.7816   -7.7243    9.2385 H   0  0  0  0  0  0  0  0  0  0  0  0
    0.3108   -7.4856   11.0462 H   0  0  0  0  0  0  0  0  0  0  0  0
    2.5302   -8.0188    9.6238 H   0  0  0  0  0  0  0  0  0  0  0  0
    2.4612   -6.2317   11.6126 H   0  0  0  0  0  0  0  0  0  0  0  0
    4.0151   -6.2550   11.9083 H   0  0  0  0  0  0  0  0  0  0  0  0
    1.6884   -5.7214    9.2059 H   0  0  0  0  0  0  0  0  0  0  0  0
    1.3274   -3.7886   10.2570 H   0  0  0  0  0  0  0  0  0  0  0  0
    1.9453   -3.6399   11.9510 H   0  0  0  0  0  0  0  0  0  0  0  0
    3.7181   -4.0602   11.4503 H   0  0  0  0  0  0  0  0  0  0  0  0
    2.5060   -1.7098   12.0409 H   0  0  0  0  0  0  0  0  0  0  0  0
    4.2402   -2.2663   11.5552 H   0  0  0  0  0  0  0  0  0  0  0  0
    2.1072   -1.1486   10.3567 H   0  0  0  0  0  0  0  0  0  0  0  0
    3.1218   -0.0489   12.4387 H   0  0  0  0  0  0  0  0  0  0  0  0
    5.5300    0.6150   10.2911 H   0  0  0  0  0  0  0  0  0  0  0  0
    2.0438    1.3536   10.8988 H   0  0  0  0  0  0  0  0  0  0  0  0
    1.2700   -3.0297    9.0892 H   0  0  0  0  0  0  0  0  0  0  0  0
    3.7403   -2.2337    8.7022 H   0  0  0  0  0  0  0  0  0  0  0  0
    2.0495   -0.2656    8.0818 H   0  0  0  0  0  0  0  0  0  0  0  0
    3.7643   -0.9377    7.6556 H   0  0  0  0  0  0  0  0  0  0  0  0
    2.9287   -4.1449    7.3731 H   0  0  0  0  0  0  0  0  0  0  0  0
    0.0261   -5.1772    5.6239 H   0  0  0  0  0  0  0  0  0  0  0  0
    0.4628   -5.5458    8.9367 H   0  0  0  0  0  0  0  0  0  0  0  0
    2.5942   -6.4213    8.3504 H   0  0  0  0  0  0  0  0  0  0  0  0
    2.5526   -3.3612    5.7235 H   0  0  0  0  0  0  0  0  0  0  0  0
    0.8111   -2.8357    6.2749 H   0  0  0  0  0  0  0  0  0  0  0  0
    3.2976   -1.8575    6.3382 H   0  0  0  0  0  0  0  0  0  0  0  0
    3.2013    0.7062    6.5653 H   0  0  0  0  0  0  0  0  0  0  0  0
    3.4978   -2.1045    4.5712 H   0  0  0  0  0  0  0  0  0  0  0  0
    0.4038   -0.1303    5.7932 H   0  0  0  0  0  0  0  0  0  0  0  0
  2  1  1  6
  2  3  1  0
  2  4  1  0
  2  5  1  0
  5  6  1  0
  6  7  1  0
  7  8  1  0
  8  9  1  1
  8 10  1  0
  8 11  1  0
  5 12  1  0
 12 13  1  0
 13 14  1  0
 14 15  1  0
 15 16  1  6
 15 17  1  0
 15 18  1  0
 14 19  1  0
 19 20  1  0
  7 21  1  0
 13 21  1  0
 20 22  1  0
 21 22  1  0
 22 23  1  0
 23 24  1  0
 24 25  1  0
 24 26  1  0
 26 27  1  0
 26 28  1  0
 28 29  1  0
 29 30  1  0
 30 31  1  0
 27 32  1  0
 30 32  1  0
 32 33  1  0
 33 34  1  0
 34 35  1  0
 34 36  1  0
 36 37  1  0
 36 38  1  0
 38 39  1  0
 39 40  1  0
 37 41  1  0
 40 41  1  0
 41 42  1  0
 42 43  1  0
 43 44  1  0
 43 45  1  0
 45 46  1  0
 46 47  1  0
 46 48  1  0
 48 49  1  0
 49 50  1  0
 47 51  1  0
 50 51  1  0
 51 52  1  0
 52 53  1  0
 52 54  1  0
 54 55  1  0
 55 56  1  0
 55 57  1  0
 57 58  1  0
 57 59  1  0
 59 60  1  0
 56 61  1  0
 60 61  1  0
 61 62  1  0
 62 63  1  0
 62 64  1  0
 64 65  1  0
 65 66  1  0
 66 67  1  0
 67 68  1  0
 68 69  1  0
 69 70  1  1
 69 71  1  0
 69 72  1  0
 65 73  1  0
 68 74  1  0
 73 74  1  0
 74 75  1  0
 73 76  1  0
 76 77  1  0
 77 78  1  6
 77 79  1  0
 77 80  1  0
 76 81  1  0
 75 82  1  0
 81 82  1  0
 82 83  1  0
 83 84  1  1
 83 85  1  0
 83 86  1  0
  1 87  1  0
  3 88  1  0
  4 89  1  0
  5 90  1  0
  6 91  1  0
  6 92  1  0
  7 93  1  6
  9 94  1  0
 10 95  1  0
 11 96  1  0
 12 97  1  0
 12 98  1  0
 13 99  1  0
 14100  1  6
 16101  1  0
 17102  1  0
 18103  1  0
 19104  1  0
 19105  1  0
 20106  1  0
 20107  1  0
 21108  1  0
 22109  1  1
 23110  1  0
 24111  1  0
 25112  1  0
 26113  1  1
 27114  1  0
 27115  1  0
 28116  1  0
 28117  1  0
 29118  1  0
 29119  1  0
 30120  1  0
 31121  1  0
 31122  1  0
 31123  1  0
 32124  1  0
 33125  1  0
 34126  1  0
 35127  1  0
 36128  1  0
 37129  1  0
 37130  1  0
 38131  1  0
 38132  1  0
 39133  1  0
 39134  1  0
 40135  1  0
 40136  1  0
 41137  1  0
 42138  1  0
 43139  1  0
 44140  1  0
 45141  1  0
 46142  1  0
 47143  1  0
 47144  1  0
 48145  1  0
 48146  1  0
 49147  1  0
 49148  1  0
 50149  1  0
 50150  1  0
 51151  1  1
 52152  1  0
 53153  1  0
 54154  1  0
 55155  1  0
 56156  1  0
 56157  1  0
 57158  1  0
 58159  1  0
 58160  1  0
 58161  1  0
 59162  1  0
 59163  1  0
 60164  1  0
 60165  1  0
 61166  1  0
 62167  1  0
 63168  1  0
 64169  1  0
 65170  1  0
 66171  1  0
 66172  1  0
 67173  1  0
 67174  1  0
 68175  1  6
 70176  1  0
 71177  1  0
 72178  1  0
 73179  1  0
 74180  1  0
 75181  1  0
 75182  1  0
 76183  1  6
 78184  1  0
 79185  1  0
 80186  1  0
 81187  1  0
 81188  1  0
 82189  1  1
 84190  1  0
 85191  1  0
 86192  1  0
M  END
>  <PDBID>  (1) 
2NYR

>  <PDB ID>  (1) 
2NYR

>  <Generic Name>  (1) 
Suramin

>  <Brand Name>  (1) 
309 Fourneau#Antrypol#Bayer 205#Belganyl#Germanin#Moranyl#Naganin#Naganine#Naganol#Naphuride

>  <DrugBank ID>  (1) 
DB04786

>  <ATC Codes>  (1) 
P01CX02

>  <Ligand ID>  (1) 
SVR

>  <Target Name>  (1) 
NAD-dependent protein deacylase sirtuin-5, mitochondrial

>  <UniProt ID>  (1) 
Q9NXA8

>  <PDB ID.1>  (1) 
2NYR

>  <Seq. Identity>  (1) 
100%

$$$$
