PDB_DB00784_98
     RDKit          3D

 33 34  0  0  0  0  0  0  0  0999 V2000
   37.9100   39.9360   82.9380 O   0  0  0  0  0  0  0  0  0  0  0  0
   38.7500   39.4990   83.6880 C   0  0  0  0  0  0  0  0  0  0  0  0
   39.8000   39.2760   83.1250 O   0  0  0  0  0  0  0  0  0  0  0  0
   38.4260   39.3070   85.1550 C   0  0  0  0  0  0  0  0  0  0  0  0
   37.1490   39.6690   85.5060 C   0  0  0  0  0  0  0  0  0  0  0  0
   36.6670   39.5750   86.7660 C   0  0  0  0  0  0  0  0  0  0  0  0
   37.4820   39.0910   87.7220 C   0  0  0  0  0  0  0  0  0  0  0  0
   38.7540   38.7260   87.4230 C   0  0  0  0  0  0  0  0  0  0  0  0
   39.2700   38.8490   86.1620 C   0  0  0  0  0  0  0  0  0  0  0  0
   40.5500   38.5690   85.9020 N   0  0  0  0  0  0  0  0  0  0  0  0
   41.6060   38.4120   86.7090 C   0  0  0  0  0  0  0  0  0  0  0  0
   42.6400   37.5960   86.3130 C   0  0  0  0  0  0  0  0  0  0  0  0
   42.6560   36.9840   84.9570 C   0  0  0  0  0  0  0  0  0  0  0  0
   41.6600   38.9640   87.9570 C   0  0  0  0  0  0  0  0  0  0  0  0
   42.6670   38.6820   88.8180 C   0  0  0  0  0  0  0  0  0  0  0  0
   43.6800   37.8690   88.4230 C   0  0  0  0  0  0  0  0  0  0  0  0
   43.6660   37.3230   87.1810 C   0  0  0  0  0  0  0  0  0  0  0  0
   44.8150   36.4430   86.8250 C   0  0  0  0  0  0  0  0  0  0  0  0
   37.0080   40.1580   83.2804 H   0  0  0  0  0  0  0  0  0  0  0  0
   36.4828   40.0559   84.7209 H   0  0  0  0  0  0  0  0  0  0  0  0
   35.6386   39.8851   87.0030 H   0  0  0  0  0  0  0  0  0  0  0  0
   37.1137   38.9907   88.7536 H   0  0  0  0  0  0  0  0  0  0  0  0
   39.3916   38.3176   88.2210 H   0  0  0  0  0  0  0  0  0  0  0  0
   40.7623   38.4531   84.9008 H   0  0  0  0  0  0  0  0  0  0  0  0
   42.6846   35.8883   85.0496 H   0  0  0  0  0  0  0  0  0  0  0  0
   41.7498   37.2821   84.4094 H   0  0  0  0  0  0  0  0  0  0  0  0
   43.5454   37.3291   84.4094 H   0  0  0  0  0  0  0  0  0  0  0  0
   40.8647   39.6559   88.2713 H   0  0  0  0  0  0  0  0  0  0  0  0
   42.6640   39.1093   89.8316 H   0  0  0  0  0  0  0  0  0  0  0  0
   44.5118   37.6530   89.1096 H   0  0  0  0  0  0  0  0  0  0  0  0
   45.2943   36.0759   87.7445 H   0  0  0  0  0  0  0  0  0  0  0  0
   44.4532   35.5888   86.2339 H   0  0  0  0  0  0  0  0  0  0  0  0
   45.5454   37.0149   86.2339 H   0  0  0  0  0  0  0  0  0  0  0  0
  1  2  1  0
  2  3  2  0
  2  4  1  0
  4  5  2  0
  5  6  1  0
  6  7  2  0
  7  8  1  0
  4  9  1  0
  8  9  2  0
  9 10  1  0
 10 11  1  0
 11 12  2  0
 12 13  1  0
 11 14  1  0
 14 15  2  0
 15 16  1  0
 12 17  1  0
 16 17  2  0
 17 18  1  0
  1 19  1  0
  5 20  1  0
  6 21  1  0
  7 22  1  0
  8 23  1  0
 10 24  1  0
 13 25  1  0
 13 26  1  0
 13 27  1  0
 14 28  1  0
 15 29  1  0
 16 30  1  0
 18 31  1  0
 18 32  1  0
 18 33  1  0
M  END
$$$$
