PDB_DB00877_94
     RDKit          3D

324330  0  0  0  0  0  0  0  0999 V2000
   -8.4830   19.4800   -3.5420 C   0  0  0  0  0  0  0  0  0  0  0  0
   -7.2470   19.0030   -2.9400 O   0  0  0  0  0  0  0  0  0  0  0  0
   -8.4630   20.4750   -4.2500 O   0  0  0  0  0  0  0  0  0  0  0  0
   -9.7510   18.7060   -3.2840 C   0  0  2  0  0  0  0  0  0  0  0  0
  -10.8930   19.6030   -2.7920 C   0  0  0  0  0  0  0  0  0  0  0  0
  -10.6630   20.1210   -1.3640 C   0  0  0  0  0  0  0  0  0  0  0  0
  -10.3890   18.9720   -0.3860 C   0  0  0  0  0  0  0  0  0  0  0  0
   -9.2250   18.1170   -0.9080 C   0  0  0  0  0  0  0  0  0  0  0  0
   -9.5220   17.6300   -2.2860 N   0  0  0  0  0  0  0  0  0  0  0  0
   -9.5690   16.3520   -2.7000 C   0  0  0  0  0  0  0  0  0  0  0  0
   -9.7460   16.0280   -3.8540 O   0  0  0  0  0  0  0  0  0  0  0  0
   -9.4190   15.2560   -1.7460 C   0  0  0  0  0  0  0  0  0  0  0  0
  -10.4370   14.7630   -1.3140 O   0  0  0  0  0  0  0  0  0  0  0  0
   -8.0610   14.7130   -1.3170 C   0  0  1  0  0  0  0  0  0  0  0  0
   -7.5650   15.6430   -0.3440 O   0  0  0  0  0  0  0  0  0  0  0  0
   -8.2440   13.4050   -0.7640 O   0  0  0  0  0  0  0  0  0  0  0  0
   -7.0490   14.5840   -2.4690 C   0  0  1  0  0  0  0  0  0  0  0  0
   -5.6640   14.2450   -1.9000 C   0  0  0  0  0  0  0  0  0  0  0  0
   -5.2250   15.2440   -0.8250 C   0  0  0  0  0  0  0  0  0  0  0  0
   -6.2890   15.4050    0.2610 C   0  0  1  0  0  0  0  0  0  0  0  0
   -6.0720   16.6430    1.1220 C   0  0  0  0  0  0  0  0  0  0  0  0
   -4.8830   16.4950    2.0630 C   0  0  2  0  0  0  0  0  0  0  0  0
   -5.2160   15.6030    3.1330 O   0  0  0  0  0  0  0  0  0  0  0  0
   -4.5060   17.8880    2.5110 C   0  0  1  0  0  0  0  0  0  0  0  0
   -3.3540   18.4190    2.0000 C   0  0  0  0  0  0  0  0  0  0  0  0
   -2.8420   19.7610    2.2990 C   0  0  0  0  0  0  0  0  0  0  0  0
   -1.6690   20.1810    1.8060 C   0  0  0  0  0  0  0  0  0  0  0  0
   -1.2100   21.5390    2.1160 C   0  0  0  0  0  0  0  0  0  0  0  0
   -0.1600   22.0930    1.4990 C   0  0  0  0  0  0  0  0  0  0  0  0
    0.3010   23.5050    1.8020 C   0  0  2  0  0  0  0  0  0  0  0  0
    0.1750   24.4460    0.5860 C   0  0  0  0  0  0  0  0  0  0  0  0
   -1.2560   24.6020    0.0460 C   0  0  2  0  0  0  0  0  0  0  0  0
   -1.1600   25.0640   -1.3980 C   0  0  1  0  0  0  0  0  0  0  0  0
   -1.1440   26.2580   -1.6390 O   0  0  0  0  0  0  0  0  0  0  0  0
   -1.0050   24.0650   -2.5320 C   0  0  2  0  0  0  0  0  0  0  0  0
   -0.4390   24.6500   -3.7040 O   0  0  0  0  0  0  0  0  0  0  0  0
   -2.3040   23.4310   -2.9920 C   0  0  2  0  0  0  0  0  0  0  0  0
   -3.2610   24.4760   -3.2190 O   0  0  0  0  0  0  0  0  0  0  0  0
   -2.7670   22.3780   -2.0130 C   0  0  0  0  0  0  0  0  0  0  0  0
   -3.9430   22.5530   -1.3630 C   0  0  0  0  0  0  0  0  0  0  0  0
   -4.5060   21.5640   -0.3540 C   0  0  2  0  0  0  0  0  0  0  0  0
   -5.6050   20.7980   -1.0610 C   0  0  0  0  0  0  0  0  0  0  0  0
   -6.7760   21.0950   -0.9360 O   0  0  0  0  0  0  0  0  0  0  0  0
   -5.2240   19.6750   -1.9910 C   0  0  0  0  0  0  0  0  0  0  0  0
   -6.0680   19.7080   -3.2740 C   0  0  1  0  0  0  0  0  0  0  0  0
   -5.4190   19.0020   -4.4750 C   0  0  1  0  0  0  0  0  0  0  0  0
   -4.2410   19.7740   -5.0490 C   0  0  0  0  0  0  0  0  0  0  0  0
   -4.5620   21.1590   -5.6270 C   0  0  1  0  0  0  0  0  0  0  0  0
   -3.2760   21.6720   -6.3080 C   0  0  0  0  0  0  0  0  0  0  0  0
   -3.4840   23.0710   -6.9000 C   0  0  1  0  0  0  0  0  0  0  0  0
   -2.2970   23.5090   -7.5620 O   0  0  0  0  0  0  0  0  0  0  0  0
   -4.5950   22.9950   -7.9470 C   0  0  2  0  0  0  0  0  0  0  0  0
   -4.8120   24.2860   -8.5170 O   0  0  0  0  0  0  0  0  0  0  0  0
   -5.9160   22.4390   -7.3910 C   0  0  0  0  0  0  0  0  0  0  0  0
   -5.7360   21.1360   -6.6160 C   0  0  0  0  0  0  0  0  0  0  0  0
   -7.5120   13.5340   -3.4920 C   0  0  0  0  0  0  0  0  0  0  0  0
   -5.4530   18.6350    3.4550 C   0  0  0  0  0  0  0  0  0  0  0  0
    1.7740   23.4680    2.2000 C   0  0  0  0  0  0  0  0  0  0  0  0
   -2.0890   25.5630    0.9020 C   0  0  0  0  0  0  0  0  0  0  0  0
   -1.8850   21.1740   -1.7520 C   0  0  0  0  0  0  0  0  0  0  0  0
   -4.9810   22.2990    0.8980 C   0  0  0  0  0  0  0  0  0  0  0  0
   -4.9830   17.5760   -4.1260 C   0  0  0  0  0  0  0  0  0  0  0  0
   -4.0410   15.1670    3.8120 C   0  0  0  0  0  0  0  0  0  0  0  0
    0.9600   24.9430   -3.6410 C   0  0  0  0  0  0  0  0  0  0  0  0
   -1.3550   24.2120   -6.7590 C   0  0  0  0  0  0  0  0  0  0  0  0
   25.7350   40.0020    1.5050 C   0  0  0  0  0  0  0  0  0  0  0  0
   25.6780   38.7060    0.8590 O   0  0  0  0  0  0  0  0  0  0  0  0
   24.8150   40.4040    2.2160 O   0  0  0  0  0  0  0  0  0  0  0  0
   26.9850   40.8170    1.2900 C   0  0  2  0  0  0  0  0  0  0  0  0
   26.6300   42.2020    0.7170 C   0  0  0  0  0  0  0  0  0  0  0  0
   26.2400   42.1030   -0.7680 C   0  0  0  0  0  0  0  0  0  0  0  0
   27.4040   41.4950   -1.5360 C   0  0  0  0  0  0  0  0  0  0  0  0
   27.6890   40.0850   -1.0230 C   0  0  0  0  0  0  0  0  0  0  0  0
   27.9820   40.1170    0.4270 N   0  0  0  0  0  0  0  0  0  0  0  0
   29.0430   39.5340    1.0200 C   0  0  0  0  0  0  0  0  0  0  0  0
   29.1940   39.5660    2.2250 O   0  0  0  0  0  0  0  0  0  0  0  0
   30.0560   38.8350    0.2050 C   0  0  0  0  0  0  0  0  0  0  0  0
   30.9880   39.4780   -0.2500 O   0  0  0  0  0  0  0  0  0  0  0  0
   29.9920   37.3520   -0.1150 C   0  0  1  0  0  0  0  0  0  0  0  0
   29.0920   37.2590   -1.2220 O   0  0  0  0  0  0  0  0  0  0  0  0
   31.2890   36.9120   -0.5140 O   0  0  0  0  0  0  0  0  0  0  0  0
   29.5300   36.4640    1.0530 C   0  0  1  0  0  0  0  0  0  0  0  0
   29.1190   35.0630    0.5680 C   0  0  0  0  0  0  0  0  0  0  0  0
   28.2100   35.0890   -0.6630 C   0  0  0  0  0  0  0  0  0  0  0  0
   28.7660   35.9730   -1.7780 C   0  0  1  0  0  0  0  0  0  0  0  0
   27.7260   36.2300   -2.8820 C   0  0  0  0  0  0  0  0  0  0  0  0
   27.3110   35.0210   -3.7250 C   0  0  2  0  0  0  0  0  0  0  0  0
   28.2560   34.8460   -4.7730 O   0  0  0  0  0  0  0  0  0  0  0  0
   25.9450   35.2560   -4.3140 C   0  0  0  0  0  0  0  0  0  0  0  0
   24.9290   34.4880   -3.8870 C   0  0  0  0  0  0  0  0  0  0  0  0
   23.5690   34.6430   -4.3940 C   0  0  0  0  0  0  0  0  0  0  0  0
   22.5530   33.9730   -3.8510 C   0  0  0  0  0  0  0  0  0  0  0  0
   21.2150   34.1620   -4.3940 C   0  0  0  0  0  0  0  0  0  0  0  0
   20.1820   33.5370   -3.8270 C   0  0  0  0  0  0  0  0  0  0  0  0
   18.7640   33.6870   -4.3290 C   0  0  2  0  0  0  0  0  0  0  0  0
   17.8740   34.3650   -3.2810 C   0  0  0  0  0  0  0  0  0  0  0  0
   18.4250   35.6630   -2.7030 C   0  0  2  0  0  0  0  0  0  0  0  0
   17.7550   35.9060   -1.3740 C   0  0  0  0  0  0  0  0  0  0  0  0
   16.6880   36.5230   -1.3640 O   0  0  0  0  0  0  0  0  0  0  0  0
   18.3530   35.3600   -0.0800 C   0  0  2  0  0  0  0  0  0  0  0  0
   17.3820   35.1970    0.9720 O   0  0  0  0  0  0  0  0  0  0  0  0
   19.4630   36.2400    0.4930 C   0  0  2  0  0  0  0  0  0  0  0  0
   18.9620   37.5720    0.5770 O   0  0  0  0  0  0  0  0  0  0  0  0
   20.7360   36.1470   -0.3260 C   0  0  0  0  0  0  0  0  0  0  0  0
   21.1520   37.2050   -1.0520 C   0  0  0  0  0  0  0  0  0  0  0  0
   22.4030   37.2530   -1.9190 C   0  0  2  0  0  0  0  0  0  0  0  0
   23.4820   37.9480   -1.1310 C   0  0  0  0  0  0  0  0  0  0  0  0
   23.6390   39.1690   -1.2270 O   0  0  0  0  0  0  0  0  0  0  0  0
   24.3370   37.1190   -0.1950 C   0  0  0  0  0  0  0  0  0  0  0  0
   24.5220   37.9060    1.0940 C   0  0  1  0  0  0  0  0  0  0  0  0
   24.6750   37.0700    2.3850 C   0  0  1  0  0  0  0  0  0  0  0  0
   23.3910   36.3870    2.8820 C   0  0  0  0  0  0  0  0  0  0  0  0
   22.2400   37.2920    3.3190 C   0  0  1  0  0  0  0  0  0  0  0  0
   21.1340   36.4450    3.9680 C   0  0  0  0  0  0  0  0  0  0  0  0
   19.9300   37.3000    4.3870 C   0  0  1  0  0  0  0  0  0  0  0  0
   18.9360   36.5360    5.0740 O   0  0  0  0  0  0  0  0  0  0  0  0
   20.3980   38.3450    5.3860 C   0  0  2  0  0  0  0  0  0  0  0  0
   19.3020   39.1660    5.8040 O   0  0  0  0  0  0  0  0  0  0  0  0
   21.5390   39.1950    4.8360 C   0  0  0  0  0  0  0  0  0  0  0  0
   22.7030   38.3590    4.2970 C   0  0  0  0  0  0  0  0  0  0  0  0
   30.5750   36.3600    2.1630 C   0  0  0  0  0  0  0  0  0  0  0  0
   25.7500   36.3430   -5.3540 C   0  0  0  0  0  0  0  0  0  0  0  0
   18.1940   32.3130   -4.6850 C   0  0  0  0  0  0  0  0  0  0  0  0
   18.2110   36.8490   -3.6550 C   0  0  0  0  0  0  0  0  0  0  0  0
   21.4850   34.8420   -0.3210 C   0  0  0  0  0  0  0  0  0  0  0  0
   22.1170   38.0310   -3.2040 C   0  0  0  0  0  0  0  0  0  0  0  0
   25.8220   36.0610    2.3010 C   0  0  0  0  0  0  0  0  0  0  0  0
   28.2460   33.5330   -5.3340 C   0  0  0  0  0  0  0  0  0  0  0  0
   16.2480   34.3750    0.6690 C   0  0  0  0  0  0  0  0  0  0  0  0
   17.9650   35.9040    4.2370 C   0  0  0  0  0  0  0  0  0  0  0  0
   -8.6689   20.1111   -2.6604 H   0  0  0  0  0  0  0  0  0  0  0  0
   -8.4467   21.2848   -3.6807 H   0  0  0  0  0  0  0  0  0  0  0  0
  -10.0449   18.2669   -4.2488 H   0  0  0  0  0  0  0  0  0  0  0  0
  -10.9811   20.4650   -3.4697 H   0  0  0  0  0  0  0  0  0  0  0  0
  -11.8120   18.9985   -2.7835 H   0  0  0  0  0  0  0  0  0  0  0  0
   -9.7994   20.8023   -1.3658 H   0  0  0  0  0  0  0  0  0  0  0  0
  -11.5737   20.6435   -1.0358 H   0  0  0  0  0  0  0  0  0  0  0  0
  -10.1268   19.3847    0.5993 H   0  0  0  0  0  0  0  0  0  0  0  0
  -11.2895   18.3467   -0.2958 H   0  0  0  0  0  0  0  0  0  0  0  0
   -8.3079   18.7242   -0.9269 H   0  0  0  0  0  0  0  0  0  0  0  0
   -9.0885   17.2516   -0.2428 H   0  0  0  0  0  0  0  0  0  0  0  0
  -10.6555   16.3366   -2.5290 H   0  0  0  0  0  0  0  0  0  0  0  0
  -10.2204   15.1596   -3.8839 H   0  0  0  0  0  0  0  0  0  0  0  0
   -9.4168   15.9784   -0.9164 H   0  0  0  0  0  0  0  0  0  0  0  0
  -10.4147   14.7738   -0.3243 H   0  0  0  0  0  0  0  0  0  0  0  0
   -8.2362   13.4606    0.2244 H   0  0  0  0  0  0  0  0  0  0  0  0
   -6.9826   15.5447   -3.0007 H   0  0  0  0  0  0  0  0  0  0  0  0
   -5.6987   13.2388   -1.4568 H   0  0  0  0  0  0  0  0  0  0  0  0
   -4.9373   14.2918   -2.7244 H   0  0  0  0  0  0  0  0  0  0  0  0
   -4.2940   14.8845   -0.3623 H   0  0  0  0  0  0  0  0  0  0  0  0
   -5.0726   16.2218   -1.3053 H   0  0  0  0  0  0  0  0  0  0  0  0
   -6.2335   14.4838    0.8596 H   0  0  0  0  0  0  0  0  0  0  0  0
   -5.8953   17.5054    0.4625 H   0  0  0  0  0  0  0  0  0  0  0  0
   -6.9719   16.7847    1.7385 H   0  0  0  0  0  0  0  0  0  0  0  0
   -4.0081   16.0409    1.5749 H   0  0  0  0  0  0  0  0  0  0  0  0
   -3.9375   17.4638    3.3517 H   0  0  0  0  0  0  0  0  0  0  0  0
   -2.5536   17.7262    2.2991 H   0  0  0  0  0  0  0  0  0  0  0  0
   -3.6444   18.5472    0.9468 H   0  0  0  0  0  0  0  0  0  0  0  0
   -3.6025   20.4716    1.9430 H   0  0  0  0  0  0  0  0  0  0  0  0
   -2.6430   19.7070    3.3795 H   0  0  0  0  0  0  0  0  0  0  0  0
   -0.8982   19.4886    2.1754 H   0  0  0  0  0  0  0  0  0  0  0  0
   -1.8333   20.2012    0.7185 H   0  0  0  0  0  0  0  0  0  0  0  0
   -2.0651   22.2038    1.9241 H   0  0  0  0  0  0  0  0  0  0  0  0
   -0.8386   21.4266    3.1453 H   0  0  0  0  0  0  0  0  0  0  0  0
    0.6991   21.4382    1.7069 H   0  0  0  0  0  0  0  0  0  0  0  0
   -0.5250   22.1878    0.4657 H   0  0  0  0  0  0  0  0  0  0  0  0
   -0.3414   23.8883    2.6085 H   0  0  0  0  0  0  0  0  0  0  0  0
    0.5409   25.4403    0.8817 H   0  0  0  0  0  0  0  0  0  0  0  0
    0.7669   23.9928   -0.2229 H   0  0  0  0  0  0  0  0  0  0  0  0
   -1.7806   23.6363    0.0936 H   0  0  0  0  0  0  0  0  0  0  0  0
   -2.2576   25.0640   -1.4710 H   0  0  0  0  0  0  0  0  0  0  0  0
   -1.1372   26.7661   -0.7894 H   0  0  0  0  0  0  0  0  0  0  0  0
   -0.3465   23.3035   -2.0887 H   0  0  0  0  0  0  0  0  0  0  0  0
   -2.1639   22.8935   -3.9415 H   0  0  0  0  0  0  0  0  0  0  0  0
   -3.5808   24.8252   -2.3496 H   0  0  0  0  0  0  0  0  0  0  0  0
   -2.2405   22.9012   -1.2012 H   0  0  0  0  0  0  0  0  0  0  0  0
   -3.8488   23.5081   -0.8255 H   0  0  0  0  0  0  0  0  0  0  0  0
   -4.6603   22.4437   -2.1897 H   0  0  0  0  0  0  0  0  0  0  0  0
   -3.7468   20.8510   -0.0002 H   0  0  0  0  0  0  0  0  0  0  0  0
   -5.6854   20.1185   -0.1997 H   0  0  0  0  0  0  0  0  0  0  0  0
   -7.0011   21.1521    0.0264 H   0  0  0  0  0  0  0  0  0  0  0  0
   -4.1614   19.7743   -2.2575 H   0  0  0  0  0  0  0  0  0  0  0  0
   -5.4066   18.7195   -1.4776 H   0  0  0  0  0  0  0  0  0  0  0  0
   -6.2150   20.7533   -3.5835 H   0  0  0  0  0  0  0  0  0  0  0  0
   -6.1993   18.9581   -5.2491 H   0  0  0  0  0  0  0  0  0  0  0  0
   -3.5023   19.9078   -4.2450 H   0  0  0  0  0  0  0  0  0  0  0  0
   -3.8790   19.1750   -5.8976 H   0  0  0  0  0  0  0  0  0  0  0  0
   -4.8804   21.8291   -4.8148 H   0  0  0  0  0  0  0  0  0  0  0  0
   -2.4675   21.7138   -5.5633 H   0  0  0  0  0  0  0  0  0  0  0  0
   -3.0149   20.9828   -7.1246 H   0  0  0  0  0  0  0  0  0  0  0  0
   -3.7395   23.7684   -6.0886 H   0  0  0  0  0  0  0  0  0  0  0  0
   -4.2558   22.2887   -8.7191 H   0  0  0  0  0  0  0  0  0  0  0  0
   -4.9239   24.9518   -7.7930 H   0  0  0  0  0  0  0  0  0  0  0  0
   -6.3563   23.1893   -6.7177 H   0  0  0  0  0  0  0  0  0  0  0  0
   -6.5693   22.2236   -8.2493 H   0  0  0  0  0  0  0  0  0  0  0  0
   -5.5650   20.3240   -7.3381 H   0  0  0  0  0  0  0  0  0  0  0  0
   -6.6507   20.9874   -6.0233 H   0  0  0  0  0  0  0  0  0  0  0  0
   -7.9009   12.6521   -2.9619 H   0  0  0  0  0  0  0  0  0  0  0  0
   -8.3050   13.9617   -4.1231 H   0  0  0  0  0  0  0  0  0  0  0  0
   -6.6614   13.2369   -4.1231 H   0  0  0  0  0  0  0  0  0  0  0  0
   -5.1779   18.4180    4.4977 H   0  0  0  0  0  0  0  0  0  0  0  0
   -5.3744   19.7169    3.2726 H   0  0  0  0  0  0  0  0  0  0  0  0
   -6.4869   18.3066    3.2726 H   0  0  0  0  0  0  0  0  0  0  0  0
    1.8575   23.4659    3.2968 H   0  0  0  0  0  0  0  0  0  0  0  0
    2.2405   22.5579    1.7950 H   0  0  0  0  0  0  0  0  0  0  0  0
    2.2856   24.3536    1.7950 H   0  0  0  0  0  0  0  0  0  0  0  0
   -1.9089   25.3553    1.9671 H   0  0  0  0  0  0  0  0  0  0  0  0
   -1.7992   26.5999    0.6766 H   0  0  0  0  0  0  0  0  0  0  0  0
   -3.1566   25.4234    0.6766 H   0  0  0  0  0  0  0  0  0  0  0  0
   -1.7771   21.0268   -0.6673 H   0  0  0  0  0  0  0  0  0  0  0  0
   -2.3433   20.2798   -2.1996 H   0  0  0  0  0  0  0  0  0  0  0  0
   -0.8942   21.3413   -2.1996 H   0  0  0  0  0  0  0  0  0  0  0  0
   -4.6336   21.7615    1.7927 H   0  0  0  0  0  0  0  0  0  0  0  0
   -4.5714   23.3199    0.9015 H   0  0  0  0  0  0  0  0  0  0  0  0
   -6.0800   22.3449    0.9015 H   0  0  0  0  0  0  0  0  0  0  0  0
   -4.9477   17.4606   -3.0326 H   0  0  0  0  0  0  0  0  0  0  0  0
   -5.7030   16.8590   -4.5473 H   0  0  0  0  0  0  0  0  0  0  0  0
   -3.9852   17.3842   -4.5473 H   0  0  0  0  0  0  0  0  0  0  0  0
   -4.2019   15.2267    4.8985 H   0  0  0  0  0  0  0  0  0  0  0  0
   -3.8196   14.1269    3.5307 H   0  0  0  0  0  0  0  0  0  0  0  0
   -3.1947   15.8110    3.5307 H   0  0  0  0  0  0  0  0  0  0  0  0
    1.2738   25.0087   -2.5888 H   0  0  0  0  0  0  0  0  0  0  0  0
    1.5250   24.1437   -4.1429 H   0  0  0  0  0  0  0  0  0  0  0  0
    1.1568   25.9018   -4.1429 H   0  0  0  0  0  0  0  0  0  0  0  0
   -1.5812   24.0432   -5.6958 H   0  0  0  0  0  0  0  0  0  0  0  0
   -0.3408   23.8482   -6.9803 H   0  0  0  0  0  0  0  0  0  0  0  0
   -1.4151   25.2878   -6.9803 H   0  0  0  0  0  0  0  0  0  0  0  0
   25.2569   40.4607    0.6270 H   0  0  0  0  0  0  0  0  0  0  0  0
   25.0625   40.2958    3.1684 H   0  0  0  0  0  0  0  0  0  0  0  0
   27.4616   40.9512    2.2723 H   0  0  0  0  0  0  0  0  0  0  0  0
   25.7845   42.6193    1.2835 H   0  0  0  0  0  0  0  0  0  0  0  0
   27.5124   42.8530    0.8041 H   0  0  0  0  0  0  0  0  0  0  0  0
   25.3509   41.4644   -0.8759 H   0  0  0  0  0  0  0  0  0  0  0  0
   26.0103   43.1033   -1.1637 H   0  0  0  0  0  0  0  0  0  0  0  0
   27.1505   41.4492   -2.6054 H   0  0  0  0  0  0  0  0  0  0  0  0
   28.2978   42.1195   -1.3907 H   0  0  0  0  0  0  0  0  0  0  0  0
   26.8096   39.4489   -1.2018 H   0  0  0  0  0  0  0  0  0  0  0  0
   28.5614   39.6792   -1.5561 H   0  0  0  0  0  0  0  0  0  0  0  0
   29.6115   40.4708    0.9239 H   0  0  0  0  0  0  0  0  0  0  0  0
   28.3293   39.3828    2.6709 H   0  0  0  0  0  0  0  0  0  0  0  0
   29.4696   39.0430   -0.7022 H   0  0  0  0  0  0  0  0  0  0  0  0
   31.5265   39.8495    0.4930 H   0  0  0  0  0  0  0  0  0  0  0  0
   31.8363   36.7263    0.2898 H   0  0  0  0  0  0  0  0  0  0  0  0
   28.6462   36.9588    1.4821 H   0  0  0  0  0  0  0  0  0  0  0  0
   30.0299   34.4996    0.3171 H   0  0  0  0  0  0  0  0  0  0  0  0
   28.5497   34.5912    1.3824 H   0  0  0  0  0  0  0  0  0  0  0  0
   28.1034   34.0631   -1.0453 H   0  0  0  0  0  0  0  0  0  0  0  0
   27.2401   35.5069   -0.3554 H   0  0  0  0  0  0  0  0  0  0  0  0
   29.6378   35.4559   -2.2054 H   0  0  0  0  0  0  0  0  0  0  0  0
   26.8205   36.6291   -2.4016 H   0  0  0  0  0  0  0  0  0  0  0  0
   28.2130   36.9216   -3.5852 H   0  0  0  0  0  0  0  0  0  0  0  0
   27.2797   34.1211   -3.0931 H   0  0  0  0  0  0  0  0  0  0  0  0
   26.1622   34.5269   -5.1085 H   0  0  0  0  0  0  0  0  0  0  0  0
   25.2193   33.4487   -4.1006 H   0  0  0  0  0  0  0  0  0  0  0  0
   24.8212   34.8127   -2.8415 H   0  0  0  0  0  0  0  0  0  0  0  0
   23.3221   35.7112   -4.3051 H   0  0  0  0  0  0  0  0  0  0  0  0
   23.6355   34.2063   -5.4014 H   0  0  0  0  0  0  0  0  0  0  0  0
   22.7888   32.9022   -3.9389 H   0  0  0  0  0  0  0  0  0  0  0  0
   22.4843   34.3775   -2.8304 H   0  0  0  0  0  0  0  0  0  0  0  0
   21.0007   35.2400   -4.3490 H   0  0  0  0  0  0  0  0  0  0  0  0
   21.2752   33.7072   -5.3938 H   0  0  0  0  0  0  0  0  0  0  0  0
   20.4111   32.4623   -3.8768 H   0  0  0  0  0  0  0  0  0  0  0  0
   20.1275   34.0361   -2.8483 H   0  0  0  0  0  0  0  0  0  0  0  0
   18.7814   34.3232   -5.2262 H   0  0  0  0  0  0  0  0  0  0  0  0
   16.9040   34.5863   -3.7502 H   0  0  0  0  0  0  0  0  0  0  0  0
   17.8045   33.6612   -2.4385 H   0  0  0  0  0  0  0  0  0  0  0  0
   19.5126   35.5691   -2.5674 H   0  0  0  0  0  0  0  0  0  0  0  0
   18.3039   36.8536   -1.2705 H   0  0  0  0  0  0  0  0  0  0  0  0
   16.4089   36.6844   -0.4280 H   0  0  0  0  0  0  0  0  0  0  0  0
   18.7567   34.3837   -0.3863 H   0  0  0  0  0  0  0  0  0  0  0  0
   19.7429   35.8912    1.4980 H   0  0  0  0  0  0  0  0  0  0  0  0
   18.8654   37.8289    1.5282 H   0  0  0  0  0  0  0  0  0  0  0  0
   20.1555   35.7844   -1.1871 H   0  0  0  0  0  0  0  0  0  0  0  0
   20.3190   37.4344   -1.7328 H   0  0  0  0  0  0  0  0  0  0  0  0
   21.4564   37.8836   -0.2415 H   0  0  0  0  0  0  0  0  0  0  0  0
   22.7196   36.2356   -2.1924 H   0  0  0  0  0  0  0  0  0  0  0  0
   24.1879   37.7920   -1.9601 H   0  0  0  0  0  0  0  0  0  0  0  0
   23.6902   39.5673   -0.3221 H   0  0  0  0  0  0  0  0  0  0  0  0
   23.8366   36.1633    0.0197 H   0  0  0  0  0  0  0  0  0  0  0  0
   25.3127   36.9064   -0.6563 H   0  0  0  0  0  0  0  0  0  0  0  0
   23.6077   38.4822    1.2990 H   0  0  0  0  0  0  0  0  0  0  0  0
   24.9228   37.8253    3.1454 H   0  0  0  0  0  0  0  0  0  0  0  0
   23.0188   35.7496    2.0664 H   0  0  0  0  0  0  0  0  0  0  0  0
   23.6912   35.8513    3.7946 H   0  0  0  0  0  0  0  0  0  0  0  0
   21.8515   37.7988    2.4233 H   0  0  0  0  0  0  0  0  0  0  0  0
   20.7974   35.6862    3.2463 H   0  0  0  0  0  0  0  0  0  0  0  0
   21.5499   35.9757    4.8717 H   0  0  0  0  0  0  0  0  0  0  0  0
   19.5076   37.7295    3.4667 H   0  0  0  0  0  0  0  0  0  0  0  0
   20.7912   37.8100    6.2630 H   0  0  0  0  0  0  0  0  0  0  0  0
   19.2675   39.1919    6.7931 H   0  0  0  0  0  0  0  0  0  0  0  0
   21.1484   39.8195    4.0190 H   0  0  0  0  0  0  0  0  0  0  0  0
   21.9273   39.8015    5.6675 H   0  0  0  0  0  0  0  0  0  0  0  0
   23.2084   37.8692    5.1424 H   0  0  0  0  0  0  0  0  0  0  0  0
   23.3842   39.0357    3.7603 H   0  0  0  0  0  0  0  0  0  0  0  0
   30.0761   36.4097    3.1421 H   0  0  0  0  0  0  0  0  0  0  0  0
   31.1116   35.4040    2.0730 H   0  0  0  0  0  0  0  0  0  0  0  0
   31.2895   37.1915    2.0730 H   0  0  0  0  0  0  0  0  0  0  0  0
   25.5773   37.3056   -4.8504 H   0  0  0  0  0  0  0  0  0  0  0  0
   26.6497   36.4144   -5.9829 H   0  0  0  0  0  0  0  0  0  0  0  0
   24.8816   36.0972   -5.9829 H   0  0  0  0  0  0  0  0  0  0  0  0
   17.9649   31.7607   -3.7617 H   0  0  0  0  0  0  0  0  0  0  0  0
   17.2740   32.4393   -5.2746 H   0  0  0  0  0  0  0  0  0  0  0  0
   18.9332   31.7509   -5.2746 H   0  0  0  0  0  0  0  0  0  0  0  0
   18.0458   37.7648   -3.0685 H   0  0  0  0  0  0  0  0  0  0  0  0
   19.1009   36.9753   -4.2892 H   0  0  0  0  0  0  0  0  0  0  0  0
   17.3331   36.6563   -4.2892 H   0  0  0  0  0  0  0  0  0  0  0  0
   21.6658   34.5270    0.7173 H   0  0  0  0  0  0  0  0  0  0  0  0
   20.8894   34.0754   -0.8383 H   0  0  0  0  0  0  0  0  0  0  0  0
   22.4473   34.9696   -0.8383 H   0  0  0  0  0  0  0  0  0  0  0  0
   21.7477   39.0355   -2.9499 H   0  0  0  0  0  0  0  0  0  0  0  0
   23.0418   38.1185   -3.7932 H   0  0  0  0  0  0  0  0  0  0  0  0
   21.3558   37.4987   -3.7932 H   0  0  0  0  0  0  0  0  0  0  0  0
   26.1396   35.7816    3.3164 H   0  0  0  0  0  0  0  0  0  0  0  0
   25.4823   35.1636    1.7631 H   0  0  0  0  0  0  0  0  0  0  0  0
   26.6687   36.5123    1.7631 H   0  0  0  0  0  0  0  0  0  0  0  0
   28.2403   32.7884   -4.5244 H   0  0  0  0  0  0  0  0  0  0  0  0
   27.3469   33.4064   -5.9549 H   0  0  0  0  0  0  0  0  0  0  0  0
   29.1431   33.3927   -5.9549 H   0  0  0  0  0  0  0  0  0  0  0  0
   15.7803   34.0360    1.6051 H   0  0  0  0  0  0  0  0  0  0  0  0
   15.5195   34.9562    0.0846 H   0  0  0  0  0  0  0  0  0  0  0  0
   16.5737   33.5018    0.0846 H   0  0  0  0  0  0  0  0  0  0  0  0
   17.2069   35.4106    4.8629 H   0  0  0  0  0  0  0  0  0  0  0  0
   17.4805   36.6603    3.6019 H   0  0  0  0  0  0  0  0  0  0  0  0
   18.4603   35.1548    3.6019 H   0  0  0  0  0  0  0  0  0  0  0  0
  1  2  1  0
  1  3  1  0
  1  4  1  0
  4  5  1  0
  5  6  1  0
  6  7  1  0
  7  8  1  0
  4  9  1  0
  8  9  1  0
  9 10  1  0
 10 11  1  0
 10 12  1  0
 12 13  1  0
 12 14  1  0
 14 15  1  0
 14 16  1  1
 14 17  1  0
 17 18  1  0
 18 19  1  0
 15 20  1  0
 19 20  1  0
 20 21  1  0
 21 22  1  0
 22 23  1  0
 22 24  1  0
 24 25  1  0
 25 26  1  0
 26 27  1  0
 27 28  1  0
 28 29  1  0
 29 30  1  0
 30 31  1  0
 31 32  1  0
 32 33  1  0
 33 34  1  0
 33 35  1  0
 35 36  1  0
 35 37  1  0
 37 38  1  0
 37 39  1  0
 39 40  1  0
 40 41  1  0
 41 42  1  0
 42 43  1  0
 42 44  1  0
  2 45  1  0
 44 45  1  0
 45 46  1  0
 46 47  1  0
 47 48  1  0
 48 49  1  0
 49 50  1  0
 50 51  1  0
 50 52  1  0
 52 53  1  0
 52 54  1  0
 48 55  1  0
 54 55  1  0
 17 56  1  0
 24 57  1  0
 30 58  1  0
 32 59  1  0
 39 60  1  0
 41 61  1  0
 46 62  1  0
 23 63  1  0
 36 64  1  0
 51 65  1  0
 66 67  1  0
 66 68  1  0
 66 69  1  0
 69 70  1  0
 70 71  1  0
 71 72  1  0
 72 73  1  0
 69 74  1  0
 73 74  1  0
 74 75  1  0
 75 76  1  0
 75 77  1  0
 77 78  1  0
 77 79  1  0
 79 80  1  0
 79 81  1  6
 79 82  1  0
 82 83  1  0
 83 84  1  0
 80 85  1  0
 84 85  1  0
 85 86  1  0
 86 87  1  0
 87 88  1  0
 87 89  1  0
 89 90  1  0
 90 91  1  0
 91 92  1  0
 92 93  1  0
 93 94  1  0
 94 95  1  0
 95 96  1  0
 96 97  1  0
 97 98  1  0
 98 99  1  0
 98100  1  0
100101  1  0
100102  1  0
102103  1  0
102104  1  0
104105  1  0
105106  1  0
106107  1  0
107108  1  0
107109  1  0
 67110  1  0
109110  1  0
110111  1  0
111112  1  0
112113  1  0
113114  1  0
114115  1  0
115116  1  0
115117  1  0
117118  1  0
117119  1  0
113120  1  0
119120  1  0
 82121  1  0
 89122  1  0
 95123  1  0
 97124  1  0
104125  1  0
106126  1  0
111127  1  0
 88128  1  0
101129  1  0
116130  1  0
  1131  1  0
  3132  1  0
  4133  1  6
  5134  1  0
  5135  1  0
  6136  1  0
  6137  1  0
  7138  1  0
  7139  1  0
  8140  1  0
  8141  1  0
 10142  1  0
 11143  1  0
 12144  1  0
 13145  1  0
 16146  1  0
 17147  1  6
 18148  1  0
 18149  1  0
 19150  1  0
 19151  1  0
 20152  1  1
 21153  1  0
 21154  1  0
 22155  1  6
 24156  1  1
 25157  1  0
 25158  1  0
 26159  1  0
 26160  1  0
 27161  1  0
 27162  1  0
 28163  1  0
 28164  1  0
 29165  1  0
 29166  1  0
 30167  1  1
 31168  1  0
 31169  1  0
 32170  1  6
 33171  1  6
 34172  1  0
 35173  1  1
 37174  1  6
 38175  1  0
 39176  1  0
 40177  1  0
 40178  1  0
 41179  1  1
 42180  1  0
 43181  1  0
 44182  1  0
 44183  1  0
 45184  1  6
 46185  1  6
 47186  1  0
 47187  1  0
 48188  1  1
 49189  1  0
 49190  1  0
 50191  1  1
 52192  1  6
 53193  1  0
 54194  1  0
 54195  1  0
 55196  1  0
 55197  1  0
 56198  1  0
 56199  1  0
 56200  1  0
 57201  1  0
 57202  1  0
 57203  1  0
 58204  1  0
 58205  1  0
 58206  1  0
 59207  1  0
 59208  1  0
 59209  1  0
 60210  1  0
 60211  1  0
 60212  1  0
 61213  1  0
 61214  1  0
 61215  1  0
 62216  1  0
 62217  1  0
 62218  1  0
 63219  1  0
 63220  1  0
 63221  1  0
 64222  1  0
 64223  1  0
 64224  1  0
 65225  1  0
 65226  1  0
 65227  1  0
 66228  1  0
 68229  1  0
 69230  1  1
 70231  1  0
 70232  1  0
 71233  1  0
 71234  1  0
 72235  1  0
 72236  1  0
 73237  1  0
 73238  1  0
 75239  1  0
 76240  1  0
 77241  1  0
 78242  1  0
 81243  1  0
 82244  1  1
 83245  1  0
 83246  1  0
 84247  1  0
 84248  1  0
 85249  1  6
 86250  1  0
 86251  1  0
 87252  1  1
 89253  1  0
 90254  1  0
 90255  1  0
 91256  1  0
 91257  1  0
 92258  1  0
 92259  1  0
 93260  1  0
 93261  1  0
 94262  1  0
 94263  1  0
 95264  1  6
 96265  1  0
 96266  1  0
 97267  1  1
 98268  1  0
 99269  1  0
100270  1  6
102271  1  1
103272  1  0
104273  1  0
105274  1  0
105275  1  0
106276  1  6
107277  1  0
108278  1  0
109279  1  0
109280  1  0
110281  1  1
111282  1  1
112283  1  0
112284  1  0
113285  1  6
114286  1  0
114287  1  0
115288  1  6
117289  1  1
118290  1  0
119291  1  0
119292  1  0
120293  1  0
120294  1  0
121295  1  0
121296  1  0
121297  1  0
122298  1  0
122299  1  0
122300  1  0
123301  1  0
123302  1  0
123303  1  0
124304  1  0
124305  1  0
124306  1  0
125307  1  0
125308  1  0
125309  1  0
126310  1  0
126311  1  0
126312  1  0
127313  1  0
127314  1  0
127315  1  0
128316  1  0
128317  1  0
128318  1  0
129319  1  0
129320  1  0
129321  1  0
130322  1  0
130323  1  0
130324  1  0
M  END
>  <PDBID>  (1) 
4DRH

>  <PDB ID>  (1) 
4DRH

>  <Generic Name>  (1) 
Sirolimus

>  <Brand Name>  (1) 
Gd-sirolimus#Rapamune#Rapamune Oral Solution#Sirolimus

>  <DrugBank ID>  (1) 
DB00877

>  <ATC Codes>  (1) 
S01XA23#L04AA10

>  <Ligand ID>  (1) 
RAP

>  <Target Name>  (1) 
Serine/threonine-protein kinase mTOR

>  <UniProt ID>  (1) 
P42345

>  <PDB ID.1>  (1) 
4DRH

>  <Seq. Identity>  (1) 
100%

$$$$
