PDB_DB01248_99
     RDKit          3D

111116  0  0  0  0  0  0  0  0999 V2000
  -79.6660   26.7950  -23.2570 C   0  0  2  0  0  0  0  0  0  0  0  0
  -80.2620   26.2260  -24.6750 C   0  0  2  0  0  0  0  0  0  0  0  0
  -79.2540   26.2430  -25.8140 C   0  0  2  0  0  0  0  0  0  0  0  0
  -79.9720   26.7230  -27.2080 C   0  0  1  0  0  0  0  0  0  0  0  0
  -79.4630   26.3640  -28.5720 C   0  0  1  0  0  0  0  0  0  0  0  0
  -78.2080   25.6100  -28.5200 C   0  0  0  0  0  0  0  0  0  0  0  0
  -77.4850   25.3930  -27.0800 C   0  0  1  0  0  0  0  0  0  0  0  0
  -78.5690   25.0590  -26.0230 C   0  0  1  0  0  0  0  0  0  0  0  0
  -77.6220   24.5610  -24.7430 C   0  0  0  0  0  0  0  0  0  0  0  0
  -76.5530   25.3370  -23.8350 C   0  0  1  0  0  0  0  0  0  0  0  0
  -77.1970   26.3360  -23.2180 C   0  0  0  0  0  0  0  0  0  0  0  0
  -76.7090   27.4710  -23.4400 C   0  0  0  0  0  0  0  0  0  0  0  0
  -77.6100   28.4120  -23.0140 C   0  0  2  0  0  0  0  0  0  0  0  0
  -79.1730   28.1150  -23.4980 C   0  0  0  0  0  0  0  0  0  0  0  0
  -78.4840   26.0910  -22.4390 C   0  0  0  0  0  0  0  0  0  0  0  0
  -78.9740   24.7800  -22.3180 C   0  0  0  0  0  0  0  0  0  0  0  0
  -78.1270   26.5000  -20.9100 C   0  0  0  0  0  0  0  0  0  0  0  0
  -75.4210   27.8790  -24.1120 C   0  0  0  0  0  0  0  0  0  0  0  0
  -79.6280   24.0470  -26.5370 C   0  0  0  0  0  0  0  0  0  0  0  0
  -81.4050   26.1390  -27.8300 C   0  0  0  0  0  0  0  0  0  0  0  0
  -80.8290   26.8300  -22.4850 O   0  0  0  0  0  0  0  0  0  0  0  0
  -81.4230   26.9310  -25.2090 O   0  0  0  0  0  0  0  0  0  0  0  0
  -80.0960   27.9780  -27.1770 O   0  0  0  0  0  0  0  0  0  0  0  0
  -80.8140   25.7020  -29.0030 O   0  0  0  0  0  0  0  0  0  0  0  0
  -76.4740   24.5460  -27.0800 O   0  0  0  0  0  0  0  0  0  0  0  0
  -77.6370   23.5000  -24.5570 O   0  0  0  0  0  0  0  0  0  0  0  0
  -75.8030   24.6540  -22.7890 O   0  0  0  0  0  0  0  0  0  0  0  0
  -77.2350   29.5380  -23.6690 O   0  0  0  0  0  0  0  0  0  0  0  0
  -76.3910   30.3220  -22.8680 C   0  0  0  0  0  0  0  0  0  0  0  0
  -76.0770   30.1520  -21.6710 O   0  0  0  0  0  0  0  0  0  0  0  0
  -75.8160   31.3400  -23.6910 C   0  0  2  0  0  0  0  0  0  0  0  0
  -74.8910   32.0630  -22.7670 O   0  0  0  0  0  0  0  0  0  0  0  0
  -76.9370   32.0640  -24.4670 C   0  0  2  0  0  0  0  0  0  0  0  0
  -76.2240   33.0540  -25.2700 C   0  0  0  0  0  0  0  0  0  0  0  0
  -75.8530   34.1430  -24.7400 C   0  0  0  0  0  0  0  0  0  0  0  0
  -75.0580   34.9780  -25.4340 C   0  0  0  0  0  0  0  0  0  0  0  0
  -74.6380   34.7230  -26.6850 C   0  0  0  0  0  0  0  0  0  0  0  0
  -75.0480   33.6470  -27.2430 C   0  0  0  0  0  0  0  0  0  0  0  0
  -75.8290   32.8090  -26.5530 C   0  0  0  0  0  0  0  0  0  0  0  0
  -77.8320   32.5010  -23.4910 N   0  0  0  0  0  0  0  0  0  0  0  0
  -79.2210   32.5260  -23.8680 C   0  0  0  0  0  0  0  0  0  0  0  0
  -79.8930   32.0480  -24.8560 O   0  0  0  0  0  0  0  0  0  0  0  0
  -79.7660   33.0960  -22.8790 O   0  0  0  0  0  0  0  0  0  0  0  0
  -81.3020   33.2090  -22.9540 C   0  0  0  0  0  0  0  0  0  0  0  0
  -81.3470   33.8600  -21.6600 C   0  0  0  0  0  0  0  0  0  0  0  0
  -81.8270   33.8830  -24.2350 C   0  0  0  0  0  0  0  0  0  0  0  0
  -82.0500   31.9900  -22.8760 C   0  0  0  0  0  0  0  0  0  0  0  0
  -82.7580   26.5110  -25.0840 C   0  0  0  0  0  0  0  0  0  0  0  0
  -83.0570   25.5420  -24.5450 O   0  0  0  0  0  0  0  0  0  0  0  0
  -83.7660   27.3100  -25.6900 C   0  0  0  0  0  0  0  0  0  0  0  0
  -83.3990   28.4780  -25.9760 C   0  0  0  0  0  0  0  0  0  0  0  0
  -84.4440   29.1950  -26.5750 C   0  0  0  0  0  0  0  0  0  0  0  0
  -85.6910   28.9050  -26.8830 C   0  0  0  0  0  0  0  0  0  0  0  0
  -86.1130   27.7040  -26.7770 C   0  0  0  0  0  0  0  0  0  0  0  0
  -85.1760   26.8440  -26.0640 C   0  0  0  0  0  0  0  0  0  0  0  0
  -78.9070   28.7060  -27.3320 C   0  0  0  0  0  0  0  0  0  0  0  0
  -77.7980   28.3400  -27.4070 O   0  0  0  0  0  0  0  0  0  0  0  0
  -79.2520   29.9550  -27.3760 C   0  0  0  0  0  0  0  0  0  0  0  0
  -80.5416   25.2062  -24.3718 H   0  0  0  0  0  0  0  0  0  0  0  0
  -78.4899   26.9675  -25.4956 H   0  0  0  0  0  0  0  0  0  0  0  0
  -79.0925   27.1115  -29.2890 H   0  0  0  0  0  0  0  0  0  0  0  0
  -78.4133   24.6112  -28.9327 H   0  0  0  0  0  0  0  0  0  0  0  0
  -77.4986   26.2343  -29.0830 H   0  0  0  0  0  0  0  0  0  0  0  0
  -76.9919   26.3395  -26.8134 H   0  0  0  0  0  0  0  0  0  0  0  0
  -75.7832   25.5886  -24.5794 H   0  0  0  0  0  0  0  0  0  0  0  0
  -77.6040   28.4469  -21.9146 H   0  0  0  0  0  0  0  0  0  0  0  0
  -79.2312   28.3031  -24.5802 H   0  0  0  0  0  0  0  0  0  0  0  0
  -79.8023   28.7811  -22.8895 H   0  0  0  0  0  0  0  0  0  0  0  0
  -79.0706   24.5215  -21.2532 H   0  0  0  0  0  0  0  0  0  0  0  0
  -79.9588   24.7104  -22.8030 H   0  0  0  0  0  0  0  0  0  0  0  0
  -78.2762   24.0815  -22.8030 H   0  0  0  0  0  0  0  0  0  0  0  0
  -78.6890   25.8561  -20.2175 H   0  0  0  0  0  0  0  0  0  0  0  0
  -77.0483   26.3700  -20.7380 H   0  0  0  0  0  0  0  0  0  0  0  0
  -78.4016   27.5512  -20.7380 H   0  0  0  0  0  0  0  0  0  0  0  0
  -74.6677   28.1176  -23.3467 H   0  0  0  0  0  0  0  0  0  0  0  0
  -75.0569   27.0522  -24.7396 H   0  0  0  0  0  0  0  0  0  0  0  0
  -75.5994   28.7646  -24.7396 H   0  0  0  0  0  0  0  0  0  0  0  0
  -80.1264   23.5707  -25.6798 H   0  0  0  0  0  0  0  0  0  0  0  0
  -80.3745   24.5759  -27.1477 H   0  0  0  0  0  0  0  0  0  0  0  0
  -79.1335   23.2773  -27.1477 H   0  0  0  0  0  0  0  0  0  0  0  0
  -81.8396   25.3247  -27.2317 H   0  0  0  0  0  0  0  0  0  0  0  0
  -82.2657   26.8207  -27.8971 H   0  0  0  0  0  0  0  0  0  0  0  0
  -80.5880   26.8227  -21.5248 H   0  0  0  0  0  0  0  0  0  0  0  0
  -76.2210   24.3341  -26.1466 H   0  0  0  0  0  0  0  0  0  0  0  0
  -76.1285   24.9505  -21.9023 H   0  0  0  0  0  0  0  0  0  0  0  0
  -75.1879   31.0428  -24.5438 H   0  0  0  0  0  0  0  0  0  0  0  0
  -75.1415   31.8672  -21.8294 H   0  0  0  0  0  0  0  0  0  0  0  0
  -77.5586   31.4971  -25.1757 H   0  0  0  0  0  0  0  0  0  0  0  0
  -76.1777   34.4037  -23.7219 H   0  0  0  0  0  0  0  0  0  0  0  0
  -74.7364   35.9142  -24.9544 H   0  0  0  0  0  0  0  0  0  0  0  0
  -73.9647   35.4157  -27.2112 H   0  0  0  0  0  0  0  0  0  0  0  0
  -74.7612   33.4138  -28.2790 H   0  0  0  0  0  0  0  0  0  0  0  0
  -76.1674   31.8828  -27.0404 H   0  0  0  0  0  0  0  0  0  0  0  0
  -77.5171   32.7895  -22.5537 H   0  0  0  0  0  0  0  0  0  0  0  0
  -81.2945   33.1009  -20.8656 H   0  0  0  0  0  0  0  0  0  0  0  0
  -80.4943   34.5485  -21.5661 H   0  0  0  0  0  0  0  0  0  0  0  0
  -82.2863   34.4247  -21.5661 H   0  0  0  0  0  0  0  0  0  0  0  0
  -82.4822   34.7242  -23.9646 H   0  0  0  0  0  0  0  0  0  0  0  0
  -80.9784   34.2551  -24.8278 H   0  0  0  0  0  0  0  0  0  0  0  0
  -82.3955   33.1512  -24.8278 H   0  0  0  0  0  0  0  0  0  0  0  0
  -82.2119   31.7261  -21.8205 H   0  0  0  0  0  0  0  0  0  0  0  0
  -83.0218   32.1236  -23.3738 H   0  0  0  0  0  0  0  0  0  0  0  0
  -81.4907   31.1841  -23.3738 H   0  0  0  0  0  0  0  0  0  0  0  0
  -82.3945   28.8823  -25.7825 H   0  0  0  0  0  0  0  0  0  0  0  0
  -84.1610   30.2227  -26.8467 H   0  0  0  0  0  0  0  0  0  0  0  0
  -86.3696   29.6974  -27.2317 H   0  0  0  0  0  0  0  0  0  0  0  0
  -87.0764   27.3571  -27.1790 H   0  0  0  0  0  0  0  0  0  0  0  0
  -85.4921   25.8278  -25.7858 H   0  0  0  0  0  0  0  0  0  0  0  0
  -79.3589   30.3421  -26.3519 H   0  0  0  0  0  0  0  0  0  0  0  0
  -78.4792   30.5304  -27.9067 H   0  0  0  0  0  0  0  0  0  0  0  0
  -80.2106   30.0521  -27.9067 H   0  0  0  0  0  0  0  0  0  0  0  0
  1  2  1  0
  2  3  1  0
  3  4  1  0
  4  5  1  0
  5  6  1  0
  6  7  1  0
  3  8  1  0
  7  8  1  0
  8  9  1  0
  9 10  1  0
 10 11  1  0
 11 12  2  0
 12 13  1  0
  1 14  1  0
 13 14  1  0
  1 15  1  0
 11 15  1  0
 15 16  1  0
 15 17  1  0
 12 18  1  0
  8 19  1  6
  4 20  1  0
  1 21  1  1
  2 22  1  0
  4 23  1  6
  5 24  1  0
 20 24  1  0
  7 25  1  0
  9 26  2  0
 10 27  1  0
 13 28  1  0
 28 29  1  0
 29 30  2  0
 29 31  1  0
 31 32  1  0
 31 33  1  0
 33 34  1  0
 34 35  2  0
 35 36  1  0
 36 37  2  0
 37 38  1  0
 34 39  1  0
 38 39  2  0
 33 40  1  0
 40 41  1  0
 41 42  2  0
 41 43  1  0
 43 44  1  0
 44 45  1  0
 44 46  1  0
 44 47  1  0
 22 48  1  0
 48 49  2  0
 48 50  1  0
 50 51  2  0
 51 52  1  0
 52 53  2  0
 53 54  1  0
 50 55  1  0
 54 55  2  0
 23 56  1  0
 56 57  2  0
 56 58  1  0
  2 59  1  1
  3 60  1  1
  5 61  1  6
  6 62  1  0
  6 63  1  0
  7 64  1  1
 10 65  1  6
 13 66  1  1
 14 67  1  0
 14 68  1  0
 16 69  1  0
 16 70  1  0
 16 71  1  0
 17 72  1  0
 17 73  1  0
 17 74  1  0
 18 75  1  0
 18 76  1  0
 18 77  1  0
 19 78  1  0
 19 79  1  0
 19 80  1  0
 20 81  1  0
 20 82  1  0
 21 83  1  0
 25 84  1  0
 27 85  1  0
 31 86  1  6
 32 87  1  0
 33 88  1  6
 35 89  1  0
 36 90  1  0
 37 91  1  0
 38 92  1  0
 39 93  1  0
 40 94  1  0
 45 95  1  0
 45 96  1  0
 45 97  1  0
 46 98  1  0
 46 99  1  0
 46100  1  0
 47101  1  0
 47102  1  0
 47103  1  0
 51104  1  0
 52105  1  0
 53106  1  0
 54107  1  0
 55108  1  0
 58109  1  0
 58110  1  0
 58111  1  0
M  END
>  <PDBID>  (1) 
1TUB

>  <PDB ID>  (1) 
1TUB

>  <Generic Name>  (1) 
Docetaxel

>  <Brand Name>  (1) 
Docefrez#Docetaxel#Docetaxel Injection#Docetaxel Injection USP#Docetaxel Non-alcohol Formula#PMS-docetaxel#Taxotere

>  <DrugBank ID>  (1) 
DB01248

>  <ATC Codes>  (1) 
L01CD02

>  <Ligand ID>  (1) 
TXL

>  <Target Name>  (1) 
Tubulin beta-1 chain

>  <UniProt ID>  (1) 
Q9H4B7

>  <PDB ID.1>  (1) 
1TUB

>  <Seq. Identity>  (1) 
78%

$$$$
