PDB_DB01051_94
     RDKit          3D

 80 83  0  0  0  0  0  0  0  0999 V2000
  -48.1760   -6.9650  -22.1710 C   0  0  0  0  0  0  0  0  0  0  0  0
  -48.8530   -7.4510  -23.3240 O   0  0  0  0  0  0  0  0  0  0  0  0
  -50.6190   -3.3520  -24.2510 N   0  0  0  0  0  0  0  0  0  0  0  0
  -50.4330   -4.3680  -25.0870 C   0  0  0  0  0  0  0  0  0  0  0  0
  -51.1650   -4.6440  -26.0110 O   0  0  0  0  0  0  0  0  0  0  0  0
  -49.2710   -5.0360  -24.7910 O   0  0  0  0  0  0  0  0  0  0  0  0
  -48.1810   -7.2090  -24.5580 C   0  0  2  0  0  0  0  0  0  0  0  0
  -49.0070   -6.2920  -25.4530 C   0  0  2  0  0  0  0  0  0  0  0  0
  -48.3810   -6.1330  -26.8390 C   0  0  1  0  0  0  0  0  0  0  0  0
  -47.1070   -5.4940  -26.8820 O   0  0  0  0  0  0  0  0  0  0  0  0
  -48.2930   -7.4960  -27.5110 C   0  0  1  0  0  0  0  0  0  0  0  0
  -47.6590   -8.4730  -26.6800 O   0  0  0  0  0  0  0  0  0  0  0  0
  -47.9670   -8.6250  -25.2660 C   0  0  0  0  0  0  0  0  0  0  0  0
  -49.1430   -9.5870  -25.1550 C   0  0  0  0  0  0  0  0  0  0  0  0
  -46.7110   -9.2780  -24.7210 C   0  0  0  0  0  0  0  0  0  0  0  0
  -49.6050   -7.8270  -27.9160 O   0  0  0  0  0  0  0  0  0  0  0  0
  -49.8480   -8.9690  -28.6560 C   0  0  0  0  0  0  0  0  0  0  0  0
  -51.1820   -9.1060  -29.0630 C   0  0  0  0  0  0  0  0  0  0  0  0
  -52.2280   -8.0900  -28.6650 C   0  0  0  0  0  0  0  0  0  0  0  0
  -51.4990  -10.2120  -29.8500 C   0  0  0  0  0  0  0  0  0  0  0  0
  -50.5600  -11.1870  -30.2030 C   0  0  0  0  0  0  0  0  0  0  0  0
  -49.2440  -11.0330  -29.7520 C   0  0  0  0  0  0  0  0  0  0  0  0
  -48.8850   -9.9310  -28.9900 C   0  0  0  0  0  0  0  0  0  0  0  0
  -52.7950  -10.2550  -30.3240 O   0  0  0  0  0  0  0  0  0  0  0  0
  -53.2530  -11.2470  -31.1610 C   0  0  0  0  0  0  0  0  0  0  0  0
  -54.3970  -11.1350  -31.5240 O   0  0  0  0  0  0  0  0  0  0  0  0
  -52.2780  -12.3380  -31.5390 C   0  0  0  0  0  0  0  0  0  0  0  0
  -50.9950  -12.2770  -31.0690 C   0  0  0  0  0  0  0  0  0  0  0  0
  -50.0780  -13.1970  -31.3570 O   0  0  0  0  0  0  0  0  0  0  0  0
  -52.8890  -13.3380  -32.3210 N   0  0  0  0  0  0  0  0  0  0  0  0
  -52.7400  -13.4670  -33.6830 C   0  0  0  0  0  0  0  0  0  0  0  0
  -52.1260  -12.6410  -34.3580 O   0  0  0  0  0  0  0  0  0  0  0  0
  -53.3590  -14.6820  -34.3030 C   0  0  0  0  0  0  0  0  0  0  0  0
  -53.7140  -15.7700  -33.5040 C   0  0  0  0  0  0  0  0  0  0  0  0
  -54.2790  -16.9270  -34.0500 C   0  0  0  0  0  0  0  0  0  0  0  0
  -54.4770  -16.9790  -35.4370 C   0  0  0  0  0  0  0  0  0  0  0  0
  -55.0220  -18.0860  -36.0140 O   0  0  0  0  0  0  0  0  0  0  0  0
  -54.1220  -15.8960  -36.2410 C   0  0  0  0  0  0  0  0  0  0  0  0
  -53.5730  -14.7580  -35.6770 C   0  0  0  0  0  0  0  0  0  0  0  0
  -54.6670  -18.0910  -33.1510 C   0  0  0  0  0  0  0  0  0  0  0  0
  -54.8610  -17.7560  -31.6960 C   0  0  0  0  0  0  0  0  0  0  0  0
  -55.9970  -17.7200  -31.0030 C   0  0  0  0  0  0  0  0  0  0  0  0
  -57.3450  -18.0220  -31.5900 C   0  0  0  0  0  0  0  0  0  0  0  0
  -56.0210  -17.3540  -29.5500 C   0  0  0  0  0  0  0  0  0  0  0  0
  -48.6843   -7.3299  -21.2663 H   0  0  0  0  0  0  0  0  0  0  0  0
  -47.1363   -7.3243  -22.1776 H   0  0  0  0  0  0  0  0  0  0  0  0
  -48.1839   -5.8650  -22.1776 H   0  0  0  0  0  0  0  0  0  0  0  0
  -49.9482   -3.1837  -23.4877 H   0  0  0  0  0  0  0  0  0  0  0  0
  -51.4340   -2.7328  -24.3663 H   0  0  0  0  0  0  0  0  0  0  0  0
  -47.2172   -6.7106  -24.3774 H   0  0  0  0  0  0  0  0  0  0  0  0
  -49.9841   -6.7653  -25.6298 H   0  0  0  0  0  0  0  0  0  0  0  0
  -49.0531   -5.4493  -27.3783 H   0  0  0  0  0  0  0  0  0  0  0  0
  -46.7870   -5.3335  -25.9590 H   0  0  0  0  0  0  0  0  0  0  0  0
  -47.6394   -7.4698  -28.3954 H   0  0  0  0  0  0  0  0  0  0  0  0
  -49.3676   -9.7707  -24.0939 H   0  0  0  0  0  0  0  0  0  0  0  0
  -50.0240   -9.1473  -25.6455 H   0  0  0  0  0  0  0  0  0  0  0  0
  -48.8866  -10.5376  -25.6455 H   0  0  0  0  0  0  0  0  0  0  0  0
  -46.7380   -9.2640  -23.6214 H   0  0  0  0  0  0  0  0  0  0  0  0
  -46.6564  -10.3187  -25.0732 H   0  0  0  0  0  0  0  0  0  0  0  0
  -45.8278   -8.7249  -25.0732 H   0  0  0  0  0  0  0  0  0  0  0  0
  -52.2859   -8.0338  -27.5680 H   0  0  0  0  0  0  0  0  0  0  0  0
  -51.9539   -7.1042  -29.0687 H   0  0  0  0  0  0  0  0  0  0  0  0
  -53.2055   -8.3927  -29.0687 H   0  0  0  0  0  0  0  0  0  0  0  0
  -48.4885  -11.7918  -30.0038 H   0  0  0  0  0  0  0  0  0  0  0  0
  -47.8462   -9.8123  -28.6484 H   0  0  0  0  0  0  0  0  0  0  0  0
  -50.3109  -13.9624  -31.9401 H   0  0  0  0  0  0  0  0  0  0  0  0
  -53.4902  -14.0214  -31.8389 H   0  0  0  0  0  0  0  0  0  0  0  0
  -53.5453  -15.7161  -32.4184 H   0  0  0  0  0  0  0  0  0  0  0  0
  -55.1593  -18.1167  -36.9939 H   0  0  0  0  0  0  0  0  0  0  0  0
  -54.2792  -15.9468  -37.3285 H   0  0  0  0  0  0  0  0  0  0  0  0
  -53.3034  -13.9065  -36.3191 H   0  0  0  0  0  0  0  0  0  0  0  0
  -55.6106  -18.5107  -33.5299 H   0  0  0  0  0  0  0  0  0  0  0  0
  -53.8205  -18.7925  -33.1868 H   0  0  0  0  0  0  0  0  0  0  0  0
  -53.9479  -17.5097  -31.1342 H   0  0  0  0  0  0  0  0  0  0  0  0
  -58.0701  -18.1844  -30.7789 H   0  0  0  0  0  0  0  0  0  0  0  0
  -57.6728  -17.1750  -32.2106 H   0  0  0  0  0  0  0  0  0  0  0  0
  -57.2801  -18.9279  -32.2106 H   0  0  0  0  0  0  0  0  0  0  0  0
  -55.9611  -18.2678  -28.9407 H   0  0  0  0  0  0  0  0  0  0  0  0
  -55.1636  -16.7040  -29.3214 H   0  0  0  0  0  0  0  0  0  0  0  0
  -56.9560  -16.8215  -29.3214 H   0  0  0  0  0  0  0  0  0  0  0  0
  1  2  1  0
  3  4  1  0
  4  5  2  0
  4  6  1  0
  2  7  1  0
  6  8  1  0
  7  8  1  0
  8  9  1  0
  9 10  1  0
  9 11  1  0
 11 12  1  0
  7 13  1  0
 12 13  1  0
 13 14  1  0
 13 15  1  0
 11 16  1  0
 16 17  1  0
 17 18  2  0
 18 19  1  0
 18 20  1  0
 20 21  2  0
 21 22  1  0
 17 23  1  0
 22 23  2  0
 20 24  1  0
 24 25  1  0
 25 26  2  0
 25 27  1  0
 21 28  1  0
 27 28  2  0
 28 29  1  0
 27 30  1  0
 30 31  1  0
 31 32  2  0
 31 33  1  0
 33 34  2  0
 34 35  1  0
 35 36  2  0
 36 37  1  0
 36 38  1  0
 33 39  1  0
 38 39  2  0
 35 40  1  0
 40 41  1  0
 41 42  2  3
 42 43  1  0
 42 44  1  0
  1 45  1  0
  1 46  1  0
  1 47  1  0
  3 48  1  0
  3 49  1  0
  7 50  1  1
  8 51  1  6
  9 52  1  6
 10 53  1  0
 11 54  1  6
 14 55  1  0
 14 56  1  0
 14 57  1  0
 15 58  1  0
 15 59  1  0
 15 60  1  0
 19 61  1  0
 19 62  1  0
 19 63  1  0
 22 64  1  0
 23 65  1  0
 29 66  1  0
 30 67  1  0
 34 68  1  0
 37 69  1  0
 38 70  1  0
 39 71  1  0
 40 72  1  0
 40 73  1  0
 41 74  1  0
 43 75  1  0
 43 76  1  0
 43 77  1  0
 44 78  1  0
 44 79  1  0
 44 80  1  0
M  END
$$$$
