PDB_DB00783_94
     RDKit          3D

100106  0  0  0  0  0  0  0  0999 V2000
   27.0340  -25.5440  -12.6650 C   0  0  0  0  0  0  0  0  0  0  0  0
   27.1170  -24.1890  -12.8950 C   0  0  0  0  0  0  0  0  0  0  0  0
   26.0140  -23.3280  -12.6910 C   0  0  0  0  0  0  0  0  0  0  0  0
   26.1580  -21.9460  -12.9420 O   0  0  0  0  0  0  0  0  0  0  0  0
   24.7850  -23.8580  -12.2490 C   0  0  0  0  0  0  0  0  0  0  0  0
   24.6640  -25.2150  -11.9950 C   0  0  1  0  0  0  0  0  0  0  0  0
   23.3210  -25.7680  -11.5480 C   0  0  0  0  0  0  0  0  0  0  0  0
   23.1850  -27.2880  -11.8340 C   0  0  0  0  0  0  0  0  0  0  0  0
   24.4540  -27.9580  -11.2790 C   0  0  2  0  0  0  0  0  0  0  0  0
   25.7250  -27.5810  -12.0380 C   0  0  1  0  0  0  0  0  0  0  0  0
   25.8230  -26.1060  -12.2310 C   0  0  0  0  0  0  0  0  0  0  0  0
   27.0080  -28.2110  -11.4360 C   0  0  0  0  0  0  0  0  0  0  0  0
   26.8990  -29.7540  -11.3000 C   0  0  0  0  0  0  0  0  0  0  0  0
   25.5790  -30.0760  -10.5430 C   0  0  1  0  0  0  0  0  0  0  0  0
   24.3850  -29.4740  -11.2560 C   0  0  1  0  0  0  0  0  0  0  0  0
   23.1530  -30.0660  -10.5800 C   0  0  0  0  0  0  0  0  0  0  0  0
   23.6770  -31.3980  -10.0090 C   0  0  0  0  0  0  0  0  0  0  0  0
   25.0700  -31.5150  -10.5750 C   0  0  2  0  0  0  0  0  0  0  0  0
   25.8020  -32.3830   -9.7290 O   0  0  0  0  0  0  0  0  0  0  0  0
   25.7370  -29.5740   -9.0740 C   0  0  0  0  0  0  0  0  0  0  0  0
    8.6600  -36.1370   13.9850 C   0  0  0  0  0  0  0  0  0  0  0  0
    7.4230  -35.5500   14.1820 C   0  0  0  0  0  0  0  0  0  0  0  0
    7.2370  -34.1790   13.9750 C   0  0  0  0  0  0  0  0  0  0  0  0
    5.9700  -33.6900   14.2310 O   0  0  0  0  0  0  0  0  0  0  0  0
    8.3020  -33.3560   13.5230 C   0  0  0  0  0  0  0  0  0  0  0  0
    9.5650  -33.9280   13.3100 C   0  0  0  0  0  0  0  0  0  0  0  0
   10.7260  -33.0660   12.8300 C   0  0  0  0  0  0  0  0  0  0  0  0
   12.0910  -33.7670   13.0150 C   0  0  0  0  0  0  0  0  0  0  0  0
   11.9680  -35.2040   12.4730 C   0  0  2  0  0  0  0  0  0  0  0  0
   11.0720  -36.0740   13.3560 C   0  0  1  0  0  0  0  0  0  0  0  0
    9.7550  -35.3880   13.5540 C   0  0  0  0  0  0  0  0  0  0  0  0
   10.9400  -37.5200   12.8260 C   0  0  0  0  0  0  0  0  0  0  0  0
   12.3350  -38.1940   12.5890 C   0  0  0  0  0  0  0  0  0  0  0  0
   13.2900  -37.2430   11.8210 C   0  0  1  0  0  0  0  0  0  0  0  0
   13.3280  -35.8660   12.4230 C   0  0  1  0  0  0  0  0  0  0  0  0
   14.4440  -35.0900   11.7110 C   0  0  0  0  0  0  0  0  0  0  0  0
   15.5070  -36.2030   11.5580 C   0  0  0  0  0  0  0  0  0  0  0  0
   14.7910  -37.5090   11.9190 C   0  0  2  0  0  0  0  0  0  0  0  0
   15.2210  -38.5170   11.0050 O   0  0  0  0  0  0  0  0  0  0  0  0
   12.8380  -37.1490   10.3260 C   0  0  0  0  0  0  0  0  0  0  0  0
   27.2966  -26.0438  -13.6091 H   0  0  0  0  0  0  0  0  0  0  0  0
   27.7076  -25.6987  -11.8092 H   0  0  0  0  0  0  0  0  0  0  0  0
   27.9241  -23.8151  -12.2478 H   0  0  0  0  0  0  0  0  0  0  0  0
   27.2464  -24.1462  -13.9865 H   0  0  0  0  0  0  0  0  0  0  0  0
   26.3289  -23.1715  -11.6487 H   0  0  0  0  0  0  0  0  0  0  0  0
   26.2089  -21.4580  -12.0821 H   0  0  0  0  0  0  0  0  0  0  0  0
   24.5331  -23.3367  -11.3137 H   0  0  0  0  0  0  0  0  0  0  0  0
   24.1197  -23.7032  -13.1112 H   0  0  0  0  0  0  0  0  0  0  0  0
   24.9428  -25.0433  -10.9449 H   0  0  0  0  0  0  0  0  0  0  0  0
   23.2117  -25.6004  -10.4663 H   0  0  0  0  0  0  0  0  0  0  0  0
   22.5365  -25.2471  -12.1165 H   0  0  0  0  0  0  0  0  0  0  0  0
   22.2932  -27.6900  -11.3310 H   0  0  0  0  0  0  0  0  0  0  0  0
   23.0757  -27.4794  -12.9117 H   0  0  0  0  0  0  0  0  0  0  0  0
   24.5007  -27.5714  -10.2502 H   0  0  0  0  0  0  0  0  0  0  0  0
   25.6441  -28.0272  -13.0402 H   0  0  0  0  0  0  0  0  0  0  0  0
   26.1369  -25.9747  -11.1850 H   0  0  0  0  0  0  0  0  0  0  0  0
   27.8596  -27.9729  -12.0903 H   0  0  0  0  0  0  0  0  0  0  0  0
   27.1468  -27.7933  -10.4279 H   0  0  0  0  0  0  0  0  0  0  0  0
   26.8798  -30.2166  -12.2978 H   0  0  0  0  0  0  0  0  0  0  0  0
   27.7635  -30.1517  -10.7482 H   0  0  0  0  0  0  0  0  0  0  0  0
   24.3547  -29.7280  -12.3258 H   0  0  0  0  0  0  0  0  0  0  0  0
   22.7880  -29.4082   -9.7775 H   0  0  0  0  0  0  0  0  0  0  0  0
   22.3018  -30.1931  -11.2650 H   0  0  0  0  0  0  0  0  0  0  0  0
   23.7028  -31.3689   -8.9097 H   0  0  0  0  0  0  0  0  0  0  0  0
   23.0386  -32.2532  -10.2756 H   0  0  0  0  0  0  0  0  0  0  0  0
   25.1449  -31.9311  -11.5905 H   0  0  0  0  0  0  0  0  0  0  0  0
   25.6131  -32.1590   -8.7834 H   0  0  0  0  0  0  0  0  0  0  0  0
   25.4810  -30.3873   -8.3790 H   0  0  0  0  0  0  0  0  0  0  0  0
   26.7774  -29.2600   -8.9037 H   0  0  0  0  0  0  0  0  0  0  0  0
   25.0640  -28.7208   -8.9037 H   0  0  0  0  0  0  0  0  0  0  0  0
    8.9486  -36.5861   14.9468 H   0  0  0  0  0  0  0  0  0  0  0  0
    8.4751  -36.8046   13.1305 H   0  0  0  0  0  0  0  0  0  0  0  0
    6.7209  -36.0662   13.5107 H   0  0  0  0  0  0  0  0  0  0  0  0
    7.2748  -35.6541   15.2670 H   0  0  0  0  0  0  0  0  0  0  0  0
    6.9503  -34.3755   12.9314 H   0  0  0  0  0  0  0  0  0  0  0  0
    5.8288  -33.6355   15.2094 H   0  0  0  0  0  0  0  0  0  0  0  0
    7.9837  -32.9144   12.5672 H   0  0  0  0  0  0  0  0  0  0  0  0
    8.4674  -32.6594   14.3581 H   0  0  0  0  0  0  0  0  0  0  0  0
    9.2921  -34.1418   12.2660 H   0  0  0  0  0  0  0  0  0  0  0  0
   10.5840  -32.8438   11.7621 H   0  0  0  0  0  0  0  0  0  0  0  0
   10.7349  -32.1462   13.4333 H   0  0  0  0  0  0  0  0  0  0  0  0
   12.8680  -33.2234   12.4575 H   0  0  0  0  0  0  0  0  0  0  0  0
   12.3701  -33.7834   14.0789 H   0  0  0  0  0  0  0  0  0  0  0  0
   11.5277  -35.1215   11.4683 H   0  0  0  0  0  0  0  0  0  0  0  0
   11.5459  -36.1882   14.3421 H   0  0  0  0  0  0  0  0  0  0  0  0
    9.4867  -35.5977   12.5080 H   0  0  0  0  0  0  0  0  0  0  0  0
   10.3787  -38.1165   13.5603 H   0  0  0  0  0  0  0  0  0  0  0  0
   10.4167  -37.4786   11.8594 H   0  0  0  0  0  0  0  0  0  0  0  0
   12.7831  -38.4447   13.5618 H   0  0  0  0  0  0  0  0  0  0  0  0
   12.1869  -39.1024   11.9867 H   0  0  0  0  0  0  0  0  0  0  0  0
   13.5810  -35.9010   13.4929 H   0  0  0  0  0  0  0  0  0  0  0  0
   14.1132  -34.7072   10.7343 H   0  0  0  0  0  0  0  0  0  0  0  0
   14.7921  -34.1936   12.2452 H   0  0  0  0  0  0  0  0  0  0  0  0
   15.8766  -36.2412   10.5227 H   0  0  0  0  0  0  0  0  0  0  0  0
   16.3790  -36.0247   12.2044 H   0  0  0  0  0  0  0  0  0  0  0  0
   15.0228  -37.8554   12.9370 H   0  0  0  0  0  0  0  0  0  0  0  0
   15.5550  -39.3000   11.5104 H   0  0  0  0  0  0  0  0  0  0  0  0
   11.7619  -36.9252   10.2817 H   0  0  0  0  0  0  0  0  0  0  0  0
   13.4000  -36.3485    9.8227 H   0  0  0  0  0  0  0  0  0  0  0  0
   13.0343  -38.1072    9.8227 H   0  0  0  0  0  0  0  0  0  0  0  0
  1  2  1  0
  2  3  1  0
  3  4  1  0
  3  5  1  0
  5  6  1  0
  6  7  1  0
  7  8  1  0
  8  9  1  0
  9 10  1  0
  1 11  1  0
  6 11  1  0
 10 11  1  0
 10 12  1  0
 12 13  1  0
 13 14  1  0
  9 15  1  0
 14 15  1  0
 15 16  1  0
 16 17  1  0
 14 18  1  0
 17 18  1  0
 18 19  1  0
 14 20  1  1
 21 22  1  0
 22 23  1  0
 23 24  1  0
 23 25  1  0
 25 26  1  0
 26 27  1  0
 27 28  1  0
 28 29  1  0
 29 30  1  0
 21 31  1  0
 26 31  1  0
 30 31  1  0
 30 32  1  0
 32 33  1  0
 33 34  1  0
 29 35  1  0
 34 35  1  0
 35 36  1  0
 36 37  1  0
 34 38  1  0
 37 38  1  0
 38 39  1  0
 34 40  1  6
  1 41  1  0
  1 42  1  0
  2 43  1  0
  2 44  1  0
  3 45  1  0
  4 46  1  0
  5 47  1  0
  5 48  1  0
  6 49  1  1
  7 50  1  0
  7 51  1  0
  8 52  1  0
  8 53  1  0
  9 54  1  1
 10 55  1  6
 11 56  1  0
 12 57  1  0
 12 58  1  0
 13 59  1  0
 13 60  1  0
 15 61  1  6
 16 62  1  0
 16 63  1  0
 17 64  1  0
 17 65  1  0
 18 66  1  6
 19 67  1  0
 20 68  1  0
 20 69  1  0
 20 70  1  0
 21 71  1  0
 21 72  1  0
 22 73  1  0
 22 74  1  0
 23 75  1  0
 24 76  1  0
 25 77  1  0
 25 78  1  0
 26 79  1  0
 27 80  1  0
 27 81  1  0
 28 82  1  0
 28 83  1  0
 29 84  1  6
 30 85  1  1
 31 86  1  0
 32 87  1  0
 32 88  1  0
 33 89  1  0
 33 90  1  0
 35 91  1  1
 36 92  1  0
 36 93  1  0
 37 94  1  0
 37 95  1  0
 38 96  1  1
 39 97  1  0
 40 98  1  0
 40 99  1  0
 40100  1  0
M  END
>  <PDBID>  (1) 
3OLS

>  <PDB ID>  (1) 
3OLS

>  <Generic Name>  (1) 
Estradiol

>  <Brand Name>  (1) 
Activella#Activelle#Activelle Ld#Alora#Amabelz#Angeliq#Climara#Climara 100#Climara 25#Climara 50#Climara 75#Climara Pro#Combipatch#Combipatch (estradiol/norethindrone Acetate Transdermal System)#Delestrogen#Delestrogen Inj 10mg/ml#Depo-estradiol#Divigel#Elestrin#Estalis 140/50 Mcg#Estalis 250/50 Mcg#Estalis Sequi#Estrace#Estrace Tab 1mg#Estrace Tab 2mg#Estracomb#Estraderm-100#Estraderm-25#Estraderm-50#Estradiol#Estradiol / Norethindrone Acetate#Estradiol Transdermal System#Estradiol Valerate#Estradot 100#Estradot 25#Estradot 37.5#Estradot 50#Estradot 75#Estring#Estrogel#Estrogel Propak#Evamist#Femring#Lopreeza#Lupin-estradiol#Menostar#Mimvey#Mimvey Lo#Minivelle#Natazia#Neo Pause Injection#Neo-diol Inj 20mg/ml#Oesclim#PMS-estradiol Valerate Inj 10mg/ml#Prefesta#Sandoz Estradiol Derm 100#Sandoz Estradiol Derm 50#Sandoz Estradiol Derm 75#Vagifem#Vagifem 10#Vivelle 100mcg#Vivelle 37.5mcg#Vivelle 50mcg#Vivelle 75mcg#Vivelle Dot#Vivelle-dot#Yuvafem#Estraderm MX#Estraderm TTS#Estrasorb#Estrofem#Femtrace#Innofem#Vivelle

>  <DrugBank ID>  (1) 
DB00783

>  <ATC Codes>  (1) 
G03FA16#G03FA11#G03FA12#G03FB12#G03FA17#G03FA05#G03FB09#G03FA14#G03FA08#G03AA14#G03EA03#G03FB01#G03AB08#G03EA02#G03FB05#G03HB01#G03FB11#G03CA53#G03FB04#G03FA07#G03FB07#G03FB02#G03FB10#G03FA06#G03CA03#G03FA15#G03FA09#G03FA13#G03EA01#G03FB06#G03FA01#G03FA02#G02BB01#G03FA03#G03FB08#G03FA10#G03FA04#G03FB03

>  <Ligand ID>  (1) 
EST

>  <Target Name>  (1) 
Estrogen receptor beta

>  <UniProt ID>  (1) 
Q92731

>  <PDB ID.1>  (1) 
3OLS

>  <Seq. Identity>  (1) 
100%

$$$$
