PDB_DB00582_98
     RDKit          3D

 55 57  0  0  0  0  0  0  0  0999 V2000
   99.5500   12.1880   14.1810 F   0  0  0  0  0  0  0  0  0  0  0  0
   97.6960    7.7870   17.5280 F   0  0  0  0  0  0  0  0  0  0  0  0
  103.3900   10.5990   12.0560 F   0  0  0  0  0  0  0  0  0  0  0  0
   99.9870    9.0950   17.1060 O   0  0  0  0  0  0  0  0  0  0  0  0
  100.9850   11.7850   17.4650 N   0  0  0  0  0  0  0  0  0  0  0  0
   96.4100   11.1130   16.9510 N   0  0  0  0  0  0  0  0  0  0  0  0
  101.5480   12.9490   17.0530 N   0  0  0  0  0  0  0  0  0  0  0  0
  102.9770   11.7710   18.3270 N   0  0  0  0  0  0  0  0  0  0  0  0
   95.2280   10.1030   18.7690 N   0  0  0  0  0  0  0  0  0  0  0  0
   99.6020   10.1530   16.2210 C   0  0  1  0  0  0  0  0  0  0  0  0
   98.1590   10.0260   15.6680 C   0  0  1  0  0  0  0  0  0  0  0  0
   99.6320   11.4280   17.0760 C   0  0  0  0  0  0  0  0  0  0  0  0
  100.6150   10.2940   15.0880 C   0  0  0  0  0  0  0  0  0  0  0  0
   98.0000    8.8120   14.7440 C   0  0  0  0  0  0  0  0  0  0  0  0
   97.1620   10.0170   16.7900 C   0  0  0  0  0  0  0  0  0  0  0  0
  100.5580   11.2920   14.1220 C   0  0  0  0  0  0  0  0  0  0  0  0
  101.6760    9.4020   14.9900 C   0  0  0  0  0  0  0  0  0  0  0  0
   96.9670    8.9210   17.6400 C   0  0  0  0  0  0  0  0  0  0  0  0
  101.4690   11.4260   13.1090 C   0  0  0  0  0  0  0  0  0  0  0  0
  102.6160    9.4980   13.9780 C   0  0  0  0  0  0  0  0  0  0  0  0
  101.8500   11.1110   18.2090 C   0  0  0  0  0  0  0  0  0  0  0  0
  102.4820   10.5050   13.0650 C   0  0  0  0  0  0  0  0  0  0  0  0
   95.9750    9.0070   18.6310 C   0  0  0  0  0  0  0  0  0  0  0  0
   95.4930   11.0890   17.9190 C   0  0  0  0  0  0  0  0  0  0  0  0
  102.7390   12.8820   17.6040 C   0  0  0  0  0  0  0  0  0  0  0  0
   99.8785    9.3932   18.0437 H   0  0  0  0  0  0  0  0  0  0  0  0
   97.0464   11.8988   17.1472 H   0  0  0  0  0  0  0  0  0  0  0  0
  101.6119   12.9916   16.0259 H   0  0  0  0  0  0  0  0  0  0  0  0
  103.1722   12.0020   19.3116 H   0  0  0  0  0  0  0  0  0  0  0  0
   94.2422    9.8325   18.6432 H   0  0  0  0  0  0  0  0  0  0  0  0
   97.9576   10.9114   15.0471 H   0  0  0  0  0  0  0  0  0  0  0  0
   99.0326   11.2624   17.9834 H   0  0  0  0  0  0  0  0  0  0  0  0
   99.2203   12.2523   16.4751 H   0  0  0  0  0  0  0  0  0  0  0  0
   99.9952    9.6439   14.4530 H   0  0  0  0  0  0  0  0  0  0  0  0
   97.8809    7.9024   15.3509 H   0  0  0  0  0  0  0  0  0  0  0  0
   97.1120    8.9482   14.1092 H   0  0  0  0  0  0  0  0  0  0  0  0
   98.8931    8.7149   14.1092 H   0  0  0  0  0  0  0  0  0  0  0  0
   96.4039    9.5963   16.1130 H   0  0  0  0  0  0  0  0  0  0  0  0
  101.1744   11.9436   14.7588 H   0  0  0  0  0  0  0  0  0  0  0  0
  102.2316    9.4769   15.9364 H   0  0  0  0  0  0  0  0  0  0  0  0
  101.1665    8.4577   14.7477 H   0  0  0  0  0  0  0  0  0  0  0  0
   97.7113    9.3305   18.3388 H   0  0  0  0  0  0  0  0  0  0  0  0
  100.9206   11.3635   12.1575 H   0  0  0  0  0  0  0  0  0  0  0  0
  101.9643   12.3909   13.2923 H   0  0  0  0  0  0  0  0  0  0  0  0
  103.5988    9.6205   14.4566 H   0  0  0  0  0  0  0  0  0  0  0  0
  102.4785    8.5781   13.3907 H   0  0  0  0  0  0  0  0  0  0  0  0
  101.4189   10.9522   19.2085 H   0  0  0  0  0  0  0  0  0  0  0  0
  102.0561   10.1461   17.7228 H   0  0  0  0  0  0  0  0  0  0  0  0
  103.1065   11.1621   13.6882 H   0  0  0  0  0  0  0  0  0  0  0  0
   96.4830    8.8529   19.5944 H   0  0  0  0  0  0  0  0  0  0  0  0
   95.2410    8.2575   18.3002 H   0  0  0  0  0  0  0  0  0  0  0  0
   95.7402   11.9493   18.5584 H   0  0  0  0  0  0  0  0  0  0  0  0
   94.5916   11.0158   17.2928 H   0  0  0  0  0  0  0  0  0  0  0  0
  103.4885   12.9315   16.8004 H   0  0  0  0  0  0  0  0  0  0  0  0
  102.7947   13.7228   18.3111 H   0  0  0  0  0  0  0  0  0  0  0  0
  5  7  1  0
 10  4  1  1
 10 11  1  0
  5 12  1  0
 10 12  1  0
 10 13  1  0
 11 14  1  0
  6 15  1  0
 11 15  1  0
  1 16  1  0
 13 16  1  0
 13 17  1  0
  2 18  1  0
 15 18  1  0
 16 19  1  0
 17 20  1  0
  5 21  1  0
 21  8  1  0
  3 22  1  0
 19 22  1  0
 20 22  1  0
  9 23  1  0
 18 23  1  0
  6 24  1  0
  9 24  1  0
  7 25  1  0
 25  8  1  0
  4 26  1  0
  6 27  1  0
  7 28  1  0
  8 29  1  6
  9 30  1  0
 11 31  1  6
 12 32  1  0
 12 33  1  0
 13 34  1  0
 14 35  1  0
 14 36  1  0
 14 37  1  0
 15 38  1  0
 16 39  1  0
 17 40  1  0
 17 41  1  0
 18 42  1  0
 19 43  1  0
 19 44  1  0
 20 45  1  0
 20 46  1  0
 21 47  1  0
 21 48  1  0
 22 49  1  0
 23 50  1  0
 23 51  1  0
 24 52  1  0
 24 53  1  0
 25 54  1  0
 25 55  1  0
M  END
>  <PDBID>  (1) 
4ZE0

>  <PDB ID>  (1) 
4ZE0

>  <Generic Name>  (1) 
Voriconazole

>  <Brand Name>  (1) 
Ach-voriconazole#Apo-voriconazole#Auro-voriconazole#Mylan-voriconazole#Sandoz Voriconazole#Teva-voriconazole#Vfend#Vfend for Injection#Voriconazole#Voriconazole for Injection

>  <DrugBank ID>  (1) 
DB00582

>  <ATC Codes>  (1) 
J02AC03

>  <Ligand ID>  (1) 
VOR

>  <Target Name>  (1) 
Lanosterol 14-alpha demethylase

>  <UniProt ID>  (1) 
P10613

>  <PDB ID.1>  (1) 
4ZE0

>  <Seq. Identity>  (1) 
65%

$$$$
