PDB_DB00481_94
     RDKit          3D

 61 65  0  0  0  0  0  0  0  0999 V2000
  -47.3200   11.5590    5.1700 C   0  0  0  0  0  0  0  0  0  0  0  0
  -48.6770   11.3860    4.9340 C   0  0  0  0  0  0  0  0  0  0  0  0
  -49.5900   12.4020    5.1870 C   0  0  0  0  0  0  0  0  0  0  0  0
  -50.9040   12.1650    4.9290 O   0  0  0  0  0  0  0  0  0  0  0  0
  -49.1720   13.6400    5.6840 C   0  0  0  0  0  0  0  0  0  0  0  0
  -47.8240   13.8470    5.9120 C   0  0  0  0  0  0  0  0  0  0  0  0
  -47.1590   15.2780    6.4850 S   0  0  0  0  0  0  0  0  0  0  0  0
  -45.5570   14.6480    6.4700 C   0  0  0  0  0  0  0  0  0  0  0  0
  -44.4250   15.5110    6.9080 C   0  0  0  0  0  0  0  0  0  0  0  0
  -43.3300   15.6020    6.0860 C   0  0  0  0  0  0  0  0  0  0  0  0
  -42.2260   16.3840    6.4140 C   0  0  0  0  0  0  0  0  0  0  0  0
  -42.1890   17.0900    7.5960 C   0  0  0  0  0  0  0  0  0  0  0  0
  -41.0690   17.8220    7.8440 O   0  0  0  0  0  0  0  0  0  0  0  0
  -43.2910   17.0200    8.4580 C   0  0  0  0  0  0  0  0  0  0  0  0
  -44.4010   16.2170    8.1080 C   0  0  0  0  0  0  0  0  0  0  0  0
  -46.8900   12.7630    5.6530 C   0  0  0  0  0  0  0  0  0  0  0  0
  -45.5790   13.2900    5.9940 C   0  0  0  0  0  0  0  0  0  0  0  0
  -44.3850   12.4790    5.8090 C   0  0  0  0  0  0  0  0  0  0  0  0
  -43.8760   11.9940    6.7850 O   0  0  0  0  0  0  0  0  0  0  0  0
  -43.7900   12.3510    4.4360 C   0  0  0  0  0  0  0  0  0  0  0  0
  -44.2300   13.1880    3.4110 C   0  0  0  0  0  0  0  0  0  0  0  0
  -43.6870   13.1140    2.1360 C   0  0  0  0  0  0  0  0  0  0  0  0
  -42.6810   12.2000    1.8710 C   0  0  0  0  0  0  0  0  0  0  0  0
  -42.2390   11.3510    2.9020 C   0  0  0  0  0  0  0  0  0  0  0  0
  -42.7880   11.4350    4.1770 C   0  0  0  0  0  0  0  0  0  0  0  0
  -42.1670   12.1540    0.6020 O   0  0  0  0  0  0  0  0  0  0  0  0
  -41.2760   11.0990    0.2130 C   0  0  0  0  0  0  0  0  0  0  0  0
  -40.8240   11.1530   -1.2390 C   0  0  0  0  0  0  0  0  0  0  0  0
  -41.9120   10.8090   -2.1740 N   0  0  0  0  0  0  0  0  0  0  0  0
  -42.8910   11.9200   -2.2130 C   0  0  0  0  0  0  0  0  0  0  0  0
  -43.7730   11.9590   -3.4570 C   0  0  0  0  0  0  0  0  0  0  0  0
  -42.9440   11.8010   -4.7220 C   0  0  0  0  0  0  0  0  0  0  0  0
  -42.2580   10.4580   -4.6090 C   0  0  0  0  0  0  0  0  0  0  0  0
  -41.2570   10.5560   -3.4710 C   0  0  0  0  0  0  0  0  0  0  0  0
  -46.6067   10.7452    4.9727 H   0  0  0  0  0  0  0  0  0  0  0  0
  -49.0367   10.4247    4.5385 H   0  0  0  0  0  0  0  0  0  0  0  0
  -51.5771   12.8707    5.0996 H   0  0  0  0  0  0  0  0  0  0  0  0
  -49.9029   14.4358    5.8901 H   0  0  0  0  0  0  0  0  0  0  0  0
  -43.3244   15.0405    5.1401 H   0  0  0  0  0  0  0  0  0  0  0  0
  -41.3734   16.4387    5.7212 H   0  0  0  0  0  0  0  0  0  0  0  0
  -40.9956   18.3464    8.6805 H   0  0  0  0  0  0  0  0  0  0  0  0
  -43.2928   17.5861    9.4011 H   0  0  0  0  0  0  0  0  0  0  0  0
  -45.2583   16.1490    8.7939 H   0  0  0  0  0  0  0  0  0  0  0  0
  -45.0233   13.9215    3.6172 H   0  0  0  0  0  0  0  0  0  0  0  0
  -44.0540   13.7782    1.3397 H   0  0  0  0  0  0  0  0  0  0  0  0
  -41.4501   10.6122    2.6973 H   0  0  0  0  0  0  0  0  0  0  0  0
  -42.4255   10.7737    4.9778 H   0  0  0  0  0  0  0  0  0  0  0  0
  -40.3825   11.1516    0.8524 H   0  0  0  0  0  0  0  0  0  0  0  0
  -41.8363   10.1596    0.3298 H   0  0  0  0  0  0  0  0  0  0  0  0
  -40.4728   12.1710   -1.4632 H   0  0  0  0  0  0  0  0  0  0  0  0
  -40.0196   10.4143   -1.3702 H   0  0  0  0  0  0  0  0  0  0  0  0
  -43.5454   11.8291   -1.3335 H   0  0  0  0  0  0  0  0  0  0  0  0
  -42.3016   12.8487   -2.2249 H   0  0  0  0  0  0  0  0  0  0  0  0
  -44.5059   11.1405   -3.4034 H   0  0  0  0  0  0  0  0  0  0  0  0
  -44.2827   12.9331   -3.4931 H   0  0  0  0  0  0  0  0  0  0  0  0
  -43.5935   11.8244   -5.6095 H   0  0  0  0  0  0  0  0  0  0  0  0
  -42.2143   12.6172   -4.8288 H   0  0  0  0  0  0  0  0  0  0  0  0
  -42.9987    9.6741   -4.3923 H   0  0  0  0  0  0  0  0  0  0  0  0
  -41.7524   10.1987   -5.5509 H   0  0  0  0  0  0  0  0  0  0  0  0
  -40.5596   11.3799   -3.6825 H   0  0  0  0  0  0  0  0  0  0  0  0
  -40.7294    9.5933   -3.4011 H   0  0  0  0  0  0  0  0  0  0  0  0
  1  2  2  0
  2  3  1  0
  3  4  1  0
  3  5  2  0
  5  6  1  0
  6  7  1  0
  7  8  1  0
  8  9  1  0
  9 10  2  0
 10 11  1  0
 11 12  2  0
 12 13  1  0
 12 14  1  0
  9 15  1  0
 14 15  2  0
  1 16  1  0
  6 16  2  0
  8 17  2  0
 16 17  1  0
 17 18  1  0
 18 19  2  0
 18 20  1  0
 20 21  2  0
 21 22  1  0
 22 23  2  0
 23 24  1  0
 20 25  1  0
 24 25  2  0
 23 26  1  0
 26 27  1  0
 27 28  1  0
 28 29  1  0
 29 30  1  0
 30 31  1  0
 31 32  1  0
 32 33  1  0
 29 34  1  0
 33 34  1  0
  1 35  1  0
  2 36  1  0
  4 37  1  0
  5 38  1  0
 10 39  1  0
 11 40  1  0
 13 41  1  0
 14 42  1  0
 15 43  1  0
 21 44  1  0
 22 45  1  0
 24 46  1  0
 25 47  1  0
 27 48  1  0
 27 49  1  0
 28 50  1  0
 28 51  1  0
 30 52  1  0
 30 53  1  0
 31 54  1  0
 31 55  1  0
 32 56  1  0
 32 57  1  0
 33 58  1  0
 33 59  1  0
 34 60  1  0
 34 61  1  0
M  END
$$$$
