PDB_DB01034_99
     RDKit          3D

 82 82  0  0  0  0  0  0  0  0999 V2000
   -4.0480  -12.0350   15.3750 O   0  0  0  0  0  0  0  0  0  0  0  0
   -3.2920  -12.7270   14.6900 C   0  0  0  0  0  0  0  0  0  0  0  0
   -3.5770  -13.1490   13.4650 N   0  0  0  0  0  0  0  0  0  0  0  0
   -1.9570  -13.1550   15.2830 C   0  0  2  0  0  0  0  0  0  0  0  0
   -1.1210  -14.0340   14.5390 O   0  0  0  0  0  0  0  0  0  0  0  0
   -1.6890  -14.5120   15.7950 C   0  0  2  0  0  0  0  0  0  0  0  0
   -2.3480  -15.8670   15.5310 C   0  0  1  0  0  0  0  0  0  0  0  0
   -3.4790  -16.0810   15.1310 O   0  0  0  0  0  0  0  0  0  0  0  0
   -1.3540  -16.9860   15.7030 C   0  0  0  0  0  0  0  0  0  0  0  0
   -2.0850  -18.2910   15.9920 C   0  0  0  0  0  0  0  0  0  0  0  0
   -2.2430  -18.4950   17.4450 C   0  0  0  0  0  0  0  0  0  0  0  0
   -1.6050  -19.3970   18.1370 C   0  0  0  0  0  0  0  0  0  0  0  0
   -1.6900  -19.6690   19.6040 C   0  0  0  0  0  0  0  0  0  0  0  0
   -0.3030  -19.9820   20.0820 C   0  0  0  0  0  0  0  0  0  0  0  0
    0.6190  -20.3780   19.2350 C   0  0  0  0  0  0  0  0  0  0  0  0
    2.0420  -20.7150   19.5510 C   0  0  0  0  0  0  0  0  0  0  0  0
  -10.3120  -42.9980   23.8470 O   0  0  0  0  0  0  0  0  0  0  0  0
   -9.5380  -42.4310   24.6240 C   0  0  0  0  0  0  0  0  0  0  0  0
   -9.9180  -41.8530   25.7530 N   0  0  0  0  0  0  0  0  0  0  0  0
   -8.0540  -42.3860   24.2750 C   0  0  2  0  0  0  0  0  0  0  0  0
   -7.1840  -41.9210   25.3390 O   0  0  0  0  0  0  0  0  0  0  0  0
   -7.2480  -41.1850   24.1040 C   0  0  2  0  0  0  0  0  0  0  0  0
   -7.5890  -39.6990   24.3180 C   0  0  0  0  0  0  0  0  0  0  0  0
   -8.6960  -39.2990   24.6130 O   0  0  0  0  0  0  0  0  0  0  0  0
   -6.4440  -38.7260   24.1810 C   0  0  0  0  0  0  0  0  0  0  0  0
   -6.6930  -38.0240   22.8430 C   0  0  0  0  0  0  0  0  0  0  0  0
   -5.4790  -37.3690   22.2910 C   0  0  0  0  0  0  0  0  0  0  0  0
   -5.2340  -37.2260   21.0070 C   0  0  0  0  0  0  0  0  0  0  0  0
   -4.0390  -36.5990   20.3670 C   0  0  0  0  0  0  0  0  0  0  0  0
   -2.8540  -36.6240   21.2840 C   0  0  0  0  0  0  0  0  0  0  0  0
   -1.6900  -37.0720   20.8770 C   0  0  0  0  0  0  0  0  0  0  0  0
   -0.4360  -37.1440   21.6960 C   0  0  0  0  0  0  0  0  0  0  0  0
   -3.8678  -12.2000   16.3344 H   0  0  0  0  0  0  0  0  0  0  0  0
   -3.7455  -13.6373   15.1091 H   0  0  0  0  0  0  0  0  0  0  0  0
   -4.1526  -14.0013   13.5207 H   0  0  0  0  0  0  0  0  0  0  0  0
   -4.0968  -12.4160   12.9616 H   0  0  0  0  0  0  0  0  0  0  0  0
   -1.8712  -12.1549   15.7329 H   0  0  0  0  0  0  0  0  0  0  0  0
   -1.5190  -14.7876   16.8463 H   0  0  0  0  0  0  0  0  0  0  0  0
   -2.7103  -15.8931   16.5693 H   0  0  0  0  0  0  0  0  0  0  0  0
   -4.0863  -16.1959   15.9043 H   0  0  0  0  0  0  0  0  0  0  0  0
   -0.7646  -17.0949   14.7806 H   0  0  0  0  0  0  0  0  0  0  0  0
   -0.6872  -16.7509   16.5456 H   0  0  0  0  0  0  0  0  0  0  0  0
   -3.0793  -18.2585   15.5226 H   0  0  0  0  0  0  0  0  0  0  0  0
   -1.4939  -19.1233   15.5823 H   0  0  0  0  0  0  0  0  0  0  0  0
   -1.9874  -17.5308   17.9087 H   0  0  0  0  0  0  0  0  0  0  0  0
   -3.2673  -18.8940   17.4849 H   0  0  0  0  0  0  0  0  0  0  0  0
   -1.8738  -20.3521   17.6620 H   0  0  0  0  0  0  0  0  0  0  0  0
   -0.6033  -18.9430   18.1129 H   0  0  0  0  0  0  0  0  0  0  0  0
   -2.0780  -18.7836   20.1289 H   0  0  0  0  0  0  0  0  0  0  0  0
   -2.3697  -20.5102   19.8048 H   0  0  0  0  0  0  0  0  0  0  0  0
    0.0795  -19.0682   20.5602 H   0  0  0  0  0  0  0  0  0  0  0  0
   -0.4534  -20.8676   20.7169 H   0  0  0  0  0  0  0  0  0  0  0  0
    0.2078  -21.2870   18.7718 H   0  0  0  0  0  0  0  0  0  0  0  0
    0.7757  -19.4362   18.6887 H   0  0  0  0  0  0  0  0  0  0  0  0
    2.1776  -20.7471   20.6421 H   0  0  0  0  0  0  0  0  0  0  0  0
    2.2903  -21.6968   19.1216 H   0  0  0  0  0  0  0  0  0  0  0  0
    2.7043  -19.9489   19.1216 H   0  0  0  0  0  0  0  0  0  0  0  0
  -10.9927  -43.4967   24.3647 H   0  0  0  0  0  0  0  0  0  0  0  0
   -9.6928  -41.4836   24.0869 H   0  0  0  0  0  0  0  0  0  0  0  0
   -9.5617  -42.3950   26.5531 H   0  0  0  0  0  0  0  0  0  0  0  0
   -9.5413  -40.8952   25.7921 H   0  0  0  0  0  0  0  0  0  0  0  0
   -8.1943  -43.2558   23.6164 H   0  0  0  0  0  0  0  0  0  0  0  0
   -6.6671  -40.8901   23.2176 H   0  0  0  0  0  0  0  0  0  0  0  0
   -7.8385  -39.6026   23.2510 H   0  0  0  0  0  0  0  0  0  0  0  0
   -8.7836  -39.2673   25.5986 H   0  0  0  0  0  0  0  0  0  0  0  0
   -6.4499  -38.0002   25.0075 H   0  0  0  0  0  0  0  0  0  0  0  0
   -5.4648  -39.2261   24.2143 H   0  0  0  0  0  0  0  0  0  0  0  0
   -7.0481  -38.7705   22.1173 H   0  0  0  0  0  0  0  0  0  0  0  0
   -7.4379  -37.2345   23.0216 H   0  0  0  0  0  0  0  0  0  0  0  0
   -5.4744  -36.3516   22.7092 H   0  0  0  0  0  0  0  0  0  0  0  0
   -4.7057  -38.1005   22.5683 H   0  0  0  0  0  0  0  0  0  0  0  0
   -5.2641  -38.2480   20.6014 H   0  0  0  0  0  0  0  0  0  0  0  0
   -5.9749  -36.4451   20.7806 H   0  0  0  0  0  0  0  0  0  0  0  0
   -3.7930  -37.1520   19.4485 H   0  0  0  0  0  0  0  0  0  0  0  0
   -4.2783  -35.5501   20.1376 H   0  0  0  0  0  0  0  0  0  0  0  0
   -2.6916  -35.5868   21.6123 H   0  0  0  0  0  0  0  0  0  0  0  0
   -3.1486  -37.3700   22.0368 H   0  0  0  0  0  0  0  0  0  0  0  0
   -1.8781  -38.1044   20.5472 H   0  0  0  0  0  0  0  0  0  0  0  0
   -1.4127  -36.2661   20.1816 H   0  0  0  0  0  0  0  0  0  0  0  0
   -0.6949  -37.1291   22.7650 H   0  0  0  0  0  0  0  0  0  0  0  0
    0.1019  -38.0745   21.4619 H   0  0  0  0  0  0  0  0  0  0  0  0
    0.2049  -36.2812   21.4619 H   0  0  0  0  0  0  0  0  0  0  0  0
  1  2  1  0
  2  3  1  0
  2  4  1  0
  4  5  1  0
  4  6  1  0
  5  6  1  0
  6  7  1  0
  7  8  1  0
  7  9  1  0
  9 10  1  0
 10 11  1  0
 11 12  1  0
 12 13  1  0
 13 14  1  0
 14 15  1  0
 15 16  1  0
 17 18  1  0
 18 19  1  0
 18 20  1  0
 20 21  1  0
 20 22  1  0
 21 22  1  0
 22 23  1  0
 23 24  1  0
 23 25  1  0
 25 26  1  0
 26 27  1  0
 27 28  1  0
 28 29  1  0
 29 30  1  0
 30 31  1  0
 31 32  1  0
  1 33  1  0
  2 34  1  0
  3 35  1  0
  3 36  1  0
  4 37  1  1
  6 38  1  1
  7 39  1  1
  8 40  1  0
  9 41  1  0
  9 42  1  0
 10 43  1  0
 10 44  1  0
 11 45  1  0
 11 46  1  0
 12 47  1  0
 12 48  1  0
 13 49  1  0
 13 50  1  0
 14 51  1  0
 14 52  1  0
 15 53  1  0
 15 54  1  0
 16 55  1  0
 16 56  1  0
 16 57  1  0
 17 58  1  0
 18 59  1  0
 19 60  1  0
 19 61  1  0
 20 62  1  6
 22 63  1  6
 23 64  1  0
 24 65  1  0
 25 66  1  0
 25 67  1  0
 26 68  1  0
 26 69  1  0
 27 70  1  0
 27 71  1  0
 28 72  1  0
 28 73  1  0
 29 74  1  0
 29 75  1  0
 30 76  1  0
 30 77  1  0
 31 78  1  0
 31 79  1  0
 32 80  1  0
 32 81  1  0
 32 82  1  0
M  END
>  <PDBID>  (1) 
4LS7

>  <PDB ID>  (1) 
4LS7

>  <Generic Name>  (1) 
Cerulenin

>  <Brand Name>  (1) 
Helicocerin

>  <DrugBank ID>  (1) 
DB01034

>  <ATC Codes>  (1) 
nan

>  <Ligand ID>  (1) 
1X9

>  <Target Name>  (1) 
3-oxoacyl-[acyl-carrier-protein] synthase 2

>  <UniProt ID>  (1) 
P0AAI5

>  <PDB ID.1>  (1) 
4LS7

>  <Seq. Identity>  (1) 
51%

$$$$
