PDB_DB01011_99
     RDKit          3D

 31 32  0  0  0  0  0  0  0  0999 V2000
   57.7830   85.6800   12.3180 N   0  0  0  0  0  0  0  0  0  0  0  0
   57.7310   85.1200   11.1120 C   0  0  0  0  0  0  0  0  0  0  0  0
   58.3550   83.8950   10.7980 C   0  0  0  0  0  0  0  0  0  0  0  0
   59.0370   83.2710   11.8550 C   0  0  0  0  0  0  0  0  0  0  0  0
   59.0790   83.9000   13.0960 C   0  0  0  0  0  0  0  0  0  0  0  0
   58.4360   85.1170   13.3040 C   0  0  0  0  0  0  0  0  0  0  0  0
   58.2430   83.3280    9.4350 C   0  0  0  0  0  0  0  0  0  0  0  0
   57.4440   83.8220    8.6770 O   0  0  0  0  0  0  0  0  0  0  0  0
   58.6330   81.8560    7.4390 C   0  0  0  0  0  0  0  0  0  0  0  0
   59.0340   82.1570    8.8920 C   0  0  0  0  0  0  0  0  0  0  0  0
   60.5090   82.5700    8.9140 C   0  0  0  0  0  0  0  0  0  0  0  0
   58.7480   80.9170    9.6810 C   0  0  0  0  0  0  0  0  0  0  0  0
   57.4840   80.3820    9.6370 C   0  0  0  0  0  0  0  0  0  0  0  0
   57.1720   79.3100   10.3350 N   0  0  0  0  0  0  0  0  0  0  0  0
   58.0810   78.7220   11.0960 C   0  0  0  0  0  0  0  0  0  0  0  0
   59.3690   79.2260   11.1920 C   0  0  0  0  0  0  0  0  0  0  0  0
   59.7100   80.3380   10.4840 C   0  0  0  0  0  0  0  0  0  0  0  0
   57.1726   85.6393   10.3193 H   0  0  0  0  0  0  0  0  0  0  0  0
   59.5307   82.2996   11.7045 H   0  0  0  0  0  0  0  0  0  0  0  0
   59.6282   83.4286   13.9243 H   0  0  0  0  0  0  0  0  0  0  0  0
   58.4760   85.6028   14.2901 H   0  0  0  0  0  0  0  0  0  0  0  0
   57.7533   81.1957    7.4307 H   0  0  0  0  0  0  0  0  0  0  0  0
   58.3902   82.7968    6.9232 H   0  0  0  0  0  0  0  0  0  0  0  0
   59.4685   81.3602    6.9232 H   0  0  0  0  0  0  0  0  0  0  0  0
   60.8477   82.6648    9.9563 H   0  0  0  0  0  0  0  0  0  0  0  0
   61.1114   81.8060    8.4008 H   0  0  0  0  0  0  0  0  0  0  0  0
   60.6271   83.5357    8.4008 H   0  0  0  0  0  0  0  0  0  0  0  0
   56.7180   80.8578    9.0070 H   0  0  0  0  0  0  0  0  0  0  0  0
   57.8102   77.8184   11.6618 H   0  0  0  0  0  0  0  0  0  0  0  0
   60.1106   78.7308   11.8360 H   0  0  0  0  0  0  0  0  0  0  0  0
   60.7226   80.7626   10.5500 H   0  0  0  0  0  0  0  0  0  0  0  0
  1  2  2  0
  2  3  1  0
  3  4  2  0
  4  5  1  0
  1  6  1  0
  5  6  2  0
  3  7  1  0
  7  8  2  0
  7 10  1  0
  9 10  1  0
 10 11  1  0
 10 12  1  0
 12 13  2  0
 13 14  1  0
 14 15  2  0
 15 16  1  0
 12 17  1  0
 16 17  2  0
  2 18  1  0
  4 19  1  0
  5 20  1  0
  6 21  1  0
  9 22  1  0
  9 23  1  0
  9 24  1  0
 11 25  1  0
 11 26  1  0
 11 27  1  0
 13 28  1  0
 15 29  1  0
 16 30  1  0
 17 31  1  0
M  END
>  <PDBID>  (1) 
1W0G

>  <PDB ID>  (1) 
1W0G

>  <Generic Name>  (1) 
Metyrapone

>  <Brand Name>  (1) 
Metopirone#Metopiron

>  <DrugBank ID>  (1) 
DB01011

>  <ATC Codes>  (1) 
V04CD01

>  <Ligand ID>  (1) 
MYT

>  <Target Name>  (1) 
Cytochrome P450 11B1, mitochondrial

>  <UniProt ID>  (1) 
P15538

>  <PDB ID.1>  (1) 
1W0G

>  <Seq. Identity>  (1) 
32%

$$$$
