PDB_DB01026_98
     RDKit          3D

 82 86  0  0  0  0  0  0  0  0999 V2000
    4.8560   21.0510   90.6280 C   0  0  0  0  0  0  0  0  0  0  0  0
    5.0310   20.9480   89.3100 N   0  0  0  0  0  0  0  0  0  0  0  0
    3.3520   18.4870   90.1180 O   0  0  0  0  0  0  0  0  0  0  0  0
    9.9570   16.9310   90.9840 Cl  0  0  0  0  0  0  0  0  0  0  0  0
    6.2510   22.5930   90.0110 C   0  0  0  0  0  0  0  0  0  0  0  0
    5.5960   22.0540   91.0630 N   0  0  0  0  0  0  0  0  0  0  0  0
    4.0670   17.6840   88.0800 O   0  0  0  0  0  0  0  0  0  0  0  0
    6.9580   18.7130   87.0860 Cl  0  0  0  0  0  0  0  0  0  0  0  0
    5.8870   21.8850   88.9050 C   0  0  0  0  0  0  0  0  0  0  0  0
   -3.0210   18.8650   83.7140 N   0  0  0  0  0  0  0  0  0  0  0  0
    1.1860   17.8960   87.2410 O   0  0  0  0  0  0  0  0  0  0  0  0
    4.4120   19.9910   88.4680 C   0  0  0  0  0  0  0  0  0  0  0  0
   -4.8280   19.3820   81.7160 N   0  0  0  0  0  0  0  0  0  0  0  0
   -5.8300   20.7600   80.2390 O   0  0  0  0  0  0  0  0  0  0  0  0
    4.4080   18.6160   89.1170 C   0  0  1  0  0  0  0  0  0  0  0  0
    2.3250   17.6760   89.4820 C   0  0  2  0  0  0  0  0  0  0  0  0
    3.1120   16.8110   88.5960 C   0  0  0  0  0  0  0  0  0  0  0  0
    5.7530   18.2030   89.6520 C   0  0  0  0  0  0  0  0  0  0  0  0
    6.9610   18.2140   88.7850 C   0  0  0  0  0  0  0  0  0  0  0  0
    8.1430   17.8300   89.2480 C   0  0  0  0  0  0  0  0  0  0  0  0
    8.3000   17.4110   90.5050 C   0  0  0  0  0  0  0  0  0  0  0  0
    7.2090   17.3810   91.3790 C   0  0  0  0  0  0  0  0  0  0  0  0
    5.9230   17.7690   90.9420 C   0  0  0  0  0  0  0  0  0  0  0  0
    1.3460   18.5090   88.5930 C   0  0  0  0  0  0  0  0  0  0  0  0
    0.1220   18.1570   86.4050 C   0  0  0  0  0  0  0  0  0  0  0  0
    0.1780   17.6500   85.1320 C   0  0  0  0  0  0  0  0  0  0  0  0
   -0.8410   17.8710   84.2380 C   0  0  0  0  0  0  0  0  0  0  0  0
   -1.9540   18.6220   84.6120 C   0  0  0  0  0  0  0  0  0  0  0  0
   -2.0250   19.1420   85.9110 C   0  0  0  0  0  0  0  0  0  0  0  0
   -0.9880   18.9110   86.8120 C   0  0  0  0  0  0  0  0  0  0  0  0
   -2.8310   20.0730   82.9250 C   0  0  0  0  0  0  0  0  0  0  0  0
   -4.2050   20.5120   82.4460 C   0  0  0  0  0  0  0  0  0  0  0  0
   -4.7350   17.9770   82.2970 C   0  0  0  0  0  0  0  0  0  0  0  0
   -3.3240   17.7480   82.8060 C   0  0  0  0  0  0  0  0  0  0  0  0
   -5.4870   19.6290   80.5680 C   0  0  0  0  0  0  0  0  0  0  0  0
   -5.7930   18.4450   79.7050 C   0  0  0  0  0  0  0  0  0  0  0  0
    3.7963   21.2462   90.8493 H   0  0  0  0  0  0  0  0  0  0  0  0
    5.1514   20.1156   91.1258 H   0  0  0  0  0  0  0  0  0  0  0  0
    5.9686   23.6495   89.8922 H   0  0  0  0  0  0  0  0  0  0  0  0
    7.3394   22.5476   90.1634 H   0  0  0  0  0  0  0  0  0  0  0  0
    4.9934   22.7666   91.4989 H   0  0  0  0  0  0  0  0  0  0  0  0
    6.7712   21.4173   88.4473 H   0  0  0  0  0  0  0  0  0  0  0  0
    5.4258   22.5407   88.1518 H   0  0  0  0  0  0  0  0  0  0  0  0
    3.3744   20.3002   88.2739 H   0  0  0  0  0  0  0  0  0  0  0  0
    4.9791   19.9329   87.5272 H   0  0  0  0  0  0  0  0  0  0  0  0
   -5.9949   21.3038   81.0497 H   0  0  0  0  0  0  0  0  0  0  0  0
    1.6990   17.1670   90.2297 H   0  0  0  0  0  0  0  0  0  0  0  0
    2.4863   16.3901   87.7952 H   0  0  0  0  0  0  0  0  0  0  0  0
    3.5490   15.9428   89.1110 H   0  0  0  0  0  0  0  0  0  0  0  0
    5.5509   17.1627   89.3571 H   0  0  0  0  0  0  0  0  0  0  0  0
    7.1698   19.2503   89.0890 H   0  0  0  0  0  0  0  0  0  0  0  0
    8.4748   17.0035   88.6024 H   0  0  0  0  0  0  0  0  0  0  0  0
    8.7147   18.7698   89.2406 H   0  0  0  0  0  0  0  0  0  0  0  0
    8.5071   18.4434   90.8233 H   0  0  0  0  0  0  0  0  0  0  0  0
    7.1201   16.3439   91.7348 H   0  0  0  0  0  0  0  0  0  0  0  0
    7.4628   18.1590   92.1141 H   0  0  0  0  0  0  0  0  0  0  0  0
    5.5935   18.5858   91.6010 H   0  0  0  0  0  0  0  0  0  0  0  0
    5.3432   16.8350   90.9802 H   0  0  0  0  0  0  0  0  0  0  0  0
    1.7442   19.5281   88.4795 H   0  0  0  0  0  0  0  0  0  0  0  0
    0.3620   18.5281   89.0842 H   0  0  0  0  0  0  0  0  0  0  0  0
    0.6181   19.0764   86.0606 H   0  0  0  0  0  0  0  0  0  0  0  0
    1.0909   18.0572   84.6729 H   0  0  0  0  0  0  0  0  0  0  0  0
    0.1212   16.5645   85.3008 H   0  0  0  0  0  0  0  0  0  0  0  0
   -0.3951   18.3777   83.3694 H   0  0  0  0  0  0  0  0  0  0  0  0
   -1.2591   16.8655   84.0826 H   0  0  0  0  0  0  0  0  0  0  0  0
   -2.4550   17.7064   84.9595 H   0  0  0  0  0  0  0  0  0  0  0  0
   -2.1216   20.2332   85.8112 H   0  0  0  0  0  0  0  0  0  0  0  0
   -2.8714   18.5975   86.3551 H   0  0  0  0  0  0  0  0  0  0  0  0
   -1.4258   18.3945   87.6790 H   0  0  0  0  0  0  0  0  0  0  0  0
   -0.5702   19.9130   86.9893 H   0  0  0  0  0  0  0  0  0  0  0  0
   -2.3772   20.8610   83.5440 H   0  0  0  0  0  0  0  0  0  0  0  0
   -2.1604   19.8842   82.0737 H   0  0  0  0  0  0  0  0  0  0  0  0
   -4.1056   21.3782   81.7753 H   0  0  0  0  0  0  0  0  0  0  0  0
   -4.8308   20.7993   83.3038 H   0  0  0  0  0  0  0  0  0  0  0  0
   -5.4486   17.8729   83.1276 H   0  0  0  0  0  0  0  0  0  0  0  0
   -4.9760   17.2360   81.5206 H   0  0  0  0  0  0  0  0  0  0  0  0
   -2.6140   17.7379   81.9659 H   0  0  0  0  0  0  0  0  0  0  0  0
   -3.2398   16.7809   83.3233 H   0  0  0  0  0  0  0  0  0  0  0  0
   -6.4460   19.4896   81.0885 H   0  0  0  0  0  0  0  0  0  0  0  0
   -6.0176   17.5760   80.3409 H   0  0  0  0  0  0  0  0  0  0  0  0
   -6.6627   18.6692   79.0699 H   0  0  0  0  0  0  0  0  0  0  0  0
   -4.9236   18.2197   79.0699 H   0  0  0  0  0  0  0  0  0  0  0  0
  1  2  1  0
  1  6  1  0
  5  6  1  0
  2  9  1  0
  5  9  1  0
  2 12  1  0
  3 15  1  0
  7 15  1  0
 15 12  1  6
  3 16  1  0
  7 17  1  0
 16 17  1  0
 15 18  1  0
  8 19  1  0
 18 19  1  0
 19 20  1  0
  4 21  1  0
 20 21  1  0
 21 22  1  0
 18 23  1  0
 22 23  1  0
 11 24  1  0
 16 24  1  0
 11 25  1  0
 25 26  1  0
 26 27  1  0
 10 28  1  0
 27 28  1  0
 28 29  1  0
 25 30  1  0
 29 30  1  0
 10 31  1  0
 13 32  1  0
 31 32  1  0
 13 33  1  0
 10 34  1  0
 33 34  1  0
 13 35  1  0
 14 35  1  0
 35 36  1  0
  1 37  1  0
  1 38  1  0
  5 39  1  0
  5 40  1  0
  6 41  1  1
  9 42  1  0
  9 43  1  0
 12 44  1  0
 12 45  1  0
 14 46  1  0
 16 47  1  1
 17 48  1  0
 17 49  1  0
 18 50  1  0
 19 51  1  0
 20 52  1  0
 20 53  1  0
 21 54  1  0
 22 55  1  0
 22 56  1  0
 23 57  1  0
 23 58  1  0
 24 59  1  0
 24 60  1  0
 25 61  1  0
 26 62  1  0
 26 63  1  0
 27 64  1  0
 27 65  1  0
 28 66  1  0
 29 67  1  0
 29 68  1  0
 30 69  1  0
 30 70  1  0
 31 71  1  0
 31 72  1  0
 32 73  1  0
 32 74  1  0
 33 75  1  0
 33 76  1  0
 34 77  1  0
 34 78  1  0
 35 79  1  0
 36 80  1  0
 36 81  1  0
 36 82  1  0
M  END
>  <PDBID>  (1) 
6AYB

>  <PDB ID>  (1) 
6AYB

>  <Generic Name>  (1) 
Ketoconazole

>  <Brand Name>  (1) 
Apo-ketoconazole#Extina#Ketoconazole#Ketodan#Ketoderm Cream 2%#Nizoral#Nizoral  - 2%#Nizoral A-D#Nizoral Cream 2%#Nizoral Oral Suspension 20mg/ml#Nizoral Shp 2%#Nizoral Tablets 200mg#Nu-ketocon Tablets - 200mg#Teva-ketoconazole#Xolegel#Fungarest#Fungoral#Ketoderm#Ketoisdin#Ketozole#Nizoral Cream#Nizoral Shampoo#Orifungal#Orifungal M#Panfungol

>  <DrugBank ID>  (1) 
DB01026

>  <ATC Codes>  (1) 
G01AF11#D01AC08#J02AB02

>  <Ligand ID>  (1) 
KKK,KLN,KTN

>  <Target Name>  (1) 
Lanosterol 14-alpha demethylase

>  <UniProt ID>  (1) 
P10613

>  <PDB ID.1>  (1) 
6AYB

>  <Seq. Identity>  (1) 
34%

$$$$
