PDB_DB01024_99
     RDKit          3D

110112  0  0  0  0  0  0  0  0999 V2000
   65.4650   77.9460   82.6750 C   0  0  0  0  0  0  0  0  0  0  0  0
   64.9650   82.3900   86.1740 C   0  0  0  0  0  0  0  0  0  0  0  0
   65.1840   83.6670   86.5070 C   0  0  0  0  0  0  0  0  0  0  0  0
   64.2870   84.7070   85.8680 C   0  0  0  0  0  0  0  0  0  0  0  0
   65.1370   85.5900   84.9630 C   0  0  0  0  0  0  0  0  0  0  0  0
   65.2530   85.0450   83.5560 C   0  0  0  0  0  0  0  0  0  0  0  0
   69.7740   80.1380   83.5320 C   0  0  0  0  0  0  0  0  0  0  0  0
   68.4340   82.9550   84.9680 C   0  0  0  0  0  0  0  0  0  0  0  0
   66.2890   84.1040   87.4630 C   0  0  0  0  0  0  0  0  0  0  0  0
   67.7520   78.1120   82.1030 C   0  0  0  0  0  0  0  0  0  0  0  0
   67.4530   79.0770   83.2290 C   0  0  0  0  0  0  0  0  0  0  0  0
   68.3290   79.9770   83.9000 C   0  0  0  0  0  0  0  0  0  0  0  0
   67.7890   80.7240   84.9530 C   0  0  0  0  0  0  0  0  0  0  0  0
   66.4470   80.5640   85.3340 C   0  0  1  0  0  0  0  0  0  0  0  0
   65.5990   79.6820   84.6580 C   0  0  0  0  0  0  0  0  0  0  0  0
   66.1280   78.9430   83.5880 C   0  0  0  0  0  0  0  0  0  0  0  0
   65.9220   81.2770   86.5480 C   0  0  0  0  0  0  0  0  0  0  0  0
   64.3260   77.6140   82.5880 O   0  0  0  0  0  0  0  0  0  0  0  0
   66.4440   77.4740   81.8970 O   0  0  0  0  0  0  0  0  0  0  0  0
   68.5890   81.6440   85.5490 O   0  0  0  0  0  0  0  0  0  0  0  0
   64.2880   79.5520   85.1000 O   0  0  0  0  0  0  0  0  0  0  0  0
   64.2030   84.7050   82.9660 O   0  0  0  0  0  0  0  0  0  0  0  0
   66.3930   84.9550   83.0450 O   0  0  0  0  0  0  0  0  0  0  0  0
   79.6930   50.1780   33.3450 C   0  0  1  0  0  0  0  0  0  0  0  0
   83.1590   47.1080   29.9350 C   0  0  0  0  0  0  0  0  0  0  0  0
   84.2930   46.4910   29.5750 C   0  0  0  0  0  0  0  0  0  0  0  0
   84.5320   45.0670   30.0030 C   0  0  0  0  0  0  0  0  0  0  0  0
   85.4840   45.0430   31.1920 C   0  0  0  0  0  0  0  0  0  0  0  0
   84.8260   45.4920   32.4820 C   0  0  0  0  0  0  0  0  0  0  0  0
   84.0750   52.2380   32.9060 C   0  0  0  0  0  0  0  0  0  0  0  0
   85.7290   49.6090   31.5030 C   0  0  0  0  0  0  0  0  0  0  0  0
   85.3870   47.1480   28.7600 C   0  0  0  0  0  0  0  0  0  0  0  0
   81.2520   51.8090   34.0930 C   0  0  0  0  0  0  0  0  0  0  0  0
   81.8740   51.0610   32.9280 C   0  0  0  0  0  0  0  0  0  0  0  0
   83.1420   51.2170   32.3550 C   0  0  1  0  0  0  0  0  0  0  0  0
   83.4890   50.3440   31.3040 C   0  0  1  0  0  0  0  0  0  0  0  0
   82.5740   49.3630   30.8500 C   0  0  1  0  0  0  0  0  0  0  0  0
   81.2940   49.2010   31.4610 C   0  0  2  0  0  0  0  0  0  0  0  0
   80.9670   50.0930   32.5130 C   0  0  0  0  0  0  0  0  0  0  0  0
   82.9210   48.5530   29.6180 C   0  0  0  0  0  0  0  0  0  0  0  0
   78.6560   49.6070   33.2460 O   0  0  0  0  0  0  0  0  0  0  0  0
   79.9270   51.1460   34.2380 O   0  0  0  0  0  0  0  0  0  0  0  0
   84.7660   50.3580   30.7460 O   0  0  0  0  0  0  0  0  0  0  0  0
   80.4860   48.0950   31.1230 O   0  0  0  0  0  0  0  0  0  0  0  0
   83.9320   44.7640   32.9750 O   0  0  0  0  0  0  0  0  0  0  0  0
   85.1950   46.5760   33.0010 O   0  0  0  0  0  0  0  0  0  0  0  0
   65.6400   77.1516   83.4154 H   0  0  0  0  0  0  0  0  0  0  0  0
   63.9948   82.1206   86.6168 H   0  0  0  0  0  0  0  0  0  0  0  0
   65.0704   82.4205   85.0795 H   0  0  0  0  0  0  0  0  0  0  0  0
   65.8919   83.7637   85.6706 H   0  0  0  0  0  0  0  0  0  0  0  0
   63.5068   84.2090   85.2736 H   0  0  0  0  0  0  0  0  0  0  0  0
   63.8058   85.3181   86.6458 H   0  0  0  0  0  0  0  0  0  0  0  0
   64.6799   86.5894   84.9166 H   0  0  0  0  0  0  0  0  0  0  0  0
   66.1501   85.6252   85.3900 H   0  0  0  0  0  0  0  0  0  0  0  0
   65.3563   84.0267   83.9590 H   0  0  0  0  0  0  0  0  0  0  0  0
   70.3802   80.2055   84.4474 H   0  0  0  0  0  0  0  0  0  0  0  0
   70.1003   79.2707   82.9393 H   0  0  0  0  0  0  0  0  0  0  0  0
   69.9014   81.0559   82.9393 H   0  0  0  0  0  0  0  0  0  0  0  0
   68.3455   83.7032   85.7695 H   0  0  0  0  0  0  0  0  0  0  0  0
   69.3111   83.1863   84.3457 H   0  0  0  0  0  0  0  0  0  0  0  0
   67.5272   82.9754   84.3457 H   0  0  0  0  0  0  0  0  0  0  0  0
   65.9501   83.9700   88.5009 H   0  0  0  0  0  0  0  0  0  0  0  0
   67.1872   83.4934   87.2888 H   0  0  0  0  0  0  0  0  0  0  0  0
   66.5266   85.1638   87.2888 H   0  0  0  0  0  0  0  0  0  0  0  0
   68.0854   78.6426   81.1990 H   0  0  0  0  0  0  0  0  0  0  0  0
   68.5624   77.4031   82.3279 H   0  0  0  0  0  0  0  0  0  0  0  0
   67.6942   78.2946   83.9636 H   0  0  0  0  0  0  0  0  0  0  0  0
   68.0592   80.7707   83.1877 H   0  0  0  0  0  0  0  0  0  0  0  0
   67.4937   81.5109   84.2433 H   0  0  0  0  0  0  0  0  0  0  0  0
   66.1555   81.3714   84.6462 H   0  0  0  0  0  0  0  0  0  0  0  0
   65.3166   80.4863   83.9628 H   0  0  0  0  0  0  0  0  0  0  0  0
   66.3974   78.1308   84.2792 H   0  0  0  0  0  0  0  0  0  0  0  0
   66.7689   81.7066   87.1031 H   0  0  0  0  0  0  0  0  0  0  0  0
   65.3758   80.5478   87.1644 H   0  0  0  0  0  0  0  0  0  0  0  0
   63.9445   77.5028   83.4947 H   0  0  0  0  0  0  0  0  0  0  0  0
   64.2721   79.5504   86.0899 H   0  0  0  0  0  0  0  0  0  0  0  0
   63.5075   84.4798   83.6336 H   0  0  0  0  0  0  0  0  0  0  0  0
   67.0730   84.9013   83.7625 H   0  0  0  0  0  0  0  0  0  0  0  0
   79.3167   50.9754   32.6873 H   0  0  0  0  0  0  0  0  0  0  0  0
   82.3376   46.5475   29.4648 H   0  0  0  0  0  0  0  0  0  0  0  0
   83.2309   47.1148   31.0326 H   0  0  0  0  0  0  0  0  0  0  0  0
   84.7796   46.8490   30.4943 H   0  0  0  0  0  0  0  0  0  0  0  0
   83.5756   44.6059   30.2906 H   0  0  0  0  0  0  0  0  0  0  0  0
   84.9761   44.5046   29.1684 H   0  0  0  0  0  0  0  0  0  0  0  0
   85.8536   44.0156   31.3253 H   0  0  0  0  0  0  0  0  0  0  0  0
   86.3014   45.7465   30.9754 H   0  0  0  0  0  0  0  0  0  0  0  0
   84.0643   46.0360   31.9041 H   0  0  0  0  0  0  0  0  0  0  0  0
   84.0459   52.2061   34.0052 H   0  0  0  0  0  0  0  0  0  0  0  0
   85.0973   52.0253   32.5600 H   0  0  0  0  0  0  0  0  0  0  0  0
   83.7712   53.2370   32.5600 H   0  0  0  0  0  0  0  0  0  0  0  0
   85.5433   49.7534   32.5776 H   0  0  0  0  0  0  0  0  0  0  0  0
   85.6393   48.5409   31.2557 H   0  0  0  0  0  0  0  0  0  0  0  0
   86.7422   49.9588   31.2557 H   0  0  0  0  0  0  0  0  0  0  0  0
   86.1305   47.5945   29.4367 H   0  0  0  0  0  0  0  0  0  0  0  0
   85.8750   46.3934   28.1256 H   0  0  0  0  0  0  0  0  0  0  0  0
   84.9502   47.9334   28.1256 H   0  0  0  0  0  0  0  0  0  0  0  0
   81.8551   51.6938   35.0057 H   0  0  0  0  0  0  0  0  0  0  0  0
   81.1812   52.8941   33.9270 H   0  0  0  0  0  0  0  0  0  0  0  0
   81.4671   51.8083   32.2309 H   0  0  0  0  0  0  0  0  0  0  0  0
   83.5488   50.4693   33.0517 H   0  0  0  0  0  0  0  0  0  0  0  0
   83.8953   49.6276   32.0332 H   0  0  0  0  0  0  0  0  0  0  0  0
   83.0029   48.6364   31.5558 H   0  0  0  0  0  0  0  0  0  0  0  0
   80.4821   49.5599   30.8114 H   0  0  0  0  0  0  0  0  0  0  0  0
   80.5411   50.8027   31.7884 H   0  0  0  0  0  0  0  0  0  0  0  0
   83.8325   48.9705   29.1655 H   0  0  0  0  0  0  0  0  0  0  0  0
   82.0669   48.6094   28.9271 H   0  0  0  0  0  0  0  0  0  0  0  0
   78.2998   49.4109   34.1486 H   0  0  0  0  0  0  0  0  0  0  0  0
   80.1651   47.6557   31.9501 H   0  0  0  0  0  0  0  0  0  0  0  0
   83.9813   44.8041   33.9630 H   0  0  0  0  0  0  0  0  0  0  0  0
   85.1677   46.4958   33.9874 H   0  0  0  0  0  0  0  0  0  0  0  0
  2  3  1  0
  3  4  1  0
  4  5  1  0
  5  6  1  0
  3  9  1  0
 10 11  1  0
  7 12  1  0
 11 12  1  0
 12 13  1  0
 13 14  1  0
 14 15  1  0
  1 16  1  0
 11 16  1  0
 15 16  1  0
  2 17  1  0
 14 17  1  0
  1 18  1  0
  1 19  1  0
 10 19  1  0
  8 20  1  0
 13 20  1  0
 15 21  1  0
  6 22  1  0
  6 23  1  0
 25 26  1  0
 26 27  1  0
 27 28  1  0
 28 29  1  0
 26 32  1  0
 33 34  1  0
 30 35  1  0
 34 35  1  0
 35 36  1  0
 36 37  1  0
 37 38  1  0
 24 39  1  0
 34 39  1  0
 38 39  1  0
 25 40  1  0
 37 40  1  0
 24 41  1  0
 24 42  1  0
 33 42  1  0
 31 43  1  0
 36 43  1  0
 38 44  1  0
 29 45  1  0
 29 46  1  0
  1 47  1  0
  2 48  1  0
  2 49  1  0
  3 50  1  0
  4 51  1  0
  4 52  1  0
  5 53  1  0
  5 54  1  0
  6 55  1  0
  7 56  1  0
  7 57  1  0
  7 58  1  0
  8 59  1  0
  8 60  1  0
  8 61  1  0
  9 62  1  0
  9 63  1  0
  9 64  1  0
 10 65  1  0
 10 66  1  0
 11 67  1  0
 12 68  1  0
 13 69  1  0
 14 70  1  6
 15 71  1  0
 16 72  1  0
 17 73  1  0
 17 74  1  0
 18 75  1  0
 21 76  1  0
 22 77  1  0
 23 78  1  0
 24 79  1  1
 25 80  1  0
 25 81  1  0
 26 82  1  0
 27 83  1  0
 27 84  1  0
 28 85  1  0
 28 86  1  0
 29 87  1  0
 30 88  1  0
 30 89  1  0
 30 90  1  0
 31 91  1  0
 31 92  1  0
 31 93  1  0
 32 94  1  0
 32 95  1  0
 32 96  1  0
 33 97  1  0
 33 98  1  0
 34 99  1  0
 35100  1  6
 36101  1  6
 37102  1  1
 38103  1  6
 39104  1  0
 40105  1  0
 40106  1  0
 41107  1  0
 44108  1  0
 45109  1  0
 46110  1  0
M  END
>  <PDBID>  (1) 
1JR1

>  <PDB ID>  (1) 
1JR1

>  <Generic Name>  (1) 
Mycophenolic acid

>  <Brand Name>  (1) 
Apo-mycophenolic Acid#Mycophenolic Acid#Myfortic#Melbex

>  <DrugBank ID>  (1) 
DB01024

>  <ATC Codes>  (1) 
L04AA06

>  <Ligand ID>  (1) 
MOA

>  <Target Name>  (1) 
Inosine-5'-monophosphate dehydrogenase 2

>  <UniProt ID>  (1) 
P12268

>  <PDB ID.1>  (1) 
1JR1

>  <Seq. Identity>  (1) 
99%

$$$$
