PDB_DB00558_95
     RDKit          3D

 43 43  0  0  0  0  0  0  0  0999 V2000
  -30.4620    4.7530   37.6210 C   0  0  0  0  0  0  0  0  0  0  0  0
  -31.7600    4.3380   37.3990 O   0  0  0  0  0  0  0  0  0  0  0  0
  -29.5470    3.7640   37.8100 O   0  0  0  0  0  0  0  0  0  0  0  0
  -30.0400    5.6620   36.5280 C   0  0  0  0  0  0  0  0  0  0  0  0
  -28.5800    6.0790   36.4470 C   0  0  0  0  0  0  0  0  0  0  0  0
  -28.2530    7.2960   35.6000 C   0  0  1  0  0  0  0  0  0  0  0  0
  -29.4060    8.2820   35.2740 C   0  0  1  0  0  0  0  0  0  0  0  0
  -29.2150    9.2340   34.2250 N   0  0  0  0  0  0  0  0  0  0  0  0
  -28.6220   10.5190   34.4640 C   0  0  0  0  0  0  0  0  0  0  0  0
  -28.2900   10.8960   35.5860 O   0  0  0  0  0  0  0  0  0  0  0  0
  -28.4210   11.3770   33.2560 C   0  0  0  0  0  0  0  0  0  0  0  0
  -30.8440    7.7610   35.4070 C   0  0  1  0  0  0  0  0  0  0  0  0
  -31.0600    6.5240   36.0390 O   0  0  0  0  0  0  0  0  0  0  0  0
  -31.9870    8.7320   35.5470 C   0  0  2  0  0  0  0  0  0  0  0  0
  -31.9250    9.3250   36.7870 O   0  0  0  0  0  0  0  0  0  0  0  0
  -33.3050    8.0640   35.1770 C   0  0  2  0  0  0  0  0  0  0  0  0
  -33.2190    7.3260   33.9990 O   0  0  0  0  0  0  0  0  0  0  0  0
  -34.4610    9.0360   35.1320 C   0  0  0  0  0  0  0  0  0  0  0  0
  -34.3730    9.9840   34.1260 O   0  0  0  0  0  0  0  0  0  0  0  0
  -26.9560    7.8390   35.8500 N   0  0  0  0  0  0  0  0  0  0  0  0
  -26.1440    8.4320   34.8000 C   0  0  0  0  0  0  0  0  0  0  0  0
  -26.4590    8.2690   33.5220 N   0  0  0  0  0  0  0  0  0  0  0  0
  -25.0930    9.1510   35.1700 N   0  0  0  0  0  0  0  0  0  0  0  0
  -32.4755    5.0067   37.2539 H   0  0  0  0  0  0  0  0  0  0  0  0
  -27.7943    5.5228   36.9793 H   0  0  0  0  0  0  0  0  0  0  0  0
  -28.1556    6.8807   34.5861 H   0  0  0  0  0  0  0  0  0  0  0  0
  -29.2835    8.9127   36.1669 H   0  0  0  0  0  0  0  0  0  0  0  0
  -29.5117    8.9906   33.2692 H   0  0  0  0  0  0  0  0  0  0  0  0
  -28.1806   12.4032   33.5710 H   0  0  0  0  0  0  0  0  0  0  0  0
  -27.5928   10.9747   32.6542 H   0  0  0  0  0  0  0  0  0  0  0  0
  -29.3417   11.3844   32.6542 H   0  0  0  0  0  0  0  0  0  0  0  0
  -30.9008    7.5165   34.3360 H   0  0  0  0  0  0  0  0  0  0  0  0
  -31.9090    9.5611   34.8283 H   0  0  0  0  0  0  0  0  0  0  0  0
  -31.9976    8.6306   37.4889 H   0  0  0  0  0  0  0  0  0  0  0  0
  -33.5134    7.3540   35.9909 H   0  0  0  0  0  0  0  0  0  0  0  0
  -33.1072    6.3670   34.2178 H   0  0  0  0  0  0  0  0  0  0  0  0
  -35.3875    8.4619   34.9836 H   0  0  0  0  0  0  0  0  0  0  0  0
  -34.4453    9.5865   36.0842 H   0  0  0  0  0  0  0  0  0  0  0  0
  -34.2894   10.8849   34.5279 H   0  0  0  0  0  0  0  0  0  0  0  0
  -25.8742    8.6952   32.7890 H   0  0  0  0  0  0  0  0  0  0  0  0
  -27.2885    7.7162   33.2625 H   0  0  0  0  0  0  0  0  0  0  0  0
  -24.4916    9.5884   34.4574 H   0  0  0  0  0  0  0  0  0  0  0  0
  -24.8781    9.2721   36.1700 H   0  0  0  0  0  0  0  0  0  0  0  0
  1  2  1  0
  1  3  2  0
  1  4  1  0
  4  5  2  0
  5  6  1  0
  6  7  1  0
  7  8  1  0
  8  9  1  0
  9 10  2  0
  9 11  1  0
  7 12  1  0
  4 13  1  0
 12 13  1  0
 12 14  1  0
 14 15  1  0
 14 16  1  0
 16 17  1  0
 16 18  1  0
 18 19  1  0
  6 20  1  0
 20 21  2  3
 21 22  1  0
 21 23  1  0
  2 24  1  0
  5 25  1  0
  6 26  1  6
  7 27  1  1
  8 28  1  0
 11 29  1  0
 11 30  1  0
 11 31  1  0
 12 32  1  6
 14 33  1  6
 15 34  1  0
 16 35  1  1
 17 36  1  0
 18 37  1  0
 18 38  1  0
 19 39  1  0
 22 40  1  0
 22 41  1  0
 23 42  1  0
 23 43  1  0
M  END
>  <PDBID>  (1) 
4I00

>  <PDB ID>  (1) 
4I00

>  <Generic Name>  (1) 
Zanamivir

>  <Brand Name>  (1) 
Relenza

>  <DrugBank ID>  (1) 
DB00558

>  <ATC Codes>  (1) 
J05AH01

>  <Ligand ID>  (1) 
ZMR

>  <Target Name>  (1) 
Neuraminidase

>  <UniProt ID>  (1) 
P06818

>  <PDB ID.1>  (1) 
4I00

>  <Seq. Identity>  (1) 
53%

$$$$
