PDB_DB06626_98
     RDKit          3D

 46 49  0  0  0  0  0  0  0  0999 V2000
  -26.0500   -1.5400   -9.1290 O   0  0  0  0  0  0  0  0  0  0  0  0
  -26.8130   -2.1120   -9.9250 C   0  0  0  0  0  0  0  0  0  0  0  0
  -27.7940   -2.9030   -9.4730 N   0  0  0  0  0  0  0  0  0  0  0  0
  -28.0620   -3.1670   -8.0660 C   0  0  0  0  0  0  0  0  0  0  0  0
  -26.6610   -1.9210  -11.4070 C   0  0  0  0  0  0  0  0  0  0  0  0
  -27.8430   -2.0160  -12.2280 C   0  0  0  0  0  0  0  0  0  0  0  0
  -27.7850   -1.8450  -13.6350 C   0  0  0  0  0  0  0  0  0  0  0  0
  -26.5390   -1.5730  -14.2630 C   0  0  0  0  0  0  0  0  0  0  0  0
  -25.3980   -1.6480  -12.0440 C   0  0  0  0  0  0  0  0  0  0  0  0
  -25.3620   -1.4780  -13.4740 C   0  0  0  0  0  0  0  0  0  0  0  0
  -23.9020   -1.5160  -11.1330 S   0  0  0  0  0  0  0  0  0  0  0  0
  -22.9590   -0.2700  -11.9050 C   0  0  0  0  0  0  0  0  0  0  0  0
  -21.5910   -0.5420  -12.2670 C   0  0  0  0  0  0  0  0  0  0  0  0
  -20.7750    0.4570  -12.8950 C   0  0  0  0  0  0  0  0  0  0  0  0
  -23.5120    1.0330  -12.1840 C   0  0  0  0  0  0  0  0  0  0  0  0
  -22.6840    2.0040  -12.8080 C   0  0  0  0  0  0  0  0  0  0  0  0
  -22.9180    3.3130  -13.1930 N   0  0  0  0  0  0  0  0  0  0  0  0
  -21.8720    3.8470  -13.7310 N   0  0  0  0  0  0  0  0  0  0  0  0
  -20.8950    3.0070  -13.7590 C   0  0  0  0  0  0  0  0  0  0  0  0
  -21.3640    1.7410  -13.1560 C   0  0  0  0  0  0  0  0  0  0  0  0
  -19.5650    3.3590  -14.3260 C   0  0  0  0  0  0  0  0  0  0  0  0
  -18.3340    2.7660  -13.9990 C   0  0  0  0  0  0  0  0  0  0  0  0
  -17.0050    3.1500  -14.5720 C   0  0  0  0  0  0  0  0  0  0  0  0
  -16.0980    2.1400  -14.7540 N   0  0  0  0  0  0  0  0  0  0  0  0
  -14.8630    2.4370  -15.2680 C   0  0  0  0  0  0  0  0  0  0  0  0
  -14.4730    3.7600  -15.6240 C   0  0  0  0  0  0  0  0  0  0  0  0
  -15.4110    4.8170  -15.4370 C   0  0  0  0  0  0  0  0  0  0  0  0
  -16.6980    4.5180  -14.9050 C   0  0  0  0  0  0  0  0  0  0  0  0
  -28.4021   -3.3569  -10.1695 H   0  0  0  0  0  0  0  0  0  0  0  0
  -27.4157   -2.5304   -7.4439 H   0  0  0  0  0  0  0  0  0  0  0  0
  -29.1166   -2.9452   -7.8457 H   0  0  0  0  0  0  0  0  0  0  0  0
  -27.8561   -4.2249   -7.8457 H   0  0  0  0  0  0  0  0  0  0  0  0
  -28.8122   -2.2260  -11.7520 H   0  0  0  0  0  0  0  0  0  0  0  0
  -28.7015   -1.9226  -14.2383 H   0  0  0  0  0  0  0  0  0  0  0  0
  -26.4868   -1.4370  -15.3533 H   0  0  0  0  0  0  0  0  0  0  0  0
  -24.4006   -1.2698  -13.9662 H   0  0  0  0  0  0  0  0  0  0  0  0
  -21.1644   -1.5341  -12.0579 H   0  0  0  0  0  0  0  0  0  0  0  0
  -19.7305    0.2463  -13.1682 H   0  0  0  0  0  0  0  0  0  0  0  0
  -24.5531    1.2696  -11.9190 H   0  0  0  0  0  0  0  0  0  0  0  0
  -23.8160    3.8013  -13.0660 H   0  0  0  0  0  0  0  0  0  0  0  0
  -19.5435    4.1636  -15.0758 H   0  0  0  0  0  0  0  0  0  0  0  0
  -18.3477    1.9513  -13.2601 H   0  0  0  0  0  0  0  0  0  0  0  0
  -14.1419    1.6188  -15.4119 H   0  0  0  0  0  0  0  0  0  0  0  0
  -13.4720    3.9612  -16.0334 H   0  0  0  0  0  0  0  0  0  0  0  0
  -15.1441    5.8511  -15.7004 H   0  0  0  0  0  0  0  0  0  0  0  0
  -17.4415    5.3141  -14.7517 H   0  0  0  0  0  0  0  0  0  0  0  0
  1  2  2  0
  2  3  1  0
  3  4  1  0
  2  5  1  0
  5  6  2  0
  6  7  1  0
  7  8  2  0
  5  9  1  0
  8 10  1  0
  9 10  2  0
  9 11  1  0
 11 12  1  0
 12 13  2  0
 13 14  1  0
 12 15  1  0
 15 16  2  0
 16 17  1  0
 17 18  1  0
 18 19  2  0
 14 20  2  0
 16 20  1  0
 19 20  1  0
 19 21  1  0
 21 22  2  0
 22 23  1  0
 23 24  2  0
 24 25  1  0
 25 26  2  0
 26 27  1  0
 23 28  1  0
 27 28  2  0
  3 29  1  0
  4 30  1  0
  4 31  1  0
  4 32  1  0
  6 33  1  0
  7 34  1  0
  8 35  1  0
 10 36  1  0
 13 37  1  0
 14 38  1  0
 15 39  1  0
 17 40  1  0
 21 41  1  0
 22 42  1  0
 25 43  1  0
 26 44  1  0
 27 45  1  0
 28 46  1  0
M  END
>  <PDBID>  (1) 
4AGC

>  <PDB ID>  (1) 
4AGC

>  <Generic Name>  (1) 
Axitinib

>  <Brand Name>  (1) 
Inlyta

>  <DrugBank ID>  (1) 
DB06626

>  <ATC Codes>  (1) 
L01XE17

>  <Ligand ID>  (1) 
AXI

>  <Target Name>  (1) 
Vascular endothelial growth factor receptor 3

>  <UniProt ID>  (1) 
P35916

>  <PDB ID.1>  (1) 
4AGC

>  <Seq. Identity>  (1) 
66%

$$$$
