PDB_DB08954_94
     RDKit          3D

 51 53  0  0  0  0  0  0  0  0999 V2000
   30.2490   -8.3030  -31.4130 C   0  0  0  0  0  0  0  0  0  0  0  0
   23.0380   -5.1730  -32.1560 N   0  0  0  0  0  0  0  0  0  0  0  0
   22.1810   -2.2450  -32.6890 O   0  0  0  0  0  0  0  0  0  0  0  0
   17.7810   -3.4010  -34.0590 C   0  0  0  0  0  0  0  0  0  0  0  0
   15.9070   -2.0920  -33.2770 O   0  0  0  0  0  0  0  0  0  0  0  0
   18.0190   -1.8260  -32.2660 C   0  0  0  0  0  0  0  0  0  0  0  0
   27.9050   -7.4850  -32.6990 C   0  0  0  0  0  0  0  0  0  0  0  0
   28.8570   -6.5530  -32.2900 C   0  0  0  0  0  0  0  0  0  0  0  0
   30.0230   -6.9580  -31.6580 C   0  0  0  0  0  0  0  0  0  0  0  0
   26.7110   -7.0580  -33.5190 C   0  0  0  0  0  0  0  0  0  0  0  0
   25.4210   -6.8410  -32.7170 C   0  0  0  0  0  0  0  0  0  0  0  0
   25.4770   -5.5600  -31.8850 C   0  0  0  0  0  0  0  0  0  0  0  0
   29.2960   -9.2390  -31.7850 C   0  0  0  0  0  0  0  0  0  0  0  0
   28.1320   -8.8320  -32.4220 C   0  0  0  0  0  0  0  0  0  0  0  0
   24.1510   -5.2500  -31.1930 C   0  0  0  0  0  0  0  0  0  0  0  0
   22.9200   -6.4610  -32.8610 C   0  0  0  0  0  0  0  0  0  0  0  0
   24.1960   -6.8000  -33.6300 C   0  0  0  0  0  0  0  0  0  0  0  0
   21.7590   -4.5020  -31.8280 C   0  0  2  0  0  0  0  0  0  0  0  0
   21.4130   -3.4340  -32.8880 C   0  0  1  0  0  0  0  0  0  0  0  0
   19.9280   -3.1240  -32.9790 C   0  0  0  0  0  0  0  0  0  0  0  0
   19.1200   -3.7370  -33.9340 C   0  0  0  0  0  0  0  0  0  0  0  0
   17.2240   -2.4430  -33.2190 C   0  0  0  0  0  0  0  0  0  0  0  0
   19.3530   -2.1680  -32.1500 C   0  0  0  0  0  0  0  0  0  0  0  0
   21.6980   -3.9540  -30.4030 C   0  0  0  0  0  0  0  0  0  0  0  0
   31.1804   -8.6268  -30.9255 H   0  0  0  0  0  0  0  0  0  0  0  0
   22.2878   -2.0797  -31.7188 H   0  0  0  0  0  0  0  0  0  0  0  0
   17.1594   -3.8919  -34.8223 H   0  0  0  0  0  0  0  0  0  0  0  0
   15.5503   -1.4047  -32.6602 H   0  0  0  0  0  0  0  0  0  0  0  0
   17.5877   -1.0632  -31.6012 H   0  0  0  0  0  0  0  0  0  0  0  0
   28.6812   -5.4823  -32.4708 H   0  0  0  0  0  0  0  0  0  0  0  0
   30.7694   -6.2107  -31.3508 H   0  0  0  0  0  0  0  0  0  0  0  0
   26.9629   -6.1134  -34.0232 H   0  0  0  0  0  0  0  0  0  0  0  0
   26.5053   -7.8828  -34.2172 H   0  0  0  0  0  0  0  0  0  0  0  0
   25.3311   -7.6988  -32.0343 H   0  0  0  0  0  0  0  0  0  0  0  0
   26.2570   -5.6723  -31.1175 H   0  0  0  0  0  0  0  0  0  0  0  0
   25.6979   -4.7278  -32.5696 H   0  0  0  0  0  0  0  0  0  0  0  0
   29.4628  -10.3058  -31.5749 H   0  0  0  0  0  0  0  0  0  0  0  0
   27.3801   -9.5809  -32.7115 H   0  0  0  0  0  0  0  0  0  0  0  0
   24.2382   -4.2855  -30.6712 H   0  0  0  0  0  0  0  0  0  0  0  0
   23.9357   -6.0636  -30.4847 H   0  0  0  0  0  0  0  0  0  0  0  0
   22.7255   -7.2546  -32.1245 H   0  0  0  0  0  0  0  0  0  0  0  0
   22.0935   -6.3838  -33.5827 H   0  0  0  0  0  0  0  0  0  0  0  0
   24.3566   -6.0367  -34.4056 H   0  0  0  0  0  0  0  0  0  0  0  0
   24.0698   -7.7984  -34.0742 H   0  0  0  0  0  0  0  0  0  0  0  0
   20.9801   -5.2780  -31.8600 H   0  0  0  0  0  0  0  0  0  0  0  0
   21.6868   -3.8706  -33.8598 H   0  0  0  0  0  0  0  0  0  0  0  0
   19.5513   -4.4995  -34.5992 H   0  0  0  0  0  0  0  0  0  0  0  0
   19.9719   -1.6739  -31.3866 H   0  0  0  0  0  0  0  0  0  0  0  0
   21.7904   -4.7838  -29.6868 H   0  0  0  0  0  0  0  0  0  0  0  0
   22.5225   -3.2425  -30.2482 H   0  0  0  0  0  0  0  0  0  0  0  0
   20.7372   -3.4412  -30.2482 H   0  0  0  0  0  0  0  0  0  0  0  0
  7  8  2  0
  1  9  2  0
  8  9  1  0
  7 10  1  0
 10 11  1  0
 11 12  1  0
  1 13  1  0
  7 14  1  0
 13 14  2  0
  2 15  1  0
 12 15  1  0
  2 16  1  0
 11 17  1  0
 16 17  1  0
  2 18  1  0
  3 19  1  0
 18 19  1  0
 19 20  1  0
  4 21  2  0
 20 21  1  0
  4 22  1  0
  5 22  1  0
  6 22  2  0
  6 23  1  0
 20 23  2  0
 18 24  1  0
  1 25  1  0
  3 26  1  0
  4 27  1  0
  5 28  1  0
  6 29  1  0
  8 30  1  0
  9 31  1  0
 10 32  1  0
 10 33  1  0
 11 34  1  0
 12 35  1  0
 12 36  1  0
 13 37  1  0
 14 38  1  0
 15 39  1  0
 15 40  1  0
 16 41  1  0
 16 42  1  0
 17 43  1  0
 17 44  1  0
 18 45  1  1
 19 46  1  6
 21 47  1  0
 23 48  1  0
 24 49  1  0
 24 50  1  0
 24 51  1  0
M  END
$$$$
