PDB_DB00278_98
     RDKit          3D

 85 87  0  0  0  0  0  0  0  0999 V2000
   28.7520   13.5130   25.6380 S   0  0  2  0  0  4  0  0  0  0  0  0
   28.5540   13.6490   27.0570 O   0  0  0  0  0  0  0  0  0  0  0  0
   27.6690   13.3990   24.6800 O   0  0  0  0  0  0  0  0  0  0  0  0
   31.7960   11.7570   28.2400 C   0  0  0  0  0  0  0  0  0  0  0  0
   32.8640   10.9560   27.6000 C   0  0  2  0  0  0  0  0  0  0  0  0
   32.2630    9.8270   26.8440 C   0  0  0  0  0  0  0  0  0  0  0  0
   31.3110   10.3570   25.8650 C   0  0  1  0  0  0  0  0  0  0  0  0
   31.0580    9.6760   24.6800 C   0  0  0  0  0  0  0  0  0  0  0  0
   30.1090   10.2040   23.8000 C   0  0  0  0  0  0  0  0  0  0  0  0
   29.3790   11.3580   24.1210 C   0  0  0  0  0  0  0  0  0  0  0  0
   29.5620   11.9600   25.3330 C   0  0  1  0  0  0  0  0  0  0  0  0
   30.5960   11.5460   26.2180 C   0  0  0  0  0  0  0  0  0  0  0  0
   33.7940   10.4240   28.6730 C   0  0  0  0  0  0  0  0  0  0  0  0
   30.8260   12.2470   27.3000 N   0  0  0  0  0  0  0  0  0  0  0  0
   29.7320   14.8200   25.1830 N   0  0  0  0  0  0  0  0  0  0  0  0
   30.4930   14.8340   23.9360 C   0  0  2  0  0  0  0  0  0  0  0  0
   31.8340   14.1520   24.1210 C   0  0  2  0  0  0  0  0  0  0  0  0
   32.5200   14.2960   25.1110 O   0  0  0  0  0  0  0  0  0  0  0  0
   30.7090   16.2410   23.4460 C   0  0  0  0  0  0  0  0  0  0  0  0
   30.9130   17.1700   24.5960 C   0  0  0  0  0  0  0  0  0  0  0  0
   31.3610   18.5140   24.0090 C   0  0  0  0  0  0  0  0  0  0  0  0
   31.5800   19.5010   25.0670 N   0  0  0  0  0  0  0  0  0  0  0  0
   32.8380   19.8780   25.3590 C   0  0  1  0  0  0  0  0  0  0  0  0
   33.8690   19.3020   24.6870 N   0  0  0  0  0  0  0  0  0  0  0  0
   33.0480   20.7010   26.4060 N   0  0  0  0  0  0  0  0  0  0  0  0
   32.3370   13.5310   23.0090 N   0  0  0  0  0  0  0  0  0  0  0  0
   31.6320   13.5940   21.7350 C   0  0  2  0  0  0  0  0  0  0  0  0
   31.5630   12.2080   21.0910 C   0  0  0  0  0  0  0  0  0  0  0  0
   32.9310   11.6240   21.0310 C   0  0  1  0  0  0  0  0  0  0  0  0
   33.5710   11.5970   22.4090 C   0  0  0  0  0  0  0  0  0  0  0  0
   33.6280   12.9300   23.0790 C   0  0  0  0  0  0  0  0  0  0  0  0
   32.2420   14.6520   20.8170 C   0  0  1  0  0  0  0  0  0  0  0  0
   31.8780   14.5770   19.6490 O   0  0  0  0  0  0  0  0  0  0  0  0
   32.5180   15.7230   21.3050 O   0  0  0  0  0  0  0  0  0  0  0  0
   32.8000   10.2190   20.4830 C   0  0  0  0  0  0  0  0  0  0  0  0
   29.2672   13.1591   27.5382 H   0  0  0  0  0  0  0  0  0  0  0  0
   26.8095   13.3085   25.1628 H   0  0  0  0  0  0  0  0  0  0  0  0
   31.2807   11.1274   28.9803 H   0  0  0  0  0  0  0  0  0  0  0  0
   32.2735   12.6306   28.7077 H   0  0  0  0  0  0  0  0  0  0  0  0
   33.4320   11.5872   26.9007 H   0  0  0  0  0  0  0  0  0  0  0  0
   33.0554    9.2699   26.3227 H   0  0  0  0  0  0  0  0  0  0  0  0
   31.7420    9.1520   27.5389 H   0  0  0  0  0  0  0  0  0  0  0  0
   32.1247   10.9103   25.3733 H   0  0  0  0  0  0  0  0  0  0  0  0
   32.0096    9.6120   24.1320 H   0  0  0  0  0  0  0  0  0  0  0  0
   30.6229    8.7195   25.0052 H   0  0  0  0  0  0  0  0  0  0  0  0
   30.6418   10.4235   22.8630 H   0  0  0  0  0  0  0  0  0  0  0  0
   29.3322    9.4252   23.7921 H   0  0  0  0  0  0  0  0  0  0  0  0
   29.6159   12.1090   23.3530 H   0  0  0  0  0  0  0  0  0  0  0  0
   28.3404   10.9987   24.1682 H   0  0  0  0  0  0  0  0  0  0  0  0
   28.8709   11.2467   25.8057 H   0  0  0  0  0  0  0  0  0  0  0  0
   31.3213   12.1499   25.6530 H   0  0  0  0  0  0  0  0  0  0  0  0
   33.3819   10.6598   29.6653 H   0  0  0  0  0  0  0  0  0  0  0  0
   33.8914    9.3336   28.5661 H   0  0  0  0  0  0  0  0  0  0  0  0
   34.7834   10.8928   28.5661 H   0  0  0  0  0  0  0  0  0  0  0  0
   29.9312   12.3327   27.8029 H   0  0  0  0  0  0  0  0  0  0  0  0
   29.1137   15.6431   25.1500 H   0  0  0  0  0  0  0  0  0  0  0  0
   29.9067   14.2849   23.1845 H   0  0  0  0  0  0  0  0  0  0  0  0
   31.5255   13.4144   24.8765 H   0  0  0  0  0  0  0  0  0  0  0  0
   31.9611   14.1787   25.9197 H   0  0  0  0  0  0  0  0  0  0  0  0
   31.5978   16.2662   22.7983 H   0  0  0  0  0  0  0  0  0  0  0  0
   29.8200   16.5618   22.8831 H   0  0  0  0  0  0  0  0  0  0  0  0
   29.9725   17.2950   25.1527 H   0  0  0  0  0  0  0  0  0  0  0  0
   31.6663   16.7741   25.2930 H   0  0  0  0  0  0  0  0  0  0  0  0
   32.2987   18.3689   23.4526 H   0  0  0  0  0  0  0  0  0  0  0  0
   30.5702   18.8858   23.3408 H   0  0  0  0  0  0  0  0  0  0  0  0
   31.0653   20.3514   24.7972 H   0  0  0  0  0  0  0  0  0  0  0  0
   32.8965   19.0900   26.1242 H   0  0  0  0  0  0  0  0  0  0  0  0
   34.5488   18.9222   25.3612 H   0  0  0  0  0  0  0  0  0  0  0  0
   33.5097   18.5394   24.0952 H   0  0  0  0  0  0  0  0  0  0  0  0
   32.9150   20.1799   27.2844 H   0  0  0  0  0  0  0  0  0  0  0  0
   34.0096   21.0680   26.3667 H   0  0  0  0  0  0  0  0  0  0  0  0
   30.5949   13.9117   21.9178 H   0  0  0  0  0  0  0  0  0  0  0  0
   30.9113   11.5561   21.6912 H   0  0  0  0  0  0  0  0  0  0  0  0
   31.1547   12.2948   20.0733 H   0  0  0  0  0  0  0  0  0  0  0  0
   33.5769   12.2360   20.3842 H   0  0  0  0  0  0  0  0  0  0  0  0
   32.9904   10.9141   23.0466 H   0  0  0  0  0  0  0  0  0  0  0  0
   34.6109   11.2662   22.2702 H   0  0  0  0  0  0  0  0  0  0  0  0
   34.3627   13.5700   22.5685 H   0  0  0  0  0  0  0  0  0  0  0  0
   33.9293   12.8092   24.1300 H   0  0  0  0  0  0  0  0  0  0  0  0
   33.2946   14.3545   20.7009 H   0  0  0  0  0  0  0  0  0  0  0  0
   30.9089   14.3773   19.6176 H   0  0  0  0  0  0  0  0  0  0  0  0
   32.4993   15.6505   22.2922 H   0  0  0  0  0  0  0  0  0  0  0  0
   32.7334    9.5049   21.3170 H   0  0  0  0  0  0  0  0  0  0  0  0
   31.8914   10.1490   19.8669 H   0  0  0  0  0  0  0  0  0  0  0  0
   33.6800    9.9822   19.8669 H   0  0  0  0  0  0  0  0  0  0  0  0
  1  2  1  1
  1  3  1  0
  4  5  1  0
  5  6  1  0
  6  7  1  0
  7  8  1  0
  8  9  1  0
  9 10  1  0
  1 11  1  0
 10 11  1  0
  7 12  1  0
 11 12  1  0
  5 13  1  0
  4 14  1  0
 12 14  1  0
  1 15  1  0
 15 16  1  0
 16 17  1  0
 17 18  1  0
 16 19  1  0
 19 20  1  0
 20 21  1  0
 21 22  1  0
 22 23  1  0
 23 24  1  0
 23 25  1  0
 17 26  1  0
 26 27  1  0
 27 28  1  0
 28 29  1  0
 29 30  1  0
 26 31  1  0
 30 31  1  0
 27 32  1  0
 32 33  1  0
 32 34  1  0
 29 35  1  0
  2 36  1  0
  3 37  1  0
  4 38  1  0
  4 39  1  0
  5 40  1  6
  6 41  1  0
  6 42  1  0
  7 43  1  6
  8 44  1  0
  8 45  1  0
  9 46  1  0
  9 47  1  0
 10 48  1  0
 10 49  1  0
 11 50  1  1
 12 51  1  0
 13 52  1  0
 13 53  1  0
 13 54  1  0
 14 55  1  0
 15 56  1  0
 16 57  1  6
 17 58  1  1
 18 59  1  0
 19 60  1  0
 19 61  1  0
 20 62  1  0
 20 63  1  0
 21 64  1  0
 21 65  1  0
 22 66  1  0
 23 67  1  6
 24 68  1  0
 24 69  1  0
 25 70  1  0
 25 71  1  0
 27 72  1  1
 28 73  1  0
 28 74  1  0
 29 75  1  6
 30 76  1  0
 30 77  1  0
 31 78  1  0
 31 79  1  0
 32 80  1  6
 33 81  1  0
 34 82  1  0
 35 83  1  0
 35 84  1  0
 35 85  1  0
M  END
>  <PDBID>  (1) 
1DWC

>  <PDB ID>  (1) 
1DWC

>  <Generic Name>  (1) 
Argatroban

>  <Brand Name>  (1) 
Argatroban

>  <DrugBank ID>  (1) 
DB00278

>  <ATC Codes>  (1) 
B01AE03

>  <Ligand ID>  (1) 
15U,MIT

>  <Target Name>  (1) 
Prothrombin

>  <UniProt ID>  (1) 
P00734

>  <PDB ID.1>  (1) 
1DWC

>  <Seq. Identity>  (1) 
100%

$$$$
