PDB_DB00513_96
     RDKit          3D

 22 21  0  0  0  0  0  0  0  0999 V2000
    0.5600   -3.2550    0.5580 C   0  0  0  0  0  0  0  0  0  0  0  0
    0.7890   -4.4380    0.9010 O   0  0  0  0  0  0  0  0  0  0  0  0
   -0.5960   -2.8000    0.2490 O   0  0  0  0  0  0  0  0  0  0  0  0
    1.4600   -2.1690    1.1740 C   0  0  0  0  0  0  0  0  0  0  0  0
    2.3820   -1.6060    0.0840 C   0  0  0  0  0  0  0  0  0  0  0  0
    3.6150   -0.9410    0.7670 C   0  0  0  0  0  0  0  0  0  0  0  0
    4.4500   -0.1930   -0.2350 C   0  0  0  0  0  0  0  0  0  0  0  0
    5.8930    0.0170    0.1620 C   0  0  0  0  0  0  0  0  0  0  0  0
    6.5910   -1.2810    0.4160 N   0  0  0  0  0  0  0  0  0  0  0  0
    1.7114   -4.7184    1.1262 H   0  0  0  0  0  0  0  0  0  0  0  0
    0.8356   -1.3607    1.5825 H   0  0  0  0  0  0  0  0  0  0  0  0
    2.0645   -2.6030    1.9841 H   0  0  0  0  0  0  0  0  0  0  0  0
    2.7181   -2.4210   -0.5738 H   0  0  0  0  0  0  0  0  0  0  0  0
    1.8400   -0.8615   -0.5177 H   0  0  0  0  0  0  0  0  0  0  0  0
    3.2638   -0.2390    1.5376 H   0  0  0  0  0  0  0  0  0  0  0  0
    4.2337   -1.7312    1.2174 H   0  0  0  0  0  0  0  0  0  0  0  0
    4.4350   -0.7566   -1.1795 H   0  0  0  0  0  0  0  0  0  0  0  0
    4.0056    0.8100   -0.3161 H   0  0  0  0  0  0  0  0  0  0  0  0
    6.4123    0.5483   -0.6492 H   0  0  0  0  0  0  0  0  0  0  0  0
    5.9109    0.6039    1.0922 H   0  0  0  0  0  0  0  0  0  0  0  0
    6.6731   -1.4337    1.4313 H   0  0  0  0  0  0  0  0  0  0  0  0
    6.0496   -2.0499   -0.0042 H   0  0  0  0  0  0  0  0  0  0  0  0
  1  2  1  0
  1  3  2  0
  1  4  1  0
  4  5  1  0
  5  6  1  0
  6  7  1  0
  7  8  1  0
  8  9  1  0
  2 10  1  0
  4 11  1  0
  4 12  1  0
  5 13  1  0
  5 14  1  0
  6 15  1  0
  6 16  1  0
  7 17  1  0
  7 18  1  0
  8 19  1  0
  8 20  1  0
  9 21  1  0
  9 22  1  0
M  END
>  <PDBID>  (1) 
2PK4

>  <PDB ID>  (1) 
2PK4

>  <Generic Name>  (1) 
Aminocaproic Acid

>  <Brand Name>  (1) 
Amicar#Aminocaproic Acid#Exoden White Tooth#Acepramin#Amocap#Caproamin#Caprocat#Caprolisin#E-Capro#Epsicaprom#Hemocid#Inselon#Ipron#Ipsilon#Kai Nai Yin#Minocap#Plaslloid#Resplamin

>  <DrugBank ID>  (1) 
DB00513

>  <ATC Codes>  (1) 
B02AA01

>  <Ligand ID>  (1) 
ACA

>  <Target Name>  (1) 
Plasminogen

>  <UniProt ID>  (1) 
P00747

>  <PDB ID.1>  (1) 
2PK4

>  <Seq. Identity>  (1) 
86%

$$$$
