PDB_DB00218_98
     RDKit          3D

 53 57  0  0  0  0  0  0  0  0999 V2000
   57.4670  -50.1730   58.1170 F   0  0  0  0  0  0  0  0  0  0  0  0
   56.2090  -48.0540   53.8690 O   0  0  0  0  0  0  0  0  0  0  0  0
   57.7710  -45.3490   59.2260 O   0  0  0  0  0  0  0  0  0  0  0  0
   57.1060  -41.7040   57.2980 O   0  0  0  0  0  0  0  0  0  0  0  0
   57.6660  -42.7060   59.1520 O   0  0  0  0  0  0  0  0  0  0  0  0
   56.5930  -50.4300   55.2140 N   0  0  0  0  0  0  0  0  0  0  0  0
   54.9520  -53.1070   54.5710 N   0  0  0  0  0  0  0  0  0  0  0  0
   56.7560  -45.3140   55.2070 N   0  0  0  0  0  0  0  0  0  0  0  0
   57.3640  -52.4430   54.1760 C   0  0  2  0  0  0  0  0  0  0  0  0
   56.2470  -52.8010   55.1690 C   0  0  1  0  0  0  0  0  0  0  0  0
   57.7280  -50.9920   54.4780 C   0  0  0  0  0  0  0  0  0  0  0  0
   56.0870  -51.5550   56.0220 C   0  0  0  0  0  0  0  0  0  0  0  0
   57.0850  -52.5790   52.6660 C   0  0  0  0  0  0  0  0  0  0  0  0
   56.4520  -45.1240   53.7700 C   0  0  0  0  0  0  0  0  0  0  0  0
   55.6590  -52.9180   52.2070 C   0  0  0  0  0  0  0  0  0  0  0  0
   57.6960  -45.4240   52.9180 C   0  0  0  0  0  0  0  0  0  0  0  0
   57.2330  -43.9890   53.1100 C   0  0  0  0  0  0  0  0  0  0  0  0
   54.5730  -52.6330   53.2450 C   0  0  0  0  0  0  0  0  0  0  0  0
   56.8850  -49.2100   55.9040 C   0  0  0  0  0  0  0  0  0  0  0  0
   56.8640  -46.6070   55.8360 C   0  0  0  0  0  0  0  0  0  0  0  0
   56.6610  -47.9400   55.1560 C   0  0  0  0  0  0  0  0  0  0  0  0
   57.2520  -46.6500   57.2800 C   0  0  0  0  0  0  0  0  0  0  0  0
   57.2250  -49.0970   57.3570 C   0  0  0  0  0  0  0  0  0  0  0  0
   56.8680  -44.1760   55.9280 C   0  0  0  0  0  0  0  0  0  0  0  0
   57.3400  -47.8570   57.9680 C   0  0  0  0  0  0  0  0  0  0  0  0
   57.2730  -44.0970   57.2590 C   0  0  0  0  0  0  0  0  0  0  0  0
   57.4610  -45.3660   58.0120 C   0  0  0  0  0  0  0  0  0  0  0  0
   57.3700  -42.7520   57.9380 C   0  0  0  0  0  0  0  0  0  0  0  0
   54.7790  -48.1300   53.7280 C   0  0  0  0  0  0  0  0  0  0  0  0
   57.1698  -40.8224   57.7439 H   0  0  0  0  0  0  0  0  0  0  0  0
   54.8873  -54.1344   54.5375 H   0  0  0  0  0  0  0  0  0  0  0  0
   58.1566  -53.1886   54.3365 H   0  0  0  0  0  0  0  0  0  0  0  0
   56.5360  -53.7168   55.7055 H   0  0  0  0  0  0  0  0  0  0  0  0
   57.8882  -50.4365   53.5422 H   0  0  0  0  0  0  0  0  0  0  0  0
   58.6572  -50.9255   55.0629 H   0  0  0  0  0  0  0  0  0  0  0  0
   56.6714  -51.6508   56.9490 H   0  0  0  0  0  0  0  0  0  0  0  0
   55.0363  -51.3997   56.3083 H   0  0  0  0  0  0  0  0  0  0  0  0
   57.3562  -51.6207   52.1990 H   0  0  0  0  0  0  0  0  0  0  0  0
   57.6784  -53.4541   52.3625 H   0  0  0  0  0  0  0  0  0  0  0  0
   55.3914  -45.4156   53.7811 H   0  0  0  0  0  0  0  0  0  0  0  0
   55.4379  -52.3252   51.3071 H   0  0  0  0  0  0  0  0  0  0  0  0
   55.6393  -54.0025   52.0240 H   0  0  0  0  0  0  0  0  0  0  0  0
   58.6216  -45.7725   53.3995 H   0  0  0  0  0  0  0  0  0  0  0  0
   57.9078  -46.0635   52.0484 H   0  0  0  0  0  0  0  0  0  0  0  0
   56.7917  -43.4377   52.2666 H   0  0  0  0  0  0  0  0  0  0  0  0
   57.7072  -43.0639   53.4696 H   0  0  0  0  0  0  0  0  0  0  0  0
   53.6457  -53.1388   52.9379 H   0  0  0  0  0  0  0  0  0  0  0  0
   54.4304  -51.5437   53.2997 H   0  0  0  0  0  0  0  0  0  0  0  0
   56.6182  -43.2323   55.4210 H   0  0  0  0  0  0  0  0  0  0  0  0
   57.5098  -47.8257   59.0544 H   0  0  0  0  0  0  0  0  0  0  0  0
   54.3131  -48.1548   54.7242 H   0  0  0  0  0  0  0  0  0  0  0  0
   54.4177  -47.2498   53.1760 H   0  0  0  0  0  0  0  0  0  0  0  0
   54.5130  -49.0435   53.1760 H   0  0  0  0  0  0  0  0  0  0  0  0
  7 10  1  0
  9 10  1  0
  6 11  1  0
  9 11  1  0
  6 12  1  0
 10 12  1  0
  9 13  1  0
  8 14  1  0
 13 15  1  0
 14 16  1  0
 14 17  1  0
 16 17  1  0
  7 18  1  0
 15 18  1  0
  6 19  1  0
  8 20  1  0
  2 21  1  0
 19 21  2  0
 20 21  1  0
 20 22  2  0
  1 23  1  0
 19 23  1  0
  8 24  1  0
 22 25  1  0
 23 25  2  0
 24 26  2  0
 22 27  1  0
 26 27  1  0
 27  3  2  0
  4 28  1  0
 26 28  1  0
 28  5  2  0
  2 29  1  0
  4 30  1  0
  7 31  1  0
  9 32  1  1
 10 33  1  1
 11 34  1  0
 11 35  1  0
 12 36  1  0
 12 37  1  0
 13 38  1  0
 13 39  1  0
 14 40  1  0
 15 41  1  0
 15 42  1  0
 16 43  1  0
 16 44  1  0
 17 45  1  0
 17 46  1  0
 18 47  1  0
 18 48  1  0
 24 49  1  0
 25 50  1  0
 29 51  1  0
 29 52  1  0
 29 53  1  0
M  END
$$$$
