PDB_DB00396_97
     RDKit          3D

118124  0  0  0  0  0  0  0  0999 V2000
   17.7710   50.4110   18.4610 C   0  0  0  0  0  0  0  0  0  0  0  0
   16.7670   50.3710   19.6330 C   0  0  0  0  0  0  0  0  0  0  0  0
   15.7480   49.2340   19.4790 C   0  0  0  0  0  0  0  0  0  0  0  0
   14.6660   49.3270   20.0980 O   0  0  0  0  0  0  0  0  0  0  0  0
   16.0370   48.0410   18.6530 C   0  0  0  0  0  0  0  0  0  0  0  0
   17.1710   47.9040   17.9790 C   0  0  0  0  0  0  0  0  0  0  0  0
   17.4450   46.5820   17.1880 C   0  0  0  0  0  0  0  0  0  0  0  0
   18.1080   46.8420   15.8210 C   0  0  0  0  0  0  0  0  0  0  0  0
   19.3080   47.8510   15.8320 C   0  0  2  0  0  0  0  0  0  0  0  0
   18.8150   49.2160   16.4800 C   0  0  1  0  0  0  0  0  0  0  0  0
   18.3020   49.0200   17.9640 C   0  0  1  0  0  0  0  0  0  0  0  0
   19.9610   50.2980   16.4580 C   0  0  0  0  0  0  0  0  0  0  0  0
   20.4870   50.4920   14.9950 C   0  0  0  0  0  0  0  0  0  0  0  0
   21.0190   49.1460   14.3510 C   0  0  1  0  0  0  0  0  0  0  0  0
   19.8150   48.1150   14.3800 C   0  0  1  0  0  0  0  0  0  0  0  0
   20.3480   46.9160   13.5280 C   0  0  0  0  0  0  0  0  0  0  0  0
   21.1410   47.6490   12.3860 C   0  0  0  0  0  0  0  0  0  0  0  0
   21.2710   49.1690   12.8100 C   0  0  2  0  0  0  0  0  0  0  0  0
   22.2900   48.6010   15.1180 C   0  0  0  0  0  0  0  0  0  0  0  0
   19.4360   48.5130   18.9590 C   0  0  0  0  0  0  0  0  0  0  0  0
   22.6560   49.7840   12.4190 C   0  0  0  0  0  0  0  0  0  0  0  0
   23.5110   49.0550   11.9600 O   0  0  0  0  0  0  0  0  0  0  0  0
   22.9440   51.2610   12.6030 C   0  0  0  0  0  0  0  0  0  0  0  0
    3.0180   -7.7180   14.6380 C   0  0  0  0  0  0  0  0  0  0  0  0
    4.0450   -7.7880   15.7920 C   0  0  0  0  0  0  0  0  0  0  0  0
    5.0270   -6.6360   15.7510 C   0  0  0  0  0  0  0  0  0  0  0  0
    6.0850   -6.7900   16.3320 O   0  0  0  0  0  0  0  0  0  0  0  0
    4.7360   -5.3710   15.0670 C   0  0  0  0  0  0  0  0  0  0  0  0
    3.5900   -5.1770   14.4050 C   0  0  0  0  0  0  0  0  0  0  0  0
    3.3140   -3.7990   13.7320 C   0  0  0  0  0  0  0  0  0  0  0  0
    2.6620   -3.8950   12.3300 C   0  0  0  0  0  0  0  0  0  0  0  0
    1.4460   -4.8860   12.2530 C   0  0  2  0  0  0  0  0  0  0  0  0
    1.9460   -6.3190   12.7430 C   0  0  1  0  0  0  0  0  0  0  0  0
    2.4670   -6.2860   14.2670 C   0  0  1  0  0  0  0  0  0  0  0  0
    0.8000   -7.3830   12.6100 C   0  0  0  0  0  0  0  0  0  0  0  0
    0.2480   -7.4190   11.1330 C   0  0  0  0  0  0  0  0  0  0  0  0
   -0.3240   -5.9980   10.6680 C   0  0  1  0  0  0  0  0  0  0  0  0
    0.9050   -4.9700   10.7960 C   0  0  1  0  0  0  0  0  0  0  0  0
    0.3560   -3.6410   10.1190 C   0  0  0  0  0  0  0  0  0  0  0  0
   -0.5300   -4.1920    8.9420 C   0  0  0  0  0  0  0  0  0  0  0  0
   -0.5970   -5.7720    9.1290 C   0  0  2  0  0  0  0  0  0  0  0  0
   -1.6120   -5.6330   11.5540 C   0  0  0  0  0  0  0  0  0  0  0  0
    1.2970   -5.8950   15.2970 C   0  0  0  0  0  0  0  0  0  0  0  0
   -1.9560   -6.3740    8.6770 C   0  0  0  0  0  0  0  0  0  0  0  0
   -2.8620   -5.6360    8.3490 O   0  0  0  0  0  0  0  0  0  0  0  0
   -2.1650   -7.8690    8.6800 C   0  0  0  0  0  0  0  0  0  0  0  0
   17.2777   50.9063   17.6117 H   0  0  0  0  0  0  0  0  0  0  0  0
   18.6527   50.9464   18.8431 H   0  0  0  0  0  0  0  0  0  0  0  0
   17.3222   50.2255   20.5714 H   0  0  0  0  0  0  0  0  0  0  0  0
   16.2154   51.3227   19.6403 H   0  0  0  0  0  0  0  0  0  0  0  0
   16.1959   48.7160   20.3398 H   0  0  0  0  0  0  0  0  0  0  0  0
   14.8409   49.3120   21.0723 H   0  0  0  0  0  0  0  0  0  0  0  0
   15.9770   47.1769   19.3310 H   0  0  0  0  0  0  0  0  0  0  0  0
   15.3006   48.1414   17.8421 H   0  0  0  0  0  0  0  0  0  0  0  0
   17.6481   47.4698   18.8700 H   0  0  0  0  0  0  0  0  0  0  0  0
   18.1102   45.9431   17.7874 H   0  0  0  0  0  0  0  0  0  0  0  0
   16.4763   46.0945   17.0037 H   0  0  0  0  0  0  0  0  0  0  0  0
   18.4777   45.8803   15.4356 H   0  0  0  0  0  0  0  0  0  0  0  0
   17.3320   47.3036   15.1927 H   0  0  0  0  0  0  0  0  0  0  0  0
   20.1371   47.4264   16.4171 H   0  0  0  0  0  0  0  0  0  0  0  0
   17.9705   49.5669   15.8687 H   0  0  0  0  0  0  0  0  0  0  0  0
   19.5666   51.2539   16.8330 H   0  0  0  0  0  0  0  0  0  0  0  0
   20.7895   49.9595   17.0976 H   0  0  0  0  0  0  0  0  0  0  0  0
   19.6650   50.8779   14.3742 H   0  0  0  0  0  0  0  0  0  0  0  0
   21.3314   51.1957   15.0370 H   0  0  0  0  0  0  0  0  0  0  0  0
   18.8718   48.4620   13.9328 H   0  0  0  0  0  0  0  0  0  0  0  0
   21.0101   46.2681   14.1212 H   0  0  0  0  0  0  0  0  0  0  0  0
   19.5550   46.2494   13.1581 H   0  0  0  0  0  0  0  0  0  0  0  0
   22.1398   47.2020   12.2736 H   0  0  0  0  0  0  0  0  0  0  0  0
   20.6171   47.5548   11.4234 H   0  0  0  0  0  0  0  0  0  0  0  0
   20.5545   49.8187   12.2860 H   0  0  0  0  0  0  0  0  0  0  0  0
   22.1224   48.6729   16.2028 H   0  0  0  0  0  0  0  0  0  0  0  0
   22.4619   47.5501   14.8424 H   0  0  0  0  0  0  0  0  0  0  0  0
   23.1698   49.2010   14.8424 H   0  0  0  0  0  0  0  0  0  0  0  0
   19.1054   48.6608   19.9977 H   0  0  0  0  0  0  0  0  0  0  0  0
   19.6266   47.4440   18.7835 H   0  0  0  0  0  0  0  0  0  0  0  0
   20.3598   49.0838   18.7835 H   0  0  0  0  0  0  0  0  0  0  0  0
   23.0309   49.5848   13.4338 H   0  0  0  0  0  0  0  0  0  0  0  0
   24.0121   48.6278   12.6993 H   0  0  0  0  0  0  0  0  0  0  0  0
   22.9896   51.4947   13.6769 H   0  0  0  0  0  0  0  0  0  0  0  0
   23.9072   51.5081   12.1328 H   0  0  0  0  0  0  0  0  0  0  0  0
   22.1442   51.8519   12.1328 H   0  0  0  0  0  0  0  0  0  0  0  0
    3.4970   -8.1342   13.7395 H   0  0  0  0  0  0  0  0  0  0  0  0
    2.1431   -8.2816   14.9942 H   0  0  0  0  0  0  0  0  0  0  0  0
    3.5048   -7.7597   16.7498 H   0  0  0  0  0  0  0  0  0  0  0  0
    4.6145   -8.7227   15.6825 H   0  0  0  0  0  0  0  0  0  0  0  0
    4.5826   -6.2245   16.6693 H   0  0  0  0  0  0  0  0  0  0  0  0
    5.9309   -6.7676   17.3097 H   0  0  0  0  0  0  0  0  0  0  0  0
    4.7862   -4.5853   15.8352 H   0  0  0  0  0  0  0  0  0  0  0  0
    5.4786   -5.3675   14.2555 H   0  0  0  0  0  0  0  0  0  0  0  0
    3.1156   -4.8198   15.3309 H   0  0  0  0  0  0  0  0  0  0  0  0
    2.6419   -3.2243   14.3862 H   0  0  0  0  0  0  0  0  0  0  0  0
    4.2916   -3.3142   13.5929 H   0  0  0  0  0  0  0  0  0  0  0  0
    2.3093   -2.8931   12.0440 H   0  0  0  0  0  0  0  0  0  0  0  0
    3.4323   -4.2857   11.6488 H   0  0  0  0  0  0  0  0  0  0  0  0
    0.6266   -4.5301   12.8949 H   0  0  0  0  0  0  0  0  0  0  0  0
    2.7888   -6.6010   12.0947 H   0  0  0  0  0  0  0  0  0  0  0  0
    1.1951   -8.3753   12.8730 H   0  0  0  0  0  0  0  0  0  0  0  0
   -0.0203   -7.1090   13.2897 H   0  0  0  0  0  0  0  0  0  0  0  0
    1.0646   -7.7111   10.4564 H   0  0  0  0  0  0  0  0  0  0  0  0
   -0.5784   -8.1441   11.0983 H   0  0  0  0  0  0  0  0  0  0  0  0
    1.8259   -5.2727   10.2760 H   0  0  0  0  0  0  0  0  0  0  0  0
   -0.2468   -3.0546   10.8281 H   0  0  0  0  0  0  0  0  0  0  0  0
    1.1530   -2.9610    9.7836 H   0  0  0  0  0  0  0  0  0  0  0  0
   -1.5404   -3.7601    8.9924 H   0  0  0  0  0  0  0  0  0  0  0  0
   -0.1037   -3.9246    7.9639 H   0  0  0  0  0  0  0  0  0  0  0  0
    0.1403   -6.2878    8.4964 H   0  0  0  0  0  0  0  0  0  0  0  0
   -1.3555   -5.7057   12.6212 H   0  0  0  0  0  0  0  0  0  0  0  0
   -1.9366   -4.6075   11.3239 H   0  0  0  0  0  0  0  0  0  0  0  0
   -2.4264   -6.3357   11.3239 H   0  0  0  0  0  0  0  0  0  0  0  0
    1.6605   -6.0165   16.3281 H   0  0  0  0  0  0  0  0  0  0  0  0
    0.9995   -4.8486   15.1340 H   0  0  0  0  0  0  0  0  0  0  0  0
    0.4302   -6.5523   15.1340 H   0  0  0  0  0  0  0  0  0  0  0  0
   -2.3128   -6.3497    9.7173 H   0  0  0  0  0  0  0  0  0  0  0  0
   -3.3039   -5.2760    9.1585 H   0  0  0  0  0  0  0  0  0  0  0  0
   -2.2155   -8.2301    9.7178 H   0  0  0  0  0  0  0  0  0  0  0  0
   -3.1054   -8.1088    8.1622 H   0  0  0  0  0  0  0  0  0  0  0  0
   -1.3264   -8.3575    8.1622 H   0  0  0  0  0  0  0  0  0  0  0  0
  1  2  1  0
  2  3  1  0
  3  4  1  0
  3  5  1  0
  5  6  1  0
  6  7  1  0
  7  8  1  0
  8  9  1  0
  9 10  1  0
  1 11  1  0
  6 11  1  0
 10 11  1  0
 10 12  1  0
 12 13  1  0
 13 14  1  0
  9 15  1  0
 14 15  1  0
 15 16  1  0
 16 17  1  0
 14 18  1  0
 17 18  1  0
 14 19  1  1
 11 20  1  1
 18 21  1  0
 21 22  1  0
 21 23  1  0
 24 25  1  0
 25 26  1  0
 26 27  1  0
 26 28  1  0
 28 29  1  0
 29 30  1  0
 30 31  1  0
 31 32  1  0
 32 33  1  0
 24 34  1  0
 29 34  1  0
 33 34  1  0
 33 35  1  0
 35 36  1  0
 36 37  1  0
 32 38  1  0
 37 38  1  0
 38 39  1  0
 39 40  1  0
 37 41  1  0
 40 41  1  0
 37 42  1  1
 34 43  1  1
 41 44  1  0
 44 45  1  0
 44 46  1  0
  1 47  1  0
  1 48  1  0
  2 49  1  0
  2 50  1  0
  3 51  1  0
  4 52  1  0
  5 53  1  0
  5 54  1  0
  6 55  1  0
  7 56  1  0
  7 57  1  0
  8 58  1  0
  8 59  1  0
  9 60  1  1
 10 61  1  6
 12 62  1  0
 12 63  1  0
 13 64  1  0
 13 65  1  0
 15 66  1  6
 16 67  1  0
 16 68  1  0
 17 69  1  0
 17 70  1  0
 18 71  1  6
 19 72  1  0
 19 73  1  0
 19 74  1  0
 20 75  1  0
 20 76  1  0
 20 77  1  0
 21 78  1  0
 22 79  1  0
 23 80  1  0
 23 81  1  0
 23 82  1  0
 24 83  1  0
 24 84  1  0
 25 85  1  0
 25 86  1  0
 26 87  1  0
 27 88  1  0
 28 89  1  0
 28 90  1  0
 29 91  1  0
 30 92  1  0
 30 93  1  0
 31 94  1  0
 31 95  1  0
 32 96  1  1
 33 97  1  6
 35 98  1  0
 35 99  1  0
 36100  1  0
 36101  1  0
 38102  1  6
 39103  1  0
 39104  1  0
 40105  1  0
 40106  1  0
 41107  1  6
 42108  1  0
 42109  1  0
 42110  1  0
 43111  1  0
 43112  1  0
 43113  1  0
 44114  1  0
 45115  1  0
 46116  1  0
 46117  1  0
 46118  1  0
M  END
>  <PDBID>  (1) 
2AA5

>  <PDB ID>  (1) 
2AA5

>  <Generic Name>  (1) 
Progesterone

>  <Brand Name>  (1) 
Act Progesterone Injection#Crinone#Endometrin#Estrogel Propak#Gesterol In Oil-liq Im 50mg/ml#PMS-progesterone Inj 50mg/ml USP#Prochieve#Progesterone#Progesterone Inj 50mg/ml USP#Progesterone Injection USP#Prometrium#Teva-progesterone#Agolutin#Cyclogest#Gesterol#Gestone#Progestasert#Progestogel#Qi Ning#Relantan#Susten#Utrogestan#Utrogestran#Utrovin#Vasclor

>  <DrugBank ID>  (1) 
DB00396

>  <ATC Codes>  (1) 
G03DA04#G03FA04

>  <Ligand ID>  (1) 
STR

>  <Target Name>  (1) 
Mineralocorticoid receptor

>  <UniProt ID>  (1) 
P08235

>  <PDB ID.1>  (1) 
2AA5

>  <Seq. Identity>  (1) 
100%

$$$$
