PDB_DB00619_98
     RDKit          3D

 68 72  0  0  0  0  0  0  0  0999 V2000
   29.2840   13.4000   73.1940 C   0  0  0  0  0  0  0  0  0  0  0  0
   30.4790   14.0240   73.4580 C   0  0  0  0  0  0  0  0  0  0  0  0
   31.6820   13.4250   73.1330 C   0  0  0  0  0  0  0  0  0  0  0  0
   31.6000   12.1850   72.5520 C   0  0  0  0  0  0  0  0  0  0  0  0
   30.4680   11.5460   72.2750 N   0  0  0  0  0  0  0  0  0  0  0  0
   29.3450   12.1750   72.6070 C   0  0  0  0  0  0  0  0  0  0  0  0
   32.9720   14.0310   73.3980 C   0  0  0  0  0  0  0  0  0  0  0  0
   33.1530   15.2300   74.0120 C   0  0  0  0  0  0  0  0  0  0  0  0
   34.4420   15.6280   74.1760 C   0  0  0  0  0  0  0  0  0  0  0  0
   35.4900   14.9230   73.7940 N   0  0  0  0  0  0  0  0  0  0  0  0
   35.2330   13.7630   73.2110 C   0  0  0  0  0  0  0  0  0  0  0  0
   34.0070   13.2980   73.0030 N   0  0  0  0  0  0  0  0  0  0  0  0
   36.2580   12.9480   72.7770 N   0  0  0  0  0  0  0  0  0  0  0  0
   37.6320   13.1740   72.8270 C   0  0  0  0  0  0  0  0  0  0  0  0
   38.2230   13.6620   71.6510 C   0  0  0  0  0  0  0  0  0  0  0  0
   39.5820   13.9350   71.6140 C   0  0  0  0  0  0  0  0  0  0  0  0
   40.3500   13.7330   72.7320 C   0  0  0  0  0  0  0  0  0  0  0  0
   39.7850   13.2480   73.8990 C   0  0  0  0  0  0  0  0  0  0  0  0
   38.4300   12.9720   73.9590 C   0  0  0  0  0  0  0  0  0  0  0  0
   40.6560   13.0950   74.9660 N   0  0  0  0  0  0  0  0  0  0  0  0
   40.4450   12.3070   76.0320 C   0  0  0  0  0  0  0  0  0  0  0  0
   41.6070   12.1950   76.9310 C   0  0  0  0  0  0  0  0  0  0  0  0
   42.7790   12.8770   76.6630 C   0  0  0  0  0  0  0  0  0  0  0  0
   43.8620   12.7660   77.5010 C   0  0  0  0  0  0  0  0  0  0  0  0
   43.7920   11.9750   78.6280 C   0  0  0  0  0  0  0  0  0  0  0  0
   42.6230   11.2850   78.9030 C   0  0  0  0  0  0  0  0  0  0  0  0
   41.5320   11.3960   78.0580 C   0  0  0  0  0  0  0  0  0  0  0  0
   44.9760   11.8890   79.5310 C   0  0  0  0  0  0  0  0  0  0  0  0
   45.5040   13.1920   79.9260 N   0  0  0  0  0  0  0  0  0  0  0  0
   46.7910   13.0480   80.5960 C   0  0  0  0  0  0  0  0  0  0  0  0
   47.3320   14.3980   81.0410 C   0  0  0  0  0  0  0  0  0  0  0  0
   46.3350   15.1550   81.7740 N   0  0  0  0  0  0  0  0  0  0  0  0
   46.8190   16.4580   82.1630 C   0  0  0  0  0  0  0  0  0  0  0  0
   45.0660   15.2620   81.0790 C   0  0  0  0  0  0  0  0  0  0  0  0
   44.5410   13.8720   80.7660 C   0  0  0  0  0  0  0  0  0  0  0  0
   39.4300   11.7190   76.2540 O   0  0  0  0  0  0  0  0  0  0  0  0
   37.4040   13.8980   70.4240 C   0  0  0  0  0  0  0  0  0  0  0  0
   28.3218   13.8698   73.4459 H   0  0  0  0  0  0  0  0  0  0  0  0
   30.4788   15.0151   73.9351 H   0  0  0  0  0  0  0  0  0  0  0  0
   32.5435   11.6809   72.2957 H   0  0  0  0  0  0  0  0  0  0  0  0
   28.3939   11.6665   72.3907 H   0  0  0  0  0  0  0  0  0  0  0  0
   32.3062   15.8421   74.3559 H   0  0  0  0  0  0  0  0  0  0  0  0
   34.6233   16.6000   74.6580 H   0  0  0  0  0  0  0  0  0  0  0  0
   35.9686   12.0518   72.3599 H   0  0  0  0  0  0  0  0  0  0  0  0
   40.0432   14.3129   70.6896 H   0  0  0  0  0  0  0  0  0  0  0  0
   41.4262   13.9587   72.7012 H   0  0  0  0  0  0  0  0  0  0  0  0
   37.9828   12.5960   74.8910 H   0  0  0  0  0  0  0  0  0  0  0  0
   41.5363   13.6290   74.9389 H   0  0  0  0  0  0  0  0  0  0  0  0
   42.8453   13.5152   75.7695 H   0  0  0  0  0  0  0  0  0  0  0  0
   44.7896   13.3110   77.2716 H   0  0  0  0  0  0  0  0  0  0  0  0
   42.5612   10.6462   79.7964 H   0  0  0  0  0  0  0  0  0  0  0  0
   40.6048   10.8485   78.2828 H   0  0  0  0  0  0  0  0  0  0  0  0
   44.6820   11.3427   80.4394 H   0  0  0  0  0  0  0  0  0  0  0  0
   45.7715   11.3736   78.9728 H   0  0  0  0  0  0  0  0  0  0  0  0
   46.6664   12.4027   81.4781 H   0  0  0  0  0  0  0  0  0  0  0  0
   47.5050   12.6022   79.8879 H   0  0  0  0  0  0  0  0  0  0  0  0
   48.2061   14.2368   81.6891 H   0  0  0  0  0  0  0  0  0  0  0  0
   47.6098   14.9711   80.1441 H   0  0  0  0  0  0  0  0  0  0  0  0
   46.8446   16.5270   83.2605 H   0  0  0  0  0  0  0  0  0  0  0  0
   47.8326   16.6073   81.7625 H   0  0  0  0  0  0  0  0  0  0  0  0
   46.1487   17.2327   81.7625 H   0  0  0  0  0  0  0  0  0  0  0  0
   44.3427   15.7922   81.7160 H   0  0  0  0  0  0  0  0  0  0  0  0
   45.2075   15.8200   80.1416 H   0  0  0  0  0  0  0  0  0  0  0  0
   43.5788   13.9495   80.2385 H   0  0  0  0  0  0  0  0  0  0  0  0
   44.3921   13.3081   81.6987 H   0  0  0  0  0  0  0  0  0  0  0  0
   36.3845   14.1918   70.7145 H   0  0  0  0  0  0  0  0  0  0  0  0
   37.8609   14.7010   69.8270 H   0  0  0  0  0  0  0  0  0  0  0  0
   37.3635   12.9750   69.8270 H   0  0  0  0  0  0  0  0  0  0  0  0
  1  2  2  0
  2  3  1  0
  3  4  2  0
  4  5  1  0
  1  6  1  0
  5  6  2  0
  3  7  1  0
  7  8  2  0
  8  9  1  0
  9 10  2  0
 10 11  1  0
  7 12  1  0
 11 12  2  0
 11 13  1  0
 13 14  1  0
 14 15  2  0
 15 16  1  0
 16 17  2  0
 17 18  1  0
 14 19  1  0
 18 19  2  0
 18 20  1  0
 20 21  1  0
 21 22  1  0
 22 23  2  0
 23 24  1  0
 24 25  2  0
 25 26  1  0
 22 27  1  0
 26 27  2  0
 25 28  1  0
 28 29  1  0
 29 30  1  0
 30 31  1  0
 31 32  1  0
 32 33  1  0
 32 34  1  0
 29 35  1  0
 34 35  1  0
 21 36  2  0
 15 37  1  0
  1 38  1  0
  2 39  1  0
  4 40  1  0
  6 41  1  0
  8 42  1  0
  9 43  1  0
 13 44  1  0
 16 45  1  0
 17 46  1  0
 19 47  1  0
 20 48  1  0
 23 49  1  0
 24 50  1  0
 26 51  1  0
 27 52  1  0
 28 53  1  0
 28 54  1  0
 30 55  1  0
 30 56  1  0
 31 57  1  0
 31 58  1  0
 33 59  1  0
 33 60  1  0
 33 61  1  0
 34 62  1  0
 34 63  1  0
 35 64  1  0
 35 65  1  0
 37 66  1  0
 37 67  1  0
 37 68  1  0
M  END
>  <PDBID>  (1) 
4R7I

>  <PDB ID>  (1) 
4R7I

>  <Generic Name>  (1) 
Imatinib

>  <Brand Name>  (1) 
Apo-imatinib#Gleevec#Imatinib Mesylate#Mylan-imatinib#Nat-imatinib#PMS-imatinib#Ran-imatinib#Teva-imatinib#Celonib#Enliven#Glivec#Imatib#Mesylonib#Mitinab#Plivatinib#Shantinib

>  <DrugBank ID>  (1) 
DB00619

>  <ATC Codes>  (1) 
L01XE01

>  <Ligand ID>  (1) 
STI

>  <Target Name>  (1) 
Mast/stem cell growth factor receptor Kit

>  <UniProt ID>  (1) 
P10721

>  <PDB ID.1>  (1) 
4R7I

>  <Seq. Identity>  (1) 
59%

$$$$
