PDB_DB00619_94
     RDKit          3D

 68 72  0  0  0  0  0  0  0  0999 V2000
   22.8270   11.7250   13.7800 C   0  0  0  0  0  0  0  0  0  0  0  0
   22.0360   12.1770   14.8390 C   0  0  0  0  0  0  0  0  0  0  0  0
   20.6680   11.8090   14.9590 C   0  0  0  0  0  0  0  0  0  0  0  0
   20.1400   11.0010   13.9470 C   0  0  0  0  0  0  0  0  0  0  0  0
   20.8920   10.5700   12.9040 N   0  0  0  0  0  0  0  0  0  0  0  0
   22.1760   10.9310   12.8420 C   0  0  0  0  0  0  0  0  0  0  0  0
   19.7780   12.2610   16.1190 C   0  0  0  0  0  0  0  0  0  0  0  0
   20.2660   12.8280   17.2280 C   0  0  0  0  0  0  0  0  0  0  0  0
   19.3470   13.1770   18.2350 C   0  0  0  0  0  0  0  0  0  0  0  0
   18.0470   12.9440   18.0700 N   0  0  0  0  0  0  0  0  0  0  0  0
   17.5930   12.3830   16.9620 C   0  0  0  0  0  0  0  0  0  0  0  0
   18.4330   12.0210   15.9770 N   0  0  0  0  0  0  0  0  0  0  0  0
   16.2540   12.1250   16.6950 N   0  0  0  0  0  0  0  0  0  0  0  0
   15.3460   12.2710   17.7100 C   0  0  0  0  0  0  0  0  0  0  0  0
   15.2340   11.3050   18.7320 C   0  0  0  0  0  0  0  0  0  0  0  0
   14.2850   11.5390   19.7140 C   0  0  0  0  0  0  0  0  0  0  0  0
   13.4510   12.6990   19.6990 C   0  0  0  0  0  0  0  0  0  0  0  0
   13.5600   13.6330   18.6980 C   0  0  0  0  0  0  0  0  0  0  0  0
   14.5060   13.4010   17.6880 C   0  0  0  0  0  0  0  0  0  0  0  0
   12.6590   14.7350   18.8140 N   0  0  0  0  0  0  0  0  0  0  0  0
   12.5890   15.6820   17.8510 C   0  0  0  0  0  0  0  0  0  0  0  0
   11.4550   16.6420   17.9000 C   0  0  0  0  0  0  0  0  0  0  0  0
   11.0790   17.3300   16.7130 C   0  0  0  0  0  0  0  0  0  0  0  0
   10.0060   18.2850   16.6780 C   0  0  0  0  0  0  0  0  0  0  0  0
    9.2980   18.5360   17.8690 C   0  0  0  0  0  0  0  0  0  0  0  0
    9.6620   17.8540   19.0650 C   0  0  0  0  0  0  0  0  0  0  0  0
   10.7360   16.9080   19.1120 C   0  0  0  0  0  0  0  0  0  0  0  0
    8.1960   19.5290   17.8320 C   0  0  0  0  0  0  0  0  0  0  0  0
    8.1910   20.4060   18.9880 N   0  0  0  0  0  0  0  0  0  0  0  0
    9.4550   21.1520   19.1060 C   0  0  0  0  0  0  0  0  0  0  0  0
    9.4480   22.0490   20.4020 C   0  0  0  0  0  0  0  0  0  0  0  0
    8.1500   22.8120   20.4470 N   0  0  0  0  0  0  0  0  0  0  0  0
    8.1830   23.6190   21.6400 C   0  0  0  0  0  0  0  0  0  0  0  0
    6.9280   22.0290   20.3800 C   0  0  0  0  0  0  0  0  0  0  0  0
    6.9520   21.2300   19.0530 C   0  0  0  0  0  0  0  0  0  0  0  0
   13.3990   15.8030   16.9310 O   0  0  0  0  0  0  0  0  0  0  0  0
   16.0750   10.0530   18.8150 C   0  0  0  0  0  0  0  0  0  0  0  0
   23.8935   11.9801   13.6938 H   0  0  0  0  0  0  0  0  0  0  0  0
   22.4829   12.8343   15.5994 H   0  0  0  0  0  0  0  0  0  0  0  0
   19.0816   10.7058   13.9986 H   0  0  0  0  0  0  0  0  0  0  0  0
   22.7636   10.5732   11.9837 H   0  0  0  0  0  0  0  0  0  0  0  0
   21.3435   13.0142   17.3481 H   0  0  0  0  0  0  0  0  0  0  0  0
   19.7051   13.6450   19.1638 H   0  0  0  0  0  0  0  0  0  0  0  0
   15.9513   11.8308   15.7555 H   0  0  0  0  0  0  0  0  0  0  0  0
   14.1702   10.8099   20.5296 H   0  0  0  0  0  0  0  0  0  0  0  0
   12.7116   12.8460   20.5000 H   0  0  0  0  0  0  0  0  0  0  0  0
   14.5935   14.1190   16.8592 H   0  0  0  0  0  0  0  0  0  0  0  0
   12.0533   14.8097   19.6437 H   0  0  0  0  0  0  0  0  0  0  0  0
   11.6318   17.1226   15.7849 H   0  0  0  0  0  0  0  0  0  0  0  0
    9.7445   18.8063   15.7453 H   0  0  0  0  0  0  0  0  0  0  0  0
    9.0977   18.0614   19.9861 H   0  0  0  0  0  0  0  0  0  0  0  0
   11.0019   16.4000   20.0507 H   0  0  0  0  0  0  0  0  0  0  0  0
    8.3060   20.1426   16.9257 H   0  0  0  0  0  0  0  0  0  0  0  0
    7.2476   18.9718   17.8346 H   0  0  0  0  0  0  0  0  0  0  0  0
   10.2915   20.4400   19.1631 H   0  0  0  0  0  0  0  0  0  0  0  0
    9.5686   21.8008   18.2250 H   0  0  0  0  0  0  0  0  0  0  0  0
    9.5354   21.4122   21.2947 H   0  0  0  0  0  0  0  0  0  0  0  0
   10.2965   22.7488   20.3811 H   0  0  0  0  0  0  0  0  0  0  0  0
    8.1563   22.9663   22.5250 H   0  0  0  0  0  0  0  0  0  0  0  0
    9.1063   24.2167   21.6529 H   0  0  0  0  0  0  0  0  0  0  0  0
    7.3115   24.2901   21.6529 H   0  0  0  0  0  0  0  0  0  0  0  0
    6.8796   21.3365   21.2333 H   0  0  0  0  0  0  0  0  0  0  0  0
    6.0469   22.6865   20.4177 H   0  0  0  0  0  0  0  0  0  0  0  0
    6.9326   21.9294   18.2042 H   0  0  0  0  0  0  0  0  0  0  0  0
    6.0724   20.5711   19.0075 H   0  0  0  0  0  0  0  0  0  0  0  0
   16.2474    9.7964   19.8707 H   0  0  0  0  0  0  0  0  0  0  0  0
   15.5495    9.2246   18.3174 H   0  0  0  0  0  0  0  0  0  0  0  0
   17.0406   10.2262   18.3174 H   0  0  0  0  0  0  0  0  0  0  0  0
  1  2  2  0
  2  3  1  0
  3  4  2  0
  4  5  1  0
  1  6  1  0
  5  6  2  0
  3  7  1  0
  7  8  2  0
  8  9  1  0
  9 10  2  0
 10 11  1  0
  7 12  1  0
 11 12  2  0
 11 13  1  0
 13 14  1  0
 14 15  2  0
 15 16  1  0
 16 17  2  0
 17 18  1  0
 14 19  1  0
 18 19  2  0
 18 20  1  0
 20 21  1  0
 21 22  1  0
 22 23  2  0
 23 24  1  0
 24 25  2  0
 25 26  1  0
 22 27  1  0
 26 27  2  0
 25 28  1  0
 28 29  1  0
 29 30  1  0
 30 31  1  0
 31 32  1  0
 32 33  1  0
 32 34  1  0
 29 35  1  0
 34 35  1  0
 21 36  2  0
 15 37  1  0
  1 38  1  0
  2 39  1  0
  4 40  1  0
  6 41  1  0
  8 42  1  0
  9 43  1  0
 13 44  1  0
 16 45  1  0
 17 46  1  0
 19 47  1  0
 20 48  1  0
 23 49  1  0
 24 50  1  0
 26 51  1  0
 27 52  1  0
 28 53  1  0
 28 54  1  0
 30 55  1  0
 30 56  1  0
 31 57  1  0
 31 58  1  0
 33 59  1  0
 33 60  1  0
 33 61  1  0
 34 62  1  0
 34 63  1  0
 35 64  1  0
 35 65  1  0
 37 66  1  0
 37 67  1  0
 37 68  1  0
M  END
$$$$
