PDB_DB08881_99
     RDKit          3D

 51 54  0  0  0  0  0  0  0  0999 V2000
   79.7910   15.5370    6.0060 C   0  0  0  0  0  0  0  0  0  0  0  0
   77.0940    9.7920   11.9010 C   0  0  0  0  0  0  0  0  0  0  0  0
   79.4710    9.6350   11.8870 C   0  0  0  0  0  0  0  0  0  0  0  0
   79.6380    8.5450   14.1380 C   0  0  0  0  0  0  0  0  0  0  0  0
   79.5260    7.4570   14.9850 C   0  0  0  0  0  0  0  0  0  0  0  0
   79.1240    6.2270   14.4880 C   0  0  0  0  0  0  0  0  0  0  0  0
   78.9400    7.1830   12.2950 C   0  0  0  0  0  0  0  0  0  0  0  0
   78.0580   12.9160    8.7270 C   0  0  0  0  0  0  0  0  0  0  0  0
   76.6730   13.0150    8.7210 C   0  0  0  0  0  0  0  0  0  0  0  0
   75.9300   12.2380    9.5480 N   0  0  0  0  0  0  0  0  0  0  0  0
   78.6640   12.0340    9.5550 C   0  0  0  0  0  0  0  0  0  0  0  0
   76.0500   10.4480   11.3220 N   0  0  0  0  0  0  0  0  0  0  0  0
   78.2220   10.3020   11.3090 C   0  0  0  0  0  0  0  0  0  0  0  0
   77.9070   11.2510   10.3910 C   0  0  0  0  0  0  0  0  0  0  0  0
   76.5440   11.3450   10.3930 C   0  0  0  0  0  0  0  0  0  0  0  0
   78.6140   13.7940    7.8090 C   0  0  0  0  0  0  0  0  0  0  0  0
   79.3410    8.4120   12.7950 C   0  0  0  0  0  0  0  0  0  0  0  0
   78.8290    6.0910   13.1410 C   0  0  0  0  0  0  0  0  0  0  0  0
   78.5720    6.6390   11.1000 F   0  0  0  0  0  0  0  0  0  0  0  0
   80.0340    9.7550   14.6290 F   0  0  0  0  0  0  0  0  0  0  0  0
   79.8410    7.6330   16.3890 N   0  0  0  0  0  0  0  0  0  0  0  0
   79.8630    6.3170   17.4730 S   0  0  0  0  0  0  0  0  0  0  0  0
   80.4950    6.7100   18.7330 O   0  0  0  0  0  0  0  0  0  0  0  0
   80.7640    5.2590   17.0090 O   0  0  0  0  0  0  0  0  0  0  0  0
   78.1770    5.7000   17.7530 C   0  0  0  0  0  0  0  0  0  0  0  0
   77.3140    6.8240   18.3230 C   0  0  0  0  0  0  0  0  0  0  0  0
   76.0410    6.2240   18.9150 C   0  0  0  0  0  0  0  0  0  0  0  0
   79.8930   14.2760    8.0400 C   0  0  0  0  0  0  0  0  0  0  0  0
   80.4830   15.1490    7.1420 C   0  0  0  0  0  0  0  0  0  0  0  0
   78.5140   15.0520    5.7700 C   0  0  0  0  0  0  0  0  0  0  0  0
   77.9250   14.1790    6.6710 C   0  0  0  0  0  0  0  0  0  0  0  0
   80.5230   16.6600    4.8280 Cl  0  0  0  0  0  0  0  0  0  0  0  0
   80.5440   10.0720   11.6390 O   0  0  0  0  0  0  0  0  0  0  0  0
   77.0435    9.0165   12.6795 H   0  0  0  0  0  0  0  0  0  0  0  0
   79.0394    5.3612   15.1612 H   0  0  0  0  0  0  0  0  0  0  0  0
   76.1769   13.7256    8.0436 H   0  0  0  0  0  0  0  0  0  0  0  0
   79.7603   11.9445    9.5583 H   0  0  0  0  0  0  0  0  0  0  0  0
   75.0544   10.2999   11.5407 H   0  0  0  0  0  0  0  0  0  0  0  0
   78.5070    5.1172   12.7435 H   0  0  0  0  0  0  0  0  0  0  0  0
   80.0570    8.5767   16.7406 H   0  0  0  0  0  0  0  0  0  0  0  0
   77.7490    5.3559   16.7999 H   0  0  0  0  0  0  0  0  0  0  0  0
   78.2058    4.8617   18.4646 H   0  0  0  0  0  0  0  0  0  0  0  0
   77.8716    7.3543   19.1091 H   0  0  0  0  0  0  0  0  0  0  0  0
   77.0530    7.5331   17.5236 H   0  0  0  0  0  0  0  0  0  0  0  0
   76.0990    6.2514   20.0131 H   0  0  0  0  0  0  0  0  0  0  0  0
   75.1705    6.8066   18.5792 H   0  0  0  0  0  0  0  0  0  0  0  0
   75.9363    5.1818   18.5792 H   0  0  0  0  0  0  0  0  0  0  0  0
   80.4416   13.9635    8.9408 H   0  0  0  0  0  0  0  0  0  0  0  0
   81.4966   15.5329    7.3295 H   0  0  0  0  0  0  0  0  0  0  0  0
   77.9675   15.3604    4.8665 H   0  0  0  0  0  0  0  0  0  0  0  0
   76.9124   13.7927    6.4826 H   0  0  0  0  0  0  0  0  0  0  0  0
  4  5  2  0
  5  6  1  0
  8  9  2  0
  9 10  1  0
  8 11  1  0
  2 12  1  0
  2 13  2  0
  3 13  1  0
 11 14  2  0
 13 14  1  0
 10 15  2  0
 12 15  1  0
 14 15  1  0
  8 16  1  0
  3 17  1  0
  4 17  1  0
  7 17  2  0
  6 18  2  0
  7 18  1  0
  7 19  1  0
  4 20  1  0
  5 21  1  0
 21 22  1  0
 22 23  2  0
 22 24  2  0
 22 25  1  0
 25 26  1  0
 26 27  1  0
 16 28  2  0
  1 29  2  0
 28 29  1  0
  1 30  1  0
 16 31  1  0
 30 31  2  0
  1 32  1  0
  3 33  2  0
  2 34  1  0
  6 35  1  0
  9 36  1  0
 11 37  1  0
 12 38  1  0
 18 39  1  0
 21 40  1  0
 25 41  1  0
 25 42  1  0
 26 43  1  0
 26 44  1  0
 27 45  1  0
 27 46  1  0
 27 47  1  0
 28 48  1  0
 29 49  1  0
 30 50  1  0
 31 51  1  0
M  END
$$$$
