PDB_DB00196_98
     RDKit          3D

 48 50  0  0  0  0  0  0  0  0999 V2000
   22.7530    8.7750   17.2210 O   0  0  0  0  0  0  0  0  0  0  0  0
   22.3930    9.8280   16.3320 C   0  0  1  0  0  0  0  0  0  0  0  0
   20.9930    9.5530   15.7620 C   0  0  0  0  0  0  0  0  0  0  0  0
   22.4700   11.1200   17.1400 C   0  0  0  0  0  0  0  0  0  0  0  0
   23.4060    9.8780   15.2120 C   0  0  0  0  0  0  0  0  0  0  0  0
   19.9560    9.6540   16.7960 N   0  0  0  0  0  0  0  0  0  0  0  0
   19.3760    8.7550   17.5860 C   0  0  0  0  0  0  0  0  0  0  0  0
   19.4420   10.9270   17.0560 N   0  0  0  0  0  0  0  0  0  0  0  0
   18.4920    9.4350   18.3520 N   0  0  0  0  0  0  0  0  0  0  0  0
   18.5310   10.7480   18.0330 C   0  0  0  0  0  0  0  0  0  0  0  0
   23.8460   11.3550   17.5390 N   0  0  0  0  0  0  0  0  0  0  0  0
   24.6880   10.7080   18.3410 C   0  0  0  0  0  0  0  0  0  0  0  0
   24.4330   12.4830   16.9890 N   0  0  0  0  0  0  0  0  0  0  0  0
   25.8120   11.4320   18.2890 N   0  0  0  0  0  0  0  0  0  0  0  0
   25.6840   12.5090   17.4810 C   0  0  0  0  0  0  0  0  0  0  0  0
   24.4440    8.9550   15.1410 C   0  0  0  0  0  0  0  0  0  0  0  0
   23.3380   10.9290   14.1740 C   0  0  0  0  0  0  0  0  0  0  0  0
   25.3750    9.0340   14.1080 C   0  0  0  0  0  0  0  0  0  0  0  0
   25.2990   10.0220   13.1330 C   0  0  0  0  0  0  0  0  0  0  0  0
   26.2090   10.0580   12.1470 F   0  0  0  0  0  0  0  0  0  0  0  0
   24.2870   10.9740   13.1620 C   0  0  0  0  0  0  0  0  0  0  0  0
   22.3620   11.8350   14.2120 F   0  0  0  0  0  0  0  0  0  0  0  0
   22.6479    9.0823   18.1562 H   0  0  0  0  0  0  0  0  0  0  0  0
   20.7799   10.2867   14.9707 H   0  0  0  0  0  0  0  0  0  0  0  0
   20.9806    8.5279   15.3631 H   0  0  0  0  0  0  0  0  0  0  0  0
   22.1174   11.9603   16.5239 H   0  0  0  0  0  0  0  0  0  0  0  0
   21.8364   11.0332   18.0350 H   0  0  0  0  0  0  0  0  0  0  0  0
   24.0400   10.5446   15.8152 H   0  0  0  0  0  0  0  0  0  0  0  0
   18.8534    7.9984   16.9822 H   0  0  0  0  0  0  0  0  0  0  0  0
   20.1182    8.2289   18.2043 H   0  0  0  0  0  0  0  0  0  0  0  0
   20.1900   11.5609   17.3715 H   0  0  0  0  0  0  0  0  0  0  0  0
   17.5432    9.0701   18.1863 H   0  0  0  0  0  0  0  0  0  0  0  0
   18.8164   11.3359   18.9178 H   0  0  0  0  0  0  0  0  0  0  0  0
   17.5406   11.0802   17.6883 H   0  0  0  0  0  0  0  0  0  0  0  0
   24.2962   10.6688   19.3681 H   0  0  0  0  0  0  0  0  0  0  0  0
   24.8447    9.6636   18.0333 H   0  0  0  0  0  0  0  0  0  0  0  0
   24.4510   12.4154   15.9614 H   0  0  0  0  0  0  0  0  0  0  0  0
   26.0439   11.7548   19.2392 H   0  0  0  0  0  0  0  0  0  0  0  0
   26.4143   12.4547   16.6602 H   0  0  0  0  0  0  0  0  0  0  0  0
   25.8692   13.4408   18.0355 H   0  0  0  0  0  0  0  0  0  0  0  0
   25.0065    9.0362   16.0828 H   0  0  0  0  0  0  0  0  0  0  0  0
   23.9256    8.0052   14.9430 H   0  0  0  0  0  0  0  0  0  0  0  0
   23.9687   11.5826   14.7945 H   0  0  0  0  0  0  0  0  0  0  0  0
   26.3594    9.1454   14.5860 H   0  0  0  0  0  0  0  0  0  0  0  0
   25.1669    8.1195   13.5332 H   0  0  0  0  0  0  0  0  0  0  0  0
   25.9371   10.6758   13.7458 H   0  0  0  0  0  0  0  0  0  0  0  0
   23.7434   10.8929   12.2091 H   0  0  0  0  0  0  0  0  0  0  0  0
   24.8225   11.9162   13.3502 H   0  0  0  0  0  0  0  0  0  0  0  0
  2  1  1  1
  2  3  1  0
  2  4  1  0
  2  5  1  0
  3  6  1  0
  6  7  1  0
  6  8  1  0
  7  9  1  0
  8 10  1  0
  9 10  1  0
  4 11  1  0
 11 12  1  0
 11 13  1  0
 12 14  1  0
 13 15  1  0
 15 14  1  0
  5 16  1  0
  5 17  1  0
 16 18  1  0
 18 19  1  0
 19 20  1  0
 17 21  1  0
 19 21  1  0
 17 22  1  0
  1 23  1  0
  3 24  1  0
  3 25  1  0
  4 26  1  0
  4 27  1  0
  5 28  1  0
  7 29  1  0
  7 30  1  0
  8 31  1  0
  9 32  1  0
 10 33  1  0
 10 34  1  0
 12 35  1  0
 12 36  1  0
 13 37  1  0
 14 38  1  6
 15 39  1  0
 15 40  1  0
 16 41  1  0
 16 42  1  0
 17 43  1  0
 18 44  1  0
 18 45  1  0
 19 46  1  0
 21 47  1  0
 21 48  1  0
M  END
>  <PDBID>  (1) 
4WMZ

>  <PDB ID>  (1) 
4WMZ

>  <Generic Name>  (1) 
Fluconazole

>  <Brand Name>  (1) 
Act Fluconazole#Apo-fluconazole#Apo-fluconazole-150#Canesoral#Canesoral Combi-pak#Clotrimaderm-fluconazole Combi-pack#Clotrimazole-fluconazole Combi-pack#Co Fluconazole-150#Diflucan#Diflucan Inj 2mg/ml#Diflucan One#Diflucan Pws 50mg/5ml#Diflucan Tab 100mg#Diflucan Tab 50mg#Dom-fluconazole#Fluconazole#Fluconazole 150#Fluconazole In Sodium Chloride Injection USP#Fluconazole Injection#Fluconazole Injection Sdz#Fluconazole Omega#Fluconazole-150#Jamp-fluconazole#Mar-fluconazole-150#Monicure#Monicure Combo#Mylan-fluconazole#Novo-fluconazole#Novo-fluconazole-150#Nu-fluconazole-150#PHL-fluconazole#PMS-fluconazole#PMS-fluconazole-150#Priva-fluconazole#Pro-fluconazole#Riva-fluconazole#Taro-fluconazole#Teva-fluconazole#Elazor#Flucazol#Flucostat#Flunizol#Pritenzol#Trican#Triflucan

>  <DrugBank ID>  (1) 
DB00196

>  <ATC Codes>  (1) 
D01AC15#J02AC01#J01RA07

>  <Ligand ID>  (1) 
TPF

>  <Target Name>  (1) 
Lanosterol 14-alpha demethylase

>  <UniProt ID>  (1) 
P10613

>  <PDB ID.1>  (1) 
4WMZ

>  <Seq. Identity>  (1) 
65%

$$$$
