PDB_DB01167_96
     RDKit          3D

113119  0  0  0  0  0  0  0  0999 V2000
  -34.6830  -23.1080   30.3020 C   0  0  0  0  0  0  0  0  0  0  0  0
  -33.3760  -23.0360   30.7500 C   0  0  1  0  0  0  0  0  0  0  0  0
  -31.8780  -27.4470   28.1200 C   0  0  0  0  0  0  0  0  0  0  0  0
  -31.1800  -27.9740   29.3800 C   0  0  0  0  0  0  0  0  0  0  0  0
  -31.9650  -27.7510   30.7360 C   0  0  1  0  0  0  0  0  0  0  0  0
  -31.3160  -28.4450   31.9240 C   0  0  0  0  0  0  0  0  0  0  0  0
  -32.0650  -26.2970   31.0340 N   0  0  0  0  0  0  0  0  0  0  0  0
  -33.0920  -25.5070   30.6370 C   0  0  0  0  0  0  0  0  0  0  0  0
  -34.1400  -25.8260   30.0980 O   0  0  0  0  0  0  0  0  0  0  0  0
  -32.6390  -24.2470   30.9900 N   0  0  0  0  0  0  0  0  0  0  0  0
  -31.4100  -24.3280   31.6030 C   0  0  0  0  0  0  0  0  0  0  0  0
  -31.0370  -25.6210   31.6460 N   0  0  0  0  0  0  0  0  0  0  0  0
  -35.3230  -21.9760   29.8410 C   0  0  0  0  0  0  0  0  0  0  0  0
  -34.6620  -20.7590   29.8140 C   0  0  0  0  0  0  0  0  0  0  0  0
  -33.3560  -20.6840   30.2890 C   0  0  0  0  0  0  0  0  0  0  0  0
  -32.7200  -21.8170   30.7640 C   0  0  0  0  0  0  0  0  0  0  0  0
  -35.2710  -19.6740   29.2950 N   0  0  0  0  0  0  0  0  0  0  0  0
  -36.7330  -19.6550   29.3210 C   0  0  0  0  0  0  0  0  0  0  0  0
  -37.2360  -18.7440   28.2470 C   0  0  0  0  0  0  0  0  0  0  0  0
  -36.6450  -17.4120   28.3950 N   0  0  0  0  0  0  0  0  0  0  0  0
  -35.1830  -17.4030   28.4830 C   0  0  0  0  0  0  0  0  0  0  0  0
  -34.7070  -18.3500   29.5450 C   0  0  0  0  0  0  0  0  0  0  0  0
  -37.1920  -16.4410   27.6080 C   0  0  0  0  0  0  0  0  0  0  0  0
  -38.2200  -16.7460   26.7320 C   0  0  0  0  0  0  0  0  0  0  0  0
  -38.7830  -15.7660   25.9380 C   0  0  0  0  0  0  0  0  0  0  0  0
  -38.3230  -14.4680   26.0170 C   0  0  0  0  0  0  0  0  0  0  0  0
  -37.2980  -14.1480   26.8870 C   0  0  0  0  0  0  0  0  0  0  0  0
  -36.7330  -15.1330   27.6750 C   0  0  0  0  0  0  0  0  0  0  0  0
  -38.9440  -13.5840   25.1660 O   0  0  0  0  0  0  0  0  0  0  0  0
  -38.5610  -12.2040   25.1810 C   0  0  0  0  0  0  0  0  0  0  0  0
  -38.9910  -11.5780   23.8780 C   0  0  1  0  0  0  0  0  0  0  0  0
  -38.4880  -12.3490   22.6800 C   0  0  0  0  0  0  0  0  0  0  0  0
  -39.5310  -13.2400   22.4010 O   0  0  0  0  0  0  0  0  0  0  0  0
  -40.7350  -12.5360   22.6590 C   0  0  2  0  0  0  0  0  0  0  0  0
  -40.4290  -11.5900   23.6870 O   0  0  0  0  0  0  0  0  0  0  0  0
  -41.6970  -13.4940   23.3120 C   0  0  0  0  0  0  0  0  0  0  0  0
  -43.0100  -12.8640   23.2810 N   0  0  0  0  0  0  0  0  0  0  0  0
  -43.4020  -11.7150   23.8070 C   0  0  0  0  0  0  0  0  0  0  0  0
  -44.6870  -11.5370   23.6240 N   0  0  0  0  0  0  0  0  0  0  0  0
  -45.0390  -12.6380   22.9440 C   0  0  0  0  0  0  0  0  0  0  0  0
  -44.0650  -13.4820   22.7010 N   0  0  0  0  0  0  0  0  0  0  0  0
  -41.2300  -11.9910   21.2880 C   0  0  0  0  0  0  0  0  0  0  0  0
  -41.5420  -12.8410   20.2210 C   0  0  1  0  0  0  0  0  0  0  0  0
  -41.9640  -12.3580   19.0000 C   0  0  0  0  0  0  0  0  0  0  0  0
  -42.0340  -10.9990   18.8120 C   0  0  1  0  0  0  0  0  0  0  0  0
  -41.7540  -10.1180   19.8350 C   0  0  0  0  0  0  0  0  0  0  0  0
  -41.3570  -10.6210   21.0630 C   0  0  0  0  0  0  0  0  0  0  0  0
  -42.3660  -10.3950   17.2140 Cl  0  0  0  0  0  0  0  0  0  0  0  0
  -41.3190  -14.5560   20.3230 Cl  0  0  0  0  0  0  0  0  0  0  0  0
  -34.6952  -23.8362   29.4776 H   0  0  0  0  0  0  0  0  0  0  0  0
  -35.2460  -23.3603   31.2127 H   0  0  0  0  0  0  0  0  0  0  0  0
  -33.6758  -22.9373   31.8037 H   0  0  0  0  0  0  0  0  0  0  0  0
  -32.7248  -26.8077   28.4102 H   0  0  0  0  0  0  0  0  0  0  0  0
  -31.1637  -26.8609   27.5231 H   0  0  0  0  0  0  0  0  0  0  0  0
  -32.2461  -28.2945   27.5231 H   0  0  0  0  0  0  0  0  0  0  0  0
  -31.0224  -29.0552   29.2533 H   0  0  0  0  0  0  0  0  0  0  0  0
  -30.2472  -27.3984   29.4723 H   0  0  0  0  0  0  0  0  0  0  0  0
  -32.9614  -28.1940   30.5910 H   0  0  0  0  0  0  0  0  0  0  0  0
  -31.7128  -28.0207   32.8581 H   0  0  0  0  0  0  0  0  0  0  0  0
  -31.5390  -29.5215   31.8865 H   0  0  0  0  0  0  0  0  0  0  0  0
  -30.2270  -28.2946   31.8865 H   0  0  0  0  0  0  0  0  0  0  0  0
  -32.6202  -25.3896   29.6503 H   0  0  0  0  0  0  0  0  0  0  0  0
  -34.8175  -26.0322   30.7898 H   0  0  0  0  0  0  0  0  0  0  0  0
  -30.6712  -23.7478   31.0307 H   0  0  0  0  0  0  0  0  0  0  0  0
  -31.4704  -23.9197   32.6226 H   0  0  0  0  0  0  0  0  0  0  0  0
  -30.9242  -25.9350   32.6205 H   0  0  0  0  0  0  0  0  0  0  0  0
  -35.6353  -22.1886   28.8079 H   0  0  0  0  0  0  0  0  0  0  0  0
  -36.1117  -21.8138   30.5905 H   0  0  0  0  0  0  0  0  0  0  0  0
  -35.0413  -20.5306   30.8209 H   0  0  0  0  0  0  0  0  0  0  0  0
  -32.7406  -20.2991   29.4625 H   0  0  0  0  0  0  0  0  0  0  0  0
  -33.4528  -20.0569   31.1875 H   0  0  0  0  0  0  0  0  0  0  0  0
  -32.4493  -21.6140   31.8107 H   0  0  0  0  0  0  0  0  0  0  0  0
  -31.8975  -21.9641   30.0485 H   0  0  0  0  0  0  0  0  0  0  0  0
  -37.1165  -20.6716   29.1496 H   0  0  0  0  0  0  0  0  0  0  0  0
  -37.0789  -19.2945   30.3010 H   0  0  0  0  0  0  0  0  0  0  0  0
  -36.9627  -19.1555   27.2642 H   0  0  0  0  0  0  0  0  0  0  0  0
  -38.3299  -18.6622   28.3292 H   0  0  0  0  0  0  0  0  0  0  0  0
  -34.7615  -17.7071   27.5135 H   0  0  0  0  0  0  0  0  0  0  0  0
  -34.8518  -16.3867   28.7428 H   0  0  0  0  0  0  0  0  0  0  0  0
  -35.0344  -17.9909   30.5319 H   0  0  0  0  0  0  0  0  0  0  0  0
  -33.6086  -18.4062   29.5250 H   0  0  0  0  0  0  0  0  0  0  0  0
  -36.4558  -16.6637   26.8216 H   0  0  0  0  0  0  0  0  0  0  0  0
  -37.8339  -17.5189   26.0511 H   0  0  0  0  0  0  0  0  0  0  0  0
  -39.0447  -17.0192   27.4068 H   0  0  0  0  0  0  0  0  0  0  0  0
  -38.6504  -16.0873   24.8944 H   0  0  0  0  0  0  0  0  0  0  0  0
  -39.8132  -15.6935   26.3166 H   0  0  0  0  0  0  0  0  0  0  0  0
  -39.0592  -14.2551   26.8061 H   0  0  0  0  0  0  0  0  0  0  0  0
  -36.4862  -13.7214   26.2796 H   0  0  0  0  0  0  0  0  0  0  0  0
  -37.7820  -13.4833   27.6177 H   0  0  0  0  0  0  0  0  0  0  0  0
  -36.8556  -14.8096   28.7192 H   0  0  0  0  0  0  0  0  0  0  0  0
  -35.7103  -15.2101   27.2774 H   0  0  0  0  0  0  0  0  0  0  0  0
  -39.0531  -11.6907   26.0203 H   0  0  0  0  0  0  0  0  0  0  0  0
  -37.4714  -12.1148   25.3024 H   0  0  0  0  0  0  0  0  0  0  0  0
  -38.5834  -10.5584   23.9442 H   0  0  0  0  0  0  0  0  0  0  0  0
  -38.3069  -11.6770   21.8281 H   0  0  0  0  0  0  0  0  0  0  0  0
  -37.5309  -12.8569   22.8695 H   0  0  0  0  0  0  0  0  0  0  0  0
  -41.7201  -14.4435   22.7571 H   0  0  0  0  0  0  0  0  0  0  0  0
  -41.3912  -13.7151   24.3453 H   0  0  0  0  0  0  0  0  0  0  0  0
  -43.1881  -11.7200   24.8860 H   0  0  0  0  0  0  0  0  0  0  0  0
  -42.8575  -10.8961   23.3141 H   0  0  0  0  0  0  0  0  0  0  0  0
  -45.1864  -11.4792   24.5230 H   0  0  0  0  0  0  0  0  0  0  0  0
  -45.8085  -13.1657   23.5265 H   0  0  0  0  0  0  0  0  0  0  0  0
  -45.3914  -12.2893   21.9620 H   0  0  0  0  0  0  0  0  0  0  0  0
  -43.9181  -13.6034   21.6888 H   0  0  0  0  0  0  0  0  0  0  0  0
  -40.1895  -11.9312   20.9361 H   0  0  0  0  0  0  0  0  0  0  0  0
  -42.5863  -12.8876   20.5635 H   0  0  0  0  0  0  0  0  0  0  0  0
  -41.2740  -12.7539   18.2403 H   0  0  0  0  0  0  0  0  0  0  0  0
  -43.0107  -12.6892   18.9315 H   0  0  0  0  0  0  0  0  0  0  0  0
  -43.0920  -11.0119   19.1127 H   0  0  0  0  0  0  0  0  0  0  0  0
  -40.9483   -9.4581   19.4810 H   0  0  0  0  0  0  0  0  0  0  0  0
  -42.7225   -9.6407   20.0454 H   0  0  0  0  0  0  0  0  0  0  0  0
  -42.0876  -10.2533   21.7985 H   0  0  0  0  0  0  0  0  0  0  0  0
  -40.3150  -10.2752   21.1315 H   0  0  0  0  0  0  0  0  0  0  0  0
  1  2  1  0
  3  4  1  0
  4  5  1  0
  5  6  1  0
  5  7  1  0
  7  8  1  0
  8  9  1  0
  2 10  1  0
  8 10  1  0
 10 11  1  0
  7 12  1  0
 11 12  1  0
  1 13  1  0
 13 14  1  0
 14 15  1  0
  2 16  1  0
 15 16  1  0
 14 17  1  0
 17 18  1  0
 18 19  1  0
 19 20  1  0
 20 21  1  0
 17 22  1  0
 21 22  1  0
 20 23  1  0
 23 24  1  0
 24 25  1  0
 25 26  1  0
 26 27  1  0
 23 28  1  0
 27 28  1  0
 26 29  1  0
 29 30  1  0
 30 31  1  0
 31 32  1  0
 32 33  1  0
 33 34  1  0
 31 35  1  0
 34 35  1  0
 34 36  1  1
 36 37  1  0
 37 38  1  0
 38 39  1  0
 40 39  1  0
 37 41  1  0
 40 41  1  0
 34 42  1  0
 42 43  1  0
 43 44  1  0
 44 45  1  0
 45 46  1  0
 42 47  1  0
 46 47  1  0
 45 48  1  0
 43 49  1  0
  1 50  1  0
  1 51  1  0
  2 52  1  1
  3 53  1  0
  3 54  1  0
  3 55  1  0
  4 56  1  0
  4 57  1  0
  5 58  1  6
  6 59  1  0
  6 60  1  0
  6 61  1  0
  8 62  1  0
  9 63  1  0
 11 64  1  0
 11 65  1  0
 12 66  1  0
 13 67  1  0
 13 68  1  0
 14 69  1  0
 15 70  1  0
 15 71  1  0
 16 72  1  0
 16 73  1  0
 18 74  1  0
 18 75  1  0
 19 76  1  0
 19 77  1  0
 21 78  1  0
 21 79  1  0
 22 80  1  0
 22 81  1  0
 23 82  1  0
 24 83  1  0
 24 84  1  0
 25 85  1  0
 25 86  1  0
 26 87  1  0
 27 88  1  0
 27 89  1  0
 28 90  1  0
 28 91  1  0
 30 92  1  0
 30 93  1  0
 31 94  1  6
 32 95  1  0
 32 96  1  0
 36 97  1  0
 36 98  1  0
 38 99  1  0
 38100  1  0
 39101  1  6
 40102  1  0
 40103  1  0
 41104  1  0
 42105  1  0
 43106  1  1
 44107  1  0
 44108  1  0
 45109  1  1
 46110  1  0
 46111  1  0
 47112  1  0
 47113  1  0
M  END
>  <PDBID>  (1) 
5V5Z

>  <PDB ID>  (1) 
5V5Z

>  <Generic Name>  (1) 
Itraconazole

>  <Brand Name>  (1) 
Itraconazole#Onmel#Sporanox#Sporanox Oral Solution 10mg/ml#Itrizole#Oriconazole#Sporal

>  <DrugBank ID>  (1) 
DB01167

>  <ATC Codes>  (1) 
J02AC02

>  <Ligand ID>  (1) 
1YN

>  <Target Name>  (1) 
Lanosterol 14-alpha demethylase

>  <UniProt ID>  (1) 
Q16850

>  <PDB ID.1>  (1) 
5V5Z

>  <Seq. Identity>  (1) 
38%

$$$$
