PDB_DB00284_99
     RDKit          3D

 85 88  0  0  0  0  0  0  0  0999 V2000
  -19.6710   -5.9900  -10.6110 C   0  0  2  0  0  0  0  0  0  0  0  0
  -20.7300   -5.6830  -11.6900 C   0  0  1  0  0  0  0  0  0  0  0  0
  -21.5600   -6.9360  -11.9710 C   0  0  2  0  0  0  0  0  0  0  0  0
  -20.6670   -7.9640  -12.6390 C   0  0  1  0  0  0  0  0  0  0  0  0
  -19.3470   -8.1050  -11.9110 C   0  0  0  0  0  0  0  0  0  0  0  0
  -18.5890   -9.3680  -12.1800 C   0  0  0  0  0  0  0  0  0  0  0  0
  -18.8330   -7.1680  -11.0990 C   0  0  0  0  0  0  0  0  0  0  0  0
  -21.5980   -4.6430  -11.2610 O   0  0  0  0  0  0  0  0  0  0  0  0
  -22.7950   -6.7250  -12.7430 O   0  0  0  0  0  0  0  0  0  0  0  0
  -21.3410   -9.2220  -12.6550 O   0  0  0  0  0  0  0  0  0  0  0  0
  -17.8570   -9.0520  -13.3800 O   0  0  0  0  0  0  0  0  0  0  0  0
  -18.2170   -6.7430   -5.3860 C   0  0  2  0  0  0  0  0  0  0  0  0
  -17.8400   -5.5560   -6.2710 C   0  0  1  0  0  0  0  0  0  0  0  0
  -18.9740   -5.2480   -7.2620 C   0  0  2  0  0  0  0  0  0  0  0  0
  -19.2400   -6.4670   -8.1460 C   0  0  1  0  0  0  0  0  0  0  0  0
  -19.5940   -7.6510   -7.2210 C   0  0  1  0  0  0  0  0  0  0  0  0
  -19.7630   -8.9570   -7.9900 C   0  0  0  0  0  0  0  0  0  0  0  0
  -20.2000   -6.1770   -9.2330 N   0  0  0  0  0  0  0  0  0  0  0  0
  -17.6240   -4.4180   -5.4390 O   0  0  0  0  0  0  0  0  0  0  0  0
  -18.6180   -4.1570   -8.1040 O   0  0  0  0  0  0  0  0  0  0  0  0
  -18.5410   -7.8430   -6.2420 O   0  0  0  0  0  0  0  0  0  0  0  0
  -21.0570   -7.7380   -0.9580 C   0  0  2  0  0  0  0  0  0  0  0  0
  -19.5340   -7.7390   -1.0400 C   0  0  1  0  0  0  0  0  0  0  0  0
  -19.0200   -6.9610   -2.2550 C   0  0  2  0  0  0  0  0  0  0  0  0
  -19.7220   -7.3380   -3.5600 C   0  0  1  0  0  0  0  0  0  0  0  0
  -21.2420   -7.3380   -3.3630 C   0  0  1  0  0  0  0  0  0  0  0  0
  -21.9950   -7.8540   -4.5850 C   0  0  0  0  0  0  0  0  0  0  0  0
  -19.0400   -7.0610    0.1090 O   0  0  0  0  0  0  0  0  0  0  0  0
  -17.6040   -7.1280   -2.4050 O   0  0  0  0  0  0  0  0  0  0  0  0
  -19.3450   -6.3910   -4.5600 O   0  0  0  0  0  0  0  0  0  0  0  0
  -21.5930   -8.1540   -2.2260 O   0  0  0  0  0  0  0  0  0  0  0  0
  -23.3970   -7.9360   -4.2880 O   0  0  0  0  0  0  0  0  0  0  0  0
  -24.4360   -4.5400    1.8350 C   0  0  0  0  0  0  0  0  0  0  0  0
  -22.9600   -4.6230    2.3060 C   0  0  1  0  0  0  0  0  0  0  0  0
  -21.9930   -5.0600    1.1990 C   0  0  2  0  0  0  0  0  0  0  0  0
  -22.4870   -6.2690    0.3980 C   0  0  1  0  0  0  0  0  0  0  0  0
  -23.9070   -5.9410   -0.1210 C   0  0  1  0  0  0  0  0  0  0  0  0
  -24.5410   -7.0460   -0.9710 C   0  0  0  0  0  0  0  0  0  0  0  0
  -24.7250   -3.2780    1.2080 O   0  0  0  0  0  0  0  0  0  0  0  0
  -22.4900   -3.3600    2.8190 O   0  0  0  0  0  0  0  0  0  0  0  0
  -20.6790   -5.3120    1.7380 O   0  0  0  0  0  0  0  0  0  0  0  0
  -21.5170   -6.4160   -0.6480 O   0  0  0  0  0  0  0  0  0  0  0  0
  -24.8190   -5.6180    0.9550 O   0  0  0  0  0  0  0  0  0  0  0  0
  -25.8490   -6.6220   -1.3960 O   0  0  0  0  0  0  0  0  0  0  0  0
  -19.0408   -5.0963  -10.4920 H   0  0  0  0  0  0  0  0  0  0  0  0
  -20.2078   -5.3627  -12.6037 H   0  0  0  0  0  0  0  0  0  0  0  0
  -21.9249   -7.2917  -10.9962 H   0  0  0  0  0  0  0  0  0  0  0  0
  -20.4538   -7.6294  -13.6650 H   0  0  0  0  0  0  0  0  0  0  0  0
  -17.9065   -9.6048  -11.3504 H   0  0  0  0  0  0  0  0  0  0  0  0
  -19.2370  -10.2506  -12.2851 H   0  0  0  0  0  0  0  0  0  0  0  0
  -17.7841   -7.2512  -10.7782 H   0  0  0  0  0  0  0  0  0  0  0  0
  -21.6190   -4.6178  -10.2715 H   0  0  0  0  0  0  0  0  0  0  0  0
  -23.5546   -6.5952  -12.1215 H   0  0  0  0  0  0  0  0  0  0  0  0
  -21.5018   -9.5221  -11.7254 H   0  0  0  0  0  0  0  0  0  0  0  0
  -16.9756   -8.6715  -13.1383 H   0  0  0  0  0  0  0  0  0  0  0  0
  -17.3828   -7.0192   -4.7243 H   0  0  0  0  0  0  0  0  0  0  0  0
  -16.9288   -5.7982   -6.8376 H   0  0  0  0  0  0  0  0  0  0  0  0
  -19.8731   -4.9927   -6.6820 H   0  0  0  0  0  0  0  0  0  0  0  0
  -18.3411   -6.7557   -8.7105 H   0  0  0  0  0  0  0  0  0  0  0  0
  -20.5491   -7.4002   -6.7363 H   0  0  0  0  0  0  0  0  0  0  0  0
  -19.8707   -9.7897   -7.2793 H   0  0  0  0  0  0  0  0  0  0  0  0
  -20.6608   -8.8964   -8.6227 H   0  0  0  0  0  0  0  0  0  0  0  0
  -18.8794   -9.1270   -8.6227 H   0  0  0  0  0  0  0  0  0  0  0  0
  -20.6976   -5.3121   -8.9775 H   0  0  0  0  0  0  0  0  0  0  0  0
  -17.6756   -4.6897   -4.4884 H   0  0  0  0  0  0  0  0  0  0  0  0
  -18.3642   -3.3792   -7.5467 H   0  0  0  0  0  0  0  0  0  0  0  0
  -21.3908   -8.4300   -0.1708 H   0  0  0  0  0  0  0  0  0  0  0  0
  -19.1990   -8.7843   -1.1123 H   0  0  0  0  0  0  0  0  0  0  0  0
  -19.2539   -5.9049   -2.0552 H   0  0  0  0  0  0  0  0  0  0  0  0
  -19.4234   -8.3493   -3.8731 H   0  0  0  0  0  0  0  0  0  0  0  0
  -21.5371   -6.2911   -3.1989 H   0  0  0  0  0  0  0  0  0  0  0  0
  -21.8392   -7.1654   -5.4286 H   0  0  0  0  0  0  0  0  0  0  0  0
  -21.6190   -8.8530   -4.8506 H   0  0  0  0  0  0  0  0  0  0  0  0
  -19.3693   -7.5130    0.9259 H   0  0  0  0  0  0  0  0  0  0  0  0
  -17.1811   -7.1779   -1.5113 H   0  0  0  0  0  0  0  0  0  0  0  0
  -23.5265   -7.9436   -3.3065 H   0  0  0  0  0  0  0  0  0  0  0  0
  -22.9662   -5.3857    3.0986 H   0  0  0  0  0  0  0  0  0  0  0  0
  -21.9410   -4.2202    0.4904 H   0  0  0  0  0  0  0  0  0  0  0  0
  -22.5716   -7.2081    0.9645 H   0  0  0  0  0  0  0  0  0  0  0  0
  -23.7511   -5.0648   -0.7675 H   0  0  0  0  0  0  0  0  0  0  0  0
  -23.9120   -7.2392   -1.8525 H   0  0  0  0  0  0  0  0  0  0  0  0
  -24.6254   -7.9679   -0.3769 H   0  0  0  0  0  0  0  0  0  0  0  0
  -22.4983   -3.3822    3.8087 H   0  0  0  0  0  0  0  0  0  0  0  0
  -20.7209   -5.3040    2.7271 H   0  0  0  0  0  0  0  0  0  0  0  0
  -26.4111   -6.4398   -0.6017 H   0  0  0  0  0  0  0  0  0  0  0  0
  1  2  1  0
  2  3  1  0
  3  4  1  0
  4  5  1  0
  5  6  1  0
  1  7  1  0
  5  7  2  0
  2  8  1  0
  3  9  1  0
  4 10  1  0
  6 11  1  0
 12 13  1  0
 13 14  1  0
 14 15  1  0
 15 16  1  0
 16 17  1  0
  1 18  1  0
 15 18  1  0
 13 19  1  0
 14 20  1  0
 12 21  1  0
 16 21  1  0
 22 23  1  0
 23 24  1  0
 24 25  1  0
 25 26  1  0
 26 27  1  0
 23 28  1  0
 24 29  1  0
 12 30  1  0
 25 30  1  0
 22 31  1  0
 26 31  1  0
 27 32  1  0
 33 34  1  0
 34 35  1  0
 35 36  1  0
 36 37  1  0
 37 38  1  0
 33 39  2  0
 34 40  1  0
 35 41  1  0
 22 42  1  0
 36 42  1  0
 33 43  1  0
 37 43  1  0
 38 44  1  0
  1 45  1  1
  2 46  1  6
  3 47  1  1
  4 48  1  6
  6 49  1  0
  6 50  1  0
  7 51  1  0
  8 52  1  0
  9 53  1  0
 10 54  1  0
 11 55  1  0
 12 56  1  1
 13 57  1  6
 14 58  1  1
 15 59  1  6
 16 60  1  1
 17 61  1  0
 17 62  1  0
 17 63  1  0
 18 64  1  0
 19 65  1  0
 20 66  1  0
 22 67  1  1
 23 68  1  6
 24 69  1  1
 25 70  1  6
 26 71  1  1
 27 72  1  0
 27 73  1  0
 28 74  1  0
 29 75  1  0
 32 76  1  0
 34 77  1  1
 35 78  1  6
 36 79  1  1
 37 80  1  6
 38 81  1  0
 38 82  1  0
 40 83  1  0
 41 84  1  0
 44 85  1  0
M  END
>  <PDBID>  (1) 
2QMJ

>  <PDB ID>  (1) 
2QMJ

>  <Generic Name>  (1) 
Acarbose

>  <Brand Name>  (1) 
Acarbose#Glucobay#Precose#Prandase

>  <DrugBank ID>  (1) 
DB00284

>  <ATC Codes>  (1) 
A10BF01#A10BD17

>  <Ligand ID>  (1) 
ACR,QPS

>  <Target Name>  (1) 
Maltase-glucoamylase, intestinal

>  <UniProt ID>  (1) 
O43451

>  <PDB ID.1>  (1) 
2QMJ

>  <Seq. Identity>  (1) 
99%

$$$$
