PDB_DB00763_98
     RDKit          3D

 13 13  0  0  0  0  0  0  0  0999 V2000
   23.7620   37.1580    6.9550 N   0  0  0  0  0  0  0  0  0  0  0  0
   23.6200   36.0460    6.1750 C   0  0  0  0  0  0  0  0  0  0  0  0
   24.5590   37.9320    6.2580 C   0  0  0  0  0  0  0  0  0  0  0  0
   25.0710   39.5960    6.6800 S   0  0  0  0  0  0  0  0  0  0  0  0
   24.9150   37.3910    5.1590 N   0  0  0  0  0  0  0  0  0  0  0  0
   24.3740   36.1690    5.0540 C   0  0  0  0  0  0  0  0  0  0  0  0
   25.8100   38.0870    4.2460 C   0  0  0  0  0  0  0  0  0  0  0  0
   23.3411   37.3452    7.8763 H   0  0  0  0  0  0  0  0  0  0  0  0
   22.9881   35.1794    6.4194 H   0  0  0  0  0  0  0  0  0  0  0  0
   24.5100   35.4355    4.2456 H   0  0  0  0  0  0  0  0  0  0  0  0
   26.5489   38.6616    4.8238 H   0  0  0  0  0  0  0  0  0  0  0  0
   26.3301   37.3537    3.6122 H   0  0  0  0  0  0  0  0  0  0  0  0
   25.2273   38.7717    3.6122 H   0  0  0  0  0  0  0  0  0  0  0  0
  1  2  1  0
  1  3  1  0
  3  4  2  0
  3  5  1  0
  2  6  2  0
  5  6  1  0
  5  7  1  0
  1  8  1  0
  2  9  1  0
  6 10  1  0
  7 11  1  0
  7 12  1  0
  7 13  1  0
M  END
$$$$
