PDB_DB00834_98
     RDKit          3D

166174  0  0  0  0  0  0  0  0999 V2000
  -16.4450    6.9770   -2.5890 O   0  0  0  0  0  0  0  0  0  0  0  0
  -16.9100    6.6520   -3.6530 C   0  0  0  0  0  0  0  0  0  0  0  0
  -18.3860    7.0330   -3.8930 C   0  0  0  0  0  0  0  0  0  0  0  0
  -16.0320    5.9250   -4.6010 C   0  0  0  0  0  0  0  0  0  0  0  0
  -16.3940    5.5940   -5.7820 C   0  0  1  0  0  0  0  0  0  0  0  0
  -15.2910    4.7930   -6.6980 C   0  0  0  0  0  0  0  0  0  0  0  0
  -17.7090    5.9690   -6.3470 C   0  0  0  0  0  0  0  0  0  0  0  0
  -18.7840    6.6700   -5.3980 C   0  0  0  0  0  0  0  0  0  0  0  0
  -17.9810    5.7460   -7.5970 C   0  0  1  0  0  0  0  0  0  0  0  0
  -19.3250    6.2020   -8.2850 C   0  0  1  0  0  0  0  0  0  0  0  0
  -19.6800    7.4050   -8.2920 C   0  0  1  0  0  0  0  0  0  0  0  0
  -21.0100    7.8250   -8.2770 C   0  0  0  0  0  0  0  0  0  0  0  0
  -21.3030    9.2040   -8.3310 C   0  0  0  0  0  0  0  0  0  0  0  0
  -20.2880   10.1580   -8.4210 C   0  0  0  0  0  0  0  0  0  0  0  0
  -20.5950   11.5690   -8.5110 N   0  0  0  0  0  0  0  0  0  0  0  0
  -21.9180   11.9820   -8.8020 C   0  0  0  0  0  0  0  0  0  0  0  0
  -19.5460   12.5450   -8.3490 C   0  0  0  0  0  0  0  0  0  0  0  0
  -18.9500    9.7350   -8.4640 C   0  0  0  0  0  0  0  0  0  0  0  0
  -18.6590    8.3720   -8.4030 C   0  0  0  0  0  0  0  0  0  0  0  0
  -20.0090    5.0820   -9.2720 C   0  0  0  0  0  0  0  0  0  0  0  0
  -18.8030    4.8600  -10.2700 C   0  0  2  0  0  0  0  0  0  0  0  0
  -18.4460    6.2170  -10.9720 C   0  0  0  0  0  0  0  0  0  0  0  0
  -19.1390    3.8410  -11.3720 C   0  0  1  0  0  0  0  0  0  0  0  0
  -19.8310    2.6330  -10.9620 C   0  0  0  0  0  0  0  0  0  0  0  0
  -20.3950    1.6200  -10.5820 C   0  0  0  0  0  0  0  0  0  0  0  0
  -21.0590    0.3460  -10.0450 C   0  0  0  0  0  0  0  0  0  0  0  0
  -19.9310    4.3140  -12.4530 O   0  0  0  0  0  0  0  0  0  0  0  0
  -17.6080    3.5140  -11.8980 C   0  0  0  0  0  0  0  0  0  0  0  0
  -16.6960    3.8980  -10.6920 C   0  0  0  0  0  0  0  0  0  0  0  0
  -17.6990    4.2950   -9.5800 C   0  0  1  0  0  0  0  0  0  0  0  0
  -17.0340    5.0960   -8.5550 C   0  0  2  0  0  0  0  0  0  0  0  0
  -16.1070    4.0770   -7.8380 C   0  0  0  0  0  0  0  0  0  0  0  0
  -18.5400    7.9980   -3.8390 H   0  0  0  0  0  0  0  0  0  0  0  0
  -18.9180    6.5350   -3.2290 H   0  0  0  0  0  0  0  0  0  0  0  0
  -15.1440    5.6470   -4.2920 H   0  0  0  0  0  0  0  0  0  0  0  0
  -14.7550    4.0780   -6.2730 H   0  0  0  0  0  0  0  0  0  0  0  0
  -14.6870    5.4950   -7.0430 H   0  0  0  0  0  0  0  0  0  0  0  0
  -19.5770    6.1070   -5.3220 H   0  0  0  0  0  0  0  0  0  0  0  0
  -19.0740    7.4870   -5.8710 H   0  0  0  0  0  0  0  0  0  0  0  0
  -19.9410    6.1350   -7.5100 H   0  0  0  0  0  0  0  0  0  0  0  0
  -21.7280    7.1750   -8.2100 H   0  0  0  0  0  0  0  0  0  0  0  0
  -22.2390    9.4970   -8.3120 H   0  0  0  0  0  0  0  0  0  0  0  0
  -22.5050   11.7470   -8.0540 H   0  0  0  0  0  0  0  0  0  0  0  0
  -22.2310   11.5290   -9.6190 H   0  0  0  0  0  0  0  0  0  0  0  0
  -21.9350   12.9480   -8.9390 H   0  0  0  0  0  0  0  0  0  0  0  0
  -18.8540   12.3990   -9.0330 H   0  0  0  0  0  0  0  0  0  0  0  0
  -19.1460   12.4520   -7.4510 H   0  0  0  0  0  0  0  0  0  0  0  0
  -19.9190   13.4440   -8.4480 H   0  0  0  0  0  0  0  0  0  0  0  0
  -18.2190   10.3980   -8.5330 H   0  0  0  0  0  0  0  0  0  0  0  0
  -17.7120    8.0760   -8.4320 H   0  0  0  0  0  0  0  0  0  0  0  0
  -20.2250    4.2590   -8.7830 H   0  0  0  0  0  0  0  0  0  0  0  0
  -20.7980    5.4470   -9.7370 H   0  0  0  0  0  0  0  0  0  0  0  0
  -17.7690    6.6990  -10.4340 H   0  0  0  0  0  0  0  0  0  0  0  0
  -19.2570    6.7700  -11.0500 H   0  0  0  0  0  0  0  0  0  0  0  0
  -18.0840    6.0370  -11.8690 H   0  0  0  0  0  0  0  0  0  0  0  0
  -21.8830    0.5860   -9.5550 H   0  0  0  0  0  0  0  0  0  0  0  0
  -20.4360   -0.1190   -9.4340 H   0  0  0  0  0  0  0  0  0  0  0  0
  -21.2830   -0.2430  -10.7900 H   0  0  0  0  0  0  0  0  0  0  0  0
  -20.4250    3.6490  -12.7710 H   0  0  0  0  0  0  0  0  0  0  0  0
  -17.5140    2.5590  -12.1100 H   0  0  0  0  0  0  0  0  0  0  0  0
  -17.3920    4.0550  -12.6710 H   0  0  0  0  0  0  0  0  0  0  0  0
  -16.1600    3.1360  -10.4130 H   0  0  0  0  0  0  0  0  0  0  0  0
  -16.1260    4.6530  -10.9220 H   0  0  0  0  0  0  0  0  0  0  0  0
  -18.0120    3.4680   -9.1490 H   0  0  0  0  0  0  0  0  0  0  0  0
  -16.4890    5.7820   -8.9840 H   0  0  0  0  0  0  0  0  0  0  0  0
  -15.4770    3.6990   -8.4980 H   0  0  0  0  0  0  0  0  0  0  0  0
  -16.6520    3.3460   -7.4480 H   0  0  0  0  0  0  0  0  0  0  0  0
    3.8120   -1.3030  -19.8920 O   0  0  0  0  0  0  0  0  0  0  0  0
    3.7950   -2.5030  -19.8000 C   0  0  1  0  0  0  0  0  0  0  0  0
    5.0010   -3.1690  -19.1190 C   0  0  0  0  0  0  0  0  0  0  0  0
    2.5850   -3.1900  -20.2820 C   0  0  0  0  0  0  0  0  0  0  0  0
    2.5060   -4.4560  -20.4020 C   0  0  1  0  0  0  0  0  0  0  0  0
    1.0620   -5.0080  -20.9410 C   0  0  0  0  0  0  0  0  0  0  0  0
    3.5790   -5.3630  -19.9770 C   0  0  0  0  0  0  0  0  0  0  0  0
    4.9000   -4.7420  -19.3480 C   0  0  0  0  0  0  0  0  0  0  0  0
    3.4330   -6.6440  -20.0810 C   0  0  1  0  0  0  0  0  0  0  0  0
    4.4150   -7.7010  -19.5200 C   0  0  1  0  0  0  0  0  0  0  0  0
    4.2830   -8.0040  -18.2960 C   0  0  2  0  0  0  0  0  0  0  0  0
    5.1290   -8.8730  -17.6010 C   0  0  0  0  0  0  0  0  0  0  0  0
    4.8610   -9.2460  -16.2620 C   0  0  0  0  0  0  0  0  0  0  0  0
    3.7210   -8.7930  -15.5910 C   0  0  0  0  0  0  0  0  0  0  0  0
    3.4180   -9.1830  -14.2250 N   0  0  0  0  0  0  0  0  0  0  0  0
    4.2010  -10.1750  -13.6050 C   0  0  0  0  0  0  0  0  0  0  0  0
    2.3140   -8.5730  -13.5170 C   0  0  0  0  0  0  0  0  0  0  0  0
    2.8310   -7.9580  -16.2780 C   0  0  0  0  0  0  0  0  0  0  0  0
    3.1100   -7.6020  -17.6090 C   0  0  0  0  0  0  0  0  0  0  0  0
    4.9170   -8.7840  -20.6190 C   0  0  0  0  0  0  0  0  0  0  0  0
    3.5340   -9.3520  -21.1500 C   0  0  2  0  0  0  0  0  0  0  0  0
    2.9150  -10.2300  -20.0040 C   0  0  0  0  0  0  0  0  0  0  0  0
    3.7310  -10.2470  -22.3770 C   0  0  1  0  0  0  0  0  0  0  0  0
    4.6060   -9.7400  -23.4070 C   0  0  0  0  0  0  0  0  0  0  0  0
    5.3870   -9.2630  -24.2120 C   0  0  0  0  0  0  0  0  0  0  0  0
    6.3890   -8.6100  -25.1570 C   0  0  0  0  0  0  0  0  0  0  0  0
    4.2700  -11.5260  -22.0540 O   0  0  0  0  0  0  0  0  0  0  0  0
    2.1910  -10.3190  -22.9420 C   0  0  0  0  0  0  0  0  0  0  0  0
    1.5400   -9.0140  -22.4140 C   0  0  0  0  0  0  0  0  0  0  0  0
    2.7070   -8.3070  -21.6380 C   0  0  1  0  0  0  0  0  0  0  0  0
    2.2260   -7.3390  -20.6510 C   0  0  2  0  0  0  0  0  0  0  0  0
    1.2420   -6.4750  -21.4710 C   0  0  0  0  0  0  0  0  0  0  0  0
    4.9830   -3.0770  -18.1460 H   0  0  0  0  0  0  0  0  0  0  0  0
    5.8110   -2.7750  -19.5210 H   0  0  0  0  0  0  0  0  0  0  0  0
    1.8240   -2.6450  -20.5740 H   0  0  0  0  0  0  0  0  0  0  0  0
    0.6270   -4.5220  -21.6850 H   0  0  0  0  0  0  0  0  0  0  0  0
    0.4760   -4.9680  -20.1460 H   0  0  0  0  0  0  0  0  0  0  0  0
    5.6680   -4.9650  -19.9060 H   0  0  0  0  0  0  0  0  0  0  0  0
    5.0400   -5.2100  -18.4900 H   0  0  0  0  0  0  0  0  0  0  0  0
    5.2360   -7.1910  -19.2950 H   0  0  0  0  0  0  0  0  0  0  0  0
    5.9320   -9.2040  -18.0360 H   0  0  0  0  0  0  0  0  0  0  0  0
    5.4920   -9.8320  -15.7920 H   0  0  0  0  0  0  0  0  0  0  0  0
    4.2210  -10.9740  -14.1690 H   0  0  0  0  0  0  0  0  0  0  0  0
    3.8100  -10.4000  -12.7290 H   0  0  0  0  0  0  0  0  0  0  0  0
    5.1090   -9.8410  -13.4800 H   0  0  0  0  0  0  0  0  0  0  0  0
    1.4760   -8.7490  -14.0030 H   0  0  0  0  0  0  0  0  0  0  0  0
    2.4600   -7.5990  -13.4560 H   0  0  0  0  0  0  0  0  0  0  0  0
    2.2550   -8.9520  -12.6160 H   0  0  0  0  0  0  0  0  0  0  0  0
    2.0120   -7.6270  -15.8340 H   0  0  0  0  0  0  0  0  0  0  0  0
    2.4690   -7.0080  -18.0810 H   0  0  0  0  0  0  0  0  0  0  0  0
    5.4180   -8.3470  -21.3400 H   0  0  0  0  0  0  0  0  0  0  0  0
    5.4510   -9.4960  -20.1950 H   0  0  0  0  0  0  0  0  0  0  0  0
    2.4280   -9.6480  -19.3680 H   0  0  0  0  0  0  0  0  0  0  0  0
    3.6350  -10.7040  -19.5290 H   0  0  0  0  0  0  0  0  0  0  0  0
    2.2920  -10.8850  -20.3920 H   0  0  0  0  0  0  0  0  0  0  0  0
    6.0150   -8.5920  -26.0720 H   0  0  0  0  0  0  0  0  0  0  0  0
    7.2310   -9.1290  -25.1550 H   0  0  0  0  0  0  0  0  0  0  0  0
    6.5690   -7.6970  -24.8610 H   0  0  0  0  0  0  0  0  0  0  0  0
    3.6300  -12.0430  -21.7250 H   0  0  0  0  0  0  0  0  0  0  0  0
    2.1860  -10.3340  -23.9230 H   0  0  0  0  0  0  0  0  0  0  0  0
    1.7340  -11.0950  -22.5870 H   0  0  0  0  0  0  0  0  0  0  0  0
    1.2340   -8.4610  -23.1520 H   0  0  0  0  0  0  0  0  0  0  0  0
    0.8050   -9.2200  -21.8090 H   0  0  0  0  0  0  0  0  0  0  0  0
    3.2340   -7.8040  -22.2990 H   0  0  0  0  0  0  0  0  0  0  0  0
    1.7460   -7.8030  -19.9400 H   0  0  0  0  0  0  0  0  0  0  0  0
    0.3590   -6.9180  -21.4610 H   0  0  0  0  0  0  0  0  0  0  0  0
    1.5620   -6.4340  -22.4090 H   0  0  0  0  0  0  0  0  0  0  0  0
  -16.9928    6.5941   -1.8587 H   0  0  0  0  0  0  0  0  0  0  0  0
  -17.2281    5.6918   -3.2207 H   0  0  0  0  0  0  0  0  0  0  0  0
  -16.4104    4.9664   -4.2164 H   0  0  0  0  0  0  0  0  0  0  0  0
  -16.0168    6.5531   -6.1664 H   0  0  0  0  0  0  0  0  0  0  0  0
  -18.1090    4.9821   -6.0711 H   0  0  0  0  0  0  0  0  0  0  0  0
  -18.4458    4.7869   -7.3248 H   0  0  0  0  0  0  0  0  0  0  0  0
  -19.6959    7.3939   -9.3918 H   0  0  0  0  0  0  0  0  0  0  0  0
  -20.9822    7.8739   -7.1784 H   0  0  0  0  0  0  0  0  0  0  0  0
  -21.2555    9.2571   -7.2333 H   0  0  0  0  0  0  0  0  0  0  0  0
  -20.3142   10.0823   -9.5181 H   0  0  0  0  0  0  0  0  0  0  0  0
  -18.8956    9.7957   -7.3670 H   0  0  0  0  0  0  0  0  0  0  0  0
  -18.7195    8.3100   -9.4996 H   0  0  0  0  0  0  0  0  0  0  0  0
  -20.7989    3.0873  -11.2205 H   0  0  0  0  0  0  0  0  0  0  0  0
  -18.9945    2.0260  -11.3387 H   0  0  0  0  0  0  0  0  0  0  0  0
  -21.3708    2.1252  -10.6340 H   0  0  0  0  0  0  0  0  0  0  0  0
  -19.6699    1.0077  -11.1381 H   0  0  0  0  0  0  0  0  0  0  0  0
    3.8177   -0.9027  -18.9866 H   0  0  0  0  0  0  0  0  0  0  0  0
    4.2998   -2.5848  -20.7739 H   0  0  0  0  0  0  0  0  0  0  0  0
    2.9541   -3.1151  -21.3155 H   0  0  0  0  0  0  0  0  0  0  0  0
    2.1479   -4.5320  -19.3647 H   0  0  0  0  0  0  0  0  0  0  0  0
    4.0277   -5.3020  -20.9795 H   0  0  0  0  0  0  0  0  0  0  0  0
    3.9896   -6.6304  -21.0297 H   0  0  0  0  0  0  0  0  0  0  0  0
    5.1210   -7.3010  -18.4124 H   0  0  0  0  0  0  0  0  0  0  0  0
    5.7174   -8.0148  -17.2442 H   0  0  0  0  0  0  0  0  0  0  0  0
    5.4197   -8.3680  -15.9056 H   0  0  0  0  0  0  0  0  0  0  0  0
    3.1568   -9.6606  -15.9638 H   0  0  0  0  0  0  0  0  0  0  0  0
    3.3864   -7.0762  -15.9257 H   0  0  0  0  0  0  0  0  0  0  0  0
    2.5942   -8.5081  -17.9595 H   0  0  0  0  0  0  0  0  0  0  0  0
    4.8795  -10.7612  -23.7107 H   0  0  0  0  0  0  0  0  0  0  0  0
    3.9121   -8.9053  -23.5856 H   0  0  0  0  0  0  0  0  0  0  0  0
    5.8352  -10.2516  -24.3905 H   0  0  0  0  0  0  0  0  0  0  0  0
    4.6132   -8.5547  -24.5430 H   0  0  0  0  0  0  0  0  0  0  0  0
  1  2  1  0
  2  3  1  0
  2  4  1  0
  4  5  1  0
  5  6  1  0
  5  7  1  0
  3  8  1  0
  7  8  1  0
  7  9  1  0
  9 10  1  0
 10 11  1  0
 11 12  1  0
 12 13  1  0
 13 14  1  0
 14 15  1  0
 15 16  1  0
 15 17  1  0
 14 18  1  0
 11 19  1  0
 18 19  1  0
 10 20  1  0
 20 21  1  0
 21 22  1  6
 21 23  1  0
 23 24  1  0
 24 25  1  0
 25 26  1  0
 23 27  1  6
 23 28  1  0
 28 29  1  0
 21 30  1  0
 29 30  1  0
  9 31  1  0
 30 31  1  0
  6 32  1  0
 31 32  1  0
  3 33  1  0
  3 34  1  0
  4 35  1  0
  6 36  1  0
  6 37  1  0
  8 38  1  0
  8 39  1  0
 10 40  1  1
 12 41  1  0
 13 42  1  0
 16 43  1  0
 16 44  1  0
 16 45  1  0
 17 46  1  0
 17 47  1  0
 17 48  1  0
 18 49  1  0
 19 50  1  0
 20 51  1  0
 20 52  1  0
 22 53  1  0
 22 54  1  0
 22 55  1  0
 26 56  1  0
 26 57  1  0
 26 58  1  0
 27 59  1  0
 28 60  1  0
 28 61  1  0
 29 62  1  0
 29 63  1  0
 30 64  1  1
 31 65  1  6
 32 66  1  0
 32 67  1  0
 68 69  1  0
 69 70  1  0
 69 71  1  0
 71 72  1  0
 72 73  1  0
 72 74  1  0
 70 75  1  0
 74 75  1  0
 74 76  1  0
 76 77  1  0
 77 78  1  0
 78 79  1  0
 79 80  1  0
 80 81  1  0
 81 82  1  0
 82 83  1  0
 82 84  1  0
 81 85  1  0
 78 86  1  0
 85 86  1  0
 77 87  1  0
 87 88  1  0
 88 89  1  1
 88 90  1  0
 90 91  1  0
 91 92  1  0
 92 93  1  0
 90 94  1  1
 90 95  1  0
 95 96  1  0
 88 97  1  0
 96 97  1  0
 76 98  1  0
 97 98  1  0
 73 99  1  0
 98 99  1  0
 70100  1  0
 70101  1  0
 71102  1  0
 73103  1  0
 73104  1  0
 75105  1  0
 75106  1  0
 77107  1  1
 79108  1  0
 80109  1  0
 83110  1  0
 83111  1  0
 83112  1  0
 84113  1  0
 84114  1  0
 84115  1  0
 85116  1  0
 86117  1  0
 87118  1  0
 87119  1  0
 89120  1  0
 89121  1  0
 89122  1  0
 93123  1  0
 93124  1  0
 93125  1  0
 94126  1  0
 95127  1  0
 95128  1  0
 96129  1  0
 96130  1  0
 97131  1  6
 98132  1  1
 99133  1  0
 99134  1  0
  1135  1  0
  2136  1  0
  4137  1  0
  5138  1  1
  7139  1  0
  9140  1  1
 11141  1  1
 12142  1  0
 13143  1  0
 14144  1  0
 18145  1  0
 19146  1  0
 24147  1  0
 24148  1  0
 25149  1  0
 25150  1  0
 68151  1  0
 69152  1  6
 71153  1  0
 72154  1  6
 74155  1  0
 76156  1  6
 78157  1  1
 79158  1  0
 80159  1  0
 81160  1  0
 85161  1  0
 86162  1  0
 91163  1  0
 91164  1  0
 92165  1  0
 92166  1  0
M  END
>  <PDBID>  (1) 
4LTW

>  <PDB ID>  (1) 
4LTW

>  <Generic Name>  (1) 
Mifepristone

>  <Brand Name>  (1) 
Korlym#Mifegymiso#Corlux#Mefipil#Mifegyne#Mifeprex

>  <DrugBank ID>  (1) 
DB00834

>  <ATC Codes>  (1) 
G03XB01#G03XB51

>  <Ligand ID>  (1) 
486

>  <Target Name>  (1) 
Progesterone receptor

>  <UniProt ID>  (1) 
P06401

>  <PDB ID.1>  (1) 
4LTW

>  <Seq. Identity>  (1) 
66%

$$$$
