PDB_DB01254_96
     RDKit          3D

 59 62  0  0  0  0  0  0  0  0999 V2000
  -15.9750  -31.8310   16.6950 C   0  0  0  0  0  0  0  0  0  0  0  0
  -14.6720  -32.3390   16.7630 C   0  0  0  0  0  0  0  0  0  0  0  0
  -13.6840  -32.7000   15.7070 C   0  0  0  0  0  0  0  0  0  0  0  0
  -17.2250  -32.6190   27.4620 N   0  0  0  0  0  0  0  0  0  0  0  0
  -11.1180  -33.5820   11.4380 C   0  0  0  0  0  0  0  0  0  0  0  0
  -12.1840  -34.4020   11.7970 C   0  0  0  0  0  0  0  0  0  0  0  0
  -13.1180  -34.0200   12.7750 C   0  0  0  0  0  0  0  0  0  0  0  0
  -14.2320  -34.9960   13.0690 C   0  0  0  0  0  0  0  0  0  0  0  0
  -15.6460  -32.3100   21.4020 C   0  0  0  0  0  0  0  0  0  0  0  0
  -16.2490  -32.1330   22.6300 C   0  0  0  0  0  0  0  0  0  0  0  0
  -15.5680  -32.6210   23.7500 C   0  0  0  0  0  0  0  0  0  0  0  0
  -13.8100  -33.3990   22.4750 C   0  0  0  0  0  0  0  0  0  0  0  0
  -12.4670  -34.0870   22.3750 C   0  0  0  0  0  0  0  0  0  0  0  0
  -17.0310  -31.4930   25.3120 C   0  0  0  0  0  0  0  0  0  0  0  0
  -15.4950  -33.4820   25.9880 C   0  0  0  0  0  0  0  0  0  0  0  0
  -17.8800  -32.4050   28.7480 C   0  0  0  0  0  0  0  0  0  0  0  0
  -17.4660  -31.0020   29.1670 C   0  0  0  0  0  0  0  0  0  0  0  0
  -16.2580  -31.8720   20.2470 N   0  0  0  0  0  0  0  0  0  0  0  0
  -15.7740  -32.0060   18.9750 C   0  0  0  0  0  0  0  0  0  0  0  0
  -16.5470  -31.6610   17.9280 N   0  0  0  0  0  0  0  0  0  0  0  0
  -14.1900  -32.6020   18.4410 S   0  0  0  0  0  0  0  0  0  0  0  0
  -13.9200  -32.4190   14.4100 N   0  0  0  0  0  0  0  0  0  0  0  0
  -13.0260  -32.8010   13.4330 C   0  0  0  0  0  0  0  0  0  0  0  0
  -11.9430  -31.9870   13.0660 C   0  0  0  0  0  0  0  0  0  0  0  0
  -11.0050  -32.3540   12.0880 C   0  0  0  0  0  0  0  0  0  0  0  0
  -11.7180  -30.3930   13.8430 Cl  0  0  0  0  0  0  0  0  0  0  0  0
  -12.6640  -33.2420   16.0930 O   0  0  0  0  0  0  0  0  0  0  0  0
  -14.3770  -33.2380   23.6790 N   0  0  0  0  0  0  0  0  0  0  0  0
  -14.4540  -32.9360   21.3760 N   0  0  0  0  0  0  0  0  0  0  0  0
  -16.0490  -32.5090   25.0210 N   0  0  0  0  0  0  0  0  0  0  0  0
  -17.9660  -32.1760   26.2790 C   0  0  0  0  0  0  0  0  0  0  0  0
  -15.8470  -33.0940   27.4160 C   0  0  0  0  0  0  0  0  0  0  0  0
  -18.5480  -30.1230   28.8000 O   0  0  0  0  0  0  0  0  0  0  0  0
  -16.4859  -31.5933   15.7503 H   0  0  0  0  0  0  0  0  0  0  0  0
  -10.3927  -33.8911   10.6709 H   0  0  0  0  0  0  0  0  0  0  0  0
  -12.2986  -35.3771   11.3009 H   0  0  0  0  0  0  0  0  0  0  0  0
  -14.3506  -35.0999   14.1576 H   0  0  0  0  0  0  0  0  0  0  0  0
  -15.1703  -34.6240   12.6318 H   0  0  0  0  0  0  0  0  0  0  0  0
  -13.9866  -35.9751   12.6318 H   0  0  0  0  0  0  0  0  0  0  0  0
  -17.2228  -31.6301   22.7243 H   0  0  0  0  0  0  0  0  0  0  0  0
  -12.0803  -34.2851   23.3856 H   0  0  0  0  0  0  0  0  0  0  0  0
  -12.5814  -35.0375   21.8333 H   0  0  0  0  0  0  0  0  0  0  0  0
  -11.7624  -33.4388   21.8333 H   0  0  0  0  0  0  0  0  0  0  0  0
  -16.5610  -30.6125   25.7745 H   0  0  0  0  0  0  0  0  0  0  0  0
  -17.5419  -31.1198   24.4122 H   0  0  0  0  0  0  0  0  0  0  0  0
  -15.9098  -34.4780   25.7735 H   0  0  0  0  0  0  0  0  0  0  0  0
  -14.3996  -33.4902   25.8875 H   0  0  0  0  0  0  0  0  0  0  0  0
  -18.9729  -32.4710   28.6419 H   0  0  0  0  0  0  0  0  0  0  0  0
  -17.5915  -33.1623   29.4918 H   0  0  0  0  0  0  0  0  0  0  0  0
  -17.2994  -30.9647   30.2537 H   0  0  0  0  0  0  0  0  0  0  0  0
  -16.5291  -30.7026   28.6745 H   0  0  0  0  0  0  0  0  0  0  0  0
  -17.1667  -31.3986   20.3521 H   0  0  0  0  0  0  0  0  0  0  0  0
  -14.7777  -31.9134   14.1462 H   0  0  0  0  0  0  0  0  0  0  0  0
  -10.1801  -31.6719   11.8344 H   0  0  0  0  0  0  0  0  0  0  0  0
  -18.4247  -33.0474   25.7887 H   0  0  0  0  0  0  0  0  0  0  0  0
  -18.7487  -31.4672   26.5870 H   0  0  0  0  0  0  0  0  0  0  0  0
  -15.1717  -32.2953   27.7566 H   0  0  0  0  0  0  0  0  0  0  0  0
  -15.7375  -33.9696   28.0728 H   0  0  0  0  0  0  0  0  0  0  0  0
  -18.9801  -29.7719   29.6186 H   0  0  0  0  0  0  0  0  0  0  0  0
  1  2  2  0
  2  3  1  0
  5  6  2  0
  6  7  1  0
  7  8  1  0
  9 10  2  0
 10 11  1  0
 12 13  1  0
  4 16  1  0
 16 17  1  0
  9 18  1  0
 18 19  1  0
  1 20  1  0
 19 20  2  0
  2 21  1  0
 19 21  1  0
  3 22  1  0
  7 23  2  0
 22 23  1  0
 23 24  1  0
  5 25  1  0
 24 25  2  0
 24 26  1  0
  3 27  2  0
 11 28  2  0
 12 28  1  0
  9 29  1  0
 12 29  2  0
 11 30  1  0
 14 30  1  0
 15 30  1  0
  4 31  1  0
 14 31  1  0
  4 32  1  0
 15 32  1  0
 17 33  1  0
  1 34  1  0
  5 35  1  0
  6 36  1  0
  8 37  1  0
  8 38  1  0
  8 39  1  0
 10 40  1  0
 13 41  1  0
 13 42  1  0
 13 43  1  0
 14 44  1  0
 14 45  1  0
 15 46  1  0
 15 47  1  0
 16 48  1  0
 16 49  1  0
 17 50  1  0
 17 51  1  0
 18 52  1  0
 22 53  1  0
 25 54  1  0
 31 55  1  0
 31 56  1  0
 32 57  1  0
 32 58  1  0
 33 59  1  0
M  END
$$$$
