PDB_DB00834_97
     RDKit          3D

 67 71  0  0  0  0  0  0  0  0999 V2000
    3.8120   -1.3030  -19.8920 O   0  0  0  0  0  0  0  0  0  0  0  0
    3.7950   -2.5030  -19.8000 C   0  0  0  0  0  0  0  0  0  0  0  0
    5.0010   -3.1690  -19.1190 C   0  0  0  0  0  0  0  0  0  0  0  0
    2.5850   -3.1900  -20.2820 C   0  0  0  0  0  0  0  0  0  0  0  0
    2.5060   -4.4560  -20.4020 C   0  0  0  0  0  0  0  0  0  0  0  0
    1.0620   -5.0080  -20.9410 C   0  0  0  0  0  0  0  0  0  0  0  0
    3.5790   -5.3630  -19.9770 C   0  0  0  0  0  0  0  0  0  0  0  0
    4.9000   -4.7420  -19.3480 C   0  0  0  0  0  0  0  0  0  0  0  0
    3.4330   -6.6440  -20.0810 C   0  0  0  0  0  0  0  0  0  0  0  0
    4.4150   -7.7010  -19.5200 C   0  0  1  0  0  0  0  0  0  0  0  0
    4.2830   -8.0040  -18.2960 C   0  0  0  0  0  0  0  0  0  0  0  0
    5.1290   -8.8730  -17.6010 C   0  0  0  0  0  0  0  0  0  0  0  0
    4.8610   -9.2460  -16.2620 C   0  0  0  0  0  0  0  0  0  0  0  0
    3.7210   -8.7930  -15.5910 C   0  0  0  0  0  0  0  0  0  0  0  0
    3.4180   -9.1830  -14.2250 N   0  0  0  0  0  0  0  0  0  0  0  0
    4.2010  -10.1750  -13.6050 C   0  0  0  0  0  0  0  0  0  0  0  0
    2.3140   -8.5730  -13.5170 C   0  0  0  0  0  0  0  0  0  0  0  0
    2.8310   -7.9580  -16.2780 C   0  0  0  0  0  0  0  0  0  0  0  0
    3.1100   -7.6020  -17.6090 C   0  0  0  0  0  0  0  0  0  0  0  0
    4.9170   -8.7840  -20.6190 C   0  0  0  0  0  0  0  0  0  0  0  0
    3.5340   -9.3520  -21.1500 C   0  0  2  0  0  0  0  0  0  0  0  0
    2.9150  -10.2300  -20.0040 C   0  0  0  0  0  0  0  0  0  0  0  0
    3.7310  -10.2470  -22.3770 C   0  0  1  0  0  0  0  0  0  0  0  0
    4.6060   -9.7400  -23.4070 C   0  0  0  0  0  0  0  0  0  0  0  0
    5.3870   -9.2630  -24.2120 C   0  0  0  0  0  0  0  0  0  0  0  0
    6.3890   -8.6100  -25.1570 C   0  0  0  0  0  0  0  0  0  0  0  0
    4.2700  -11.5260  -22.0540 O   0  0  0  0  0  0  0  0  0  0  0  0
    2.1910  -10.3190  -22.9420 C   0  0  0  0  0  0  0  0  0  0  0  0
    1.5400   -9.0140  -22.4140 C   0  0  0  0  0  0  0  0  0  0  0  0
    2.7070   -8.3070  -21.6380 C   0  0  1  0  0  0  0  0  0  0  0  0
    2.2260   -7.3390  -20.6510 C   0  0  2  0  0  0  0  0  0  0  0  0
    1.2420   -6.4750  -21.4710 C   0  0  0  0  0  0  0  0  0  0  0  0
    5.9341   -2.7882  -19.5599 H   0  0  0  0  0  0  0  0  0  0  0  0
    5.0009   -2.9423  -18.0426 H   0  0  0  0  0  0  0  0  0  0  0  0
    1.7086   -2.5820  -20.5509 H   0  0  0  0  0  0  0  0  0  0  0  0
    0.3332   -5.0002  -20.1171 H   0  0  0  0  0  0  0  0  0  0  0  0
    0.6960   -4.3616  -21.7524 H   0  0  0  0  0  0  0  0  0  0  0  0
    5.7314   -5.0217  -20.0118 H   0  0  0  0  0  0  0  0  0  0  0  0
    4.9142   -5.1509  -18.3269 H   0  0  0  0  0  0  0  0  0  0  0  0
    5.3792   -7.1985  -19.3530 H   0  0  0  0  0  0  0  0  0  0  0  0
    6.0206   -9.2749  -18.1045 H   0  0  0  0  0  0  0  0  0  0  0  0
    5.5659   -9.9076  -15.7372 H   0  0  0  0  0  0  0  0  0  0  0  0
    4.1219  -10.0748  -12.5124 H   0  0  0  0  0  0  0  0  0  0  0  0
    3.8415  -11.1691  -13.9090 H   0  0  0  0  0  0  0  0  0  0  0  0
    5.2514  -10.0562  -13.9090 H   0  0  0  0  0  0  0  0  0  0  0  0
    2.4785   -8.6639  -12.4332 H   0  0  0  0  0  0  0  0  0  0  0  0
    2.2463   -7.5095  -13.7897 H   0  0  0  0  0  0  0  0  0  0  0  0
    1.3776   -9.0817  -13.7897 H   0  0  0  0  0  0  0  0  0  0  0  0
    1.9233   -7.5847  -15.7814 H   0  0  0  0  0  0  0  0  0  0  0  0
    2.3796   -6.9787  -18.1457 H   0  0  0  0  0  0  0  0  0  0  0  0
    5.4910   -8.3034  -21.4249 H   0  0  0  0  0  0  0  0  0  0  0  0
    5.5951   -9.5517  -20.2179 H   0  0  0  0  0  0  0  0  0  0  0  0
    3.2065   -9.8166  -19.0272 H   0  0  0  0  0  0  0  0  0  0  0  0
    1.8185  -10.2266  -20.0911 H   0  0  0  0  0  0  0  0  0  0  0  0
    3.2866  -11.2617  -20.0911 H   0  0  0  0  0  0  0  0  0  0  0  0
    7.1687   -8.1019  -24.5706 H   0  0  0  0  0  0  0  0  0  0  0  0
    6.8511   -9.3809  -25.7912 H   0  0  0  0  0  0  0  0  0  0  0  0
    5.8703   -7.8760  -25.7912 H   0  0  0  0  0  0  0  0  0  0  0  0
    4.3127  -11.6272  -21.0701 H   0  0  0  0  0  0  0  0  0  0  0  0
    2.1782  -10.3459  -24.0416 H   0  0  0  0  0  0  0  0  0  0  0  0
    1.6590  -11.2231  -22.6110 H   0  0  0  0  0  0  0  0  0  0  0  0
    1.1854   -8.3876  -23.2458 H   0  0  0  0  0  0  0  0  0  0  0  0
    0.6588   -9.2011  -21.7828 H   0  0  0  0  0  0  0  0  0  0  0  0
    3.3127   -7.6567  -22.2863 H   0  0  0  0  0  0  0  0  0  0  0  0
    1.6974   -7.7241  -19.7665 H   0  0  0  0  0  0  0  0  0  0  0  0
    0.2587   -6.9679  -21.4569 H   0  0  0  0  0  0  0  0  0  0  0  0
    1.6683   -6.3912  -22.4816 H   0  0  0  0  0  0  0  0  0  0  0  0
  1  2  2  0
  2  3  1  0
  2  4  1  0
  4  5  2  0
  5  6  1  0
  5  7  1  0
  3  8  1  0
  7  8  1  0
  7  9  2  0
  9 10  1  0
 10 11  1  0
 11 12  2  0
 12 13  1  0
 13 14  2  0
 14 15  1  0
 15 16  1  0
 15 17  1  0
 14 18  1  0
 11 19  1  0
 18 19  2  0
 10 20  1  0
 20 21  1  0
 21 22  1  1
 21 23  1  0
 23 24  1  6
 24 25  3  0
 25 26  1  0
 23 27  1  0
 23 28  1  0
 28 29  1  0
 21 30  1  0
 29 30  1  0
  9 31  1  0
 30 31  1  0
  6 32  1  0
 31 32  1  0
  3 33  1  0
  3 34  1  0
  4 35  1  0
  6 36  1  0
  6 37  1  0
  8 38  1  0
  8 39  1  0
 10 40  1  1
 12 41  1  0
 13 42  1  0
 16 43  1  0
 16 44  1  0
 16 45  1  0
 17 46  1  0
 17 47  1  0
 17 48  1  0
 18 49  1  0
 19 50  1  0
 20 51  1  0
 20 52  1  0
 22 53  1  0
 22 54  1  0
 22 55  1  0
 26 56  1  0
 26 57  1  0
 26 58  1  0
 27 59  1  0
 28 60  1  0
 28 61  1  0
 29 62  1  0
 29 63  1  0
 30 64  1  6
 31 65  1  1
 32 66  1  0
 32 67  1  0
M  END
$$$$
