PDB_DB00819_90
     RDKit          3D

 19 19  0  0  0  0  0  0  0  0999 V2000
   32.6260  -10.7080  -23.7930 C   0  0  0  0  0  0  0  0  0  0  0  0
   34.9160  -10.9350  -24.3240 C   0  0  0  0  0  0  0  0  0  0  0  0
   36.7700  -12.4230  -24.8200 C   0  0  0  0  0  0  0  0  0  0  0  0
   38.2310  -12.2360  -25.1570 C   0  0  0  0  0  0  0  0  0  0  0  0
   30.6480   -9.7520  -22.1960 N   0  0  0  0  0  0  0  0  0  0  0  0
   34.4130   -9.7190  -24.6890 N   0  0  0  0  0  0  0  0  0  0  0  0
   33.0130   -9.5640  -24.3760 N   0  0  0  0  0  0  0  0  0  0  0  0
   35.9430  -11.4290  -25.1610 N   0  0  0  0  0  0  0  0  0  0  0  0
   30.2210  -10.6210  -24.4910 O   0  0  0  0  0  0  0  0  0  0  0  0
   30.8050  -12.2030  -22.6740 O   0  0  0  0  0  0  0  0  0  0  0  0
   36.3520  -13.4610  -24.2750 O   0  0  0  0  0  0  0  0  0  0  0  0
   30.9820  -10.8990  -23.2900 S   0  0  0  0  0  0  0  0  0  0  0  0
   33.8330  -11.9120  -23.6230 S   0  0  0  0  0  0  0  0  0  0  0  0
   38.8150  -12.1613  -24.2278 H   0  0  0  0  0  0  0  0  0  0  0  0
   38.5849  -13.0962  -25.7443 H   0  0  0  0  0  0  0  0  0  0  0  0
   38.3568  -11.3144  -25.7443 H   0  0  0  0  0  0  0  0  0  0  0  0
   30.7606  -10.1386  -21.2480 H   0  0  0  0  0  0  0  0  0  0  0  0
   31.2930   -8.9589  -22.3222 H   0  0  0  0  0  0  0  0  0  0  0  0
   36.0612  -10.9975  -26.0887 H   0  0  0  0  0  0  0  0  0  0  0  0
  3  4  1  0
  2  6  2  0
  1  7  2  0
  6  7  1  0
  2  8  1  0
  3  8  1  0
  3 11  2  0
  1 12  1  0
  5 12  1  0
  9 12  2  0
 10 12  2  0
  1 13  1  0
  2 13  1  0
  4 14  1  0
  4 15  1  0
  4 16  1  0
  5 17  1  0
  5 18  1  0
  8 19  1  0
M  END
$$$$
