PDB_DB00990_99
     RDKit          3D

 56 59  0  0  0  0  0  0  0  0999 V2000
   84.2060   52.5630   48.9090 C   0  0  0  0  0  0  0  0  0  0  0  0
   87.4480   51.8130   45.4250 C   0  0  0  0  0  0  0  0  0  0  0  0
   88.6760   49.8980   48.1490 O   0  0  0  0  0  0  0  0  0  0  0  0
   88.1970   50.9020   46.1640 C   0  0  0  0  0  0  0  0  0  0  0  0
   86.0160   58.9170   43.8660 O   0  0  0  0  0  0  0  0  0  0  0  0
   87.9640   50.7130   47.5200 C   0  0  0  0  0  0  0  0  0  0  0  0
   86.9630   51.4260   48.1740 C   0  0  0  0  0  0  0  0  0  0  0  0
   86.1780   52.3270   47.4640 C   0  0  0  0  0  0  0  0  0  0  0  0
   85.1220   53.1230   48.1490 C   0  0  0  0  0  0  0  0  0  0  0  0
   85.1630   54.6150   47.9250 C   0  0  0  0  0  0  0  0  0  0  0  0
   85.3750   54.8930   46.4370 C   0  0  2  0  0  0  0  0  0  0  0  0
   86.5740   54.1180   45.8500 C   0  0  1  0  0  0  0  0  0  0  0  0
   86.3560   52.6020   45.9950 C   0  0  1  0  0  0  0  0  0  0  0  0
   86.9210   54.5320   44.4050 C   0  0  0  0  0  0  0  0  0  0  0  0
   86.9420   56.0460   44.1610 C   0  0  0  0  0  0  0  0  0  0  0  0
   85.6480   56.6670   44.6620 C   0  0  1  0  0  0  0  0  0  0  0  0
   85.5610   56.3720   46.1480 C   0  0  1  0  0  0  0  0  0  0  0  0
   84.5560   57.3740   46.7160 C   0  0  0  0  0  0  0  0  0  0  0  0
   84.8750   58.6660   45.9580 C   0  0  0  0  0  0  0  0  0  0  0  0
   85.5740   58.1650   44.7170 C   0  0  0  0  0  0  0  0  0  0  0  0
   84.4460   56.1900   43.8540 C   0  0  0  0  0  0  0  0  0  0  0  0
   85.0840   52.1760   45.2580 C   0  0  0  0  0  0  0  0  0  0  0  0
   84.4619   52.7194   49.9673 H   0  0  0  0  0  0  0  0  0  0  0  0
   83.2266   53.0169   48.6976 H   0  0  0  0  0  0  0  0  0  0  0  0
   84.1635   51.4843   48.6976 H   0  0  0  0  0  0  0  0  0  0  0  0
   88.1684   52.5406   45.0231 H   0  0  0  0  0  0  0  0  0  0  0  0
   86.9009   51.1438   44.7447 H   0  0  0  0  0  0  0  0  0  0  0  0
   88.5551   50.0364   49.1218 H   0  0  0  0  0  0  0  0  0  0  0  0
   88.0584   49.9220   45.6840 H   0  0  0  0  0  0  0  0  0  0  0  0
   89.2009   51.3514   46.1531 H   0  0  0  0  0  0  0  0  0  0  0  0
   86.4660   59.6826   44.3037 H   0  0  0  0  0  0  0  0  0  0  0  0
   88.6771   51.5170   47.7546 H   0  0  0  0  0  0  0  0  0  0  0  0
   86.2788   50.6846   48.6124 H   0  0  0  0  0  0  0  0  0  0  0  0
   87.5220   52.0691   48.8697 H   0  0  0  0  0  0  0  0  0  0  0  0
   85.4466   51.5306   47.2620 H   0  0  0  0  0  0  0  0  0  0  0  0
   85.7775   53.2391   49.0247 H   0  0  0  0  0  0  0  0  0  0  0  0
   84.2126   55.0625   48.2513 H   0  0  0  0  0  0  0  0  0  0  0  0
   85.9885   55.0537   48.5047 H   0  0  0  0  0  0  0  0  0  0  0  0
   84.4539   54.5416   45.9491 H   0  0  0  0  0  0  0  0  0  0  0  0
   87.4603   54.3928   46.4407 H   0  0  0  0  0  0  0  0  0  0  0  0
   87.9168   54.1319   44.1634 H   0  0  0  0  0  0  0  0  0  0  0  0
   86.1247   54.1246   43.7648 H   0  0  0  0  0  0  0  0  0  0  0  0
   87.7924   56.4907   44.6986 H   0  0  0  0  0  0  0  0  0  0  0  0
   87.0432   56.2384   43.0827 H   0  0  0  0  0  0  0  0  0  0  0  0
   86.5032   56.5339   46.6921 H   0  0  0  0  0  0  0  0  0  0  0  0
   83.5233   57.0486   46.5219 H   0  0  0  0  0  0  0  0  0  0  0  0
   84.6325   57.4867   47.8075 H   0  0  0  0  0  0  0  0  0  0  0  0
   83.9550   59.2116   45.7011 H   0  0  0  0  0  0  0  0  0  0  0  0
   85.4812   59.3741   46.5422 H   0  0  0  0  0  0  0  0  0  0  0  0
   84.6086   58.1366   44.1905 H   0  0  0  0  0  0  0  0  0  0  0  0
   83.6462   55.8726   44.5392 H   0  0  0  0  0  0  0  0  0  0  0  0
   84.0811   57.0115   43.2199 H   0  0  0  0  0  0  0  0  0  0  0  0
   84.7436   55.3418   43.2199 H   0  0  0  0  0  0  0  0  0  0  0  0
   84.3057   51.9154   45.9904 H   0  0  0  0  0  0  0  0  0  0  0  0
   84.7308   53.0049   44.6270 H   0  0  0  0  0  0  0  0  0  0  0  0
   85.3013   51.3016   44.6270 H   0  0  0  0  0  0  0  0  0  0  0  0
  2  4  1  0
  3  6  1  0
  4  6  1  0
  6  7  1  0
  7  8  1  0
  1  9  1  0
  8  9  1  0
  9 10  1  0
 10 11  1  0
 11 12  1  0
  2 13  1  0
  8 13  1  0
 12 13  1  0
 12 14  1  0
 14 15  1  0
 15 16  1  0
 11 17  1  0
 16 17  1  0
 17 18  1  0
 18 19  1  0
  5 20  1  0
 16 20  1  0
 19 20  1  0
 16 21  1  6
 13 22  1  6
  1 23  1  0
  1 24  1  0
  1 25  1  0
  2 26  1  0
  2 27  1  0
  3 28  1  0
  4 29  1  0
  4 30  1  0
  5 31  1  0
  6 32  1  0
  7 33  1  0
  7 34  1  0
  8 35  1  0
  9 36  1  0
 10 37  1  0
 10 38  1  0
 11 39  1  6
 12 40  1  1
 14 41  1  0
 14 42  1  0
 15 43  1  0
 15 44  1  0
 17 45  1  1
 18 46  1  0
 18 47  1  0
 19 48  1  0
 19 49  1  0
 20 50  1  0
 21 51  1  0
 21 52  1  0
 21 53  1  0
 22 54  1  0
 22 55  1  0
 22 56  1  0
M  END
>  <PDBID>  (1) 
3S7S

>  <PDB ID>  (1) 
3S7S

>  <Generic Name>  (1) 
Exemestane

>  <Brand Name>  (1) 
Act Exemestane#Apo-exemestane#Aromasin#Exemestane#Gd-exemestane#Med-exemestane#Mylan-exemestane#Teva-exemestane#Exemestance

>  <DrugBank ID>  (1) 
DB00990

>  <ATC Codes>  (1) 
L02BG06

>  <Ligand ID>  (1) 
EXM

>  <Target Name>  (1) 
Aromatase

>  <UniProt ID>  (1) 
P11511

>  <PDB ID.1>  (1) 
3S7S

>  <Seq. Identity>  (1) 
98%

$$$$
