PDB_DB01051_95
     RDKit          3D

 80 83  0  0  0  0  0  0  0  0999 V2000
  -30.3150    2.2170    3.2210 C   0  0  0  0  0  0  0  0  0  0  0  0
  -30.4790    3.1370    2.1470 O   0  0  0  0  0  0  0  0  0  0  0  0
  -26.4050    1.5070    0.6200 N   0  0  0  0  0  0  0  0  0  0  0  0
  -27.3600    2.1960    0.0040 C   0  0  0  0  0  0  0  0  0  0  0  0
  -27.1760    3.0470   -0.8450 O   0  0  0  0  0  0  0  0  0  0  0  0
  -28.5800    1.8320    0.4540 O   0  0  0  0  0  0  0  0  0  0  0  0
  -30.8890    2.5420    0.9190 C   0  0  2  0  0  0  0  0  0  0  0  0
  -29.7360    2.5110   -0.0830 C   0  0  2  0  0  0  0  0  0  0  0  0
  -30.1870    1.9120   -1.4110 C   0  0  1  0  0  0  0  0  0  0  0  0
  -30.6120    0.5640   -1.2800 O   0  0  0  0  0  0  0  0  0  0  0  0
  -31.2960    2.7670   -2.0130 C   0  0  1  0  0  0  0  0  0  0  0  0
  -32.3600    3.0380   -1.0900 O   0  0  0  0  0  0  0  0  0  0  0  0
  -32.1250    3.3550    0.3120 C   0  0  0  0  0  0  0  0  0  0  0  0
  -31.9490    4.8680    0.3910 C   0  0  0  0  0  0  0  0  0  0  0  0
  -33.3910    2.9360    1.0380 C   0  0  0  0  0  0  0  0  0  0  0  0
  -30.6570    3.9260   -2.5100 O   0  0  0  0  0  0  0  0  0  0  0  0
  -31.3500    4.8460   -3.2640 C   0  0  0  0  0  0  0  0  0  0  0  0
  -30.5550    5.8910   -3.7550 C   0  0  0  0  0  0  0  0  0  0  0  0
  -29.0590    5.9090   -3.5280 C   0  0  0  0  0  0  0  0  0  0  0  0
  -31.1870    6.8660   -4.5260 C   0  0  0  0  0  0  0  0  0  0  0  0
  -32.5560    6.8290   -4.8090 C   0  0  0  0  0  0  0  0  0  0  0  0
  -33.3170    5.7840   -4.2800 C   0  0  0  0  0  0  0  0  0  0  0  0
  -32.7220    4.7900   -3.5210 C   0  0  0  0  0  0  0  0  0  0  0  0
  -30.3640    7.8400   -5.0600 O   0  0  0  0  0  0  0  0  0  0  0  0
  -30.8200    8.8070   -5.9320 C   0  0  0  0  0  0  0  0  0  0  0  0
  -29.9930    9.5960   -6.3250 O   0  0  0  0  0  0  0  0  0  0  0  0
  -32.3010    8.7770   -6.2980 C   0  0  0  0  0  0  0  0  0  0  0  0
  -33.1000    7.8330   -5.7100 C   0  0  0  0  0  0  0  0  0  0  0  0
  -34.4150    7.7870   -5.8840 O   0  0  0  0  0  0  0  0  0  0  0  0
  -32.6060    9.7060   -7.3200 N   0  0  0  0  0  0  0  0  0  0  0  0
  -32.8100    9.3560   -8.6440 C   0  0  0  0  0  0  0  0  0  0  0  0
  -32.8500    8.1840   -9.0210 O   0  0  0  0  0  0  0  0  0  0  0  0
  -33.0030   10.4830   -9.6120 C   0  0  0  0  0  0  0  0  0  0  0  0
  -33.4920   11.7250   -9.2080 C   0  0  0  0  0  0  0  0  0  0  0  0
  -33.7280   12.7510  -10.1280 C   0  0  0  0  0  0  0  0  0  0  0  0
  -33.4690   12.5020  -11.4820 C   0  0  0  0  0  0  0  0  0  0  0  0
  -33.7300   13.4550  -12.4160 O   0  0  0  0  0  0  0  0  0  0  0  0
  -32.9650   11.2680  -11.8880 C   0  0  0  0  0  0  0  0  0  0  0  0
  -32.7320   10.2710  -10.9610 C   0  0  0  0  0  0  0  0  0  0  0  0
  -34.2170   14.1180   -9.6780 C   0  0  0  0  0  0  0  0  0  0  0  0
  -34.9910   14.1960   -8.3900 C   0  0  0  0  0  0  0  0  0  0  0  0
  -36.1620   14.7820   -8.1720 C   0  0  0  0  0  0  0  0  0  0  0  0
  -36.8020   14.7780   -6.8180 C   0  0  0  0  0  0  0  0  0  0  0  0
  -36.9630   15.4780   -9.2360 C   0  0  0  0  0  0  0  0  0  0  0  0
  -30.4101    2.7503    4.1784 H   0  0  0  0  0  0  0  0  0  0  0  0
  -31.0883    1.4373    3.1572 H   0  0  0  0  0  0  0  0  0  0  0  0
  -29.3199    1.7525    3.1572 H   0  0  0  0  0  0  0  0  0  0  0  0
  -26.6539    0.8026    1.3290 H   0  0  0  0  0  0  0  0  0  0  0  0
  -25.4160    1.6774    0.3884 H   0  0  0  0  0  0  0  0  0  0  0  0
  -31.1975    1.5050    1.1177 H   0  0  0  0  0  0  0  0  0  0  0  0
  -29.4281    3.5492   -0.2763 H   0  0  0  0  0  0  0  0  0  0  0  0
  -29.3184    1.9072   -2.0859 H   0  0  0  0  0  0  0  0  0  0  0  0
  -30.6849    0.3328   -0.3201 H   0  0  0  0  0  0  0  0  0  0  0  0
  -31.8141    2.2370   -2.8259 H   0  0  0  0  0  0  0  0  0  0  0  0
  -31.9129    5.1784    1.4457 H   0  0  0  0  0  0  0  0  0  0  0  0
  -31.0115    5.1546   -0.1079 H   0  0  0  0  0  0  0  0  0  0  0  0
  -32.7957    5.3622   -0.1079 H   0  0  0  0  0  0  0  0  0  0  0  0
  -33.2260    2.9906    2.1242 H   0  0  0  0  0  0  0  0  0  0  0  0
  -34.2143    3.6096    0.7579 H   0  0  0  0  0  0  0  0  0  0  0  0
  -33.6499    1.9043    0.7579 H   0  0  0  0  0  0  0  0  0  0  0  0
  -28.8521    5.9115   -2.4476 H   0  0  0  0  0  0  0  0  0  0  0  0
  -28.6079    5.0162   -3.9857 H   0  0  0  0  0  0  0  0  0  0  0  0
  -28.6295    6.8124   -3.9857 H   0  0  0  0  0  0  0  0  0  0  0  0
  -34.4003    5.7502   -4.4682 H   0  0  0  0  0  0  0  0  0  0  0  0
  -33.3261    3.9614   -3.1229 H   0  0  0  0  0  0  0  0  0  0  0  0
  -34.8581    8.4386   -6.4833 H   0  0  0  0  0  0  0  0  0  0  0  0
  -32.6807   10.7010   -7.0644 H   0  0  0  0  0  0  0  0  0  0  0  0
  -33.6966   11.9014   -8.1417 H   0  0  0  0  0  0  0  0  0  0  0  0
  -33.5455   13.2750  -13.3718 H   0  0  0  0  0  0  0  0  0  0  0  0
  -32.7517   11.0870  -12.9518 H   0  0  0  0  0  0  0  0  0  0  0  0
  -32.3292    9.3021  -11.2911 H   0  0  0  0  0  0  0  0  0  0  0  0
  -33.3330   14.7635   -9.5694 H   0  0  0  0  0  0  0  0  0  0  0  0
  -34.9355   14.4245  -10.4525 H   0  0  0  0  0  0  0  0  0  0  0  0
  -34.5287   13.7062   -7.5203 H   0  0  0  0  0  0  0  0  0  0  0  0
  -36.0211   14.7829   -6.0433 H   0  0  0  0  0  0  0  0  0  0  0  0
  -37.4331   15.6722   -6.7081 H   0  0  0  0  0  0  0  0  0  0  0  0
  -37.4219   13.8760   -6.7081 H   0  0  0  0  0  0  0  0  0  0  0  0
  -37.7127   16.1295   -8.7633 H   0  0  0  0  0  0  0  0  0  0  0  0
  -36.2922   16.0850   -9.8618 H   0  0  0  0  0  0  0  0  0  0  0  0
  -37.4704   14.7290   -9.8618 H   0  0  0  0  0  0  0  0  0  0  0  0
  1  2  1  0
  3  4  1  0
  4  5  2  0
  4  6  1  0
  2  7  1  0
  6  8  1  0
  7  8  1  0
  8  9  1  0
  9 10  1  0
  9 11  1  0
 11 12  1  0
  7 13  1  0
 12 13  1  0
 13 14  1  0
 13 15  1  0
 11 16  1  0
 16 17  1  0
 17 18  2  0
 18 19  1  0
 18 20  1  0
 20 21  2  0
 21 22  1  0
 17 23  1  0
 22 23  2  0
 20 24  1  0
 24 25  1  0
 25 26  2  0
 25 27  1  0
 21 28  1  0
 27 28  2  0
 28 29  1  0
 27 30  1  0
 30 31  1  0
 31 32  2  0
 31 33  1  0
 33 34  2  0
 34 35  1  0
 35 36  2  0
 36 37  1  0
 36 38  1  0
 33 39  1  0
 38 39  2  0
 35 40  1  0
 40 41  1  0
 41 42  2  3
 42 43  1  0
 42 44  1  0
  1 45  1  0
  1 46  1  0
  1 47  1  0
  3 48  1  0
  3 49  1  0
  7 50  1  1
  8 51  1  6
  9 52  1  6
 10 53  1  0
 11 54  1  6
 14 55  1  0
 14 56  1  0
 14 57  1  0
 15 58  1  0
 15 59  1  0
 15 60  1  0
 19 61  1  0
 19 62  1  0
 19 63  1  0
 22 64  1  0
 23 65  1  0
 29 66  1  0
 30 67  1  0
 34 68  1  0
 37 69  1  0
 38 70  1  0
 39 71  1  0
 40 72  1  0
 40 73  1  0
 41 74  1  0
 43 75  1  0
 43 76  1  0
 43 77  1  0
 44 78  1  0
 44 79  1  0
 44 80  1  0
M  END
$$$$
