PDB_DB00819_97
     RDKit          3D

 81 81  0  0  0  0  0  0  0  0999 V2000
   -5.0950    2.0810   15.8000 C   0  0  0  0  0  0  0  0  0  0  0  0
   -4.6920    3.9590   14.3420 C   0  0  0  0  0  0  0  0  0  0  0  0
   -5.8420    5.6620   13.1470 C   0  0  1  0  0  0  0  0  0  0  0  0
   -5.6970    6.7650   12.1200 C   0  0  0  0  0  0  0  0  0  0  0  0
   -5.4240   -0.5550   16.1880 N   0  0  0  0  0  0  0  0  0  0  0  0
   -3.5970    3.3260   14.7090 N   0  0  0  0  0  0  0  0  0  0  0  0
   -3.8200    2.1850   15.5420 N   0  0  0  0  0  0  0  0  0  0  0  0
   -4.6850    5.0760   13.5080 N   0  0  0  0  0  0  0  0  0  0  0  0
   -5.3270    1.0560   18.0820 O   0  0  0  0  0  0  0  0  0  0  0  0
   -7.2460    1.0490   16.5670 O   0  0  0  0  0  0  0  0  0  0  0  0
   -6.9360    5.2920   13.5500 O   0  0  0  0  0  0  0  0  0  0  0  0
   -5.8540    0.8210   16.7930 S   0  0  1  0  0  4  0  0  0  0  0  0
   -6.0730    3.3040   15.0330 S   0  0  0  0  0  0  0  0  0  0  0  0
  -18.5690  -14.3080   24.6290 C   0  0  0  0  0  0  0  0  0  0  0  0
  -20.5780  -14.7300   23.5250 C   0  0  0  0  0  0  0  0  0  0  0  0
  -22.8370  -14.0780   23.3370 C   0  0  0  0  0  0  0  0  0  0  0  0
  -24.1210  -14.3500   22.6450 C   0  0  0  0  0  0  0  0  0  0  0  0
  -16.3500  -12.7130   24.5170 N   0  0  0  0  0  0  0  0  0  0  0  0
  -19.6090  -15.5180   23.0850 N   0  0  0  0  0  0  0  0  0  0  0  0
  -18.4700  -15.2870   23.8060 N   0  0  0  0  0  0  0  0  0  0  0  0
  -21.8180  -14.8710   22.9360 N   0  0  0  0  0  0  0  0  0  0  0  0
  -17.6930  -13.0370   26.5980 O   0  0  0  0  0  0  0  0  0  0  0  0
  -16.3060  -14.8650   25.7390 O   0  0  0  0  0  0  0  0  0  0  0  0
  -22.6520  -13.1970   24.1750 O   0  0  0  0  0  0  0  0  0  0  0  0
  -17.1420  -13.7570   25.4850 S   0  0  1  0  0  4  0  0  0  0  0  0
  -20.1340  -13.6390   24.7580 S   0  0  0  0  0  0  0  0  0  0  0  0
   11.5900   -0.7500   12.6440 C   0  0  2  0  0  0  0  0  0  0  0  0
   13.0320   -0.6310   10.7640 C   0  0  0  0  0  0  0  0  0  0  0  0
   14.4920   -1.9910    9.4320 C   0  0  0  0  0  0  0  0  0  0  0  0
   15.2950   -2.1250    8.1650 C   0  0  0  0  0  0  0  0  0  0  0  0
   11.8080   -1.0600   15.3280 N   0  0  0  0  0  0  0  0  0  0  0  0
   12.4450    0.5140   11.0220 N   0  0  0  0  0  0  0  0  0  0  0  0
   11.6930    0.4550   12.1630 N   0  0  0  0  0  0  0  0  0  0  0  0
   13.8990   -0.7800    9.6760 N   0  0  0  0  0  0  0  0  0  0  0  0
    9.7890    0.0000   14.3560 O   0  0  0  0  0  0  0  0  0  0  0  0
   10.1500   -2.3880   14.0070 O   0  0  0  0  0  0  0  0  0  0  0  0
   14.3980   -2.9320   10.2260 O   0  0  0  0  0  0  0  0  0  0  0  0
   10.7190   -1.0840   14.1420 S   0  0  1  0  0  4  0  0  0  0  0  0
   12.6360   -1.8840   11.8620 S   0  0  0  0  0  0  0  0  0  0  0  0
   -5.2249    1.4542   14.9054 H   0  0  0  0  0  0  0  0  0  0  0  0
   -4.6075    4.6148   15.2211 H   0  0  0  0  0  0  0  0  0  0  0  0
   -5.9629    4.9255   12.3389 H   0  0  0  0  0  0  0  0  0  0  0  0
   -5.5702    7.7296   12.6333 H   0  0  0  0  0  0  0  0  0  0  0  0
   -4.8172    6.5663   11.4903 H   0  0  0  0  0  0  0  0  0  0  0  0
   -6.5982    6.8004   11.4903 H   0  0  0  0  0  0  0  0  0  0  0  0
   -5.2175   -1.2159   16.9506 H   0  0  0  0  0  0  0  0  0  0  0  0
   -6.1883   -0.9287   15.6074 H   0  0  0  0  0  0  0  0  0  0  0  0
   -3.1069    3.0125   13.8590 H   0  0  0  0  0  0  0  0  0  0  0  0
   -3.2986    2.2955   16.4234 H   0  0  0  0  0  0  0  0  0  0  0  0
   -4.1240    5.7970   13.9838 H   0  0  0  0  0  0  0  0  0  0  0  0
   -5.9819    0.7640   18.7646 H   0  0  0  0  0  0  0  0  0  0  0  0
   -7.7133    1.1255   17.4364 H   0  0  0  0  0  0  0  0  0  0  0  0
   -6.9398    5.2907   14.5400 H   0  0  0  0  0  0  0  0  0  0  0  0
  -18.7849  -15.0148   25.4438 H   0  0  0  0  0  0  0  0  0  0  0  0
  -20.3062  -13.9754   22.7722 H   0  0  0  0  0  0  0  0  0  0  0  0
  -23.1009  -14.8102   24.1144 H   0  0  0  0  0  0  0  0  0  0  0  0
  -24.9115  -14.5175   23.3914 H   0  0  0  0  0  0  0  0  0  0  0  0
  -24.3878  -13.4885   22.0153 H   0  0  0  0  0  0  0  0  0  0  0  0
  -24.0156  -15.2457   22.0153 H   0  0  0  0  0  0  0  0  0  0  0  0
  -15.8344  -12.0333   25.0941 H   0  0  0  0  0  0  0  0  0  0  0  0
  -15.6874  -13.2311   23.9225 H   0  0  0  0  0  0  0  0  0  0  0  0
  -19.8909  -16.5026   23.1946 H   0  0  0  0  0  0  0  0  0  0  0  0
  -17.7047  -15.0821   23.1478 H   0  0  0  0  0  0  0  0  0  0  0  0
  -21.6910  -14.7091   21.9268 H   0  0  0  0  0  0  0  0  0  0  0  0
  -17.3799  -13.4462   27.4433 H   0  0  0  0  0  0  0  0  0  0  0  0
  -16.2117  -14.9900   26.7165 H   0  0  0  0  0  0  0  0  0  0  0  0
  -22.7331  -13.5830   25.0830 H   0  0  0  0  0  0  0  0  0  0  0  0
   10.5863   -1.1768   12.5007 H   0  0  0  0  0  0  0  0  0  0  0  0
   12.1834   -0.9227   10.1277 H   0  0  0  0  0  0  0  0  0  0  0  0
   15.3930   -1.6577    9.9678 H   0  0  0  0  0  0  0  0  0  0  0  0
   16.3511   -2.3012    8.4171 H   0  0  0  0  0  0  0  0  0  0  0  0
   14.9124   -2.9717    7.5762 H   0  0  0  0  0  0  0  0  0  0  0  0
   15.2080   -1.1999    7.5762 H   0  0  0  0  0  0  0  0  0  0  0  0
   11.3251   -1.0706   16.2377 H   0  0  0  0  0  0  0  0  0  0  0  0
   12.4162   -1.8878   15.2524 H   0  0  0  0  0  0  0  0  0  0  0  0
   13.1666    1.2401   11.1358 H   0  0  0  0  0  0  0  0  0  0  0  0
   10.7479    0.8055   11.9514 H   0  0  0  0  0  0  0  0  0  0  0  0
   13.3610   -0.5372    8.8319 H   0  0  0  0  0  0  0  0  0  0  0  0
    9.6666    0.1427   15.3280 H   0  0  0  0  0  0  0  0  0  0  0  0
    9.9834   -2.7699   14.9050 H   0  0  0  0  0  0  0  0  0  0  0  0
   14.4325   -2.5863   11.1530 H   0  0  0  0  0  0  0  0  0  0  0  0
  3  4  1  0
  2  6  1  0
  1  7  1  0
  6  7  1  0
  2  8  1  0
  3  8  1  0
  3 11  1  0
  1 12  1  0
  5 12  1  0
 12  9  1  1
 10 12  1  0
  1 13  1  0
  2 13  1  0
 16 17  1  0
 15 19  1  0
 14 20  1  0
 19 20  1  0
 15 21  1  0
 16 21  1  0
 16 24  1  0
 14 25  1  0
 18 25  1  0
 25 22  1  1
 23 25  1  0
 14 26  1  0
 15 26  1  0
 29 30  1  0
 28 32  1  0
 27 33  1  0
 32 33  1  0
 28 34  1  0
 29 34  1  0
 29 37  1  0
 27 38  1  0
 31 38  1  0
 38 35  1  1
 36 38  1  0
 27 39  1  0
 28 39  1  0
  1 40  1  0
  2 41  1  0
  3 42  1  1
  4 43  1  0
  4 44  1  0
  4 45  1  0
  5 46  1  0
  5 47  1  0
  6 48  1  0
  7 49  1  0
  8 50  1  0
  9 51  1  0
 10 52  1  0
 11 53  1  0
 14 54  1  0
 15 55  1  0
 16 56  1  0
 17 57  1  0
 17 58  1  0
 17 59  1  0
 18 60  1  0
 18 61  1  0
 19 62  1  0
 20 63  1  0
 21 64  1  0
 22 65  1  0
 23 66  1  0
 24 67  1  0
 27 68  1  6
 28 69  1  0
 29 70  1  0
 30 71  1  0
 30 72  1  0
 30 73  1  0
 31 74  1  0
 31 75  1  0
 32 76  1  0
 33 77  1  0
 34 78  1  0
 35 79  1  0
 36 80  1  0
 37 81  1  0
M  END
>  <PDBID>  (1) 
3HS4

>  <PDB ID>  (1) 
3HS4

>  <Generic Name>  (1) 
Acetazolamide

>  <Brand Name>  (1) 
Acetazolam#Acetazolamide#Acetazolamide for Injection, USP#Diamox IV 500mg#Diamox Pws 500mg/vial#Diamox Sequels#Diamox Src 500mg#Diamox Tab 250mg#Diamox Tablets 250mg#Novo-zolamide Tab 250mg#Acemit#Acemox#Acetak#Acetamide#Acetazolamax#Azm#Azol#Azomid#Carbinib#Defiltran#Diabo#Diacarb#Diamox#Diamox Depot#Diazomid#Diluran#Diuramid#Défiltran#Edemox#Glaumox#Glaupax#Glupax#Huma-Zolamide#Iopar-SR#Medene#Oculten#Uramox#Zolmide#Ödemin

>  <DrugBank ID>  (1) 
DB00819

>  <ATC Codes>  (1) 
S01EC01

>  <Ligand ID>  (1) 
AZM

>  <Target Name>  (1) 
Carbonic anhydrase 1

>  <UniProt ID>  (1) 
P00915

>  <PDB ID.1>  (1) 
3HS4

>  <Seq. Identity>  (1) 
61%

$$$$
