PDB_DB00382_94
     RDKit          3D

 29 31  0  0  0  0  0  0  0  0999 V2000
   -8.7040   -5.6490   77.4580 C   0  0  0  0  0  0  0  0  0  0  0  0
   -8.8850   -4.2550   77.6240 C   0  0  0  0  0  0  0  0  0  0  0  0
  -10.0730   -3.7560   78.2170 C   0  0  0  0  0  0  0  0  0  0  0  0
  -11.1310   -4.6990   78.6620 C   0  0  0  0  0  0  0  0  0  0  0  0
  -10.8960   -6.1040   78.4710 C   0  0  0  0  0  0  0  0  0  0  0  0
   -9.6980   -6.5650   77.8760 C   0  0  0  0  0  0  0  0  0  0  0  0
  -10.2250   -2.4380   78.3620 N   0  0  0  0  0  0  0  0  0  0  0  0
  -11.3120   -1.8820   78.9090 C   0  0  0  0  0  0  0  0  0  0  0  0
  -12.4230   -2.6930   79.3880 C   0  0  0  0  0  0  0  0  0  0  0  0
  -12.3170   -4.1290   79.2580 C   0  0  0  0  0  0  0  0  0  0  0  0
  -11.3370   -0.3200   79.0070 C   0  0  0  0  0  0  0  0  0  0  0  0
  -12.4280    0.2800   79.9510 C   0  0  0  0  0  0  0  0  0  0  0  0
  -13.7960   -0.4250   79.7370 C   0  0  0  0  0  0  0  0  0  0  0  0
  -13.6770   -1.9550   80.0240 C   0  0  0  0  0  0  0  0  0  0  0  0
  -13.3280   -4.9120   79.6920 N   0  0  0  0  0  0  0  0  0  0  0  0
   -8.5535   -5.8195   76.3818 H   0  0  0  0  0  0  0  0  0  0  0  0
   -7.8688   -5.8687   78.1392 H   0  0  0  0  0  0  0  0  0  0  0  0
   -8.0483   -3.8984   78.2426 H   0  0  0  0  0  0  0  0  0  0  0  0
   -8.9461   -3.8850   76.5899 H   0  0  0  0  0  0  0  0  0  0  0  0
  -10.9508   -6.5691   79.4663 H   0  0  0  0  0  0  0  0  0  0  0  0
  -11.6587   -6.3796   77.7278 H   0  0  0  0  0  0  0  0  0  0  0  0
   -9.9900   -7.1410   76.9855 H   0  0  0  0  0  0  0  0  0  0  0  0
   -9.2059   -7.1052   78.6982 H   0  0  0  0  0  0  0  0  0  0  0  0
  -10.6328    0.3137   78.4480 H   0  0  0  0  0  0  0  0  0  0  0  0
  -12.2512    1.0928   80.6708 H   0  0  0  0  0  0  0  0  0  0  0  0
  -14.7205    0.0836   79.4262 H   0  0  0  0  0  0  0  0  0  0  0  0
  -14.4199   -2.4915   80.6325 H   0  0  0  0  0  0  0  0  0  0  0  0
  -14.1651   -4.4854   80.1141 H   0  0  0  0  0  0  0  0  0  0  0  0
  -13.2620   -5.9358   79.6009 H   0  0  0  0  0  0  0  0  0  0  0  0
  1  2  1  0
  2  3  1  0
  3  4  2  0
  4  5  1  0
  1  6  1  0
  5  6  1  0
  3  7  1  0
  7  8  2  0
  8  9  1  0
  4 10  1  0
  9 10  2  0
  8 11  1  0
 11 12  2  0
 12 13  1  0
  9 14  1  0
 13 14  2  0
 10 15  1  0
  1 16  1  0
  1 17  1  0
  2 18  1  0
  2 19  1  0
  5 20  1  0
  5 21  1  0
  6 22  1  0
  6 23  1  0
 11 24  1  0
 12 25  1  0
 13 26  1  0
 14 27  1  0
 15 28  1  0
 15 29  1  0
M  END
$$$$
