PDB_DB00360_95
     RDKit          3D

 76 78  0  0  0  0  0  0  0  0999 V2000
   19.9810  235.5220   23.2530 N   0  0  0  0  0  0  0  0  0  0  0  0
   19.7100  236.7340   23.7700 C   0  0  0  0  0  0  0  0  0  0  0  0
   20.6810  237.4410   24.4040 N   0  0  0  0  0  0  0  0  0  0  0  0
   18.4670  237.2450   23.6720 N   0  0  0  0  0  0  0  0  0  0  0  0
   17.4730  236.5640   23.0520 C   0  0  0  0  0  0  0  0  0  0  0  0
   16.3350  237.1000   22.9710 O   0  0  0  0  0  0  0  0  0  0  0  0
   17.7300  235.3040   22.5200 C   0  0  0  0  0  0  0  0  0  0  0  0
   19.0180  234.7950   22.6320 C   0  0  0  0  0  0  0  0  0  0  0  0
   16.7750  234.5680   21.8820 N   0  0  0  0  0  0  0  0  0  0  0  0
   19.3420  233.5750   22.1220 N   0  0  0  0  0  0  0  0  0  0  0  0
   16.9750  233.1240   21.8730 C   0  0  2  0  0  0  0  0  0  0  0  0
   18.3790  232.7580   21.3690 C   0  0  0  0  0  0  0  0  0  0  0  0
   15.9050  232.3900   21.0560 C   0  0  1  0  0  0  0  0  0  0  0  0
   15.8250  232.9100   19.7150 O   0  0  0  0  0  0  0  0  0  0  0  0
   16.2050  230.8910   20.9860 C   0  0  2  0  0  0  0  0  0  0  0  0
   15.0570  230.1640   20.2800 C   0  0  0  0  0  0  0  0  0  0  0  0
   16.4100  230.3410   22.3010 O   0  0  0  0  0  0  0  0  0  0  0  0
   28.8030  224.8340   16.3430 N   0  0  0  0  0  0  0  0  0  0  0  0
   29.3280  224.1730   15.2940 C   0  0  0  0  0  0  0  0  0  0  0  0
   28.6000  224.0010   14.1590 N   0  0  0  0  0  0  0  0  0  0  0  0
   30.5850  223.6860   15.3620 N   0  0  0  0  0  0  0  0  0  0  0  0
   31.3370  223.8450   16.4730 C   0  0  0  0  0  0  0  0  0  0  0  0
   32.4960  223.3800   16.4860 O   0  0  0  0  0  0  0  0  0  0  0  0
   30.8110  224.5040   17.5700 C   0  0  0  0  0  0  0  0  0  0  0  0
   29.5130  225.0010   17.4780 C   0  0  0  0  0  0  0  0  0  0  0  0
   31.5280  224.6760   18.7110 N   0  0  0  0  0  0  0  0  0  0  0  0
   28.9350  225.6580   18.5070 N   0  0  0  0  0  0  0  0  0  0  0  0
   30.7520  224.8560   19.9380 C   0  0  2  0  0  0  0  0  0  0  0  0
   29.6540  225.9090   19.7600 C   0  0  0  0  0  0  0  0  0  0  0  0
   31.6380  225.1940   21.1450 C   0  0  1  0  0  0  0  0  0  0  0  0
   32.4600  226.3290   20.8680 O   0  0  0  0  0  0  0  0  0  0  0  0
   30.7840  225.4980   22.3770 C   0  0  2  0  0  0  0  0  0  0  0  0
   31.6700  225.5920   23.6250 C   0  0  0  0  0  0  0  0  0  0  0  0
   29.8530  224.4120   22.5430 O   0  0  0  0  0  0  0  0  0  0  0  0
   20.7340  235.6595   22.5638 H   0  0  0  0  0  0  0  0  0  0  0  0
   19.4291  236.2642   24.7241 H   0  0  0  0  0  0  0  0  0  0  0  0
   20.5600  237.3529   25.4231 H   0  0  0  0  0  0  0  0  0  0  0  0
   21.6047  237.0733   24.1349 H   0  0  0  0  0  0  0  0  0  0  0  0
   18.1457  237.4170   24.6354 H   0  0  0  0  0  0  0  0  0  0  0  0
   17.1889  236.1057   24.0108 H   0  0  0  0  0  0  0  0  0  0  0  0
   15.9828  237.2659   23.8812 H   0  0  0  0  0  0  0  0  0  0  0  0
   17.9958  235.7647   21.5572 H   0  0  0  0  0  0  0  0  0  0  0  0
   18.7505  234.3293   23.5920 H   0  0  0  0  0  0  0  0  0  0  0  0
   15.8729  234.7575   22.3416 H   0  0  0  0  0  0  0  0  0  0  0  0
   20.1414  233.7306   21.4914 H   0  0  0  0  0  0  0  0  0  0  0  0
   16.8785  232.7900   22.9166 H   0  0  0  0  0  0  0  0  0  0  0  0
   18.4612  232.9751   20.2938 H   0  0  0  0  0  0  0  0  0  0  0  0
   18.5784  231.6864   21.5173 H   0  0  0  0  0  0  0  0  0  0  0  0
   14.9432  232.5504   21.5652 H   0  0  0  0  0  0  0  0  0  0  0  0
   15.6746  233.8879   19.7487 H   0  0  0  0  0  0  0  0  0  0  0  0
   17.1322  230.7492   20.4114 H   0  0  0  0  0  0  0  0  0  0  0  0
   14.3782  229.7341   21.0312 H   0  0  0  0  0  0  0  0  0  0  0  0
   14.5036  230.8766   19.6508 H   0  0  0  0  0  0  0  0  0  0  0  0
   15.4646  229.3590   19.6508 H   0  0  0  0  0  0  0  0  0  0  0  0
   16.1593  231.0136   22.9828 H   0  0  0  0  0  0  0  0  0  0  0  0
   28.5618  225.7768   16.0056 H   0  0  0  0  0  0  0  0  0  0  0  0
   28.9316  223.2271   15.6916 H   0  0  0  0  0  0  0  0  0  0  0  0
   27.6270  223.7711   14.4067 H   0  0  0  0  0  0  0  0  0  0  0  0
   28.6173  224.8692   13.6051 H   0  0  0  0  0  0  0  0  0  0  0  0
   30.5143  222.6713   15.1998 H   0  0  0  0  0  0  0  0  0  0  0  0
   30.9512  222.8945   16.8702 H   0  0  0  0  0  0  0  0  0  0  0  0
   32.7932  223.2607   17.4228 H   0  0  0  0  0  0  0  0  0  0  0  0
   31.2032  225.4571   17.1855 H   0  0  0  0  0  0  0  0  0  0  0  0
   29.1209  224.0483   17.8635 H   0  0  0  0  0  0  0  0  0  0  0  0
   32.1253  223.8462   18.8354 H   0  0  0  0  0  0  0  0  0  0  0  0
   28.6568  226.5803   18.1425 H   0  0  0  0  0  0  0  0  0  0  0  0
   30.2704  223.8891   20.1458 H   0  0  0  0  0  0  0  0  0  0  0  0
   30.1080  226.9104   19.7280 H   0  0  0  0  0  0  0  0  0  0  0  0
   28.9509  225.8521   20.6041 H   0  0  0  0  0  0  0  0  0  0  0  0
   32.2728  224.3178   21.3431 H   0  0  0  0  0  0  0  0  0  0  0  0
   32.7560  226.7378   21.7197 H   0  0  0  0  0  0  0  0  0  0  0  0
   30.2584  226.4551   22.2442 H   0  0  0  0  0  0  0  0  0  0  0  0
   31.0425  225.5254   24.5260 H   0  0  0  0  0  0  0  0  0  0  0  0
   32.3963  224.7659   23.6221 H   0  0  0  0  0  0  0  0  0  0  0  0
   32.2068  226.5521   23.6221 H   0  0  0  0  0  0  0  0  0  0  0  0
   29.7097  224.2448   23.5082 H   0  0  0  0  0  0  0  0  0  0  0  0
  1  2  1  0
  2  3  1  0
  2  4  1  0
  4  5  1  0
  5  6  1  0
  5  7  1  0
  1  8  1  0
  7  8  1  0
  7  9  1  0
  8 10  1  0
  9 11  1  0
 10 12  1  0
 11 12  1  0
 11 13  1  0
 13 14  1  0
 13 15  1  0
 15 16  1  0
 15 17  1  0
 18 19  1  0
 19 20  1  0
 19 21  1  0
 21 22  1  0
 22 23  1  0
 22 24  1  0
 18 25  1  0
 24 25  1  0
 24 26  1  0
 25 27  1  0
 26 28  1  0
 27 29  1  0
 28 29  1  0
 28 30  1  0
 30 31  1  0
 30 32  1  0
 32 33  1  0
 32 34  1  0
  1 35  1  0
  2 36  1  0
  3 37  1  0
  3 38  1  0
  4 39  1  0
  5 40  1  0
  6 41  1  0
  7 42  1  0
  8 43  1  0
  9 44  1  0
 10 45  1  0
 11 46  1  1
 12 47  1  0
 12 48  1  0
 13 49  1  1
 14 50  1  0
 15 51  1  6
 16 52  1  0
 16 53  1  0
 16 54  1  0
 17 55  1  0
 18 56  1  0
 19 57  1  0
 20 58  1  0
 20 59  1  0
 21 60  1  0
 22 61  1  0
 23 62  1  0
 24 63  1  0
 25 64  1  0
 26 65  1  0
 27 66  1  0
 28 67  1  1
 29 68  1  0
 29 69  1  0
 30 70  1  1
 31 71  1  0
 32 72  1  6
 33 73  1  0
 33 74  1  0
 33 75  1  0
 34 76  1  0
M  END
>  <PDBID>  (1) 
4D1O

>  <PDB ID>  (1) 
4D1O

>  <Generic Name>  (1) 
Sapropterin

>  <Brand Name>  (1) 
Kuvan#BH4#Biopten

>  <DrugBank ID>  (1) 
DB00360

>  <ATC Codes>  (1) 
A16AX07

>  <Ligand ID>  (1) 
BH4,BHS,H4B,THB

>  <Target Name>  (1) 
Nitric oxide synthase, endothelial

>  <UniProt ID>  (1) 
P29474

>  <PDB ID.1>  (1) 
4D1O

>  <Seq. Identity>  (1) 
94%

$$$$
