PDB_DB00188_86
     RDKit          3D

 53 54  0  0  0  0  0  0  0  0999 V2000
    8.9750 -138.3100   19.9020 N   0  0  0  0  0  0  0  0  0  0  0  0
    9.4610 -137.1420   19.4400 C   0  0  0  0  0  0  0  0  0  0  0  0
    8.9200 -135.9340   19.8870 C   0  0  0  0  0  0  0  0  0  0  0  0
    7.8760 -135.9390   20.8300 N   0  0  0  0  0  0  0  0  0  0  0  0
    7.3810 -137.1640   21.3090 C   0  0  0  0  0  0  0  0  0  0  0  0
    7.9340 -138.3500   20.8420 C   0  0  0  0  0  0  0  0  0  0  0  0
   10.4910 -137.1490   18.4970 C   0  0  0  0  0  0  0  0  0  0  0  0
   10.9910 -136.0950   18.0990 O   0  0  0  0  0  0  0  0  0  0  0  0
   10.8580 -138.3740   18.0660 N   0  0  0  0  0  0  0  0  0  0  0  0
   11.8820 -138.5670   17.0290 C   0  0  1  0  0  0  0  0  0  0  0  0
   12.5760 -139.8930   17.2630 C   0  0  0  0  0  0  0  0  0  0  0  0
   13.3990 -140.1600   16.1470 C   0  0  0  0  0  0  0  0  0  0  0  0
   14.5080 -139.3510   15.8850 C   0  0  0  0  0  0  0  0  0  0  0  0
   15.3270 -139.6070   14.7850 C   0  0  0  0  0  0  0  0  0  0  0  0
   15.0510 -140.6800   13.9380 C   0  0  0  0  0  0  0  0  0  0  0  0
   13.9520 -141.4950   14.1930 C   0  0  0  0  0  0  0  0  0  0  0  0
   13.1320 -141.2370   15.2920 C   0  0  0  0  0  0  0  0  0  0  0  0
   11.1260 -138.5500   15.6930 C   0  0  0  0  0  0  0  0  0  0  0  0
   10.1480 -139.2810   15.5310 O   0  0  0  0  0  0  0  0  0  0  0  0
   11.5870 -137.6780   14.7740 N   0  0  0  0  0  0  0  0  0  0  0  0
   10.9420 -137.5240   13.4530 C   0  0  1  0  0  0  0  0  0  0  0  0
   10.8360 -136.0620   13.0540 C   0  0  0  0  0  0  0  0  0  0  0  0
   10.2510 -135.2190   14.2070 C   0  0  0  0  0  0  0  0  0  0  0  0
   10.2600 -133.7460   13.7560 C   0  0  0  0  0  0  0  0  0  0  0  0
    8.8180 -135.6510   14.5810 C   0  0  0  0  0  0  0  0  0  0  0  0
   11.7470 -138.2280   12.3440 B   0  0  0  0  0  0  0  0  0  0  0  0
   11.7190 -139.6550   12.5140 O   0  0  0  0  0  0  0  0  0  0  0  0
   13.1090 -137.7530   12.3560 O   0  0  0  0  0  0  0  0  0  0  0  0
    9.3098 -134.9801   19.5021 H   0  0  0  0  0  0  0  0  0  0  0  0
    6.5645 -137.1837   22.0458 H   0  0  0  0  0  0  0  0  0  0  0  0
    7.5572 -139.3166   21.2078 H   0  0  0  0  0  0  0  0  0  0  0  0
   10.4050 -139.2023   18.4778 H   0  0  0  0  0  0  0  0  0  0  0  0
   12.6586 -137.7881   17.0400 H   0  0  0  0  0  0  0  0  0  0  0  0
   13.1898 -139.8370   18.1741 H   0  0  0  0  0  0  0  0  0  0  0  0
   11.8336 -140.6947   17.3897 H   0  0  0  0  0  0  0  0  0  0  0  0
   14.7369 -138.5060   16.5511 H   0  0  0  0  0  0  0  0  0  0  0  0
   16.1938 -138.9600   14.5850 H   0  0  0  0  0  0  0  0  0  0  0  0
   15.6990 -140.8813   13.0722 H   0  0  0  0  0  0  0  0  0  0  0  0
   13.7298 -142.3426   13.5280 H   0  0  0  0  0  0  0  0  0  0  0  0
   12.2664 -141.8865   15.4892 H   0  0  0  0  0  0  0  0  0  0  0  0
   12.4116 -137.1031   14.9986 H   0  0  0  0  0  0  0  0  0  0  0  0
    9.9435 -137.9746   13.5527 H   0  0  0  0  0  0  0  0  0  0  0  0
   11.8378 -135.6834   12.8030 H   0  0  0  0  0  0  0  0  0  0  0  0
   10.1668 -135.9819   12.1846 H   0  0  0  0  0  0  0  0  0  0  0  0
   10.8654 -135.3658   15.1075 H   0  0  0  0  0  0  0  0  0  0  0  0
   10.2640 -133.0918   14.6403 H   0  0  0  0  0  0  0  0  0  0  0  0
   11.1593 -133.5527   13.1528 H   0  0  0  0  0  0  0  0  0  0  0  0
    9.3631 -133.5417   13.1528 H   0  0  0  0  0  0  0  0  0  0  0  0
    8.7181 -135.6811   15.6760 H   0  0  0  0  0  0  0  0  0  0  0  0
    8.0978 -134.9300   14.1668 H   0  0  0  0  0  0  0  0  0  0  0  0
    8.6163 -136.6499   14.1668 H   0  0  0  0  0  0  0  0  0  0  0  0
   11.7147 -139.8722   13.4799 H   0  0  0  0  0  0  0  0  0  0  0  0
   13.4132 -137.6469   13.2921 H   0  0  0  0  0  0  0  0  0  0  0  0
  1  2  2  0
  2  3  1  0
  3  4  2  0
  4  5  1  0
  1  6  1  0
  5  6  2  0
  2  7  1  0
  7  8  2  0
  7  9  1  0
  9 10  1  0
 10 11  1  0
 11 12  1  0
 12 13  2  0
 13 14  1  0
 14 15  2  0
 15 16  1  0
 12 17  1  0
 16 17  2  0
 10 18  1  0
 18 19  2  0
 18 20  1  0
 20 21  1  0
 21 22  1  0
 22 23  1  0
 23 24  1  0
 23 25  1  0
 21 26  1  0
 26 27  1  0
 26 28  1  0
  3 29  1  0
  5 30  1  0
  6 31  1  0
  9 32  1  0
 10 33  1  6
 11 34  1  0
 11 35  1  0
 13 36  1  0
 14 37  1  0
 15 38  1  0
 16 39  1  0
 17 40  1  0
 20 41  1  0
 21 42  1  1
 22 43  1  0
 22 44  1  0
 23 45  1  0
 24 46  1  0
 24 47  1  0
 24 48  1  0
 25 49  1  0
 25 50  1  0
 25 51  1  0
 27 52  1  0
 28 53  1  0
M  END
$$$$
