PDB_DB00834_94
     RDKit          3D

332348  0  0  0  0  0  0  0  0999 V2000
  -50.2650   15.0510  -37.7710 O   0  0  0  0  0  0  0  0  0  0  0  0
  -49.3730   14.8450  -38.5840 C   0  0  0  0  0  0  0  0  0  0  0  0
  -49.3600   15.6690  -39.8470 C   0  0  0  0  0  0  0  0  0  0  0  0
  -48.4030   13.8470  -38.3380 C   0  0  0  0  0  0  0  0  0  0  0  0
  -47.4220   13.5820  -39.2290 C   0  0  0  0  0  0  0  0  0  0  0  0
  -46.3740   12.5250  -38.9910 C   0  0  0  0  0  0  0  0  0  0  0  0
  -47.3230   14.3280  -40.4790 C   0  0  0  0  0  0  0  0  0  0  0  0
  -47.9990   15.6800  -40.5460 C   0  0  0  0  0  0  0  0  0  0  0  0
  -46.6400   13.8450  -41.5240 C   0  0  0  0  0  0  0  0  0  0  0  0
  -46.5560   14.6920  -42.7820 C   0  0  1  0  0  0  0  0  0  0  0  0
  -45.3810   15.6340  -42.6260 C   0  0  0  0  0  0  0  0  0  0  0  0
  -44.7920   16.2210  -43.7360 C   0  0  0  0  0  0  0  0  0  0  0  0
  -43.7130   17.0810  -43.6220 C   0  0  0  0  0  0  0  0  0  0  0  0
  -43.2190   17.3580  -42.3620 C   0  0  0  0  0  0  0  0  0  0  0  0
  -42.1420   18.2250  -42.2190 N   0  0  0  0  0  0  0  0  0  0  0  0
  -41.5600   18.8200  -43.4110 C   0  0  0  0  0  0  0  0  0  0  0  0
  -41.6120   18.5230  -40.8850 C   0  0  0  0  0  0  0  0  0  0  0  0
  -43.8060   16.7690  -41.2480 C   0  0  0  0  0  0  0  0  0  0  0  0
  -44.8820   15.9180  -41.3730 C   0  0  0  0  0  0  0  0  0  0  0  0
  -46.4340   13.8860  -44.0980 C   0  0  0  0  0  0  0  0  0  0  0  0
  -45.6570   12.5860  -43.9430 C   0  0  2  0  0  0  0  0  0  0  0  0
  -44.1710   12.8510  -43.6990 C   0  0  0  0  0  0  0  0  0  0  0  0
  -45.8410   11.5340  -45.0490 C   0  0  1  0  0  0  0  0  0  0  0  0
  -47.2780   11.3250  -45.3220 C   0  0  0  0  0  0  0  0  0  0  0  0
  -48.4370   11.1690  -45.4860 C   0  0  0  0  0  0  0  0  0  0  0  0
  -49.8680   10.8670  -45.6950 C   0  0  0  0  0  0  0  0  0  0  0  0
  -45.1630   11.8290  -46.2740 O   0  0  0  0  0  0  0  0  0  0  0  0
  -45.2220   10.2730  -44.4130 C   0  0  0  0  0  0  0  0  0  0  0  0
  -45.4670   10.4500  -42.8890 C   0  0  0  0  0  0  0  0  0  0  0  0
  -46.2360   11.7760  -42.7560 C   0  0  1  0  0  0  0  0  0  0  0  0
  -45.9370   12.5220  -41.4670 C   0  0  2  0  0  0  0  0  0  0  0  0
  -46.3400   11.6840  -40.2660 C   0  0  0  0  0  0  0  0  0  0  0  0
  -18.0110   34.3380   -3.8070 O   0  0  0  0  0  0  0  0  0  0  0  0
  -18.5100   33.3350   -4.2860 C   0  0  0  0  0  0  0  0  0  0  0  0
  -19.9840   33.3410   -4.6060 C   0  0  0  0  0  0  0  0  0  0  0  0
  -17.6880   32.2200   -4.5040 C   0  0  0  0  0  0  0  0  0  0  0  0
  -18.1960   31.0880   -5.0160 C   0  0  0  0  0  0  0  0  0  0  0  0
  -17.3290   29.8890   -5.2810 C   0  0  0  0  0  0  0  0  0  0  0  0
  -19.6080   30.9940   -5.3830 C   0  0  0  0  0  0  0  0  0  0  0  0
  -20.3940   32.2640   -5.6160 C   0  0  0  0  0  0  0  0  0  0  0  0
  -20.1870   29.8140   -5.5560 C   0  0  0  0  0  0  0  0  0  0  0  0
  -21.6430   29.8000   -5.9700 C   0  0  1  0  0  0  0  0  0  0  0  0
  -21.7220   29.8690   -7.4820 C   0  0  0  0  0  0  0  0  0  0  0  0
  -22.9570   29.9700   -8.1040 C   0  0  0  0  0  0  0  0  0  0  0  0
  -23.0470   30.0460   -9.4850 C   0  0  0  0  0  0  0  0  0  0  0  0
  -21.8980   30.0220  -10.2620 C   0  0  0  0  0  0  0  0  0  0  0  0
  -22.0050   30.1070  -11.6470 N   0  0  0  0  0  0  0  0  0  0  0  0
  -23.3260   30.2270  -12.2800 C   0  0  0  0  0  0  0  0  0  0  0  0
  -20.7900   30.0850  -12.4540 C   0  0  0  0  0  0  0  0  0  0  0  0
  -20.6600   29.9230   -9.6530 C   0  0  0  0  0  0  0  0  0  0  0  0
  -20.5770   29.8470   -8.2680 C   0  0  0  0  0  0  0  0  0  0  0  0
  -22.4350   28.5890   -5.4470 C   0  0  0  0  0  0  0  0  0  0  0  0
  -21.5750   27.3550   -5.2690 C   0  0  2  0  0  0  0  0  0  0  0  0
  -21.2200   26.7010   -6.5990 C   0  0  0  0  0  0  0  0  0  0  0  0
  -22.1500   26.2980   -4.3510 C   0  0  1  0  0  0  0  0  0  0  0  0
  -22.3910   26.7970   -2.9810 C   0  0  0  0  0  0  0  0  0  0  0  0
  -22.5270   27.2040   -1.8780 C   0  0  0  0  0  0  0  0  0  0  0  0
  -22.6700   27.6240   -0.4630 C   0  0  0  0  0  0  0  0  0  0  0  0
  -23.3540   25.7540   -4.9050 O   0  0  0  0  0  0  0  0  0  0  0  0
  -20.9480   25.3280   -4.3410 C   0  0  0  0  0  0  0  0  0  0  0  0
  -19.7100   26.2590   -4.2490 C   0  0  0  0  0  0  0  0  0  0  0  0
  -20.2940   27.6610   -4.4690 C   0  0  1  0  0  0  0  0  0  0  0  0
  -19.4380   28.5340   -5.3550 C   0  0  2  0  0  0  0  0  0  0  0  0
  -18.0790   28.7010   -4.7040 C   0  0  0  0  0  0  0  0  0  0  0  0
  -49.6560   34.8390  -15.1870 O   0  0  0  0  0  0  0  0  0  0  0  0
  -49.5900   35.8110  -14.4420 C   0  0  0  0  0  0  0  0  0  0  0  0
  -48.5610   35.8210  -13.3350 C   0  0  0  0  0  0  0  0  0  0  0  0
  -50.4880   36.8850  -14.6400 C   0  0  0  0  0  0  0  0  0  0  0  0
  -50.4750   37.9760  -13.8440 C   0  0  1  0  0  0  0  0  0  0  0  0
  -51.4210   39.1320  -14.0660 C   0  0  0  0  0  0  0  0  0  0  0  0
  -49.4890   38.1100  -12.7750 C   0  0  1  0  0  0  0  0  0  0  0  0
  -48.2650   37.2190  -12.7850 C   0  0  0  0  0  0  0  0  0  0  0  0
  -49.6000   39.0510  -11.8400 C   0  0  0  0  0  0  0  0  0  0  0  0
  -48.4770   39.1090  -10.8210 C   0  0  1  0  0  0  0  0  0  0  0  0
  -47.4070   39.9850  -11.4270 C   0  0  0  0  0  0  0  0  0  0  0  0
  -46.1360   40.0630  -10.8930 C   0  0  0  0  0  0  0  0  0  0  0  0
  -45.1790   40.8560  -11.5000 C   0  0  0  0  0  0  0  0  0  0  0  0
  -45.4750   41.5730  -12.6530 C   0  0  0  0  0  0  0  0  0  0  0  0
  -44.5110   42.3820  -13.2810 N   0  0  0  0  0  0  0  0  0  0  0  0
  -43.1530   42.5050  -12.7520 C   0  0  0  0  0  0  0  0  0  0  0  0
  -44.8550   43.1220  -14.4970 C   0  0  0  0  0  0  0  0  0  0  0  0
  -46.7470   41.4810  -13.1870 C   0  0  0  0  0  0  0  0  0  0  0  0
  -47.6990   40.6920  -12.5750 C   0  0  0  0  0  0  0  0  0  0  0  0
  -48.8960   39.5380   -9.4060 C   0  0  0  0  0  0  0  0  0  0  0  0
  -50.1120   40.4430   -9.4170 C   0  0  2  0  0  0  0  0  0  0  0  0
  -49.6900   41.8480   -9.8630 C   0  0  0  0  0  0  0  0  0  0  0  0
  -50.8150   40.5040   -8.0670 C   0  0  1  0  0  0  0  0  0  0  0  0
  -50.6810   39.2040   -7.3830 C   0  0  0  0  0  0  0  0  0  0  0  0
  -50.5390   38.1590   -6.8540 C   0  0  0  0  0  0  0  0  0  0  0  0
  -50.3040   36.8530   -6.2090 C   0  0  0  0  0  0  0  0  0  0  0  0
  -50.2340   41.5490   -7.2770 O   0  0  0  0  0  0  0  0  0  0  0  0
  -52.3030   40.8080   -8.3900 C   0  0  0  0  0  0  0  0  0  0  0  0
  -52.4090   40.7990   -9.9390 C   0  0  0  0  0  0  0  0  0  0  0  0
  -51.2430   39.8790  -10.3210 C   0  0  1  0  0  0  0  0  0  0  0  0
  -50.7740   39.9830  -11.7650 C   0  0  2  0  0  0  0  0  0  0  0  0
  -51.9160   39.6220  -12.7050 C   0  0  0  0  0  0  0  0  0  0  0  0
  -45.3730   35.9620  -62.5260 O   0  0  0  0  0  0  0  0  0  0  0  0
  -46.1320   36.3370  -61.6490 C   0  0  0  0  0  0  0  0  0  0  0  0
  -46.6090   35.3090  -60.6530 C   0  0  0  0  0  0  0  0  0  0  0  0
  -46.5380   37.6910  -61.6050 C   0  0  0  0  0  0  0  0  0  0  0  0
  -47.3750   38.1440  -60.6430 C   0  0  0  0  0  0  0  0  0  0  0  0
  -47.8350   39.5840  -60.5700 C   0  0  0  0  0  0  0  0  0  0  0  0
  -47.8950   37.2320  -59.6220 C   0  0  0  0  0  0  0  0  0  0  0  0
  -47.1530   35.9390  -59.3710 C   0  0  0  0  0  0  0  0  0  0  0  0
  -48.9800   37.5400  -58.8980 C   0  0  0  0  0  0  0  0  0  0  0  0
  -49.4300   36.5200  -57.8530 C   0  0  1  0  0  0  0  0  0  0  0  0
  -48.7220   36.7680  -56.5380 C   0  0  0  0  0  0  0  0  0  0  0  0
  -49.0510   36.0580  -55.4020 C   0  0  0  0  0  0  0  0  0  0  0  0
  -48.3640   36.3080  -54.2280 C   0  0  0  0  0  0  0  0  0  0  0  0
  -47.3470   37.2630  -54.1890 C   0  0  0  0  0  0  0  0  0  0  0  0
  -46.6400   37.5160  -53.0100 N   0  0  0  0  0  0  0  0  0  0  0  0
  -46.9610   36.7910  -51.7790 C   0  0  0  0  0  0  0  0  0  0  0  0
  -45.5760   38.5200  -53.0170 C   0  0  0  0  0  0  0  0  0  0  0  0
  -47.0110   37.9690  -55.3350 C   0  0  0  0  0  0  0  0  0  0  0  0
  -47.6950   37.7070  -56.5060 C   0  0  0  0  0  0  0  0  0  0  0  0
  -50.9530   36.3990  -57.6850 C   0  0  0  0  0  0  0  0  0  0  0  0
  -51.5320   37.7900  -57.7050 C   0  0  2  0  0  0  0  0  0  0  0  0
  -50.9690   38.5100  -56.4780 C   0  0  0  0  0  0  0  0  0  0  0  0
  -53.0480   37.8510  -57.7720 C   0  0  1  0  0  0  0  0  0  0  0  0
  -53.4750   36.9650  -58.8580 C   0  0  0  0  0  0  0  0  0  0  0  0
  -53.8000   36.2570  -59.7280 C   0  0  0  0  0  0  0  0  0  0  0  0
  -54.2460   35.3350  -60.7890 C   0  0  0  0  0  0  0  0  0  0  0  0
  -53.6540   37.4860  -56.5230 O   0  0  0  0  0  0  0  0  0  0  0  0
  -53.3340   39.3110  -58.1810 C   0  0  0  0  0  0  0  0  0  0  0  0
  -52.1490   39.6870  -59.1210 C   0  0  0  0  0  0  0  0  0  0  0  0
  -51.2070   38.4710  -59.0780 C   0  0  1  0  0  0  0  0  0  0  0  0
  -49.7340   38.8270  -59.0810 C   0  0  2  0  0  0  0  0  0  0  0  0
  -49.3610   39.5620  -60.3540 C   0  0  0  0  0  0  0  0  0  0  0  0
  -49.9015   14.9671  -36.8540 H   0  0  0  0  0  0  0  0  0  0  0  0
  -50.0009   14.0916  -39.0820 H   0  0  0  0  0  0  0  0  0  0  0  0
  -50.1063   15.2559  -40.5415 H   0  0  0  0  0  0  0  0  0  0  0  0
  -49.5896   16.7065  -39.5626 H   0  0  0  0  0  0  0  0  0  0  0  0
  -47.9026   14.1252  -37.3988 H   0  0  0  0  0  0  0  0  0  0  0  0
  -49.0011   12.9242  -38.3628 H   0  0  0  0  0  0  0  0  0  0  0  0
  -46.7783   14.3297  -38.7427 H   0  0  0  0  0  0  0  0  0  0  0  0
  -45.3935   12.9902  -38.8119 H   0  0  0  0  0  0  0  0  0  0  0  0
  -46.6068   11.9135  -38.1067 H   0  0  0  0  0  0  0  0  0  0  0  0
  -48.2458   13.8488  -40.8381 H   0  0  0  0  0  0  0  0  0  0  0  0
  -48.1428   15.9544  -41.6015 H   0  0  0  0  0  0  0  0  0  0  0  0
  -47.3562   16.4100  -40.0322 H   0  0  0  0  0  0  0  0  0  0  0  0
  -47.5570   13.3711  -41.9043 H   0  0  0  0  0  0  0  0  0  0  0  0
  -47.5078   15.2350  -42.8786 H   0  0  0  0  0  0  0  0  0  0  0  0
  -44.6882   14.7835  -42.7082 H   0  0  0  0  0  0  0  0  0  0  0  0
  -44.4612   15.3950  -44.3828 H   0  0  0  0  0  0  0  0  0  0  0  0
  -45.5871   16.8918  -44.0935 H   0  0  0  0  0  0  0  0  0  0  0  0
  -42.8882   16.6457  -44.2053 H   0  0  0  0  0  0  0  0  0  0  0  0
  -44.1013   18.0472  -43.9765 H   0  0  0  0  0  0  0  0  0  0  0  0
  -42.5244   16.5093  -42.4477 H   0  0  0  0  0  0  0  0  0  0  0  0
  -40.8186   19.5779  -43.1179 H   0  0  0  0  0  0  0  0  0  0  0  0
  -41.0684   18.0381  -44.0085 H   0  0  0  0  0  0  0  0  0  0  0  0
  -42.3526   19.2942  -44.0085 H   0  0  0  0  0  0  0  0  0  0  0  0
  -42.3020   18.1350  -40.1212 H   0  0  0  0  0  0  0  0  0  0  0  0
  -40.6280   18.0459  -40.7664 H   0  0  0  0  0  0  0  0  0  0  0  0
  -41.5083   19.6117  -40.7664 H   0  0  0  0  0  0  0  0  0  0  0  0
  -43.0132   16.1967  -40.7441 H   0  0  0  0  0  0  0  0  0  0  0  0
  -44.2431   17.6317  -40.7239 H   0  0  0  0  0  0  0  0  0  0  0  0
  -45.7065   16.3574  -40.7924 H   0  0  0  0  0  0  0  0  0  0  0  0
  -44.4881   14.9511  -41.0267 H   0  0  0  0  0  0  0  0  0  0  0  0
  -47.4465   13.6462  -44.4548 H   0  0  0  0  0  0  0  0  0  0  0  0
  -45.8783   14.5125  -44.8113 H   0  0  0  0  0  0  0  0  0  0  0  0
  -43.9776   12.8855  -42.6167 H   0  0  0  0  0  0  0  0  0  0  0  0
  -43.5755   12.0449  -44.1524 H   0  0  0  0  0  0  0  0  0  0  0  0
  -43.8909   13.8133  -44.1524 H   0  0  0  0  0  0  0  0  0  0  0  0
  -47.2491   12.0726  -46.1284 H   0  0  0  0  0  0  0  0  0  0  0  0
  -47.1680   10.2569  -45.0831 H   0  0  0  0  0  0  0  0  0  0  0  0
  -48.6667   11.7410  -44.5749 H   0  0  0  0  0  0  0  0  0  0  0  0
  -48.2917   11.2338  -46.5744 H   0  0  0  0  0  0  0  0  0  0  0  0
  -50.3667   10.7618  -44.7202 H   0  0  0  0  0  0  0  0  0  0  0  0
  -50.3368   11.6860  -46.2602 H   0  0  0  0  0  0  0  0  0  0  0  0
  -49.9659    9.9284  -46.2602 H   0  0  0  0  0  0  0  0  0  0  0  0
  -44.2739   12.2159  -46.0742 H   0  0  0  0  0  0  0  0  0  0  0  0
  -45.7197    9.3651  -44.7846 H   0  0  0  0  0  0  0  0  0  0  0  0
  -44.1551   10.1608  -44.6563 H   0  0  0  0  0  0  0  0  0  0  0  0
  -46.0657    9.6156  -42.4950 H   0  0  0  0  0  0  0  0  0  0  0  0
  -44.5259   10.4614  -42.3196 H   0  0  0  0  0  0  0  0  0  0  0  0
  -47.3251   11.6212  -42.7519 H   0  0  0  0  0  0  0  0  0  0  0  0
  -44.8585   12.7078  -41.3559 H   0  0  0  0  0  0  0  0  0  0  0  0
  -45.6136   10.8679  -40.1381 H   0  0  0  0  0  0  0  0  0  0  0  0
  -47.3482   11.2819  -40.4447 H   0  0  0  0  0  0  0  0  0  0  0  0
  -18.0393   34.2811   -2.8190 H   0  0  0  0  0  0  0  0  0  0  0  0
  -18.7310   32.9621   -3.2750 H   0  0  0  0  0  0  0  0  0  0  0  0
  -20.5435   33.1751   -3.6736 H   0  0  0  0  0  0  0  0  0  0  0  0
  -20.2125   34.3158   -5.0615 H   0  0  0  0  0  0  0  0  0  0  0  0
  -16.8908   32.5454   -5.1886 H   0  0  0  0  0  0  0  0  0  0  0  0
  -17.3998   31.9226   -3.4849 H   0  0  0  0  0  0  0  0  0  0  0  0
  -17.9954   31.4577   -6.0324 H   0  0  0  0  0  0  0  0  0  0  0  0
  -17.1770   29.7576   -6.3625 H   0  0  0  0  0  0  0  0  0  0  0  0
  -16.3340   30.0000   -4.8254 H   0  0  0  0  0  0  0  0  0  0  0  0
  -19.8861   31.0171   -4.3190 H   0  0  0  0  0  0  0  0  0  0  0  0
  -21.4673   32.0514   -5.5030 H   0  0  0  0  0  0  0  0  0  0  0  0
  -20.1852   32.6306   -6.6319 H   0  0  0  0  0  0  0  0  0  0  0  0
  -20.4878   29.8065   -4.4979 H   0  0  0  0  0  0  0  0  0  0  0  0
  -22.1171   30.6790   -5.5088 H   0  0  0  0  0  0  0  0  0  0  0  0
  -21.7882   28.7720   -7.5286 H   0  0  0  0  0  0  0  0  0  0  0  0
  -23.5362   29.0860   -7.7990 H   0  0  0  0  0  0  0  0  0  0  0  0
  -23.3166   30.9574   -7.7789 H   0  0  0  0  0  0  0  0  0  0  0  0
  -23.6660   29.1964   -9.8090 H   0  0  0  0  0  0  0  0  0  0  0  0
  -23.4430   31.0581   -9.6548 H   0  0  0  0  0  0  0  0  0  0  0  0
  -21.9630   28.9257  -10.3243 H   0  0  0  0  0  0  0  0  0  0  0  0
  -24.1004   30.2973  -11.5019 H   0  0  0  0  0  0  0  0  0  0  0  0
  -23.3519   31.1312  -12.9059 H   0  0  0  0  0  0  0  0  0  0  0  0
  -23.5144   29.3423  -12.9059 H   0  0  0  0  0  0  0  0  0  0  0  0
  -19.9110   30.0691  -11.7929 H   0  0  0  0  0  0  0  0  0  0  0  0
  -20.7877   29.1867  -13.0888 H   0  0  0  0  0  0  0  0  0  0  0  0
  -20.7552   30.9827  -13.0888 H   0  0  0  0  0  0  0  0  0  0  0  0
  -20.1804   29.0167  -10.0513 H   0  0  0  0  0  0  0  0  0  0  0  0
  -20.1832   30.8867   -9.8851 H   0  0  0  0  0  0  0  0  0  0  0  0
  -19.9586   30.6972   -7.9443 H   0  0  0  0  0  0  0  0  0  0  0  0
  -20.1892   28.8309   -8.1035 H   0  0  0  0  0  0  0  0  0  0  0  0
  -22.8771   28.8520   -4.4747 H   0  0  0  0  0  0  0  0  0  0  0  0
  -23.2050   28.3498   -6.1953 H   0  0  0  0  0  0  0  0  0  0  0  0
  -20.7028   25.7482   -6.4126 H   0  0  0  0  0  0  0  0  0  0  0  0
  -22.1398   26.5129   -7.1722 H   0  0  0  0  0  0  0  0  0  0  0  0
  -20.5611   27.3698   -7.1722 H   0  0  0  0  0  0  0  0  0  0  0  0
  -23.0933   27.5525   -3.3630 H   0  0  0  0  0  0  0  0  0  0  0  0
  -22.2983   25.7724   -2.5915 H   0  0  0  0  0  0  0  0  0  0  0  0
  -21.8434   28.0418   -2.0799 H   0  0  0  0  0  0  0  0  0  0  0  0
  -23.5782   26.8801   -1.8881 H   0  0  0  0  0  0  0  0  0  0  0  0
  -22.3864   26.7911    0.1972 H   0  0  0  0  0  0  0  0  0  0  0  0
  -22.0146   28.4857   -0.2683 H   0  0  0  0  0  0  0  0  0  0  0  0
  -23.7150   27.9068   -0.2683 H   0  0  0  0  0  0  0  0  0  0  0  0
  -23.9603   25.4801   -4.1718 H   0  0  0  0  0  0  0  0  0  0  0  0
  -20.9962   24.6556   -3.4718 H   0  0  0  0  0  0  0  0  0  0  0  0
  -20.9225   24.6787   -5.2286 H   0  0  0  0  0  0  0  0  0  0  0  0
  -19.2341   26.1827   -3.2602 H   0  0  0  0  0  0  0  0  0  0  0  0
  -18.9281   26.0029   -4.9790 H   0  0  0  0  0  0  0  0  0  0  0  0
  -20.4095   28.1917   -3.5124 H   0  0  0  0  0  0  0  0  0  0  0  0
  -19.2457   28.0985   -6.3467 H   0  0  0  0  0  0  0  0  0  0  0  0
  -17.4875   27.7889   -4.8718 H   0  0  0  0  0  0  0  0  0  0  0  0
  -18.2301   28.8767   -3.6287 H   0  0  0  0  0  0  0  0  0  0  0  0
  -49.7122   34.0118  -14.6460 H   0  0  0  0  0  0  0  0  0  0  0  0
  -50.3159   35.3398  -13.7630 H   0  0  0  0  0  0  0  0  0  0  0  0
  -48.9314   35.1943  -12.5104 H   0  0  0  0  0  0  0  0  0  0  0  0
  -47.6230   35.4379  -13.7634 H   0  0  0  0  0  0  0  0  0  0  0  0
  -50.3163   37.2472  -15.6644 H   0  0  0  0  0  0  0  0  0  0  0  0
  -51.4581   36.4278  -14.3955 H   0  0  0  0  0  0  0  0  0  0  0  0
  -49.7381   38.4516  -14.5079 H   0  0  0  0  0  0  0  0  0  0  0  0
  -50.8955   39.9471  -14.5851 H   0  0  0  0  0  0  0  0  0  0  0  0
  -52.2726   38.8090  -14.6828 H   0  0  0  0  0  0  0  0  0  0  0  0
  -50.0308   37.3591  -12.1812 H   0  0  0  0  0  0  0  0  0  0  0  0
  -47.8918   37.1209  -11.7549 H   0  0  0  0  0  0  0  0  0  0  0  0
  -47.5177   37.6856  -13.4436 H   0  0  0  0  0  0  0  0  0  0  0  0
  -50.1477   38.3469  -11.1964 H   0  0  0  0  0  0  0  0  0  0  0  0
  -48.1008   38.0926  -10.6327 H   0  0  0  0  0  0  0  0  0  0  0  0
  -47.7274   40.8197  -10.7862 H   0  0  0  0  0  0  0  0  0  0  0  0
  -46.2465   40.4311   -9.8623 H   0  0  0  0  0  0  0  0  0  0  0  0
  -45.7425   39.0445  -11.0263 H   0  0  0  0  0  0  0  0  0  0  0  0
  -44.8577   41.5911  -10.7475 H   0  0  0  0  0  0  0  0  0  0  0  0
  -44.4412   40.1205  -11.8531 H   0  0  0  0  0  0  0  0  0  0  0  0
  -45.7932   42.4286  -12.0392 H   0  0  0  0  0  0  0  0  0  0  0  0
  -43.1861   42.5020  -11.6525 H   0  0  0  0  0  0  0  0  0  0  0  0
  -42.5447   41.6583  -13.1028 H   0  0  0  0  0  0  0  0  0  0  0  0
  -42.7068   43.4472  -13.1028 H   0  0  0  0  0  0  0  0  0  0  0  0
  -45.3041   44.0882  -14.2235 H   0  0  0  0  0  0  0  0  0  0  0  0
  -43.9452   43.2954  -15.0904 H   0  0  0  0  0  0  0  0  0  0  0  0
  -45.5741   42.5382  -15.0904 H   0  0  0  0  0  0  0  0  0  0  0  0
  -47.1532   42.5028  -13.2163 H   0  0  0  0  0  0  0  0  0  0  0  0
  -46.5802   40.9738  -14.1487 H   0  0  0  0  0  0  0  0  0  0  0  0
  -48.0205   39.9530  -13.3237 H   0  0  0  0  0  0  0  0  0  0  0  0
  -48.4341   41.4307  -12.2228 H   0  0  0  0  0  0  0  0  0  0  0  0
  -49.1297   38.6382   -8.8180 H   0  0  0  0  0  0  0  0  0  0  0  0
  -48.0610   40.1008   -8.9633 H   0  0  0  0  0  0  0  0  0  0  0  0
  -49.5023   42.4729   -8.9774 H   0  0  0  0  0  0  0  0  0  0  0  0
  -48.7723   41.7812  -10.4658 H   0  0  0  0  0  0  0  0  0  0  0  0
  -50.4927   42.2979  -10.4658 H   0  0  0  0  0  0  0  0  0  0  0  0
  -50.8230   39.6909   -6.4069 H   0  0  0  0  0  0  0  0  0  0  0  0
  -51.1912   38.7096   -8.2228 H   0  0  0  0  0  0  0  0  0  0  0  0
  -50.9346   38.5674   -5.9123 H   0  0  0  0  0  0  0  0  0  0  0  0
  -50.8019   37.6484   -7.7922 H   0  0  0  0  0  0  0  0  0  0  0  0
  -50.3259   36.9747   -5.1160 H   0  0  0  0  0  0  0  0  0  0  0  0
  -51.0894   36.1463   -6.5151 H   0  0  0  0  0  0  0  0  0  0  0  0
  -49.3215   36.4644   -6.5151 H   0  0  0  0  0  0  0  0  0  0  0  0
  -50.3502   41.3399   -6.3163 H   0  0  0  0  0  0  0  0  0  0  0  0
  -52.9548   40.0350   -7.9568 H   0  0  0  0  0  0  0  0  0  0  0  0
  -52.6204   41.7728   -7.9677 H   0  0  0  0  0  0  0  0  0  0  0  0
  -53.3723   40.3864  -10.2733 H   0  0  0  0  0  0  0  0  0  0  0  0
  -52.3604   41.7978  -10.3973 H   0  0  0  0  0  0  0  0  0  0  0  0
  -51.5254   38.8228  -10.2001 H   0  0  0  0  0  0  0  0  0  0  0  0
  -50.4724   40.9952  -12.0726 H   0  0  0  0  0  0  0  0  0  0  0  0
  -52.5426   40.5131  -12.8574 H   0  0  0  0  0  0  0  0  0  0  0  0
  -52.4845   38.8025  -12.2411 H   0  0  0  0  0  0  0  0  0  0  0  0
  -44.5655   35.5630  -62.1152 H   0  0  0  0  0  0  0  0  0  0  0  0
  -46.9920   36.1093  -62.2959 H   0  0  0  0  0  0  0  0  0  0  0  0
  -47.4073   34.7120  -61.1181 H   0  0  0  0  0  0  0  0  0  0  0  0
  -45.7447   34.6870  -60.3772 H   0  0  0  0  0  0  0  0  0  0  0  0
  -45.6183   38.2890  -61.5240 H   0  0  0  0  0  0  0  0  0  0  0  0
  -47.1478   37.7864  -62.5155 H   0  0  0  0  0  0  0  0  0  0  0  0
  -46.5116   38.3875  -60.0065 H   0  0  0  0  0  0  0  0  0  0  0  0
  -47.3423   40.0953  -59.7299 H   0  0  0  0  0  0  0  0  0  0  0  0
  -47.5780   40.1243  -61.4930 H   0  0  0  0  0  0  0  0  0  0  0  0
  -48.5108   36.7308  -60.3833 H   0  0  0  0  0  0  0  0  0  0  0  0
  -47.8413   35.2259  -58.8937 H   0  0  0  0  0  0  0  0  0  0  0  0
  -46.2930   36.1709  -58.7255 H   0  0  0  0  0  0  0  0  0  0  0  0
  -49.6194   37.0528  -59.6489 H   0  0  0  0  0  0  0  0  0  0  0  0
  -49.1304   35.5342  -58.2381 H   0  0  0  0  0  0  0  0  0  0  0  0
  -49.4712   37.5305  -56.2784 H   0  0  0  0  0  0  0  0  0  0  0  0
  -50.1148   36.2508  -55.1992 H   0  0  0  0  0  0  0  0  0  0  0  0
  -48.7753   35.0227  -55.6513 H   0  0  0  0  0  0  0  0  0  0  0  0
  -49.1137   36.6163  -53.4844 H   0  0  0  0  0  0  0  0  0  0  0  0
  -47.8236   35.3659  -54.0538 H   0  0  0  0  0  0  0  0  0  0  0  0
  -48.0817   38.0341  -53.9139 H   0  0  0  0  0  0  0  0  0  0  0  0
  -46.6884   37.4067  -50.9092 H   0  0  0  0  0  0  0  0  0  0  0  0
  -48.0391   36.5744  -51.7515 H   0  0  0  0  0  0  0  0  0  0  0  0
  -46.3966   35.8472  -51.7515 H   0  0  0  0  0  0  0  0  0  0  0  0
  -45.3057   38.7750  -51.9817 H   0  0  0  0  0  0  0  0  0  0  0  0
  -44.6947   38.1167  -53.5373 H   0  0  0  0  0  0  0  0  0  0  0  0
  -45.9275   39.4232  -53.5373 H   0  0  0  0  0  0  0  0  0  0  0  0
  -47.1537   39.0362  -55.1099 H   0  0  0  0  0  0  0  0  0  0  0  0
  -45.9819   37.6466  -55.5520 H   0  0  0  0  0  0  0  0  0  0  0  0
  -46.9451   37.3765  -57.2398 H   0  0  0  0  0  0  0  0  0  0  0  0
  -48.2237   38.6527  -56.6959 H   0  0  0  0  0  0  0  0  0  0  0  0
  -51.3744   35.8067  -58.5106 H   0  0  0  0  0  0  0  0  0  0  0  0
  -51.1957   35.8960  -56.7373 H   0  0  0  0  0  0  0  0  0  0  0  0
  -51.3464   38.0274  -55.5644 H   0  0  0  0  0  0  0  0  0  0  0  0
  -49.8704   38.4569  -56.4937 H   0  0  0  0  0  0  0  0  0  0  0  0
  -51.2854   39.5634  -56.4937 H   0  0  0  0  0  0  0  0  0  0  0  0
  -54.0078   36.3291  -58.1356 H   0  0  0  0  0  0  0  0  0  0  0  0
  -53.5653   37.8316  -59.5295 H   0  0  0  0  0  0  0  0  0  0  0  0
  -54.0819   37.1232  -60.3446 H   0  0  0  0  0  0  0  0  0  0  0  0
  -52.9843   35.5655  -59.4700 H   0  0  0  0  0  0  0  0  0  0  0  0
  -54.6818   34.4341  -60.3325 H   0  0  0  0  0  0  0  0  0  0  0  0
  -55.0030   35.8327  -61.4129 H   0  0  0  0  0  0  0  0  0  0  0  0
  -53.3859   35.0505  -61.4129 H   0  0  0  0  0  0  0  0  0  0  0  0
  -53.0976   37.8211  -55.7759 H   0  0  0  0  0  0  0  0  0  0  0  0
  -54.2932   39.3855  -58.7143 H   0  0  0  0  0  0  0  0  0  0  0  0
  -53.4117   39.9829  -57.3135 H   0  0  0  0  0  0  0  0  0  0  0  0
  -52.5086   39.8618  -60.1458 H   0  0  0  0  0  0  0  0  0  0  0  0
  -51.6456   40.6117  -58.8025 H   0  0  0  0  0  0  0  0  0  0  0  0
  -51.3677   37.8484  -59.9705 H   0  0  0  0  0  0  0  0  0  0  0  0
  -49.4782   39.5188  -58.2649 H   0  0  0  0  0  0  0  0  0  0  0  0
  -49.7273   40.5972  -60.2889 H   0  0  0  0  0  0  0  0  0  0  0  0
  -49.8211   39.0351  -61.2029 H   0  0  0  0  0  0  0  0  0  0  0  0
  1  2  1  0
  2  3  1  0
  2  4  1  0
  4  5  1  0
  5  6  1  0
  5  7  1  0
  3  8  1  0
  7  8  1  0
  7  9  1  0
  9 10  1  0
 10 11  1  0
 11 12  1  0
 12 13  1  0
 13 14  1  0
 14 15  1  0
 15 16  1  0
 15 17  1  0
 14 18  1  0
 11 19  1  0
 18 19  1  0
 10 20  1  0
 20 21  1  0
 21 22  1  1
 21 23  1  0
 23 24  1  0
 24 25  1  0
 25 26  1  0
 23 27  1  6
 23 28  1  0
 28 29  1  0
 21 30  1  0
 29 30  1  0
  9 31  1  0
 30 31  1  0
  6 32  1  0
 31 32  1  0
 33 34  1  0
 34 35  1  0
 34 36  1  0
 36 37  1  0
 37 38  1  0
 37 39  1  0
 35 40  1  0
 39 40  1  0
 39 41  1  0
 41 42  1  0
 42 43  1  0
 43 44  1  0
 44 45  1  0
 45 46  1  0
 46 47  1  0
 47 48  1  0
 47 49  1  0
 46 50  1  0
 43 51  1  0
 50 51  1  0
 42 52  1  0
 52 53  1  0
 53 54  1  6
 53 55  1  0
 55 56  1  0
 56 57  1  0
 57 58  1  0
 55 59  1  6
 55 60  1  0
 60 61  1  0
 53 62  1  0
 61 62  1  0
 41 63  1  0
 62 63  1  0
 38 64  1  0
 63 64  1  0
 65 66  1  0
 66 67  1  0
 66 68  1  0
 68 69  1  0
 69 70  1  0
 69 71  1  0
 67 72  1  0
 71 72  1  0
 71 73  1  0
 73 74  1  0
 74 75  1  0
 75 76  1  0
 76 77  1  0
 77 78  1  0
 78 79  1  0
 79 80  1  0
 79 81  1  0
 78 82  1  0
 75 83  1  0
 82 83  1  0
 74 84  1  0
 84 85  1  0
 85 86  1  6
 85 87  1  0
 87 88  1  0
 88 89  1  0
 89 90  1  0
 87 91  1  1
 87 92  1  0
 92 93  1  0
 85 94  1  0
 93 94  1  0
 73 95  1  0
 94 95  1  0
 70 96  1  0
 95 96  1  0
 97 98  1  0
 98 99  1  0
 98100  1  0
100101  1  0
101102  1  0
101103  1  0
 99104  1  0
103104  1  0
103105  1  0
105106  1  0
106107  1  0
107108  1  0
108109  1  0
109110  1  0
110111  1  0
111112  1  0
111113  1  0
110114  1  0
107115  1  0
114115  1  0
106116  1  0
116117  1  0
117118  1  1
117119  1  0
119120  1  0
120121  1  0
121122  1  0
119123  1  1
119124  1  0
124125  1  0
117126  1  0
125126  1  0
105127  1  0
126127  1  0
102128  1  0
127128  1  0
  1129  1  0
  2130  1  0
  3131  1  0
  3132  1  0
  4133  1  0
  4134  1  0
  5135  1  0
  6136  1  0
  6137  1  0
  7138  1  0
  8139  1  0
  8140  1  0
  9141  1  0
 10142  1  6
 11143  1  0
 12144  1  0
 12145  1  0
 13146  1  0
 13147  1  0
 14148  1  0
 16149  1  0
 16150  1  0
 16151  1  0
 17152  1  0
 17153  1  0
 17154  1  0
 18155  1  0
 18156  1  0
 19157  1  0
 19158  1  0
 20159  1  0
 20160  1  0
 22161  1  0
 22162  1  0
 22163  1  0
 24164  1  0
 24165  1  0
 25166  1  0
 25167  1  0
 26168  1  0
 26169  1  0
 26170  1  0
 27171  1  0
 28172  1  0
 28173  1  0
 29174  1  0
 29175  1  0
 30176  1  6
 31177  1  1
 32178  1  0
 32179  1  0
 33180  1  0
 34181  1  0
 35182  1  0
 35183  1  0
 36184  1  0
 36185  1  0
 37186  1  0
 38187  1  0
 38188  1  0
 39189  1  0
 40190  1  0
 40191  1  0
 41192  1  0
 42193  1  1
 43194  1  0
 44195  1  0
 44196  1  0
 45197  1  0
 45198  1  0
 46199  1  0
 48200  1  0
 48201  1  0
 48202  1  0
 49203  1  0
 49204  1  0
 49205  1  0
 50206  1  0
 50207  1  0
 51208  1  0
 51209  1  0
 52210  1  0
 52211  1  0
 54212  1  0
 54213  1  0
 54214  1  0
 56215  1  0
 56216  1  0
 57217  1  0
 57218  1  0
 58219  1  0
 58220  1  0
 58221  1  0
 59222  1  0
 60223  1  0
 60224  1  0
 61225  1  0
 61226  1  0
 62227  1  1
 63228  1  6
 64229  1  0
 64230  1  0
 65231  1  0
 66232  1  0
 67233  1  0
 67234  1  0
 68235  1  0
 68236  1  0
 69237  1  1
 70238  1  0
 70239  1  0
 71240  1  1
 72241  1  0
 72242  1  0
 73243  1  0
 74244  1  1
 75245  1  0
 76246  1  0
 76247  1  0
 77248  1  0
 77249  1  0
 78250  1  0
 80251  1  0
 80252  1  0
 80253  1  0
 81254  1  0
 81255  1  0
 81256  1  0
 82257  1  0
 82258  1  0
 83259  1  0
 83260  1  0
 84261  1  0
 84262  1  0
 86263  1  0
 86264  1  0
 86265  1  0
 88266  1  0
 88267  1  0
 89268  1  0
 89269  1  0
 90270  1  0
 90271  1  0
 90272  1  0
 91273  1  0
 92274  1  0
 92275  1  0
 93276  1  0
 93277  1  0
 94278  1  1
 95279  1  6
 96280  1  0
 96281  1  0
 97282  1  0
 98283  1  0
 99284  1  0
 99285  1  0
100286  1  0
100287  1  0
101288  1  0
102289  1  0
102290  1  0
103291  1  0
104292  1  0
104293  1  0
105294  1  0
106295  1  6
107296  1  0
108297  1  0
108298  1  0
109299  1  0
109300  1  0
110301  1  0
112302  1  0
112303  1  0
112304  1  0
113305  1  0
113306  1  0
113307  1  0
114308  1  0
114309  1  0
115310  1  0
115311  1  0
116312  1  0
116313  1  0
118314  1  0
118315  1  0
118316  1  0
120317  1  0
120318  1  0
121319  1  0
121320  1  0
122321  1  0
122322  1  0
122323  1  0
123324  1  0
124325  1  0
124326  1  0
125327  1  0
125328  1  0
126329  1  6
127330  1  1
128331  1  0
128332  1  0
M  END
>  <PDBID>  (1) 
3H52

>  <PDB ID>  (1) 
3H52

>  <Generic Name>  (1) 
Mifepristone

>  <Brand Name>  (1) 
Korlym#Mifegymiso#Corlux#Mefipil#Mifegyne#Mifeprex

>  <DrugBank ID>  (1) 
DB00834

>  <ATC Codes>  (1) 
G03XB01#G03XB51

>  <Ligand ID>  (1) 
486

>  <Target Name>  (1) 
Glucocorticoid receptor

>  <UniProt ID>  (1) 
P04150

>  <PDB ID.1>  (1) 
3H52

>  <Seq. Identity>  (1) 
98%

$$$$
