PDB_DB00513_99
     RDKit          3D

 25 24  0  0  0  0  0  0  0  0999 V2000
    6.8040   -2.1080    5.7500 C   0  0  0  0  0  0  0  0  0  0  0  0
    7.8830   -1.9140    5.2150 O   0  0  0  0  0  0  0  0  0  0  0  0
    6.5240   -1.9550    6.9260 O   0  0  0  0  0  0  0  0  0  0  0  0
    5.6740   -2.5970    4.8410 C   0  0  0  0  0  0  0  0  0  0  0  0
    4.4750   -3.0130    5.6930 C   0  0  0  0  0  0  0  0  0  0  0  0
    4.8400   -4.2590    6.5050 C   0  0  0  0  0  0  0  0  0  0  0  0
    4.5240   -4.0110    7.9850 C   0  0  0  0  0  0  0  0  0  0  0  0
    3.0340   -3.6930    8.1410 C   0  0  0  0  0  0  0  0  0  0  0  0
    2.4240   -4.5500    9.1960 N   0  0  0  0  0  4  0  0  0  0  0  0
    6.0220   -3.4400    4.2630 H   0  0  0  0  0  0  0  0  0  0  0  0
    5.3850   -1.8020    4.1730 H   0  0  0  0  0  0  0  0  0  0  0  0
    3.6340   -3.2330    5.0500 H   0  0  0  0  0  0  0  0  0  0  0  0
    4.2100   -2.2100    6.3610 H   0  0  0  0  0  0  0  0  0  0  0  0
    5.8920   -4.4710    6.3900 H   0  0  0  0  0  0  0  0  0  0  0  0
    4.2690   -5.1020    6.1490 H   0  0  0  0  0  0  0  0  0  0  0  0
    5.1110   -3.1810    8.3480 H   0  0  0  0  0  0  0  0  0  0  0  0
    4.7680   -4.8930    8.5600 H   0  0  0  0  0  0  0  0  0  0  0  0
    2.5260   -3.8690    7.2050 H   0  0  0  0  0  0  0  0  0  0  0  0
    2.9130   -2.6560    8.4170 H   0  0  0  0  0  0  0  0  0  0  0  0
    2.3210   -4.0000   10.0720 H   0  0  0  0  0  0  0  0  0  0  0  0
    3.0370   -5.3710    9.3730 H   0  0  0  0  0  0  0  0  0  0  0  0
    1.4900   -4.8780    8.8800 H   0  0  0  0  0  0  0  0  0  0  0  0
    7.0925   -3.1497    5.9542 H   0  0  0  0  0  0  0  0  0  0  0  0
    8.5778   -1.7891    5.9091 H   0  0  0  0  0  0  0  0  0  0  0  0
    7.2387   -2.3455    7.4889 H   0  0  0  0  0  0  0  0  0  0  0  0
  1  2  1  0
  1  3  1  0
  1  4  1  0
  4  5  1  0
  5  6  1  0
  6  7  1  0
  7  8  1  0
  8  9  1  0
  4 10  1  0
  4 11  1  0
  5 12  1  0
  5 13  1  0
  6 14  1  0
  6 15  1  0
  7 16  1  0
  7 17  1  0
  8 18  1  0
  8 19  1  0
  9 20  1  0
  9 21  1  0
 22  9  1  0
  1 23  1  0
  2 24  1  0
  3 25  1  0
M  CHG  1   9   1
M  END
>  <PDBID>  (1) 
1HPK

>  <PDB ID>  (1) 
1HPK

>  <Generic Name>  (1) 
Aminocaproic Acid

>  <Brand Name>  (1) 
Amicar#Aminocaproic Acid#Exoden White Tooth#Acepramin#Amocap#Caproamin#Caprocat#Caprolisin#E-Capro#Epsicaprom#Hemocid#Inselon#Ipron#Ipsilon#Kai Nai Yin#Minocap#Plaslloid#Resplamin

>  <DrugBank ID>  (1) 
DB00513

>  <ATC Codes>  (1) 
B02AA01

>  <Ligand ID>  (1) 
ACA

>  <Target Name>  (1) 
Plasminogen

>  <UniProt ID>  (1) 
P00747

>  <PDB ID.1>  (1) 
1HPK

>  <Seq. Identity>  (1) 
100%

$$$$
