PDB_DB00207_99
     RDKit          3D

124126  0  0  0  0  0  0  0  0999 V2000
   68.1660  -56.5520   -6.3510 C   0  0  0  0  0  0  0  0  0  0  0  0
   69.3360  -57.1200   -5.5500 C   0  0  1  0  0  0  0  0  0  0  0  0
   70.6590  -56.8120   -6.3470 C   0  0  2  0  0  0  0  0  0  0  0  0
   71.3660  -58.1710   -6.7370 C   0  0  1  0  0  0  0  0  0  0  0  0
   72.3330  -57.9250   -7.9720 C   0  0  2  0  0  0  0  0  0  0  0  0
   71.7020  -58.1440   -9.4240 C   0  0  2  0  0  0  0  0  0  0  0  0
   71.4250  -59.6270   -9.7300 C   0  0  0  0  0  0  0  0  0  0  0  0
   70.8590  -60.0780  -11.0870 C   0  0  2  0  0  0  0  0  0  0  0  0
   69.3410  -60.0550  -11.2210 C   0  0  0  0  0  0  0  0  0  0  0  0
   68.7210  -58.7120  -11.0660 N   0  0  0  0  0  0  0  0  0  0  0  0
   67.3310  -58.9290  -10.5960 C   0  0  1  0  0  0  0  0  0  0  0  0
   67.1270  -57.9430   -9.4000 C   0  0  2  0  0  0  0  0  0  0  0  0
   65.8640  -58.2260   -8.4440 C   0  0  2  0  0  0  0  0  0  0  0  0
   65.9260  -57.1610   -7.2470 C   0  0  1  0  0  0  0  0  0  0  0  0
   64.7330  -57.2850   -6.2320 C   0  0  0  0  0  0  0  0  0  0  0  0
   64.7760  -56.2700   -5.1120 C   0  0  0  0  0  0  0  0  0  0  0  0
   69.2630  -56.5350   -4.1070 C   0  0  0  0  0  0  0  0  0  0  0  0
   72.0550  -58.8240   -5.5150 C   0  0  0  0  0  0  0  0  0  0  0  0
   72.6210  -57.5230  -10.5140 C   0  0  0  0  0  0  0  0  0  0  0  0
   71.2650  -61.5360  -11.2870 C   0  0  0  0  0  0  0  0  0  0  0  0
   68.8920  -57.8990  -12.3140 C   0  0  0  0  0  0  0  0  0  0  0  0
   66.2090  -58.8440  -11.7100 C   0  0  0  0  0  0  0  0  0  0  0  0
   65.7720  -59.6840   -7.9800 C   0  0  0  0  0  0  0  0  0  0  0  0
   68.1040  -55.4150   -6.7830 O   0  0  0  0  0  0  0  0  0  0  0  0
   70.4910  -57.3000   -9.4180 O   0  0  0  0  0  0  0  0  0  0  0  0
   66.9820  -56.5980   -9.9350 O   0  0  0  0  0  0  0  0  0  0  0  0
   64.6080  -57.9230   -9.1720 O   0  0  0  0  0  0  0  0  0  0  0  0
   67.1800  -57.4790   -6.5160 O   0  0  0  0  0  0  0  0  0  0  0  0
   74.7660  -58.2240   -7.6580 C   0  0  2  0  0  0  0  0  0  0  0  0
   75.7600  -59.3580   -7.3070 C   0  0  1  0  0  0  0  0  0  0  0  0
   77.1580  -58.7460   -7.0280 C   0  0  2  0  0  0  0  0  0  0  0  0
   77.5650  -57.9510   -8.2990 C   0  0  0  0  0  0  0  0  0  0  0  0
   76.5410  -56.8400   -8.6260 C   0  0  1  0  0  0  0  0  0  0  0  0
   76.9100  -56.0790   -9.8670 C   0  0  0  0  0  0  0  0  0  0  0  0
   79.3450  -59.2980   -6.1290 C   0  0  0  0  0  0  0  0  0  0  0  0
   78.3870  -60.8370   -7.6910 C   0  0  0  0  0  0  0  0  0  0  0  0
   73.5140  -58.7940   -7.9400 O   0  0  0  0  0  0  0  0  0  0  0  0
   75.3170  -60.0890   -6.1910 O   0  0  0  0  0  0  0  0  0  0  0  0
   78.0930  -59.8610   -6.6090 N   0  0  0  0  0  0  0  0  0  0  0  0
   75.2370  -57.4720   -8.8220 O   0  0  0  0  0  0  0  0  0  0  0  0
   71.5520  -54.6010   -5.8720 C   0  0  2  0  0  0  0  0  0  0  0  0
   71.9470  -53.8370   -4.6510 C   0  0  0  0  0  0  0  0  0  0  0  0
   73.4480  -53.9120   -4.2300 C   0  0  1  0  0  0  0  0  0  0  0  0
   74.2240  -53.4250   -5.4700 C   0  0  2  0  0  0  0  0  0  0  0  0
   73.8650  -54.2740   -6.7190 C   0  0  2  0  0  0  0  0  0  0  0  0
   74.5400  -53.8370   -8.0030 C   0  0  0  0  0  0  0  0  0  0  0  0
   73.7640  -53.0710   -2.9680 C   0  0  0  0  0  0  0  0  0  0  0  0
   73.3590  -56.0020   -2.8900 C   0  0  0  0  0  0  0  0  0  0  0  0
   71.6080  -55.9990   -5.5930 O   0  0  0  0  0  0  0  0  0  0  0  0
   73.9130  -55.2920   -3.9940 O   0  0  0  0  0  0  0  0  0  0  0  0
   75.6570  -53.4620   -5.2510 O   0  0  0  0  0  0  0  0  0  0  0  0
   72.4420  -54.2330   -6.9600 O   0  0  0  0  0  0  0  0  0  0  0  0
   69.3044  -58.2128   -5.4286 H   0  0  0  0  0  0  0  0  0  0  0  0
   70.3632  -56.2396   -7.2385 H   0  0  0  0  0  0  0  0  0  0  0  0
   70.6131  -58.9060   -7.0577 H   0  0  0  0  0  0  0  0  0  0  0  0
   72.5723  -56.8594   -7.8409 H   0  0  0  0  0  0  0  0  0  0  0  0
   72.3824  -60.1535   -9.6033 H   0  0  0  0  0  0  0  0  0  0  0  0
   70.5988  -59.8588   -9.0418 H   0  0  0  0  0  0  0  0  0  0  0  0
   71.2594  -59.3628  -11.8207 H   0  0  0  0  0  0  0  0  0  0  0  0
   69.0797  -60.4394  -12.2180 H   0  0  0  0  0  0  0  0  0  0  0  0
   68.9485  -60.6736  -10.4004 H   0  0  0  0  0  0  0  0  0  0  0  0
   67.2077  -59.9738  -10.2747 H   0  0  0  0  0  0  0  0  0  0  0  0
   68.0149  -58.0820   -8.7658 H   0  0  0  0  0  0  0  0  0  0  0  0
   65.8771  -56.1438   -7.6629 H   0  0  0  0  0  0  0  0  0  0  0  0
   63.7917  -57.1512   -6.7853 H   0  0  0  0  0  0  0  0  0  0  0  0
   64.8105  -58.2787   -5.7667 H   0  0  0  0  0  0  0  0  0  0  0  0
   64.7539  -56.7914   -4.1436 H   0  0  0  0  0  0  0  0  0  0  0  0
   65.7000  -55.6782   -5.1888 H   0  0  0  0  0  0  0  0  0  0  0  0
   63.9053  -55.6021   -5.1888 H   0  0  0  0  0  0  0  0  0  0  0  0
   69.3647  -57.3501   -3.3753 H   0  0  0  0  0  0  0  0  0  0  0  0
   70.0776  -55.8098   -3.9637 H   0  0  0  0  0  0  0  0  0  0  0  0
   68.2952  -56.0323   -3.9637 H   0  0  0  0  0  0  0  0  0  0  0  0
   71.6238  -58.4153   -4.5892 H   0  0  0  0  0  0  0  0  0  0  0  0
   71.8977  -59.9123   -5.5435 H   0  0  0  0  0  0  0  0  0  0  0  0
   73.1333  -58.6085   -5.5435 H   0  0  0  0  0  0  0  0  0  0  0  0
   73.4400  -56.9696  -10.0313 H   0  0  0  0  0  0  0  0  0  0  0  0
   73.0394  -58.3242  -11.1409 H   0  0  0  0  0  0  0  0  0  0  0  0
   72.0337  -56.8359  -11.1409 H   0  0  0  0  0  0  0  0  0  0  0  0
   71.3990  -62.0171  -10.3069 H   0  0  0  0  0  0  0  0  0  0  0  0
   70.4791  -62.0617  -11.8491 H   0  0  0  0  0  0  0  0  0  0  0  0
   72.2095  -61.5798  -11.8491 H   0  0  0  0  0  0  0  0  0  0  0  0
   69.1115  -56.8554  -12.0445 H   0  0  0  0  0  0  0  0  0  0  0  0
   69.7239  -58.3074  -12.9066 H   0  0  0  0  0  0  0  0  0  0  0  0
   67.9661  -57.9377  -12.9066 H   0  0  0  0  0  0  0  0  0  0  0  0
   65.2216  -58.7692  -11.2310 H   0  0  0  0  0  0  0  0  0  0  0  0
   66.3808  -57.9563  -12.3365 H   0  0  0  0  0  0  0  0  0  0  0  0
   66.2451  -59.7475  -12.3365 H   0  0  0  0  0  0  0  0  0  0  0  0
   65.7698  -59.7195   -6.8806 H   0  0  0  0  0  0  0  0  0  0  0  0
   64.8437  -60.1329   -8.3632 H   0  0  0  0  0  0  0  0  0  0  0  0
   66.6365  -60.2460   -8.3632 H   0  0  0  0  0  0  0  0  0  0  0  0
   70.2234  -57.1135   -8.4833 H   0  0  0  0  0  0  0  0  0  0  0  0
   66.9123  -55.9516   -9.1884 H   0  0  0  0  0  0  0  0  0  0  0  0
   63.8831  -57.7481   -8.5208 H   0  0  0  0  0  0  0  0  0  0  0  0
   74.6860  -57.5326   -6.8062 H   0  0  0  0  0  0  0  0  0  0  0  0
   75.8239  -60.0504   -8.1593 H   0  0  0  0  0  0  0  0  0  0  0  0
   77.1831  -58.0298   -6.1935 H   0  0  0  0  0  0  0  0  0  0  0  0
   78.5502  -57.4909   -8.1323 H   0  0  0  0  0  0  0  0  0  0  0  0
   77.5972  -58.6505   -9.1473 H   0  0  0  0  0  0  0  0  0  0  0  0
   76.5228  -56.1228   -7.7922 H   0  0  0  0  0  0  0  0  0  0  0  0
   77.3740  -55.1221   -9.5859 H   0  0  0  0  0  0  0  0  0  0  0  0
   77.6213  -56.6706  -10.4620 H   0  0  0  0  0  0  0  0  0  0  0  0
   76.0050  -55.8869  -10.4620 H   0  0  0  0  0  0  0  0  0  0  0  0
   79.3485  -59.2964   -5.0290 H   0  0  0  0  0  0  0  0  0  0  0  0
   80.1851  -59.9050   -6.4975 H   0  0  0  0  0  0  0  0  0  0  0  0
   79.4484  -58.2667   -6.4975 H   0  0  0  0  0  0  0  0  0  0  0  0
   78.6772  -61.8005   -7.2467 H   0  0  0  0  0  0  0  0  0  0  0  0
   77.4907  -60.9754   -8.3135 H   0  0  0  0  0  0  0  0  0  0  0  0
   79.2106  -60.4573   -8.3135 H   0  0  0  0  0  0  0  0  0  0  0  0
   75.5971  -59.6269   -5.3615 H   0  0  0  0  0  0  0  0  0  0  0  0
   70.5210  -54.3590   -6.1694 H   0  0  0  0  0  0  0  0  0  0  0  0
   71.7030  -52.7789   -4.8269 H   0  0  0  0  0  0  0  0  0  0  0  0
   71.3922  -54.3064   -3.8252 H   0  0  0  0  0  0  0  0  0  0  0  0
   73.9260  -52.3811   -5.6471 H   0  0  0  0  0  0  0  0  0  0  0  0
   74.2259  -55.2837   -6.4737 H   0  0  0  0  0  0  0  0  0  0  0  0
   75.4412  -53.2536   -7.7633 H   0  0  0  0  0  0  0  0  0  0  0  0
   74.8226  -54.7240   -8.5890 H   0  0  0  0  0  0  0  0  0  0  0  0
   73.8463  -53.2161   -8.5890 H   0  0  0  0  0  0  0  0  0  0  0  0
   73.5416  -53.6628   -2.0678 H   0  0  0  0  0  0  0  0  0  0  0  0
   74.8281  -52.7924   -2.9700 H   0  0  0  0  0  0  0  0  0  0  0  0
   73.1466  -52.1606   -2.9700 H   0  0  0  0  0  0  0  0  0  0  0  0
   73.7108  -55.5511   -1.9503 H   0  0  0  0  0  0  0  0  0  0  0  0
   72.2611  -55.9490   -2.9336 H   0  0  0  0  0  0  0  0  0  0  0  0
   73.6773  -57.0540   -2.9336 H   0  0  0  0  0  0  0  0  0  0  0  0
   75.8422  -53.4668   -4.2785 H   0  0  0  0  0  0  0  0  0  0  0  0
  2  1  1  0
  3  2  1  0
  4  3  1  0
  5  4  1  0
  6  5  1  0
  7  6  1  0
  8  7  1  0
  9  8  1  0
 10  9  1  0
 11 10  1  0
 12 11  1  0
 13 12  1  0
 14 13  1  0
 15 14  1  0
 16 15  1  0
 17  2  1  0
 18  4  1  0
 19  6  1  0
 20  8  1  0
 21 10  1  0
 22 11  1  0
 23 13  1  0
 24  1  2  0
  6 25  1  1
 26 12  1  0
 13 27  1  6
 28 14  1  0
 28  1  1  0
 30 29  1  0
 31 30  1  0
 32 31  1  0
 33 32  1  0
 34 33  1  0
 37 29  1  0
 37  5  1  0
 38 30  1  0
 39 36  1  0
 39 35  1  0
 39 31  1  0
 40 29  1  0
 40 33  1  0
 42 41  1  0
 43 42  1  0
 44 43  1  0
 45 44  1  0
 46 45  1  0
 47 43  1  0
 49  3  1  0
 49 41  1  0
 50 48  1  0
 43 50  1  1
 51 44  1  0
 52 41  1  0
 52 45  1  0
  2 53  1  1
  3 54  1  6
  4 55  1  6
  5 56  1  6
  7 57  1  0
  7 58  1  0
  8 59  1  6
  9 60  1  0
  9 61  1  0
 11 62  1  1
 12 63  1  1
 14 64  1  6
 15 65  1  0
 15 66  1  0
 16 67  1  0
 16 68  1  0
 16 69  1  0
 17 70  1  0
 17 71  1  0
 17 72  1  0
 18 73  1  0
 18 74  1  0
 18 75  1  0
 19 76  1  0
 19 77  1  0
 19 78  1  0
 20 79  1  0
 20 80  1  0
 20 81  1  0
 21 82  1  0
 21 83  1  0
 21 84  1  0
 22 85  1  0
 22 86  1  0
 22 87  1  0
 23 88  1  0
 23 89  1  0
 23 90  1  0
 25 91  1  0
 26 92  1  0
 27 93  1  0
 29 94  1  1
 30 95  1  6
 31 96  1  1
 32 97  1  0
 32 98  1  0
 33 99  1  1
 34100  1  0
 34101  1  0
 34102  1  0
 35103  1  0
 35104  1  0
 35105  1  0
 36106  1  0
 36107  1  0
 36108  1  0
 38109  1  0
 41110  1  6
 42111  1  0
 42112  1  0
 44113  1  6
 45114  1  1
 46115  1  0
 46116  1  0
 46117  1  0
 47118  1  0
 47119  1  0
 47120  1  0
 48121  1  0
 48122  1  0
 48123  1  0
 51124  1  0
M  END
$$$$
