PDB_DB01394_98
     RDKit          3D

 70 72  0  0  0  0  0  0  0  0999 V2000
   89.8580   17.1320   21.1040 O   0  0  0  0  0  0  0  0  0  0  0  0
   90.6150   18.0970   21.0650 C   0  0  0  0  0  0  0  0  0  0  0  0
   91.3980   18.4580   19.8290 C   0  0  0  0  0  0  0  0  0  0  0  0
   90.8240   18.9030   22.1760 N   0  0  0  0  0  0  0  0  0  0  0  0
   90.0790   18.7060   23.4230 C   0  0  2  0  0  0  0  0  0  0  0  0
   88.6660   19.2820   23.3980 C   0  0  1  0  0  0  0  0  0  0  0  0
   88.4020   20.3040   22.5720 C   0  0  0  0  0  0  0  0  0  0  0  0
   90.8600   19.3620   24.5800 C   0  0  0  0  0  0  0  0  0  0  0  0
   90.0580   19.3740   25.8860 C   0  0  0  0  0  0  0  0  0  0  0  0
   89.4020   18.0520   26.1070 C   0  0  0  0  0  0  0  0  0  0  0  0
   89.8830   17.1800   27.0780 C   0  0  0  0  0  0  0  0  0  0  0  0
   89.2600   15.9470   27.2610 C   0  0  0  0  0  0  0  0  0  0  0  0
   88.2060   15.5660   26.4170 C   0  0  0  0  0  0  0  0  0  0  0  0
   87.7730   16.4350   25.4200 C   0  0  1  0  0  0  0  0  0  0  0  0
   86.7410   16.0500   24.6080 O   0  0  0  0  0  0  0  0  0  0  0  0
   87.1790   15.1940   23.5730 C   0  0  0  0  0  0  0  0  0  0  0  0
   87.6210   14.3370   26.5460 O   0  0  0  0  0  0  0  0  0  0  0  0
   86.4230   14.4340   27.2920 C   0  0  0  0  0  0  0  0  0  0  0  0
   89.5590   15.0410   28.2290 O   0  0  0  0  0  0  0  0  0  0  0  0
   90.7190   15.2840   28.9900 C   0  0  0  0  0  0  0  0  0  0  0  0
   88.3230   17.7120   25.2980 C   0  0  0  0  0  0  0  0  0  0  0  0
   87.7590   18.6790   24.3460 C   0  0  0  0  0  0  0  0  0  0  0  0
   86.4350   18.8900   24.4760 C   0  0  0  0  0  0  0  0  0  0  0  0
   85.5340   19.6430   23.6670 C   0  0  0  0  0  0  0  0  0  0  0  0
   85.8440   20.5630   22.7390 C   0  0  0  0  0  0  0  0  0  0  0  0
   87.1820   21.0740   22.3540 C   0  0  0  0  0  0  0  0  0  0  0  0
   87.2520   22.1580   21.7920 O   0  0  0  0  0  0  0  0  0  0  0  0
   84.9300   21.2520   22.0000 O   0  0  0  0  0  0  0  0  0  0  0  0
   83.5750   20.9030   22.1130 C   0  0  0  0  0  0  0  0  0  0  0  0
   92.3540   17.9140   19.8040 H   0  0  0  0  0  0  0  0  0  0  0  0
   91.6280   19.5290   19.7270 H   0  0  0  0  0  0  0  0  0  0  0  0
   90.8380   18.1770   18.9240 H   0  0  0  0  0  0  0  0  0  0  0  0
   91.4140   19.7240   22.0970 H   0  0  0  0  0  0  0  0  0  0  0  0
   90.0150   17.5910   23.5850 H   0  0  0  0  0  0  0  0  0  0  0  0
   89.2050   20.6950   21.9260 H   0  0  0  0  0  0  0  0  0  0  0  0
   91.1510   20.4060   24.3310 H   0  0  0  0  0  0  0  0  0  0  0  0
   91.8230   18.8300   24.7310 H   0  0  0  0  0  0  0  0  0  0  0  0
   90.7240   19.6410   26.7330 H   0  0  0  0  0  0  0  0  0  0  0  0
   89.2970   20.1860   25.8760 H   0  0  0  0  0  0  0  0  0  0  0  0
   90.7340   17.4850   27.6920 H   0  0  0  0  0  0  0  0  0  0  0  0
   87.6190   14.2560   23.9490 H   0  0  0  0  0  0  0  0  0  0  0  0
   87.9000   15.6820   22.8960 H   0  0  0  0  0  0  0  0  0  0  0  0
   86.2590   14.9670   23.0150 H   0  0  0  0  0  0  0  0  0  0  0  0
   85.9120   13.4740   27.1400 H   0  0  0  0  0  0  0  0  0  0  0  0
   86.6230   14.5750   28.3670 H   0  0  0  0  0  0  0  0  0  0  0  0
   85.7440   15.2340   26.9510 H   0  0  0  0  0  0  0  0  0  0  0  0
   90.6330   16.1760   29.6340 H   0  0  0  0  0  0  0  0  0  0  0  0
   90.7950   14.3930   29.6330 H   0  0  0  0  0  0  0  0  0  0  0  0
   91.6370   15.3630   28.3840 H   0  0  0  0  0  0  0  0  0  0  0  0
   85.9210   18.3810   25.3100 H   0  0  0  0  0  0  0  0  0  0  0  0
   84.4830   19.4000   23.8710 H   0  0  0  0  0  0  0  0  0  0  0  0
   83.1610   21.0710   23.1210 H   0  0  0  0  0  0  0  0  0  0  0  0
   83.3710   19.8670   21.7980 H   0  0  0  0  0  0  0  0  0  0  0  0
   83.0810   21.5910   21.4100 H   0  0  0  0  0  0  0  0  0  0  0  0
   89.6727   16.8958   22.0474 H   0  0  0  0  0  0  0  0  0  0  0  0
   91.4448   17.4598   21.4046 H   0  0  0  0  0  0  0  0  0  0  0  0
   88.9420   19.9935   24.1902 H   0  0  0  0  0  0  0  0  0  0  0  0
   88.0929   19.5933   21.7914 H   0  0  0  0  0  0  0  0  0  0  0  0
   90.0727   17.5951   25.3644 H   0  0  0  0  0  0  0  0  0  0  0  0
   89.2067   17.6317   27.8186 H   0  0  0  0  0  0  0  0  0  0  0  0
   88.5400   16.4130   27.9498 H   0  0  0  0  0  0  0  0  0  0  0  0
   87.4841   16.0104   27.1179 H   0  0  0  0  0  0  0  0  0  0  0  0
   88.4922   15.9879   24.7180 H   0  0  0  0  0  0  0  0  0  0  0  0
   89.0165   17.3399   24.5295 H   0  0  0  0  0  0  0  0  0  0  0  0
   87.5591   17.8632   23.6358 H   0  0  0  0  0  0  0  0  0  0  0  0
   86.6372   19.7845   25.0834 H   0  0  0  0  0  0  0  0  0  0  0  0
   85.5011   20.4293   24.4355 H   0  0  0  0  0  0  0  0  0  0  0  0
   85.7592   21.3559   23.4967 H   0  0  0  0  0  0  0  0  0  0  0  0
   87.0708   20.6163   21.3599 H   0  0  0  0  0  0  0  0  0  0  0  0
   87.2985   22.8785   22.4694 H   0  0  0  0  0  0  0  0  0  0  0  0
  1  2  1  0
  2  3  1  0
  2  4  1  0
  4  5  1  0
  5  6  1  0
  6  7  1  0
  5  8  1  0
  8  9  1  0
  9 10  1  0
 10 11  1  0
 11 12  1  0
 12 13  1  0
 13 14  1  0
 14 15  1  0
 15 16  1  0
 13 17  1  0
 17 18  1  0
 12 19  1  0
 19 20  1  0
 10 21  1  0
 14 21  1  0
  6 22  1  0
 21 22  1  0
 22 23  1  0
 23 24  1  0
 24 25  1  0
  7 26  1  0
 25 26  1  0
 26 27  1  0
 25 28  1  0
 28 29  1  0
  3 30  1  0
  3 31  1  0
  3 32  1  0
  4 33  1  0
  5 34  1  1
  7 35  1  0
  8 36  1  0
  8 37  1  0
  9 38  1  0
  9 39  1  0
 11 40  1  0
 16 41  1  0
 16 42  1  0
 16 43  1  0
 18 44  1  0
 18 45  1  0
 18 46  1  0
 20 47  1  0
 20 48  1  0
 20 49  1  0
 23 50  1  0
 24 51  1  0
 29 52  1  0
 29 53  1  0
 29 54  1  0
  1 55  1  0
  2 56  1  0
  6 57  1  6
  7 58  1  0
 10 59  1  0
 11 60  1  0
 12 61  1  0
 13 62  1  0
 14 63  1  6
 21 64  1  0
 22 65  1  0
 23 66  1  0
 24 67  1  0
 25 68  1  0
 26 69  1  0
 27 70  1  0
M  END
>  <PDBID>  (1) 
5NM5

>  <PDB ID>  (1) 
5NM5

>  <Generic Name>  (1) 
Colchicine

>  <Brand Name>  (1) 
Colchicine#Colchicine Tab 0.6mg#Colchicine Tab 1mg#Colcrys#Euro-colchicine#Jamp-colchicine#Mitigare#PMS-colchicine#Probenecid and Colchicine#Verban Ont

>  <DrugBank ID>  (1) 
DB01394

>  <ATC Codes>  (1) 
M04AC01

>  <Ligand ID>  (1) 
LOC

>  <Target Name>  (1) 
Tubulin beta-1 chain

>  <UniProt ID>  (1) 
Q9H4B7

>  <PDB ID.1>  (1) 
5NM5

>  <Seq. Identity>  (1) 
78%

$$$$
