PDB_DB00482_98
     RDKit          3D

232240  0  0  0  0  0  0  0  0999 V2000
   25.9310  -21.4670  -17.1550 S   0  0  2  0  0  4  0  0  0  0  0  0
   27.6790  -21.7060  -17.1310 C   0  0  0  0  0  0  0  0  0  0  0  0
   28.2180  -22.8290  -16.5560 C   0  0  0  0  0  0  0  0  0  0  0  0
   29.5840  -22.9640  -16.5430 C   0  0  0  0  0  0  0  0  0  0  0  0
   30.3410  -21.9670  -17.1090 C   0  0  0  0  0  0  0  0  0  0  0  0
   29.7960  -20.8530  -17.6970 C   0  0  0  0  0  0  0  0  0  0  0  0
   28.4340  -20.7140  -17.7070 C   0  0  0  0  0  0  0  0  0  0  0  0
   31.7240  -22.0060  -17.1320 N   0  0  0  0  0  0  0  0  0  0  0  0
   32.6220  -22.5740  -16.2600 C   0  0  0  0  0  0  0  0  0  0  0  0
   32.4170  -23.2370  -14.9850 C   0  0  1  0  0  0  0  0  0  0  0  0
   31.5700  -22.7350  -14.0160 C   0  0  0  0  0  0  0  0  0  0  0  0
   31.4460  -23.3900  -12.8190 C   0  0  0  0  0  0  0  0  0  0  0  0
   32.1700  -24.5410  -12.5870 C   0  0  0  0  0  0  0  0  0  0  0  0
   32.0560  -25.2900  -11.3060 C   0  0  0  0  0  0  0  0  0  0  0  0
   33.0230  -25.0300  -13.5490 C   0  0  0  0  0  0  0  0  0  0  0  0
   33.1520  -24.3730  -14.7430 C   0  0  0  0  0  0  0  0  0  0  0  0
   33.8430  -22.3370  -16.8370 C   0  0  0  0  0  0  0  0  0  0  0  0
   33.5890  -21.6370  -18.0310 C   0  0  0  0  0  0  0  0  0  0  0  0
   34.5540  -21.1350  -19.0020 C   0  0  1  0  0  0  0  0  0  0  0  0
   34.5600  -21.7520  -20.2100 F   0  0  0  0  0  0  0  0  0  0  0  0
   34.3020  -19.8280  -19.2230 F   0  0  0  0  0  0  0  0  0  0  0  0
   35.8160  -21.2140  -18.5440 F   0  0  0  0  0  0  0  0  0  0  0  0
   32.2900  -21.4240  -18.2010 N   0  0  0  0  0  0  0  0  0  0  0  0
   25.3780  -22.2260  -18.6050 N   0  0  0  0  0  0  0  0  0  0  0  0
   25.7720  -20.0390  -17.2910 O   0  0  0  0  0  0  0  0  0  0  0  0
   25.4360  -22.1060  -15.9490 O   0  0  0  0  0  0  0  0  0  0  0  0
   82.4900  -14.1680   -8.8580 S   0  0  2  0  0  4  0  0  0  0  0  0
   80.7220  -14.0990   -8.6690 C   0  0  0  0  0  0  0  0  0  0  0  0
   80.1400  -14.7160   -7.5910 C   0  0  0  0  0  0  0  0  0  0  0  0
   78.7700  -14.6550   -7.4630 C   0  0  0  0  0  0  0  0  0  0  0  0
   78.0150  -13.9900   -8.4050 C   0  0  0  0  0  0  0  0  0  0  0  0
   78.6060  -13.3680   -9.4810 C   0  0  0  0  0  0  0  0  0  0  0  0
   79.9760  -13.4250   -9.6120 C   0  0  0  0  0  0  0  0  0  0  0  0
   76.6160  -13.9130   -8.3090 N   0  0  0  0  0  0  0  0  0  0  0  0
   75.7170  -14.7930   -7.7580 C   0  0  1  0  0  0  0  0  0  0  0  0
   75.9070  -16.0990   -7.1770 C   0  0  1  0  0  0  0  0  0  0  0  0
   76.7710  -17.0170   -7.7240 C   0  0  0  0  0  0  0  0  0  0  0  0
   76.8380  -18.3000   -7.2260 C   0  0  0  0  0  0  0  0  0  0  0  0
   76.0360  -18.6890   -6.1710 C   0  0  0  0  0  0  0  0  0  0  0  0
   76.1000  -20.0840   -5.6330 C   0  0  0  0  0  0  0  0  0  0  0  0
   75.1860  -17.7590   -5.6200 C   0  0  0  0  0  0  0  0  0  0  0  0
   75.1140  -16.4870   -6.1320 C   0  0  0  0  0  0  0  0  0  0  0  0
   74.4870  -14.2230   -7.9590 C   0  0  0  0  0  0  0  0  0  0  0  0
   74.7240  -13.0050   -8.6170 C   0  0  0  0  0  0  0  0  0  0  0  0
   73.7250  -12.0180   -9.0660 C   0  0  1  0  0  0  0  0  0  0  0  0
   72.7640  -11.7390   -8.1570 F   0  0  0  0  0  0  0  0  0  0  0  0
   74.2680  -10.8120   -9.3170 F   0  0  0  0  0  0  0  0  0  0  0  0
   73.0870  -12.4490  -10.1890 F   0  0  0  0  0  0  0  0  0  0  0  0
   76.0260  -12.8300   -8.8370 N   0  0  0  0  0  0  0  0  0  0  0  0
   82.9420  -12.7560   -8.0030 N   0  0  0  0  0  0  0  0  0  0  0  0
   82.7160  -13.9410  -10.2770 O   0  0  0  0  0  0  0  0  0  0  0  0
   82.9810  -15.3250   -8.1170 O   0  0  0  0  0  0  0  0  0  0  0  0
   70.3350  -46.3150   44.7870 S   0  0  2  0  0  4  0  0  0  0  0  0
   68.5820  -46.0560   44.7720 C   0  0  0  0  0  0  0  0  0  0  0  0
   68.0640  -44.9290   45.3530 C   0  0  0  0  0  0  0  0  0  0  0  0
   66.7030  -44.7420   45.3300 C   0  0  0  0  0  0  0  0  0  0  0  0
   65.9020  -45.6760   44.7280 C   0  0  0  0  0  0  0  0  0  0  0  0
   66.4300  -46.8060   44.1470 C   0  0  0  0  0  0  0  0  0  0  0  0
   67.7890  -47.0030   44.1690 C   0  0  0  0  0  0  0  0  0  0  0  0
   64.5120  -45.5120   44.6690 N   0  0  0  0  0  0  0  0  0  0  0  0
   63.6240  -45.0840   45.6260 C   0  0  0  0  0  0  0  0  0  0  0  0
   63.8580  -44.4360   46.8860 C   0  0  1  0  0  0  0  0  0  0  0  0
   64.6950  -44.9390   47.8520 C   0  0  0  0  0  0  0  0  0  0  0  0
   64.8240  -44.2810   49.0590 C   0  0  0  0  0  0  0  0  0  0  0  0
   64.1190  -43.1230   49.3060 C   0  0  0  0  0  0  0  0  0  0  0  0
   64.2480  -42.4050   50.6040 C   0  0  0  0  0  0  0  0  0  0  0  0
   63.2860  -42.6280   48.3330 C   0  0  0  0  0  0  0  0  0  0  0  0
   63.1510  -43.2850   47.1340 C   0  0  0  0  0  0  0  0  0  0  0  0
   62.3750  -45.3780   45.1410 C   0  0  0  0  0  0  0  0  0  0  0  0
   62.5900  -45.9720   43.8880 C   0  0  0  0  0  0  0  0  0  0  0  0
   61.5610  -46.4580   42.9620 C   0  0  1  0  0  0  0  0  0  0  0  0
   60.3390  -45.8840   43.1650 F   0  0  0  0  0  0  0  0  0  0  0  0
   61.8750  -46.2560   41.6530 F   0  0  0  0  0  0  0  0  0  0  0  0
   61.4220  -47.7870   43.1640 F   0  0  0  0  0  0  0  0  0  0  0  0
   63.8920  -46.0520   43.6040 N   0  0  0  0  0  0  0  0  0  0  0  0
   70.9180  -45.3930   46.0730 N   0  0  0  0  0  0  0  0  0  0  0  0
   70.8470  -45.7220   43.5560 O   0  0  0  0  0  0  0  0  0  0  0  0
   70.4680  -47.7300   45.0340 O   0  0  0  0  0  0  0  0  0  0  0  0
   13.7720  -53.4720   53.0780 S   0  0  2  0  0  4  0  0  0  0  0  0
   15.5430  -53.5040   53.2780 C   0  0  0  0  0  0  0  0  0  0  0  0
   16.1280  -52.8520   54.3380 C   0  0  0  0  0  0  0  0  0  0  0  0
   17.4950  -52.8730   54.4850 C   0  0  0  0  0  0  0  0  0  0  0  0
   18.2490  -53.5450   53.5580 C   0  0  0  0  0  0  0  0  0  0  0  0
   17.6660  -54.2030   52.5020 C   0  0  0  0  0  0  0  0  0  0  0  0
   16.2980  -54.1830   52.3580 C   0  0  0  0  0  0  0  0  0  0  0  0
   19.6380  -53.6040   53.6330 N   0  0  0  0  0  0  0  0  0  0  0  0
   20.5200  -52.7130   54.1750 C   0  0  1  0  0  0  0  0  0  0  0  0
   20.2490  -51.3940   54.7150 C   0  0  1  0  0  0  0  0  0  0  0  0
   19.4390  -50.5100   54.0290 C   0  0  0  0  0  0  0  0  0  0  0  0
   19.2550  -49.2200   54.4800 C   0  0  0  0  0  0  0  0  0  0  0  0
   19.8940  -48.8110   55.6270 C   0  0  0  0  0  0  0  0  0  0  0  0
   19.7190  -47.4390   56.1330 C   0  0  0  0  0  0  0  0  0  0  0  0
   20.6930  -49.6880   56.3220 C   0  0  0  0  0  0  0  0  0  0  0  0
   20.8810  -50.9720   55.8600 C   0  0  0  0  0  0  0  0  0  0  0  0
   21.7500  -53.2940   53.9900 C   0  0  0  0  0  0  0  0  0  0  0  0
   21.5160  -54.5170   53.3400 C   0  0  1  0  0  0  0  0  0  0  0  0
   22.4770  -55.5200   52.8520 C   0  0  1  0  0  0  0  0  0  0  0  0
   23.7580  -55.2670   53.2070 F   0  0  0  0  0  0  0  0  0  0  0  0
   22.1940  -56.8120   53.1510 F   0  0  0  0  0  0  0  0  0  0  0  0
   22.4890  -55.4850   51.4960 F   0  0  0  0  0  0  0  0  0  0  0  0
   20.2230  -54.6850   53.1010 N   0  0  0  0  0  0  0  0  0  0  0  0
   13.2270  -54.8460   53.9530 N   0  0  0  0  0  0  0  0  0  0  0  0
   13.4740  -53.6910   51.6790 O   0  0  0  0  0  0  0  0  0  0  0  0
   13.3180  -52.2780   53.7780 O   0  0  0  0  0  0  0  0  0  0  0  0
   27.7372  -21.1834  -16.1648 H   0  0  0  0  0  0  0  0  0  0  0  0
   27.8788  -22.8536  -15.5099 H   0  0  0  0  0  0  0  0  0  0  0  0
   27.8708  -23.6537  -17.1958 H   0  0  0  0  0  0  0  0  0  0  0  0
   29.8930  -23.0505  -15.4909 H   0  0  0  0  0  0  0  0  0  0  0  0
   29.7766  -23.8438  -17.1745 H   0  0  0  0  0  0  0  0  0  0  0  0
   30.3101  -22.4920  -18.0751 H   0  0  0  0  0  0  0  0  0  0  0  0
   30.2069  -19.9770  -17.1737 H   0  0  0  0  0  0  0  0  0  0  0  0
   30.0616  -20.9552  -18.7596 H   0  0  0  0  0  0  0  0  0  0  0  0
   28.1214  -20.6343  -18.7586 H   0  0  0  0  0  0  0  0  0  0  0  0
   28.2444  -19.8281  -17.0831 H   0  0  0  0  0  0  0  0  0  0  0  0
   32.7284  -21.6097  -15.7415 H   0  0  0  0  0  0  0  0  0  0  0  0
   33.2508  -22.6641  -14.5530 H   0  0  0  0  0  0  0  0  0  0  0  0
   31.9145  -21.7155  -13.7879 H   0  0  0  0  0  0  0  0  0  0  0  0
   30.5728  -22.8368  -14.4689 H   0  0  0  0  0  0  0  0  0  0  0  0
   31.7277  -22.6733  -12.0335 H   0  0  0  0  0  0  0  0  0  0  0  0
   30.4042  -23.7429  -12.8293 H   0  0  0  0  0  0  0  0  0  0  0  0
   32.9885  -23.9407  -12.1632 H   0  0  0  0  0  0  0  0  0  0  0  0
   32.1622  -24.5920  -10.4625 H   0  0  0  0  0  0  0  0  0  0  0  0
   31.0728  -25.7806  -11.2544 H   0  0  0  0  0  0  0  0  0  0  0  0
   32.8487  -26.0509  -11.2544 H   0  0  0  0  0  0  0  0  0  0  0  0
   34.0249  -25.0675  -13.0966 H   0  0  0  0  0  0  0  0  0  0  0  0
   32.5629  -25.9877  -13.8340 H   0  0  0  0  0  0  0  0  0  0  0  0
   32.8915  -25.0939  -15.5319 H   0  0  0  0  0  0  0  0  0  0  0  0
   34.1878  -24.0035  -14.7178 H   0  0  0  0  0  0  0  0  0  0  0  0
   34.4694  -21.7305  -16.1663 H   0  0  0  0  0  0  0  0  0  0  0  0
   34.3809  -23.2764  -17.0322 H   0  0  0  0  0  0  0  0  0  0  0  0
   33.6437  -20.6842  -17.4840 H   0  0  0  0  0  0  0  0  0  0  0  0
   31.9585  -21.8595  -19.0736 H   0  0  0  0  0  0  0  0  0  0  0  0
   24.7881  -23.0356  -18.3653 H   0  0  0  0  0  0  0  0  0  0  0  0
   24.8284  -21.5522  -19.1571 H   0  0  0  0  0  0  0  0  0  0  0  0
   25.7259  -19.6251  -16.3929 H   0  0  0  0  0  0  0  0  0  0  0  0
   25.7983  -21.6383  -15.1552 H   0  0  0  0  0  0  0  0  0  0  0  0
   80.6234  -15.0260   -9.2528 H   0  0  0  0  0  0  0  0  0  0  0  0
   80.4154  -15.7800   -7.6373 H   0  0  0  0  0  0  0  0  0  0  0  0
   80.5182  -14.1569   -6.7224 H   0  0  0  0  0  0  0  0  0  0  0  0
   78.4074  -15.6933   -7.4420 H   0  0  0  0  0  0  0  0  0  0  0  0
   78.6296  -14.0491   -6.5557 H   0  0  0  0  0  0  0  0  0  0  0  0
   78.1028  -13.0623   -7.8205 H   0  0  0  0  0  0  0  0  0  0  0  0
   78.1758  -13.8156  -10.3891 H   0  0  0  0  0  0  0  0  0  0  0  0
   78.3995  -12.3002   -9.3164 H   0  0  0  0  0  0  0  0  0  0  0  0
   80.3393  -12.3868   -9.6246 H   0  0  0  0  0  0  0  0  0  0  0  0
   80.1228  -14.0168  -10.5276 H   0  0  0  0  0  0  0  0  0  0  0  0
   75.5637  -15.2543   -8.7448 H   0  0  0  0  0  0  0  0  0  0  0  0
   75.0917  -16.4949   -7.8003 H   0  0  0  0  0  0  0  0  0  0  0  0
   76.5041  -17.1057   -8.7874 H   0  0  0  0  0  0  0  0  0  0  0  0
   77.7596  -16.6040   -7.4749 H   0  0  0  0  0  0  0  0  0  0  0  0
   76.6054  -18.9746   -8.0631 H   0  0  0  0  0  0  0  0  0  0  0  0
   77.8490  -18.3435   -6.7948 H   0  0  0  0  0  0  0  0  0  0  0  0
   75.2537  -18.9982   -6.8797 H   0  0  0  0  0  0  0  0  0  0  0  0
   76.0986  -20.0533   -4.5334 H   0  0  0  0  0  0  0  0  0  0  0  0
   75.2270  -20.6532   -5.9851 H   0  0  0  0  0  0  0  0  0  0  0  0
   77.0214  -20.5709   -5.9851 H   0  0  0  0  0  0  0  0  0  0  0  0
   74.1726  -18.1819   -5.6847 H   0  0  0  0  0  0  0  0  0  0  0  0
   75.6135  -17.5975   -4.6194 H   0  0  0  0  0  0  0  0  0  0  0  0
   75.3371  -15.8027   -5.3001 H   0  0  0  0  0  0  0  0  0  0  0  0
   74.1065  -16.4620   -6.5727 H   0  0  0  0  0  0  0  0  0  0  0  0
   73.8602  -14.8778   -8.5823 H   0  0  0  0  0  0  0  0  0  0  0  0
   73.9557  -14.0689   -7.0082 H   0  0  0  0  0  0  0  0  0  0  0  0
   74.6553  -13.5164   -9.5884 H   0  0  0  0  0  0  0  0  0  0  0  0
   76.3597  -11.9733   -8.3726 H   0  0  0  0  0  0  0  0  0  0  0  0
   82.8848  -12.9348   -6.9903 H   0  0  0  0  0  0  0  0  0  0  0  0
   83.9076  -12.4981   -8.2521 H   0  0  0  0  0  0  0  0  0  0  0  0
   83.4096  -13.2443  -10.3934 H   0  0  0  0  0  0  0  0  0  0  0  0
   82.9069  -15.1503   -7.1454 H   0  0  0  0  0  0  0  0  0  0  0  0
   68.4949  -46.5898   45.7298 H   0  0  0  0  0  0  0  0  0  0  0  0
   68.3720  -44.9381   46.4090 H   0  0  0  0  0  0  0  0  0  0  0  0
   68.4576  -44.1060   44.7384 H   0  0  0  0  0  0  0  0  0  0  0  0
   66.3733  -44.6652   46.3766 H   0  0  0  0  0  0  0  0  0  0  0  0
   66.5765  -43.8496   44.6994 H   0  0  0  0  0  0  0  0  0  0  0  0
   65.9961  -45.1404   43.7718 H   0  0  0  0  0  0  0  0  0  0  0  0
   65.9728  -47.6696   44.6521 H   0  0  0  0  0  0  0  0  0  0  0  0
   66.2036  -46.6783   43.0782 H   0  0  0  0  0  0  0  0  0  0  0  0
   68.1214  -47.0862   43.1237 H   0  0  0  0  0  0  0  0  0  0  0  0
   67.9197  -47.8990   44.7936 H   0  0  0  0  0  0  0  0  0  0  0  0
   63.6831  -46.0652   46.1197 H   0  0  0  0  0  0  0  0  0  0  0  0
   63.0161  -44.9897   47.3271 H   0  0  0  0  0  0  0  0  0  0  0  0
   64.3434  -45.9561   48.0798 H   0  0  0  0  0  0  0  0  0  0  0  0
   65.6932  -44.8412   47.4004 H   0  0  0  0  0  0  0  0  0  0  0  0
   64.5344  -44.9984   49.8409 H   0  0  0  0  0  0  0  0  0  0  0  0
   65.8677  -43.9343   49.0399 H   0  0  0  0  0  0  0  0  0  0  0  0
   63.2886  -43.7161   49.7166 H   0  0  0  0  0  0  0  0  0  0  0  0
   64.1199  -43.1180   51.4318 H   0  0  0  0  0  0  0  0  0  0  0  0
   65.2437  -41.9421   50.6696 H   0  0  0  0  0  0  0  0  0  0  0  0
   63.4757  -41.6244   50.6696 H   0  0  0  0  0  0  0  0  0  0  0  0
   62.2811  -42.5710   48.7767 H   0  0  0  0  0  0  0  0  0  0  0  0
   63.7722  -41.6839   48.0460 H   0  0  0  0  0  0  0  0  0  0  0  0
   63.4311  -42.5678   46.3484 H   0  0  0  0  0  0  0  0  0  0  0  0
   62.1088  -43.6359   47.1604 H   0  0  0  0  0  0  0  0  0  0  0  0
   61.8559  -46.0766   45.8137 H   0  0  0  0  0  0  0  0  0  0  0  0
   61.7450  -44.4796   45.0642 H   0  0  0  0  0  0  0  0  0  0  0  0
   62.6292  -46.9627   44.3644 H   0  0  0  0  0  0  0  0  0  0  0  0
   64.1099  -45.5199   42.7494 H   0  0  0  0  0  0  0  0  0  0  0  0
   70.6409  -45.8312   46.9630 H   0  0  0  0  0  0  0  0  0  0  0  0
   71.9454  -45.3418   46.0207 H   0  0  0  0  0  0  0  0  0  0  0  0
   71.4774  -44.9919   43.7788 H   0  0  0  0  0  0  0  0  0  0  0  0
   70.4835  -47.8946   46.0101 H   0  0  0  0  0  0  0  0  0  0  0  0
   15.6282  -52.5915   52.6697 H   0  0  0  0  0  0  0  0  0  0  0  0
   15.8322  -51.7951   54.2639 H   0  0  0  0  0  0  0  0  0  0  0  0
   15.7696  -53.4154   55.2121 H   0  0  0  0  0  0  0  0  0  0  0  0
   17.8364  -51.8273   54.4827 H   0  0  0  0  0  0  0  0  0  0  0  0
   17.6536  -53.4370   55.4160 H   0  0  0  0  0  0  0  0  0  0  0  0
   18.1808  -54.4595   54.1655 H   0  0  0  0  0  0  0  0  0  0  0  0
   18.0898  -53.7707   51.5836 H   0  0  0  0  0  0  0  0  0  0  0  0
   17.8866  -55.2611   52.7062 H   0  0  0  0  0  0  0  0  0  0  0  0
   15.9573  -55.2288   52.3702 H   0  0  0  0  0  0  0  0  0  0  0  0
   16.1393  -53.6252   51.4233 H   0  0  0  0  0  0  0  0  0  0  0  0
   20.6854  -52.2720   53.1809 H   0  0  0  0  0  0  0  0  0  0  0  0
   21.1289  -50.9972   54.1874 H   0  0  0  0  0  0  0  0  0  0  0  0
   19.8529  -50.4302   53.0130 H   0  0  0  0  0  0  0  0  0  0  0  0
   18.4397  -50.9536   54.1495 H   0  0  0  0  0  0  0  0  0  0  0  0
   19.5825  -48.5480   53.6730 H   0  0  0  0  0  0  0  0  0  0  0  0
   18.1891  -49.1876   54.7496 H   0  0  0  0  0  0  0  0  0  0  0  0
   20.7560  -48.4805   55.0289 H   0  0  0  0  0  0  0  0  0  0  0  0
   19.7205  -47.4509   57.2329 H   0  0  0  0  0  0  0  0  0  0  0  0
   20.5438  -46.8071   55.7720 H   0  0  0  0  0  0  0  0  0  0  0  0
   18.7620  -47.0343   55.7720 H   0  0  0  0  0  0  0  0  0  0  0  0
   21.6892  -49.2258   56.3855 H   0  0  0  0  0  0  0  0  0  0  0  0
   20.1403  -49.8389   57.2610 H   0  0  0  0  0  0  0  0  0  0  0  0
   20.5609  -51.6486   56.6661 H   0  0  0  0  0  0  0  0  0  0  0  0
   21.9443  -50.9840   55.5784 H   0  0  0  0  0  0  0  0  0  0  0  0
   22.3864  -52.6478   53.3676 H   0  0  0  0  0  0  0  0  0  0  0  0
   22.2689  -53.4440   54.9483 H   0  0  0  0  0  0  0  0  0  0  0  0
   21.5541  -54.0068   52.3662 H   0  0  0  0  0  0  0  0  0  0  0  0
   19.8784  -55.5442   53.5525 H   0  0  0  0  0  0  0  0  0  0  0  0
   13.3005  -54.6608   54.9635 H   0  0  0  0  0  0  0  0  0  0  0  0
   12.2451  -55.0405   53.7101 H   0  0  0  0  0  0  0  0  0  0  0  0
   12.6789  -54.2753   51.5985 H   0  0  0  0  0  0  0  0  0  0  0  0
   13.3746  -52.4268   54.7551 H   0  0  0  0  0  0  0  0  0  0  0  0
  1  2  1  0
  2  3  1  0
  3  4  1  0
  4  5  1  0
  5  6  1  0
  2  7  1  0
  6  7  1  0
  5  8  1  0
  8  9  1  0
  9 10  1  0
 10 11  1  0
 11 12  1  0
 12 13  1  0
 13 14  1  0
 13 15  1  0
 10 16  1  0
 15 16  1  0
  9 17  1  0
 17 18  1  0
 18 19  1  0
 19 20  1  6
 19 21  1  0
 19 22  1  0
  8 23  1  0
 18 23  1  0
  1 24  1  0
  1 25  1  6
  1 26  1  0
 27 28  1  0
 28 29  1  0
 29 30  1  0
 30 31  1  0
 31 32  1  0
 28 33  1  0
 32 33  1  0
 31 34  1  0
 34 35  1  0
 35 36  1  0
 36 37  1  0
 37 38  1  0
 38 39  1  0
 39 40  1  0
 39 41  1  0
 36 42  1  0
 41 42  1  0
 35 43  1  0
 43 44  1  0
 44 45  1  0
 45 46  1  1
 45 47  1  0
 45 48  1  0
 34 49  1  0
 44 49  1  0
 27 50  1  0
 27 51  1  6
 27 52  1  0
 53 54  1  0
 54 55  1  0
 55 56  1  0
 56 57  1  0
 57 58  1  0
 54 59  1  0
 58 59  1  0
 57 60  1  0
 60 61  1  0
 61 62  1  0
 62 63  1  0
 63 64  1  0
 64 65  1  0
 65 66  1  0
 65 67  1  0
 62 68  1  0
 67 68  1  0
 61 69  1  0
 69 70  1  0
 70 71  1  0
 71 72  1  1
 71 73  1  0
 71 74  1  0
 60 75  1  0
 70 75  1  0
 53 76  1  0
 53 77  1  6
 53 78  1  0
 79 80  1  0
 80 81  1  0
 81 82  1  0
 82 83  1  0
 83 84  1  0
 80 85  1  0
 84 85  1  0
 83 86  1  0
 86 87  1  0
 87 88  1  0
 88 89  1  0
 89 90  1  0
 90 91  1  0
 91 92  1  0
 91 93  1  0
 88 94  1  0
 93 94  1  0
 87 95  1  0
 95 96  1  0
 96 97  1  0
 97 98  1  1
 97 99  1  0
 97100  1  0
 86101  1  0
 96101  1  0
 79102  1  0
 79103  1  6
 79104  1  0
  2105  1  0
  3106  1  0
  3107  1  0
  4108  1  0
  4109  1  0
  5110  1  0
  6111  1  0
  6112  1  0
  7113  1  0
  7114  1  0
  9115  1  0
 10116  1  6
 11117  1  0
 11118  1  0
 12119  1  0
 12120  1  0
 13121  1  0
 14122  1  0
 14123  1  0
 14124  1  0
 15125  1  0
 15126  1  0
 16127  1  0
 16128  1  0
 17129  1  0
 17130  1  0
 18131  1  0
 23132  1  0
 24133  1  0
 24134  1  0
 25135  1  0
 26136  1  0
 28137  1  0
 29138  1  0
 29139  1  0
 30140  1  0
 30141  1  0
 31142  1  0
 32143  1  0
 32144  1  0
 33145  1  0
 33146  1  0
 35147  1  1
 36148  1  1
 37149  1  0
 37150  1  0
 38151  1  0
 38152  1  0
 39153  1  0
 40154  1  0
 40155  1  0
 40156  1  0
 41157  1  0
 41158  1  0
 42159  1  0
 42160  1  0
 43161  1  0
 43162  1  0
 44163  1  0
 49164  1  0
 50165  1  0
 50166  1  0
 51167  1  0
 52168  1  0
 54169  1  0
 55170  1  0
 55171  1  0
 56172  1  0
 56173  1  0
 57174  1  0
 58175  1  0
 58176  1  0
 59177  1  0
 59178  1  0
 61179  1  0
 62180  1  6
 63181  1  0
 63182  1  0
 64183  1  0
 64184  1  0
 65185  1  0
 66186  1  0
 66187  1  0
 66188  1  0
 67189  1  0
 67190  1  0
 68191  1  0
 68192  1  0
 69193  1  0
 69194  1  0
 70195  1  0
 75196  1  0
 76197  1  0
 76198  1  0
 77199  1  0
 78200  1  0
 80201  1  0
 81202  1  0
 81203  1  0
 82204  1  0
 82205  1  0
 83206  1  0
 84207  1  0
 84208  1  0
 85209  1  0
 85210  1  0
 87211  1  1
 88212  1  1
 89213  1  0
 89214  1  0
 90215  1  0
 90216  1  0
 91217  1  0
 92218  1  0
 92219  1  0
 92220  1  0
 93221  1  0
 93222  1  0
 94223  1  0
 94224  1  0
 95225  1  0
 95226  1  0
 96227  1  1
101228  1  0
102229  1  0
102230  1  0
103231  1  0
104232  1  0
M  END
>  <PDBID>  (1) 
3LN1

>  <PDB ID>  (1) 
3LN1

>  <Generic Name>  (1) 
Celecoxib

>  <Brand Name>  (1) 
Accel-celecoxib#Act Celecoxib#Ag-celecoxib#Apo-celecoxib#Auro-celecoxib#Bio-celecoxib#Celebrex#Celecoxib#Celecoxib 100 mg#Celecoxib 200 mg#Celecoxib 400 mg#Celecoxib 50 mg#Dom-celecoxib#Gd-celecoxib#Ipg-celecoxib#Jamp-celecoxib#Lupin-celecoxib#Mar-celecoxib#Mint-celecoxib#Mylan-celecoxib#PMS-celecoxib#Priva-celecoxib#Ran-celecoxib#Rbx-celecoxib#Riva-celecox#Riva-celecoxib#Sandoz Celecoxib#Sdz Celecoxib#Teva-celecoxib#Articox#Articoxib#Artiflex#Artilog#Artix#Artrixib#Blockten#Caditar#Cefinix#Celact#Celebra#Onsenal#Valdyne

>  <DrugBank ID>  (1) 
DB00482

>  <ATC Codes>  (1) 
L01XX33#M01AH01

>  <Ligand ID>  (1) 
CEL

>  <Target Name>  (1) 
Prostaglandin G/H synthase 2

>  <UniProt ID>  (1) 
P35354

>  <PDB ID.1>  (1) 
3LN1

>  <Seq. Identity>  (1) 
84%

$$$$
