PDB_DB01144_99
     RDKit          3D

 22 22  0  0  0  0  0  0  0  0999 V2000
   -3.8520    2.1690   11.9070 S   0  0  0  0  0  0  0  0  0  0  0  0
   -4.5040    2.9300   10.8880 O   0  0  0  0  0  0  0  0  0  0  0  0
   -3.8880    0.7430   11.8550 O   0  0  0  0  0  0  0  0  0  0  0  0
   -2.3410    2.6200   11.9690 N   0  0  0  0  0  0  0  0  0  0  0  0
   -5.9440    0.7900   16.7620 S   0  0  0  0  0  0  0  0  0  0  0  0
   -5.2420    1.1140   17.9710 O   0  0  0  0  0  0  0  0  0  0  0  0
   -7.3690    0.7690   16.7720 O   0  0  0  0  0  0  0  0  0  0  0  0
   -5.4090   -0.5950   16.2520 N   0  0  0  0  0  0  0  0  0  0  0  0
   -4.5900    2.6530   13.4350 C   0  0  0  0  0  0  0  0  0  0  0  0
   -4.9290    1.6710   14.3820 C   0  0  0  0  0  0  0  0  0  0  0  0
   -5.5260    2.0580   15.5950 C   0  0  0  0  0  0  0  0  0  0  0  0
   -5.7820    3.4210   15.8600 C   0  0  0  0  0  0  0  0  0  0  0  0
   -5.4310    4.3870   14.9070 C   0  0  0  0  0  0  0  0  0  0  0  0
   -4.8370    4.0240   13.6910 C   0  0  0  0  0  0  0  0  0  0  0  0
   -6.5140    3.9040   17.3140 Cl  0  0  0  0  0  0  0  0  0  0  0  0
   -5.7340    6.0460   15.2320 Cl  0  0  0  0  0  0  0  0  0  0  0  0
   -2.0488    2.7072   12.9528 H   0  0  0  0  0  0  0  0  0  0  0  0
   -1.7535    1.9177   11.4973 H   0  0  0  0  0  0  0  0  0  0  0  0
   -5.1783   -1.1922   17.0589 H   0  0  0  0  0  0  0  0  0  0  0  0
   -6.1333   -1.0538   15.6813 H   0  0  0  0  0  0  0  0  0  0  0  0
   -4.7290    0.6091   14.1760 H   0  0  0  0  0  0  0  0  0  0  0  0
   -4.5674    4.7898   12.9488 H   0  0  0  0  0  0  0  0  0  0  0  0
  1  2  2  0
  1  3  2  0
  1  4  1  0
  5  6  2  0
  5  7  2  0
  5  8  1  0
  1  9  1  0
  9 10  2  0
  5 11  1  0
 10 11  1  0
 11 12  2  0
 12 13  1  0
  9 14  1  0
 13 14  2  0
 12 15  1  0
 13 16  1  0
  4 17  1  0
  4 18  1  0
  8 19  1  0
  8 20  1  0
 10 21  1  0
 14 22  1  0
M  END
>  <PDBID>  (1) 
2POU

>  <PDB ID>  (1) 
2POU

>  <Generic Name>  (1) 
Diclofenamide

>  <Brand Name>  (1) 
Daranide#Keveyis#Oratrol

>  <DrugBank ID>  (1) 
DB01144

>  <ATC Codes>  (1) 
S01EC02

>  <Ligand ID>  (1) 
I7A

>  <Target Name>  (1) 
Carbonic anhydrase 1

>  <UniProt ID>  (1) 
P00915

>  <PDB ID.1>  (1) 
2POU

>  <Seq. Identity>  (1) 
61%

$$$$
