PDB_DB08916_99
     RDKit          3D

158164  0  0  0  0  0  0  0  0999 V2000
   59.2740   -5.5600   -5.4350 C   0  0  0  0  0  0  0  0  0  0  0  0
   60.5650   -5.1010   -5.4540 N   0  0  0  0  0  0  0  0  0  0  0  0
   58.2530   -4.6420   -5.3720 N   0  0  0  0  0  0  0  0  0  0  0  0
   60.8640   -3.7580   -5.4100 C   0  0  0  0  0  0  0  0  0  0  0  0
   58.5230   -3.2900   -5.3280 C   0  0  0  0  0  0  0  0  0  0  0  0
   59.8330   -2.8180   -5.3470 C   0  0  0  0  0  0  0  0  0  0  0  0
   58.9600   -0.5650   -5.2490 C   0  0  0  0  0  0  0  0  0  0  0  0
   60.0460   -1.4350   -5.3060 C   0  0  0  0  0  0  0  0  0  0  0  0
   57.6610   -1.0510   -5.2280 C   0  0  0  0  0  0  0  0  0  0  0  0
   57.4470   -2.4220   -5.2680 C   0  0  0  0  0  0  0  0  0  0  0  0
   62.2280   -3.3890   -5.4580 N   0  0  0  0  0  0  0  0  0  0  0  0
   64.3740   -6.4410   -5.9590 C   0  0  0  0  0  0  0  0  0  0  0  0
   65.6050   -5.8270   -6.0460 C   0  0  0  0  0  0  0  0  0  0  0  0
   63.2330   -5.6810   -5.7660 C   0  0  0  0  0  0  0  0  0  0  0  0
   65.7080   -4.4560   -5.9380 C   0  0  0  0  0  0  0  0  0  0  0  0
   63.3190   -4.2880   -5.6560 C   0  0  0  0  0  0  0  0  0  0  0  0
   64.5710   -3.6950   -5.7480 C   0  0  0  0  0  0  0  0  0  0  0  0
   66.6920   -6.5510   -6.2300 F   0  0  0  0  0  0  0  0  0  0  0  0
   64.2700   -8.1540   -6.0930 Cl  0  0  0  0  0  0  0  0  0  0  0  0
   56.6520   -0.1230   -5.1690 O   0  0  0  0  0  0  0  0  0  0  0  0
   55.2490   -0.3470   -5.3240 C   0  0  2  0  0  0  0  0  0  0  0  0
   54.5100    0.9580   -5.6420 C   0  0  0  0  0  0  0  0  0  0  0  0
   54.2050    1.5920   -4.3980 O   0  0  0  0  0  0  0  0  0  0  0  0
   53.9790    0.5270   -3.4790 C   0  0  0  0  0  0  0  0  0  0  0  0
   54.5850   -0.7520   -4.0380 C   0  0  0  0  0  0  0  0  0  0  0  0
   59.0560    0.8470   -5.2110 N   0  0  0  0  0  0  0  0  0  0  0  0
   60.1170    1.7410   -5.2550 C   0  0  0  0  0  0  0  0  0  0  0  0
   59.6350    3.1390   -5.1770 C   0  0  0  0  0  0  0  0  0  0  0  0
   61.2940    1.4440   -5.3240 O   0  0  0  0  0  0  0  0  0  0  0  0
   60.4130    4.2250   -5.1320 C   0  0  0  0  0  0  0  0  0  0  0  0
   59.6420    5.5360   -5.0330 C   0  0  0  0  0  0  0  0  0  0  0  0
   60.2910    6.6650   -5.7020 N   0  0  0  0  0  0  0  0  0  0  0  0
   60.6520    6.3280   -7.0930 C   0  0  0  0  0  0  0  0  0  0  0  0
   59.3680    7.8060   -5.7180 C   0  0  0  0  0  0  0  0  0  0  0  0
   56.8870    2.4590    1.3780 C   0  0  0  0  0  0  0  0  0  0  0  0
   57.9630    1.6020    1.3820 N   0  0  0  0  0  0  0  0  0  0  0  0
   57.1150    3.8130    1.4960 N   0  0  0  0  0  0  0  0  0  0  0  0
   59.2640    2.0680    1.5140 C   0  0  0  0  0  0  0  0  0  0  0  0
   58.4000    4.2990    1.6240 C   0  0  0  0  0  0  0  0  0  0  0  0
   59.5070    3.4420    1.6290 C   0  0  0  0  0  0  0  0  0  0  0  0
   60.9530    5.3940    1.8620 C   0  0  0  0  0  0  0  0  0  0  0  0
   60.7890    4.0060    1.7540 C   0  0  0  0  0  0  0  0  0  0  0  0
   59.8360    6.2300    1.8670 C   0  0  0  0  0  0  0  0  0  0  0  0
   58.5580    5.6700    1.7430 C   0  0  0  0  0  0  0  0  0  0  0  0
   60.3060    1.1120    1.5710 N   0  0  0  0  0  0  0  0  0  0  0  0
   58.8830   -2.3590    2.0130 C   0  0  0  0  0  0  0  0  0  0  0  0
   60.0380   -3.1070    1.8410 C   0  0  0  0  0  0  0  0  0  0  0  0
   58.9220   -0.9720    1.9510 C   0  0  0  0  0  0  0  0  0  0  0  0
   61.2320   -2.4530    1.6120 C   0  0  0  0  0  0  0  0  0  0  0  0
   60.1320   -0.3040    1.7140 C   0  0  0  0  0  0  0  0  0  0  0  0
   61.2800   -1.0700    1.5480 C   0  0  0  0  0  0  0  0  0  0  0  0
   60.0180   -4.4380    1.8940 F   0  0  0  0  0  0  0  0  0  0  0  0
   57.3900   -3.1570    2.3180 Cl  0  0  0  0  0  0  0  0  0  0  0  0
   60.0450    7.5850    1.9890 O   0  0  0  0  0  0  0  0  0  0  0  0
   59.0180    8.5870    1.9930 C   0  0  2  0  0  0  0  0  0  0  0  0
   59.6160   10.0030    2.0510 C   0  0  0  0  0  0  0  0  0  0  0  0
   59.4570   10.5370    3.3710 O   0  0  0  0  0  0  0  0  0  0  0  0
   58.8260    9.5360    4.1610 C   0  0  0  0  0  0  0  0  0  0  0  0
   58.1310    8.5840    3.2120 C   0  0  0  0  0  0  0  0  0  0  0  0
   62.2080    6.0530    2.0140 N   0  0  0  0  0  0  0  0  0  0  0  0
   63.5120    5.5660    2.0380 C   0  0  0  0  0  0  0  0  0  0  0  0
   64.5890    6.5730    2.2730 C   0  0  0  0  0  0  0  0  0  0  0  0
   63.7630    4.3860    1.9080 O   0  0  0  0  0  0  0  0  0  0  0  0
   65.8770    6.2280    2.4670 C   0  0  0  0  0  0  0  0  0  0  0  0
   66.8930    7.3430    2.7380 C   0  0  0  0  0  0  0  0  0  0  0  0
   68.2800    7.1730    2.2210 N   0  0  0  0  0  0  0  0  0  0  0  0
   68.4710    6.0740    1.2260 C   0  0  0  0  0  0  0  0  0  0  0  0
   68.8090    8.4550    1.6750 C   0  0  0  0  0  0  0  0  0  0  0  0
   59.1251   -6.1490   -6.3520 H   0  0  0  0  0  0  0  0  0  0  0  0
   59.1984   -6.1127   -4.4870 H   0  0  0  0  0  0  0  0  0  0  0  0
   61.0342   -5.5272   -4.6421 H   0  0  0  0  0  0  0  0  0  0  0  0
   57.6657   -4.7977   -6.2037 H   0  0  0  0  0  0  0  0  0  0  0  0
   60.8355   -3.7156   -6.5088 H   0  0  0  0  0  0  0  0  0  0  0  0
   58.5541   -3.3320   -4.2292 H   0  0  0  0  0  0  0  0  0  0  0  0
   59.8026   -2.7777   -6.4458 H   0  0  0  0  0  0  0  0  0  0  0  0
   58.9295   -0.5310   -6.3481 H   0  0  0  0  0  0  0  0  0  0  0  0
   60.6606   -1.2345   -4.4160 H   0  0  0  0  0  0  0  0  0  0  0  0
   60.4924   -1.2185   -6.2878 H   0  0  0  0  0  0  0  0  0  0  0  0
   57.6294   -1.0140   -6.3269 H   0  0  0  0  0  0  0  0  0  0  0  0
   56.8290   -2.6209   -6.1560 H   0  0  0  0  0  0  0  0  0  0  0  0
   57.0042   -2.6369   -4.2843 H   0  0  0  0  0  0  0  0  0  0  0  0
   62.2984   -2.7015   -6.2217 H   0  0  0  0  0  0  0  0  0  0  0  0
   64.4969   -6.5331   -4.8698 H   0  0  0  0  0  0  0  0  0  0  0  0
   65.4806   -5.7319   -7.1348 H   0  0  0  0  0  0  0  0  0  0  0  0
   62.5673   -5.8898   -6.6164 H   0  0  0  0  0  0  0  0  0  0  0  0
   62.8964   -5.9886   -4.7650 H   0  0  0  0  0  0  0  0  0  0  0  0
   66.3734   -4.2527   -5.0860 H   0  0  0  0  0  0  0  0  0  0  0  0
   66.0580   -4.1473   -6.9341 H   0  0  0  0  0  0  0  0  0  0  0  0
   63.4397   -4.3815   -4.5666 H   0  0  0  0  0  0  0  0  0  0  0  0
   64.7216   -3.1365   -4.8124 H   0  0  0  0  0  0  0  0  0  0  0  0
   64.5007   -3.1278   -6.6878 H   0  0  0  0  0  0  0  0  0  0  0  0
   55.1889   -1.1141   -6.1101 H   0  0  0  0  0  0  0  0  0  0  0  0
   55.1501    1.6135   -6.2508 H   0  0  0  0  0  0  0  0  0  0  0  0
   53.5899    0.7543   -6.2093 H   0  0  0  0  0  0  0  0  0  0  0  0
   54.4505    0.7668   -2.5145 H   0  0  0  0  0  0  0  0  0  0  0  0
   52.8978    0.3899   -3.3302 H   0  0  0  0  0  0  0  0  0  0  0  0
   53.8004   -1.4991   -4.2281 H   0  0  0  0  0  0  0  0  0  0  0  0
   55.2968   -1.2098   -3.3353 H   0  0  0  0  0  0  0  0  0  0  0  0
   58.4701    1.1417   -6.0052 H   0  0  0  0  0  0  0  0  0  0  0  0
   60.0418    1.7763   -6.3519 H   0  0  0  0  0  0  0  0  0  0  0  0
   58.9945    3.2760   -6.0607 H   0  0  0  0  0  0  0  0  0  0  0  0
   59.2305    3.1478   -4.1541 H   0  0  0  0  0  0  0  0  0  0  0  0
   61.6648    1.3504   -4.4108 H   0  0  0  0  0  0  0  0  0  0  0  0
   61.0706    4.1433   -4.2540 H   0  0  0  0  0  0  0  0  0  0  0  0
   60.9723    4.2553   -6.0787 H   0  0  0  0  0  0  0  0  0  0  0  0
   58.6511    5.3888   -5.4874 H   0  0  0  0  0  0  0  0  0  0  0  0
   59.5867    5.7907   -3.9643 H   0  0  0  0  0  0  0  0  0  0  0  0
   61.4561    5.5774   -7.0915 H   0  0  0  0  0  0  0  0  0  0  0  0
   59.7716    5.9212   -7.6120 H   0  0  0  0  0  0  0  0  0  0  0  0
   60.9974    7.2343   -7.6120 H   0  0  0  0  0  0  0  0  0  0  0  0
   59.1303    8.0998   -4.6850 H   0  0  0  0  0  0  0  0  0  0  0  0
   59.8392    8.6515   -6.2405 H   0  0  0  0  0  0  0  0  0  0  0  0
   58.4427    7.5218   -6.2405 H   0  0  0  0  0  0  0  0  0  0  0  0
   56.3531    2.3028    0.4290 H   0  0  0  0  0  0  0  0  0  0  0  0
   56.3388    2.2011    2.2961 H   0  0  0  0  0  0  0  0  0  0  0  0
   57.8091    0.9468    2.1617 H   0  0  0  0  0  0  0  0  0  0  0  0
   56.7154    4.2537    0.6552 H   0  0  0  0  0  0  0  0  0  0  0  0
   59.3475    2.1448    0.4199 H   0  0  0  0  0  0  0  0  0  0  0  0
   58.3252    4.2087    2.7177 H   0  0  0  0  0  0  0  0  0  0  0  0
   59.5738    3.5218    0.5339 H   0  0  0  0  0  0  0  0  0  0  0  0
   61.0071    5.4729    0.7662 H   0  0  0  0  0  0  0  0  0  0  0  0
   61.2395    3.5653    2.6556 H   0  0  0  0  0  0  0  0  0  0  0  0
   61.2523    3.7793    0.7824 H   0  0  0  0  0  0  0  0  0  0  0  0
   59.9011    6.3236    0.7729 H   0  0  0  0  0  0  0  0  0  0  0  0
   58.1028    6.1186    0.8477 H   0  0  0  0  0  0  0  0  0  0  0  0
   58.0964    5.8887    2.7172 H   0  0  0  0  0  0  0  0  0  0  0  0
   60.8351    1.2339    0.6957 H   0  0  0  0  0  0  0  0  0  0  0  0
   59.0721   -2.3159    3.0958 H   0  0  0  0  0  0  0  0  0  0  0  0
   59.8515   -3.1459    0.7576 H   0  0  0  0  0  0  0  0  0  0  0  0
   58.2341   -0.6730    1.1464 H   0  0  0  0  0  0  0  0  0  0  0  0
   58.6705   -0.6712    2.9788 H   0  0  0  0  0  0  0  0  0  0  0  0
   61.9151   -2.7540    2.4200 H   0  0  0  0  0  0  0  0  0  0  0  0
   61.4837   -2.7548    0.5846 H   0  0  0  0  0  0  0  0  0  0  0  0
   60.2950   -0.2145    2.7982 H   0  0  0  0  0  0  0  0  0  0  0  0
   61.9872   -0.7456    2.3256 H   0  0  0  0  0  0  0  0  0  0  0  0
   61.5425   -0.8862    0.4957 H   0  0  0  0  0  0  0  0  0  0  0  0
   58.4576    8.3479    1.0772 H   0  0  0  0  0  0  0  0  0  0  0  0
   60.6861    9.9593    1.8000 H   0  0  0  0  0  0  0  0  0  0  0  0
   59.0953   10.6498    1.3296 H   0  0  0  0  0  0  0  0  0  0  0  0
   59.5783    8.9944    4.7533 H   0  0  0  0  0  0  0  0  0  0  0  0
   58.1038    9.9877    4.8570 H   0  0  0  0  0  0  0  0  0  0  0  0
   57.1216    8.9440    2.9640 H   0  0  0  0  0  0  0  0  0  0  0  0
   57.9947    7.5793    3.6386 H   0  0  0  0  0  0  0  0  0  0  0  0
   62.2180    6.7380    1.2449 H   0  0  0  0  0  0  0  0  0  0  0  0
   63.5938    5.7316    0.9536 H   0  0  0  0  0  0  0  0  0  0  0  0
   64.5804    7.2385    1.3972 H   0  0  0  0  0  0  0  0  0  0  0  0
   64.3124    6.9702    3.2608 H   0  0  0  0  0  0  0  0  0  0  0  0
   63.8521    3.9673    2.8007 H   0  0  0  0  0  0  0  0  0  0  0  0
   65.9053    5.5447    3.3285 H   0  0  0  0  0  0  0  0  0  0  0  0
   66.1924    5.8004    1.5039 H   0  0  0  0  0  0  0  0  0  0  0  0
   66.4905    8.2657    2.2946 H   0  0  0  0  0  0  0  0  0  0  0  0
   67.0085    7.3463    3.8319 H   0  0  0  0  0  0  0  0  0  0  0  0
   68.6361    5.1243    1.7559 H   0  0  0  0  0  0  0  0  0  0  0  0
   67.5739    5.9907    0.5950 H   0  0  0  0  0  0  0  0  0  0  0  0
   69.3436    6.2983    0.5950 H   0  0  0  0  0  0  0  0  0  0  0  0
   69.0841    9.1216    2.5057 H   0  0  0  0  0  0  0  0  0  0  0  0
   69.6969    8.2522    1.0582 H   0  0  0  0  0  0  0  0  0  0  0  0
   68.0364    8.9374    1.0582 H   0  0  0  0  0  0  0  0  0  0  0  0
  1  2  1  0
  1  3  1  0
  2  4  1  0
  3  5  1  0
  4  6  1  0
  5  6  1  0
  6  8  1  0
  7  8  1  0
  7  9  1  0
  5 10  1  0
  9 10  1  0
  4 11  1  0
 12 13  1  0
 12 14  1  0
 13 15  1  0
 11 16  1  0
 14 16  1  0
 15 17  1  0
 16 17  1  0
 13 18  1  0
 12 19  1  0
  9 20  1  0
 20 21  1  0
 21 22  1  0
 22 23  1  0
 23 24  1  0
 21 25  1  0
 24 25  1  0
  7 26  1  0
 26 27  1  0
 27 28  1  0
 27 29  1  0
 28 30  1  0
 30 31  1  0
 31 32  1  0
 32 33  1  0
 32 34  1  0
 35 36  1  0
 35 37  1  0
 36 38  1  0
 37 39  1  0
 38 40  1  0
 39 40  1  0
 40 42  1  0
 41 42  1  0
 41 43  1  0
 39 44  1  0
 43 44  1  0
 38 45  1  0
 46 47  1  0
 46 48  1  0
 47 49  1  0
 45 50  1  0
 48 50  1  0
 49 51  1  0
 50 51  1  0
 47 52  1  0
 46 53  1  0
 43 54  1  0
 54 55  1  0
 55 56  1  0
 56 57  1  0
 57 58  1  0
 55 59  1  0
 58 59  1  0
 41 60  1  0
 60 61  1  0
 61 62  1  0
 61 63  1  0
 62 64  1  0
 64 65  1  0
 65 66  1  0
 66 67  1  0
 66 68  1  0
  1 69  1  0
  1 70  1  0
  2 71  1  0
  3 72  1  0
  4 73  1  0
  5 74  1  0
  6 75  1  0
  7 76  1  0
  8 77  1  0
  8 78  1  0
  9 79  1  0
 10 80  1  0
 10 81  1  0
 11 82  1  0
 12 83  1  0
 13 84  1  0
 14 85  1  0
 14 86  1  0
 15 87  1  0
 15 88  1  0
 16 89  1  0
 17 90  1  0
 17 91  1  0
 21 92  1  6
 22 93  1  0
 22 94  1  0
 24 95  1  0
 24 96  1  0
 25 97  1  0
 25 98  1  0
 26 99  1  0
 27100  1  0
 28101  1  0
 28102  1  0
 29103  1  0
 30104  1  0
 30105  1  0
 31106  1  0
 31107  1  0
 33108  1  0
 33109  1  0
 33110  1  0
 34111  1  0
 34112  1  0
 34113  1  0
 35114  1  0
 35115  1  0
 36116  1  0
 37117  1  0
 38118  1  0
 39119  1  0
 40120  1  0
 41121  1  0
 42122  1  0
 42123  1  0
 43124  1  0
 44125  1  0
 44126  1  0
 45127  1  0
 46128  1  0
 47129  1  0
 48130  1  0
 48131  1  0
 49132  1  0
 49133  1  0
 50134  1  0
 51135  1  0
 51136  1  0
 55137  1  6
 56138  1  0
 56139  1  0
 58140  1  0
 58141  1  0
 59142  1  0
 59143  1  0
 60144  1  0
 61145  1  0
 62146  1  0
 62147  1  0
 63148  1  0
 64149  1  0
 64150  1  0
 65151  1  0
 65152  1  0
 67153  1  0
 67154  1  0
 67155  1  0
 68156  1  0
 68157  1  0
 68158  1  0
M  END
>  <PDBID>  (1) 
4G5J

>  <PDB ID>  (1) 
4G5J

>  <Generic Name>  (1) 
Afatinib

>  <Brand Name>  (1) 
Gilotrif#Giotrif

>  <DrugBank ID>  (1) 
DB08916

>  <ATC Codes>  (1) 
L01XE13

>  <Ligand ID>  (1) 
0WM

>  <Target Name>  (1) 
Receptor tyrosine-protein kinase erbB-2

>  <UniProt ID>  (1) 
P04626

>  <PDB ID.1>  (1) 
4G5J

>  <Seq. Identity>  (1) 
78%

$$$$
