PDB_DB00919_98
     RDKit          3D

 47 49  0  0  0  0  0  0  0  0999 V2000
   59.6580  109.7260  -63.3370 O   0  0  0  0  0  0  0  0  0  0  0  0
   59.2900  108.7720  -64.3770 C   0  0  2  0  0  0  0  0  0  0  0  0
   58.6280  109.5040  -65.5350 C   0  0  0  0  0  0  0  0  0  0  0  0
   58.3110  107.6450  -63.8880 C   0  0  0  0  0  0  0  0  0  0  0  0
   58.2320  107.4400  -62.3630 C   0  0  0  0  0  0  0  0  0  0  0  0
   57.5120  106.5940  -61.8930 O   0  0  0  0  0  0  0  0  0  0  0  0
   59.1110  108.3150  -61.4370 C   0  0  1  0  0  0  0  0  0  0  0  0
   59.6450  107.5320  -60.3770 O   0  0  0  0  0  0  0  0  0  0  0  0
   60.2370  108.9650  -62.2990 C   0  0  2  0  0  0  0  0  0  0  0  0
   58.3550  109.3560  -60.7250 O   0  0  0  0  0  0  0  0  0  0  0  0
   61.0900  109.8240  -61.4890 O   0  0  0  0  0  0  0  0  0  0  0  0
   59.2270  110.1840  -59.8900 C   0  0  2  0  0  0  0  0  0  0  0  0
   58.4000  111.2550  -59.1520 C   0  0  1  0  0  0  0  0  0  0  0  0
   57.3560  110.5540  -58.3250 N   0  0  0  0  0  0  0  0  0  0  0  0
   56.4800  111.4610  -57.5720 C   0  0  0  0  0  0  0  0  0  0  0  0
   59.3840  112.1370  -58.2750 C   0  0  1  0  0  0  0  0  0  0  0  0
   60.0180  111.3610  -57.2970 O   0  0  0  0  0  0  0  0  0  0  0  0
   60.4550  112.8170  -59.1770 C   0  0  1  0  0  0  0  0  0  0  0  0
   61.3460  113.6130  -58.3730 N   0  0  0  0  0  0  0  0  0  0  0  0
   61.4460  114.9100  -58.9830 C   0  0  0  0  0  0  0  0  0  0  0  0
   61.2670  111.7290  -59.9310 C   0  0  2  0  0  0  0  0  0  0  0  0
   62.2400  112.3430  -60.7560 O   0  0  0  0  0  0  0  0  0  0  0  0
   60.3190  110.8570  -60.7870 C   0  0  1  0  0  0  0  0  0  0  0  0
   60.2280  108.2858  -64.6834 H   0  0  0  0  0  0  0  0  0  0  0  0
   57.9390  110.2658  -65.1413 H   0  0  0  0  0  0  0  0  0  0  0  0
   59.3993  109.9901  -66.1504 H   0  0  0  0  0  0  0  0  0  0  0  0
   58.0670  108.7853  -66.1504 H   0  0  0  0  0  0  0  0  0  0  0  0
   57.3020  107.8952  -64.2475 H   0  0  0  0  0  0  0  0  0  0  0  0
   58.7110  106.7047  -64.2953 H   0  0  0  0  0  0  0  0  0  0  0  0
   59.3769  107.9251  -59.5089 H   0  0  0  0  0  0  0  0  0  0  0  0
   60.8553  108.1591  -62.7212 H   0  0  0  0  0  0  0  0  0  0  0  0
   59.7192  109.5506  -59.1373 H   0  0  0  0  0  0  0  0  0  0  0  0
   57.8822  111.9305  -59.8489 H   0  0  0  0  0  0  0  0  0  0  0  0
   56.7704  109.9877  -58.9553 H   0  0  0  0  0  0  0  0  0  0  0  0
   56.6307  111.3050  -56.4936 H   0  0  0  0  0  0  0  0  0  0  0  0
   56.7226  112.5026  -57.8292 H   0  0  0  0  0  0  0  0  0  0  0  0
   55.4306  111.2547  -57.8292 H   0  0  0  0  0  0  0  0  0  0  0  0
   58.7848  112.9124  -57.7753 H   0  0  0  0  0  0  0  0  0  0  0  0
   59.7549  111.6830  -56.3985 H   0  0  0  0  0  0  0  0  0  0  0  0
   59.9492  113.4691  -59.9043 H   0  0  0  0  0  0  0  0  0  0  0  0
   60.9707  113.7027  -57.4180 H   0  0  0  0  0  0  0  0  0  0  0  0
   61.5054  115.6800  -58.1997 H   0  0  0  0  0  0  0  0  0  0  0  0
   62.3501  114.9525  -59.6082 H   0  0  0  0  0  0  0  0  0  0  0  0
   60.5591  115.0905  -59.6082 H   0  0  0  0  0  0  0  0  0  0  0  0
   61.7733  111.0852  -59.1967 H   0  0  0  0  0  0  0  0  0  0  0  0
   62.9268  112.7764  -60.1898 H   0  0  0  0  0  0  0  0  0  0  0  0
   59.8189  111.5039  -61.5228 H   0  0  0  0  0  0  0  0  0  0  0  0
  2  1  1  0
  3  2  1  0
  4  2  1  0
  5  4  1  0
  6  5  2  0
  7  5  1  0
  7  8  1  1
  9  7  1  0
  9  1  1  0
 10  7  1  0
 11  9  1  0
 12 10  1  0
 13 12  1  0
 14 13  1  0
 15 14  1  0
 16 13  1  0
 17 16  1  0
 18 16  1  0
 19 18  1  0
 20 19  1  0
 21 18  1  0
 22 21  1  0
 23 12  1  0
 23 11  1  0
 23 21  1  0
  2 24  1  6
  3 25  1  0
  3 26  1  0
  3 27  1  0
  4 28  1  0
  4 29  1  0
  8 30  1  0
  9 31  1  6
 12 32  1  1
 13 33  1  6
 14 34  1  0
 15 35  1  0
 15 36  1  0
 15 37  1  0
 16 38  1  1
 17 39  1  0
 18 40  1  6
 19 41  1  0
 20 42  1  0
 20 43  1  0
 20 44  1  0
 21 45  1  1
 22 46  1  0
 23 47  1  6
M  END
$$$$
