PDB_DB01157_93
     RDKit          3D

 50 52  0  0  0  0  0  0  0  0999 V2000
   25.2760   21.9400   56.7640 N   0  0  0  0  0  0  0  0  0  0  0  0
   26.1910   22.9530   57.3880 C   0  0  0  0  0  0  0  0  0  0  0  0
   25.6770   23.8790   58.4720 N   0  0  0  0  0  0  0  0  0  0  0  0
   24.3160   23.7750   58.9230 C   0  0  0  0  0  0  0  0  0  0  0  0
   23.8890   21.8320   57.2200 C   0  0  0  0  0  0  0  0  0  0  0  0
   23.3730   22.7250   58.3060 C   0  0  0  0  0  0  0  0  0  0  0  0
   21.8750   22.5900   58.8090 C   0  0  0  0  0  0  0  0  0  0  0  0
   20.9750   21.5450   58.1560 C   0  0  0  0  0  0  0  0  0  0  0  0
   21.5160   20.6430   57.0520 C   0  0  0  0  0  0  0  0  0  0  0  0
   22.9740   20.7510   56.5610 C   0  0  0  0  0  0  0  0  0  0  0  0
   19.5290   21.3900   58.6250 C   0  0  0  0  0  0  0  0  0  0  0  0
   18.8840   20.6120   57.6380 N   0  0  0  0  0  0  0  0  0  0  0  0
   19.1860   19.2190   57.5180 C   0  0  0  0  0  0  0  0  0  0  0  0
   18.5210   18.3920   56.4010 C   0  0  0  0  0  0  0  0  0  0  0  0
   18.8460   16.8930   56.3150 C   0  0  0  0  0  0  0  0  0  0  0  0
   19.8100   16.2240   57.3330 C   0  0  0  0  0  0  0  0  0  0  0  0
   20.4690   17.0620   58.4420 C   0  0  0  0  0  0  0  0  0  0  0  0
   20.1500   18.5610   58.5310 C   0  0  0  0  0  0  0  0  0  0  0  0
   21.3090   23.4210   59.9750 C   0  0  0  0  0  0  0  0  0  0  0  0
   18.2730   16.1460   55.2820 O   0  0  0  0  0  0  0  0  0  0  0  0
   20.0660   14.8450   57.2930 O   0  0  0  0  0  0  0  0  0  0  0  0
   21.3750   16.4570   59.3440 O   0  0  0  0  0  0  0  0  0  0  0  0
   17.5090   16.8030   54.2980 C   0  0  0  0  0  0  0  0  0  0  0  0
   19.8660   14.0990   58.4660 C   0  0  0  0  0  0  0  0  0  0  0  0
   21.5640   16.9750   60.6380 C   0  0  0  0  0  0  0  0  0  0  0  0
   27.5480   23.0380   56.9220 N   0  0  0  0  0  0  0  0  0  0  0  0
   23.8310   24.7120   59.9030 N   0  0  0  0  0  0  0  0  0  0  0  0
   20.8498   19.8968   56.5944 H   0  0  0  0  0  0  0  0  0  0  0  0
   23.3575   20.0877   55.7717 H   0  0  0  0  0  0  0  0  0  0  0  0
   19.4950   20.8785   59.5982 H   0  0  0  0  0  0  0  0  0  0  0  0
   19.0391   22.3664   58.7541 H   0  0  0  0  0  0  0  0  0  0  0  0
   18.1972   21.0472   57.0057 H   0  0  0  0  0  0  0  0  0  0  0  0
   17.8319   18.8624   55.6842 H   0  0  0  0  0  0  0  0  0  0  0  0
   20.6110   19.1713   59.3216 H   0  0  0  0  0  0  0  0  0  0  0  0
   21.6163   22.9698   60.9299 H   0  0  0  0  0  0  0  0  0  0  0  0
   21.6955   24.4491   59.9141 H   0  0  0  0  0  0  0  0  0  0  0  0
   20.2108   23.4379   59.9141 H   0  0  0  0  0  0  0  0  0  0  0  0
   16.7607   17.4465   54.7838 H   0  0  0  0  0  0  0  0  0  0  0  0
   18.1704   17.4188   53.6708 H   0  0  0  0  0  0  0  0  0  0  0  0
   16.9992   16.0568   53.6708 H   0  0  0  0  0  0  0  0  0  0  0  0
   20.0381   14.7409   59.3426 H   0  0  0  0  0  0  0  0  0  0  0  0
   18.8341   13.7185   58.4871 H   0  0  0  0  0  0  0  0  0  0  0  0
   20.5691   13.2533   58.4871 H   0  0  0  0  0  0  0  0  0  0  0  0
   21.2862   16.2137   61.3819 H   0  0  0  0  0  0  0  0  0  0  0  0
   22.6205   17.2503   60.7720 H   0  0  0  0  0  0  0  0  0  0  0  0
   20.9330   17.8660   60.7720 H   0  0  0  0  0  0  0  0  0  0  0  0
   28.1927   23.7261   57.3365 H   0  0  0  0  0  0  0  0  0  0  0  0
   27.8758   22.4108   56.1736 H   0  0  0  0  0  0  0  0  0  0  0  0
   22.8584   24.6511   60.2366 H   0  0  0  0  0  0  0  0  0  0  0  0
   24.4567   25.4431   60.2704 H   0  0  0  0  0  0  0  0  0  0  0  0
  1  2  2  0
  2  3  1  0
  3  4  2  0
  1  5  1  0
  4  6  1  0
  5  6  2  0
  6  7  1  0
  7  8  2  0
  8  9  1  0
  5 10  1  0
  9 10  2  0
  8 11  1  0
 11 12  1  0
 12 13  1  0
 13 14  2  0
 14 15  1  0
 15 16  2  0
 16 17  1  0
 13 18  1  0
 17 18  2  0
  7 19  1  0
 15 20  1  0
 16 21  1  0
 17 22  1  0
 20 23  1  0
 21 24  1  0
 22 25  1  0
  2 26  1  0
  4 27  1  0
  9 28  1  0
 10 29  1  0
 11 30  1  0
 11 31  1  0
 12 32  1  0
 14 33  1  0
 18 34  1  0
 19 35  1  0
 19 36  1  0
 19 37  1  0
 23 38  1  0
 23 39  1  0
 23 40  1  0
 24 41  1  0
 24 42  1  0
 24 43  1  0
 25 44  1  0
 25 45  1  0
 25 46  1  0
 26 47  1  0
 26 48  1  0
 27 49  1  0
 27 50  1  0
M  END
$$$$
