PDB_DB00586_99
     RDKit          3D

 30 31  0  0  0  0  0  0  0  0999 V2000
   31.7010  -41.9800   -4.5050 C   0  0  0  0  0  0  0  0  0  0  0  0
   32.5740  -43.0660   -4.5590 C   0  0  0  0  0  0  0  0  0  0  0  0
   33.2510  -43.5720   -6.1420 Cl  0  0  0  0  0  0  0  0  0  0  0  0
   32.9070  -43.7580   -3.3990 C   0  0  0  0  0  0  0  0  0  0  0  0
   32.3770  -43.3500   -2.1810 C   0  0  0  0  0  0  0  0  0  0  0  0
   32.8070  -44.2260   -0.6770 Cl  0  0  0  0  0  0  0  0  0  0  0  0
   31.5070  -42.2620   -2.1200 C   0  0  0  0  0  0  0  0  0  0  0  0
   31.1670  -41.5760   -3.2840 C   0  0  0  0  0  0  0  0  0  0  0  0
   33.7590  -44.8130   -3.4380 N   0  0  0  0  0  0  0  0  0  0  0  0
   34.3650  -47.0740   -3.9210 C   0  0  0  0  0  0  0  0  0  0  0  0
   33.4190  -46.0470   -3.8940 C   0  0  0  0  0  0  0  0  0  0  0  0
   32.1210  -46.3030   -4.3440 C   0  0  0  0  0  0  0  0  0  0  0  0
   31.7740  -47.5660   -4.8180 C   0  0  0  0  0  0  0  0  0  0  0  0
   32.7200  -48.5870   -4.8390 C   0  0  0  0  0  0  0  0  0  0  0  0
   34.0150  -48.3390   -4.3920 C   0  0  0  0  0  0  0  0  0  0  0  0
   35.7850  -46.8540   -3.4490 C   0  0  0  0  0  0  0  0  0  0  0  0
   35.8690  -47.0790   -1.9580 C   0  0  0  0  0  0  0  0  0  0  0  0
   36.2540  -48.1920   -1.5330 O   0  0  0  0  0  0  0  0  0  0  0  0
   35.5510  -46.1360   -1.2050 O   0  0  0  0  0  0  0  0  0  0  0  0
   31.4342  -41.4424   -5.4269 H   0  0  0  0  0  0  0  0  0  0  0  0
   31.0892  -41.9454   -1.1530 H   0  0  0  0  0  0  0  0  0  0  0  0
   30.4794  -40.7186   -3.2387 H   0  0  0  0  0  0  0  0  0  0  0  0
   34.7219  -44.6699   -3.1016 H   0  0  0  0  0  0  0  0  0  0  0  0
   31.3680  -45.5014   -4.3238 H   0  0  0  0  0  0  0  0  0  0  0  0
   30.7515  -47.7568   -5.1760 H   0  0  0  0  0  0  0  0  0  0  0  0
   32.4453  -49.5864   -5.2075 H   0  0  0  0  0  0  0  0  0  0  0  0
   34.7647  -49.1437   -4.4104 H   0  0  0  0  0  0  0  0  0  0  0  0
   36.4542  -47.5596   -3.9631 H   0  0  0  0  0  0  0  0  0  0  0  0
   36.0882  -45.8218   -3.6782 H   0  0  0  0  0  0  0  0  0  0  0  0
   36.3146  -48.3558   -0.5585 H   0  0  0  0  0  0  0  0  0  0  0  0
  1  2  2  0
  2  3  1  0
  2  4  1  0
  4  5  2  0
  5  6  1  0
  5  7  1  0
  1  8  1  0
  7  8  2  0
  4  9  1  0
  9 11  1  0
 10 11  2  0
 11 12  1  0
 12 13  2  0
 13 14  1  0
 10 15  1  0
 14 15  2  0
 10 16  1  0
 16 17  1  0
 17 18  1  0
 17 19  2  0
  1 20  1  0
  7 21  1  0
  8 22  1  0
  9 23  1  0
 12 24  1  0
 13 25  1  0
 14 26  1  0
 15 27  1  0
 16 28  1  0
 16 29  1  0
 18 30  1  0
M  END
>  <PDBID>  (1) 
3N8Y

>  <PDB ID>  (1) 
3N8Y

>  <Generic Name>  (1) 
Diclofenac

>  <Brand Name>  (1) 
Act Diclo-miso#Apo-diclo#Apo-diclo Rapide 50 Mg Tablets#Apo-diclo SR#Apo-diclofenac#Apo-diclofenac Ophthalmic#Arthrotec#Arthrotec 50#Arthrotec 75#Ava-diclofenac#Ava-diclofenac SR#Cambia#Cataflam#Diclo Gel 1% With Xrylix Sheets#Diclofenac#Diclofenac EC#Diclofenac Ect 25mg#Diclofenac Ect 50mg#Diclofenac K#Diclofenac Misoprostol#Diclofenac Potassium#Diclofenac Potassium for Oral Solution#Diclofenac SR#Diclofenac Sodium#Diclofenac Sodium 3 Percent#Diclofenac Sodium D/r#Diclofenac Sodium Delayed Release#Diclofenac Sodium Delayed Release Delayed Release#Diclofenac Sodium Dr#Diclofenac Sodium Extended-release#Diclofenac Sodium and Misoprostol#Diclofenac Sodium and Misoprostol Delayed-release#Diclofenac Topical Solution#Diclofenac-SR#Diclotec#Diclozor#Dipentocaine Topical Cream Compounding Kit#Dom-diclofenac#Dom-diclofenac-SR#Dyloject#Flector#Gapeam Budibac#Gd-diclofenac/misoprostol 50#Gd-diclofenac/misoprostol 75#Infla-eze#Klofensaid II#Lexixryl#Ntp-diclofenac Potassium#Ntp-diclofenac Sodium#Ntp-diclofenac Sodium SR#Nu-diclo Enteric Coated Tab 25mg#Nu-diclo Enteric Coated Tab 50mg#Nu-diclo Rapide#Nu-diclo SR - Srt 100mg#Nu-diclo SR - Srt 75mg#PMS-diclofenac#PMS-diclofenac K#PMS-diclofenac-SR#PMS-diclofenac-misoprostol#Pennsaid#Penta-diclofenac - 25mg#Penta-diclofenac - 50mg#Previdolrx Analgesic Pak#Previdolrx Plus Analgesic Pak#Pro-diclo Rapide - 50#Rho-diclofenac#Riva-diclofenac 100mg SR Tablets#Riva-diclofenac 50mg Tablets#Riva-diclofenac 75mg SR Tablets#Riva-diclofenac-K 50mg Tablets#Sandoz Diclofenac#Sandoz Diclofenac Misoprostol#Sandoz Diclofenac Ophtha#Sandoz-diclofenac#Sandoz-diclofenac Rapide#Sandoz-diclofenac SR#Solaraze#Taro-diclofenac#Taro-diclofenac Tab 25mg#Taro-diclofenac Tab 50mg#Teva-diclofenac#Teva-diclofenac EC#Teva-diclofenac SR#Teva-diclofenac-K#Vofenal 0.1%#Voltaren#Voltaren Emulgel#Voltaren Emulgel Extra Strength#Voltaren Emulgel Joint Pain#Voltaren Ophtha#Voltaren Rapide Tablets 50mg#Voltaren SR 75 Tab#Voltaren SR Tab 100mg#Voltaren Sup 100mg#Voltaren Sup 50mg#Voltaren Tab 25mg#Voltaren Tab 50mg#Voltaren XR#Xrylix#Zipsor#Zorvolex#Aclonac#Allvoran#Ecofenac#Effekton#Nu-Diclo#Primofenac#Prophenatin#Rhumalgan#Voltaren Emulgel#Voltarol

>  <DrugBank ID>  (1) 
DB00586

>  <ATC Codes>  (1) 
M01AB05#S01BC03#M01AB55#M02AA15#D11AX18#S01CC01

>  <Ligand ID>  (1) 
DIF

>  <Target Name>  (1) 
Prostaglandin G/H synthase 1

>  <UniProt ID>  (1) 
P23219

>  <PDB ID.1>  (1) 
3N8Y

>  <Seq. Identity>  (1) 
90%

$$$$
