PDB_DB00712_99
     RDKit          3D

 31 32  0  0  0  0  0  0  0  0999 V2000
  141.2380  150.1960   69.1260 C   0  0  0  0  0  0  0  0  0  0  0  0
  140.4160  149.1050   68.8890 C   0  0  0  0  0  0  0  0  0  0  0  0
  140.8590  148.0500   68.1020 C   0  0  0  0  0  0  0  0  0  0  0  0
  142.1280  148.1000   67.5450 C   0  0  0  0  0  0  0  0  0  0  0  0
  142.9510  149.1920   67.7780 C   0  0  0  0  0  0  0  0  0  0  0  0
  142.5070  150.2410   68.5690 C   0  0  0  0  0  0  0  0  0  0  0  0
  140.0420  146.9530   67.8580 C   0  0  0  0  0  0  0  0  0  0  0  0
  139.9280  146.4620   66.5660 C   0  0  0  0  0  0  0  0  0  0  0  0
  139.1120  145.3700   66.3050 C   0  0  0  0  0  0  0  0  0  0  0  0
  138.4110  144.7590   67.3340 C   0  0  0  0  0  0  0  0  0  0  0  0
  138.5290  145.2470   68.6230 C   0  0  0  0  0  0  0  0  0  0  0  0
  139.3380  146.3400   68.8860 C   0  0  0  0  0  0  0  0  0  0  0  0
  137.5250  143.5620   67.0580 C   0  0  2  0  0  0  0  0  0  0  0  0
  138.1540  142.7100   65.9770 C   0  0  0  0  0  0  0  0  0  0  0  0
  136.1440  144.0040   66.6240 C   0  0  0  0  0  0  0  0  0  0  0  0
  135.8420  144.0170   65.4020 O   0  0  0  0  0  0  0  0  0  0  0  0
  135.2940  144.3530   67.4850 O   0  0  0  0  0  0  0  0  0  0  0  0
  139.4270  146.7900   70.1420 F   0  0  0  0  0  0  0  0  0  0  0  0
  140.8837  151.0255   69.7556 H   0  0  0  0  0  0  0  0  0  0  0  0
  139.4073  149.0749   69.3268 H   0  0  0  0  0  0  0  0  0  0  0  0
  142.4833  147.2705   66.9160 H   0  0  0  0  0  0  0  0  0  0  0  0
  143.9572  149.2260   67.3348 H   0  0  0  0  0  0  0  0  0  0  0  0
  143.1600  151.1067   68.7541 H   0  0  0  0  0  0  0  0  0  0  0  0
  140.4854  146.9390   65.7464 H   0  0  0  0  0  0  0  0  0  0  0  0
  139.0209  144.9875   65.2777 H   0  0  0  0  0  0  0  0  0  0  0  0
  137.9775  144.7645   69.4434 H   0  0  0  0  0  0  0  0  0  0  0  0
  137.4253  142.9753   67.9831 H   0  0  0  0  0  0  0  0  0  0  0  0
  138.7464  141.9076   66.4409 H   0  0  0  0  0  0  0  0  0  0  0  0
  137.3638  142.2681   65.3522 H   0  0  0  0  0  0  0  0  0  0  0  0
  138.8090  143.3350   65.3522 H   0  0  0  0  0  0  0  0  0  0  0  0
  134.9386  144.3062   65.1184 H   0  0  0  0  0  0  0  0  0  0  0  0
  1  2  2  0
  2  3  1  0
  3  4  2  0
  4  5  1  0
  1  6  1  0
  5  6  2  0
  3  7  1  0
  7  8  2  0
  8  9  1  0
  9 10  2  0
 10 11  1  0
  7 12  1  0
 11 12  2  0
 10 13  1  0
 13 14  1  0
 13 15  1  0
 15 16  1  0
 15 17  2  0
 12 18  1  0
  1 19  1  0
  2 20  1  0
  4 21  1  0
  5 22  1  0
  6 23  1  0
  8 24  1  0
  9 25  1  0
 11 26  1  0
 13 27  1  1
 14 28  1  0
 14 29  1  0
 14 30  1  0
 16 31  1  0
M  END
$$$$
