PDB_DB01041_98
     RDKit          3D

 29 31  0  0  0  0  0  0  0  0999 V2000
   24.5540  -36.3140  -70.1790 O   0  0  0  0  0  0  0  0  0  0  0  0
   24.0730  -35.8140  -69.1690 C   0  0  0  0  0  0  0  0  0  0  0  0
   24.7220  -34.8650  -68.5030 N   0  0  0  0  0  0  0  0  0  0  0  0
   24.1940  -34.1140  -67.5270 C   0  0  0  0  0  0  0  0  0  0  0  0
   24.8090  -33.1340  -67.1100 O   0  0  0  0  0  0  0  0  0  0  0  0
   22.8400  -34.5070  -66.9490 C   0  0  0  0  0  0  0  0  0  0  0  0
   22.6070  -36.0010  -67.1720 C   0  0  0  0  0  0  0  0  0  0  0  0
   22.7150  -36.2520  -68.6680 C   0  0  2  0  0  0  0  0  0  0  0  0
   22.5180  -37.6840  -69.0300 N   0  0  0  0  0  0  0  0  0  0  0  0
   22.4490  -42.2660  -70.1360 C   0  0  0  0  0  0  0  0  0  0  0  0
   23.2830  -41.3030  -69.5360 C   0  0  0  0  0  0  0  0  0  0  0  0
   22.7890  -40.0100  -69.4570 C   0  0  0  0  0  0  0  0  0  0  0  0
   21.5570  -39.6680  -69.9320 C   0  0  0  0  0  0  0  0  0  0  0  0
   24.6560  -38.6490  -68.3230 O   0  0  0  0  0  0  0  0  0  0  0  0
   20.3260  -37.3850  -69.9570 O   0  0  0  0  0  0  0  0  0  0  0  0
   20.7000  -40.6030  -70.5180 C   0  0  0  0  0  0  0  0  0  0  0  0
   21.1740  -41.9220  -70.6260 C   0  0  0  0  0  0  0  0  0  0  0  0
   21.4520  -38.2170  -69.6170 C   0  0  0  0  0  0  0  0  0  0  0  0
   23.3380  -38.7350  -68.9150 C   0  0  0  0  0  0  0  0  0  0  0  0
   25.7056  -34.6936  -68.7562 H   0  0  0  0  0  0  0  0  0  0  0  0
   22.8244  -34.2901  -65.8707 H   0  0  0  0  0  0  0  0  0  0  0  0
   22.0463  -33.9327  -67.4493 H   0  0  0  0  0  0  0  0  0  0  0  0
   23.3685  -36.5859  -66.6353 H   0  0  0  0  0  0  0  0  0  0  0  0
   21.6192  -36.3038  -66.7945 H   0  0  0  0  0  0  0  0  0  0  0  0
   21.9124  -35.6671  -69.1411 H   0  0  0  0  0  0  0  0  0  0  0  0
   22.7993  -43.3050  -70.2236 H   0  0  0  0  0  0  0  0  0  0  0  0
   24.2788  -41.5641  -69.1485 H   0  0  0  0  0  0  0  0  0  0  0  0
   19.7000  -40.3199  -70.8784 H   0  0  0  0  0  0  0  0  0  0  0  0
   20.5444  -42.6914  -71.0968 H   0  0  0  0  0  0  0  0  0  0  0  0
  1  2  2  0
  2  3  1  0
  3  4  1  0
  4  5  2  0
  4  6  1  0
  6  7  1  0
  2  8  1  0
  7  8  1  0
  8  9  1  0
 10 11  2  0
 11 12  1  0
 12 13  2  0
 13 16  1  0
 10 17  1  0
 16 17  2  0
  9 18  1  0
 13 18  1  0
 15 18  2  0
  9 19  1  0
 12 19  1  0
 14 19  2  0
  3 20  1  0
  6 21  1  0
  6 22  1  0
  7 23  1  0
  7 24  1  0
  8 25  1  6
 10 26  1  0
 11 27  1  0
 16 28  1  0
 17 29  1  0
M  END
$$$$
