PDB_DB00684_99
     RDKit          3D

 69 71  0  0  0  0  0  0  0  0999 V2000
  190.6110   87.8700  -10.6140 C   0  0  2  0  0  0  0  0  0  0  0  0
  191.4300   88.9940  -10.7530 O   0  0  0  0  0  0  0  0  0  0  0  0
  189.4600   88.0980   -9.5670 C   0  0  2  0  0  0  0  0  0  0  0  0
  188.8070   89.3930   -9.7660 N   0  0  0  0  0  0  0  0  0  0  0  0
  189.9820   87.9930   -8.1230 C   0  0  0  0  0  0  0  0  0  0  0  0
  190.6720   86.6510   -7.9870 C   0  0  2  0  0  0  0  0  0  0  0  0
  191.2000   86.5380   -6.6910 O   0  0  0  0  0  0  0  0  0  0  0  0
  191.8580   86.6300   -8.9900 C   0  0  2  0  0  0  0  0  0  0  0  0
  191.4050   86.7240  -10.3400 O   0  0  0  0  0  0  0  0  0  0  0  0
  192.7650   85.3960   -8.7580 C   0  0  0  0  0  0  0  0  0  0  0  0
  194.1440   85.8710   -8.5630 N   0  0  0  0  0  0  0  0  0  0  0  0
  194.3060   90.7080  -13.2210 C   0  0  2  0  0  0  0  0  0  0  0  0
  195.3980   91.1050  -14.1180 N   0  0  0  0  0  0  0  0  0  0  0  0
  194.8100   89.9080  -12.0150 C   0  0  0  0  0  0  0  0  0  0  0  0
  193.7170   89.5970  -10.9850 C   0  0  2  0  0  0  0  0  0  0  0  0
  194.3090   88.8090   -9.8900 N   0  0  0  0  0  0  0  0  0  0  0  0
  192.5370   88.8020  -11.6110 C   0  0  2  0  0  0  0  0  0  0  0  0
  192.0910   89.2760  -13.0360 C   0  0  2  0  0  0  0  0  0  0  0  0
  191.5770   88.1030  -13.5920 O   0  0  0  0  0  0  0  0  0  0  0  0
  193.2000   89.8980  -13.9400 C   0  0  1  0  0  0  0  0  0  0  0  0
  192.6250   90.6990  -14.9620 O   0  0  0  0  0  0  0  0  0  0  0  0
  192.7810   90.1200  -16.2340 C   0  0  2  0  0  0  0  0  0  0  0  0
  192.5990   91.1830  -17.3710 C   0  0  2  0  0  0  0  0  0  0  0  0
  193.5170   92.2090  -17.1500 O   0  0  0  0  0  0  0  0  0  0  0  0
  191.1400   91.7280  -17.2190 C   0  0  1  0  0  0  0  0  0  0  0  0
  190.8360   92.9220  -18.0170 N   0  0  0  0  0  0  0  0  0  0  0  0
  190.2770   90.5240  -17.6410 C   0  0  2  0  0  0  0  0  0  0  0  0
  188.9310   90.9070  -17.7960 O   0  0  0  0  0  0  0  0  0  0  0  0
  190.4930   89.3680  -16.5990 C   0  0  2  0  0  0  0  0  0  0  0  0
  191.8580   89.0410  -16.3630 O   0  0  0  0  0  0  0  0  0  0  0  0
  189.8040   88.0790  -17.0740 C   0  0  0  0  0  0  0  0  0  0  0  0
  189.7390   88.2560  -18.4790 O   0  0  0  0  0  0  0  0  0  0  0  0
  190.0925   87.6909  -11.5674 H   0  0  0  0  0  0  0  0  0  0  0  0
  188.7187   87.3016   -9.7289 H   0  0  0  0  0  0  0  0  0  0  0  0
  188.5944   89.8146   -8.8506 H   0  0  0  0  0  0  0  0  0  0  0  0
  189.4345   90.0164  -10.2937 H   0  0  0  0  0  0  0  0  0  0  0  0
  190.6961   88.8050   -7.9214 H   0  0  0  0  0  0  0  0  0  0  0  0
  189.1543   88.0788   -7.4036 H   0  0  0  0  0  0  0  0  0  0  0  0
  189.9641   85.8318   -8.1812 H   0  0  0  0  0  0  0  0  0  0  0  0
  190.4816   86.6918   -6.0274 H   0  0  0  0  0  0  0  0  0  0  0  0
  192.4740   87.5219   -8.8028 H   0  0  0  0  0  0  0  0  0  0  0  0
  192.4292   84.8495   -7.8644 H   0  0  0  0  0  0  0  0  0  0  0  0
  192.7146   84.7185   -9.6232 H   0  0  0  0  0  0  0  0  0  0  0  0
  194.3441   85.9399   -7.5550 H   0  0  0  0  0  0  0  0  0  0  0  0
  194.8005   85.2076   -8.9988 H   0  0  0  0  0  0  0  0  0  0  0  0
  193.8686   91.6538  -12.8687 H   0  0  0  0  0  0  0  0  0  0  0  0
  196.2111   91.4006  -13.5591 H   0  0  0  0  0  0  0  0  0  0  0  0
  195.6619   90.3061  -14.7121 H   0  0  0  0  0  0  0  0  0  0  0  0
  195.2266   88.9569  -12.3780 H   0  0  0  0  0  0  0  0  0  0  0  0
  195.5639   90.5284  -11.5083 H   0  0  0  0  0  0  0  0  0  0  0  0
  193.3154   90.5503  -10.6109 H   0  0  0  0  0  0  0  0  0  0  0  0
  194.0134   89.2024   -8.9852 H   0  0  0  0  0  0  0  0  0  0  0  0
  193.9913   87.8317   -9.9596 H   0  0  0  0  0  0  0  0  0  0  0  0
  192.8753   87.7611  -11.7206 H   0  0  0  0  0  0  0  0  0  0  0  0
  191.3836   90.1149  -12.9593 H   0  0  0  0  0  0  0  0  0  0  0  0
  191.3063   87.4853  -12.8672 H   0  0  0  0  0  0  0  0  0  0  0  0
  193.7130   89.0177  -14.3545 H   0  0  0  0  0  0  0  0  0  0  0  0
  193.8043   89.7300  -16.3376 H   0  0  0  0  0  0  0  0  0  0  0  0
  192.7608   90.7672  -18.3764 H   0  0  0  0  0  0  0  0  0  0  0  0
  193.6356   92.3416  -16.1761 H   0  0  0  0  0  0  0  0  0  0  0  0
  190.9552   92.0826  -16.1943 H   0  0  0  0  0  0  0  0  0  0  0  0
  190.6346   93.7128  -17.3886 H   0  0  0  0  0  0  0  0  0  0  0  0
  191.6450   93.1530  -18.6112 H   0  0  0  0  0  0  0  0  0  0  0  0
  190.5848   90.1450  -18.6267 H   0  0  0  0  0  0  0  0  0  0  0  0
  188.5167   91.0249  -16.9046 H   0  0  0  0  0  0  0  0  0  0  0  0
  190.0603   89.7537  -15.6641 H   0  0  0  0  0  0  0  0  0  0  0  0
  190.4004   87.1921  -16.8137 H   0  0  0  0  0  0  0  0  0  0  0  0
  188.8202   87.9151  -16.6101 H   0  0  0  0  0  0  0  0  0  0  0  0
  189.4050   89.1656  -18.6819 H   0  0  0  0  0  0  0  0  0  0  0  0
  1  2  1  0
  1  3  1  0
  3  4  1  0
  3  5  1  0
  5  6  1  0
  6  7  1  0
  6  8  1  0
  1  9  1  0
  8  9  1  0
  8 10  1  0
 10 11  1  0
 12 13  1  0
 12 14  1  0
 14 15  1  0
 15 16  1  0
  2 17  1  0
 15 17  1  0
 17 18  1  0
 18 19  1  0
 12 20  1  0
 18 20  1  0
 20 21  1  0
 21 22  1  0
 22 23  1  0
 23 24  1  0
 23 25  1  0
 25 26  1  0
 25 27  1  0
 27 28  1  0
 27 29  1  0
 22 30  1  0
 29 30  1  0
 29 31  1  0
 31 32  1  0
  1 33  1  6
  3 34  1  6
  4 35  1  0
  4 36  1  0
  5 37  1  0
  5 38  1  0
  6 39  1  6
  7 40  1  0
  8 41  1  1
 10 42  1  0
 10 43  1  0
 11 44  1  0
 11 45  1  0
 12 46  1  1
 13 47  1  0
 13 48  1  0
 14 49  1  0
 14 50  1  0
 15 51  1  1
 16 52  1  0
 16 53  1  0
 17 54  1  6
 18 55  1  1
 19 56  1  0
 20 57  1  6
 22 58  1  1
 23 59  1  6
 24 60  1  0
 25 61  1  1
 26 62  1  0
 26 63  1  0
 27 64  1  6
 28 65  1  0
 29 66  1  1
 31 67  1  0
 31 68  1  0
 32 69  1  0
M  END
>  <PDBID>  (1) 
4LFC

>  <PDB ID>  (1) 
4LFC

>  <Generic Name>  (1) 
Tobramycin

>  <Brand Name>  (1) 
Act Tobramycin Inhalation Solution#Aj-tobramycin#Apo-tobramycin#Bethkis#Jamp-tobramycin#Kitabis Pak#Nebcin Inj 1.2gm/30ml#Nebcin Inj 10mg/ml#Nebcin Inj 10mg/ml (vantage Vial)#Nebcin Inj 40mg/ml#Nebcin Inj 60mg#Nebcin Inj 80mg#PMS-tobramycin 0.3% Ophthalmic Solution#Sandoz Tobramycin 0.3%#Teva-tobramycin#Tobi#Tobi Podhaler#Tobradex#Tobradex Oph Ointment#Tobradex Oph Sus#Tobradex ST#Tobramycin#Tobramycin In Sodium Chloride#Tobramycin Inhalation Solution#Tobramycin Inhalation Solution Pak#Tobramycin Injection#Tobramycin Injection USP#Tobramycin Injection, USP#Tobramycin Ophthalmic Solution USP 0.3%#Tobramycin Sulfate#Tobramycin and Dexamethasone#Tobramycin for Injection#Tobramycin for Injection U.S.P.#Tobrex#Tobrex 0.3% Ophthalmic Sol#Tobrex Ophthalmic Ont 3mg/gm#Tobrexan#Zylet#Aktob#Alveoterol#Amgy#Bactob#Belbarmicina#Bideon Biotic#Bioptic#Bramitob#Gernebcin#Nebcin#Obracin#Tobracin#Tobramaxin

>  <DrugBank ID>  (1) 
DB00684

>  <ATC Codes>  (1) 
S01AA12#J01GB01

>  <Ligand ID>  (1) 
TOY

>  <Target Name>  (1) 
30S ribosomal protein S12

>  <UniProt ID>  (1) 
P0A7S3

>  <PDB ID.1>  (1) 
4LFC

>  <Seq. Identity>  (1) 
72%

$$$$
