PDB_DB06335_98
     RDKit          3D

 48 52  0  0  0  0  0  0  0  0999 V2000
   66.4430   72.4150   71.0990 C   0  0  1  0  0  0  0  0  0  0  0  0
   65.8870   72.6960   69.6490 C   0  0  1  0  0  0  0  0  0  0  0  0
   67.9470   72.1390   71.0210 C   0  0  0  0  0  0  0  0  0  0  0  0
   68.5590   71.9600   72.4190 C   0  0  1  0  0  0  0  0  0  0  0  0
   66.8160   73.4630   73.4040 C   0  0  2  0  0  0  0  0  0  0  0  0
   66.3870   70.9400   73.2330 C   0  0  1  0  0  0  0  0  0  0  0  0
   68.3050   73.2490   73.2460 C   0  0  0  0  0  0  0  0  0  0  0  0
   67.9120   70.6940   73.0810 C   0  0  0  0  0  0  0  0  0  0  0  0
   66.2290   72.2230   74.1350 C   0  0  0  0  0  0  0  0  0  0  0  0
   68.6380   72.0130   66.1540 C   0  0  1  0  0  0  0  0  0  0  0  0
   68.9990   71.9700   67.6110 C   0  0  0  0  0  0  0  0  0  0  0  0
   67.7240   71.0410   65.4460 C   0  0  0  0  0  0  0  0  0  0  0  0
   67.5180   69.1910   67.0900 C   0  0  0  0  0  0  0  0  0  0  0  0
   67.0210   68.7270   68.2460 N   0  0  0  0  0  0  0  0  0  0  0  0
   66.2290   73.6910   71.9760 C   0  0  0  0  0  0  0  0  0  0  0  0
   65.7800   71.2180   71.8150 C   0  0  0  0  0  0  0  0  0  0  0  0
   65.9280   71.5530   68.6130 C   0  0  0  0  0  0  0  0  0  0  0  0
   64.5150   73.1010   69.6690 N   0  0  0  0  0  0  0  0  0  0  0  0
   66.8880   71.5120   67.6940 N   0  0  0  0  0  0  0  0  0  0  0  0
   65.0540   70.6980   68.6370 O   0  0  0  0  0  0  0  0  0  0  0  0
   69.9580   71.8640   72.2920 O   0  0  0  0  0  0  0  0  0  0  0  0
   67.7520   72.6200   67.1480 C   0  0  2  0  0  0  0  0  0  0  0  0
   66.8640   70.5240   66.5700 C   0  0  1  0  0  0  0  0  0  0  0  0
   66.5965   73.4734   69.3293 H   0  0  0  0  0  0  0  0  0  0  0  0
   68.1123   71.2210   70.4380 H   0  0  0  0  0  0  0  0  0  0  0  0
   68.4319   73.0009   70.5393 H   0  0  0  0  0  0  0  0  0  0  0  0
   66.5602   74.3425   74.0131 H   0  0  0  0  0  0  0  0  0  0  0  0
   65.8734   70.0758   73.6796 H   0  0  0  0  0  0  0  0  0  0  0  0
   68.7676   73.1447   74.2385 H   0  0  0  0  0  0  0  0  0  0  0  0
   68.7455   74.1114   72.7243 H   0  0  0  0  0  0  0  0  0  0  0  0
   68.0838   69.8139   72.4439 H   0  0  0  0  0  0  0  0  0  0  0  0
   68.3638   70.5131   74.0675 H   0  0  0  0  0  0  0  0  0  0  0  0
   66.7666   72.0705   75.0825 H   0  0  0  0  0  0  0  0  0  0  0  0
   65.1610   72.3941   74.3351 H   0  0  0  0  0  0  0  0  0  0  0  0
   69.3266   72.1957   65.3159 H   0  0  0  0  0  0  0  0  0  0  0  0
   68.9555   71.0202   68.1641 H   0  0  0  0  0  0  0  0  0  0  0  0
   69.8665   72.2760   68.2141 H   0  0  0  0  0  0  0  0  0  0  0  0
   67.1170   71.5500   64.6828 H   0  0  0  0  0  0  0  0  0  0  0  0
   68.2615   70.2483   64.9049 H   0  0  0  0  0  0  0  0  0  0  0  0
   66.7373   74.5456   71.5056 H   0  0  0  0  0  0  0  0  0  0  0  0
   65.1514   73.8961   72.0575 H   0  0  0  0  0  0  0  0  0  0  0  0
   64.7063   71.4283   71.9284 H   0  0  0  0  0  0  0  0  0  0  0  0
   65.9606   70.3248   71.1989 H   0  0  0  0  0  0  0  0  0  0  0  0
   64.1988   73.1943   70.6448 H   0  0  0  0  0  0  0  0  0  0  0  0
   64.4173   74.0067   69.1883 H   0  0  0  0  0  0  0  0  0  0  0  0
   70.3699   71.8357   73.1918 H   0  0  0  0  0  0  0  0  0  0  0  0
   67.2216   73.5837   67.1506 H   0  0  0  0  0  0  0  0  0  0  0  0
   65.8320   70.3635   66.2246 H   0  0  0  0  0  0  0  0  0  0  0  0
  1  2  1  0
  1  3  1  6
  3  4  1  0
  4  7  1  0
  5  7  1  0
  4  8  1  0
  6  8  1  0
  5  9  1  0
  6  9  1  0
 10 11  1  0
 10 12  1  0
 13 14  3  0
  1 15  1  0
  5 15  1  0
  1 16  1  0
  6 16  1  0
  2 17  1  0
  2 18  1  0
 17 19  1  0
 17 20  2  0
  4 21  1  6
 10 22  1  0
 11 22  1  0
 19 22  1  0
 12 23  1  0
 13 23  1  0
 19 23  1  0
  2 24  1  6
  3 25  1  0
  3 26  1  0
  5 27  1  1
  6 28  1  1
  7 29  1  0
  7 30  1  0
  8 31  1  0
  8 32  1  0
  9 33  1  0
  9 34  1  0
 10 35  1  6
 11 36  1  0
 11 37  1  0
 12 38  1  0
 12 39  1  0
 15 40  1  0
 15 41  1  0
 16 42  1  0
 16 43  1  0
 18 44  1  0
 18 45  1  0
 21 46  1  0
 22 47  1  6
 23 48  1  6
M  END
$$$$
