PDB_DB01104_98
     RDKit          3D

 49 51  0  0  0  0  0  0  0  0999 V2000
   28.6660  186.0700  145.5990 Cl  0  0  0  0  0  0  0  0  0  0  0  0
   30.3180  186.7360  145.7550 C   0  0  0  0  0  0  0  0  0  0  0  0
   30.6720  187.4680  146.8800 C   0  0  0  0  0  0  0  0  0  0  0  0
   29.4800  187.7480  148.1790 Cl  0  0  0  0  0  0  0  0  0  0  0  0
   31.2530  186.5230  144.7520 C   0  0  0  0  0  0  0  0  0  0  0  0
   32.5340  187.0380  144.8780 C   0  0  0  0  0  0  0  0  0  0  0  0
   32.8840  187.7670  146.0040 C   0  0  0  0  0  0  0  0  0  0  0  0
   31.9520  187.9840  147.0030 C   0  0  0  0  0  0  0  0  0  0  0  0
   34.3250  188.3570  146.1580 C   0  0  1  0  0  0  0  0  0  0  0  0
   35.4020  187.2880  145.6210 C   0  0  0  0  0  0  0  0  0  0  0  0
   35.6620  186.1140  146.3240 C   0  0  0  0  0  0  0  0  0  0  0  0
   36.6040  185.2080  145.8380 C   0  0  0  0  0  0  0  0  0  0  0  0
   37.2930  185.4790  144.6450 C   0  0  0  0  0  0  0  0  0  0  0  0
   37.0380  186.6530  143.9430 C   0  0  0  0  0  0  0  0  0  0  0  0
   36.0960  187.5600  144.4230 C   0  0  0  0  0  0  0  0  0  0  0  0
   35.7960  188.9040  143.6270 C   0  0  1  0  0  0  0  0  0  0  0  0
   35.6220  188.5420  142.1930 N   0  0  0  0  0  0  0  0  0  0  0  0
   34.3850  187.8010  142.0170 C   0  0  0  0  0  0  0  0  0  0  0  0
   34.6140  189.7510  144.0440 C   0  0  0  0  0  0  0  0  0  0  0  0
   34.3170  189.7150  145.5310 C   0  0  0  0  0  0  0  0  0  0  0  0
   29.9924  187.6606  145.2559 H   0  0  0  0  0  0  0  0  0  0  0  0
   30.3456  188.3925  146.3812 H   0  0  0  0  0  0  0  0  0  0  0  0
   31.3581  185.4336  144.6419 H   0  0  0  0  0  0  0  0  0  0  0  0
   30.8394  187.0798  143.8982 H   0  0  0  0  0  0  0  0  0  0  0  0
   33.2253  186.1839  144.8261 H   0  0  0  0  0  0  0  0  0  0  0  0
   32.5856  187.7831  144.0705 H   0  0  0  0  0  0  0  0  0  0  0  0
   32.5637  188.6930  145.5040 H   0  0  0  0  0  0  0  0  0  0  0  0
   31.8464  189.0739  147.1075 H   0  0  0  0  0  0  0  0  0  0  0  0
   32.3661  187.4318  147.8595 H   0  0  0  0  0  0  0  0  0  0  0  0
   34.6397  188.5201  147.1993 H   0  0  0  0  0  0  0  0  0  0  0  0
   36.1937  187.8017  146.1861 H   0  0  0  0  0  0  0  0  0  0  0  0
   35.9960  186.4121  147.3288 H   0  0  0  0  0  0  0  0  0  0  0  0
   34.7148  185.5593  146.2521 H   0  0  0  0  0  0  0  0  0  0  0  0
   37.3649  185.0901  146.6236 H   0  0  0  0  0  0  0  0  0  0  0  0
   35.9968  184.3269  145.5829 H   0  0  0  0  0  0  0  0  0  0  0  0
   38.3649  185.4838  144.8920 H   0  0  0  0  0  0  0  0  0  0  0  0
   36.9332  184.6947  143.9628 H   0  0  0  0  0  0  0  0  0  0  0  0
   37.9929  187.1944  143.8719 H   0  0  0  0  0  0  0  0  0  0  0  0
   36.5894  186.2947  143.0048 H   0  0  0  0  0  0  0  0  0  0  0  0
   36.8824  188.0739  144.9952 H   0  0  0  0  0  0  0  0  0  0  0  0
   36.6594  189.5466  143.8543 H   0  0  0  0  0  0  0  0  0  0  0  0
   35.5894  189.4009  141.6254 H   0  0  0  0  0  0  0  0  0  0  0  0
   33.9650  187.5494  143.0020 H   0  0  0  0  0  0  0  0  0  0  0  0
   33.6651  188.4167  141.4578 H   0  0  0  0  0  0  0  0  0  0  0  0
   34.5882  186.8758  141.4578 H   0  0  0  0  0  0  0  0  0  0  0  0
   34.8186  190.7933  143.7582 H   0  0  0  0  0  0  0  0  0  0  0  0
   33.7319  189.3349  143.5353 H   0  0  0  0  0  0  0  0  0  0  0  0
   33.3210  190.1546  145.6881 H   0  0  0  0  0  0  0  0  0  0  0  0
   35.1310  190.2750  146.0145 H   0  0  0  0  0  0  0  0  0  0  0  0
  1  2  1  0
  2  3  1  0
  3  4  1  0
  2  5  1  0
  5  6  1  0
  6  7  1  0
  3  8  1  0
  7  8  1  0
  7  9  1  0
  9 10  1  0
 10 11  1  0
 11 12  1  0
 12 13  1  0
 13 14  1  0
 10 15  1  0
 14 15  1  0
 15 16  1  0
 16 17  1  0
 17 18  1  0
 16 19  1  0
  9 20  1  0
 19 20  1  0
  2 21  1  0
  3 22  1  0
  5 23  1  0
  5 24  1  0
  6 25  1  0
  6 26  1  0
  7 27  1  0
  8 28  1  0
  8 29  1  0
  9 30  1  1
 10 31  1  0
 11 32  1  0
 11 33  1  0
 12 34  1  0
 12 35  1  0
 13 36  1  0
 13 37  1  0
 14 38  1  0
 14 39  1  0
 15 40  1  0
 16 41  1  6
 17 42  1  0
 18 43  1  0
 18 44  1  0
 18 45  1  0
 19 46  1  0
 19 47  1  0
 20 48  1  0
 20 49  1  0
M  END
>  <PDBID>  (1) 
6AWQ

>  <PDB ID>  (1) 
6AWQ

>  <Generic Name>  (1) 
Sertraline

>  <Brand Name>  (1) 
Act Sertraline#Apo-sertraline#Auro-sertraline#Bio-sertraline#Dom-sertraline#Gd-sertraline#Ipg-sertraline#Jamp-sertraline#Mar-sertraline#Mint-sertraline#Mylan-sertraline#Nu-sertraline Capsules#PHL-sertraline#PMS-sertraline#Priva-sertraline#Q-sertraline#Ran-sertraline#Ratio-sertraline#Riva-sertraline#Sandoz Sertraline#Sertraline#Sertraline Hydrochloride#Sertraline Hydrochloride Tablets#Sertraline-100#Sertraline-25#Sertraline-50#Teva-sertraline#Van-sertraline#Zoloft#Zoloft Cap 100mg#Zoloft Cap 50mg#Lustral

>  <DrugBank ID>  (1) 
DB01104

>  <ATC Codes>  (1) 
N06AB06

>  <Ligand ID>  (1) 
SRE

>  <Target Name>  (1) 
Sodium-dependent serotonin transporter

>  <UniProt ID>  (1) 
P31645

>  <PDB ID.1>  (1) 
6AWQ

>  <Seq. Identity>  (1) 
99%

$$$$
