PDB_DB00558_87
     RDKit          3D

 43 43  0  0  0  0  0  0  0  0999 V2000
   36.7260   11.0310  118.1230 C   0  0  0  0  0  0  0  0  0  0  0  0
   35.8050   11.0980  118.9610 O   0  0  0  0  0  0  0  0  0  0  0  0
   37.7680   10.3530  118.2940 O   0  0  0  0  0  0  0  0  0  0  0  0
   36.5450   11.7680  116.8860 C   0  0  0  0  0  0  0  0  0  0  0  0
   37.4960   12.5790  116.4070 C   0  0  0  0  0  0  0  0  0  0  0  0
   37.6290   12.5450  114.9060 C   0  0  1  0  0  0  0  0  0  0  0  0
   36.2870   12.9810  114.2930 C   0  0  1  0  0  0  0  0  0  0  0  0
   36.2820   12.2970  113.0050 N   0  0  0  0  0  0  0  0  0  0  0  0
   36.7900   12.7510  111.8600 C   0  0  0  0  0  0  0  0  0  0  0  0
   37.3330   13.8310  111.7510 O   0  0  0  0  0  0  0  0  0  0  0  0
   36.6380   11.8300  110.6870 C   0  0  0  0  0  0  0  0  0  0  0  0
   35.0460   12.3420  114.9620 C   0  0  1  0  0  0  0  0  0  0  0  0
   35.2930   11.5840  116.1660 O   0  0  0  0  0  0  0  0  0  0  0  0
   33.8680   13.2810  115.1930 C   0  0  0  0  0  0  0  0  0  0  0  0
   33.3610   13.8420  114.2310 O   0  0  0  0  0  0  0  0  0  0  0  0
   33.3220   13.5100  116.4120 C   0  0  0  0  0  0  0  0  0  0  0  0
   33.7840   12.9450  117.5400 O   0  0  0  0  0  0  0  0  0  0  0  0
   32.1420   14.4560  116.5280 C   0  0  0  0  0  0  0  0  0  0  0  0
   30.9850   13.8490  115.9060 O   0  0  0  0  0  0  0  0  0  0  0  0
   38.7190   13.3640  114.3490 N   0  0  0  0  0  0  0  0  0  0  0  0
   40.0090   13.3940  114.7440 C   0  0  0  0  0  0  0  0  0  0  0  0
   40.8480   14.2050  114.1050 N   0  0  0  0  0  0  0  0  0  0  0  0
   40.4820   12.6530  115.7510 N   0  0  0  0  0  0  0  0  0  0  0  0
   35.0043   11.6492  118.7735 H   0  0  0  0  0  0  0  0  0  0  0  0
   38.1237   13.2129  117.0505 H   0  0  0  0  0  0  0  0  0  0  0  0
   37.8936   11.5102  114.6429 H   0  0  0  0  0  0  0  0  0  0  0  0
   36.2238   14.0781  114.3425 H   0  0  0  0  0  0  0  0  0  0  0  0
   35.8402   11.3670  112.9777 H   0  0  0  0  0  0  0  0  0  0  0  0
   36.4687   10.8041  111.0459 H   0  0  0  0  0  0  0  0  0  0  0  0
   35.7807   12.1513  110.0772 H   0  0  0  0  0  0  0  0  0  0  0  0
   37.5530   11.8588  110.0772 H   0  0  0  0  0  0  0  0  0  0  0  0
   34.7622   11.6262  114.1764 H   0  0  0  0  0  0  0  0  0  0  0  0
   34.5641   14.1236  115.3175 H   0  0  0  0  0  0  0  0  0  0  0  0
   32.7322   14.5377  114.5484 H   0  0  0  0  0  0  0  0  0  0  0  0
   32.6393   12.6600  116.2659 H   0  0  0  0  0  0  0  0  0  0  0  0
   33.4014   13.4129  118.3241 H   0  0  0  0  0  0  0  0  0  0  0  0
   31.9295   14.6513  117.5895 H   0  0  0  0  0  0  0  0  0  0  0  0
   32.3776   15.4054  116.0249 H   0  0  0  0  0  0  0  0  0  0  0  0
   30.3659   13.5242  116.6069 H   0  0  0  0  0  0  0  0  0  0  0  0
   41.8379   14.2473  114.3863 H   0  0  0  0  0  0  0  0  0  0  0  0
   40.5076   14.7906  113.3290 H   0  0  0  0  0  0  0  0  0  0  0  0
   41.4765   12.7138  116.0123 H   0  0  0  0  0  0  0  0  0  0  0  0
   39.8520   12.0212  116.2656 H   0  0  0  0  0  0  0  0  0  0  0  0
  1  2  1  0
  1  3  2  0
  1  4  1  0
  4  5  2  0
  5  6  1  0
  6  7  1  0
  7  8  1  0
  8  9  1  0
  9 10  2  0
  9 11  1  0
  7 12  1  0
  4 13  1  0
 12 13  1  0
 12 14  1  0
 14 15  1  0
 14 16  1  0
 16 17  1  0
 16 18  1  0
 18 19  1  0
  6 20  1  0
 20 21  2  3
 21 22  1  0
 21 23  1  0
  2 24  1  0
  5 25  1  0
  6 26  1  6
  7 27  1  6
  8 28  1  0
 11 29  1  0
 11 30  1  0
 11 31  1  0
 12 32  1  6
 14 33  1  0
 15 34  1  0
 16 35  1  0
 17 36  1  0
 18 37  1  0
 18 38  1  0
 19 39  1  0
 22 40  1  0
 22 41  1  0
 23 42  1  0
 23 43  1  0
M  END
$$$$
