PDB_DB00293_91
     RDKit          3D

 54 56  0  0  0  0  0  0  0  0999 V2000
   43.7930   69.1130   47.6330 N   0  0  0  0  0  0  0  0  0  0  0  0
   45.0400   69.5250   48.2320 C   0  0  0  0  0  0  0  0  0  0  0  0
   46.1700   70.1390   47.4400 C   0  0  0  0  0  0  0  0  0  0  0  0
   45.2290   69.3510   49.6370 N   0  0  0  0  0  0  0  0  0  0  0  0
   44.2520   68.7850   50.4600 C   0  0  0  0  0  0  0  0  0  0  0  0
   44.4160   68.6310   51.6420 O   0  0  0  0  0  0  0  0  0  0  0  0
   42.9660   68.3580   49.8790 C   0  0  0  0  0  0  0  0  0  0  0  0
   41.9920   67.7950   50.7350 C   0  0  0  0  0  0  0  0  0  0  0  0
   40.7940   67.4110   50.1570 C   0  0  0  0  0  0  0  0  0  0  0  0
   40.5830   67.5850   48.7780 C   0  0  0  0  0  0  0  0  0  0  0  0
   41.5620   68.1420   47.9500 C   0  0  0  0  0  0  0  0  0  0  0  0
   42.7750   68.5360   48.5070 C   0  0  0  0  0  0  0  0  0  0  0  0
   39.7100   66.7610   51.0020 C   0  0  0  0  0  0  0  0  0  0  0  0
   39.1370   65.6590   50.2260 N   0  0  0  0  0  0  0  0  0  0  0  0
   41.0270   62.6840   48.3620 C   0  0  0  0  0  0  0  0  0  0  0  0
   39.5180   63.4870   48.4490 S   0  0  0  0  0  0  0  0  0  0  0  0
   39.9690   64.6160   49.6690 C   0  0  0  0  0  0  0  0  0  0  0  0
   41.2810   64.3320   50.0050 C   0  0  0  0  0  0  0  0  0  0  0  0
   41.8290   63.2650   49.3020 C   0  0  0  0  0  0  0  0  0  0  0  0
   41.2780   61.4740   47.5140 C   0  0  0  0  0  0  0  0  0  0  0  0
   40.7250   61.3990   46.4430 O   0  0  0  0  0  0  0  0  0  0  0  0
   42.0780   60.4160   48.1500 N   0  0  0  0  0  0  0  0  0  0  0  0
   42.3360   59.0910   47.5810 C   0  0  1  0  0  0  0  0  0  0  0  0
   43.5220   59.0300   46.6190 C   0  0  0  0  0  0  0  0  0  0  0  0
   43.4270   59.8650   45.3060 C   0  0  0  0  0  0  0  0  0  0  0  0
   42.1990   59.6990   44.4190 C   0  0  0  0  0  0  0  0  0  0  0  0
   41.2290   58.9580   44.7340 O   0  0  0  0  0  0  0  0  0  0  0  0
   42.1330   60.3400   43.3310 O   0  0  0  0  0  0  0  0  0  0  0  0
   42.4330   58.0820   48.7300 C   0  0  0  0  0  0  0  0  0  0  0  0
   42.7940   56.8990   48.5380 O   0  0  0  0  0  0  0  0  0  0  0  0
   42.1220   58.3460   49.9330 O   0  0  0  0  0  0  0  0  0  0  0  0
   37.7220   65.5960   49.9820 C   0  0  0  0  0  0  0  0  0  0  0  0
   43.6266   69.2223   46.6224 H   0  0  0  0  0  0  0  0  0  0  0  0
   46.9222   70.5477   48.1308 H   0  0  0  0  0  0  0  0  0  0  0  0
   46.6342   69.3691   46.8062 H   0  0  0  0  0  0  0  0  0  0  0  0
   45.7766   70.9474   46.8062 H   0  0  0  0  0  0  0  0  0  0  0  0
   42.1776   67.6678   51.8117 H   0  0  0  0  0  0  0  0  0  0  0  0
   39.6231   67.2750   48.3393 H   0  0  0  0  0  0  0  0  0  0  0  0
   41.3762   68.2671   46.8731 H   0  0  0  0  0  0  0  0  0  0  0  0
   40.1448   66.3746   51.9356 H   0  0  0  0  0  0  0  0  0  0  0  0
   38.9319   67.4948   51.2591 H   0  0  0  0  0  0  0  0  0  0  0  0
   41.8412   64.9006   50.7619 H   0  0  0  0  0  0  0  0  0  0  0  0
   42.8521   62.9086   49.4925 H   0  0  0  0  0  0  0  0  0  0  0  0
   42.4905   60.6238   49.0706 H   0  0  0  0  0  0  0  0  0  0  0  0
   41.4887   58.8277   46.9308 H   0  0  0  0  0  0  0  0  0  0  0  0
   44.4095   59.3783   47.1676 H   0  0  0  0  0  0  0  0  0  0  0  0
   43.5573   57.9830   46.2835 H   0  0  0  0  0  0  0  0  0  0  0  0
   43.4780   60.9257   45.5928 H   0  0  0  0  0  0  0  0  0  0  0  0
   44.2549   59.4861   44.6887 H   0  0  0  0  0  0  0  0  0  0  0  0
   40.4499   58.8784   44.1284 H   0  0  0  0  0  0  0  0  0  0  0  0
   42.8478   56.2682   49.2991 H   0  0  0  0  0  0  0  0  0  0  0  0
   37.1851   65.5721   50.9418 H   0  0  0  0  0  0  0  0  0  0  0  0
   37.4090   66.4811   49.4087 H   0  0  0  0  0  0  0  0  0  0  0  0
   37.4889   64.6866   49.4087 H   0  0  0  0  0  0  0  0  0  0  0  0
  1  2  1  0
  2  3  1  0
  2  4  2  0
  4  5  1  0
  5  6  2  0
  5  7  1  0
  7  8  1  0
  8  9  2  0
  9 10  1  0
 10 11  2  0
  1 12  1  0
  7 12  2  0
 11 12  1  0
  9 13  1  0
 13 14  1  0
 15 16  1  0
 14 17  1  0
 16 17  1  0
 17 18  2  0
 15 19  2  0
 18 19  1  0
 15 20  1  0
 20 21  2  0
 20 22  1  0
 22 23  1  0
 23 24  1  0
 24 25  1  0
 25 26  1  0
 26 27  1  0
 26 28  2  0
 23 29  1  0
 29 30  1  0
 29 31  2  0
 14 32  1  0
  1 33  1  0
  3 34  1  0
  3 35  1  0
  3 36  1  0
  8 37  1  0
 10 38  1  0
 11 39  1  0
 13 40  1  0
 13 41  1  0
 18 42  1  0
 19 43  1  0
 22 44  1  0
 23 45  1  6
 24 46  1  0
 24 47  1  0
 25 48  1  0
 25 49  1  0
 27 50  1  0
 30 51  1  0
 32 52  1  0
 32 53  1  0
 32 54  1  0
M  END
$$$$
