PDB_DB00586_97
     RDKit          3D

 30 31  0  0  0  0  0  0  0  0999 V2000
   70.5420   13.9760    9.0020 C   0  0  0  0  0  0  0  0  0  0  0  0
   70.6760   14.8590    7.8920 C   0  0  0  0  0  0  0  0  0  0  0  0
   72.2650   15.5600    7.6470 Cl  0  0  0  0  0  0  0  0  0  0  0  0
   69.5450   15.2500    7.1600 C   0  0  0  0  0  0  0  0  0  0  0  0
   68.2740   14.7470    7.5870 C   0  0  0  0  0  0  0  0  0  0  0  0
   66.8090   15.1730    6.7550 Cl  0  0  0  0  0  0  0  0  0  0  0  0
   68.1500   13.8900    8.6880 C   0  0  0  0  0  0  0  0  0  0  0  0
   69.2780   13.5050    9.3980 C   0  0  0  0  0  0  0  0  0  0  0  0
   69.5260   16.1240    6.0180 N   0  0  0  0  0  0  0  0  0  0  0  0
   70.0960   18.2480    4.9120 C   0  0  0  0  0  0  0  0  0  0  0  0
   70.0440   17.4320    6.0480 C   0  0  0  0  0  0  0  0  0  0  0  0
   70.4300   17.9480    7.2980 C   0  0  0  0  0  0  0  0  0  0  0  0
   70.8960   19.2390    7.4230 C   0  0  0  0  0  0  0  0  0  0  0  0
   70.9800   20.0370    6.3040 C   0  0  0  0  0  0  0  0  0  0  0  0
   70.5920   19.5440    5.0610 C   0  0  0  0  0  0  0  0  0  0  0  0
   69.5550   17.8410    3.5660 C   0  0  0  0  0  0  0  0  0  0  0  0
   68.0650   17.6440    3.5270 C   0  0  0  0  0  0  0  0  0  0  0  0
   67.2900   18.4270    2.9920 O   0  0  0  0  0  0  0  0  0  0  0  0
   67.6380   16.5110    4.1340 O   0  0  0  0  0  0  0  0  0  0  0  0
   71.4381   13.6591    9.5557 H   0  0  0  0  0  0  0  0  0  0  0  0
   67.1582   13.5222    8.9897 H   0  0  0  0  0  0  0  0  0  0  0  0
   69.1839   12.8353   10.2655 H   0  0  0  0  0  0  0  0  0  0  0  0
   69.1151   15.7772    5.1395 H   0  0  0  0  0  0  0  0  0  0  0  0
   70.3588   17.3102    8.1914 H   0  0  0  0  0  0  0  0  0  0  0  0
   71.1978   19.6280    8.4067 H   0  0  0  0  0  0  0  0  0  0  0  0
   71.3549   21.0674    6.3924 H   0  0  0  0  0  0  0  0  0  0  0  0
   70.6784   20.1911    4.1757 H   0  0  0  0  0  0  0  0  0  0  0  0
   69.8173   18.6239    2.8392 H   0  0  0  0  0  0  0  0  0  0  0  0
   70.0060   16.8660    3.3292 H   0  0  0  0  0  0  0  0  0  0  0  0
   66.3173   18.2430    2.9987 H   0  0  0  0  0  0  0  0  0  0  0  0
  1  2  2  0
  2  3  1  0
  2  4  1  0
  4  5  2  0
  5  6  1  0
  5  7  1  0
  1  8  1  0
  7  8  2  0
  4  9  1  0
  9 11  1  0
 10 11  2  0
 11 12  1  0
 12 13  2  0
 13 14  1  0
 10 15  1  0
 14 15  2  0
 10 16  1  0
 16 17  1  0
 17 18  1  0
 17 19  2  0
  1 20  1  0
  7 21  1  0
  8 22  1  0
  9 23  1  0
 12 24  1  0
 13 25  1  0
 14 26  1  0
 15 27  1  0
 16 28  1  0
 16 29  1  0
 18 30  1  0
M  END
$$$$
