PDB_DB00712_97
     RDKit          3D

 31 32  0  0  0  0  0  0  0  0999 V2000
   21.1880  -17.5930  -55.5490 C   0  0  0  0  0  0  0  0  0  0  0  0
   20.8870  -18.7930  -56.1830 C   0  0  0  0  0  0  0  0  0  0  0  0
   20.0720  -19.7160  -55.5480 C   0  0  0  0  0  0  0  0  0  0  0  0
   19.5470  -19.4390  -54.2960 C   0  0  0  0  0  0  0  0  0  0  0  0
   19.8560  -18.2450  -53.6680 C   0  0  0  0  0  0  0  0  0  0  0  0
   20.6560  -17.3070  -54.3000 C   0  0  0  0  0  0  0  0  0  0  0  0
   21.0200  -16.0490  -53.5790 C   0  0  0  0  0  0  0  0  0  0  0  0
   20.1320  -15.3230  -52.7870 C   0  0  0  0  0  0  0  0  0  0  0  0
   20.5690  -14.1840  -52.1100 C   0  0  0  0  0  0  0  0  0  0  0  0
   18.8690  -15.7050  -52.6930 F   0  0  0  0  0  0  0  0  0  0  0  0
   22.3480  -15.6540  -53.6550 C   0  0  0  0  0  0  0  0  0  0  0  0
   22.7830  -14.5270  -52.9830 C   0  0  0  0  0  0  0  0  0  0  0  0
   21.9030  -13.7870  -52.2140 C   0  0  0  0  0  0  0  0  0  0  0  0
   22.4490  -12.5870  -51.5050 C   0  0  1  0  0  0  0  0  0  0  0  0
   22.1150  -11.3130  -52.2170 C   0  0  0  0  0  0  0  0  0  0  0  0
   22.0460  -12.6070  -50.0440 C   0  0  0  0  0  0  0  0  0  0  0  0
   20.8530  -12.4120  -49.6540 O   0  0  0  0  0  0  0  0  0  0  0  0
   22.9310  -12.8430  -49.1710 O   0  0  0  0  0  0  0  0  0  0  0  0
   21.8516  -16.8662  -56.0403 H   0  0  0  0  0  0  0  0  0  0  0  0
   21.2933  -19.0083  -57.1823 H   0  0  0  0  0  0  0  0  0  0  0  0
   19.8408  -20.6725  -56.0397 H   0  0  0  0  0  0  0  0  0  0  0  0
   18.8860  -20.1665  -53.8022 H   0  0  0  0  0  0  0  0  0  0  0  0
   19.4640  -18.0396  -52.6610 H   0  0  0  0  0  0  0  0  0  0  0  0
   19.8654  -13.6016  -51.4971 H   0  0  0  0  0  0  0  0  0  0  0  0
   23.0593  -16.2416  -54.2540 H   0  0  0  0  0  0  0  0  0  0  0  0
   23.8355  -14.2167  -53.0603 H   0  0  0  0  0  0  0  0  0  0  0  0
   23.5479  -12.6335  -51.5239 H   0  0  0  0  0  0  0  0  0  0  0  0
   21.9081  -10.5239  -51.4791 H   0  0  0  0  0  0  0  0  0  0  0  0
   22.9645  -11.0118  -52.8475 H   0  0  0  0  0  0  0  0  0  0  0  0
   21.2270  -11.4673  -52.8475 H   0  0  0  0  0  0  0  0  0  0  0  0
   20.6381  -12.4347  -48.6879 H   0  0  0  0  0  0  0  0  0  0  0  0
  1  2  2  0
  2  3  1  0
  3  4  2  0
  4  5  1  0
  1  6  1  0
  5  6  2  0
  6  7  1  0
  7  8  2  0
  8  9  1  0
  8 10  1  0
  7 11  1  0
 11 12  2  0
  9 13  2  0
 12 13  1  0
 13 14  1  0
 14 15  1  0
 14 16  1  0
 16 17  1  0
 16 18  2  0
  1 19  1  0
  2 20  1  0
  3 21  1  0
  4 22  1  0
  5 23  1  0
  9 24  1  0
 11 25  1  0
 12 26  1  0
 14 27  1  1
 15 28  1  0
 15 29  1  0
 15 30  1  0
 17 31  1  0
M  END
$$$$
