PDB_DB01336_93
     RDKit          3D

 96102  0  0  0  0  0  0  0  0999 V2000
  -30.0420  -76.5340   66.0890 N   0  0  0  0  0  0  0  0  0  0  0  0
  -31.2880  -75.7540   66.0010 C   0  0  0  0  0  0  0  0  0  0  0  0
  -32.6070  -76.5130   65.9760 C   0  0  0  0  0  0  0  0  0  0  0  0
  -32.5250  -77.6460   66.9550 C   0  0  0  0  0  0  0  0  0  0  0  0
  -31.3350  -77.9370   67.6030 C   0  0  0  0  0  0  0  0  0  0  0  0
  -30.0310  -77.1580   67.4110 C   0  0  2  0  0  0  0  0  0  0  0  0
  -33.6950  -78.3570   67.1770 C   0  0  0  0  0  0  0  0  0  0  0  0
  -33.7230  -79.4250   68.0500 C   0  0  0  0  0  0  0  0  0  0  0  0
  -32.5340  -79.7650   68.7130 C   0  0  0  0  0  0  0  0  0  0  0  0
  -31.3630  -79.0360   68.4670 C   0  0  0  0  0  0  0  0  0  0  0  0
  -32.5030  -80.8200   69.5860 O   0  0  0  0  0  0  0  0  0  0  0  0
  -31.3300  -81.4730   69.7600 C   0  0  0  0  0  0  0  0  0  0  0  0
  -30.8940  -82.3360   68.7600 C   0  0  0  0  0  0  0  0  0  0  0  0
  -29.6440  -82.9800   68.8980 C   0  0  0  0  0  0  0  0  0  0  0  0
  -28.9080  -82.7500   70.0570 C   0  0  0  0  0  0  0  0  0  0  0  0
  -29.3710  -81.8690   71.0530 C   0  0  0  0  0  0  0  0  0  0  0  0
  -30.5860  -81.1900   70.8880 C   0  0  0  0  0  0  0  0  0  0  0  0
  -28.4800  -81.5950   72.2750 C   0  0  0  0  0  0  0  0  0  0  0  0
  -29.1310  -81.5560   73.6670 C   0  0  1  0  0  0  0  0  0  0  0  0
  -29.1280  -82.9310   74.2300 N   0  0  0  0  0  0  0  0  0  0  0  0
  -27.7230  -83.3790   74.5030 C   0  0  0  0  0  0  0  0  0  0  0  0
  -27.0550  -82.4720   75.5830 C   0  0  0  0  0  0  0  0  0  0  0  0
  -27.3700  -80.9790   75.4040 C   0  0  0  0  0  0  0  0  0  0  0  0
  -28.3570  -80.5670   74.5090 C   0  0  0  0  0  0  0  0  0  0  0  0
  -26.6740  -79.9980   76.1450 C   0  0  0  0  0  0  0  0  0  0  0  0
  -26.9790  -78.6050   76.0080 C   0  0  0  0  0  0  0  0  0  0  0  0
  -27.9860  -78.2260   75.1330 C   0  0  0  0  0  0  0  0  0  0  0  0
  -28.6100  -79.1990   74.3860 C   0  0  0  0  0  0  0  0  0  0  0  0
  -29.5850  -78.7740   73.5550 O   0  0  0  0  0  0  0  0  0  0  0  0
  -29.4740  -78.1590   72.3540 C   0  0  0  0  0  0  0  0  0  0  0  0
  -30.6290  -77.4790   71.9590 C   0  0  0  0  0  0  0  0  0  0  0  0
  -30.6820  -76.8250   70.7440 C   0  0  0  0  0  0  0  0  0  0  0  0
  -29.5690  -76.8580   69.9030 C   0  0  0  0  0  0  0  0  0  0  0  0
  -28.4050  -77.5280   70.3230 C   0  0  0  0  0  0  0  0  0  0  0  0
  -28.3280  -78.1790   71.5630 C   0  0  0  0  0  0  0  0  0  0  0  0
  -29.6750  -76.1600   68.5610 C   0  0  0  0  0  0  0  0  0  0  0  0
  -34.8670  -80.1450   68.2690 O   0  0  0  0  0  0  0  0  0  0  0  0
  -36.0410  -80.2550   67.4030 C   0  0  0  0  0  0  0  0  0  0  0  0
  -31.7260  -82.4700   67.6580 O   0  0  0  0  0  0  0  0  0  0  0  0
  -26.3260  -77.5960   76.7110 O   0  0  0  0  0  0  0  0  0  0  0  0
  -25.4690  -77.8920   77.8330 C   0  0  0  0  0  0  0  0  0  0  0  0
  -28.2620  -76.8910   74.9250 O   0  0  0  0  0  0  0  0  0  0  0  0
  -30.0140  -77.5280   64.9850 C   0  0  0  0  0  0  0  0  0  0  0  0
  -29.8890  -82.9490   75.5010 C   0  0  0  0  0  0  0  0  0  0  0  0
  -29.7190  -83.9380   73.3110 C   0  0  0  0  0  0  0  0  0  0  0  0
  -29.4550  -76.1720   75.1640 C   0  0  0  0  0  0  0  0  0  0  0  0
  -28.8630  -75.6460   65.9080 C   0  0  0  0  0  0  0  0  0  0  0  0
  -31.7270  -83.5330   66.6920 C   0  0  0  0  0  0  0  0  0  0  0  0
  -31.3145  -75.0810   66.8707 H   0  0  0  0  0  0  0  0  0  0  0  0
  -31.2354  -75.2630   65.0181 H   0  0  0  0  0  0  0  0  0  0  0  0
  -33.4285  -75.8380   66.2581 H   0  0  0  0  0  0  0  0  0  0  0  0
  -32.7976  -76.9026   64.9651 H   0  0  0  0  0  0  0  0  0  0  0  0
  -29.2066  -77.8841   67.4677 H   0  0  0  0  0  0  0  0  0  0  0  0
  -34.6147  -78.0649   66.6489 H   0  0  0  0  0  0  0  0  0  0  0  0
  -30.4334  -79.3388   68.9711 H   0  0  0  0  0  0  0  0  0  0  0  0
  -29.2623  -83.6459   68.1100 H   0  0  0  0  0  0  0  0  0  0  0  0
  -27.9468  -83.2661   70.1973 H   0  0  0  0  0  0  0  0  0  0  0  0
  -30.9344  -80.4575   71.6310 H   0  0  0  0  0  0  0  0  0  0  0  0
  -27.7113  -82.3815   72.2986 H   0  0  0  0  0  0  0  0  0  0  0  0
  -28.1196  -80.5675   72.1189 H   0  0  0  0  0  0  0  0  0  0  0  0
  -30.1792  -81.2242   73.6332 H   0  0  0  0  0  0  0  0  0  0  0  0
  -27.7389  -84.4181   74.8637 H   0  0  0  0  0  0  0  0  0  0  0  0
  -27.1416  -83.3071   73.5720 H   0  0  0  0  0  0  0  0  0  0  0  0
  -27.4133  -82.7878   76.5739 H   0  0  0  0  0  0  0  0  0  0  0  0
  -25.9663  -82.5895   75.4782 H   0  0  0  0  0  0  0  0  0  0  0  0
  -25.8817  -80.3101   76.8413 H   0  0  0  0  0  0  0  0  0  0  0  0
  -31.5057  -77.4645   72.6232 H   0  0  0  0  0  0  0  0  0  0  0  0
  -31.5912  -76.2842   70.4425 H   0  0  0  0  0  0  0  0  0  0  0  0
  -27.5286  -77.5416   69.6584 H   0  0  0  0  0  0  0  0  0  0  0  0
  -27.4071  -78.6810   71.8946 H   0  0  0  0  0  0  0  0  0  0  0  0
  -28.7111  -75.6823   68.3315 H   0  0  0  0  0  0  0  0  0  0  0  0
  -30.4813  -75.4147   68.6272 H   0  0  0  0  0  0  0  0  0  0  0  0
  -36.9465  -80.3398   68.0218 H   0  0  0  0  0  0  0  0  0  0  0  0
  -36.1134  -79.3597   66.7680 H   0  0  0  0  0  0  0  0  0  0  0  0
  -35.9458  -81.1482   66.7680 H   0  0  0  0  0  0  0  0  0  0  0  0
  -26.0136  -77.7039   78.7700 H   0  0  0  0  0  0  0  0  0  0  0  0
  -25.1632  -78.9478   77.7923 H   0  0  0  0  0  0  0  0  0  0  0  0
  -24.5767  -77.2500   77.7923 H   0  0  0  0  0  0  0  0  0  0  0  0
  -29.9854  -78.5436   65.4066 H   0  0  0  0  0  0  0  0  0  0  0  0
  -30.9157  -77.4134   64.3655 H   0  0  0  0  0  0  0  0  0  0  0  0
  -29.1202  -77.3629   64.3655 H   0  0  0  0  0  0  0  0  0  0  0  0
  -29.1879  -82.9324   76.3484 H   0  0  0  0  0  0  0  0  0  0  0  0
  -30.5433  -82.0661   75.5491 H   0  0  0  0  0  0  0  0  0  0  0  0
  -30.5008  -83.8619   75.5491 H   0  0  0  0  0  0  0  0  0  0  0  0
  -30.1895  -84.7397   73.8992 H   0  0  0  0  0  0  0  0  0  0  0  0
  -30.4771  -83.4553   72.6767 H   0  0  0  0  0  0  0  0  0  0  0  0
  -28.9279  -84.3645   72.6767 H   0  0  0  0  0  0  0  0  0  0  0  0
  -29.6143  -76.0760   76.2482 H   0  0  0  0  0  0  0  0  0  0  0  0
  -29.3760  -75.1710   74.7149 H   0  0  0  0  0  0  0  0  0  0  0  0
  -30.3032  -76.7094   74.7149 H   0  0  0  0  0  0  0  0  0  0  0  0
  -28.4715  -75.3511   66.8928 H   0  0  0  0  0  0  0  0  0  0  0  0
  -28.0824  -76.1824   65.3487 H   0  0  0  0  0  0  0  0  0  0  0  0
  -29.1631  -74.7476   65.3487 H   0  0  0  0  0  0  0  0  0  0  0  0
  -31.7279  -84.5018   67.2129 H   0  0  0  0  0  0  0  0  0  0  0  0
  -32.6251  -83.4548   66.0616 H   0  0  0  0  0  0  0  0  0  0  0  0
  -30.8288  -83.4565   66.0616 H   0  0  0  0  0  0  0  0  0  0  0  0
  1  2  1  0
  2  3  1  0
  3  4  1  0
  4  5  2  0
  1  6  1  0
  5  6  1  0
  4  7  1  0
  7  8  2  0
  8  9  1  0
  5 10  1  0
  9 10  2  0
  9 11  1  0
 11 12  1  0
 12 13  2  0
 13 14  1  0
 14 15  2  0
 15 16  1  0
 12 17  1  0
 16 17  2  0
 16 18  1  0
 18 19  1  0
 19 20  1  0
 20 21  1  0
 21 22  1  0
 22 23  1  0
 19 24  1  0
 23 24  2  0
 23 25  1  0
 25 26  2  0
 26 27  1  0
 24 28  1  0
 27 28  2  0
 28 29  1  0
 29 30  1  0
 30 31  2  0
 31 32  1  0
 32 33  2  0
 33 34  1  0
 30 35  1  0
 34 35  2  0
  6 36  1  0
 33 36  1  0
  8 37  1  0
 37 38  1  0
 13 39  1  0
 26 40  1  0
 40 41  1  0
 27 42  1  0
  1 43  1  0
 20 44  1  0
 20 45  1  0
 42 46  1  0
  1 47  1  0
 39 48  1  0
  2 49  1  0
  2 50  1  0
  3 51  1  0
  3 52  1  0
  6 53  1  6
  7 54  1  0
 10 55  1  0
 14 56  1  0
 15 57  1  0
 17 58  1  0
 18 59  1  0
 18 60  1  0
 19 61  1  6
 21 62  1  0
 21 63  1  0
 22 64  1  0
 22 65  1  0
 25 66  1  0
 31 67  1  0
 32 68  1  0
 34 69  1  0
 35 70  1  0
 36 71  1  0
 36 72  1  0
 38 73  1  0
 38 74  1  0
 38 75  1  0
 41 76  1  0
 41 77  1  0
 41 78  1  0
 43 79  1  0
 43 80  1  0
 43 81  1  0
 44 82  1  0
 44 83  1  0
 44 84  1  0
 45 85  1  0
 45 86  1  0
 45 87  1  0
 46 88  1  0
 46 89  1  0
 46 90  1  0
 47 91  1  0
 47 92  1  0
 47 93  1  0
 48 94  1  0
 48 95  1  0
 48 96  1  0
M  CHG  2   1   1  20   1
M  END
$$$$
