PDB_DB00866_99
     RDKit          3D

 49 49  0  0  0  0  0  0  0  0999 V2000
   -0.9370    7.9820  -53.7090 C   0  0  0  0  0  0  0  0  0  0  0  0
   -3.0240    7.8390  -52.3830 N   0  0  0  0  0  0  0  0  0  0  0  0
   -3.3150    7.8020  -49.6760 O   0  0  0  0  0  0  0  0  0  0  0  0
   -2.4620    7.8820  -53.7500 C   0  0  1  0  0  0  0  0  0  0  0  0
   -2.6700    4.2320  -50.0970 O   0  0  0  0  0  0  0  0  0  0  0  0
   -3.0700    9.0670  -54.4940 C   0  0  0  0  0  0  0  0  0  0  0  0
   -2.5600    6.6430  -51.6660 C   0  0  0  0  0  0  0  0  0  0  0  0
   -3.2820    6.5310  -50.3340 C   0  0  1  0  0  0  0  0  0  0  0  0
   -2.5360    5.5160  -49.4910 C   0  0  0  0  0  0  0  0  0  0  0  0
   -1.9260    3.1510  -49.6910 C   0  0  0  0  0  0  0  0  0  0  0  0
   -1.0790    3.2550  -48.5890 C   0  0  0  0  0  0  0  0  0  0  0  0
   -0.3260    2.1630  -48.1800 C   0  0  0  0  0  0  0  0  0  0  0  0
   -0.4150    0.9590  -48.8650 C   0  0  0  0  0  0  0  0  0  0  0  0
   -1.2580    0.8460  -49.9570 C   0  0  0  0  0  0  0  0  0  0  0  0
   -2.0150    1.9400  -50.3720 C   0  0  0  0  0  0  0  0  0  0  0  0
   -2.9280    1.7850  -51.5660 C   0  0  0  0  0  0  0  0  0  0  0  0
   -2.1410    1.2030  -52.7100 C   0  0  0  0  0  0  0  0  0  0  0  0
   -2.2270   -0.0820  -52.9960 C   0  0  0  0  0  0  0  0  0  0  0  0
   -0.5990    8.0042  -52.6624 H   0  0  0  0  0  0  0  0  0  0  0  0
   -0.4986    7.1107  -54.2175 H   0  0  0  0  0  0  0  0  0  0  0  0
   -0.6161    8.9031  -54.2175 H   0  0  0  0  0  0  0  0  0  0  0  0
   -2.7243    8.6791  -51.8680 H   0  0  0  0  0  0  0  0  0  0  0  0
   -3.3115    7.6661  -48.6954 H   0  0  0  0  0  0  0  0  0  0  0  0
   -2.7125    6.9515  -54.2806 H   0  0  0  0  0  0  0  0  0  0  0  0
   -3.4470    9.8018  -53.7674 H   0  0  0  0  0  0  0  0  0  0  0  0
   -2.3016    9.5368  -55.1255 H   0  0  0  0  0  0  0  0  0  0  0  0
   -3.8998    8.7168  -55.1255 H   0  0  0  0  0  0  0  0  0  0  0  0
   -2.7701    5.7492  -52.2718 H   0  0  0  0  0  0  0  0  0  0  0  0
   -1.4775    6.7228  -51.4875 H   0  0  0  0  0  0  0  0  0  0  0  0
   -4.3227    6.2093  -50.4872 H   0  0  0  0  0  0  0  0  0  0  0  0
   -2.9613    5.4929  -48.4768 H   0  0  0  0  0  0  0  0  0  0  0  0
   -1.4729    5.7910  -49.4264 H   0  0  0  0  0  0  0  0  0  0  0  0
   -1.1054    3.4677  -50.3516 H   0  0  0  0  0  0  0  0  0  0  0  0
   -0.3678    4.0640  -48.8120 H   0  0  0  0  0  0  0  0  0  0  0  0
   -1.7759    3.4059  -47.7514 H   0  0  0  0  0  0  0  0  0  0  0  0
    0.7287    2.4728  -48.2195 H   0  0  0  0  0  0  0  0  0  0  0  0
   -0.7479    1.9223  -47.1931 H   0  0  0  0  0  0  0  0  0  0  0  0
    0.5983    0.7195  -49.2197 H   0  0  0  0  0  0  0  0  0  0  0  0
   -0.8650    0.2797  -48.1261 H   0  0  0  0  0  0  0  0  0  0  0  0
   -0.6316    0.5513  -50.8119 H   0  0  0  0  0  0  0  0  0  0  0  0
   -2.0187    0.1290  -49.6145 H   0  0  0  0  0  0  0  0  0  0  0  0
   -1.1969    2.2538  -51.0370 H   0  0  0  0  0  0  0  0  0  0  0  0
   -3.7596    1.1121  -51.3099 H   0  0  0  0  0  0  0  0  0  0  0  0
   -3.3341    2.7658  -51.8542 H   0  0  0  0  0  0  0  0  0  0  0  0
   -2.4489    1.7485  -53.6142 H   0  0  0  0  0  0  0  0  0  0  0  0
   -1.0990    1.3129  -52.3750 H   0  0  0  0  0  0  0  0  0  0  0  0
   -2.2659   -0.6635  -52.0631 H   0  0  0  0  0  0  0  0  0  0  0  0
   -3.1395   -0.2670  -53.5817 H   0  0  0  0  0  0  0  0  0  0  0  0
   -1.3473   -0.3870  -53.5817 H   0  0  0  0  0  0  0  0  0  0  0  0
  1  4  1  0
  2  4  1  0
  4  6  1  0
  2  7  1  0
  3  8  1  0
  7  8  1  0
  5  9  1  0
  8  9  1  0
  5 10  1  0
 10 11  1  0
 11 12  1  0
 12 13  1  0
 13 14  1  0
 10 15  1  0
 14 15  1  0
 15 16  1  0
 16 17  1  0
 17 18  1  0
  1 19  1  0
  1 20  1  0
  1 21  1  0
  2 22  1  0
  3 23  1  0
  4 24  1  6
  6 25  1  0
  6 26  1  0
  6 27  1  0
  7 28  1  0
  7 29  1  0
  8 30  1  6
  9 31  1  0
  9 32  1  0
 10 33  1  0
 11 34  1  0
 11 35  1  0
 12 36  1  0
 12 37  1  0
 13 38  1  0
 13 39  1  0
 14 40  1  0
 14 41  1  0
 15 42  1  0
 16 43  1  0
 16 44  1  0
 17 45  1  0
 17 46  1  0
 18 47  1  0
 18 48  1  0
 18 49  1  0
M  END
>  <PDBID>  (1) 
3NYA

>  <PDB ID>  (1) 
3NYA

>  <Generic Name>  (1) 
Alprenolol

>  <Brand Name>  (1) 
Apllobal#Aptin#Aptine#Aptol Duriles#Atenenol#Elp#Gubernal#Regletin#Skajilol#Yobir

>  <DrugBank ID>  (1) 
DB00866

>  <ATC Codes>  (1) 
C07AA01

>  <Ligand ID>  (1) 
JTZ

>  <Target Name>  (1) 
Beta-1 adrenergic receptor

>  <UniProt ID>  (1) 
P08588

>  <PDB ID.1>  (1) 
3NYA

>  <Seq. Identity>  (1) 
67%

$$$$
