PDB_DB08881_96
     RDKit          3D

 51 54  0  0  0  0  0  0  0  0999 V2000
   28.5690   71.5270   -5.7080 C   0  0  0  0  0  0  0  0  0  0  0  0
   26.8860   72.2050    2.7770 C   0  0  0  0  0  0  0  0  0  0  0  0
   26.3120   69.9160    1.9600 C   0  0  0  0  0  0  0  0  0  0  0  0
   26.1880   68.7280    4.1680 C   0  0  0  0  0  0  0  0  0  0  0  0
   25.5870   68.4590    5.3950 C   0  0  0  0  0  0  0  0  0  0  0  0
   24.3230   68.9480    5.6840 C   0  0  0  0  0  0  0  0  0  0  0  0
   24.3670   70.0400    3.5700 C   0  0  0  0  0  0  0  0  0  0  0  0
   27.9730   72.5170   -1.6180 C   0  0  0  0  0  0  0  0  0  0  0  0
   28.2020   73.8030   -1.1440 C   0  0  0  0  0  0  0  0  0  0  0  0
   27.9760   74.2030    0.0990 N   0  0  0  0  0  0  0  0  0  0  0  0
   27.4660   71.5530   -0.7380 C   0  0  0  0  0  0  0  0  0  0  0  0
   27.2820   73.3990    2.2550 N   0  0  0  0  0  0  0  0  0  0  0  0
   26.8220   71.2610    1.7910 C   0  0  0  0  0  0  0  0  0  0  0  0
   27.2470   71.9280    0.5810 C   0  0  0  0  0  0  0  0  0  0  0  0
   27.5230   73.2560    0.9230 C   0  0  0  0  0  0  0  0  0  0  0  0
   28.2350   72.1890   -3.0310 C   0  0  0  0  0  0  0  0  0  0  0  0
   25.6060   69.5390    3.2370 C   0  0  0  0  0  0  0  0  0  0  0  0
   23.7120   69.7620    4.7580 C   0  0  0  0  0  0  0  0  0  0  0  0
   23.7970   70.9030    2.7120 F   0  0  0  0  0  0  0  0  0  0  0  0
   27.3620   68.1420    3.8940 F   0  0  0  0  0  0  0  0  0  0  0  0
   26.3580   67.7260    6.3290 N   0  0  0  0  0  0  0  0  0  0  0  0
   26.0450   67.3550    7.8610 S   0  0  0  0  0  0  0  0  0  0  0  0
   27.1540   66.6220    8.3170 O   0  0  0  0  0  0  0  0  0  0  0  0
   24.7510   66.7690    7.9240 O   0  0  0  0  0  0  0  0  0  0  0  0
   25.9480   68.9480    8.6250 C   0  0  0  0  0  0  0  0  0  0  0  0
   27.1480   69.6740    8.8500 C   0  0  0  0  0  0  0  0  0  0  0  0
   26.8540   71.0220    9.5280 C   0  0  0  0  0  0  0  0  0  0  0  0
   28.7260   70.9360   -3.4040 C   0  0  0  0  0  0  0  0  0  0  0  0
   28.9140   70.6100   -4.7350 C   0  0  0  0  0  0  0  0  0  0  0  0
   28.0890   72.7720   -5.3790 C   0  0  0  0  0  0  0  0  0  0  0  0
   27.9350   73.1030   -4.0450 C   0  0  0  0  0  0  0  0  0  0  0  0
   28.6980   71.0750   -7.4060 Cl  0  0  0  0  0  0  0  0  0  0  0  0
   26.3960   69.0400    1.1550 O   0  0  0  0  0  0  0  0  0  0  0  0
   26.6520   72.0267    3.8369 H   0  0  0  0  0  0  0  0  0  0  0  0
   23.8213   68.6921    6.6289 H   0  0  0  0  0  0  0  0  0  0  0  0
   28.6003   74.5437   -1.8530 H   0  0  0  0  0  0  0  0  0  0  0  0
   27.2480   70.5307   -1.0808 H   0  0  0  0  0  0  0  0  0  0  0  0
   27.3835   74.2754    2.7865 H   0  0  0  0  0  0  0  0  0  0  0  0
   22.7170   70.1860    4.9586 H   0  0  0  0  0  0  0  0  0  0  0  0
   27.2585   67.3765    5.9715 H   0  0  0  0  0  0  0  0  0  0  0  0
   25.3065   69.5738    7.9871 H   0  0  0  0  0  0  0  0  0  0  0  0
   25.5728   68.7349    9.6368 H   0  0  0  0  0  0  0  0  0  0  0  0
   27.8111   69.0820    9.4979 H   0  0  0  0  0  0  0  0  0  0  0  0
   27.6301   69.8659    7.8801 H   0  0  0  0  0  0  0  0  0  0  0  0
   26.8813   70.8966   10.6205 H   0  0  0  0  0  0  0  0  0  0  0  0
   27.6127   71.7584    9.2243 H   0  0  0  0  0  0  0  0  0  0  0  0
   25.8576   71.3756    9.2243 H   0  0  0  0  0  0  0  0  0  0  0  0
   28.9672   70.1961   -2.6265 H   0  0  0  0  0  0  0  0  0  0  0  0
   29.3332   69.6323   -5.0149 H   0  0  0  0  0  0  0  0  0  0  0  0
   27.8307   73.4956   -6.1662 H   0  0  0  0  0  0  0  0  0  0  0  0
   27.5693   74.1052   -3.7768 H   0  0  0  0  0  0  0  0  0  0  0  0
  4  5  2  0
  5  6  1  0
  8  9  2  0
  9 10  1  0
  8 11  1  0
  2 12  1  0
  2 13  2  0
  3 13  1  0
 11 14  2  0
 13 14  1  0
 10 15  2  0
 12 15  1  0
 14 15  1  0
  8 16  1  0
  3 17  1  0
  4 17  1  0
  7 17  2  0
  6 18  2  0
  7 18  1  0
  7 19  1  0
  4 20  1  0
  5 21  1  0
 21 22  1  0
 22 23  2  0
 22 24  2  0
 22 25  1  0
 25 26  1  0
 26 27  1  0
 16 28  2  0
  1 29  2  0
 28 29  1  0
  1 30  1  0
 16 31  1  0
 30 31  2  0
  1 32  1  0
  3 33  2  0
  2 34  1  0
  6 35  1  0
  9 36  1  0
 11 37  1  0
 12 38  1  0
 18 39  1  0
 21 40  1  0
 25 41  1  0
 25 42  1  0
 26 43  1  0
 26 44  1  0
 27 45  1  0
 27 46  1  0
 27 47  1  0
 28 48  1  0
 29 49  1  0
 30 50  1  0
 31 51  1  0
M  END
$$$$
