PDB_DB01601_98
     RDKit          3D

118121  0  0  0  0  0  0  0  0999 V2000
    5.3550  -16.4940  -17.3880 C   0  0  0  0  0  0  0  0  0  0  0  0
    7.1810  -17.9060  -16.3700 C   0  0  0  0  0  0  0  0  0  0  0  0
    8.1370  -16.9120  -16.8990 N   0  0  0  0  0  0  0  0  0  0  0  0
    7.7660  -15.8860  -17.7000 C   0  0  0  0  0  0  0  0  0  0  0  0
    6.4440  -15.7130  -17.9600 N   0  0  0  0  0  0  0  0  0  0  0  0
   15.0010  -20.6720  -15.2640 C   0  0  0  0  0  0  0  0  0  0  0  0
   16.2970  -21.1360  -15.1910 C   0  0  0  0  0  0  0  0  0  0  0  0
   16.6200  -22.2150  -14.3630 C   0  0  0  0  0  0  0  0  0  0  0  0
   15.6090  -22.8130  -13.6190 C   0  0  0  0  0  0  0  0  0  0  0  0
   14.2900  -22.3490  -13.6890 C   0  0  0  0  0  0  0  0  0  0  0  0
   13.9770  -21.2640  -14.5180 C   0  0  0  0  0  0  0  0  0  0  0  0
    8.5990  -15.1510  -18.2070 O   0  0  0  0  0  0  0  0  0  0  0  0
    9.5600  -17.1760  -16.5720 C   0  0  2  0  0  0  0  0  0  0  0  0
   10.0350  -18.4130  -17.2760 C   0  0  0  0  0  0  0  0  0  0  0  0
   10.7510  -18.1740  -18.3790 N   0  0  0  0  0  0  0  0  0  0  0  0
   11.3260  -19.2370  -19.2530 C   0  0  1  0  0  0  0  0  0  0  0  0
    9.8060  -17.2710  -15.0490 C   0  0  1  0  0  0  0  0  0  0  0  0
   11.2730  -17.5360  -14.7110 C   0  0  0  0  0  0  0  0  0  0  0  0
    9.2700  -16.0380  -14.2960 C   0  0  0  0  0  0  0  0  0  0  0  0
    9.7790  -19.5400  -16.8360 O   0  0  0  0  0  0  0  0  0  0  0  0
    7.1320  -20.7430  -20.4720 C   0  0  0  0  0  0  0  0  0  0  0  0
    6.3530  -19.5860  -20.4440 C   0  0  0  0  0  0  0  0  0  0  0  0
    6.9430  -18.3120  -20.5200 C   0  0  0  0  0  0  0  0  0  0  0  0
    8.3410  -18.1720  -20.5720 C   0  0  0  0  0  0  0  0  0  0  0  0
    9.1270  -19.3190  -20.5630 C   0  0  0  0  0  0  0  0  0  0  0  0
    8.5450  -20.6020  -20.5190 C   0  0  0  0  0  0  0  0  0  0  0  0
   10.6170  -19.1520  -20.6220 C   0  0  0  0  0  0  0  0  0  0  0  0
   12.8070  -18.9690  -19.5040 C   0  0  0  0  0  0  0  0  0  0  0  0
   13.6990  -18.7180  -18.2880 C   0  0  1  0  0  0  0  0  0  0  0  0
   13.8770  -19.9230  -17.3830 C   0  0  1  0  0  0  0  0  0  0  0  0
   14.5820  -20.9910  -18.1200 N   0  0  0  0  0  0  0  0  0  0  0  0
   13.9330  -22.1590  -18.4080 C   0  0  0  0  0  0  0  0  0  0  0  0
   14.7300  -23.2240  -19.1200 C   0  0  0  0  0  0  0  0  0  0  0  0
   16.0560  -22.7710  -19.4160 O   0  0  0  0  0  0  0  0  0  0  0  0
   16.9460  -23.7580  -19.7400 C   0  0  0  0  0  0  0  0  0  0  0  0
   14.9960  -18.2990  -18.7190 O   0  0  0  0  0  0  0  0  0  0  0  0
   14.7380  -19.5010  -16.1910 C   0  0  0  0  0  0  0  0  0  0  0  0
   12.7680  -22.4620  -18.1530 O   0  0  0  0  0  0  0  0  0  0  0  0
   16.8490  -24.3830  -20.9930 C   0  0  0  0  0  0  0  0  0  0  0  0
   17.7390  -25.4060  -21.2980 C   0  0  0  0  0  0  0  0  0  0  0  0
   18.7080  -25.8360  -20.3880 C   0  0  0  0  0  0  0  0  0  0  0  0
   18.7830  -25.2350  -19.1400 C   0  0  0  0  0  0  0  0  0  0  0  0
   17.9080  -24.1810  -18.8110 C   0  0  0  0  0  0  0  0  0  0  0  0
   17.9730  -23.5370  -17.4460 C   0  0  0  0  0  0  0  0  0  0  0  0
   15.8330  -23.9850  -22.0580 C   0  0  0  0  0  0  0  0  0  0  0  0
    5.8420  -17.2030  -16.1170 C   0  0  0  0  0  0  0  0  0  0  0  0
    4.5181  -15.8259  -17.1366 H   0  0  0  0  0  0  0  0  0  0  0  0
    5.0203  -17.2444  -18.1194 H   0  0  0  0  0  0  0  0  0  0  0  0
    7.0432  -18.7152  -17.1023 H   0  0  0  0  0  0  0  0  0  0  0  0
    7.5641  -18.3376  -15.4335 H   0  0  0  0  0  0  0  0  0  0  0  0
    7.8532  -16.5410  -18.5794 H   0  0  0  0  0  0  0  0  0  0  0  0
    6.3513  -15.8245  -18.9797 H   0  0  0  0  0  0  0  0  0  0  0  0
   14.7990  -21.3667  -16.0926 H   0  0  0  0  0  0  0  0  0  0  0  0
   16.5859  -21.4253  -16.2122 H   0  0  0  0  0  0  0  0  0  0  0  0
   16.8335  -20.2971  -14.7236 H   0  0  0  0  0  0  0  0  0  0  0  0
   17.0551  -22.9959  -15.0041 H   0  0  0  0  0  0  0  0  0  0  0  0
   17.2867  -21.7788  -13.6046 H   0  0  0  0  0  0  0  0  0  0  0  0
   15.5844  -23.8711  -13.9189 H   0  0  0  0  0  0  0  0  0  0  0  0
   15.8953  -22.5714  -12.5847 H   0  0  0  0  0  0  0  0  0  0  0  0
   13.6721  -23.1949  -14.0246 H   0  0  0  0  0  0  0  0  0  0  0  0
   14.1025  -21.9597  -12.6774 H   0  0  0  0  0  0  0  0  0  0  0  0
   13.5484  -20.4796  -13.8768 H   0  0  0  0  0  0  0  0  0  0  0  0
   13.3065  -21.6926  -15.2775 H   0  0  0  0  0  0  0  0  0  0  0  0
    9.1147  -14.6960  -17.4949 H   0  0  0  0  0  0  0  0  0  0  0  0
   10.1463  -16.3172  -16.9308 H   0  0  0  0  0  0  0  0  0  0  0  0
    9.1136  -18.4249  -17.8767 H   0  0  0  0  0  0  0  0  0  0  0  0
   10.1415  -17.6114  -18.9897 H   0  0  0  0  0  0  0  0  0  0  0  0
   11.1953  -20.2166  -18.7700 H   0  0  0  0  0  0  0  0  0  0  0  0
    9.2327  -18.1425  -14.7000 H   0  0  0  0  0  0  0  0  0  0  0  0
   11.3992  -17.5588  -13.6185 H   0  0  0  0  0  0  0  0  0  0  0  0
   11.5781  -18.5038  -15.1356 H   0  0  0  0  0  0  0  0  0  0  0  0
   11.8974  -16.7361  -15.1356 H   0  0  0  0  0  0  0  0  0  0  0  0
    9.3445  -16.2094  -13.2120 H   0  0  0  0  0  0  0  0  0  0  0  0
    9.8651  -15.1542  -14.5692 H   0  0  0  0  0  0  0  0  0  0  0  0
    8.2178  -15.8703  -14.5692 H   0  0  0  0  0  0  0  0  0  0  0  0
    9.7842  -19.5169  -15.8463 H   0  0  0  0  0  0  0  0  0  0  0  0
    6.8920  -21.3193  -19.5663 H   0  0  0  0  0  0  0  0  0  0  0  0
    6.8746  -21.2208  -21.4288 H   0  0  0  0  0  0  0  0  0  0  0  0
    5.6556  -19.6584  -21.2916 H   0  0  0  0  0  0  0  0  0  0  0  0
    5.9381  -19.5992  -19.4253 H   0  0  0  0  0  0  0  0  0  0  0  0
    6.5451  -17.8348  -21.4277 H   0  0  0  0  0  0  0  0  0  0  0  0
    6.6869  -17.8640  -19.5485 H   0  0  0  0  0  0  0  0  0  0  0  0
    8.5776  -17.6244  -21.4962 H   0  0  0  0  0  0  0  0  0  0  0  0
    8.5945  -17.6667  -19.6284 H   0  0  0  0  0  0  0  0  0  0  0  0
    9.1525  -19.2929  -19.4636 H   0  0  0  0  0  0  0  0  0  0  0  0
    8.9432  -21.1000  -19.6227 H   0  0  0  0  0  0  0  0  0  0  0  0
    8.8080  -21.0310  -21.4971 H   0  0  0  0  0  0  0  0  0  0  0  0
   10.8351  -18.1674  -21.0612 H   0  0  0  0  0  0  0  0  0  0  0  0
   11.0016  -19.9873  -21.2256 H   0  0  0  0  0  0  0  0  0  0  0  0
   13.2136  -19.8422  -20.0353 H   0  0  0  0  0  0  0  0  0  0  0  0
   12.8276  -18.0227  -20.0644 H   0  0  0  0  0  0  0  0  0  0  0  0
   13.1839  -17.9414  -17.7036 H   0  0  0  0  0  0  0  0  0  0  0  0
   12.8965  -20.2914  -17.0470 H   0  0  0  0  0  0  0  0  0  0  0  0
   14.8807  -20.5862  -19.0188 H   0  0  0  0  0  0  0  0  0  0  0  0
   13.6192  -21.7455  -19.3778 H   0  0  0  0  0  0  0  0  0  0  0  0
   14.7908  -24.1153  -18.4782 H   0  0  0  0  0  0  0  0  0  0  0  0
   14.2243  -23.4607  -20.0678 H   0  0  0  0  0  0  0  0  0  0  0  0
   16.2673  -24.5105  -19.3121 H   0  0  0  0  0  0  0  0  0  0  0  0
   15.5632  -18.1158  -17.9285 H   0  0  0  0  0  0  0  0  0  0  0  0
   14.2149  -18.7111  -15.6321 H   0  0  0  0  0  0  0  0  0  0  0  0
   15.7027  -19.1330  -16.5704 H   0  0  0  0  0  0  0  0  0  0  0  0
   12.6428  -22.4946  -17.1715 H   0  0  0  0  0  0  0  0  0  0  0  0
   17.5501  -23.6475  -21.4142 H   0  0  0  0  0  0  0  0  0  0  0  0
   17.1259  -26.2878  -21.5356 H   0  0  0  0  0  0  0  0  0  0  0  0
   18.3506  -24.9531  -22.0922 H   0  0  0  0  0  0  0  0  0  0  0  0
   18.5341  -26.9087  -20.2174 H   0  0  0  0  0  0  0  0  0  0  0  0
   19.6575  -25.5572  -20.8683 H   0  0  0  0  0  0  0  0  0  0  0  0
   18.6187  -26.0279  -18.3955 H   0  0  0  0  0  0  0  0  0  0  0  0
   19.7698  -24.7491  -19.1528 H   0  0  0  0  0  0  0  0  0  0  0  0
   17.1906  -24.9054  -18.3980 H   0  0  0  0  0  0  0  0  0  0  0  0
   17.8947  -24.3130  -16.6703 H   0  0  0  0  0  0  0  0  0  0  0  0
   18.9294  -23.0047  -17.3369 H   0  0  0  0  0  0  0  0  0  0  0  0
   17.1422  -22.8243  -17.3369 H   0  0  0  0  0  0  0  0  0  0  0  0
   14.9142  -23.6251  -21.5719 H   0  0  0  0  0  0  0  0  0  0  0  0
   16.2535  -23.1851  -22.6852 H   0  0  0  0  0  0  0  0  0  0  0  0
   15.5983  -24.8577  -22.6852 H   0  0  0  0  0  0  0  0  0  0  0  0
    5.9693  -16.4607  -15.3153 H   0  0  0  0  0  0  0  0  0  0  0  0
    5.0961  -17.9563  -15.8234 H   0  0  0  0  0  0  0  0  0  0  0  0
  2  3  1  0
  3  4  1  0
  1  5  1  0
  4  5  1  0
  6  7  1  0
  7  8  1  0
  8  9  1  0
  9 10  1  0
  6 11  1  0
 10 11  1  0
  4 12  1  0
  3 13  1  0
 13 14  1  0
 14 15  1  0
 15 16  1  0
 13 17  1  0
 17 18  1  0
 17 19  1  0
 14 20  1  0
 21 22  1  0
 22 23  1  0
 23 24  1  0
 24 25  1  0
 21 26  1  0
 25 26  1  0
 16 27  1  0
 25 27  1  0
 16 28  1  0
 28 29  1  0
 29 30  1  0
 30 31  1  0
 31 32  1  0
 32 33  1  0
 33 34  1  0
 34 35  1  0
 29 36  1  0
  6 37  1  0
 30 37  1  0
 32 38  1  0
 35 39  1  0
 39 40  1  0
 40 41  1  0
 41 42  1  0
 35 43  1  0
 42 43  1  0
 43 44  1  0
 39 45  1  0
  1 46  1  0
  2 46  1  0
  1 47  1  0
  1 48  1  0
  2 49  1  0
  2 50  1  0
  4 51  1  0
  5 52  1  0
  6 53  1  0
  7 54  1  0
  7 55  1  0
  8 56  1  0
  8 57  1  0
  9 58  1  0
  9 59  1  0
 10 60  1  0
 10 61  1  0
 11 62  1  0
 11 63  1  0
 12 64  1  0
 13 65  1  6
 14 66  1  0
 15 67  1  0
 16 68  1  1
 17 69  1  1
 18 70  1  0
 18 71  1  0
 18 72  1  0
 19 73  1  0
 19 74  1  0
 19 75  1  0
 20 76  1  0
 21 77  1  0
 21 78  1  0
 22 79  1  0
 22 80  1  0
 23 81  1  0
 23 82  1  0
 24 83  1  0
 24 84  1  0
 25 85  1  0
 26 86  1  0
 26 87  1  0
 27 88  1  0
 27 89  1  0
 28 90  1  0
 28 91  1  0
 29 92  1  1
 30 93  1  1
 31 94  1  0
 32 95  1  0
 33 96  1  0
 33 97  1  0
 35 98  1  0
 36 99  1  0
 37100  1  0
 37101  1  0
 38102  1  0
 39103  1  0
 40104  1  0
 40105  1  0
 41106  1  0
 41107  1  0
 42108  1  0
 42109  1  0
 43110  1  0
 44111  1  0
 44112  1  0
 44113  1  0
 45114  1  0
 45115  1  0
 45116  1  0
 46117  1  0
 46118  1  0
M  END
>  <PDBID>  (1) 
2O4S

>  <PDB ID>  (1) 
2O4S

>  <Generic Name>  (1) 
Lopinavir

>  <Brand Name>  (1) 
Kaletra#Lopinavir-ritonavir#Aluviran#Koletra

>  <DrugBank ID>  (1) 
DB01601

>  <ATC Codes>  (1) 
J05AR10

>  <Ligand ID>  (1) 
AB1

>  <Target Name>  (1) 
Pol polyprotein

>  <UniProt ID>  (1) 
Q72874

>  <PDB ID.1>  (1) 
2O4S

>  <Seq. Identity>  (1) 
98%

$$$$
