PDB_DB13139_98
     RDKit          3D

 38 38  0  0  0  0  0  0  0  0999 V2000
    4.9560   -9.3200   17.1750 O   0  0  0  0  0  0  0  0  0  0  0  0
    4.8740   -8.7800   18.4940 C   0  0  0  0  0  0  0  0  0  0  0  0
    5.7790   -9.5000   19.4830 C   0  0  0  0  0  0  0  0  0  0  0  0
    5.1980   -9.9410   20.7750 C   0  0  0  0  0  0  0  0  0  0  0  0
    3.8800   -9.7070   21.0230 O   0  0  0  0  0  0  0  0  0  0  0  0
    6.0010  -10.5800   21.7210 C   0  0  0  0  0  0  0  0  0  0  0  0
    7.3510  -10.8030   21.4480 C   0  0  0  0  0  0  0  0  0  0  0  0
    7.1440   -9.7390   19.2640 C   0  0  0  0  0  0  0  0  0  0  0  0
    7.9270  -10.3870   20.2360 C   0  0  0  0  0  0  0  0  0  0  0  0
    9.3800  -10.6400   19.9950 C   0  0  1  0  0  0  0  0  0  0  0  0
   10.0500  -11.1230   21.1790 O   0  0  0  0  0  0  0  0  0  0  0  0
    9.5620  -11.6290   18.8460 C   0  0  0  0  0  0  0  0  0  0  0  0
   10.9100  -12.1860   18.7940 N   0  0  0  0  0  0  0  0  0  0  0  0
   11.4060  -12.8520   17.5990 C   0  0  0  0  0  0  0  0  0  0  0  0
   10.5300  -14.0600   17.2860 C   0  0  0  0  0  0  0  0  0  0  0  0
   11.3730  -11.8540   16.4370 C   0  0  0  0  0  0  0  0  0  0  0  0
   12.8190  -13.3650   17.8670 C   0  0  0  0  0  0  0  0  0  0  0  0
    5.1044  -10.2974   17.2272 H   0  0  0  0  0  0  0  0  0  0  0  0
    5.1652   -7.7198   18.4585 H   0  0  0  0  0  0  0  0  0  0  0  0
    3.8376   -8.9070   18.8401 H   0  0  0  0  0  0  0  0  0  0  0  0
    3.4788   -9.9957   21.8808 H   0  0  0  0  0  0  0  0  0  0  0  0
    5.5707  -10.9069   22.6791 H   0  0  0  0  0  0  0  0  0  0  0  0
    7.9758  -11.3139   22.1954 H   0  0  0  0  0  0  0  0  0  0  0  0
    7.6075   -9.4155   18.3203 H   0  0  0  0  0  0  0  0  0  0  0  0
    9.8401   -9.6783   19.7242 H   0  0  0  0  0  0  0  0  0  0  0  0
    9.5822  -10.7857   21.9837 H   0  0  0  0  0  0  0  0  0  0  0  0
    8.8448  -12.4532   18.9735 H   0  0  0  0  0  0  0  0  0  0  0  0
    9.3900  -11.0837   17.9063 H   0  0  0  0  0  0  0  0  0  0  0  0
   11.5555  -11.4058   18.9823 H   0  0  0  0  0  0  0  0  0  0  0  0
   10.1943  -14.5229   18.2257 H   0  0  0  0  0  0  0  0  0  0  0  0
    9.6547  -13.7371   16.7032 H   0  0  0  0  0  0  0  0  0  0  0  0
   11.1089  -14.7916   16.7032 H   0  0  0  0  0  0  0  0  0  0  0  0
   11.3391  -10.8290   16.8348 H   0  0  0  0  0  0  0  0  0  0  0  0
   12.2758  -11.9785   15.8209 H   0  0  0  0  0  0  0  0  0  0  0  0
   10.4804  -12.0379   15.8209 H   0  0  0  0  0  0  0  0  0  0  0  0
   12.9872  -13.4261   18.9523 H   0  0  0  0  0  0  0  0  0  0  0  0
   12.9374  -14.3635   17.4209 H   0  0  0  0  0  0  0  0  0  0  0  0
   13.5504  -12.6750   17.4209 H   0  0  0  0  0  0  0  0  0  0  0  0
  1  2  1  0
  2  3  1  0
  3  4  2  0
  4  5  1  0
  4  6  1  0
  6  7  2  0
  3  8  1  0
  7  9  1  0
  8  9  2  0
  9 10  1  0
 10 11  1  0
 10 12  1  0
 12 13  1  0
 13 14  1  0
 14 15  1  0
 14 16  1  0
 14 17  1  0
  1 18  1  0
  2 19  1  0
  2 20  1  0
  5 21  1  0
  6 22  1  0
  7 23  1  0
  8 24  1  0
 10 25  1  6
 11 26  1  0
 12 27  1  0
 12 28  1  0
 13 29  1  0
 15 30  1  0
 15 31  1  0
 15 32  1  0
 16 33  1  0
 16 34  1  0
 16 35  1  0
 17 36  1  0
 17 37  1  0
 17 38  1  0
M  END
$$$$
