PDB_DB01011_99
     RDKit          3D

 45 46  0  0  0  0  0  0  0  0999 V2000
   57.7830   85.6800   12.3180 N   0  0  0  0  0  0  0  0  0  0  0  0
   57.7310   85.1200   11.1120 C   0  0  0  0  0  0  0  0  0  0  0  0
   58.3550   83.8950   10.7980 C   0  0  0  0  0  0  0  0  0  0  0  0
   59.0370   83.2710   11.8550 C   0  0  0  0  0  0  0  0  0  0  0  0
   59.0790   83.9000   13.0960 C   0  0  0  0  0  0  0  0  0  0  0  0
   58.4360   85.1170   13.3040 C   0  0  0  0  0  0  0  0  0  0  0  0
   58.2430   83.3280    9.4350 C   0  0  0  0  0  0  0  0  0  0  0  0
   57.4440   83.8220    8.6770 O   0  0  0  0  0  0  0  0  0  0  0  0
   58.6330   81.8560    7.4390 C   0  0  0  0  0  0  0  0  0  0  0  0
   59.0340   82.1570    8.8920 C   0  0  1  0  0  0  0  0  0  0  0  0
   60.5090   82.5700    8.9140 C   0  0  0  0  0  0  0  0  0  0  0  0
   58.7480   80.9170    9.6810 C   0  0  0  0  0  0  0  0  0  0  0  0
   57.4840   80.3820    9.6370 C   0  0  0  0  0  0  0  0  0  0  0  0
   57.1720   79.3100   10.3350 N   0  0  0  0  0  0  0  0  0  0  0  0
   58.0810   78.7220   11.0960 C   0  0  0  0  0  0  0  0  0  0  0  0
   59.3690   79.2260   11.1920 C   0  0  0  0  0  0  0  0  0  0  0  0
   59.7100   80.3380   10.4840 C   0  0  0  0  0  0  0  0  0  0  0  0
   58.1998   86.6129   12.1880 H   0  0  0  0  0  0  0  0  0  0  0  0
   56.6627   84.9792   10.8911 H   0  0  0  0  0  0  0  0  0  0  0  0
   58.3315   85.8263   10.5199 H   0  0  0  0  0  0  0  0  0  0  0  0
   59.2739   84.4336   10.5230 H   0  0  0  0  0  0  0  0  0  0  0  0
   58.5658   82.2888   12.0073 H   0  0  0  0  0  0  0  0  0  0  0  0
   60.0866   83.2670   11.5257 H   0  0  0  0  0  0  0  0  0  0  0  0
   58.6505   83.1918   13.8205 H   0  0  0  0  0  0  0  0  0  0  0  0
   60.1414   84.1668   13.1967 H   0  0  0  0  0  0  0  0  0  0  0  0
   59.2051   85.8335   13.6283 H   0  0  0  0  0  0  0  0  0  0  0  0
   57.6459   84.8702   14.0284 H   0  0  0  0  0  0  0  0  0  0  0  0
   57.4730   82.6271    9.7898 H   0  0  0  0  0  0  0  0  0  0  0  0
   56.7270   84.2653    9.1962 H   0  0  0  0  0  0  0  0  0  0  0  0
   57.7533   81.1957    7.4307 H   0  0  0  0  0  0  0  0  0  0  0  0
   58.3902   82.7968    6.9232 H   0  0  0  0  0  0  0  0  0  0  0  0
   59.4685   81.3602    6.9232 H   0  0  0  0  0  0  0  0  0  0  0  0
   60.8477   82.6648    9.9563 H   0  0  0  0  0  0  0  0  0  0  0  0
   61.1114   81.8060    8.4008 H   0  0  0  0  0  0  0  0  0  0  0  0
   60.6271   83.5357    8.4008 H   0  0  0  0  0  0  0  0  0  0  0  0
   58.4570   81.5334   10.5443 H   0  0  0  0  0  0  0  0  0  0  0  0
   56.7975   81.1771    9.9633 H   0  0  0  0  0  0  0  0  0  0  0  0
   57.4123   80.0219    8.6001 H   0  0  0  0  0  0  0  0  0  0  0  0
   56.3940   79.5764   10.9552 H   0  0  0  0  0  0  0  0  0  0  0  0
   57.6731   78.7107   12.1175 H   0  0  0  0  0  0  0  0  0  0  0  0
   58.2363   77.7598   10.5860 H   0  0  0  0  0  0  0  0  0  0  0  0
   59.5436   79.4568   12.2532 H   0  0  0  0  0  0  0  0  0  0  0  0
   59.9889   78.4354   10.7441 H   0  0  0  0  0  0  0  0  0  0  0  0
   60.5562   80.0660    9.8359 H   0  0  0  0  0  0  0  0  0  0  0  0
   59.9199   81.0977   11.2513 H   0  0  0  0  0  0  0  0  0  0  0  0
  1  2  1  0
  2  3  1  0
  3  4  1  0
  4  5  1  0
  1  6  1  0
  5  6  1  0
  3  7  1  0
  7  8  1  0
 10  7  1  1
  9 10  1  0
 10 11  1  0
 10 12  1  0
 12 13  1  0
 13 14  1  0
 14 15  1  0
 15 16  1  0
 12 17  1  0
 16 17  1  0
  1 18  1  0
  2 19  1  0
  2 20  1  0
  3 21  1  0
  4 22  1  0
  4 23  1  0
  5 24  1  0
  5 25  1  0
  6 26  1  0
  6 27  1  0
  7 28  1  0
  8 29  1  0
  9 30  1  0
  9 31  1  0
  9 32  1  0
 11 33  1  0
 11 34  1  0
 11 35  1  0
 12 36  1  0
 13 37  1  0
 13 38  1  0
 14 39  1  1
 15 40  1  0
 15 41  1  0
 16 42  1  0
 16 43  1  0
 17 44  1  0
 17 45  1  0
M  END
>  <PDBID>  (1) 
1W0G

>  <PDB ID>  (1) 
1W0G

>  <Generic Name>  (1) 
Metyrapone

>  <Brand Name>  (1) 
Metopirone#Metopiron

>  <DrugBank ID>  (1) 
DB01011

>  <ATC Codes>  (1) 
V04CD01

>  <Ligand ID>  (1) 
MYT

>  <Target Name>  (1) 
Cytochrome P450 11B1, mitochondrial

>  <UniProt ID>  (1) 
P15538

>  <PDB ID.1>  (1) 
1W0G

>  <Seq. Identity>  (1) 
32%

$$$$
