PDB_DB00696_96
     RDKit          3D

100107  0  0  0  0  0  0  0  0999 V2000
   -5.2790  -20.6210   23.2280 C   0  0  0  0  0  0  0  0  0  0  0  0
   -5.7670  -21.0350   24.4180 N   0  0  0  0  0  0  0  0  0  0  0  0
  -11.8370  -16.8650   19.9650 O   0  0  0  0  0  0  0  0  0  0  0  0
   -9.6800  -19.7850   23.9700 C   0  0  0  0  0  0  0  0  0  0  0  0
   -9.4030  -20.4110   25.2090 C   0  0  0  0  0  0  0  0  0  0  0  0
   -8.0790  -20.8960   25.4780 C   0  0  0  0  0  0  0  0  0  0  0  0
   -7.1240  -20.7260   24.5240 C   0  0  0  0  0  0  0  0  0  0  0  0
   -7.4020  -20.0990   23.3010 C   0  0  0  0  0  0  0  0  0  0  0  0
   -6.8680  -16.9170   19.0890 C   0  0  0  0  0  0  0  0  0  0  0  0
  -11.5890  -17.8930   19.3670 C   0  0  0  0  0  0  0  0  0  0  0  0
  -13.7950  -17.9920   18.1670 C   0  0  2  0  0  0  0  0  0  0  0  0
  -14.7410  -17.9310   19.3350 C   0  0  0  0  0  0  0  0  0  0  0  0
  -16.0000  -16.1500   20.4370 C   0  0  2  0  0  0  0  0  0  0  0  0
   -7.7210  -18.0660   19.4930 N   0  0  0  0  0  0  0  0  0  0  0  0
   -6.2520  -20.0180   22.4920 C   0  0  1  0  0  0  0  0  0  0  0  0
  -13.7620  -16.6430   17.6890 O   0  0  0  0  0  0  0  0  0  0  0  0
  -16.8590  -15.0360   19.8170 C   0  0  0  0  0  0  0  0  0  0  0  0
  -17.2520  -13.4310   17.9460 C   0  0  0  0  0  0  0  0  0  0  0  0
  -16.2330  -12.6660   17.1290 C   0  0  0  0  0  0  0  0  0  0  0  0
  -14.9800  -13.5870   17.0410 C   0  0  0  0  0  0  0  0  0  0  0  0
  -15.4570  -14.8580   17.7680 C   0  0  1  0  0  0  0  0  0  0  0  0
  -14.4270  -15.6970   18.5240 C   0  0  1  0  0  0  0  0  0  0  0  0
  -14.2680  -18.9810   17.1160 C   0  0  0  0  0  0  0  0  0  0  0  0
  -15.3640  -15.6280   21.7010 C   0  0  0  0  0  0  0  0  0  0  0  0
  -14.7530  -16.6600   22.6300 C   0  0  1  0  0  0  0  0  0  0  0  0
  -13.4090  -16.4960   23.0340 C   0  0  0  0  0  0  0  0  0  0  0  0
   -6.3190  -19.4240   21.1140 C   0  0  0  0  0  0  0  0  0  0  0  0
  -12.4630  -18.4930   18.5240 N   0  0  0  0  0  0  0  0  0  0  0  0
  -15.1470  -18.8790   19.9770 O   0  0  0  0  0  0  0  0  0  0  0  0
  -12.8000  -17.4230   23.9000 C   0  0  0  0  0  0  0  0  0  0  0  0
  -13.5570  -18.4870   24.4090 C   0  0  0  0  0  0  0  0  0  0  0  0
  -14.9100  -18.6200   24.0440 C   0  0  0  0  0  0  0  0  0  0  0  0
  -15.5160  -17.7270   23.1430 C   0  0  0  0  0  0  0  0  0  0  0  0
   -7.5530  -18.4590   20.9550 C   0  0  2  0  0  0  0  0  0  0  0  0
  -15.0470  -16.6310   19.4630 N   0  0  0  0  0  0  0  0  0  0  0  0
  -17.8450  -14.6000   20.4360 O   0  0  0  0  0  0  0  0  0  0  0  0
   -9.0990  -17.6460   19.0530 C   0  0  0  0  0  0  0  0  0  0  0  0
  -16.5410  -14.4900   18.6520 N   0  0  0  0  0  0  0  0  0  0  0  0
  -13.4960  -14.9000   19.1730 O   0  0  0  0  0  0  0  0  0  0  0  0
  -10.1970  -18.5720   19.5430 C   0  0  1  0  0  0  0  0  0  0  0  0
   -9.9840  -19.1230   20.9300 C   0  0  0  0  0  0  0  0  0  0  0  0
   -8.8430  -18.9920   21.6000 C   0  0  1  0  0  0  0  0  0  0  0  0
   -8.6950  -19.6030   22.9850 C   0  0  0  0  0  0  0  0  0  0  0  0
   -4.4622  -19.9051   23.4021 H   0  0  0  0  0  0  0  0  0  0  0  0
   -4.9083  -21.4962   22.6743 H   0  0  0  0  0  0  0  0  0  0  0  0
   -5.6442  -22.0545   24.4986 H   0  0  0  0  0  0  0  0  0  0  0  0
  -11.7966  -17.0324   20.9399 H   0  0  0  0  0  0  0  0  0  0  0  0
  -10.4787  -20.3769   23.4992 H   0  0  0  0  0  0  0  0  0  0  0  0
   -9.8877  -18.7499   24.2789 H   0  0  0  0  0  0  0  0  0  0  0  0
   -9.6418  -19.6808   25.9963 H   0  0  0  0  0  0  0  0  0  0  0  0
  -10.0108  -21.3273   25.1758 H   0  0  0  0  0  0  0  0  0  0  0  0
   -7.7248  -20.3888   26.3875 H   0  0  0  0  0  0  0  0  0  0  0  0
   -8.1990  -21.9870   25.5509 H   0  0  0  0  0  0  0  0  0  0  0  0
   -7.3806  -21.7049   24.0927 H   0  0  0  0  0  0  0  0  0  0  0  0
   -7.1578  -19.1230   23.7458 H   0  0  0  0  0  0  0  0  0  0  0  0
   -6.4897  -16.4074   19.9875 H   0  0  0  0  0  0  0  0  0  0  0  0
   -6.0205  -17.2822   18.4903 H   0  0  0  0  0  0  0  0  0  0  0  0
   -7.4628  -16.2114   18.4903 H   0  0  0  0  0  0  0  0  0  0  0  0
  -11.9953  -18.4785   20.2049 H   0  0  0  0  0  0  0  0  0  0  0  0
  -15.5948  -18.0301   18.6486 H   0  0  0  0  0  0  0  0  0  0  0  0
  -16.6144  -17.0179   20.7184 H   0  0  0  0  0  0  0  0  0  0  0  0
   -6.5057  -20.9857   22.0345 H   0  0  0  0  0  0  0  0  0  0  0  0
  -17.4955  -15.7939   19.3370 H   0  0  0  0  0  0  0  0  0  0  0  0
  -17.7365  -12.7575   18.6683 H   0  0  0  0  0  0  0  0  0  0  0  0
  -18.0316  -13.8543   17.2955 H   0  0  0  0  0  0  0  0  0  0  0  0
  -16.6268  -12.4582   16.1231 H   0  0  0  0  0  0  0  0  0  0  0  0
  -15.9909  -11.6967   17.5893 H   0  0  0  0  0  0  0  0  0  0  0  0
  -14.7157  -13.8016   15.9950 H   0  0  0  0  0  0  0  0  0  0  0  0
  -14.0741  -13.1422   17.4787 H   0  0  0  0  0  0  0  0  0  0  0  0
  -15.7567  -15.5377   16.9567 H   0  0  0  0  0  0  0  0  0  0  0  0
  -14.6919  -19.8672   17.6109 H   0  0  0  0  0  0  0  0  0  0  0  0
  -15.0376  -18.5085   16.4879 H   0  0  0  0  0  0  0  0  0  0  0  0
  -13.4171  -19.2836   16.4879 H   0  0  0  0  0  0  0  0  0  0  0  0
  -14.5671  -14.9282   21.4092 H   0  0  0  0  0  0  0  0  0  0  0  0
  -16.1862  -15.1733   22.2731 H   0  0  0  0  0  0  0  0  0  0  0  0
  -14.4201  -17.2457   21.7604 H   0  0  0  0  0  0  0  0  0  0  0  0
  -12.8046  -16.4807   22.1151 H   0  0  0  0  0  0  0  0  0  0  0  0
  -13.4464  -15.5805   23.6426 H   0  0  0  0  0  0  0  0  0  0  0  0
   -5.3959  -18.8563   20.9253 H   0  0  0  0  0  0  0  0  0  0  0  0
   -6.4311  -20.2458   20.3915 H   0  0  0  0  0  0  0  0  0  0  0  0
  -11.9590  -18.5822   17.6302 H   0  0  0  0  0  0  0  0  0  0  0  0
  -15.0631  -18.6831   20.9438 H   0  0  0  0  0  0  0  0  0  0  0  0
  -11.9534  -17.8642   23.3535 H   0  0  0  0  0  0  0  0  0  0  0  0
  -12.5580  -16.8260   24.7916 H   0  0  0  0  0  0  0  0  0  0  0  0
  -13.0513  -19.4139   24.1007 H   0  0  0  0  0  0  0  0  0  0  0  0
  -13.6033  -18.2744   25.4873 H   0  0  0  0  0  0  0  0  0  0  0  0
  -15.0169  -19.6236   23.6064 H   0  0  0  0  0  0  0  0  0  0  0  0
  -15.4333  -18.3992   24.9860 H   0  0  0  0  0  0  0  0  0  0  0  0
  -16.3828  -17.2868   23.6576 H   0  0  0  0  0  0  0  0  0  0  0  0
  -15.7350  -18.3463   22.2607 H   0  0  0  0  0  0  0  0  0  0  0  0
   -7.3373  -17.5449   21.5275 H   0  0  0  0  0  0  0  0  0  0  0  0
  -17.6817  -14.6722   21.4098 H   0  0  0  0  0  0  0  0  0  0  0  0
   -9.2960  -16.6357   19.4410 H   0  0  0  0  0  0  0  0  0  0  0  0
   -9.1129  -17.6794   17.9536 H   0  0  0  0  0  0  0  0  0  0  0  0
  -13.6063  -14.9944   20.1523 H   0  0  0  0  0  0  0  0  0  0  0  0
  -10.1598  -19.4676   18.9055 H   0  0  0  0  0  0  0  0  0  0  0  0
  -10.7585  -18.6615   21.5602 H   0  0  0  0  0  0  0  0  0  0  0  0
   -9.9996  -20.2060   20.7379 H   0  0  0  0  0  0  0  0  0  0  0  0
   -9.3405  -18.0143   21.6815 H   0  0  0  0  0  0  0  0  0  0  0  0
   -8.4308  -18.6317   23.4286 H   0  0  0  0  0  0  0  0  0  0  0  0
  1  2  1  0
  4  5  1  0
  5  6  1  0
  2  7  1  0
  6  7  1  0
  7  8  1  0
  3 10  1  0
 11 12  1  0
  9 14  1  0
  1 15  1  0
  8 15  1  0
 11 16  1  0
 13 17  1  0
 18 19  1  0
 19 20  1  0
 20 21  1  0
 16 22  1  0
 21 22  1  0
 11 23  1  0
 13 24  1  0
 24 25  1  0
 25 26  1  0
 15 27  1  0
 10 28  1  0
 11 28  1  1
 12 29  1  0
 26 30  1  0
 30 31  1  0
 31 32  1  0
 25 33  1  0
 32 33  1  0
 14 34  1  0
 27 34  1  0
 12 35  1  0
 13 35  1  0
 22 35  1  0
 17 36  1  0
 14 37  1  0
 17 38  1  0
 18 38  1  0
 21 38  1  0
 22 39  1  1
 10 40  1  0
 37 40  1  0
 40 41  1  0
 34 42  1  0
 41 42  1  0
  4 43  1  0
  8 43  1  0
 42 43  1  0
  1 44  1  0
  1 45  1  0
  2 46  1  0
  3 47  1  0
  4 48  1  0
  4 49  1  0
  5 50  1  0
  5 51  1  0
  6 52  1  0
  6 53  1  0
  7 54  1  0
  8 55  1  0
  9 56  1  0
  9 57  1  0
  9 58  1  0
 10 59  1  0
 12 60  1  0
 13 61  1  1
 15 62  1  1
 17 63  1  0
 18 64  1  0
 18 65  1  0
 19 66  1  0
 19 67  1  0
 20 68  1  0
 20 69  1  0
 21 70  1  6
 23 71  1  0
 23 72  1  0
 23 73  1  0
 24 74  1  0
 24 75  1  0
 25 76  1  6
 26 77  1  0
 26 78  1  0
 27 79  1  0
 27 80  1  0
 28 81  1  0
 29 82  1  0
 30 83  1  0
 30 84  1  0
 31 85  1  0
 31 86  1  0
 32 87  1  0
 32 88  1  0
 33 89  1  0
 33 90  1  0
 34 91  1  1
 36 92  1  0
 37 93  1  0
 37 94  1  0
 39 95  1  0
 40 96  1  6
 41 97  1  0
 41 98  1  0
 42 99  1  1
 43100  1  0
M  END
>  <PDBID>  (1) 
4IAR

>  <PDB ID>  (1) 
4IAR

>  <Generic Name>  (1) 
Ergotamine

>  <Brand Name>  (1) 
Cafergot#Cafergot Sup#Cafergot Tab#Ergodryl Cap#Ergomar#Ergomar Slt 2mg#Ergomar Sublingual#Ergotamine#Ergotamine Tartrate and Caffeine#Gravergol Capsules#Megral Tabs#Migergot#Anervan#Antimigraine#Enxak#Ergam#Ergo-Kranit#Gynaemine#Wigrettes

>  <DrugBank ID>  (1) 
DB00696

>  <ATC Codes>  (1) 
N02CA52#N02CA72#N02CA02

>  <Ligand ID>  (1) 
ERM

>  <Target Name>  (1) 
Alpha-1A adrenergic receptor

>  <UniProt ID>  (1) 
P35348

>  <PDB ID.1>  (1) 
4IAR

>  <Seq. Identity>  (1) 
33%

$$$$
