PDB_DB00220_98
     RDKit          3D

 85 88  0  0  0  0  0  0  0  0999 V2000
  -12.7120   13.4140   27.5270 C   0  0  2  0  0  0  0  0  0  0  0  0
  -12.7400   12.8180   28.9430 C   0  0  1  0  0  0  0  0  0  0  0  0
  -13.0090   11.3070   28.9180 C   0  0  0  0  0  0  0  0  0  0  0  0
  -12.0400   10.5670   27.9870 C   0  0  0  0  0  0  0  0  0  0  0  0
  -12.0550   11.1500   26.5740 C   0  0  0  0  0  0  0  0  0  0  0  0
  -11.7760   12.6500   26.5790 C   0  0  0  0  0  0  0  0  0  0  0  0
  -11.0040   15.0710   28.2510 N   0  0  0  0  0  0  0  0  0  0  0  0
  -10.9760   14.5520   29.6470 C   0  0  1  0  0  0  0  0  0  0  0  0
  -11.4550   13.0990   29.7340 C   0  0  0  0  0  0  0  0  0  0  0  0
  -12.3170   14.8880   27.5840 C   0  0  0  0  0  0  0  0  0  0  0  0
   -9.5900   14.6000   30.2480 C   0  0  0  0  0  0  0  0  0  0  0  0
   -9.5670   14.8170   31.5700 N   0  0  0  0  0  0  0  0  0  0  0  0
   -8.3910   15.0440   32.3940 C   0  0  0  0  0  0  0  0  0  0  0  0
   -7.5570   16.2100   31.8690 C   0  0  0  0  0  0  0  0  0  0  0  0
   -7.5780   13.7570   32.4420 C   0  0  0  0  0  0  0  0  0  0  0  0
   -8.8650   15.3860   33.8010 C   0  0  0  0  0  0  0  0  0  0  0  0
   -8.5910   14.4380   29.5530 O   0  0  0  0  0  0  0  0  0  0  0  0
  -10.6600   16.4990   28.2410 C   0  0  0  0  0  0  0  0  0  0  0  0
  -10.0340   16.8720   26.9020 C   0  0  2  0  0  0  0  0  0  0  0  0
   -8.5710   16.4600   26.7810 C   0  0  1  0  0  0  0  0  0  0  0  0
  -10.1750   18.2810   26.6860 O   0  0  0  0  0  0  0  0  0  0  0  0
   -8.1670   16.6610   25.4000 N   0  0  0  0  0  0  0  0  0  0  0  0
   -7.6560   17.2320   27.7320 C   0  0  0  0  0  0  0  0  0  0  0  0
   -7.7750   15.6870   24.5700 C   0  0  0  0  0  0  0  0  0  0  0  0
   -7.6990   14.5080   24.8930 O   0  0  0  0  0  0  0  0  0  0  0  0
   -7.4340   16.0920   23.1610 C   0  0  0  0  0  0  0  0  0  0  0  0
   -6.3780   16.9780   22.9050 C   0  0  0  0  0  0  0  0  0  0  0  0
   -6.0570   17.3780   21.6070 C   0  0  0  0  0  0  0  0  0  0  0  0
   -6.7770   16.9130   20.5050 C   0  0  0  0  0  0  0  0  0  0  0  0
   -7.8510   16.0310   20.6580 C   0  0  0  0  0  0  0  0  0  0  0  0
   -8.2340   15.5740   22.0150 C   0  0  0  0  0  0  0  0  0  0  0  0
   -8.5520   15.5740   19.5860 O   0  0  0  0  0  0  0  0  0  0  0  0
   -9.3970   14.6230   22.2020 C   0  0  0  0  0  0  0  0  0  0  0  0
   -6.0890   16.4370   27.8790 S   0  0  0  0  0  0  0  0  0  0  0  0
   -5.0620   17.1580   26.7250 C   0  0  0  0  0  0  0  0  0  0  0  0
   -3.8850   16.5060   26.3400 C   0  0  0  0  0  0  0  0  0  0  0  0
   -3.0400   17.0920   25.3930 C   0  0  0  0  0  0  0  0  0  0  0  0
   -3.3630   18.3260   24.8290 C   0  0  0  0  0  0  0  0  0  0  0  0
   -4.5340   18.9830   25.2090 C   0  0  0  0  0  0  0  0  0  0  0  0
   -5.3800   18.4000   26.1540 C   0  0  0  0  0  0  0  0  0  0  0  0
  -13.7288   13.3184   27.1184 H   0  0  0  0  0  0  0  0  0  0  0  0
  -13.5703   13.3227   29.4587 H   0  0  0  0  0  0  0  0  0  0  0  0
  -12.8961   10.9091   29.9373 H   0  0  0  0  0  0  0  0  0  0  0  0
  -14.0302   11.1495   28.5408 H   0  0  0  0  0  0  0  0  0  0  0  0
  -11.0218   10.6484   28.3951 H   0  0  0  0  0  0  0  0  0  0  0  0
  -12.3586    9.5158   27.9270 H   0  0  0  0  0  0  0  0  0  0  0  0
  -11.2842   10.6461   25.9724 H   0  0  0  0  0  0  0  0  0  0  0  0
  -13.0561   10.9890   26.1474 H   0  0  0  0  0  0  0  0  0  0  0  0
  -11.9118   13.0384   25.5589 H   0  0  0  0  0  0  0  0  0  0  0  0
  -10.7449   12.7992   26.9318 H   0  0  0  0  0  0  0  0  0  0  0  0
  -11.6555   15.2111   30.2072 H   0  0  0  0  0  0  0  0  0  0  0  0
  -11.6398   12.8582   30.7913 H   0  0  0  0  0  0  0  0  0  0  0  0
  -10.6647   12.4758   29.2901 H   0  0  0  0  0  0  0  0  0  0  0  0
  -12.2557   15.2821   26.5588 H   0  0  0  0  0  0  0  0  0  0  0  0
  -13.0789   15.4285   28.1649 H   0  0  0  0  0  0  0  0  0  0  0  0
  -10.4770   14.8237   32.0525 H   0  0  0  0  0  0  0  0  0  0  0  0
   -7.1492   16.7801   32.7168 H   0  0  0  0  0  0  0  0  0  0  0  0
   -6.7299   15.8225   31.2560 H   0  0  0  0  0  0  0  0  0  0  0  0
   -8.1909   16.8675   31.2560 H   0  0  0  0  0  0  0  0  0  0  0  0
   -7.3997   13.4748   33.4901 H   0  0  0  0  0  0  0  0  0  0  0  0
   -8.1329   12.9537   31.9353 H   0  0  0  0  0  0  0  0  0  0  0  0
   -6.6142   13.9130   31.9353 H   0  0  0  0  0  0  0  0  0  0  0  0
   -8.2024   14.9079   34.5375 H   0  0  0  0  0  0  0  0  0  0  0  0
   -8.8419   16.4769   33.9407 H   0  0  0  0  0  0  0  0  0  0  0  0
   -9.8929   15.0201   33.9407 H   0  0  0  0  0  0  0  0  0  0  0  0
  -11.5715   17.0949   28.3962 H   0  0  0  0  0  0  0  0  0  0  0  0
   -9.9402   16.7040   29.0472 H   0  0  0  0  0  0  0  0  0  0  0  0
  -10.5737   16.3103   26.1253 H   0  0  0  0  0  0  0  0  0  0  0  0
   -8.4750   15.4028   27.0694 H   0  0  0  0  0  0  0  0  0  0  0  0
  -10.2215   18.7457   27.5589 H   0  0  0  0  0  0  0  0  0  0  0  0
   -8.1835   17.6232   25.0329 H   0  0  0  0  0  0  0  0  0  0  0  0
   -7.5084   18.2502   27.3428 H   0  0  0  0  0  0  0  0  0  0  0  0
   -8.1282   17.2655   28.7249 H   0  0  0  0  0  0  0  0  0  0  0  0
   -5.7880   17.3674   23.7478 H   0  0  0  0  0  0  0  0  0  0  0  0
   -5.2197   18.0737   21.4491 H   0  0  0  0  0  0  0  0  0  0  0  0
   -6.4936   17.2473   19.4961 H   0  0  0  0  0  0  0  0  0  0  0  0
   -9.3089   14.9499   19.7190 H   0  0  0  0  0  0  0  0  0  0  0  0
   -9.5795   14.4738   23.2764 H   0  0  0  0  0  0  0  0  0  0  0  0
  -10.2968   15.0474   21.7327 H   0  0  0  0  0  0  0  0  0  0  0  0
   -9.1597   13.6568   21.7327 H   0  0  0  0  0  0  0  0  0  0  0  0
   -3.6250   15.5330   26.7823 H   0  0  0  0  0  0  0  0  0  0  0  0
   -2.1159   16.5774   25.0912 H   0  0  0  0  0  0  0  0  0  0  0  0
   -2.6942   18.7817   24.0840 H   0  0  0  0  0  0  0  0  0  0  0  0
   -4.7895   19.9567   24.7655 H   0  0  0  0  0  0  0  0  0  0  0  0
   -6.3030   18.9180   26.4534 H   0  0  0  0  0  0  0  0  0  0  0  0
  1  2  1  0
  2  3  1  0
  3  4  1  0
  4  5  1  0
  1  6  1  0
  5  6  1  0
  7  8  1  0
  2  9  1  0
  8  9  1  0
  1 10  1  0
  7 10  1  0
  8 11  1  0
 11 12  1  0
 12 13  1  0
 13 14  1  0
 13 15  1  0
 13 16  1  0
 11 17  2  0
  7 18  1  0
 18 19  1  0
 19 20  1  0
 19 21  1  0
 20 22  1  0
 20 23  1  0
 22 24  1  0
 24 25  2  0
 24 26  1  0
 26 27  2  0
 27 28  1  0
 28 29  2  0
 29 30  1  0
 26 31  1  0
 30 31  2  0
 30 32  1  0
 31 33  1  0
 23 34  1  0
 34 35  1  0
 35 36  2  0
 36 37  1  0
 37 38  2  0
 38 39  1  0
 35 40  1  0
 39 40  2  0
  1 41  1  6
  2 42  1  1
  3 43  1  0
  3 44  1  0
  4 45  1  0
  4 46  1  0
  5 47  1  0
  5 48  1  0
  6 49  1  0
  6 50  1  0
  8 51  1  1
  9 52  1  0
  9 53  1  0
 10 54  1  0
 10 55  1  0
 12 56  1  0
 14 57  1  0
 14 58  1  0
 14 59  1  0
 15 60  1  0
 15 61  1  0
 15 62  1  0
 16 63  1  0
 16 64  1  0
 16 65  1  0
 18 66  1  0
 18 67  1  0
 19 68  1  6
 20 69  1  1
 21 70  1  0
 22 71  1  0
 23 72  1  0
 23 73  1  0
 27 74  1  0
 28 75  1  0
 29 76  1  0
 32 77  1  0
 33 78  1  0
 33 79  1  0
 33 80  1  0
 36 81  1  0
 37 82  1  0
 38 83  1  0
 39 84  1  0
 40 85  1  0
M  END
>  <PDBID>  (1) 
2Q64

>  <PDB ID>  (1) 
2Q64

>  <Generic Name>  (1) 
Nelfinavir

>  <Brand Name>  (1) 
Viracept#Viracept -250mg#Viracept -50mg

>  <DrugBank ID>  (1) 
DB00220

>  <ATC Codes>  (1) 
J05AE04

>  <Ligand ID>  (1) 
1UN

>  <Target Name>  (1) 
HIV-1 protease

>  <UniProt ID>  (1) 
O90777

>  <PDB ID.1>  (1) 
2Q64

>  <Seq. Identity>  (1) 
92%

$$$$
