PDB_DB00205_92
     RDKit          3D

 30 31  0  0  0  0  0  0  0  0999 V2000
   28.3180  -27.5910    9.4460 N   0  0  0  0  0  0  0  0  0  0  0  0
   28.9830  -26.3760    9.1990 C   0  0  0  0  0  0  0  0  0  0  0  0
   28.7110  -28.7610    8.7740 C   0  0  0  0  0  0  0  0  0  0  0  0
   29.8600  -28.7590    7.7630 C   0  0  0  0  0  0  0  0  0  0  0  0
   30.5030  -27.3530    7.5930 C   0  0  0  0  0  0  0  0  0  0  0  0
   30.0530  -26.2460    8.2950 N   0  0  0  0  0  0  0  0  0  0  0  0
   30.3140  -29.9540    7.0300 C   0  0  0  0  0  0  0  0  0  0  0  0
   30.0320  -30.1960    5.6260 C   0  0  0  0  0  0  0  0  0  0  0  0
   30.5020  -31.3880    4.9400 C   0  0  0  0  0  0  0  0  0  0  0  0
   31.3000  -32.4060    5.6860 C   0  0  0  0  0  0  0  0  0  0  0  0
   31.6040  -32.2150    7.0700 C   0  0  0  0  0  0  0  0  0  0  0  0
   31.1200  -31.0070    7.7380 C   0  0  0  0  0  0  0  0  0  0  0  0
   28.0670  -29.9260    9.0160 N   0  0  0  0  0  0  0  0  0  0  0  0
   28.5720  -25.2250    9.8780 N   0  0  0  0  0  0  0  0  0  0  0  0
   31.6690  -27.1460    6.6310 C   0  0  0  0  0  0  0  0  0  0  0  0
   33.0620  -26.8950    7.1670 C   0  0  0  0  0  0  0  0  0  0  0  0
   31.7820  -33.7280    4.7950 Cl  0  0  0  0  0  0  0  0  0  0  0  0
   29.4447  -29.4544    5.0646 H   0  0  0  0  0  0  0  0  0  0  0  0
   30.2707  -31.5396    3.8753 H   0  0  0  0  0  0  0  0  0  0  0  0
   32.1914  -32.9631    7.6226 H   0  0  0  0  0  0  0  0  0  0  0  0
   31.3557  -30.8631    8.8028 H   0  0  0  0  0  0  0  0  0  0  0  0
   28.3536  -30.7846    8.5245 H   0  0  0  0  0  0  0  0  0  0  0  0
   27.2902  -29.9543    9.6918 H   0  0  0  0  0  0  0  0  0  0  0  0
   29.0494  -24.3284    9.7075 H   0  0  0  0  0  0  0  0  0  0  0  0
   27.7919  -25.2737   10.5488 H   0  0  0  0  0  0  0  0  0  0  0  0
   31.7281  -28.0492    6.0060 H   0  0  0  0  0  0  0  0  0  0  0  0
   31.4176  -26.1984    6.1321 H   0  0  0  0  0  0  0  0  0  0  0  0
   33.0380  -26.8993    8.2667 H   0  0  0  0  0  0  0  0  0  0  0  0
   33.7395  -27.6855    6.8119 H   0  0  0  0  0  0  0  0  0  0  0  0
   33.4209  -25.9177    6.8119 H   0  0  0  0  0  0  0  0  0  0  0  0
  1  2  2  0
  1  3  1  0
  3  4  2  0
  4  5  1  0
  2  6  1  0
  5  6  2  0
  4  7  1  0
  7  8  2  0
  8  9  1  0
  9 10  2  0
 10 11  1  0
  7 12  1  0
 11 12  2  0
  3 13  1  0
  2 14  1  0
  5 15  1  0
 15 16  1  0
 10 17  1  0
  8 18  1  0
  9 19  1  0
 11 20  1  0
 12 21  1  0
 13 22  1  0
 13 23  1  0
 14 24  1  0
 14 25  1  0
 15 26  1  0
 15 27  1  0
 16 28  1  0
 16 29  1  0
 16 30  1  0
M  END
$$$$
