PDB_DB06616_99
     RDKit          3D

170176  0  0  0  0  0  0  0  0999 V2000
   -2.4390   15.8230  -52.6150 C   0  0  0  0  0  0  0  0  0  0  0  0
   -0.7230   17.7490  -43.8250 O   0  0  0  0  0  0  0  0  0  0  0  0
   -0.2760   10.9670  -54.9260 C   0  0  0  0  0  0  0  0  0  0  0  0
   -2.8950   14.2390  -44.0700 N   0  0  0  0  0  0  0  0  0  0  0  0
   -3.2890   18.8070  -42.4990 Cl  0  0  0  0  0  0  0  0  0  0  0  0
   -5.8900   16.3750  -46.8020 Cl  0  0  0  0  0  0  0  0  0  0  0  0
   -2.5320   13.8910  -45.0810 C   0  0  0  0  0  0  0  0  0  0  0  0
   -1.3020   12.1440  -46.5160 C   0  0  0  0  0  0  0  0  0  0  0  0
   -4.4780   17.5620  -44.6880 C   0  0  0  0  0  0  0  0  0  0  0  0
   -1.8260   16.6460  -45.7600 C   0  0  0  0  0  0  0  0  0  0  0  0
   -0.5380   11.8080  -50.3050 C   0  0  0  0  0  0  0  0  0  0  0  0
   -2.0290   14.4420  -50.2560 C   0  0  0  0  0  0  0  0  0  0  0  0
    0.7430   10.3250  -53.9950 C   0  0  0  0  0  0  0  0  0  0  0  0
    0.7360   11.0740  -52.6630 C   0  0  0  0  0  0  0  0  0  0  0  0
   -0.7980    7.5090  -59.0390 C   0  0  0  0  0  0  0  0  0  0  0  0
   -1.3080   10.3190  -57.2360 C   0  0  0  0  0  0  0  0  0  0  0  0
    0.3100    8.9150  -56.1780 C   0  0  0  0  0  0  0  0  0  0  0  0
   -0.7130    9.9490  -58.6050 C   0  0  0  0  0  0  0  0  0  0  0  0
    0.9210    8.5590  -57.4940 C   0  0  0  0  0  0  0  0  0  0  0  0
   -0.8210   11.6400  -47.7690 N   0  0  0  0  0  0  0  0  0  0  0  0
   -3.0370   15.5280  -47.7040 N   0  0  0  0  0  0  0  0  0  0  0  0
   -1.7680   14.6040  -52.6880 O   0  0  0  0  0  0  0  0  0  0  0  0
   -0.2860   12.0260  -52.7280 O   0  0  0  0  0  0  0  0  0  0  0  0
   -1.8860   17.4360  -44.4920 C   0  0  0  0  0  0  0  0  0  0  0  0
   -3.2170   17.8930  -43.9630 C   0  0  0  0  0  0  0  0  0  0  0  0
   -4.4280   16.7700  -45.9530 C   0  0  0  0  0  0  0  0  0  0  0  0
   -2.0470   13.4380  -46.4190 C   0  0  0  0  0  0  0  0  0  0  0  0
   -3.0980   16.3140  -46.4880 C   0  0  0  0  0  0  0  0  0  0  0  0
   -1.5230   13.8770  -51.5450 C   0  0  0  0  0  0  0  0  0  0  0  0
   -0.7800   12.5830  -51.5560 C   0  0  0  0  0  0  0  0  0  0  0  0
   -2.3230   14.2440  -47.6770 C   0  0  0  0  0  0  0  0  0  0  0  0
   -1.0450   12.3590  -48.9920 C   0  0  0  0  0  0  0  0  0  0  0  0
   -1.7920   13.6770  -48.9890 C   0  0  0  0  0  0  0  0  0  0  0  0
   -0.2430   10.2440  -56.2370 N   0  0  0  0  0  0  0  0  0  0  0  0
   -0.0790    8.6600  -58.5140 N   0  0  0  0  0  0  0  0  0  0  0  0
    0.3580   16.8780  -43.8610 C   0  0  0  0  0  0  0  0  0  0  0  0
  -22.6110   45.1230  -28.9970 C   0  0  0  0  0  0  0  0  0  0  0  0
  -14.1530   46.3810  -32.2330 O   0  0  0  0  0  0  0  0  0  0  0  0
  -25.8390   40.7800  -30.6550 C   0  0  0  0  0  0  0  0  0  0  0  0
  -14.2880   42.8730  -29.8090 N   0  0  0  0  0  0  0  0  0  0  0  0
  -12.3970   47.3670  -30.0430 Cl  0  0  0  0  0  0  0  0  0  0  0  0
  -16.2080   45.1720  -26.6040 Cl  0  0  0  0  0  0  0  0  0  0  0  0
  -15.3480   42.5630  -30.0660 C   0  0  0  0  0  0  0  0  0  0  0  0
  -17.1030   40.9500  -31.1220 C   0  0  0  0  0  0  0  0  0  0  0  0
  -14.3390   46.2540  -28.3790 C   0  0  0  0  0  0  0  0  0  0  0  0
  -15.9300   45.3700  -30.7940 C   0  0  0  0  0  0  0  0  0  0  0  0
  -20.9940   41.0360  -31.3300 C   0  0  0  0  0  0  0  0  0  0  0  0
  -20.4550   43.5970  -29.8310 C   0  0  0  0  0  0  0  0  0  0  0  0
  -24.8880   39.6950  -31.1440 C   0  0  0  0  0  0  0  0  0  0  0  0
  -23.6830   40.3400  -31.8240 C   0  0  0  0  0  0  0  0  0  0  0  0
  -30.7870   37.9410  -30.0880 C   0  0  0  0  0  0  0  0  0  0  0  0
  -28.1160   40.4660  -29.4310 C   0  0  0  0  0  0  0  0  0  0  0  0
  -27.3370   38.8550  -31.0430 C   0  0  0  0  0  0  0  0  0  0  0  0
  -29.5610   40.0700  -29.7990 C   0  0  0  0  0  0  0  0  0  0  0  0
  -28.7500   38.5700  -31.4330 C   0  0  0  0  0  0  0  0  0  0  0  0
  -18.4590   40.6020  -31.4170 N   0  0  0  0  0  0  0  0  0  0  0  0
  -17.6610   44.3730  -29.2250 N   0  0  0  0  0  0  0  0  0  0  0  0
  -22.8850   43.9960  -29.7630 O   0  0  0  0  0  0  0  0  0  0  0  0
  -23.4240   41.5550  -31.1840 O   0  0  0  0  0  0  0  0  0  0  0  0
  -14.6380   46.0930  -30.9710 C   0  0  0  0  0  0  0  0  0  0  0  0
  -13.8680   46.5270  -29.7700 C   0  0  0  0  0  0  0  0  0  0  0  0
  -15.6240   45.5230  -28.1990 C   0  0  0  0  0  0  0  0  0  0  0  0
  -16.7650   42.2090  -30.3920 C   0  0  0  0  0  0  0  0  0  0  0  0
  -16.4160   45.0920  -29.4050 C   0  0  0  0  0  0  0  0  0  0  0  0
  -21.8520   43.1870  -30.1630 C   0  0  0  0  0  0  0  0  0  0  0  0
  -22.1150   41.9270  -30.8950 C   0  0  0  0  0  0  0  0  0  0  0  0
  -17.8870   43.1240  -29.9520 C   0  0  0  0  0  0  0  0  0  0  0  0
  -19.5630   41.4280  -31.0140 C   0  0  0  0  0  0  0  0  0  0  0  0
  -19.3150   42.7140  -30.2680 C   0  0  0  0  0  0  0  0  0  0  0  0
  -27.2250   40.2140  -30.5710 N   0  0  0  0  0  0  0  0  0  0  0  0
  -29.5660   38.7100  -30.2710 N   0  0  0  0  0  0  0  0  0  0  0  0
  -14.4760   45.5410  -33.2900 C   0  0  0  0  0  0  0  0  0  0  0  0
   -2.5894   16.0962  -51.5601 H   0  0  0  0  0  0  0  0  0  0  0  0
   -1.8419   16.6007  -53.1136 H   0  0  0  0  0  0  0  0  0  0  0  0
   -3.4155   15.7345  -53.1136 H   0  0  0  0  0  0  0  0  0  0  0  0
   -1.2810   10.8908  -54.4854 H   0  0  0  0  0  0  0  0  0  0  0  0
   -0.0336   12.0295  -55.0752 H   0  0  0  0  0  0  0  0  0  0  0  0
   -2.3777   13.7431  -43.3301 H   0  0  0  0  0  0  0  0  0  0  0  0
   -2.7372   15.2527  -43.9788 H   0  0  0  0  0  0  0  0  0  0  0  0
   -2.1919   12.9446  -44.6352 H   0  0  0  0  0  0  0  0  0  0  0  0
   -3.3777   14.4047  -45.5615 H   0  0  0  0  0  0  0  0  0  0  0  0
   -1.9710   11.3715  -46.1090 H   0  0  0  0  0  0  0  0  0  0  0  0
   -0.3673   12.3733  -45.9833 H   0  0  0  0  0  0  0  0  0  0  0  0
   -5.1092   16.9981  -43.9854 H   0  0  0  0  0  0  0  0  0  0  0  0
   -4.8431   18.5450  -45.0203 H   0  0  0  0  0  0  0  0  0  0  0  0
   -1.1957   17.2134  -46.4605 H   0  0  0  0  0  0  0  0  0  0  0  0
   -1.4521   15.6642  -45.4342 H   0  0  0  0  0  0  0  0  0  0  0  0
   -1.0042   10.8211  -50.4419 H   0  0  0  0  0  0  0  0  0  0  0  0
    0.5561   11.8234  -50.1926 H   0  0  0  0  0  0  0  0  0  0  0  0
   -1.5605   15.4292  -50.1299 H   0  0  0  0  0  0  0  0  0  0  0  0
   -3.1228   14.4310  -50.3723 H   0  0  0  0  0  0  0  0  0  0  0  0
    0.4775    9.2708  -53.8274 H   0  0  0  0  0  0  0  0  0  0  0  0
    1.7448   10.3759  -54.4464 H   0  0  0  0  0  0  0  0  0  0  0  0
    0.5454   10.3725  -51.8374 H   0  0  0  0  0  0  0  0  0  0  0  0
    1.7077   11.5568  -52.4820 H   0  0  0  0  0  0  0  0  0  0  0  0
   -1.1774    6.9016  -58.2041 H   0  0  0  0  0  0  0  0  0  0  0  0
   -1.6418    7.8535  -59.6549 H   0  0  0  0  0  0  0  0  0  0  0  0
   -0.1183    6.9018  -59.6549 H   0  0  0  0  0  0  0  0  0  0  0  0
   -1.7140   11.3407  -57.2708 H   0  0  0  0  0  0  0  0  0  0  0  0
   -2.1209    9.6250  -56.9761 H   0  0  0  0  0  0  0  0  0  0  0  0
   -0.4895    8.1976  -55.9412 H   0  0  0  0  0  0  0  0  0  0  0  0
    1.0847    8.8797  -55.3979 H   0  0  0  0  0  0  0  0  0  0  0  0
   -1.5152    9.9119  -59.3567 H   0  0  0  0  0  0  0  0  0  0  0  0
    0.0289   10.7051  -58.9015 H   0  0  0  0  0  0  0  0  0  0  0  0
    1.7465    9.2511  -57.7168 H   0  0  0  0  0  0  0  0  0  0  0  0
    1.3119    7.5315  -57.4568 H   0  0  0  0  0  0  0  0  0  0  0  0
    0.1994   11.5393  -47.6715 H   0  0  0  0  0  0  0  0  0  0  0  0
   -4.0075   15.3297  -47.9863 H   0  0  0  0  0  0  0  0  0  0  0  0
   -1.8059   18.3688  -45.0694 H   0  0  0  0  0  0  0  0  0  0  0  0
   -3.3044   16.9609  -43.3854 H   0  0  0  0  0  0  0  0  0  0  0  0
   -4.3430   17.7011  -46.5326 H   0  0  0  0  0  0  0  0  0  0  0  0
   -1.0990   13.9716  -46.2560 H   0  0  0  0  0  0  0  0  0  0  0  0
   -3.0003   17.2364  -47.0793 H   0  0  0  0  0  0  0  0  0  0  0  0
   -2.4732   13.3402  -51.6827 H   0  0  0  0  0  0  0  0  0  0  0  0
    0.1705   13.1169  -51.4091 H   0  0  0  0  0  0  0  0  0  0  0  0
   -1.3698   14.7768  -47.5447 H   0  0  0  0  0  0  0  0  0  0  0  0
   -1.9947   11.8224  -49.1335 H   0  0  0  0  0  0  0  0  0  0  0  0
   -0.8457   14.2176  -48.8396 H   0  0  0  0  0  0  0  0  0  0  0  0
    0.6644   16.6312  -42.8338 H   0  0  0  0  0  0  0  0  0  0  0  0
    0.0694   15.9571  -44.3889 H   0  0  0  0  0  0  0  0  0  0  0  0
    1.1965   17.3558  -44.3889 H   0  0  0  0  0  0  0  0  0  0  0  0
  -22.6737   44.8649  -27.9295 H   0  0  0  0  0  0  0  0  0  0  0  0
  -21.5985   45.4858  -29.2276 H   0  0  0  0  0  0  0  0  0  0  0  0
  -23.3439   45.9102  -29.2276 H   0  0  0  0  0  0  0  0  0  0  0  0
  -25.5218   41.1275  -29.6607 H   0  0  0  0  0  0  0  0  0  0  0  0
  -25.8262   41.6282  -31.3553 H   0  0  0  0  0  0  0  0  0  0  0  0
  -14.1783   42.9051  -28.7854 H   0  0  0  0  0  0  0  0  0  0  0  0
  -13.6254   42.1906  -30.2041 H   0  0  0  0  0  0  0  0  0  0  0  0
  -15.0210   42.2223  -31.0595 H   0  0  0  0  0  0  0  0  0  0  0  0
  -15.5125   42.2595  -29.0216 H   0  0  0  0  0  0  0  0  0  0  0  0
  -16.6930   40.1235  -30.5231 H   0  0  0  0  0  0  0  0  0  0  0  0
  -16.6815   41.1336  -32.1213 H   0  0  0  0  0  0  0  0  0  0  0  0
  -13.5561   45.6640  -27.8801 H   0  0  0  0  0  0  0  0  0  0  0  0
  -14.5330   47.2514  -27.9576 H   0  0  0  0  0  0  0  0  0  0  0  0
  -16.7062   45.9674  -31.2947 H   0  0  0  0  0  0  0  0  0  0  0  0
  -15.7361   44.3716  -31.2131 H   0  0  0  0  0  0  0  0  0  0  0  0
  -21.1669   40.0541  -30.8653 H   0  0  0  0  0  0  0  0  0  0  0  0
  -21.0382   41.0823  -32.4281 H   0  0  0  0  0  0  0  0  0  0  0  0
  -20.2914   44.5849  -30.2863 H   0  0  0  0  0  0  0  0  0  0  0  0
  -20.4192   43.5526  -28.7325 H   0  0  0  0  0  0  0  0  0  0  0  0
  -24.5472   39.0937  -30.2882 H   0  0  0  0  0  0  0  0  0  0  0  0
  -25.4107   39.0476  -31.8634 H   0  0  0  0  0  0  0  0  0  0  0  0
  -22.8080   39.6790  -31.7380 H   0  0  0  0  0  0  0  0  0  0  0  0
  -23.8912   40.5074  -32.8911 H   0  0  0  0  0  0  0  0  0  0  0  0
  -30.9844   37.8167  -29.0130 H   0  0  0  0  0  0  0  0  0  0  0  0
  -31.6286   38.4724  -30.5563 H   0  0  0  0  0  0  0  0  0  0  0  0
  -30.6714   36.9524  -30.5563 H   0  0  0  0  0  0  0  0  0  0  0  0
  -28.0849   41.5348  -29.1726 H   0  0  0  0  0  0  0  0  0  0  0  0
  -27.7832   39.8666  -28.5708 H   0  0  0  0  0  0  0  0  0  0  0  0
  -27.0325   38.1642  -30.2429 H   0  0  0  0  0  0  0  0  0  0  0  0
  -26.6842   38.7194  -31.9179 H   0  0  0  0  0  0  0  0  0  0  0  0
  -30.2047   40.1550  -28.9111 H   0  0  0  0  0  0  0  0  0  0  0  0
  -29.9420   40.7387  -30.5850 H   0  0  0  0  0  0  0  0  0  0  0  0
  -29.0749   39.2828  -32.2052 H   0  0  0  0  0  0  0  0  0  0  0  0
  -28.8358   37.5513  -31.8392 H   0  0  0  0  0  0  0  0  0  0  0  0
  -18.5191   40.5208  -32.4420 H   0  0  0  0  0  0  0  0  0  0  0  0
  -17.7366   44.1527  -28.2217 H   0  0  0  0  0  0  0  0  0  0  0  0
  -15.1737   47.0536  -30.9577 H   0  0  0  0  0  0  0  0  0  0  0  0
  -13.3229   45.5715  -29.7730 H   0  0  0  0  0  0  0  0  0  0  0  0
  -16.1666   46.4798  -28.1871 H   0  0  0  0  0  0  0  0  0  0  0  0
  -16.6774   42.7413  -31.3506 H   0  0  0  0  0  0  0  0  0  0  0  0
  -16.9663   46.0444  -29.4069 H   0  0  0  0  0  0  0  0  0  0  0  0
  -21.9159   42.6358  -29.2132 H   0  0  0  0  0  0  0  0  0  0  0  0
  -22.0572   42.4668  -31.8517 H   0  0  0  0  0  0  0  0  0  0  0  0
  -17.8184   43.6670  -30.9062 H   0  0  0  0  0  0  0  0  0  0  0  0
  -19.6238   40.8818  -30.0611 H   0  0  0  0  0  0  0  0  0  0  0  0
  -19.2598   43.2577  -31.2227 H   0  0  0  0  0  0  0  0  0  0  0  0
  -14.8447   44.5821  -32.8969 H   0  0  0  0  0  0  0  0  0  0  0  0
  -15.2579   46.0100  -33.9053 H   0  0  0  0  0  0  0  0  0  0  0  0
  -13.5813   45.3653  -33.9053 H   0  0  0  0  0  0  0  0  0  0  0  0
  4  7  1  0
  3 13  1  0
 13 14  1  0
 16 18  1  0
 17 19  1  0
  8 20  1  0
  1 22  1  0
 14 23  1  0
  2 24  1  0
 10 24  1  0
  5 25  1  0
  9 25  1  0
 24 25  1  0
  6 26  1  0
  9 26  1  0
  7 27  1  0
  8 27  1  0
 10 28  1  0
 21 28  1  0
 26 28  1  0
 12 29  1  0
 22 29  1  0
 11 30  1  0
 23 30  1  0
 29 30  1  0
 21 31  1  0
 27 31  1  0
 11 32  1  0
 20 32  1  0
 12 33  1  0
 31 33  1  0
 32 33  1  0
  3 34  1  0
 16 34  1  0
 17 34  1  0
 15 35  1  0
 18 35  1  0
 19 35  1  0
  2 36  1  0
 40 43  1  0
 39 49  1  0
 49 50  1  0
 52 54  1  0
 53 55  1  0
 44 56  1  0
 37 58  1  0
 50 59  1  0
 38 60  1  0
 46 60  1  0
 41 61  1  0
 45 61  1  0
 60 61  1  0
 42 62  1  0
 45 62  1  0
 43 63  1  0
 44 63  1  0
 46 64  1  0
 57 64  1  0
 62 64  1  0
 48 65  1  0
 58 65  1  0
 47 66  1  0
 59 66  1  0
 65 66  1  0
 57 67  1  0
 63 67  1  0
 47 68  1  0
 56 68  1  0
 48 69  1  0
 67 69  1  0
 68 69  1  0
 39 70  1  0
 52 70  1  0
 53 70  1  0
 51 71  1  0
 54 71  1  0
 55 71  1  0
 38 72  1  0
  1 73  1  0
  1 74  1  0
  1 75  1  0
  3 76  1  0
  3 77  1  0
  4 78  1  0
  4 79  1  0
  7 80  1  0
  7 81  1  0
  8 82  1  0
  8 83  1  0
  9 84  1  0
  9 85  1  0
 10 86  1  0
 10 87  1  0
 11 88  1  0
 11 89  1  0
 12 90  1  0
 12 91  1  0
 13 92  1  0
 13 93  1  0
 14 94  1  0
 14 95  1  0
 15 96  1  0
 15 97  1  0
 15 98  1  0
 16 99  1  0
 16100  1  0
 17101  1  0
 17102  1  0
 18103  1  0
 18104  1  0
 19105  1  0
 19106  1  0
 20107  1  0
 21108  1  0
 24109  1  0
 25110  1  0
 26111  1  0
 27112  1  0
 28113  1  0
 29114  1  0
 30115  1  0
 31116  1  0
 32117  1  0
 33118  1  0
 36119  1  0
 36120  1  0
 36121  1  0
 37122  1  0
 37123  1  0
 37124  1  0
 39125  1  0
 39126  1  0
 40127  1  0
 40128  1  0
 43129  1  0
 43130  1  0
 44131  1  0
 44132  1  0
 45133  1  0
 45134  1  0
 46135  1  0
 46136  1  0
 47137  1  0
 47138  1  0
 48139  1  0
 48140  1  0
 49141  1  0
 49142  1  0
 50143  1  0
 50144  1  0
 51145  1  0
 51146  1  0
 51147  1  0
 52148  1  0
 52149  1  0
 53150  1  0
 53151  1  0
 54152  1  0
 54153  1  0
 55154  1  0
 55155  1  0
 56156  1  0
 57157  1  0
 60158  1  0
 61159  1  0
 62160  1  0
 63161  1  0
 64162  1  0
 65163  1  0
 66164  1  0
 67165  1  0
 68166  1  0
 69167  1  0
 72168  1  0
 72169  1  0
 72170  1  0
M  END
>  <PDBID>  (1) 
3UE4

>  <PDB ID>  (1) 
3UE4

>  <Generic Name>  (1) 
Bosutinib

>  <Brand Name>  (1) 
Bosulif

>  <DrugBank ID>  (1) 
DB06616

>  <ATC Codes>  (1) 
L01XE14

>  <Ligand ID>  (1) 
DB8

>  <Target Name>  (1) 
Tyrosine-protein kinase ABL1

>  <UniProt ID>  (1) 
P00519

>  <PDB ID.1>  (1) 
3UE4

>  <Seq. Identity>  (1) 
95%

$$$$
