PDB_DB01045_99
     RDKit          3D

141145  0  0  0  0  0  0  0  0999 V2000
  116.7180   26.8860   -8.5540 C   0  0  0  0  0  0  0  0  0  0  0  0
  115.4950   26.4760   -8.0550 C   0  0  1  0  0  0  0  0  0  0  0  0
  114.3330   26.6480   -8.7590 C   0  0  0  0  0  0  0  0  0  0  0  0
  114.3730   27.1900  -10.0160 C   0  0  0  0  0  0  0  0  0  0  0  0
  115.7040   28.1510  -11.8130 C   0  0  0  0  0  0  0  0  0  0  0  0
  116.9460   28.5060  -12.2730 C   0  0  0  0  0  0  0  0  0  0  0  0
  118.1040   28.3840  -11.6190 C   0  0  0  0  0  0  0  0  0  0  0  0
  118.0490   27.8470  -10.3520 C   0  0  0  0  0  0  0  0  0  0  0  0
  116.7710   27.4440   -9.8250 C   0  0  0  0  0  0  0  0  0  0  0  0
  115.5620   27.5890  -10.5600 C   0  0  0  0  0  0  0  0  0  0  0  0
  114.8970   28.4720  -12.8600 C   0  0  0  0  0  0  0  0  0  0  0  0
  115.4060   29.2180  -13.8230 C   0  0  2  0  0  0  0  0  0  0  0  0
  114.8720   28.5300  -15.0280 C   0  0  0  0  0  0  0  0  0  0  0  0
  119.4070   28.7930  -12.1720 C   0  0  0  0  0  0  0  0  0  0  0  0
  116.4340   25.7000   -5.8230 C   0  0  0  0  0  0  0  0  0  0  0  0
  116.1530   25.1880   -4.4410 C   0  0  1  0  0  0  0  0  0  0  0  0
  115.9770   26.1460   -3.4260 C   0  0  0  0  0  0  0  0  0  0  0  0
  115.7860   27.6710   -3.6650 C   0  0  0  0  0  0  0  0  0  0  0  0
  114.8720   28.3270   -2.8240 C   0  0  0  0  0  0  0  0  0  0  0  0
  114.6780   29.7950   -2.7340 C   0  0  1  0  0  0  0  0  0  0  0  0
  114.8060   30.3690   -4.1090 C   0  0  1  0  0  0  0  0  0  0  0  0
  113.9740   31.5660   -4.3440 C   0  0  2  0  0  0  0  0  0  0  0  0
  114.3170   32.3580   -5.5550 C   0  0  2  0  0  0  0  0  0  0  0  0
  114.1190   31.7580   -6.8780 C   0  0  2  0  0  0  0  0  0  0  0  0
  114.6150   32.6460   -7.9970 C   0  0  1  0  0  0  0  0  0  0  0  0
  114.2720   32.0030   -9.2660 C   0  0  1  0  0  0  0  0  0  0  0  0
  114.5690   32.8550  -10.4470 C   0  0  2  0  0  0  0  0  0  0  0  0
  114.4250   32.2070  -11.8210 C   0  0  0  0  0  0  0  0  0  0  0  0
  115.3380   31.3700  -12.5270 C   0  0  0  0  0  0  0  0  0  0  0  0
  115.8560   23.7150   -4.2690 C   0  0  0  0  0  0  0  0  0  0  0  0
  113.2990   29.7780   -2.2380 C   0  0  0  0  0  0  0  0  0  0  0  0
  114.4450   32.5550   -3.3480 C   0  0  0  0  0  0  0  0  0  0  0  0
  112.6290   31.7180   -6.8510 C   0  0  0  0  0  0  0  0  0  0  0  0
  115.1940   30.8620   -9.2850 C   0  0  0  0  0  0  0  0  0  0  0  0
  113.8380   34.8250   -7.6800 C   0  0  2  0  0  0  0  0  0  0  0  0
  112.6860   35.7200   -7.7770 C   0  0  0  0  0  0  0  0  0  0  0  0
  116.0980   34.5780  -10.5090 C   0  0  0  0  0  0  0  0  0  0  0  0
  107.8520   25.8180   -4.6690 C   0  0  0  0  0  0  0  0  0  0  0  0
  109.6750   27.2160   -5.6180 C   0  0  0  0  0  0  0  0  0  0  0  0
  110.6240   26.9730   -6.7310 C   0  0  0  0  0  0  0  0  0  0  0  0
  111.2880   24.8770   -5.5880 C   0  0  0  0  0  0  0  0  0  0  0  0
  110.3040   25.2410   -4.5020 C   0  0  0  0  0  0  0  0  0  0  0  0
  113.0010   26.2260   -8.1410 C   0  0  0  0  0  0  0  0  0  0  0  0
  115.3190   25.9290   -6.7320 N   0  0  0  0  0  0  0  0  0  0  0  0
  112.6600   26.6980   -6.9510 N   0  0  0  0  0  0  0  0  0  0  0  0
  111.6190   26.0960   -6.2700 N   0  0  0  0  0  0  0  0  0  0  0  0
  109.2440   25.9520   -5.1450 N   0  0  0  0  0  0  0  0  0  0  0  0
  117.8700   26.7780   -7.9150 O   0  0  0  0  0  0  0  0  0  0  0  0
  119.2310   27.7250   -9.6640 O   0  0  0  0  0  0  0  0  0  0  0  0
  116.7910   29.0900  -13.6960 O   0  0  0  0  0  0  0  0  0  0  0  0
  113.7740   28.0650  -12.9250 O   0  0  0  0  0  0  0  0  0  0  0  0
  114.9850   30.5680  -13.6500 O   0  0  0  0  0  0  0  0  0  0  0  0
  115.8240   33.2530  -10.1910 O   0  0  0  0  0  0  0  0  0  0  0  0
  113.7010   33.5830   -8.1660 O   0  0  0  0  0  0  0  0  0  0  0  0
  114.8040   35.0350   -6.9850 O   0  0  0  0  0  0  0  0  0  0  0  0
  115.6400   32.6180   -5.4130 O   0  0  0  0  0  0  0  0  0  0  0  0
  116.0800   30.8290   -4.1930 O   0  0  0  0  0  0  0  0  0  0  0  0
  117.5740   25.9300   -6.1440 O   0  0  0  0  0  0  0  0  0  0  0  0
  113.2420   27.3380  -10.7340 O   0  0  0  0  0  0  0  0  0  0  0  0
  116.8767   25.8869   -8.9860 H   0  0  0  0  0  0  0  0  0  0  0  0
  115.3563   27.4610   -7.5855 H   0  0  0  0  0  0  0  0  0  0  0  0
  114.2212   27.6542   -8.3287 H   0  0  0  0  0  0  0  0  0  0  0  0
  114.2322   28.1934   -9.5878 H   0  0  0  0  0  0  0  0  0  0  0  0
  115.8293   27.1486  -12.2484 H   0  0  0  0  0  0  0  0  0  0  0  0
  116.8141   29.5135  -11.8516 H   0  0  0  0  0  0  0  0  0  0  0  0
  117.9722   29.3915  -11.1977 H   0  0  0  0  0  0  0  0  0  0  0  0
  117.9050   28.8533   -9.9317 H   0  0  0  0  0  0  0  0  0  0  0  0
  116.6342   28.4455   -9.3910 H   0  0  0  0  0  0  0  0  0  0  0  0
  115.6997   26.5875  -10.9936 H   0  0  0  0  0  0  0  0  0  0  0  0
  114.5703   29.3789  -12.3301 H   0  0  0  0  0  0  0  0  0  0  0  0
  114.2249   27.6963  -14.7177 H   0  0  0  0  0  0  0  0  0  0  0  0
  114.2885   29.2430  -15.6289 H   0  0  0  0  0  0  0  0  0  0  0  0
  115.7075   28.1416  -15.6289 H   0  0  0  0  0  0  0  0  0  0  0  0
  120.1026   29.0114  -11.3483 H   0  0  0  0  0  0  0  0  0  0  0  0
  119.8146   27.9796  -12.7903 H   0  0  0  0  0  0  0  0  0  0  0  0
  119.2766   29.6934  -12.7903 H   0  0  0  0  0  0  0  0  0  0  0  0
  116.5197   24.6661   -6.1886 H   0  0  0  0  0  0  0  0  0  0  0  0
  117.0396   24.8686   -3.8736 H   0  0  0  0  0  0  0  0  0  0  0  0
  115.0861   25.8223   -2.8679 H   0  0  0  0  0  0  0  0  0  0  0  0
  116.9781   26.1396   -2.9701 H   0  0  0  0  0  0  0  0  0  0  0  0
  116.7655   28.1548   -3.5363 H   0  0  0  0  0  0  0  0  0  0  0  0
  115.3639   27.7567   -4.6772 H   0  0  0  0  0  0  0  0  0  0  0  0
  113.8862   27.9204   -3.0942 H   0  0  0  0  0  0  0  0  0  0  0  0
  115.3409   28.1364   -1.8473 H   0  0  0  0  0  0  0  0  0  0  0  0
  115.3723   30.3865   -2.1191 H   0  0  0  0  0  0  0  0  0  0  0  0
  114.5099   29.5862   -4.8229 H   0  0  0  0  0  0  0  0  0  0  0  0
  112.9361   31.2021   -4.3604 H   0  0  0  0  0  0  0  0  0  0  0  0
  113.6230   33.2112   -5.5740 H   0  0  0  0  0  0  0  0  0  0  0  0
  114.6446   30.8080   -7.0548 H   0  0  0  0  0  0  0  0  0  0  0  0
  115.6614   32.9101   -7.7842 H   0  0  0  0  0  0  0  0  0  0  0  0
  113.1995   31.7659   -9.3261 H   0  0  0  0  0  0  0  0  0  0  0  0
  113.8295   33.6634  -10.5451 H   0  0  0  0  0  0  0  0  0  0  0  0
  113.5090   31.6031  -11.7416 H   0  0  0  0  0  0  0  0  0  0  0  0
  114.5500   33.1145  -12.4300 H   0  0  0  0  0  0  0  0  0  0  0  0
  116.1408   32.0353  -12.8776 H   0  0  0  0  0  0  0  0  0  0  0  0
  115.5335   30.5942  -11.7721 H   0  0  0  0  0  0  0  0  0  0  0  0
  115.8073   23.4735   -3.1969 H   0  0  0  0  0  0  0  0  0  0  0  0
  114.8919   23.4776   -4.7425 H   0  0  0  0  0  0  0  0  0  0  0  0
  116.6528   23.1226   -4.7425 H   0  0  0  0  0  0  0  0  0  0  0  0
  113.3050   29.7781   -1.1380 H   0  0  0  0  0  0  0  0  0  0  0  0
  112.7674   30.6697   -2.6019 H   0  0  0  0  0  0  0  0  0  0  0  0
  112.7896   28.8735   -2.6019 H   0  0  0  0  0  0  0  0  0  0  0  0
  114.2617   32.1700   -2.3340 H   0  0  0  0  0  0  0  0  0  0  0  0
  115.5225   32.7287   -3.4850 H   0  0  0  0  0  0  0  0  0  0  0  0
  113.9008   33.5011   -3.4850 H   0  0  0  0  0  0  0  0  0  0  0  0
  112.2813   31.7087   -5.8074 H   0  0  0  0  0  0  0  0  0  0  0  0
  112.2290   32.6057   -7.3628 H   0  0  0  0  0  0  0  0  0  0  0  0
  112.2772   30.8101   -7.3628 H   0  0  0  0  0  0  0  0  0  0  0  0
  115.4329   30.5664   -8.2527 H   0  0  0  0  0  0  0  0  0  0  0  0
  114.7216   30.0176   -9.8083 H   0  0  0  0  0  0  0  0  0  0  0  0
  116.1188   31.1465   -9.8083 H   0  0  0  0  0  0  0  0  0  0  0  0
  114.2873   35.5203   -8.4044 H   0  0  0  0  0  0  0  0  0  0  0  0
  112.3428   35.9867   -6.7665 H   0  0  0  0  0  0  0  0  0  0  0  0
  112.9753   36.6326   -8.3187 H   0  0  0  0  0  0  0  0  0  0  0  0
  111.8732   35.2141   -8.3187 H   0  0  0  0  0  0  0  0  0  0  0  0
  116.2183   35.1599   -9.5833 H   0  0  0  0  0  0  0  0  0  0  0  0
  117.0258   34.6295  -11.0977 H   0  0  0  0  0  0  0  0  0  0  0  0
  115.2667   34.9932  -11.0977 H   0  0  0  0  0  0  0  0  0  0  0  0
  107.8391   25.8168   -3.5691 H   0  0  0  0  0  0  0  0  0  0  0  0
  107.2541   26.6627   -5.0417 H   0  0  0  0  0  0  0  0  0  0  0  0
  107.4262   24.8747   -5.0417 H   0  0  0  0  0  0  0  0  0  0  0  0
  110.1767   27.7687   -4.8100 H   0  0  0  0  0  0  0  0  0  0  0  0
  108.8186   27.8147   -5.9616 H   0  0  0  0  0  0  0  0  0  0  0  0
  110.0933   26.5211   -7.5820 H   0  0  0  0  0  0  0  0  0  0  0  0
  111.0739   27.9203   -7.0629 H   0  0  0  0  0  0  0  0  0  0  0  0
  112.1920   24.4319   -5.1469 H   0  0  0  0  0  0  0  0  0  0  0  0
  110.8571   24.1399   -6.2816 H   0  0  0  0  0  0  0  0  0  0  0  0
  109.9155   24.3321   -4.0194 H   0  0  0  0  0  0  0  0  0  0  0  0
  110.7787   25.8514   -3.7197 H   0  0  0  0  0  0  0  0  0  0  0  0
  112.2110   26.5278   -8.8444 H   0  0  0  0  0  0  0  0  0  0  0  0
  113.1245   25.1468   -7.9676 H   0  0  0  0  0  0  0  0  0  0  0  0
  114.6774   26.5683   -6.2416 H   0  0  0  0  0  0  0  0  0  0  0  0
  113.4934   26.6329   -6.3492 H   0  0  0  0  0  0  0  0  0  0  0  0
  117.7083   26.7932   -6.9384 H   0  0  0  0  0  0  0  0  0  0  0  0
  119.0499   27.7437   -8.6909 H   0  0  0  0  0  0  0  0  0  0  0  0
  113.4165   27.9354  -12.0109 H   0  0  0  0  0  0  0  0  0  0  0  0
  114.5432   34.9783   -6.0316 H   0  0  0  0  0  0  0  0  0  0  0  0
  115.8661   32.6624   -4.4502 H   0  0  0  0  0  0  0  0  0  0  0  0
  116.4441   30.9605   -3.2818 H   0  0  0  0  0  0  0  0  0  0  0  0
  118.1293   26.0420   -5.3321 H   0  0  0  0  0  0  0  0  0  0  0  0
  112.4721   27.4388  -10.1199 H   0  0  0  0  0  0  0  0  0  0  0  0
  1  2  1  0
  2  3  1  0
  3  4  1  0
  5  6  1  0
  6  7  1  0
  7  8  1  0
  1  9  1  0
  8  9  1  0
  4 10  1  0
  5 10  1  0
  9 10  1  0
  5 11  1  0
 11 12  1  0
 12 13  1  6
  7 14  1  0
 15 16  1  0
 16 17  1  0
 17 18  1  0
 18 19  1  0
 19 20  1  0
 20 21  1  0
 21 22  1  0
 22 23  1  0
 23 24  1  0
 24 25  1  0
 25 26  1  0
 26 27  1  0
 27 28  1  0
 28 29  1  0
 16 30  1  0
 20 31  1  0
 22 32  1  0
 24 33  1  0
 26 34  1  0
 35 36  1  0
 39 40  1  0
 41 42  1  0
  3 43  1  0
  2 44  1  0
 15 44  1  0
 43 45  1  0
 40 46  1  0
 41 46  1  0
 45 46  1  0
 38 47  1  0
 39 47  1  0
 42 47  1  0
  1 48  1  0
  8 49  1  0
  6 50  1  0
 12 50  1  0
 11 51  1  0
 12 52  1  0
 29 52  1  0
 27 53  1  0
 37 53  1  0
 25 54  1  0
 35 54  1  0
 35 55  1  0
 23 56  1  0
 21 57  1  0
 15 58  1  0
  4 59  1  0
  1 60  1  0
  2 61  1  6
  3 62  1  0
  4 63  1  0
  5 64  1  0
  6 65  1  0
  7 66  1  0
  8 67  1  0
  9 68  1  0
 10 69  1  0
 11 70  1  0
 13 71  1  0
 13 72  1  0
 13 73  1  0
 14 74  1  0
 14 75  1  0
 14 76  1  0
 15 77  1  0
 16 78  1  1
 17 79  1  0
 17 80  1  0
 18 81  1  0
 18 82  1  0
 19 83  1  0
 19 84  1  0
 20 85  1  1
 21 86  1  6
 22 87  1  1
 23 88  1  6
 24 89  1  1
 25 90  1  1
 26 91  1  1
 27 92  1  6
 28 93  1  0
 28 94  1  0
 29 95  1  0
 29 96  1  0
 30 97  1  0
 30 98  1  0
 30 99  1  0
 31100  1  0
 31101  1  0
 31102  1  0
 32103  1  0
 32104  1  0
 32105  1  0
 33106  1  0
 33107  1  0
 33108  1  0
 34109  1  0
 34110  1  0
 34111  1  0
 35112  1  6
 36113  1  0
 36114  1  0
 36115  1  0
 37116  1  0
 37117  1  0
 37118  1  0
 38119  1  0
 38120  1  0
 38121  1  0
 39122  1  0
 39123  1  0
 40124  1  0
 40125  1  0
 41126  1  0
 41127  1  0
 42128  1  0
 42129  1  0
 43130  1  0
 43131  1  0
 44132  1  0
 45133  1  0
 48134  1  0
 49135  1  0
 51136  1  0
 55137  1  0
 56138  1  0
 57139  1  0
 58140  1  0
 59141  1  0
M  END
>  <PDBID>  (1) 
5UAC

>  <PDB ID>  (1) 
5UAC

>  <Generic Name>  (1) 
Rifampicin

>  <Brand Name>  (1) 
Isonarif#Rifadin#Rifadin Cap 300mg#Rifadin IV#Rifadin IV Novaplus#Rifamate#Rifampin#Rifater#Rofact 150mg#Rofact 300mg#Rifadine#Rifaldin#Rifoldin#Rimactan#Rimactane#Rofact#Tubocin

>  <DrugBank ID>  (1) 
DB01045

>  <ATC Codes>  (1) 
J04AM02#J04AB02#J04AM06#J04AM05

>  <Ligand ID>  (1) 
RFP

>  <Target Name>  (1) 
DNA-directed RNA polymerase subunit beta

>  <UniProt ID>  (1) 
P0A8V2

>  <PDB ID.1>  (1) 
5UAC

>  <Seq. Identity>  (1) 
100%

$$$$
