PDB_DB01041_95
     RDKit          3D

 29 31  0  0  0  0  0  0  0  0999 V2000
   -1.9230    7.6950   11.5530 O   0  0  0  0  0  0  0  0  0  0  0  0
   -1.7150    8.1980   12.6490 C   0  0  0  0  0  0  0  0  0  0  0  0
   -1.2940    9.4800   12.7950 N   0  0  0  0  0  0  0  0  0  0  0  0
   -1.0710   10.0980   13.9790 C   0  0  0  0  0  0  0  0  0  0  0  0
   -0.6930   11.2480   14.0060 O   0  0  0  0  0  0  0  0  0  0  0  0
   -1.3060    9.3770   15.2840 C   0  0  0  0  0  0  0  0  0  0  0  0
   -1.1110    7.8540   15.0770 C   0  0  0  0  0  0  0  0  0  0  0  0
   -2.0010    7.3990   13.8990 C   0  0  2  0  0  0  0  0  0  0  0  0
   -1.8960    5.9660   13.6690 N   0  0  0  0  0  0  0  0  0  0  0  0
   -1.1600    1.4940   12.4720 C   0  0  0  0  0  0  0  0  0  0  0  0
   -0.5210    2.7510   12.3880 C   0  0  0  0  0  0  0  0  0  0  0  0
   -1.2270    3.8480   12.9070 C   0  0  0  0  0  0  0  0  0  0  0  0
   -2.5050    3.7040   13.4760 C   0  0  0  0  0  0  0  0  0  0  0  0
    0.1860    5.7930   12.6040 O   0  0  0  0  0  0  0  0  0  0  0  0
   -3.9930    5.3480   14.4010 O   0  0  0  0  0  0  0  0  0  0  0  0
   -3.1470    2.4540   13.5350 C   0  0  0  0  0  0  0  0  0  0  0  0
   -2.4540    1.3430   13.0130 C   0  0  0  0  0  0  0  0  0  0  0  0
   -2.9000    5.0910   13.9260 C   0  0  0  0  0  0  0  0  0  0  0  0
   -0.8680    5.3160   13.0430 C   0  0  0  0  0  0  0  0  0  0  0  0
   -1.1312   10.0262   11.9370 H   0  0  0  0  0  0  0  0  0  0  0  0
   -0.5902    9.7390   16.0367 H   0  0  0  0  0  0  0  0  0  0  0  0
   -2.3321    9.5709   15.6296 H   0  0  0  0  0  0  0  0  0  0  0  0
   -0.0561    7.6432   14.8474 H   0  0  0  0  0  0  0  0  0  0  0  0
   -1.3918    7.3113   15.9917 H   0  0  0  0  0  0  0  0  0  0  0  0
   -3.0460    7.6004   14.1771 H   0  0  0  0  0  0  0  0  0  0  0  0
   -0.6308    0.6030   12.1032 H   0  0  0  0  0  0  0  0  0  0  0  0
    0.4771    2.8644   11.9396 H   0  0  0  0  0  0  0  0  0  0  0  0
   -4.1510    2.3475   13.9716 H   0  0  0  0  0  0  0  0  0  0  0  0
   -2.9264    0.3497   13.0276 H   0  0  0  0  0  0  0  0  0  0  0  0
  1  2  2  0
  2  3  1  0
  3  4  1  0
  4  5  2  0
  4  6  1  0
  6  7  1  0
  2  8  1  0
  7  8  1  0
  8  9  1  0
 10 11  2  0
 11 12  1  0
 12 13  2  0
 13 16  1  0
 10 17  1  0
 16 17  2  0
  9 18  1  0
 13 18  1  0
 15 18  2  0
  9 19  1  0
 12 19  1  0
 14 19  2  0
  3 20  1  0
  6 21  1  0
  6 22  1  0
  7 23  1  0
  7 24  1  0
  8 25  1  1
 10 26  1  0
 11 27  1  0
 16 28  1  0
 17 29  1  0
M  END
>  <PDBID>  (1) 
4CI1

>  <PDB ID>  (1) 
4CI1

>  <Generic Name>  (1) 
Thalidomide

>  <Brand Name>  (1) 
Thalomid#Contergan#Distaval#K-17#Pro-ban M#Sedalis#Softenon#Talimol#Thaled

>  <DrugBank ID>  (1) 
DB01041

>  <ATC Codes>  (1) 
L04AX02

>  <Ligand ID>  (1) 
EF2

>  <Target Name>  (1) 
Protein cereblon

>  <UniProt ID>  (1) 
Q96SW2

>  <PDB ID.1>  (1) 
4CI1

>  <Seq. Identity>  (1) 
86%

$$$$
