PDB_DB01204_99
     RDKit          3D

152156  0  0  0  0  0  0  0  0999 V2000
   29.0390   97.1640   54.4380 O   0  0  0  0  0  0  0  0  0  0  0  0
   29.0300   96.2030   53.3650 C   0  0  0  0  0  0  0  0  0  0  0  0
   27.9130   95.1650   53.5210 C   0  0  0  0  0  0  0  0  0  0  0  0
   27.9200   94.2250   52.4090 N   0  0  0  0  0  0  0  0  0  0  0  0
   27.9470   94.7210   51.0430 C   0  0  0  0  0  0  0  0  0  0  0  0
   29.1780   94.2760   50.2470 C   0  0  0  0  0  0  0  0  0  0  0  0
   30.4040   94.9800   50.5970 N   0  0  0  0  0  0  0  0  0  0  0  0
   31.5890   94.3040   50.4970 C   0  0  0  0  0  0  0  0  0  0  0  0
   31.5950   93.0400   49.9050 C   0  0  0  0  0  0  0  0  0  0  0  0
   32.7640   92.3080   49.7730 C   0  0  0  0  0  0  0  0  0  0  0  0
   32.7910   94.8320   50.9800 C   0  0  0  0  0  0  0  0  0  0  0  0
   32.8310   96.0930   51.5840 C   0  0  0  0  0  0  0  0  0  0  0  0
   31.7870   96.7620   51.7060 O   0  0  0  0  0  0  0  0  0  0  0  0
   34.0270   96.6230   52.0580 C   0  0  0  0  0  0  0  0  0  0  0  0
   34.0520   97.8810   52.6650 C   0  0  0  0  0  0  0  0  0  0  0  0
   32.9130   98.6050   52.7590 O   0  0  0  0  0  0  0  0  0  0  0  0
   35.2380   98.4110   53.1520 C   0  0  0  0  0  0  0  0  0  0  0  0
   36.4190   97.6790   53.0250 C   0  0  0  0  0  0  0  0  0  0  0  0
   36.3910   96.4220   52.4180 C   0  0  0  0  0  0  0  0  0  0  0  0
   37.5400   95.7030   52.3010 O   0  0  0  0  0  0  0  0  0  0  0  0
   35.1980   95.8910   51.9300 C   0  0  0  0  0  0  0  0  0  0  0  0
   35.1690   94.6290   51.3280 C   0  0  0  0  0  0  0  0  0  0  0  0
   36.2220   93.9580   51.2110 O   0  0  0  0  0  0  0  0  0  0  0  0
   33.9690   94.0960   50.8510 C   0  0  0  0  0  0  0  0  0  0  0  0
   33.9600   92.8320   50.2460 C   0  0  0  0  0  0  0  0  0  0  0  0
   35.1050   92.1050   50.1190 N   0  0  0  0  0  0  0  0  0  0  0  0
   35.0770   90.7670   49.5420 C   0  0  0  0  0  0  0  0  0  0  0  0
   36.0840   89.8370   50.2130 C   0  0  0  0  0  0  0  0  0  0  0  0
   35.4710   88.9520   51.1900 N   0  0  0  0  0  0  0  0  0  0  0  0
   36.2350   88.4750   52.3260 C   0  0  0  0  0  0  0  0  0  0  0  0
   36.0430   86.9720   52.5570 C   0  0  0  0  0  0  0  0  0  0  0  0
   37.3060   86.2640   52.5500 O   0  0  0  0  0  0  0  0  0  0  0  0
   26.0130   99.1000   27.9540 O   0  0  0  0  0  0  0  0  0  0  0  0
   25.2730   99.8700   28.9060 C   0  0  0  0  0  0  0  0  0  0  0  0
   26.2050  100.3680   29.9970 C   0  0  0  0  0  0  0  0  0  0  0  0
   25.8160   99.8440   31.2890 N   0  0  0  0  0  0  0  0  0  0  0  0
   26.7780   99.0860   32.0470 C   0  0  0  0  0  0  0  0  0  0  0  0
   26.5590   99.2100   33.5460 C   0  0  0  0  0  0  0  0  0  0  0  0
   26.6110  100.5750   34.0180 N   0  0  0  0  0  0  0  0  0  0  0  0
   27.7480  101.0830   34.5400 C   0  0  0  0  0  0  0  0  0  0  0  0
   28.9450  100.4000   34.3520 C   0  0  0  0  0  0  0  0  0  0  0  0
   30.1190  100.9290   34.8730 C   0  0  0  0  0  0  0  0  0  0  0  0
   27.7240  102.2940   35.2510 C   0  0  0  0  0  0  0  0  0  0  0  0
   26.5290  102.9970   35.4560 C   0  0  0  0  0  0  0  0  0  0  0  0
   25.4490  102.5470   34.9900 O   0  0  0  0  0  0  0  0  0  0  0  0
   26.5380  104.2110   36.1720 C   0  0  0  0  0  0  0  0  0  0  0  0
   25.3440  104.9120   36.3600 C   0  0  0  0  0  0  0  0  0  0  0  0
   24.1790  104.4080   35.8470 O   0  0  0  0  0  0  0  0  0  0  0  0
   25.3320  106.1120   37.0620 C   0  0  0  0  0  0  0  0  0  0  0  0
   26.5190  106.6200   37.5780 C   0  0  0  0  0  0  0  0  0  0  0  0
   27.7110  105.9240   37.4030 C   0  0  0  0  0  0  0  0  0  0  0  0
   28.8650  106.4470   37.9270 O   0  0  0  0  0  0  0  0  0  0  0  0
   27.7280  104.7180   36.6920 C   0  0  0  0  0  0  0  0  0  0  0  0
   28.9200  104.0050   36.4870 C   0  0  0  0  0  0  0  0  0  0  0  0
   30.0200  104.4110   36.9420 O   0  0  0  0  0  0  0  0  0  0  0  0
   28.9060  102.8110   35.7730 C   0  0  0  0  0  0  0  0  0  0  0  0
   30.0980  102.1280   35.5880 C   0  0  0  0  0  0  0  0  0  0  0  0
   31.2450  102.6430   36.0930 N   0  0  0  0  0  0  0  0  0  0  0  0
   32.4990  101.9760   35.7980 C   0  0  0  0  0  0  0  0  0  0  0  0
   33.6830  102.9150   35.9650 C   0  0  0  0  0  0  0  0  0  0  0  0
   34.0500  103.5120   34.6940 N   0  0  0  0  0  0  0  0  0  0  0  0
   33.3980  104.7190   34.2350 C   0  0  0  0  0  0  0  0  0  0  0  0
   33.6880  105.9110   35.1440 C   0  0  0  0  0  0  0  0  0  0  0  0
   32.5320  106.2280   35.9330 O   0  0  0  0  0  0  0  0  0  0  0  0
   29.0346   96.6889   55.3065 H   0  0  0  0  0  0  0  0  0  0  0  0
   28.8864   96.7366   52.4138 H   0  0  0  0  0  0  0  0  0  0  0  0
   29.9909   95.6680   53.3853 H   0  0  0  0  0  0  0  0  0  0  0  0
   28.0627   94.6129   54.4606 H   0  0  0  0  0  0  0  0  0  0  0  0
   26.9455   95.6882   53.5336 H   0  0  0  0  0  0  0  0  0  0  0  0
   28.7527   93.6303   52.5267 H   0  0  0  0  0  0  0  0  0  0  0  0
   27.0482   94.3565   50.5240 H   0  0  0  0  0  0  0  0  0  0  0  0
   27.9836   95.8188   51.1018 H   0  0  0  0  0  0  0  0  0  0  0  0
   29.3343   93.2020   50.4259 H   0  0  0  0  0  0  0  0  0  0  0  0
   28.9717   94.5077   49.1917 H   0  0  0  0  0  0  0  0  0  0  0  0
   30.4694   95.8035   49.9818 H   0  0  0  0  0  0  0  0  0  0  0  0
   31.4089   93.8430   51.4794 H   0  0  0  0  0  0  0  0  0  0  0  0
   30.9044   92.4183   50.4937 H   0  0  0  0  0  0  0  0  0  0  0  0
   31.3390   93.2673   48.8596 H   0  0  0  0  0  0  0  0  0  0  0  0
   32.6041   91.3540   50.2969 H   0  0  0  0  0  0  0  0  0  0  0  0
   32.9166   92.2622   48.6846 H   0  0  0  0  0  0  0  0  0  0  0  0
   32.9811   95.2951   50.0005 H   0  0  0  0  0  0  0  0  0  0  0  0
   33.0137   96.5569   50.6035 H   0  0  0  0  0  0  0  0  0  0  0  0
   31.5874   96.8899   52.6672 H   0  0  0  0  0  0  0  0  0  0  0  0
   34.2072   97.0917   51.0793 H   0  0  0  0  0  0  0  0  0  0  0  0
   34.2674   98.3463   51.6918 H   0  0  0  0  0  0  0  0  0  0  0  0
   32.6899   98.7468   53.7131 H   0  0  0  0  0  0  0  0  0  0  0  0
   35.3974   99.3684   52.6344 H   0  0  0  0  0  0  0  0  0  0  0  0
   35.0755   98.4542   54.2391 H   0  0  0  0  0  0  0  0  0  0  0  0
   37.1176   98.2987   52.4436 H   0  0  0  0  0  0  0  0  0  0  0  0
   36.6952   97.4551   54.0660 H   0  0  0  0  0  0  0  0  0  0  0  0
   36.5840   96.8894   51.4411 H   0  0  0  0  0  0  0  0  0  0  0  0
   37.8868   95.4860   53.2025 H   0  0  0  0  0  0  0  0  0  0  0  0
   35.3867   96.3634   50.9547 H   0  0  0  0  0  0  0  0  0  0  0  0
   35.3553   95.0923   50.3479 H   0  0  0  0  0  0  0  0  0  0  0  0
   36.5725   93.7346   52.1095 H   0  0  0  0  0  0  0  0  0  0  0  0
   34.1521   94.5608   49.8710 H   0  0  0  0  0  0  0  0  0  0  0  0
   34.1424   93.2993   49.2670 H   0  0  0  0  0  0  0  0  0  0  0  0
   35.7448   92.6634   49.5361 H   0  0  0  0  0  0  0  0  0  0  0  0
   34.0678   90.3473   49.6659 H   0  0  0  0  0  0  0  0  0  0  0  0
   35.3445   90.8487   48.4782 H   0  0  0  0  0  0  0  0  0  0  0  0
   36.5667   89.2238   49.4377 H   0  0  0  0  0  0  0  0  0  0  0  0
   36.8108   90.4666   50.7472 H   0  0  0  0  0  0  0  0  0  0  0  0
   34.6549   89.4517   51.5710 H   0  0  0  0  0  0  0  0  0  0  0  0
   37.3018   88.6730   52.1449 H   0  0  0  0  0  0  0  0  0  0  0  0
   35.8784   89.0046   53.2217 H   0  0  0  0  0  0  0  0  0  0  0  0
   35.5546   86.8204   53.5309 H   0  0  0  0  0  0  0  0  0  0  0  0
   35.4229   86.5756   51.7395 H   0  0  0  0  0  0  0  0  0  0  0  0
   37.5978   86.1004   53.4818 H   0  0  0  0  0  0  0  0  0  0  0  0
   26.6141   98.4746   28.4311 H   0  0  0  0  0  0  0  0  0  0  0  0
   24.8099  100.7300   28.4000 H   0  0  0  0  0  0  0  0  0  0  0  0
   24.4906   99.2402   29.3547 H   0  0  0  0  0  0  0  0  0  0  0  0
   27.2309  100.0421   29.7705 H   0  0  0  0  0  0  0  0  0  0  0  0
   26.1490  101.4660   30.0322 H   0  0  0  0  0  0  0  0  0  0  0  0
   25.5372  100.6473   31.8703 H   0  0  0  0  0  0  0  0  0  0  0  0
   26.6954   98.0262   31.7640 H   0  0  0  0  0  0  0  0  0  0  0  0
   27.7768   99.4864   31.8188 H   0  0  0  0  0  0  0  0  0  0  0  0
   25.5710   98.7929   33.7907 H   0  0  0  0  0  0  0  0  0  0  0  0
   27.3734   98.6614   34.0418 H   0  0  0  0  0  0  0  0  0  0  0  0
   26.3630  101.1726   33.2166 H   0  0  0  0  0  0  0  0  0  0  0  0
   27.5729  100.5204   35.4689 H   0  0  0  0  0  0  0  0  0  0  0  0
   28.8180   99.4018   34.7963 H   0  0  0  0  0  0  0  0  0  0  0  0
   29.1008  100.4424   33.2639 H   0  0  0  0  0  0  0  0  0  0  0  0
   30.5365  100.1668   35.5474 H   0  0  0  0  0  0  0  0  0  0  0  0
   30.6959  101.1870   33.9727 H   0  0  0  0  0  0  0  0  0  0  0  0
   27.8887  102.8471   34.3145 H   0  0  0  0  0  0  0  0  0  0  0  0
   26.6981  103.5563   34.5240 H   0  0  0  0  0  0  0  0  0  0  0  0
   24.8472  102.2963   35.7350 H   0  0  0  0  0  0  0  0  0  0  0  0
   26.7139  104.7617   35.2361 H   0  0  0  0  0  0  0  0  0  0  0  0
   25.5189  105.4612   35.4231 H   0  0  0  0  0  0  0  0  0  0  0  0
   23.5772  104.1477   36.5887 H   0  0  0  0  0  0  0  0  0  0  0  0
   24.9273  106.8756   36.3815 H   0  0  0  0  0  0  0  0  0  0  0  0
   24.7418  105.8775   37.9602 H   0  0  0  0  0  0  0  0  0  0  0  0
   26.6621  107.6124   37.1257 H   0  0  0  0  0  0  0  0  0  0  0  0
   26.3596  106.5761   38.6655 H   0  0  0  0  0  0  0  0  0  0  0  0
   27.8908  106.4680   36.4640 H   0  0  0  0  0  0  0  0  0  0  0  0
   28.8178  106.4256   38.9156 H   0  0  0  0  0  0  0  0  0  0  0  0
   27.9006  105.2715   35.7572 H   0  0  0  0  0  0  0  0  0  0  0  0
   29.0966  104.5673   35.5582 H   0  0  0  0  0  0  0  0  0  0  0  0
   29.9918  104.4006   37.9315 H   0  0  0  0  0  0  0  0  0  0  0  0
   29.0750  103.3674   34.8393 H   0  0  0  0  0  0  0  0  0  0  0  0
   30.2734  102.6864   34.6567 H   0  0  0  0  0  0  0  0  0  0  0  0
   31.3248  103.6076   35.7407 H   0  0  0  0  0  0  0  0  0  0  0  0
   32.6198  101.1234   36.4824 H   0  0  0  0  0  0  0  0  0  0  0  0
   32.4719  101.6378   34.7516 H   0  0  0  0  0  0  0  0  0  0  0  0
   33.4140  103.7121   36.6737 H   0  0  0  0  0  0  0  0  0  0  0  0
   34.5396  102.3386   36.3445 H   0  0  0  0  0  0  0  0  0  0  0  0
   35.0570  103.7220   34.7463 H   0  0  0  0  0  0  0  0  0  0  0  0
   33.7554  104.9513   33.2209 H   0  0  0  0  0  0  0  0  0  0  0  0
   32.3124  104.5419   34.2454 H   0  0  0  0  0  0  0  0  0  0  0  0
   34.5262  105.6628   35.8117 H   0  0  0  0  0  0  0  0  0  0  0  0
   33.9466  106.7808   34.5222 H   0  0  0  0  0  0  0  0  0  0  0  0
   32.7611  106.1652   36.8941 H   0  0  0  0  0  0  0  0  0  0  0  0
  1  2  1  0
  2  3  1  0
  3  4  1  0
  4  5  1  0
  5  6  1  0
  6  7  1  0
  7  8  1  0
  8  9  1  0
  9 10  1  0
  8 11  1  0
 11 12  1  0
 12 13  1  0
 12 14  1  0
 14 15  1  0
 15 16  1  0
 15 17  1  0
 17 18  1  0
 18 19  1  0
 19 20  1  0
 14 21  1  0
 19 21  1  0
 21 22  1  0
 22 23  1  0
 11 24  1  0
 22 24  1  0
 10 25  1  0
 24 25  1  0
 25 26  1  0
 26 27  1  0
 27 28  1  0
 28 29  1  0
 29 30  1  0
 30 31  1  0
 31 32  1  0
 33 34  1  0
 34 35  1  0
 35 36  1  0
 36 37  1  0
 37 38  1  0
 38 39  1  0
 39 40  1  0
 40 41  1  0
 41 42  1  0
 40 43  1  0
 43 44  1  0
 44 45  1  0
 44 46  1  0
 46 47  1  0
 47 48  1  0
 47 49  1  0
 49 50  1  0
 50 51  1  0
 51 52  1  0
 46 53  1  0
 51 53  1  0
 53 54  1  0
 54 55  1  0
 43 56  1  0
 54 56  1  0
 42 57  1  0
 56 57  1  0
 57 58  1  0
 58 59  1  0
 59 60  1  0
 60 61  1  0
 61 62  1  0
 62 63  1  0
 63 64  1  0
  1 65  1  0
  2 66  1  0
  2 67  1  0
  3 68  1  0
  3 69  1  0
  4 70  1  0
  5 71  1  0
  5 72  1  0
  6 73  1  0
  6 74  1  0
  7 75  1  0
  8 76  1  0
  9 77  1  0
  9 78  1  0
 10 79  1  0
 10 80  1  0
 11 81  1  0
 12 82  1  0
 13 83  1  0
 14 84  1  0
 15 85  1  0
 16 86  1  0
 17 87  1  0
 17 88  1  0
 18 89  1  0
 18 90  1  0
 19 91  1  0
 20 92  1  0
 21 93  1  0
 22 94  1  0
 23 95  1  0
 24 96  1  0
 25 97  1  0
 26 98  1  0
 27 99  1  0
 27100  1  0
 28101  1  0
 28102  1  0
 29103  1  0
 30104  1  0
 30105  1  0
 31106  1  0
 31107  1  0
 32108  1  0
 33109  1  0
 34110  1  0
 34111  1  0
 35112  1  0
 35113  1  0
 36114  1  0
 37115  1  0
 37116  1  0
 38117  1  0
 38118  1  0
 39119  1  0
 40120  1  0
 41121  1  0
 41122  1  0
 42123  1  0
 42124  1  0
 43125  1  0
 44126  1  0
 45127  1  0
 46128  1  0
 47129  1  0
 48130  1  0
 49131  1  0
 49132  1  0
 50133  1  0
 50134  1  0
 51135  1  0
 52136  1  0
 53137  1  0
 54138  1  0
 55139  1  0
 56140  1  0
 57141  1  0
 58142  1  0
 59143  1  0
 59144  1  0
 60145  1  0
 60146  1  0
 61147  1  0
 62148  1  0
 62149  1  0
 63150  1  0
 63151  1  0
 64152  1  0
M  END
>  <PDBID>  (1) 
4G0V

>  <PDB ID>  (1) 
4G0V

>  <Generic Name>  (1) 
Mitoxantrone

>  <Brand Name>  (1) 
Mitoxantrone#Mitoxantrone Hydrochloride#Mitoxantrone Injection#Mitoxantrone Injection USP#Novantrone#Novantrone Inj 2mg/ml

>  <DrugBank ID>  (1) 
DB01204

>  <ATC Codes>  (1) 
L01DB07

>  <Ligand ID>  (1) 
MIX

>  <Target Name>  (1) 
DNA topoisomerase 2-alpha

>  <UniProt ID>  (1) 
P11388

>  <PDB ID.1>  (1) 
4G0V

>  <Seq. Identity>  (1) 
78%

$$$$
