PDB_DB00642_89
     RDKit          3D

 52 54  0  0  0  0  0  0  0  0999 V2000
   29.2820  -55.7660  -26.1070 C   0  0  0  0  0  0  0  0  0  0  0  0
   29.6550  -55.5330  -24.7760 C   0  0  0  0  0  0  0  0  0  0  0  0
   28.9610  -56.1210  -23.6980 C   0  0  0  0  0  0  0  0  0  0  0  0
   27.8680  -56.9650  -23.9950 C   0  0  0  0  0  0  0  0  0  0  0  0
   27.4740  -57.1920  -25.3270 C   0  0  0  0  0  0  0  0  0  0  0  0
   28.1860  -56.5960  -26.3820 C   0  0  0  0  0  0  0  0  0  0  0  0
   30.0850  -55.1340  -27.2390 C   0  0  0  0  0  0  0  0  0  0  0  0
   29.3970  -53.9500  -27.9150 C   0  0  0  0  0  0  0  0  0  0  0  0
   28.1510  -54.3510  -28.6850 C   0  0  0  0  0  0  0  0  0  0  0  0
   28.0950  -55.1450  -29.8300 C   0  0  0  0  0  0  0  0  0  0  0  0
   26.7810  -55.2570  -30.2150 N   0  0  0  0  0  0  0  0  0  0  0  0
   26.0260  -54.5480  -29.3340 C   0  0  0  0  0  0  0  0  0  0  0  0
   26.8390  -53.9810  -28.3740 C   0  0  0  0  0  0  0  0  0  0  0  0
   26.1580  -53.1650  -27.3240 C   0  0  0  0  0  0  0  0  0  0  0  0
   26.8270  -52.5850  -26.4300 O   0  0  0  0  0  0  0  0  0  0  0  0
   24.7930  -53.0690  -27.3630 N   0  0  0  0  0  0  0  0  0  0  0  0
   24.0710  -53.6560  -28.3470 C   0  0  0  0  0  0  0  0  0  0  0  0
   24.6670  -54.4000  -29.3210 N   0  0  0  0  0  0  0  0  0  0  0  0
   22.7260  -53.5000  -28.3620 N   0  0  0  0  0  0  0  0  0  0  0  0
   27.1420  -57.6450  -22.8920 C   0  0  0  0  0  0  0  0  0  0  0  0
   26.2090  -58.3750  -23.1600 O   0  0  0  0  0  0  0  0  0  0  0  0
   27.6200  -57.5580  -21.6590 N   0  0  0  0  0  0  0  0  0  0  0  0
   26.9310  -58.1980  -20.5370 C   0  0  1  0  0  0  0  0  0  0  0  0
   27.4670  -59.6180  -20.2950 C   0  0  0  0  0  0  0  0  0  0  0  0
   28.9840  -59.6310  -20.1690 C   0  0  0  0  0  0  0  0  0  0  0  0
   29.5620  -61.0140  -19.9800 C   0  0  0  0  0  0  0  0  0  0  0  0
   28.9330  -61.8560  -19.2800 O   0  0  0  0  0  0  0  0  0  0  0  0
   30.6700  -61.2580  -20.5310 O   0  0  0  0  0  0  0  0  0  0  0  0
   27.0710  -57.3810  -19.2830 C   0  0  0  0  0  0  0  0  0  0  0  0
   27.9970  -56.5270  -19.2130 O   0  0  0  0  0  0  0  0  0  0  0  0
   26.2830  -57.6120  -18.3500 O   0  0  0  0  0  0  0  0  0  0  0  0
   30.5110  -54.8746  -24.5668 H   0  0  0  0  0  0  0  0  0  0  0  0
   29.2618  -55.9282  -22.6576 H   0  0  0  0  0  0  0  0  0  0  0  0
   26.6086  -57.8360  -25.5423 H   0  0  0  0  0  0  0  0  0  0  0  0
   27.8834  -56.7807  -27.4233 H   0  0  0  0  0  0  0  0  0  0  0  0
   31.0441  -54.7859  -26.8280 H   0  0  0  0  0  0  0  0  0  0  0  0
   30.2054  -55.9094  -28.0098 H   0  0  0  0  0  0  0  0  0  0  0  0
   29.1123  -53.2213  -27.1417 H   0  0  0  0  0  0  0  0  0  0  0  0
   30.1084  -53.5236  -28.6375 H   0  0  0  0  0  0  0  0  0  0  0  0
   28.9561  -55.6035  -30.3383 H   0  0  0  0  0  0  0  0  0  0  0  0
   26.4300  -55.7845  -31.0270 H   0  0  0  0  0  0  0  0  0  0  0  0
   24.0932  -54.8511  -30.0478 H   0  0  0  0  0  0  0  0  0  0  0  0
   22.1647  -53.9409  -29.1045 H   0  0  0  0  0  0  0  0  0  0  0  0
   22.2643  -52.9404  -27.6309 H   0  0  0  0  0  0  0  0  0  0  0  0
   28.4890  -57.0324  -21.4876 H   0  0  0  0  0  0  0  0  0  0  0  0
   25.8650  -58.2643  -20.8002 H   0  0  0  0  0  0  0  0  0  0  0  0
   27.0284  -60.0116  -19.3662 H   0  0  0  0  0  0  0  0  0  0  0  0
   27.1882  -60.2423  -21.1567 H   0  0  0  0  0  0  0  0  0  0  0  0
   29.4130  -59.1966  -21.0840 H   0  0  0  0  0  0  0  0  0  0  0  0
   29.2387  -59.0488  -19.2711 H   0  0  0  0  0  0  0  0  0  0  0  0
   29.3020  -62.7653  -19.1492 H   0  0  0  0  0  0  0  0  0  0  0  0
   28.1048  -55.9796  -18.3951 H   0  0  0  0  0  0  0  0  0  0  0  0
  1  2  2  0
  2  3  1  0
  3  4  2  0
  4  5  1  0
  1  6  1  0
  5  6  2  0
  1  7  1  0
  7  8  1  0
  8  9  1  0
  9 10  2  0
 10 11  1  0
 11 12  1  0
  9 13  1  0
 12 13  2  0
 13 14  1  0
 14 15  2  0
 14 16  1  0
 16 17  2  0
 12 18  1  0
 17 18  1  0
 17 19  1  0
  4 20  1  0
 20 21  2  0
 20 22  1  0
 22 23  1  0
 23 24  1  0
 24 25  1  0
 25 26  1  0
 26 27  1  0
 26 28  2  0
 23 29  1  0
 29 30  1  0
 29 31  2  0
  2 32  1  0
  3 33  1  0
  5 34  1  0
  6 35  1  0
  7 36  1  0
  7 37  1  0
  8 38  1  0
  8 39  1  0
 10 40  1  0
 11 41  1  0
 18 42  1  0
 19 43  1  0
 19 44  1  0
 22 45  1  0
 23 46  1  6
 24 47  1  0
 24 48  1  0
 25 49  1  0
 25 50  1  0
 27 51  1  0
 30 52  1  0
M  END
$$$$
