PDB_DB00820_98
     RDKit          3D

 48 53  0  0  0  0  0  0  0  0999 V2000
    3.1000   16.7710   72.5470 C   0  0  0  0  0  0  0  0  0  0  0  0
    4.1850   17.6310   73.0060 C   0  0  0  0  0  0  0  0  0  0  0  0
    4.3140   18.0010   74.3900 C   0  0  0  0  0  0  0  0  0  0  0  0
    3.3230   17.4950   75.3460 C   0  0  0  0  0  0  0  0  0  0  0  0
    3.1650   17.6590   76.7280 C   0  0  0  0  0  0  0  0  0  0  0  0
    1.9900   16.8980   77.0700 C   0  0  0  0  0  0  0  0  0  0  0  0
    1.4030   16.2600   75.9340 N   0  0  0  0  0  0  0  0  0  0  0  0
    2.2220   16.6240   74.8820 C   0  0  0  0  0  0  0  0  0  0  0  0
    2.1220   16.2670   73.4660 C   0  0  0  0  0  0  0  0  0  0  0  0
    1.4600   16.8300   78.5660 C   0  0  2  0  0  0  0  0  0  0  0  0
    1.9880   17.9870   79.4670 N   0  0  0  0  0  0  0  0  0  0  0  0
    1.5690   18.0710   80.7950 C   0  0  0  0  0  0  0  0  0  0  0  0
    0.7790   17.2620   81.3380 O   0  0  0  0  0  0  0  0  0  0  0  0
    2.0750   19.2310   81.6980 C   0  0  0  0  0  0  0  0  0  0  0  0
    3.3860   19.8780   81.3020 N   0  0  0  0  0  0  0  0  0  0  0  0
    3.8710   19.8290   79.9830 C   0  0  0  0  0  0  0  0  0  0  0  0
    4.9630   20.3640   79.6610 O   0  0  0  0  0  0  0  0  0  0  0  0
    2.9770   19.0570   78.8730 C   0  0  1  0  0  0  0  0  0  0  0  0
    3.9560   18.4360   77.8230 C   0  0  0  0  0  0  0  0  0  0  0  0
    4.1350   20.5670   82.3930 C   0  0  0  0  0  0  0  0  0  0  0  0
    1.8670   15.3790   79.1530 C   0  0  0  0  0  0  0  0  0  0  0  0
    0.8550   14.5540   79.8190 C   0  0  0  0  0  0  0  0  0  0  0  0
    1.1990   13.2670   80.3620 C   0  0  0  0  0  0  0  0  0  0  0  0
    2.5990   12.7800   80.2400 C   0  0  0  0  0  0  0  0  0  0  0  0
    3.1400   11.6050   80.6840 O   0  0  0  0  0  0  0  0  0  0  0  0
    4.5390   11.7010   80.2690 C   0  0  0  0  0  0  0  0  0  0  0  0
    4.7890   12.9650   79.5750 O   0  0  0  0  0  0  0  0  0  0  0  0
    3.5850   13.5790   79.5870 C   0  0  0  0  0  0  0  0  0  0  0  0
    3.2540   14.8490   79.0510 C   0  0  0  0  0  0  0  0  0  0  0  0
    3.0313   16.5057   71.4817 H   0  0  0  0  0  0  0  0  0  0  0  0
    4.9203   18.0046   72.2782 H   0  0  0  0  0  0  0  0  0  0  0  0
    5.1376   18.6491   74.7242 H   0  0  0  0  0  0  0  0  0  0  0  0
    0.5625   15.6654   75.9057 H   0  0  0  0  0  0  0  0  0  0  0  0
    1.3063   15.6198   73.1113 H   0  0  0  0  0  0  0  0  0  0  0  0
    0.3680   16.9624   78.5668 H   0  0  0  0  0  0  0  0  0  0  0  0
    1.3030   20.0146   81.6981 H   0  0  0  0  0  0  0  0  0  0  0  0
    2.2635   18.7723   82.6799 H   0  0  0  0  0  0  0  0  0  0  0  0
    2.3082   19.7890   78.3966 H   0  0  0  0  0  0  0  0  0  0  0  0
    4.6418   17.7437   78.3333 H   0  0  0  0  0  0  0  0  0  0  0  0
    4.5223   19.2476   77.3427 H   0  0  0  0  0  0  0  0  0  0  0  0
    3.7609   20.2229   83.3685 H   0  0  0  0  0  0  0  0  0  0  0  0
    5.2062   20.3320   82.3074 H   0  0  0  0  0  0  0  0  0  0  0  0
    3.9901   21.6540   82.3074 H   0  0  0  0  0  0  0  0  0  0  0  0
   -0.1779   14.9226   79.9045 H   0  0  0  0  0  0  0  0  0  0  0  0
    0.4364   12.6510   80.8610 H   0  0  0  0  0  0  0  0  0  0  0  0
    5.1838   11.6441   81.1584 H   0  0  0  0  0  0  0  0  0  0  0  0
    4.7609   10.8712   79.5818 H   0  0  0  0  0  0  0  0  0  0  0  0
    4.0306   15.4492   78.5544 H   0  0  0  0  0  0  0  0  0  0  0  0
  1  2  2  0
  2  3  1  0
  3  4  2  0
  4  5  1  0
  5  6  2  0
  6  7  1  0
  4  8  1  0
  7  8  1  0
  1  9  1  0
  8  9  2  0
  6 10  1  0
 10 11  1  0
 11 12  1  0
 12 13  2  0
 12 14  1  0
 14 15  1  0
 15 16  1  0
 16 17  2  0
 11 18  1  0
 16 18  1  0
  5 19  1  0
 18 19  1  0
 15 20  1  0
 10 21  1  0
 21 22  2  0
 22 23  1  0
 23 24  2  0
 24 25  1  0
 25 26  1  0
 26 27  1  0
 24 28  1  0
 27 28  1  0
 21 29  1  0
 28 29  2  0
  1 30  1  0
  2 31  1  0
  3 32  1  0
  7 33  1  0
  9 34  1  0
 10 35  1  6
 14 36  1  0
 14 37  1  0
 18 38  1  6
 19 39  1  0
 19 40  1  0
 20 41  1  0
 20 42  1  0
 20 43  1  0
 22 44  1  0
 23 45  1  0
 26 46  1  0
 26 47  1  0
 29 48  1  0
M  END
$$$$
