PDB_DB00537_95
     RDKit          3D

 42 45  0  0  0  0  0  0  0  0999 V2000
   32.9050    5.7650   23.4730 O   0  0  0  0  0  0  0  0  0  0  0  0
   33.5010    5.5910   22.3710 C   0  0  0  0  0  0  0  0  0  0  0  0
   32.8510    5.4860   21.2930 O   0  0  0  0  0  0  0  0  0  0  0  0
   35.0160    5.5110   22.3530 C   0  0  0  0  0  0  0  0  0  0  0  0
   35.7400    5.3430   23.6260 C   0  0  0  0  0  0  0  0  0  0  0  0
   37.1850    5.2710   23.6300 N   0  0  0  0  0  0  0  0  0  0  0  0
   37.9570    5.3540   22.3310 C   0  0  0  0  0  0  0  0  0  0  0  0
   39.3590    5.2800   22.3340 C   0  0  0  0  0  0  0  0  0  0  0  0
   40.0930    5.3530   21.1390 C   0  0  0  0  0  0  0  0  0  0  0  0
   41.5510    5.2810   21.2460 N   0  0  0  0  0  0  0  0  0  0  0  0
   42.0560    4.0630   21.7890 C   0  0  0  0  0  0  0  0  0  0  0  0
   43.5450    4.1560   22.0940 C   0  0  0  0  0  0  0  0  0  0  0  0
   44.2900    4.6040   20.9600 N   0  0  0  0  0  0  0  0  0  0  0  0
   43.7920    5.8400   20.4480 C   0  0  0  0  0  0  0  0  0  0  0  0
   42.3070    5.7570   20.1300 C   0  0  0  0  0  0  0  0  0  0  0  0
   39.3810    5.5190   19.9190 C   0  0  0  0  0  0  0  0  0  0  0  0
   39.9880    5.6030   18.7250 F   0  0  0  0  0  0  0  0  0  0  0  0
   37.9820    5.5930   19.9210 C   0  0  0  0  0  0  0  0  0  0  0  0
   37.2640    5.5130   21.1190 C   0  0  0  0  0  0  0  0  0  0  0  0
   35.7550    5.5930   21.1070 C   0  0  0  0  0  0  0  0  0  0  0  0
   35.1550    5.7280   20.0560 O   0  0  0  0  0  0  0  0  0  0  0  0
   37.8620    5.0930   24.8830 C   0  0  0  0  0  0  0  0  0  0  0  0
   38.6270    3.8720   25.3700 C   0  0  0  0  0  0  0  0  0  0  0  0
   37.4140    4.3550   26.1360 C   0  0  0  0  0  0  0  0  0  0  0  0
   33.4266    5.8457   24.3105 H   0  0  0  0  0  0  0  0  0  0  0  0
   35.1824    5.2725   24.5716 H   0  0  0  0  0  0  0  0  0  0  0  0
   39.8919    5.1628   23.2891 H   0  0  0  0  0  0  0  0  0  0  0  0
   41.5151    3.8365   22.7197 H   0  0  0  0  0  0  0  0  0  0  0  0
   41.9081    3.2681   21.0431 H   0  0  0  0  0  0  0  0  0  0  0  0
   43.6957    4.8644   22.9220 H   0  0  0  0  0  0  0  0  0  0  0  0
   43.9029    3.1516   22.3643 H   0  0  0  0  0  0  0  0  0  0  0  0
   45.2738    4.7311   21.2374 H   0  0  0  0  0  0  0  0  0  0  0  0
   43.9528    6.6279   21.1986 H   0  0  0  0  0  0  0  0  0  0  0  0
   44.3309    6.0685   19.5167 H   0  0  0  0  0  0  0  0  0  0  0  0
   42.1621    5.0704   19.2829 H   0  0  0  0  0  0  0  0  0  0  0  0
   41.9529    6.7689   19.8837 H   0  0  0  0  0  0  0  0  0  0  0  0
   37.4423    5.7153   18.9703 H   0  0  0  0  0  0  0  0  0  0  0  0
   38.0986    6.1393   24.6397 H   0  0  0  0  0  0  0  0  0  0  0  0
   38.5794    2.9312   24.8020 H   0  0  0  0  0  0  0  0  0  0  0  0
   39.6761    3.6644   25.6273 H   0  0  0  0  0  0  0  0  0  0  0  0
   37.5382    4.8232   27.1236 H   0  0  0  0  0  0  0  0  0  0  0  0
   36.4732    3.8946   26.4720 H   0  0  0  0  0  0  0  0  0  0  0  0
  1  2  1  0
  2  3  2  0
  2  4  1  0
  4  5  2  0
  5  6  1  0
  6  7  1  0
  7  8  1  0
  8  9  2  0
  9 10  1  0
 10 11  1  0
 11 12  1  0
 12 13  1  0
 13 14  1  0
 10 15  1  0
 14 15  1  0
  9 16  1  0
 16 17  1  0
 16 18  2  0
  7 19  2  0
 18 19  1  0
  4 20  1  0
 19 20  1  0
 20 21  2  0
  6 22  1  0
 22 23  1  0
 22 24  1  0
 23 24  1  0
  1 25  1  0
  5 26  1  0
  8 27  1  0
 11 28  1  0
 11 29  1  0
 12 30  1  0
 12 31  1  0
 13 32  1  0
 14 33  1  0
 14 34  1  0
 15 35  1  0
 15 36  1  0
 18 37  1  0
 22 38  1  0
 23 39  1  0
 23 40  1  0
 24 41  1  0
 24 42  1  0
M  END
$$$$
