PDB_DB00773_98
     RDKit          3D

 74 80  0  0  0  0  0  0  0  0999 V2000
   23.1090  -38.2420  -65.7580 C   0  0  0  0  0  0  0  0  0  0  0  0
   22.4240  -37.5110  -64.7930 O   0  0  0  0  0  0  0  0  0  0  0  0
   23.3170  -39.2900  -63.8330 C   0  0  0  0  0  0  0  0  0  0  0  0
   23.3890  -39.4740  -65.1900 O   0  0  0  0  0  0  0  0  0  0  0  0
   23.7590  -40.1690  -62.6600 C   0  0  0  0  0  0  0  0  0  0  0  0
   24.0400  -39.7180  -56.3250 O   0  0  0  0  0  0  0  0  0  0  0  0
   23.5550  -39.7110  -61.2470 C   0  0  0  0  0  0  0  0  0  0  0  0
   24.1320  -41.9760  -57.0680 O   0  0  0  0  0  0  0  0  0  0  0  0
   24.0300  -40.6310  -60.0030 C   0  0  2  0  0  0  0  0  0  0  0  0
   28.7120  -39.2610  -61.6640 O   0  0  0  0  0  0  0  0  0  0  0  0
   23.5780  -40.1870  -58.6430 C   0  0  1  0  0  0  0  0  0  0  0  0
   29.9240  -41.5930  -60.4140 O   0  0  0  0  0  0  0  0  0  0  0  0
   24.0220  -40.7930  -57.3120 C   0  0  0  0  0  0  0  0  0  0  0  0
   28.2470  -43.4850  -58.9460 O   0  0  0  0  0  0  0  0  0  0  0  0
   23.6120  -38.4880  -56.9930 C   0  0  0  0  0  0  0  0  0  0  0  0
   21.3660  -37.9700  -59.0220 O   0  0  0  0  0  0  0  0  0  0  0  0
   23.6150  -38.7430  -58.4780 C   0  0  2  0  0  0  0  0  0  0  0  0
   21.3520  -36.1280  -58.0780 O   0  0  0  0  0  0  0  0  0  0  0  0
   22.7360  -38.0070  -59.4990 C   0  0  1  0  0  0  0  0  0  0  0  0
   20.4050  -34.9600  -55.0660 O   0  0  0  0  0  0  0  0  0  0  0  0
   22.9330  -38.4480  -60.9830 C   0  0  0  0  0  0  0  0  0  0  0  0
   18.4040  -34.7970  -56.3710 O   0  0  0  0  0  0  0  0  0  0  0  0
   22.5010  -37.6000  -62.1330 C   0  0  0  0  0  0  0  0  0  0  0  0
   17.4750  -36.7800  -58.4620 O   0  0  0  0  0  0  0  0  0  0  0  0
   22.7220  -38.0790  -63.5870 C   0  0  0  0  0  0  0  0  0  0  0  0
   19.2150  -36.5410  -60.6500 O   0  0  0  0  0  0  0  0  0  0  0  0
   25.5560  -40.8890  -60.0950 C   0  0  0  0  0  0  0  0  0  0  0  0
   26.4350  -39.9190  -60.8560 C   0  0  0  0  0  0  0  0  0  0  0  0
   27.9250  -40.1580  -60.9660 C   0  0  0  0  0  0  0  0  0  0  0  0
   28.5430  -41.3760  -60.3120 C   0  0  0  0  0  0  0  0  0  0  0  0
   27.6710  -42.3500  -59.5550 C   0  0  0  0  0  0  0  0  0  0  0  0
   26.1790  -42.1100  -59.4490 C   0  0  0  0  0  0  0  0  0  0  0  0
   28.6400  -37.9090  -61.3600 C   0  0  0  0  0  0  0  0  0  0  0  0
   27.4340  -44.3980  -58.2640 C   0  0  0  0  0  0  0  0  0  0  0  0
   20.7810  -36.5510  -59.2110 C   0  0  2  0  0  0  0  0  0  0  0  0
   20.5180  -35.2110  -57.3880 C   0  0  2  0  0  0  0  0  0  0  0  0
   21.1800  -34.8570  -56.2260 C   0  0  0  0  0  0  0  0  0  0  0  0
   19.0430  -34.4680  -55.1620 C   0  0  2  0  0  0  0  0  0  0  0  0
   19.0980  -35.7190  -57.0910 C   0  0  2  0  0  0  0  0  0  0  0  0
   18.6830  -36.1130  -58.5260 C   0  0  1  0  0  0  0  0  0  0  0  0
   19.6230  -36.9360  -59.3010 C   0  0  1  0  0  0  0  0  0  0  0  0
   19.0160  -32.9910  -54.9220 C   0  0  0  0  0  0  0  0  0  0  0  0
   22.4835  -38.3695  -66.6538 H   0  0  0  0  0  0  0  0  0  0  0  0
   24.0303  -37.7275  -66.0684 H   0  0  0  0  0  0  0  0  0  0  0  0
   24.2297  -41.1438  -62.8553 H   0  0  0  0  0  0  0  0  0  0  0  0
   23.4965  -41.5869  -60.1105 H   0  0  0  0  0  0  0  0  0  0  0  0
   22.5955  -40.6658  -58.7670 H   0  0  0  0  0  0  0  0  0  0  0  0
   30.3330  -42.3877  -59.9883 H   0  0  0  0  0  0  0  0  0  0  0  0
   22.5987  -38.2162  -56.6624 H   0  0  0  0  0  0  0  0  0  0  0  0
   24.2925  -37.6602  -56.7448 H   0  0  0  0  0  0  0  0  0  0  0  0
   24.5289  -38.2182  -58.7933 H   0  0  0  0  0  0  0  0  0  0  0  0
   23.0830  -36.9649  -59.5597 H   0  0  0  0  0  0  0  0  0  0  0  0
   22.0222  -36.6277  -61.9451 H   0  0  0  0  0  0  0  0  0  0  0  0
   17.2243  -36.9184  -57.5143 H   0  0  0  0  0  0  0  0  0  0  0  0
   18.5049  -35.8536  -60.5920 H   0  0  0  0  0  0  0  0  0  0  0  0
   25.9872  -39.0343  -61.3322 H   0  0  0  0  0  0  0  0  0  0  0  0
   25.5461  -42.8240  -58.9016 H   0  0  0  0  0  0  0  0  0  0  0  0
   28.6331  -37.7786  -60.2678 H   0  0  0  0  0  0  0  0  0  0  0  0
   29.5118  -37.3905  -61.7856 H   0  0  0  0  0  0  0  0  0  0  0  0
   27.7181  -37.4861  -61.7856 H   0  0  0  0  0  0  0  0  0  0  0  0
   27.5571  -44.2598  -57.1797 H   0  0  0  0  0  0  0  0  0  0  0  0
   26.3823  -44.2285  -58.5382 H   0  0  0  0  0  0  0  0  0  0  0  0
   27.7238  -45.4231  -58.5382 H   0  0  0  0  0  0  0  0  0  0  0  0
   20.9014  -35.7693  -59.9755 H   0  0  0  0  0  0  0  0  0  0  0  0
   20.3468  -34.3452  -58.0446 H   0  0  0  0  0  0  0  0  0  0  0  0
   21.5148  -33.8139  -56.3248 H   0  0  0  0  0  0  0  0  0  0  0  0
   22.0136  -35.5654  -56.1109 H   0  0  0  0  0  0  0  0  0  0  0  0
   18.4659  -34.9805  -54.3782 H   0  0  0  0  0  0  0  0  0  0  0  0
   18.9335  -36.5737  -56.4184 H   0  0  0  0  0  0  0  0  0  0  0  0
   18.6424  -35.1575  -59.0696 H   0  0  0  0  0  0  0  0  0  0  0  0
   19.5969  -37.9948  -59.0040 H   0  0  0  0  0  0  0  0  0  0  0  0
   19.0124  -32.7954  -53.8395 H   0  0  0  0  0  0  0  0  0  0  0  0
   19.9059  -32.5296  -55.3750 H   0  0  0  0  0  0  0  0  0  0  0  0
   18.1099  -32.5624  -55.3750 H   0  0  0  0  0  0  0  0  0  0  0  0
  1  2  1  0
  1  4  1  0
  3  4  1  0
  3  5  1  0
  5  7  2  0
  7  9  1  0
  9 11  1  0
  6 13  1  0
  8 13  2  0
 11 13  1  0
  6 15  1  0
 11 17  1  0
 15 17  1  0
 16 19  1  0
 17 19  1  0
  7 21  1  0
 19 21  1  0
 21 23  2  0
  2 25  1  0
  3 25  2  0
 23 25  1  0
  9 27  1  0
 27 28  2  0
 10 29  1  0
 28 29  1  0
 12 30  1  0
 29 30  2  0
 14 31  1  0
 30 31  1  0
 27 32  1  0
 31 32  2  0
 10 33  1  0
 14 34  1  0
 16 35  1  0
 18 35  1  0
 18 36  1  0
 20 37  1  0
 36 37  1  0
 20 38  1  0
 22 38  1  0
 22 39  1  0
 36 39  1  0
 24 40  1  0
 39 40  1  0
 26 41  1  0
 35 41  1  0
 40 41  1  0
 38 42  1  0
  1 43  1  0
  1 44  1  0
  5 45  1  0
  9 46  1  6
 11 47  1  6
 12 48  1  0
 15 49  1  0
 15 50  1  0
 17 51  1  6
 19 52  1  6
 23 53  1  0
 24 54  1  0
 26 55  1  0
 28 56  1  0
 32 57  1  0
 33 58  1  0
 33 59  1  0
 33 60  1  0
 34 61  1  0
 34 62  1  0
 34 63  1  0
 35 64  1  6
 36 65  1  6
 37 66  1  0
 37 67  1  0
 38 68  1  1
 39 69  1  1
 40 70  1  6
 41 71  1  6
 42 72  1  0
 42 73  1  0
 42 74  1  0
M  END
$$$$
