PDB_DB00293_95
     RDKit          3D

 54 56  0  0  0  0  0  0  0  0999 V2000
   38.3940   58.0230   47.2850 N   0  0  0  0  0  0  0  0  0  0  0  0
   38.5690   56.8360   47.9710 C   0  0  0  0  0  0  0  0  0  0  0  0
   39.8520   56.0670   47.8810 C   0  0  0  0  0  0  0  0  0  0  0  0
   37.5000   56.3680   48.7640 N   0  0  0  0  0  0  0  0  0  0  0  0
   36.2640   57.0580   48.8890 C   0  0  0  0  0  0  0  0  0  0  0  0
   35.3670   56.6160   49.5870 O   0  0  0  0  0  0  0  0  0  0  0  0
   36.1340   58.2770   48.1650 C   0  0  0  0  0  0  0  0  0  0  0  0
   34.9740   59.0690   48.1950 C   0  0  0  0  0  0  0  0  0  0  0  0
   34.8190   60.2930   47.4820 C   0  0  0  0  0  0  0  0  0  0  0  0
   35.9210   60.7260   46.6910 C   0  0  0  0  0  0  0  0  0  0  0  0
   37.1340   59.9730   46.6110 C   0  0  0  0  0  0  0  0  0  0  0  0
   37.2130   58.7550   47.3580 C   0  0  0  0  0  0  0  0  0  0  0  0
   33.5140   61.1320   47.5520 C   0  0  0  0  0  0  0  0  0  0  0  0
   32.3680   60.7160   48.5220 N   0  0  0  0  0  0  0  0  0  0  0  0
   33.1580   61.3090   52.3440 C   0  0  0  0  0  0  0  0  0  0  0  0
   33.8710   61.4920   50.7740 S   0  0  0  0  0  0  0  0  0  0  0  0
   32.4890   60.8590   49.9640 C   0  0  0  0  0  0  0  0  0  0  0  0
   31.5560   60.5310   50.9080 C   0  0  0  0  0  0  0  0  0  0  0  0
   31.9190   60.7790   52.2390 C   0  0  0  0  0  0  0  0  0  0  0  0
   34.0060   61.7590   53.5680 C   0  0  0  0  0  0  0  0  0  0  0  0
   35.1570   62.2250   53.3430 O   0  0  0  0  0  0  0  0  0  0  0  0
   33.4510   61.6230   54.8440 N   0  0  0  0  0  0  0  0  0  0  0  0
   34.2460   62.0290   56.0340 C   0  0  1  0  0  0  0  0  0  0  0  0
   34.3380   63.5200   56.2880 C   0  0  0  0  0  0  0  0  0  0  0  0
   33.2210   64.5000   56.0330 C   0  0  0  0  0  0  0  0  0  0  0  0
   33.0590   65.5730   57.0820 C   0  0  0  0  0  0  0  0  0  0  0  0
   33.5380   66.6960   56.7950 O   0  0  0  0  0  0  0  0  0  0  0  0
   32.4620   65.2440   58.1350 O   0  0  0  0  0  0  0  0  0  0  0  0
   33.7060   61.1800   57.1640 C   0  0  0  0  0  0  0  0  0  0  0  0
   34.5400   60.4310   57.7170 O   0  0  0  0  0  0  0  0  0  0  0  0
   32.4780   61.3010   57.4240 O   0  0  0  0  0  0  0  0  0  0  0  0
   31.1480   60.2040   47.8920 C   0  0  0  0  0  0  0  0  0  0  0  0
   39.1639   58.3777   46.6999 H   0  0  0  0  0  0  0  0  0  0  0  0
   40.2194   55.8468   48.8942 H   0  0  0  0  0  0  0  0  0  0  0  0
   39.6775   55.1245   47.3414 H   0  0  0  0  0  0  0  0  0  0  0  0
   40.6010   56.6652   47.3414 H   0  0  0  0  0  0  0  0  0  0  0  0
   34.1301   58.7215   48.8091 H   0  0  0  0  0  0  0  0  0  0  0  0
   35.8369   61.6659   46.1258 H   0  0  0  0  0  0  0  0  0  0  0  0
   37.9780   60.3184   45.9959 H   0  0  0  0  0  0  0  0  0  0  0  0
   33.8091   62.1545   47.8302 H   0  0  0  0  0  0  0  0  0  0  0  0
   33.0673   60.9855   46.5575 H   0  0  0  0  0  0  0  0  0  0  0  0
   30.5806   60.0991   50.6396 H   0  0  0  0  0  0  0  0  0  0  0  0
   31.2691   60.5664   53.1006 H   0  0  0  0  0  0  0  0  0  0  0  0
   32.4998   61.2449   54.9591 H   0  0  0  0  0  0  0  0  0  0  0  0
   35.3187   61.8354   55.8861 H   0  0  0  0  0  0  0  0  0  0  0  0
   34.5845   63.6236   57.3550 H   0  0  0  0  0  0  0  0  0  0  0  0
   35.0518   63.8164   55.5053 H   0  0  0  0  0  0  0  0  0  0  0  0
   33.4134   64.9926   55.0685 H   0  0  0  0  0  0  0  0  0  0  0  0
   32.2901   63.9142   56.0476 H   0  0  0  0  0  0  0  0  0  0  0  0
   33.4659   67.4442   57.4393 H   0  0  0  0  0  0  0  0  0  0  0  0
   34.2603   59.8456   58.4648 H   0  0  0  0  0  0  0  0  0  0  0  0
   30.4316   59.9034   48.6707 H   0  0  0  0  0  0  0  0  0  0  0  0
   30.7007   60.9903   47.2662 H   0  0  0  0  0  0  0  0  0  0  0  0
   31.3959   59.3340   47.2662 H   0  0  0  0  0  0  0  0  0  0  0  0
  1  2  1  0
  2  3  1  0
  2  4  2  0
  4  5  1  0
  5  6  2  0
  5  7  1  0
  7  8  1  0
  8  9  2  0
  9 10  1  0
 10 11  2  0
  1 12  1  0
  7 12  2  0
 11 12  1  0
  9 13  1  0
 13 14  1  0
 15 16  1  0
 14 17  1  0
 16 17  1  0
 17 18  2  0
 15 19  2  0
 18 19  1  0
 15 20  1  0
 20 21  2  0
 20 22  1  0
 22 23  1  0
 23 24  1  0
 24 25  1  0
 25 26  1  0
 26 27  1  0
 26 28  2  0
 23 29  1  0
 29 30  1  0
 29 31  2  0
 14 32  1  0
  1 33  1  0
  3 34  1  0
  3 35  1  0
  3 36  1  0
  8 37  1  0
 10 38  1  0
 11 39  1  0
 13 40  1  0
 13 41  1  0
 18 42  1  0
 19 43  1  0
 22 44  1  0
 23 45  1  6
 24 46  1  0
 24 47  1  0
 25 48  1  0
 25 49  1  0
 27 50  1  0
 30 51  1  0
 32 52  1  0
 32 53  1  0
 32 54  1  0
M  END
$$$$
