PDB_DB00212_99
     RDKit          3D

220226  0  0  0  0  0  0  0  0999 V2000
   -0.7120    2.4160   -8.5340 O   0  0  0  0  0  0  0  0  0  0  0  0
    0.5450    2.8230   -7.9670 S   0  0  1  0  0  4  0  0  0  0  0  0
    0.8920    1.9090   -6.9370 O   0  0  0  0  0  0  0  0  0  0  0  0
    1.8020    2.7610   -9.0760 C   0  0  2  0  0  0  0  0  0  0  0  0
    3.1720    2.7680   -8.3870 C   0  0  0  0  0  0  0  0  0  0  0  0
    1.7560    3.9310  -10.0640 C   0  0  0  0  0  0  0  0  0  0  0  0
    1.6600    1.4730   -9.8610 C   0  0  0  0  0  0  0  0  0  0  0  0
    0.2970    4.3810   -7.4060 C   0  0  0  0  0  0  0  0  0  0  0  0
   -0.8670    4.5970   -6.4120 C   0  0  1  0  0  0  0  0  0  0  0  0
   -0.8190    6.0240   -5.8690 C   0  0  0  0  0  0  0  0  0  0  0  0
    0.4240    6.2650   -5.0360 C   0  0  0  0  0  0  0  0  0  0  0  0
    0.3630    6.1090   -3.6620 C   0  0  0  0  0  0  0  0  0  0  0  0
    1.5000    6.3480   -2.9190 C   0  0  0  0  0  0  0  0  0  0  0  0
    2.6800    6.7380   -3.5220 C   0  0  0  0  0  0  0  0  0  0  0  0
    2.7450    6.8790   -4.8850 C   0  0  0  0  0  0  0  0  0  0  0  0
    1.6100    6.6460   -5.6390 C   0  0  0  0  0  0  0  0  0  0  0  0
   -2.2160    4.5790   -7.0220 C   0  0  0  0  0  0  0  0  0  0  0  0
   -2.4010    4.9620   -8.1720 O   0  0  0  0  0  0  0  0  0  0  0  0
   -3.1750    4.1090   -6.2320 N   0  0  0  0  0  0  0  0  0  0  0  0
   -4.5450    4.0370   -6.7010 C   0  0  1  0  0  0  0  0  0  0  0  0
   -4.7460    2.6420   -7.2460 C   0  0  0  0  0  0  0  0  0  0  0  0
   -5.9630    2.5980   -8.1290 C   0  0  0  0  0  0  0  0  0  0  0  0
   -6.0110    2.5050   -9.4500 C   0  0  0  0  0  0  0  0  0  0  0  0
   -7.2130    2.4700   -9.9470 N   0  0  0  0  0  0  0  0  0  0  0  0
   -8.0240    2.5580   -8.8550 C   0  0  0  0  0  0  0  0  0  0  0  0
   -7.2360    2.6230   -7.7560 N   0  0  0  0  0  0  0  0  0  0  0  0
   -5.3800    4.2420   -5.5050 C   0  0  0  0  0  0  0  0  0  0  0  0
   -5.5070    3.3220   -4.7110 O   0  0  0  0  0  0  0  0  0  0  0  0
   -5.9100    5.4730   -5.3510 N   0  0  0  0  0  0  0  0  0  0  0  0
   -6.6730    5.7840   -4.1590 C   0  0  2  0  0  0  0  0  0  0  0  0
   -8.1830    5.7650   -4.4300 C   0  0  1  0  0  0  0  0  0  0  0  0
   -8.4830    6.7330   -5.3880 O   0  0  0  0  0  0  0  0  0  0  0  0
   -8.7130    4.4200   -5.0160 C   0  0  2  0  0  0  0  0  0  0  0  0
  -10.2300    4.2550   -4.9540 C   0  0  1  0  0  0  0  0  0  0  0  0
  -11.0300    4.9520   -6.0500 C   0  0  0  0  0  0  0  0  0  0  0  0
  -10.7920    3.4470   -6.1540 C   0  0  0  0  0  0  0  0  0  0  0  0
   -8.2020    3.5190   -4.0760 O   0  0  0  0  0  0  0  0  0  0  0  0
   -6.1200    7.1700   -3.8250 C   0  0  0  0  0  0  0  0  0  0  0  0
   -4.6950    7.1450   -3.2860 C   0  0  1  0  0  0  0  0  0  0  0  0
   -4.4040    8.5190   -2.6700 C   0  0  0  0  0  0  0  0  0  0  0  0
   -2.8840    8.6070   -2.5010 C   0  0  0  0  0  0  0  0  0  0  0  0
   -2.2990    7.4520   -1.6730 C   0  0  0  0  0  0  0  0  0  0  0  0
   -2.9480    6.0550   -1.8460 C   0  0  0  0  0  0  0  0  0  0  0  0
   -4.4390    6.0850   -2.1970 C   0  0  0  0  0  0  0  0  0  0  0  0
   -2.2700  -15.2670    8.6380 O   0  0  0  0  0  0  0  0  0  0  0  0
   -1.4700  -14.3630    7.8900 S   0  0  1  0  0  4  0  0  0  0  0  0
   -0.9550  -14.9970    6.7070 O   0  0  0  0  0  0  0  0  0  0  0  0
   -2.4820  -13.0990    7.4800 C   0  0  2  0  0  0  0  0  0  0  0  0
   -1.8910  -12.3440    6.2880 C   0  0  0  0  0  0  0  0  0  0  0  0
   -2.6330  -12.1030    8.6330 C   0  0  0  0  0  0  0  0  0  0  0  0
   -3.8510  -13.6950    7.1480 C   0  0  0  0  0  0  0  0  0  0  0  0
   -0.2640  -13.7620    8.8570 C   0  0  0  0  0  0  0  0  0  0  0  0
    1.0260  -14.5420    8.8340 C   0  0  1  0  0  0  0  0  0  0  0  0
    2.1290  -13.6260    9.2930 C   0  0  0  0  0  0  0  0  0  0  0  0
    2.6350  -12.6280    8.2680 C   0  0  0  0  0  0  0  0  0  0  0  0
    3.6920  -12.9520    7.4270 C   0  0  0  0  0  0  0  0  0  0  0  0
    4.1810  -12.0190    6.5160 C   0  0  0  0  0  0  0  0  0  0  0  0
    3.6060  -10.7530    6.4100 C   0  0  0  0  0  0  0  0  0  0  0  0
    2.5420  -10.4410    7.2460 C   0  0  0  0  0  0  0  0  0  0  0  0
    2.0650  -11.3590    8.1800 C   0  0  0  0  0  0  0  0  0  0  0  0
    0.9320  -15.6120    9.8590 C   0  0  0  0  0  0  0  0  0  0  0  0
    0.2410  -15.4390   10.8540 O   0  0  0  0  0  0  0  0  0  0  0  0
    1.6240  -16.7230    9.5870 N   0  0  0  0  0  0  0  0  0  0  0  0
    1.6800  -17.8910   10.4240 C   0  0  1  0  0  0  0  0  0  0  0  0
    0.6620  -18.7560    9.7220 C   0  0  0  0  0  0  0  0  0  0  0  0
    0.1160  -19.8020   10.6600 C   0  0  0  0  0  0  0  0  0  0  0  0
   -1.0570  -19.7880   11.2990 C   0  0  0  0  0  0  0  0  0  0  0  0
   -1.2560  -20.8230   12.0330 N   0  0  0  0  0  0  0  0  0  0  0  0
   -0.1430  -21.5870   11.8770 C   0  0  0  0  0  0  0  0  0  0  0  0
    0.7100  -20.9610   11.0240 N   0  0  0  0  0  0  0  0  0  0  0  0
    3.0830  -18.4320   10.3000 C   0  0  0  0  0  0  0  0  0  0  0  0
    3.4900  -18.9390    9.2620 O   0  0  0  0  0  0  0  0  0  0  0  0
    3.8910  -18.2770   11.3670 N   0  0  0  0  0  0  0  0  0  0  0  0
    5.2850  -18.7100   11.3360 C   0  0  2  0  0  0  0  0  0  0  0  0
    5.4540  -19.9150   12.2560 C   0  0  1  0  0  0  0  0  0  0  0  0
    4.6980  -19.6530   13.4380 O   0  0  0  0  0  0  0  0  0  0  0  0
    4.7780  -21.1670   11.7120 C   0  0  2  0  0  0  0  0  0  0  0  0
    5.3120  -22.4560   12.3420 C   0  0  1  0  0  0  0  0  0  0  0  0
    4.2320  -23.0430   13.2400 C   0  0  0  0  0  0  0  0  0  0  0  0
    4.4960  -23.6700   11.8840 C   0  0  0  0  0  0  0  0  0  0  0  0
    4.8270  -21.2170   10.2840 O   0  0  0  0  0  0  0  0  0  0  0  0
    5.9500  -17.4540   11.8630 C   0  0  0  0  0  0  0  0  0  0  0  0
    6.6040  -16.5400   10.8510 C   0  0  1  0  0  0  0  0  0  0  0  0
    5.9930  -16.6640    9.4720 C   0  0  0  0  0  0  0  0  0  0  0  0
    6.3880  -15.5490    8.5090 C   0  0  0  0  0  0  0  0  0  0  0  0
    6.4090  -14.1150    9.1060 C   0  0  0  0  0  0  0  0  0  0  0  0
    6.9520  -14.0320   10.5310 C   0  0  0  0  0  0  0  0  0  0  0  0
    6.3290  -15.1210   11.3920 C   0  0  0  0  0  0  0  0  0  0  0  0
   -1.3507    2.2092   -7.8064 H   0  0  0  0  0  0  0  0  0  0  0  0
    0.7324    2.3295   -6.0551 H   0  0  0  0  0  0  0  0  0  0  0  0
    3.0336    2.7673   -7.2957 H   0  0  0  0  0  0  0  0  0  0  0  0
    3.7371    1.8727   -8.6855 H   0  0  0  0  0  0  0  0  0  0  0  0
    3.7280    3.6690   -8.6855 H   0  0  0  0  0  0  0  0  0  0  0  0
    1.7187    4.8793   -9.5078 H   0  0  0  0  0  0  0  0  0  0  0  0
    2.6556    3.9122  -10.6968 H   0  0  0  0  0  0  0  0  0  0  0  0
    0.8607    3.8416  -10.6968 H   0  0  0  0  0  0  0  0  0  0  0  0
    1.5667    0.6272   -9.1640 H   0  0  0  0  0  0  0  0  0  0  0  0
    0.7623    1.5268  -10.4945 H   0  0  0  0  0  0  0  0  0  0  0  0
    2.5478    1.3299  -10.4945 H   0  0  0  0  0  0  0  0  0  0  0  0
    1.2225    4.7043   -6.9071 H   0  0  0  0  0  0  0  0  0  0  0  0
    0.0201    4.9627   -8.2976 H   0  0  0  0  0  0  0  0  0  0  0  0
   -0.7352    3.7829   -5.6840 H   0  0  0  0  0  0  0  0  0  0  0  0
   -0.8235    6.7276   -6.7146 H   0  0  0  0  0  0  0  0  0  0  0  0
   -1.6980    6.1758   -5.2254 H   0  0  0  0  0  0  0  0  0  0  0  0
    0.1464    7.3239   -4.9281 H   0  0  0  0  0  0  0  0  0  0  0  0
   -0.4154    6.7927   -3.2924 H   0  0  0  0  0  0  0  0  0  0  0  0
    0.1726    5.0346   -3.5225 H   0  0  0  0  0  0  0  0  0  0  0  0
    1.2416    7.1386   -2.1992 H   0  0  0  0  0  0  0  0  0  0  0  0
    1.7476    5.3487   -2.5316 H   0  0  0  0  0  0  0  0  0  0  0  0
    2.9492    7.7130   -3.0897 H   0  0  0  0  0  0  0  0  0  0  0  0
    3.3537    5.8909   -3.3254 H   0  0  0  0  0  0  0  0  0  0  0  0
    3.0591    7.9136   -5.0871 H   0  0  0  0  0  0  0  0  0  0  0  0
    3.4374    6.0840   -5.1991 H   0  0  0  0  0  0  0  0  0  0  0  0
    1.8669    5.8517   -6.3553 H   0  0  0  0  0  0  0  0  0  0  0  0
    1.3721    7.6438   -6.0362 H   0  0  0  0  0  0  0  0  0  0  0  0
   -2.3964    5.5995   -6.6531 H   0  0  0  0  0  0  0  0  0  0  0  0
   -2.8316    5.8534   -8.1577 H   0  0  0  0  0  0  0  0  0  0  0  0
   -2.9009    3.1505   -5.9732 H   0  0  0  0  0  0  0  0  0  0  0  0
   -4.7911    4.7745   -7.4791 H   0  0  0  0  0  0  0  0  0  0  0  0
   -3.8618    2.3501   -7.8316 H   0  0  0  0  0  0  0  0  0  0  0  0
   -4.8875    1.9461   -6.4059 H   0  0  0  0  0  0  0  0  0  0  0  0
   -5.9462    3.6951   -8.2068 H   0  0  0  0  0  0  0  0  0  0  0  0
   -5.4894    3.3755   -9.8745 H   0  0  0  0  0  0  0  0  0  0  0  0
   -5.5369    1.5478   -9.7127 H   0  0  0  0  0  0  0  0  0  0  0  0
   -7.3691    3.2643  -10.5839 H   0  0  0  0  0  0  0  0  0  0  0  0
   -8.6458    3.4628   -8.9231 H   0  0  0  0  0  0  0  0  0  0  0  0
   -8.6882    1.6829   -8.7993 H   0  0  0  0  0  0  0  0  0  0  0  0
   -7.4314    1.8179   -7.1440 H   0  0  0  0  0  0  0  0  0  0  0  0
   -6.2610    3.8855   -6.0589 H   0  0  0  0  0  0  0  0  0  0  0  0
   -5.4584    3.6744   -3.7871 H   0  0  0  0  0  0  0  0  0  0  0  0
   -5.1272    6.1415   -5.3870 H   0  0  0  0  0  0  0  0  0  0  0  0
   -6.5714    5.0651   -3.3327 H   0  0  0  0  0  0  0  0  0  0  0  0
   -8.6568    5.9368   -3.4522 H   0  0  0  0  0  0  0  0  0  0  0  0
   -8.7438    7.5745   -4.9364 H   0  0  0  0  0  0  0  0  0  0  0  0
   -8.4327    4.3130   -6.0743 H   0  0  0  0  0  0  0  0  0  0  0  0
  -10.3064    4.2233   -3.8571 H   0  0  0  0  0  0  0  0  0  0  0  0
  -12.0390    5.3324   -5.8328 H   0  0  0  0  0  0  0  0  0  0  0  0
  -10.8446    5.8098   -6.7132 H   0  0  0  0  0  0  0  0  0  0  0  0
  -10.1092    3.0480   -6.9186 H   0  0  0  0  0  0  0  0  0  0  0  0
  -11.4333    2.5605   -6.2674 H   0  0  0  0  0  0  0  0  0  0  0  0
   -8.3909    3.8520   -3.1630 H   0  0  0  0  0  0  0  0  0  0  0  0
   -6.1349    7.7801   -4.7402 H   0  0  0  0  0  0  0  0  0  0  0  0
   -6.7572    7.5889   -3.0323 H   0  0  0  0  0  0  0  0  0  0  0  0
   -4.0430    6.8923   -4.1352 H   0  0  0  0  0  0  0  0  0  0  0  0
   -4.7589    9.3177   -3.3379 H   0  0  0  0  0  0  0  0  0  0  0  0
   -4.9190    8.6396   -1.7055 H   0  0  0  0  0  0  0  0  0  0  0  0
   -2.4199    8.5923   -3.4982 H   0  0  0  0  0  0  0  0  0  0  0  0
   -2.6689    9.5396   -1.9588 H   0  0  0  0  0  0  0  0  0  0  0  0
   -1.2362    7.3583   -1.9408 H   0  0  0  0  0  0  0  0  0  0  0  0
   -2.4944    7.7271   -0.6260 H   0  0  0  0  0  0  0  0  0  0  0  0
   -2.4163    5.5267   -2.6511 H   0  0  0  0  0  0  0  0  0  0  0  0
   -2.8664    5.5499   -0.8722 H   0  0  0  0  0  0  0  0  0  0  0  0
   -5.0213    6.3362   -1.2982 H   0  0  0  0  0  0  0  0  0  0  0  0
   -4.7451    5.0969   -2.5712 H   0  0  0  0  0  0  0  0  0  0  0  0
   -2.1301  -15.1089    9.6052 H   0  0  0  0  0  0  0  0  0  0  0  0
   -0.3525  -15.7387    6.9658 H   0  0  0  0  0  0  0  0  0  0  0  0
   -1.2512  -11.5267    6.6523 H   0  0  0  0  0  0  0  0  0  0  0  0
   -1.2912  -13.0348    5.6773 H   0  0  0  0  0  0  0  0  0  0  0  0
   -2.7056  -11.9276    5.6773 H   0  0  0  0  0  0  0  0  0  0  0  0
   -2.5521  -12.6366    9.5915 H   0  0  0  0  0  0  0  0  0  0  0  0
   -1.8397  -11.3438    8.5679 H   0  0  0  0  0  0  0  0  0  0  0  0
   -3.6157  -11.6130    8.5679 H   0  0  0  0  0  0  0  0  0  0  0  0
   -4.3856  -13.9277    8.0808 H   0  0  0  0  0  0  0  0  0  0  0  0
   -4.4345  -12.9695    6.5622 H   0  0  0  0  0  0  0  0  0  0  0  0
   -3.7175  -14.6164    6.5622 H   0  0  0  0  0  0  0  0  0  0  0  0
   -0.0462  -12.7344    8.5304 H   0  0  0  0  0  0  0  0  0  0  0  0
   -0.6403  -13.8247    9.8887 H   0  0  0  0  0  0  0  0  0  0  0  0
    1.2115  -14.9455    7.8276 H   0  0  0  0  0  0  0  0  0  0  0  0
    1.7571  -13.0593   10.1594 H   0  0  0  0  0  0  0  0  0  0  0  0
    2.9842  -14.2807    9.5166 H   0  0  0  0  0  0  0  0  0  0  0  0
    3.3453  -12.2291    9.0071 H   0  0  0  0  0  0  0  0  0  0  0  0
    4.5357  -13.2325    8.0747 H   0  0  0  0  0  0  0  0  0  0  0  0
    3.2631  -13.7302    6.7786 H   0  0  0  0  0  0  0  0  0  0  0  0
    5.2405  -11.8620    6.7665 H   0  0  0  0  0  0  0  0  0  0  0  0
    3.9405  -12.4775    5.5455 H   0  0  0  0  0  0  0  0  0  0  0  0
    4.4001  -10.0173    6.6052 H   0  0  0  0  0  0  0  0  0  0  0  0
    3.1713  -10.7361    5.3997 H   0  0  0  0  0  0  0  0  0  0  0  0
    2.8421   -9.5471    7.8125 H   0  0  0  0  0  0  0  0  0  0  0  0
    1.7009  -10.3557    6.5422 H   0  0  0  0  0  0  0  0  0  0  0  0
    0.9967  -11.5058    7.9630 H   0  0  0  0  0  0  0  0  0  0  0  0
    2.3286  -10.8977    9.1432 H   0  0  0  0  0  0  0  0  0  0  0  0
    1.7975  -15.1836   10.3856 H   0  0  0  0  0  0  0  0  0  0  0  0
    0.7909  -15.5767   11.6657 H   0  0  0  0  0  0  0  0  0  0  0  0
    1.2653  -17.0535    8.6798 H   0  0  0  0  0  0  0  0  0  0  0  0
    1.4741  -17.7773   11.4986 H   0  0  0  0  0  0  0  0  0  0  0  0
   -0.1645  -18.1240    9.3651 H   0  0  0  0  0  0  0  0  0  0  0  0
    1.1496  -19.2601    8.8746 H   0  0  0  0  0  0  0  0  0  0  0  0
    0.5852  -19.2847   11.5099 H   0  0  0  0  0  0  0  0  0  0  0  0
   -1.0928  -18.8950   11.9403 H   0  0  0  0  0  0  0  0  0  0  0  0
   -1.8430  -19.7829   10.5295 H   0  0  0  0  0  0  0  0  0  0  0  0
   -1.3718  -20.5499   13.0194 H   0  0  0  0  0  0  0  0  0  0  0  0
    0.3474  -21.7269   12.8517 H   0  0  0  0  0  0  0  0  0  0  0  0
   -0.4220  -22.5692   11.4677 H   0  0  0  0  0  0  0  0  0  0  0  0
    0.8782  -21.5491   10.1953 H   0  0  0  0  0  0  0  0  0  0  0  0
    2.7337  -19.4167   10.6440 H   0  0  0  0  0  0  0  0  0  0  0  0
    4.0948  -19.6925    9.4778 H   0  0  0  0  0  0  0  0  0  0  0  0
    3.9042  -17.2689   11.5778 H   0  0  0  0  0  0  0  0  0  0  0  0
    5.6884  -19.0437   10.3686 H   0  0  0  0  0  0  0  0  0  0  0  0
    6.5356  -20.0662   12.3878 H   0  0  0  0  0  0  0  0  0  0  0  0
    5.2535  -19.8455   14.2345 H   0  0  0  0  0  0  0  0  0  0  0  0
    3.7205  -21.0966   12.0064 H   0  0  0  0  0  0  0  0  0  0  0  0
    6.3854  -22.2295   12.4233 H   0  0  0  0  0  0  0  0  0  0  0  0
    4.5139  -23.5809   14.1572 H   0  0  0  0  0  0  0  0  0  0  0  0
    3.3429  -22.6400   13.7470 H   0  0  0  0  0  0  0  0  0  0  0  0
    3.7579  -23.5636   11.0754 H   0  0  0  0  0  0  0  0  0  0  0  0
    4.7391  -24.6821   11.5283 H   0  0  0  0  0  0  0  0  0  0  0  0
    5.4908  -21.8944   10.0001 H   0  0  0  0  0  0  0  0  0  0  0  0
    5.1814  -16.8687   12.3890 H   0  0  0  0  0  0  0  0  0  0  0  0
    6.7758  -17.8145   12.4939 H   0  0  0  0  0  0  0  0  0  0  0  0
    7.6703  -16.7851   10.7370 H   0  0  0  0  0  0  0  0  0  0  0  0
    6.3124  -17.6232    9.0384 H   0  0  0  0  0  0  0  0  0  0  0  0
    4.9029  -16.5965    9.6027 H   0  0  0  0  0  0  0  0  0  0  0  0
    7.3966  -15.7717    8.1305 H   0  0  0  0  0  0  0  0  0  0  0  0
    5.6103  -15.5371    7.7311 H   0  0  0  0  0  0  0  0  0  0  0  0
    7.0375  -13.4832    8.4612 H   0  0  0  0  0  0  0  0  0  0  0  0
    5.3628  -13.7778    9.1489 H   0  0  0  0  0  0  0  0  0  0  0  0
    8.0440  -14.1630   10.5125 H   0  0  0  0  0  0  0  0  0  0  0  0
    6.7002  -13.0490   10.9556 H   0  0  0  0  0  0  0  0  0  0  0  0
    5.2410  -14.9626   11.4267 H   0  0  0  0  0  0  0  0  0  0  0  0
    6.7826  -15.0535   12.3918 H   0  0  0  0  0  0  0  0  0  0  0  0
  2  1  1  6
  2  3  1  0
  2  4  1  0
  4  5  1  1
  4  6  1  0
  4  7  1  0
  2  8  1  0
  8  9  1  0
  9 10  1  0
 10 11  1  0
 11 12  1  0
 12 13  1  0
 13 14  1  0
 14 15  1  0
 11 16  1  0
 15 16  1  0
  9 17  1  0
 17 18  1  0
 17 19  1  0
 19 20  1  0
 20 21  1  0
 21 22  1  0
 22 23  1  0
 23 24  1  0
 24 25  1  0
 22 26  1  0
 25 26  1  0
 20 27  1  0
 27 28  1  0
 27 29  1  0
 29 30  1  0
 30 31  1  0
 31 32  1  0
 31 33  1  0
 33 34  1  0
 34 35  1  0
 34 36  1  0
 35 36  1  0
 33 37  1  0
 30 38  1  0
 38 39  1  0
 39 40  1  0
 40 41  1  0
 41 42  1  0
 42 43  1  0
 39 44  1  0
 43 44  1  0
 46 45  1  1
 46 47  1  0
 46 48  1  0
 48 49  1  6
 48 50  1  0
 48 51  1  0
 46 52  1  0
 52 53  1  0
 53 54  1  0
 54 55  1  0
 55 56  1  0
 56 57  1  0
 57 58  1  0
 58 59  1  0
 55 60  1  0
 59 60  1  0
 53 61  1  0
 61 62  1  0
 61 63  1  0
 63 64  1  0
 64 65  1  0
 65 66  1  0
 66 67  1  0
 67 68  1  0
 68 69  1  0
 66 70  1  0
 69 70  1  0
 64 71  1  0
 71 72  1  0
 71 73  1  0
 73 74  1  0
 74 75  1  0
 75 76  1  0
 75 77  1  0
 77 78  1  0
 78 79  1  0
 78 80  1  0
 79 80  1  0
 77 81  1  0
 74 82  1  0
 82 83  1  0
 83 84  1  0
 84 85  1  0
 85 86  1  0
 86 87  1  0
 83 88  1  0
 87 88  1  0
  1 89  1  0
  3 90  1  0
  5 91  1  0
  5 92  1  0
  5 93  1  0
  6 94  1  0
  6 95  1  0
  6 96  1  0
  7 97  1  0
  7 98  1  0
  7 99  1  0
  8100  1  0
  8101  1  0
  9102  1  1
 10103  1  0
 10104  1  0
 11105  1  0
 12106  1  0
 12107  1  0
 13108  1  0
 13109  1  0
 14110  1  0
 14111  1  0
 15112  1  0
 15113  1  0
 16114  1  0
 16115  1  0
 17116  1  0
 18117  1  0
 19118  1  0
 20119  1  6
 21120  1  0
 21121  1  0
 22122  1  0
 23123  1  0
 23124  1  0
 24125  1  0
 25126  1  0
 25127  1  0
 26128  1  0
 27129  1  0
 28130  1  0
 29131  1  0
 30132  1  1
 31133  1  1
 32134  1  0
 33135  1  6
 34136  1  1
 35137  1  0
 35138  1  0
 36139  1  0
 36140  1  0
 37141  1  0
 38142  1  0
 38143  1  0
 39144  1  6
 40145  1  0
 40146  1  0
 41147  1  0
 41148  1  0
 42149  1  0
 42150  1  0
 43151  1  0
 43152  1  0
 44153  1  0
 44154  1  0
 45155  1  0
 47156  1  0
 49157  1  0
 49158  1  0
 49159  1  0
 50160  1  0
 50161  1  0
 50162  1  0
 51163  1  0
 51164  1  0
 51165  1  0
 52166  1  0
 52167  1  0
 53168  1  6
 54169  1  0
 54170  1  0
 55171  1  0
 56172  1  0
 56173  1  0
 57174  1  0
 57175  1  0
 58176  1  0
 58177  1  0
 59178  1  0
 59179  1  0
 60180  1  0
 60181  1  0
 61182  1  0
 62183  1  0
 63184  1  0
 64185  1  1
 65186  1  0
 65187  1  0
 66188  1  0
 67189  1  0
 67190  1  0
 68191  1  0
 69192  1  0
 69193  1  0
 70194  1  0
 71195  1  0
 72196  1  0
 73197  1  0
 74198  1  6
 75199  1  1
 76200  1  0
 77201  1  6
 78202  1  1
 79203  1  0
 79204  1  0
 80205  1  0
 80206  1  0
 81207  1  0
 82208  1  0
 82209  1  0
 83210  1  6
 84211  1  0
 84212  1  0
 85213  1  0
 85214  1  0
 86215  1  0
 86216  1  0
 87217  1  0
 87218  1  0
 88219  1  0
 88220  1  0
M  END
>  <PDBID>  (1) 
3D91

>  <PDB ID>  (1) 
3D91

>  <Generic Name>  (1) 
Remikiren

>  <Brand Name>  (1) 
nan

>  <DrugBank ID>  (1) 
DB00212

>  <ATC Codes>  (1) 
C09XA01

>  <Ligand ID>  (1) 
REM

>  <Target Name>  (1) 
Renin

>  <UniProt ID>  (1) 
P00797

>  <PDB ID.1>  (1) 
3D91

>  <Seq. Identity>  (1) 
100%

$$$$
