PDB_DB03849_97
     RDKit          3D

 50 52  0  0  0  0  0  0  0  0999 V2000
   14.0820    5.8760   18.9490 O   0  0  0  0  0  0  0  0  0  0  0  0
   12.9580    6.1930   18.4940 C   0  0  0  0  0  0  0  0  0  0  0  0
   11.9790    6.3800   19.2400 O   0  0  0  0  0  0  0  0  0  0  0  0
   12.7620    6.3720   17.0060 C   0  0  0  0  0  0  0  0  0  0  0  0
   14.1000    6.6980   16.3470 C   0  0  0  0  0  0  0  0  0  0  0  0
   13.9840    6.7830   14.8250 C   0  0  0  0  0  0  0  0  0  0  0  0
   12.1490    5.1170   16.3770 C   0  0  0  0  0  0  0  0  0  0  0  0
   12.0620    5.2080   14.8430 C   0  0  0  0  0  0  0  0  0  0  0  0
   13.4250    5.4970   14.2070 C   0  0  0  0  0  0  0  0  0  0  0  0
   14.3230    4.3810   14.5570 C   0  0  0  0  0  0  0  0  0  0  0  0
   15.0350    3.5150   14.8530 N   0  0  0  0  0  0  0  0  0  0  0  0
   13.4010    5.6650   12.6950 C   0  0  0  0  0  0  0  0  0  0  0  0
   12.2390    5.6860   11.9170 C   0  0  0  0  0  0  0  0  0  0  0  0
   12.3110    5.8530   10.5250 C   0  0  0  0  0  0  0  0  0  0  0  0
   13.5500    6.0030    9.9000 C   0  0  0  0  0  0  0  0  0  0  0  0
   13.7090    6.1690    8.5440 O   0  0  0  0  0  0  0  0  0  0  0  0
   12.6080    6.1300    7.6360 C   0  0  0  0  0  0  0  0  0  0  0  0
   14.6980    5.9850   10.6630 C   0  0  0  0  0  0  0  0  0  0  0  0
   14.6230    5.8190   12.0450 C   0  0  0  0  0  0  0  0  0  0  0  0
   15.9040    6.1370   10.0270 O   0  0  0  0  0  0  0  0  0  0  0  0
   17.1450    6.2900   10.7230 C   0  0  0  0  0  0  0  0  0  0  0  0
   18.2450    6.4290    9.6820 C   0  0  0  0  0  0  0  0  0  0  0  0
   18.3420    7.9250    9.4170 C   0  0  0  0  0  0  0  0  0  0  0  0
   17.8980    8.6320   10.6890 C   0  0  0  0  0  0  0  0  0  0  0  0
   17.1920    7.5830   11.5340 C   0  0  0  0  0  0  0  0  0  0  0  0
   11.1025    6.6297   18.8533 H   0  0  0  0  0  0  0  0  0  0  0  0
   12.0640    7.2063   16.8422 H   0  0  0  0  0  0  0  0  0  0  0  0
   14.4583    7.6648   16.7303 H   0  0  0  0  0  0  0  0  0  0  0  0
   14.8039    5.8881   16.5891 H   0  0  0  0  0  0  0  0  0  0  0  0
   13.3152    7.6177   14.5681 H   0  0  0  0  0  0  0  0  0  0  0  0
   14.9954    6.9364   14.4205 H   0  0  0  0  0  0  0  0  0  0  0  0
   12.7701    4.2493   16.6441 H   0  0  0  0  0  0  0  0  0  0  0  0
   11.1244    5.0159   16.7641 H   0  0  0  0  0  0  0  0  0  0  0  0
   11.6829    4.2525   14.4515 H   0  0  0  0  0  0  0  0  0  0  0  0
   11.3861    6.0381   14.5897 H   0  0  0  0  0  0  0  0  0  0  0  0
   11.2580    5.5704   12.4011 H   0  0  0  0  0  0  0  0  0  0  0  0
   11.3889    5.8657    9.9254 H   0  0  0  0  0  0  0  0  0  0  0  0
   11.6660    6.0966    8.2031 H   0  0  0  0  0  0  0  0  0  0  0  0
   12.6230    7.0292    7.0026 H   0  0  0  0  0  0  0  0  0  0  0  0
   12.6866    5.2341    7.0026 H   0  0  0  0  0  0  0  0  0  0  0  0
   15.5507    5.8094   12.6360 H   0  0  0  0  0  0  0  0  0  0  0  0
   17.2630    5.4233   11.3900 H   0  0  0  0  0  0  0  0  0  0  0  0
   19.1982    6.0417   10.0712 H   0  0  0  0  0  0  0  0  0  0  0  0
   18.0260    5.8584    8.7674 H   0  0  0  0  0  0  0  0  0  0  0  0
   19.3794    8.1992    9.1749 H   0  0  0  0  0  0  0  0  0  0  0  0
   17.7087    8.2146    8.5655 H   0  0  0  0  0  0  0  0  0  0  0  0
   18.7701    9.0314   11.2274 H   0  0  0  0  0  0  0  0  0  0  0  0
   17.2335    9.4795   10.4651 H   0  0  0  0  0  0  0  0  0  0  0  0
   16.1701    7.9160   11.7682 H   0  0  0  0  0  0  0  0  0  0  0  0
   17.7290    7.4251   12.4809 H   0  0  0  0  0  0  0  0  0  0  0  0
  1  2  2  0
  2  3  1  0
  2  4  1  0
  4  5  1  0
  5  6  1  0
  4  7  1  0
  7  8  1  0
  6  9  1  0
  8  9  1  0
  9 10  1  0
 10 11  3  0
  9 12  1  0
 12 13  2  0
 13 14  1  0
 14 15  2  0
 15 16  1  0
 16 17  1  0
 15 18  1  0
 12 19  1  0
 18 19  2  0
 18 20  1  0
 20 21  1  0
 21 22  1  0
 22 23  1  0
 23 24  1  0
 21 25  1  0
 24 25  1  0
  3 26  1  0
  4 27  1  0
  5 28  1  0
  5 29  1  0
  6 30  1  0
  6 31  1  0
  7 32  1  0
  7 33  1  0
  8 34  1  0
  8 35  1  0
 13 36  1  0
 14 37  1  0
 17 38  1  0
 17 39  1  0
 17 40  1  0
 19 41  1  0
 21 42  1  0
 22 43  1  0
 22 44  1  0
 23 45  1  0
 23 46  1  0
 24 47  1  0
 24 48  1  0
 25 49  1  0
 25 50  1  0
M  END
$$$$
