PDB_DB00703_96
     RDKit          3D

 30 30  0  0  0  0  0  0  0  0999 V2000
   -5.5360   -0.6590   16.3410 N   0  0  0  0  0  0  0  0  0  0  0  0
   -5.9500    0.5660   16.8850 S   0  0  1  0  0  4  0  0  0  0  0  0
   -7.2680    0.7150   16.6740 O   0  0  0  0  0  0  0  0  0  0  0  0
   -5.5680    0.5850   18.2600 O   0  0  0  0  0  0  0  0  0  0  0  0
   -5.1200    1.8240   16.0980 C   0  0  1  0  0  0  0  0  0  0  0  0
   -6.1150    2.9700   15.2190 S   0  0  0  0  0  0  0  0  0  0  0  0
   -4.6820    3.7210   14.6590 C   0  0  0  0  0  0  0  0  0  0  0  0
   -3.6080    3.1390   15.0580 N   0  0  0  0  0  0  0  0  0  0  0  0
   -2.1610    3.4230   14.8250 C   0  0  0  0  0  0  0  0  0  0  0  0
   -3.8790    2.0620   15.8980 N   0  0  0  0  0  0  0  0  0  0  0  0
   -5.0590    4.7620   13.8650 N   0  0  0  0  0  0  0  0  0  0  0  0
   -5.8440    5.5350   13.2150 C   0  0  0  0  0  0  0  0  0  0  0  0
   -5.6100    6.4700   12.4320 O   0  0  0  0  0  0  0  0  0  0  0  0
   -7.2690    5.2790   13.4120 C   0  0  0  0  0  0  0  0  0  0  0  0
   -5.3141   -1.3156   17.1030 H   0  0  0  0  0  0  0  0  0  0  0  0
   -6.2917   -1.0497   15.7603 H   0  0  0  0  0  0  0  0  0  0  0  0
   -7.7375    0.7681   17.5439 H   0  0  0  0  0  0  0  0  0  0  0  0
   -6.3778    0.5447   18.8281 H   0  0  0  0  0  0  0  0  0  0  0  0
   -5.0363    1.2031   15.1938 H   0  0  0  0  0  0  0  0  0  0  0  0
   -4.6677    4.3608   15.5537 H   0  0  0  0  0  0  0  0  0  0  0  0
   -1.6468    3.5239   15.7922 H   0  0  0  0  0  0  0  0  0  0  0  0
   -1.7120    2.5958   14.2556 H   0  0  0  0  0  0  0  0  0  0  0  0
   -2.0580    4.3585   14.2556 H   0  0  0  0  0  0  0  0  0  0  0  0
   -3.4402    2.2516   16.8104 H   0  0  0  0  0  0  0  0  0  0  0  0
   -4.6134    5.5006   14.4278 H   0  0  0  0  0  0  0  0  0  0  0  0
   -5.8463    6.2416   14.0581 H   0  0  0  0  0  0  0  0  0  0  0  0
   -5.4049    7.2894   12.9484 H   0  0  0  0  0  0  0  0  0  0  0  0
   -7.4890    5.2395   14.4891 H   0  0  0  0  0  0  0  0  0  0  0  0
   -7.8542    6.0864   12.9476 H   0  0  0  0  0  0  0  0  0  0  0  0
   -7.5366    4.3184   12.9476 H   0  0  0  0  0  0  0  0  0  0  0  0
  1  2  1  0
  2  3  1  1
  2  4  1  0
  2  5  1  0
  5  6  1  0
  6  7  1  0
  7  8  1  0
  8  9  1  0
  5 10  1  0
  8 10  1  0
  7 11  1  0
 11 12  1  0
 12 13  1  0
 12 14  1  0
  1 15  1  0
  1 16  1  0
  3 17  1  0
  4 18  1  0
  5 19  1  1
  7 20  1  0
  9 21  1  0
  9 22  1  0
  9 23  1  0
 10 24  1  0
 11 25  1  0
 12 26  1  0
 13 27  1  0
 14 28  1  0
 14 29  1  0
 14 30  1  0
M  END
>  <PDBID>  (1) 
3DCS

>  <PDB ID>  (1) 
3DCS

>  <Generic Name>  (1) 
Methazolamide

>  <Brand Name>  (1) 
Methazolamide#Neptazane#Neptazane Tablets 25mg#Neptazane Tablets 25mg USP#Neptazane Tablets 50mg#Naptazane

>  <DrugBank ID>  (1) 
DB00703

>  <ATC Codes>  (1) 
S01EC05

>  <Ligand ID>  (1) 
MZM

>  <Target Name>  (1) 
Carbonic anhydrase 2

>  <UniProt ID>  (1) 
P00918

>  <PDB ID.1>  (1) 
3DCS

>  <Seq. Identity>  (1) 
99%

$$$$
