PDB_DB08895_96
     RDKit          3D

 57 59  0  0  0  0  0  0  0  0999 V2000
   -7.6470    7.9500   16.0750 C   0  0  1  0  0  0  0  0  0  0  0  0
   -6.2310    7.4610   16.2010 C   0  0  0  0  0  0  0  0  0  0  0  0
   -6.9480    5.1540   15.5120 C   0  0  0  0  0  0  0  0  0  0  0  0
   -8.3650    5.6480   15.3270 C   0  0  0  0  0  0  0  0  0  0  0  0
   -8.6520    6.8020   16.2620 C   0  0  1  0  0  0  0  0  0  0  0  0
   -6.0190    6.2600   15.4420 N   0  0  0  0  0  0  0  0  0  0  0  0
   -4.0280    7.0730   14.7950 O   0  0  0  0  0  0  0  0  0  0  0  0
   -4.8980    6.2250   14.6790 C   0  0  0  0  0  0  0  0  0  0  0  0
   -4.8550    5.0850   13.6950 C   0  0  0  0  0  0  0  0  0  0  0  0
   -3.7850    5.3070   12.7170 C   0  0  0  0  0  0  0  0  0  0  0  0
   -2.9210    5.5400   11.9730 N   0  0  0  0  0  0  0  0  0  0  0  0
   -8.7600    6.2850   17.6870 C   0  0  0  0  0  0  0  0  0  0  0  0
   -7.8760    8.9300   17.1280 N   0  0  0  0  0  0  0  0  0  0  0  0
   -7.0580    9.0570   18.5060 C   0  0  0  0  0  0  0  0  0  0  0  0
   -8.7500   10.0000   16.8320 C   0  0  0  0  0  0  0  0  0  0  0  0
   -9.5520   10.1300   15.7060 C   0  0  0  0  0  0  0  0  0  0  0  0
   -9.7960    9.3860   14.5160 C   0  0  0  0  0  0  0  0  0  0  0  0
  -10.7350   10.0700   13.7810 C   0  0  0  0  0  0  0  0  0  0  0  0
  -11.0780   11.2000   14.4750 N   0  0  0  0  0  0  0  0  0  0  0  0
  -10.3660   11.2470   15.6350 C   0  0  0  0  0  0  0  0  0  0  0  0
  -10.4780   12.2180   16.5330 N   0  0  0  0  0  0  0  0  0  0  0  0
   -9.6630   11.9930   17.5590 C   0  0  0  0  0  0  0  0  0  0  0  0
   -8.8330   10.9700   17.7520 N   0  0  0  0  0  0  0  0  0  0  0  0
   -7.7883    8.3810   15.0729 H   0  0  0  0  0  0  0  0  0  0  0  0
   -5.5492    8.2416   15.8326 H   0  0  0  0  0  0  0  0  0  0  0  0
   -6.0358    7.2386   17.2604 H   0  0  0  0  0  0  0  0  0  0  0  0
   -6.8587    4.6664   16.4940 H   0  0  0  0  0  0  0  0  0  0  0  0
   -6.7115    4.4362   14.7127 H   0  0  0  0  0  0  0  0  0  0  0  0
   -8.4985    5.9828   14.2877 H   0  0  0  0  0  0  0  0  0  0  0  0
   -9.0599    4.8261   15.5538 H   0  0  0  0  0  0  0  0  0  0  0  0
   -9.6249    7.2507   16.0127 H   0  0  0  0  0  0  0  0  0  0  0  0
   -3.8563    7.2404   15.7555 H   0  0  0  0  0  0  0  0  0  0  0  0
   -5.3974    6.8415   13.9171 H   0  0  0  0  0  0  0  0  0  0  0  0
   -4.6663    4.1451   14.2344 H   0  0  0  0  0  0  0  0  0  0  0  0
   -5.8190    5.0258   13.1685 H   0  0  0  0  0  0  0  0  0  0  0  0
   -3.3525    4.3202   12.9388 H   0  0  0  0  0  0  0  0  0  0  0  0
   -4.4879    5.8552   12.0725 H   0  0  0  0  0  0  0  0  0  0  0  0
   -2.0667    5.7704   12.5002 H   0  0  0  0  0  0  0  0  0  0  0  0
   -2.7468    4.7159   11.3801 H   0  0  0  0  0  0  0  0  0  0  0  0
   -8.5872    7.1122   18.3912 H   0  0  0  0  0  0  0  0  0  0  0  0
   -9.7646    5.8680   17.8506 H   0  0  0  0  0  0  0  0  0  0  0  0
   -8.0063    5.5007   17.8506 H   0  0  0  0  0  0  0  0  0  0  0  0
   -7.7499    8.9496   19.3544 H   0  0  0  0  0  0  0  0  0  0  0  0
   -6.2944    8.2667   18.5533 H   0  0  0  0  0  0  0  0  0  0  0  0
   -6.5700   10.0417   18.5533 H   0  0  0  0  0  0  0  0  0  0  0  0
   -7.9340   10.5224   16.3111 H   0  0  0  0  0  0  0  0  0  0  0  0
   -8.7476   10.6809   15.1966 H   0  0  0  0  0  0  0  0  0  0  0  0
   -8.8655    9.2887   13.9375 H   0  0  0  0  0  0  0  0  0  0  0  0
  -10.1582    8.3764   14.7601 H   0  0  0  0  0  0  0  0  0  0  0  0
  -10.3140   10.3464   12.8031 H   0  0  0  0  0  0  0  0  0  0  0  0
  -11.6218    9.4406   13.6154 H   0  0  0  0  0  0  0  0  0  0  0  0
  -10.8647   12.0317   13.9060 H   0  0  0  0  0  0  0  0  0  0  0  0
   -9.5648   11.7982   15.1209 H   0  0  0  0  0  0  0  0  0  0  0  0
  -10.2320   13.1168   16.0942 H   0  0  0  0  0  0  0  0  0  0  0  0
   -9.0172   12.8826   17.5979 H   0  0  0  0  0  0  0  0  0  0  0  0
  -10.4215   11.7268   18.3098 H   0  0  0  0  0  0  0  0  0  0  0  0
   -9.1132   10.5206   18.6354 H   0  0  0  0  0  0  0  0  0  0  0  0
  1  2  1  0
  3  4  1  0
  1  5  1  0
  4  5  1  0
  2  6  1  0
  3  6  1  0
  6  8  1  0
  7  8  1  0
  8  9  1  0
  9 10  1  0
 10 11  1  0
  5 12  1  0
  1 13  1  0
 13 14  1  0
 13 15  1  0
 15 16  1  0
 16 17  1  0
 17 18  1  0
 18 19  1  0
 16 20  1  0
 19 20  1  0
 20 21  1  0
 21 22  1  0
 15 23  1  0
 22 23  1  0
  1 24  1  6
  2 25  1  0
  2 26  1  0
  3 27  1  0
  3 28  1  0
  4 29  1  0
  4 30  1  0
  5 31  1  6
  7 32  1  0
  8 33  1  0
  9 34  1  0
  9 35  1  0
 10 36  1  0
 10 37  1  0
 11 38  1  0
 11 39  1  0
 12 40  1  0
 12 41  1  0
 12 42  1  0
 14 43  1  0
 14 44  1  0
 14 45  1  0
 15 46  1  0
 16 47  1  0
 17 48  1  0
 17 49  1  0
 18 50  1  0
 18 51  1  0
 19 52  1  0
 20 53  1  0
 21 54  1  0
 22 55  1  0
 22 56  1  0
 23 57  1  0
M  END
>  <PDBID>  (1) 
3LXN

>  <PDB ID>  (1) 
3LXN

>  <Generic Name>  (1) 
Tofacitinib

>  <Brand Name>  (1) 
Xeljanz#Xeljanz XR

>  <DrugBank ID>  (1) 
DB08895

>  <ATC Codes>  (1) 
L04AA29

>  <Ligand ID>  (1) 
MI1

>  <Target Name>  (1) 
Tyrosine-protein kinase JAK1

>  <UniProt ID>  (1) 
P23458

>  <PDB ID.1>  (1) 
3LXN

>  <Seq. Identity>  (1) 
59%

$$$$
