PDB_DB09073_99
     RDKit          3D

 62 66  0  0  0  0  0  0  0  0999 V2000
   16.4730   25.5570    3.3260 O   0  0  0  0  0  0  0  0  0  0  0  0
   15.5050   25.2870    4.0400 C   0  0  0  0  0  0  0  0  0  0  0  0
   14.3430   24.5330    3.4710 C   0  0  0  0  0  0  0  0  0  0  0  0
   15.4740   25.7210    5.4450 C   0  0  0  0  0  0  0  0  0  0  0  0
   16.3550   25.2010    6.3500 C   0  0  0  0  0  0  0  0  0  0  0  0
   17.2580   24.0690    5.9560 C   0  0  0  0  0  0  0  0  0  0  0  0
   16.3890   25.6910    7.7230 C   0  0  0  0  0  0  0  0  0  0  0  0
   17.3510   25.4040    8.6960 C   0  0  0  0  0  0  0  0  0  0  0  0
   17.4120   25.9800    9.8990 N   0  0  0  0  0  0  0  0  0  0  0  0
   16.4240   26.8420   10.1830 C   0  0  0  0  0  0  0  0  0  0  0  0
   15.4320   27.2180    9.3550 N   0  0  0  0  0  0  0  0  0  0  0  0
   15.4460   26.6610    8.1290 C   0  0  0  0  0  0  0  0  0  0  0  0
   14.5400   27.1640    7.2000 N   0  0  0  0  0  0  0  0  0  0  0  0
   13.6340   28.2790    7.5850 C   0  0  0  0  0  0  0  0  0  0  0  0
   14.0360   29.6370    7.0060 C   0  0  0  0  0  0  0  0  0  0  0  0
   12.7180   30.3190    6.7470 C   0  0  0  0  0  0  0  0  0  0  0  0
   11.7940   29.2310    6.3530 C   0  0  0  0  0  0  0  0  0  0  0  0
   12.1620   28.0550    7.2290 C   0  0  0  0  0  0  0  0  0  0  0  0
   14.5170   26.7310    5.8360 C   0  0  0  0  0  0  0  0  0  0  0  0
   13.7290   27.2180    5.0330 O   0  0  0  0  0  0  0  0  0  0  0  0
   16.4690   27.3160   11.4640 N   0  0  0  0  0  0  0  0  0  0  0  0
   15.6010   28.1320   12.1550 C   0  0  0  0  0  0  0  0  0  0  0  0
   14.9340   27.4670   13.1110 N   0  0  0  0  0  0  0  0  0  0  0  0
   14.0410   28.1470   13.8420 C   0  0  0  0  0  0  0  0  0  0  0  0
   13.7620   29.4980   13.6590 C   0  0  0  0  0  0  0  0  0  0  0  0
   14.4780   30.1740   12.6760 C   0  0  0  0  0  0  0  0  0  0  0  0
   15.4090   29.4980   11.9130 C   0  0  0  0  0  0  0  0  0  0  0  0
   12.7440   30.1180   14.3880 N   0  0  0  0  0  0  0  0  0  0  0  0
   12.9120   31.5260   14.7600 C   0  0  0  0  0  0  0  0  0  0  0  0
   11.9250   31.9060   15.8380 C   0  0  0  0  0  0  0  0  0  0  0  0
   10.5390   31.6160   15.3850 N   0  0  0  0  0  0  0  0  0  0  0  0
   10.3810   30.1800   15.0280 C   0  0  0  0  0  0  0  0  0  0  0  0
   11.3780   29.7950   13.9600 C   0  0  0  0  0  0  0  0  0  0  0  0
   13.7279   24.1339    4.2910 H   0  0  0  0  0  0  0  0  0  0  0  0
   13.7349   25.2091    2.8520 H   0  0  0  0  0  0  0  0  0  0  0  0
   14.7126   23.7022    2.8520 H   0  0  0  0  0  0  0  0  0  0  0  0
   17.6484   23.5796    6.8604 H   0  0  0  0  0  0  0  0  0  0  0  0
   16.6916   23.3388    5.3594 H   0  0  0  0  0  0  0  0  0  0  0  0
   18.0959   24.4589    5.3594 H   0  0  0  0  0  0  0  0  0  0  0  0
   18.1130   24.6488    8.4528 H   0  0  0  0  0  0  0  0  0  0  0  0
   13.7468   28.2896    8.6792 H   0  0  0  0  0  0  0  0  0  0  0  0
   14.6382   30.2084    7.7277 H   0  0  0  0  0  0  0  0  0  0  0  0
   14.6551   29.5482    6.1011 H   0  0  0  0  0  0  0  0  0  0  0  0
   12.3576   30.8218    7.6566 H   0  0  0  0  0  0  0  0  0  0  0  0
   12.7993   31.0934    5.9701 H   0  0  0  0  0  0  0  0  0  0  0  0
   10.7501   29.5301    6.5287 H   0  0  0  0  0  0  0  0  0  0  0  0
   11.8808   28.9877    5.2838 H   0  0  0  0  0  0  0  0  0  0  0  0
   12.0351   27.1093    6.6817 H   0  0  0  0  0  0  0  0  0  0  0  0
   11.5241   27.9868    8.1226 H   0  0  0  0  0  0  0  0  0  0  0  0
   17.2914   27.0114   12.0042 H   0  0  0  0  0  0  0  0  0  0  0  0
   13.4976   27.6071   14.6314 H   0  0  0  0  0  0  0  0  0  0  0  0
   14.3023   31.2466   12.5069 H   0  0  0  0  0  0  0  0  0  0  0  0
   15.9855   30.0192   11.1345 H   0  0  0  0  0  0  0  0  0  0  0  0
   13.9348   31.6829   15.1331 H   0  0  0  0  0  0  0  0  0  0  0  0
   12.7329   32.1533   13.8744 H   0  0  0  0  0  0  0  0  0  0  0  0
   12.1392   31.3268   16.7483 H   0  0  0  0  0  0  0  0  0  0  0  0
   12.0178   32.9816   16.0490 H   0  0  0  0  0  0  0  0  0  0  0  0
    9.8818   31.8483   16.1433 H   0  0  0  0  0  0  0  0  0  0  0  0
   10.5501   29.5625   15.9225 H   0  0  0  0  0  0  0  0  0  0  0  0
    9.3631   30.0153   14.6449 H   0  0  0  0  0  0  0  0  0  0  0  0
   11.1488   30.3461   13.0360 H   0  0  0  0  0  0  0  0  0  0  0  0
   11.3084   28.7114   13.7840 H   0  0  0  0  0  0  0  0  0  0  0  0
  1  2  2  0
  2  3  1  0
  2  4  1  0
  4  5  2  0
  5  6  1  0
  5  7  1  0
  7  8  1  0
  8  9  2  0
  9 10  1  0
 10 11  2  0
  7 12  2  0
 11 12  1  0
 12 13  1  0
 13 14  1  0
 14 15  1  0
 15 16  1  0
 16 17  1  0
 14 18  1  0
 17 18  1  0
  4 19  1  0
 13 19  1  0
 19 20  2  0
 10 21  1  0
 21 22  1  0
 22 23  2  0
 23 24  1  0
 24 25  2  0
 25 26  1  0
 22 27  1  0
 26 27  2  0
 25 28  1  0
 28 29  1  0
 29 30  1  0
 30 31  1  0
 31 32  1  0
 28 33  1  0
 32 33  1  0
  3 34  1  0
  3 35  1  0
  3 36  1  0
  6 37  1  0
  6 38  1  0
  6 39  1  0
  8 40  1  0
 14 41  1  0
 15 42  1  0
 15 43  1  0
 16 44  1  0
 16 45  1  0
 17 46  1  0
 17 47  1  0
 18 48  1  0
 18 49  1  0
 21 50  1  0
 24 51  1  0
 26 52  1  0
 27 53  1  0
 29 54  1  0
 29 55  1  0
 30 56  1  0
 30 57  1  0
 31 58  1  0
 32 59  1  0
 32 60  1  0
 33 61  1  0
 33 62  1  0
M  END
>  <PDBID>  (1) 
5L2I

>  <PDB ID>  (1) 
5L2I

>  <Generic Name>  (1) 
Palbociclib

>  <Brand Name>  (1) 
Ibrance

>  <DrugBank ID>  (1) 
DB09073

>  <ATC Codes>  (1) 
L01XE33

>  <Ligand ID>  (1) 
LQQ

>  <Target Name>  (1) 
Cyclin-dependent kinase 6

>  <UniProt ID>  (1) 
Q00534

>  <PDB ID.1>  (1) 
5L2I

>  <Seq. Identity>  (1) 
100%

$$$$
