PDB_DB08864_99
     RDKit          3D

 74 76  0  0  0  0  0  0  0  0999 V2000
   49.2640  -24.8940   38.2600 C   0  0  0  0  0  0  0  0  0  0  0  0
   52.3030  -25.5890   33.3850 N   0  0  0  0  0  0  0  0  0  0  0  0
   48.6710  -26.9060   39.4220 C   0  0  0  0  0  0  0  0  0  0  0  0
   49.9220  -27.3760   39.1880 C   0  0  0  0  0  0  0  0  0  0  0  0
   50.8680  -26.6400   38.5180 C   0  0  0  0  0  0  0  0  0  0  0  0
   50.5370  -25.4040   38.0430 C   0  0  0  0  0  0  0  0  0  0  0  0
   48.9500  -23.5390   37.7410 C   0  0  0  0  0  0  0  0  0  0  0  0
   48.3110  -25.6510   38.9500 C   0  0  0  0  0  0  0  0  0  0  0  0
   52.2280  -27.2300   38.3390 C   0  0  0  0  0  0  0  0  0  0  0  0
   51.5430  -24.6640   37.3590 N   0  0  0  0  0  0  0  0  0  0  0  0
   52.8320  -24.4830   33.8980 C   0  0  0  0  0  0  0  0  0  0  0  0
   52.5830  -24.1340   35.2270 C   0  0  0  0  0  0  0  0  0  0  0  0
   51.8340  -24.9830   36.0230 C   0  0  0  0  0  0  0  0  0  0  0  0
   51.3640  -26.1260   35.5000 N   0  0  0  0  0  0  0  0  0  0  0  0
   51.6270  -26.3870   34.2190 C   0  0  1  0  0  0  0  0  0  0  0  0
   51.1260  -27.5410   33.6210 N   0  0  0  0  0  0  0  0  0  0  0  0
   49.1750  -30.8700   35.2080 C   0  0  0  0  0  0  0  0  0  0  0  0
   49.6080  -30.8310   33.9050 C   0  0  0  0  0  0  0  0  0  0  0  0
   50.2500  -29.7090   33.4460 C   0  0  0  0  0  0  0  0  0  0  0  0
   50.4500  -28.5980   34.2730 C   0  0  0  0  0  0  0  0  0  0  0  0
   49.9900  -28.6280   35.5670 C   0  0  0  0  0  0  0  0  0  0  0  0
   49.3570  -29.7780   36.0180 C   0  0  0  0  0  0  0  0  0  0  0  0
   47.9930  -33.0400   36.1210 N   0  0  0  0  0  0  0  0  0  0  0  0
   48.4990  -32.0840   35.7470 C   0  0  0  0  0  0  0  0  0  0  0  0
   46.7750  -27.3310   40.9140 C   0  0  0  0  0  0  0  0  0  0  0  0
   47.7740  -27.8400   40.1710 C   0  0  0  0  0  0  0  0  0  0  0  0
   45.3310  -28.9640   42.3680 N   0  0  0  0  0  0  0  0  0  0  0  0
   45.9790  -28.2390   41.7800 C   0  0  0  0  0  0  0  0  0  0  0  0
   50.1650  -28.2520   39.5260 H   0  0  0  0  0  0  0  0  0  0  0  0
   49.7540  -23.1310   37.3730 H   0  0  0  0  0  0  0  0  0  0  0  0
   48.5990  -22.9760   38.4550 H   0  0  0  0  0  0  0  0  0  0  0  0
   48.2820  -23.6250   37.0390 H   0  0  0  0  0  0  0  0  0  0  0  0
   47.4180  -25.3030   39.0990 H   0  0  0  0  0  0  0  0  0  0  0  0
   52.7490  -26.6720   37.7340 H   0  0  0  0  0  0  0  0  0  0  0  0
   52.1340  -28.1190   37.9550 H   0  0  0  0  0  0  0  0  0  0  0  0
   52.6850  -27.2930   39.1970 H   0  0  0  0  0  0  0  0  0  0  0  0
   51.9760  -23.9820   37.7720 H   0  0  0  0  0  0  0  0  0  0  0  0
   53.3460  -23.8850   33.3290 H   0  0  0  0  0  0  0  0  0  0  0  0
   52.9370  -23.3070   35.5880 H   0  0  0  0  0  0  0  0  0  0  0  0
   51.0470  -27.5190   32.7140 H   0  0  0  0  0  0  0  0  0  0  0  0
   49.5000  -31.6030   33.3280 H   0  0  0  0  0  0  0  0  0  0  0  0
   50.5680  -29.6830   32.5310 H   0  0  0  0  0  0  0  0  0  0  0  0
   50.1210  -27.8710   36.1580 H   0  0  0  0  0  0  0  0  0  0  0  0
   49.0480  -29.8170   36.9360 H   0  0  0  0  0  0  0  0  0  0  0  0
   46.4920  -26.4140   40.7820 H   0  0  0  0  0  0  0  0  0  0  0  0
   48.0810  -28.7400   40.3550 H   0  0  0  0  0  0  0  0  0  0  0  0
   49.6027  -24.4521   39.2087 H   0  0  0  0  0  0  0  0  0  0  0  0
   51.6559  -25.3044   32.6359 H   0  0  0  0  0  0  0  0  0  0  0  0
   49.0172  -26.4529   40.3627 H   0  0  0  0  0  0  0  0  0  0  0  0
   49.5819  -27.8067   38.2347 H   0  0  0  0  0  0  0  0  0  0  0  0
   50.5462  -27.0913   37.5679 H   0  0  0  0  0  0  0  0  0  0  0  0
   50.8793  -24.9504   38.9848 H   0  0  0  0  0  0  0  0  0  0  0  0
   47.9826  -26.1018   38.0019 H   0  0  0  0  0  0  0  0  0  0  0  0
   51.9459  -23.9127   33.5822 H   0  0  0  0  0  0  0  0  0  0  0  0
   51.6646  -23.6133   34.9182 H   0  0  0  0  0  0  0  0  0  0  0  0
   50.9140  -24.4733   35.7009 H   0  0  0  0  0  0  0  0  0  0  0  0
   51.7549  -26.8999   36.0560 H   0  0  0  0  0  0  0  0  0  0  0  0
   52.5671  -26.8773   34.5119 H   0  0  0  0  0  0  0  0  0  0  0  0
   50.1527  -31.2652   35.5211 H   0  0  0  0  0  0  0  0  0  0  0  0
   48.6421  -30.4044   33.5968 H   0  0  0  0  0  0  0  0  0  0  0  0
   49.2864  -29.2917   33.1184 H   0  0  0  0  0  0  0  0  0  0  0  0
   49.4852  -28.1819   33.9473 H   0  0  0  0  0  0  0  0  0  0  0  0
   49.0221  -28.2265   35.2322 H   0  0  0  0  0  0  0  0  0  0  0  0
   50.3259  -30.1827   36.3459 H   0  0  0  0  0  0  0  0  0  0  0  0
   47.9897  -33.0463   37.1510 H   0  0  0  0  0  0  0  0  0  0  0  0
   47.0237  -33.0736   35.7743 H   0  0  0  0  0  0  0  0  0  0  0  0
   49.0916  -32.0199   36.6715 H   0  0  0  0  0  0  0  0  0  0  0  0
   47.5620  -31.7794   35.2579 H   0  0  0  0  0  0  0  0  0  0  0  0
   47.4322  -26.9999   41.7316 H   0  0  0  0  0  0  0  0  0  0  0  0
   47.1505  -28.1038   39.3041 H   0  0  0  0  0  0  0  0  0  0  0  0
   45.4701  -28.8084   43.3766 H   0  0  0  0  0  0  0  0  0  0  0  0
   44.3407  -28.8099   42.1302 H   0  0  0  0  0  0  0  0  0  0  0  0
   46.8936  -28.6514   42.2311 H   0  0  0  0  0  0  0  0  0  0  0  0
   45.2006  -27.4674   41.8735 H   0  0  0  0  0  0  0  0  0  0  0  0
  3  4  1  0
  4  5  1  0
  1  6  1  0
  5  6  1  0
  1  7  1  0
  1  8  1  0
  3  8  1  0
  5  9  1  0
  6 10  1  0
  2 11  1  0
 11 12  1  0
 10 13  1  0
 12 13  1  0
 13 14  1  0
  2 15  1  0
 14 15  1  0
 15 16  1  0
 17 18  1  0
 18 19  1  0
 16 20  1  0
 19 20  1  0
 20 21  1  0
 17 22  1  0
 21 22  1  0
 17 24  1  0
 23 24  1  0
  3 26  1  0
 25 26  1  0
 25 28  1  0
 27 28  1  0
  4 29  1  0
  7 30  1  0
  7 31  1  0
  7 32  1  0
  8 33  1  0
  9 34  1  0
  9 35  1  0
  9 36  1  0
 10 37  1  0
 11 38  1  0
 12 39  1  0
 16 40  1  0
 18 41  1  0
 19 42  1  0
 21 43  1  0
 22 44  1  0
 25 45  1  0
 26 46  1  0
  1 47  1  0
  2 48  1  0
  3 49  1  0
  4 50  1  0
  5 51  1  0
  6 52  1  0
  8 53  1  0
 11 54  1  0
 12 55  1  0
 13 56  1  0
 14 57  1  0
 15 58  1  1
 17 59  1  0
 18 60  1  0
 19 61  1  0
 20 62  1  0
 21 63  1  0
 22 64  1  0
 23 65  1  0
 23 66  1  0
 24 67  1  0
 24 68  1  0
 25 69  1  0
 26 70  1  0
 27 71  1  0
 27 72  1  0
 28 73  1  0
 28 74  1  0
M  END
>  <PDBID>  (1) 
4G1Q

>  <PDB ID>  (1) 
4G1Q

>  <Generic Name>  (1) 
Rilpivirine

>  <Brand Name>  (1) 
Complera#Edurant#Odefsey

>  <DrugBank ID>  (1) 
DB08864

>  <ATC Codes>  (1) 
nan

>  <Ligand ID>  (1) 
T27

>  <Target Name>  (1) 
Reverse transcriptase/RNaseH

>  <UniProt ID>  (1) 
Q72547

>  <PDB ID.1>  (1) 
4G1Q

>  <Seq. Identity>  (1) 
95%

$$$$
