PDB_DB00311_93
     RDKit          3D

 26 27  0  0  0  0  0  0  0  0999 V2000
    5.0180  -16.8800   18.7550 N   0  0  0  0  0  0  0  0  0  0  0  0
    3.8800  -20.3280   16.4500 C   0  0  0  0  0  0  0  0  0  0  0  0
    2.5910  -20.6090   17.1020 C   0  0  0  0  0  0  0  0  0  0  0  0
    1.9920  -21.8510   16.9500 C   0  0  0  0  0  0  0  0  0  0  0  0
    2.5990  -22.8490   16.1710 C   0  0  0  0  0  0  0  0  0  0  0  0
    0.7810  -24.5920   16.4260 C   0  0  0  0  0  0  0  0  0  0  0  0
    2.5040  -16.4690   18.8630 O   0  0  0  0  0  0  0  0  0  0  0  0
    3.7810  -16.0920   16.8430 O   0  0  0  0  0  0  0  0  0  0  0  0
    3.5920  -16.9100   18.0220 S   0  0  0  0  0  0  0  0  0  0  0  0
    3.3200  -18.4680   17.5380 C   0  0  0  0  0  0  0  0  0  0  0  0
    4.2360  -19.0540   16.7500 N   0  0  0  0  0  0  0  0  0  0  0  0
    1.8910  -19.3740   18.0140 S   0  0  0  0  0  0  0  0  0  0  0  0
    3.8220  -22.5790   15.5470 C   0  0  0  0  0  0  0  0  0  0  0  0
    4.4540  -21.3400   15.6820 C   0  0  0  0  0  0  0  0  0  0  0  0
    2.0560  -24.1090   15.9950 O   0  0  0  0  0  0  0  0  0  0  0  0
    0.9820  -25.8380   17.2390 C   0  0  0  0  0  0  0  0  0  0  0  0
    4.8795  -16.8829   19.7756 H   0  0  0  0  0  0  0  0  0  0  0  0
    5.5629  -17.7097   18.4801 H   0  0  0  0  0  0  0  0  0  0  0  0
    1.0313  -22.0561   17.4450 H   0  0  0  0  0  0  0  0  0  0  0  0
    0.2846  -23.8264   17.0404 H   0  0  0  0  0  0  0  0  0  0  0  0
    0.1522  -24.8152   15.5515 H   0  0  0  0  0  0  0  0  0  0  0  0
    4.2971  -23.3605   14.9358 H   0  0  0  0  0  0  0  0  0  0  0  0
    5.4147  -21.1613   15.1769 H   0  0  0  0  0  0  0  0  0  0  0  0
    0.9416  -25.5879   18.3094 H   0  0  0  0  0  0  0  0  0  0  0  0
    0.1891  -26.5626   17.0016 H   0  0  0  0  0  0  0  0  0  0  0  0
    1.9625  -26.2765   17.0016 H   0  0  0  0  0  0  0  0  0  0  0  0
  2  3  1  0
  3  4  2  0
  4  5  1  0
  1  9  1  0
  7  9  2  0
  8  9  2  0
  9 10  1  0
  2 11  1  0
 10 11  2  0
  3 12  1  0
 10 12  1  0
  5 13  2  0
  2 14  2  0
 13 14  1  0
  5 15  1  0
  6 15  1  0
  6 16  1  0
  1 17  1  0
  1 18  1  0
  4 19  1  0
  6 20  1  0
  6 21  1  0
 13 22  1  0
 14 23  1  0
 16 24  1  0
 16 25  1  0
 16 26  1  0
M  END
$$$$
