PDB_DB00284_96
     RDKit          3D

 85 88  0  0  0  0  0  0  0  0999 V2000
  -13.9840  -32.6550   94.3000 C   0  0  2  0  0  0  0  0  0  0  0  0
  -12.7860  -31.7440   94.6020 C   0  0  1  0  0  0  0  0  0  0  0  0
  -12.7000  -31.4290   96.0960 C   0  0  2  0  0  0  0  0  0  0  0  0
  -13.9500  -30.7080   96.5970 C   0  0  1  0  0  0  0  0  0  0  0  0
  -15.2130  -31.2280   95.9730 C   0  0  0  0  0  0  0  0  0  0  0  0
  -16.5510  -30.7580   96.5060 C   0  0  0  0  0  0  0  0  0  0  0  0
  -15.2260  -32.0830   94.9420 C   0  0  0  0  0  0  0  0  0  0  0  0
  -11.5920  -32.3640   94.1230 O   0  0  0  0  0  0  0  0  0  0  0  0
  -11.5610  -30.6130   96.3810 O   0  0  0  0  0  0  0  0  0  0  0  0
  -14.0430  -30.8430   98.0220 O   0  0  0  0  0  0  0  0  0  0  0  0
  -16.9290  -29.5730   95.8050 O   0  0  0  0  0  0  0  0  0  0  0  0
  -15.9430  -37.7410   94.2310 C   0  0  2  0  0  0  0  0  0  0  0  0
  -15.8130  -36.8200   93.0250 C   0  0  1  0  0  0  0  0  0  0  0  0
  -14.6210  -35.8830   93.2110 C   0  0  2  0  0  0  0  0  0  0  0  0
  -14.8350  -35.0640   94.4850 C   0  0  1  0  0  0  0  0  0  0  0  0
  -14.9370  -36.0550   95.6530 C   0  0  1  0  0  0  0  0  0  0  0  0
  -15.1640  -35.3900   97.0010 C   0  0  0  0  0  0  0  0  0  0  0  0
  -13.8060  -34.0480   94.7170 N   0  0  0  0  0  0  0  0  0  0  0  0
  -15.7000  -37.6110   91.8320 O   0  0  0  0  0  0  0  0  0  0  0  0
  -14.5230  -35.0700   92.0470 O   0  0  0  0  0  0  0  0  0  0  0  0
  -16.0140  -36.9760   95.4450 O   0  0  0  0  0  0  0  0  0  0  0  0
  -14.5430  -42.4150   96.0970 C   0  0  2  0  0  0  0  0  0  0  0  0
  -15.8620  -42.1310   95.4260 C   0  0  1  0  0  0  0  0  0  0  0  0
  -15.6920  -40.9770   94.4450 C   0  0  2  0  0  0  0  0  0  0  0  0
  -15.1190  -39.7620   95.1680 C   0  0  1  0  0  0  0  0  0  0  0  0
  -13.8530  -40.1600   95.9120 C   0  0  1  0  0  0  0  0  0  0  0  0
  -13.2650  -39.0640   96.7870 C   0  0  0  0  0  0  0  0  0  0  0  0
  -16.2750  -43.3300   94.7720 O   0  0  0  0  0  0  0  0  0  0  0  0
  -16.9610  -40.6680   93.8680 O   0  0  0  0  0  0  0  0  0  0  0  0
  -14.8580  -38.6880   94.2520 O   0  0  0  0  0  0  0  0  0  0  0  0
  -14.1590  -41.2400   96.7850 O   0  0  0  0  0  0  0  0  0  0  0  0
  -14.0040  -38.9170   98.0140 O   0  0  0  0  0  0  0  0  0  0  0  0
  -10.4080  -45.4070   95.0960 C   0  0  0  0  0  0  0  0  0  0  0  0
  -11.7550  -45.9510   94.6370 C   0  0  1  0  0  0  0  0  0  0  0  0
  -12.6300  -44.7710   94.2480 C   0  0  2  0  0  0  0  0  0  0  0  0
  -12.7650  -43.8650   95.4630 C   0  0  1  0  0  0  0  0  0  0  0  0
  -11.3870  -43.4180   95.9620 C   0  0  1  0  0  0  0  0  0  0  0  0
  -11.3840  -42.5070   97.1970 C   0  0  0  0  0  0  0  0  0  0  0  0
   -9.8180  -44.6400   94.0330 O   0  0  0  0  0  0  0  0  0  0  0  0
  -11.6250  -46.8590   93.5390 O   0  0  0  0  0  0  0  0  0  0  0  0
  -13.9100  -45.2300   93.8150 O   0  0  0  0  0  0  0  0  0  0  0  0
  -13.5680  -42.7470   95.1040 O   0  0  0  0  0  0  0  0  0  0  0  0
  -10.6090  -44.5850   96.2480 O   0  0  0  0  0  0  0  0  0  0  0  0
  -12.3400  -42.8620   98.2100 O   0  0  0  0  0  0  0  0  0  0  0  0
  -14.0804  -32.6807   93.2045 H   0  0  0  0  0  0  0  0  0  0  0  0
  -12.9168  -30.7835   94.0820 H   0  0  0  0  0  0  0  0  0  0  0  0
  -12.6100  -32.3947   96.6149 H   0  0  0  0  0  0  0  0  0  0  0  0
  -13.8486  -29.6516   96.3076 H   0  0  0  0  0  0  0  0  0  0  0  0
  -17.3084  -31.5399   96.3478 H   0  0  0  0  0  0  0  0  0  0  0  0
  -16.4744  -30.5494   97.5833 H   0  0  0  0  0  0  0  0  0  0  0  0
  -16.2024  -32.3878   94.5374 H   0  0  0  0  0  0  0  0  0  0  0  0
  -11.0383  -32.6515   94.8916 H   0  0  0  0  0  0  0  0  0  0  0  0
  -11.4494  -30.5330   97.3614 H   0  0  0  0  0  0  0  0  0  0  0  0
  -13.5384  -30.1104   98.4565 H   0  0  0  0  0  0  0  0  0  0  0  0
  -17.1556  -28.8625   96.4561 H   0  0  0  0  0  0  0  0  0  0  0  0
  -16.8805  -38.3108   94.1505 H   0  0  0  0  0  0  0  0  0  0  0  0
  -16.7104  -36.1911   92.9290 H   0  0  0  0  0  0  0  0  0  0  0  0
  -13.6748  -36.4312   93.3296 H   0  0  0  0  0  0  0  0  0  0  0  0
  -15.7625  -34.4817   94.3818 H   0  0  0  0  0  0  0  0  0  0  0  0
  -13.9641  -36.5677   95.6755 H   0  0  0  0  0  0  0  0  0  0  0  0
  -14.9217  -36.0999   97.8055 H   0  0  0  0  0  0  0  0  0  0  0  0
  -14.5173  -34.5043   97.0865 H   0  0  0  0  0  0  0  0  0  0  0  0
  -16.2173  -35.0846   97.0865 H   0  0  0  0  0  0  0  0  0  0  0  0
  -12.9559  -34.3848   94.2428 H   0  0  0  0  0  0  0  0  0  0  0  0
  -15.5644  -38.5605   92.0772 H   0  0  0  0  0  0  0  0  0  0  0  0
  -14.4089  -34.1236   92.3142 H   0  0  0  0  0  0  0  0  0  0  0  0
  -14.6262  -43.2591   96.7974 H   0  0  0  0  0  0  0  0  0  0  0  0
  -16.6325  -41.8309   96.1515 H   0  0  0  0  0  0  0  0  0  0  0  0
  -14.9924  -41.2634   93.6459 H   0  0  0  0  0  0  0  0  0  0  0  0
  -15.8626  -39.4010   95.8938 H   0  0  0  0  0  0  0  0  0  0  0  0
  -13.1176  -40.4080   95.1325 H   0  0  0  0  0  0  0  0  0  0  0  0
  -12.2218  -39.3181   97.0260 H   0  0  0  0  0  0  0  0  0  0  0  0
  -13.3192  -38.1142   96.2348 H   0  0  0  0  0  0  0  0  0  0  0  0
  -16.5098  -44.0118   95.4503 H   0  0  0  0  0  0  0  0  0  0  0  0
  -17.6208  -40.5073   94.5884 H   0  0  0  0  0  0  0  0  0  0  0  0
  -13.3933  -39.0385   98.7836 H   0  0  0  0  0  0  0  0  0  0  0  0
  -12.2104  -46.5202   95.4608 H   0  0  0  0  0  0  0  0  0  0  0  0
  -12.1757  -44.2138   93.4155 H   0  0  0  0  0  0  0  0  0  0  0  0
  -13.2461  -44.4127   96.2867 H   0  0  0  0  0  0  0  0  0  0  0  0
  -10.9647  -42.8053   95.1519 H   0  0  0  0  0  0  0  0  0  0  0  0
  -10.3804  -42.5425   97.6460 H   0  0  0  0  0  0  0  0  0  0  0  0
  -11.6657  -41.5044   96.8430 H   0  0  0  0  0  0  0  0  0  0  0  0
  -11.4935  -47.7775   93.8842 H   0  0  0  0  0  0  0  0  0  0  0  0
  -14.4726  -45.4317   94.6043 H   0  0  0  0  0  0  0  0  0  0  0  0
  -11.9428  -42.7145   99.1048 H   0  0  0  0  0  0  0  0  0  0  0  0
  1  2  1  0
  2  3  1  0
  3  4  1  0
  4  5  1  0
  5  6  1  0
  1  7  1  0
  5  7  2  0
  2  8  1  0
  3  9  1  0
  4 10  1  0
  6 11  1  0
 12 13  1  0
 13 14  1  0
 14 15  1  0
 15 16  1  0
 16 17  1  0
  1 18  1  0
 15 18  1  0
 13 19  1  0
 14 20  1  0
 12 21  1  0
 16 21  1  0
 22 23  1  0
 23 24  1  0
 24 25  1  0
 25 26  1  0
 26 27  1  0
 23 28  1  0
 24 29  1  0
 12 30  1  0
 25 30  1  0
 22 31  1  0
 26 31  1  0
 27 32  1  0
 33 34  1  0
 34 35  1  0
 35 36  1  0
 36 37  1  0
 37 38  1  0
 33 39  2  0
 34 40  1  0
 35 41  1  0
 22 42  1  0
 36 42  1  0
 33 43  1  0
 37 43  1  0
 38 44  1  0
  1 45  1  6
  2 46  1  6
  3 47  1  1
  4 48  1  1
  6 49  1  0
  6 50  1  0
  7 51  1  0
  8 52  1  0
  9 53  1  0
 10 54  1  0
 11 55  1  0
 12 56  1  6
 13 57  1  6
 14 58  1  1
 15 59  1  6
 16 60  1  1
 17 61  1  0
 17 62  1  0
 17 63  1  0
 18 64  1  0
 19 65  1  0
 20 66  1  0
 22 67  1  1
 23 68  1  1
 24 69  1  6
 25 70  1  1
 26 71  1  6
 27 72  1  0
 27 73  1  0
 28 74  1  0
 29 75  1  0
 32 76  1  0
 34 77  1  1
 35 78  1  6
 36 79  1  1
 37 80  1  6
 38 81  1  0
 38 82  1  0
 40 83  1  0
 41 84  1  0
 44 85  1  0
M  END
$$$$
