PDB_DB01072_99
     RDKit          3D

129131  0  0  0  0  0  0  0  0999 V2000
  -45.0210   66.8550   34.7460 C   0  0  0  0  0  0  0  0  0  0  0  0
  -43.8670   66.7520   33.9760 O   0  0  0  0  0  0  0  0  0  0  0  0
  -43.1830   67.9500   33.6470 C   0  0  0  0  0  0  0  0  0  0  0  0
  -43.6320   68.9740   34.0370 O   0  0  0  0  0  0  0  0  0  0  0  0
  -41.8900   67.7960   32.8730 N   0  0  0  0  0  0  0  0  0  0  0  0
  -41.4390   69.1780   32.8030 C   0  0  1  0  0  0  0  0  0  0  0  0
  -40.1190   69.3160   33.4190 C   0  0  2  0  0  0  0  0  0  0  0  0
  -39.3070   68.0220   33.5070 C   0  0  0  0  0  0  0  0  0  0  0  0
  -40.4890   69.7990   34.7420 C   0  0  0  0  0  0  0  0  0  0  0  0
  -39.2710   70.4060   32.8270 C   0  0  0  0  0  0  0  0  0  0  0  0
  -41.0630   68.9260   31.1660 C   0  0  0  0  0  0  0  0  0  0  0  0
  -40.2980   68.1220   30.8040 O   0  0  0  0  0  0  0  0  0  0  0  0
  -41.7600   69.6930   30.3810 N   0  0  0  0  0  0  0  0  0  0  0  0
  -41.7920   69.7640   28.9370 C   0  0  1  0  0  0  0  0  0  0  0  0
  -43.1110   69.1810   28.5780 C   0  0  0  0  0  0  0  0  0  0  0  0
  -43.4340   67.8420   29.1750 C   0  0  0  0  0  0  0  0  0  0  0  0
  -42.9210   66.6620   28.7080 C   0  0  0  0  0  0  0  0  0  0  0  0
  -43.2470   65.4620   29.3210 C   0  0  0  0  0  0  0  0  0  0  0  0
  -44.1050   65.4320   30.4300 C   0  0  0  0  0  0  0  0  0  0  0  0
  -44.6220   66.5990   30.8970 C   0  0  0  0  0  0  0  0  0  0  0  0
  -44.2820   67.7960   30.2760 C   0  0  0  0  0  0  0  0  0  0  0  0
  -41.7090   71.1310   28.3130 C   0  0  1  0  0  0  0  0  0  0  0  0
  -42.5190   72.0820   28.8920 O   0  0  0  0  0  0  0  0  0  0  0  0
  -40.5340   71.9140   28.4970 C   0  0  0  0  0  0  0  0  0  0  0  0
  -39.3690   71.4510   27.7980 N   0  0  0  0  0  0  0  0  0  0  0  0
  -39.3260   70.9700   26.4690 N   0  0  0  0  0  0  0  0  0  0  0  0
  -39.1420   69.8930   25.7680 C   0  0  0  0  0  0  0  0  0  0  0  0
  -38.9260   68.8230   26.1450 O   0  0  0  0  0  0  0  0  0  0  0  0
  -39.1960   70.2620   24.3010 C   0  0  2  0  0  0  0  0  0  0  0  0
  -40.0060   69.3460   23.3680 C   0  0  2  0  0  0  0  0  0  0  0  0
  -40.1780   70.0150   22.0300 C   0  0  0  0  0  0  0  0  0  0  0  0
  -41.3840   69.1140   23.9010 C   0  0  0  0  0  0  0  0  0  0  0  0
  -39.3070   68.0320   23.1910 C   0  0  0  0  0  0  0  0  0  0  0  0
  -37.8290   70.4700   23.8110 N   0  0  0  0  0  0  0  0  0  0  0  0
  -37.3500   71.4990   23.1780 C   0  0  0  0  0  0  0  0  0  0  0  0
  -37.9470   72.4590   22.8800 O   0  0  0  0  0  0  0  0  0  0  0  0
  -35.9760   71.4210   22.8170 O   0  0  0  0  0  0  0  0  0  0  0  0
  -35.3470   72.5670   22.3190 C   0  0  0  0  0  0  0  0  0  0  0  0
  -38.0910   71.6970   28.4680 C   0  0  0  0  0  0  0  0  0  0  0  0
  -36.8610   71.4480   27.6420 C   0  0  0  0  0  0  0  0  0  0  0  0
  -36.2500   72.3820   26.7990 C   0  0  0  0  0  0  0  0  0  0  0  0
  -35.0870   72.0460   26.0900 C   0  0  0  0  0  0  0  0  0  0  0  0
  -36.3230   70.1990   27.7600 C   0  0  0  0  0  0  0  0  0  0  0  0
  -35.2010   69.8820   27.0650 C   0  0  0  0  0  0  0  0  0  0  0  0
  -34.5660   70.7800   26.2330 C   0  0  0  0  0  0  0  0  0  0  0  0
  -33.4380   70.2880   25.6040 C   0  0  0  0  0  0  0  0  0  0  0  0
  -33.0370   68.9280   25.8390 C   0  0  0  0  0  0  0  0  0  0  0  0
  -31.9230   68.3400   25.2540 C   0  0  0  0  0  0  0  0  0  0  0  0
  -31.1850   69.0980   24.4140 C   0  0  0  0  0  0  0  0  0  0  0  0
  -31.5720   70.4110   24.1770 C   0  0  0  0  0  0  0  0  0  0  0  0
  -32.6590   70.9930   24.7430 N   0  0  0  0  0  0  0  0  0  0  0  0
  -44.7534   66.8311   35.8127 H   0  0  0  0  0  0  0  0  0  0  0  0
  -45.5312   67.8023   34.5171 H   0  0  0  0  0  0  0  0  0  0  0  0
  -45.6909   66.0131   34.5171 H   0  0  0  0  0  0  0  0  0  0  0  0
  -43.7801   68.0384   32.7274 H   0  0  0  0  0  0  0  0  0  0  0  0
  -43.6337   68.9778   35.0270 H   0  0  0  0  0  0  0  0  0  0  0  0
  -41.2156   67.2036   33.3780 H   0  0  0  0  0  0  0  0  0  0  0  0
  -42.0859   69.9760   33.1964 H   0  0  0  0  0  0  0  0  0  0  0  0
  -39.1441   67.7625   34.5635 H   0  0  0  0  0  0  0  0  0  0  0  0
  -39.8573   67.2093   33.0104 H   0  0  0  0  0  0  0  0  0  0  0  0
  -38.3358   68.1641   33.0104 H   0  0  0  0  0  0  0  0  0  0  0  0
  -40.0092   69.1726   35.5084 H   0  0  0  0  0  0  0  0  0  0  0  0
  -40.1557   70.8408   34.8585 H   0  0  0  0  0  0  0  0  0  0  0  0
  -41.5816   69.7484   34.8585 H   0  0  0  0  0  0  0  0  0  0  0  0
  -38.8132   70.9945   33.6357 H   0  0  0  0  0  0  0  0  0  0  0  0
  -38.4806   69.9592   32.2059 H   0  0  0  0  0  0  0  0  0  0  0  0
  -39.8984   71.0622   32.2059 H   0  0  0  0  0  0  0  0  0  0  0  0
  -40.2517   69.6653   31.2385 H   0  0  0  0  0  0  0  0  0  0  0  0
  -39.8822   67.6850   31.5890 H   0  0  0  0  0  0  0  0  0  0  0  0
  -42.7369   69.5004   30.6445 H   0  0  0  0  0  0  0  0  0  0  0  0
  -40.8970   69.2483   28.5588 H   0  0  0  0  0  0  0  0  0  0  0  0
  -43.8888   69.8882   28.9020 H   0  0  0  0  0  0  0  0  0  0  0  0
  -43.0707   69.0143   27.4915 H   0  0  0  0  0  0  0  0  0  0  0  0
  -44.2881   67.7422   28.4890 H   0  0  0  0  0  0  0  0  0  0  0  0
  -43.2358   66.5752   27.6576 H   0  0  0  0  0  0  0  0  0  0  0  0
  -41.8450   66.7610   28.9140 H   0  0  0  0  0  0  0  0  0  0  0  0
  -43.7106   64.8309   28.5485 H   0  0  0  0  0  0  0  0  0  0  0  0
  -42.2864   65.1365   29.7467 H   0  0  0  0  0  0  0  0  0  0  0  0
  -44.9553   64.7877   30.1619 H   0  0  0  0  0  0  0  0  0  0  0  0
  -43.4616   65.0824   31.2508 H   0  0  0  0  0  0  0  0  0  0  0  0
  -45.7169   66.5091   30.8406 H   0  0  0  0  0  0  0  0  0  0  0  0
  -44.1804   66.6940   31.9000 H   0  0  0  0  0  0  0  0  0  0  0  0
  -43.8148   68.4223   31.0503 H   0  0  0  0  0  0  0  0  0  0  0  0
  -45.2420   68.1099   29.8402 H   0  0  0  0  0  0  0  0  0  0  0  0
  -41.9020   70.7782   27.2891 H   0  0  0  0  0  0  0  0  0  0  0  0
  -42.4586   72.0111   29.8776 H   0  0  0  0  0  0  0  0  0  0  0  0
  -40.7508   72.9367   28.1548 H   0  0  0  0  0  0  0  0  0  0  0  0
  -40.2908   71.8479   29.5677 H   0  0  0  0  0  0  0  0  0  0  0  0
  -40.2539   71.2620   26.1303 H   0  0  0  0  0  0  0  0  0  0  0  0
  -38.0620   70.0992   25.7346 H   0  0  0  0  0  0  0  0  0  0  0  0
  -38.9246   68.8159   27.1350 H   0  0  0  0  0  0  0  0  0  0  0  0
  -39.7834   71.1913   24.2630 H   0  0  0  0  0  0  0  0  0  0  0  0
  -40.4493   71.0704   22.1799 H   0  0  0  0  0  0  0  0  0  0  0  0
  -39.2353   69.9553   21.4663 H   0  0  0  0  0  0  0  0  0  0  0  0
  -40.9750   69.5080   21.4663 H   0  0  0  0  0  0  0  0  0  0  0  0
  -41.3574   69.1185   25.0007 H   0  0  0  0  0  0  0  0  0  0  0  0
  -42.0532   69.9121   23.5472 H   0  0  0  0  0  0  0  0  0  0  0  0
  -41.7550   68.1408   23.5472 H   0  0  0  0  0  0  0  0  0  0  0  0
  -39.0785   67.6024   24.1775 H   0  0  0  0  0  0  0  0  0  0  0  0
  -39.9577   67.3428   22.6328 H   0  0  0  0  0  0  0  0  0  0  0  0
  -38.3718   68.1864   22.6328 H   0  0  0  0  0  0  0  0  0  0  0  0
  -37.2365   70.3815   24.6488 H   0  0  0  0  0  0  0  0  0  0  0  0
  -37.6190   71.0338   22.2182 H   0  0  0  0  0  0  0  0  0  0  0  0
  -38.2412   72.9320   23.6984 H   0  0  0  0  0  0  0  0  0  0  0  0
  -35.0045   73.1910   23.1576 H   0  0  0  0  0  0  0  0  0  0  0  0
  -34.4836   72.2734   21.7039 H   0  0  0  0  0  0  0  0  0  0  0  0
  -36.0583   73.1377   21.7039 H   0  0  0  0  0  0  0  0  0  0  0  0
  -38.0750   72.7492   28.7885 H   0  0  0  0  0  0  0  0  0  0  0  0
  -38.0449   70.9759   29.2974 H   0  0  0  0  0  0  0  0  0  0  0  0
  -37.4907   71.1065   26.8072 H   0  0  0  0  0  0  0  0  0  0  0  0
  -37.0028   72.6716   26.0510 H   0  0  0  0  0  0  0  0  0  0  0  0
  -35.8992   73.1551   27.4985 H   0  0  0  0  0  0  0  0  0  0  0  0
  -35.3079   72.1860   25.0215 H   0  0  0  0  0  0  0  0  0  0  0  0
  -34.3149   72.7015   26.5192 H   0  0  0  0  0  0  0  0  0  0  0  0
  -36.0912   70.0508   28.8250 H   0  0  0  0  0  0  0  0  0  0  0  0
  -37.0908   69.5465   27.3187 H   0  0  0  0  0  0  0  0  0  0  0  0
  -34.4541   69.5779   27.8131 H   0  0  0  0  0  0  0  0  0  0  0  0
  -35.5823   69.1407   26.3474 H   0  0  0  0  0  0  0  0  0  0  0  0
  -33.9522   71.1279   27.0769 H   0  0  0  0  0  0  0  0  0  0  0  0
  -32.8210   70.6167   26.4533 H   0  0  0  0  0  0  0  0  0  0  0  0
  -32.8841   68.8444   26.9251 H   0  0  0  0  0  0  0  0  0  0  0  0
  -33.8512   68.3785   25.3439 H   0  0  0  0  0  0  0  0  0  0  0  0
  -31.2602   68.0091   26.0671 H   0  0  0  0  0  0  0  0  0  0  0  0
  -32.3302   67.5373   24.6216 H   0  0  0  0  0  0  0  0  0  0  0  0
  -30.1642   69.1314   24.8224 H   0  0  0  0  0  0  0  0  0  0  0  0
  -31.3074   68.6062   23.4377 H   0  0  0  0  0  0  0  0  0  0  0  0
  -30.7134   71.0330   24.4701 H   0  0  0  0  0  0  0  0  0  0  0  0
  -31.8894   70.3503   23.1255 H   0  0  0  0  0  0  0  0  0  0  0  0
  -33.2693   71.2964   23.9707 H   0  0  0  0  0  0  0  0  0  0  0  0
  1  2  1  0
  2  3  1  0
  3  4  1  0
  3  5  1  0
  5  6  1  0
  6  7  1  0
  7  8  1  1
  7  9  1  0
  7 10  1  0
  6 11  1  0
 11 12  1  0
 11 13  1  0
 13 14  1  0
 14 15  1  0
 15 16  1  0
 16 17  1  0
 17 18  1  0
 18 19  1  0
 19 20  1  0
 16 21  1  0
 20 21  1  0
 14 22  1  0
 22 23  1  0
 22 24  1  0
 24 25  1  0
 25 26  1  0
 26 27  1  0
 27 28  1  0
 27 29  1  0
 29 30  1  0
 30 31  1  6
 30 32  1  0
 30 33  1  0
 29 34  1  0
 34 35  1  0
 35 36  1  0
 35 37  1  0
 37 38  1  0
 25 39  1  0
 39 40  1  0
 40 41  1  0
 41 42  1  0
 40 43  1  0
 43 44  1  0
 42 45  1  0
 44 45  1  0
 45 46  1  0
 46 47  1  0
 47 48  1  0
 48 49  1  0
 49 50  1  0
 46 51  1  0
 50 51  1  0
  1 52  1  0
  1 53  1  0
  1 54  1  0
  3 55  1  0
  4 56  1  0
  5 57  1  0
  6 58  1  6
  8 59  1  0
  8 60  1  0
  8 61  1  0
  9 62  1  0
  9 63  1  0
  9 64  1  0
 10 65  1  0
 10 66  1  0
 10 67  1  0
 11 68  1  0
 12 69  1  0
 13 70  1  0
 14 71  1  6
 15 72  1  0
 15 73  1  0
 16 74  1  0
 17 75  1  0
 17 76  1  0
 18 77  1  0
 18 78  1  0
 19 79  1  0
 19 80  1  0
 20 81  1  0
 20 82  1  0
 21 83  1  0
 21 84  1  0
 22 85  1  6
 23 86  1  0
 24 87  1  0
 24 88  1  0
 26 89  1  0
 27 90  1  0
 28 91  1  0
 29 92  1  1
 31 93  1  0
 31 94  1  0
 31 95  1  0
 32 96  1  0
 32 97  1  0
 32 98  1  0
 33 99  1  0
 33100  1  0
 33101  1  0
 34102  1  0
 35103  1  0
 36104  1  0
 38105  1  0
 38106  1  0
 38107  1  0
 39108  1  0
 39109  1  0
 40110  1  0
 41111  1  0
 41112  1  0
 42113  1  0
 42114  1  0
 43115  1  0
 43116  1  0
 44117  1  0
 44118  1  0
 45119  1  0
 46120  1  0
 47121  1  0
 47122  1  0
 48123  1  0
 48124  1  0
 49125  1  0
 49126  1  0
 50127  1  0
 50128  1  0
 51129  1  0
M  END
>  <PDBID>  (1) 
2AQU

>  <PDB ID>  (1) 
2AQU

>  <Generic Name>  (1) 
Atazanavir

>  <Brand Name>  (1) 
Evotaz#Reyataz#Latazanavir#Zrivada

>  <DrugBank ID>  (1) 
DB01072

>  <ATC Codes>  (1) 
J05AE08#J05AR15

>  <Ligand ID>  (1) 
DR7

>  <Target Name>  (1) 
Pol polyprotein

>  <UniProt ID>  (1) 
Q72874

>  <PDB ID.1>  (1) 
2AQU

>  <Seq. Identity>  (1) 
99%

$$$$
