PDB_DB01336_94
     RDKit          3D

 96102  0  0  0  0  0  0  0  0999 V2000
  -62.3820  -31.7920   63.7220 N   0  0  0  0  0  0  0  0  0  0  0  0
  -63.4010  -31.0760   62.8870 C   0  0  0  0  0  0  0  0  0  0  0  0
  -63.9950  -31.8550   61.7130 C   0  0  0  0  0  0  0  0  0  0  0  0
  -63.9430  -33.3760   61.9090 C   0  0  0  0  0  0  0  0  0  0  0  0
  -63.3870  -33.9810   63.0620 C   0  0  0  0  0  0  0  0  0  0  0  0
  -62.8640  -33.1400   64.1910 C   0  0  2  0  0  0  0  0  0  0  0  0
  -64.4180  -34.1660   60.8430 C   0  0  0  0  0  0  0  0  0  0  0  0
  -64.4030  -35.5680   60.9310 C   0  0  0  0  0  0  0  0  0  0  0  0
  -63.8690  -36.1860   62.0550 C   0  0  0  0  0  0  0  0  0  0  0  0
  -63.3530  -35.3950   63.1110 C   0  0  0  0  0  0  0  0  0  0  0  0
  -63.8960  -37.5730   62.0570 O   0  0  0  0  0  0  0  0  0  0  0  0
  -63.2690  -38.3390   63.0270 C   0  0  0  0  0  0  0  0  0  0  0  0
  -62.0340  -38.7820   62.6580 C   0  0  0  0  0  0  0  0  0  0  0  0
  -61.2590  -39.6090   63.4990 C   0  0  0  0  0  0  0  0  0  0  0  0
  -61.7830  -39.8470   64.7730 C   0  0  0  0  0  0  0  0  0  0  0  0
  -63.0090  -39.3670   65.1690 C   0  0  0  0  0  0  0  0  0  0  0  0
  -63.7990  -38.6300   64.3070 C   0  0  0  0  0  0  0  0  0  0  0  0
  -63.5160  -39.7730   66.5400 C   0  0  0  0  0  0  0  0  0  0  0  0
  -64.9700  -40.3520   66.5590 C   0  0  1  0  0  0  0  0  0  0  0  0
  -64.9010  -41.8380   66.5540 N   0  0  0  0  0  0  0  0  0  0  0  0
  -64.1870  -42.2870   67.7990 C   0  0  0  0  0  0  0  0  0  0  0  0
  -65.1190  -42.0180   68.9890 C   0  0  0  0  0  0  0  0  0  0  0  0
  -65.7470  -40.5950   68.9550 C   0  0  0  0  0  0  0  0  0  0  0  0
  -65.7020  -39.8180   67.7860 C   0  0  0  0  0  0  0  0  0  0  0  0
  -66.4340  -40.1170   70.0870 C   0  0  0  0  0  0  0  0  0  0  0  0
  -67.0350  -38.8280   70.0560 C   0  0  0  0  0  0  0  0  0  0  0  0
  -66.9900  -38.0810   68.8960 C   0  0  0  0  0  0  0  0  0  0  0  0
  -66.3520  -38.5670   67.7630 C   0  0  0  0  0  0  0  0  0  0  0  0
  -66.3710  -37.8020   66.5850 O   0  0  0  0  0  0  0  0  0  0  0  0
  -65.7900  -36.6080   66.2810 C   0  0  0  0  0  0  0  0  0  0  0  0
  -66.4360  -35.8000   65.3260 C   0  0  0  0  0  0  0  0  0  0  0  0
  -65.8660  -34.5860   64.9610 C   0  0  0  0  0  0  0  0  0  0  0  0
  -64.6650  -34.2250   65.5510 C   0  0  0  0  0  0  0  0  0  0  0  0
  -64.0270  -35.0420   66.5170 C   0  0  0  0  0  0  0  0  0  0  0  0
  -64.5740  -36.2480   66.8990 C   0  0  0  0  0  0  0  0  0  0  0  0
  -63.9950  -32.9190   65.2010 C   0  0  0  0  0  0  0  0  0  0  0  0
  -64.8740  -36.4110   59.9270 O   0  0  0  0  0  0  0  0  0  0  0  0
  -65.7460  -36.0150   58.8690 C   0  0  0  0  0  0  0  0  0  0  0  0
  -61.6760  -38.4500   61.3830 O   0  0  0  0  0  0  0  0  0  0  0  0
  -67.7260  -38.2680   71.1420 O   0  0  0  0  0  0  0  0  0  0  0  0
  -67.7520  -38.8690   72.4480 C   0  0  0  0  0  0  0  0  0  0  0  0
  -67.5950  -36.8510   68.9310 O   0  0  0  0  0  0  0  0  0  0  0  0
  -61.1130  -31.8140   62.9510 C   0  0  0  0  0  0  0  0  0  0  0  0
  -66.2720  -42.4000   66.4830 C   0  0  0  0  0  0  0  0  0  0  0  0
  -64.2950  -42.4140   65.3380 C   0  0  0  0  0  0  0  0  0  0  0  0
  -68.5660  -36.3510   68.0060 C   0  0  0  0  0  0  0  0  0  0  0  0
  -62.1370  -30.9080   64.8810 C   0  0  0  0  0  0  0  0  0  0  0  0
  -60.3080  -38.3210   60.9750 C   0  0  0  0  0  0  0  0  0  0  0  0
  -64.2305  -30.7862   63.5488 H   0  0  0  0  0  0  0  0  0  0  0  0
  -62.8613  -30.2326   62.4315 H   0  0  0  0  0  0  0  0  0  0  0  0
  -65.0458  -31.5541   61.5896 H   0  0  0  0  0  0  0  0  0  0  0  0
  -63.3907  -31.6189   60.8247 H   0  0  0  0  0  0  0  0  0  0  0  0
  -62.0124  -33.6723   64.6399 H   0  0  0  0  0  0  0  0  0  0  0  0
  -64.8038  -33.6807   59.9343 H   0  0  0  0  0  0  0  0  0  0  0  0
  -62.9156  -35.8916   63.9897 H   0  0  0  0  0  0  0  0  0  0  0  0
  -60.3012  -40.0399   63.1720 H   0  0  0  0  0  0  0  0  0  0  0  0
  -61.1920  -40.4409   65.4857 H   0  0  0  0  0  0  0  0  0  0  0  0
  -64.7999  -38.2833   64.6038 H   0  0  0  0  0  0  0  0  0  0  0  0
  -62.8374  -40.5397   66.9422 H   0  0  0  0  0  0  0  0  0  0  0  0
  -63.5414  -38.8543   67.1445 H   0  0  0  0  0  0  0  0  0  0  0  0
  -65.5304  -40.0365   65.6666 H   0  0  0  0  0  0  0  0  0  0  0  0
  -63.9604  -43.3615   67.7350 H   0  0  0  0  0  0  0  0  0  0  0  0
  -63.2388  -41.7424   67.9191 H   0  0  0  0  0  0  0  0  0  0  0  0
  -65.9305  -42.7605   68.9744 H   0  0  0  0  0  0  0  0  0  0  0  0
  -64.5147  -42.0909   69.9053 H   0  0  0  0  0  0  0  0  0  0  0  0
  -66.5058  -40.7379   70.9921 H   0  0  0  0  0  0  0  0  0  0  0  0
  -67.3835  -36.1266   64.8727 H   0  0  0  0  0  0  0  0  0  0  0  0
  -66.3542  -33.9304   64.2249 H   0  0  0  0  0  0  0  0  0  0  0  0
  -63.0810  -34.7088   66.9688 H   0  0  0  0  0  0  0  0  0  0  0  0
  -64.0889  -36.8946   67.6451 H   0  0  0  0  0  0  0  0  0  0  0  0
  -63.5792  -32.4708   66.1154 H   0  0  0  0  0  0  0  0  0  0  0  0
  -64.7427  -32.2490   64.7514 H   0  0  0  0  0  0  0  0  0  0  0  0
  -66.6701  -35.5953   59.2932 H   0  0  0  0  0  0  0  0  0  0  0  0
  -65.2486  -35.2544   58.2492 H   0  0  0  0  0  0  0  0  0  0  0  0
  -65.9914  -36.8900   58.2492 H   0  0  0  0  0  0  0  0  0  0  0  0
  -67.7179  -38.0812   73.2149 H   0  0  0  0  0  0  0  0  0  0  0  0
  -68.6763  -39.4540   72.5641 H   0  0  0  0  0  0  0  0  0  0  0  0
  -66.8817  -39.5316   72.5641 H   0  0  0  0  0  0  0  0  0  0  0  0
  -60.2613  -31.8288   63.6470 H   0  0  0  0  0  0  0  0  0  0  0  0
  -61.0844  -32.7128   62.3174 H   0  0  0  0  0  0  0  0  0  0  0  0
  -61.0533  -30.9168   62.3174 H   0  0  0  0  0  0  0  0  0  0  0  0
  -66.6568  -42.5577   67.5014 H   0  0  0  0  0  0  0  0  0  0  0  0
  -66.9286  -41.6985   65.9475 H   0  0  0  0  0  0  0  0  0  0  0  0
  -66.2473  -43.3605   65.9475 H   0  0  0  0  0  0  0  0  0  0  0  0
  -63.5250  -43.1459   65.6234 H   0  0  0  0  0  0  0  0  0  0  0  0
  -65.0729  -42.9137   64.7421 H   0  0  0  0  0  0  0  0  0  0  0  0
  -63.8354  -41.6117   64.7421 H   0  0  0  0  0  0  0  0  0  0  0  0
  -69.4107  -35.9161   68.5604 H   0  0  0  0  0  0  0  0  0  0  0  0
  -68.1056  -35.5778   67.3733 H   0  0  0  0  0  0  0  0  0  0  0  0
  -68.9280  -37.1748   67.3733 H   0  0  0  0  0  0  0  0  0  0  0  0
  -62.2934  -31.4724   65.8121 H   0  0  0  0  0  0  0  0  0  0  0  0
  -61.1021  -30.5368   64.8467 H   0  0  0  0  0  0  0  0  0  0  0  0
  -62.8331  -30.0570   64.8467 H   0  0  0  0  0  0  0  0  0  0  0  0
  -59.6642  -38.2603   61.8648 H   0  0  0  0  0  0  0  0  0  0  0  0
  -60.0207  -39.1960   60.3735 H   0  0  0  0  0  0  0  0  0  0  0  0
  -60.1893  -37.4077   60.3735 H   0  0  0  0  0  0  0  0  0  0  0  0
  1  2  1  0
  2  3  1  0
  3  4  1  0
  4  5  2  0
  1  6  1  0
  5  6  1  0
  4  7  1  0
  7  8  2  0
  8  9  1  0
  5 10  1  0
  9 10  2  0
  9 11  1  0
 11 12  1  0
 12 13  2  0
 13 14  1  0
 14 15  2  0
 15 16  1  0
 12 17  1  0
 16 17  2  0
 16 18  1  0
 18 19  1  0
 19 20  1  0
 20 21  1  0
 21 22  1  0
 22 23  1  0
 19 24  1  0
 23 24  2  0
 23 25  1  0
 25 26  2  0
 26 27  1  0
 24 28  1  0
 27 28  2  0
 28 29  1  0
 29 30  1  0
 30 31  2  0
 31 32  1  0
 32 33  2  0
 33 34  1  0
 30 35  1  0
 34 35  2  0
  6 36  1  0
 33 36  1  0
  8 37  1  0
 37 38  1  0
 13 39  1  0
 26 40  1  0
 40 41  1  0
 27 42  1  0
  1 43  1  0
 20 44  1  0
 20 45  1  0
 42 46  1  0
  1 47  1  0
 39 48  1  0
  2 49  1  0
  2 50  1  0
  3 51  1  0
  3 52  1  0
  6 53  1  1
  7 54  1  0
 10 55  1  0
 14 56  1  0
 15 57  1  0
 17 58  1  0
 18 59  1  0
 18 60  1  0
 19 61  1  6
 21 62  1  0
 21 63  1  0
 22 64  1  0
 22 65  1  0
 25 66  1  0
 31 67  1  0
 32 68  1  0
 34 69  1  0
 35 70  1  0
 36 71  1  0
 36 72  1  0
 38 73  1  0
 38 74  1  0
 38 75  1  0
 41 76  1  0
 41 77  1  0
 41 78  1  0
 43 79  1  0
 43 80  1  0
 43 81  1  0
 44 82  1  0
 44 83  1  0
 44 84  1  0
 45 85  1  0
 45 86  1  0
 45 87  1  0
 46 88  1  0
 46 89  1  0
 46 90  1  0
 47 91  1  0
 47 92  1  0
 47 93  1  0
 48 94  1  0
 48 95  1  0
 48 96  1  0
M  CHG  2   1   1  20   1
M  END
$$$$
