PDB_DB00481_97
     RDKit          3D

166174  0  0  0  0  0  0  0  0999 V2000
  -35.1830   44.6710   -1.2360 C   0  0  0  0  0  0  0  0  0  0  0  0
  -36.0880   45.6920   -0.9970 C   0  0  0  0  0  0  0  0  0  0  0  0
  -37.4430   45.5280   -1.2530 C   0  0  0  0  0  0  0  0  0  0  0  0
  -38.2900   46.5600   -1.0040 O   0  0  0  0  0  0  0  0  0  0  0  0
  -37.9320   44.3160   -1.7510 C   0  0  0  0  0  0  0  0  0  0  0  0
  -37.0540   43.2680   -1.9960 C   0  0  0  0  0  0  0  0  0  0  0  0
  -37.5130   41.7690   -2.6360 S   0  0  0  0  0  0  0  0  0  0  0  0
  -35.9080   41.1790   -2.5530 C   0  0  1  0  0  0  0  0  0  0  0  0
  -35.6160   39.8210   -3.0600 C   0  0  1  0  0  0  0  0  0  0  0  0
  -34.7840   38.9730   -2.3520 C   0  0  0  0  0  0  0  0  0  0  0  0
  -34.4660   37.7160   -2.8470 C   0  0  0  0  0  0  0  0  0  0  0  0
  -34.9490   37.3090   -4.0840 C   0  0  0  0  0  0  0  0  0  0  0  0
  -34.6040   36.0750   -4.5720 O   0  0  0  0  0  0  0  0  0  0  0  0
  -35.7720   38.1740   -4.8130 C   0  0  0  0  0  0  0  0  0  0  0  0
  -36.0950   39.4350   -4.3080 C   0  0  0  0  0  0  0  0  0  0  0  0
  -35.6410   43.4710   -1.7200 C   0  0  0  0  0  0  0  0  0  0  0  0
  -34.9870   42.2110   -2.0870 C   0  0  1  0  0  0  0  0  0  0  0  0
  -33.5310   42.0180   -1.9340 C   0  0  0  0  0  0  0  0  0  0  0  0
  -32.8350   41.9720   -2.9230 O   0  0  0  0  0  0  0  0  0  0  0  0
  -32.9310   41.8340   -0.5840 C   0  0  0  0  0  0  0  0  0  0  0  0
  -33.7450   41.5550    0.4920 C   0  0  0  0  0  0  0  0  0  0  0  0
  -33.1970   41.3750    1.7460 C   0  0  0  0  0  0  0  0  0  0  0  0
  -31.8280   41.4690    1.9390 C   0  0  0  0  0  0  0  0  0  0  0  0
  -30.9980   41.7440    0.8590 C   0  0  0  0  0  0  0  0  0  0  0  0
  -31.5580   41.9220   -0.4030 C   0  0  0  0  0  0  0  0  0  0  0  0
  -31.3740   41.2630    3.2020 O   0  0  0  0  0  0  0  0  0  0  0  0
  -30.0420   41.5210    3.6460 C   0  0  0  0  0  0  0  0  0  0  0  0
  -29.8920   40.9400    5.0440 C   0  0  0  0  0  0  0  0  0  0  0  0
  -30.4090   41.8920    6.0470 N   0  0  0  0  0  0  0  0  0  0  0  0
  -31.8880   41.8220    6.1220 C   0  0  0  0  0  0  0  0  0  0  0  0
  -32.4910   42.4250    7.3870 C   0  0  0  0  0  0  0  0  0  0  0  0
  -31.7410   41.9950    8.6350 C   0  0  0  0  0  0  0  0  0  0  0  0
  -30.2850   42.3940    8.4690 C   0  0  0  0  0  0  0  0  0  0  0  0
  -29.7150   41.5830    7.3200 C   0  0  0  0  0  0  0  0  0  0  0  0
  -47.3200   11.5590    5.1700 C   0  0  0  0  0  0  0  0  0  0  0  0
  -48.6770   11.3860    4.9340 C   0  0  0  0  0  0  0  0  0  0  0  0
  -49.5900   12.4020    5.1870 C   0  0  0  0  0  0  0  0  0  0  0  0
  -50.9040   12.1650    4.9290 O   0  0  0  0  0  0  0  0  0  0  0  0
  -49.1720   13.6400    5.6840 C   0  0  0  0  0  0  0  0  0  0  0  0
  -47.8240   13.8470    5.9120 C   0  0  0  0  0  0  0  0  0  0  0  0
  -47.1590   15.2780    6.4850 S   0  0  0  0  0  0  0  0  0  0  0  0
  -45.5570   14.6480    6.4700 C   0  0  0  0  0  0  0  0  0  0  0  0
  -44.4250   15.5110    6.9080 C   0  0  0  0  0  0  0  0  0  0  0  0
  -43.3300   15.6020    6.0860 C   0  0  0  0  0  0  0  0  0  0  0  0
  -42.2260   16.3840    6.4140 C   0  0  0  0  0  0  0  0  0  0  0  0
  -42.1890   17.0900    7.5960 C   0  0  0  0  0  0  0  0  0  0  0  0
  -41.0690   17.8220    7.8440 O   0  0  0  0  0  0  0  0  0  0  0  0
  -43.2910   17.0200    8.4580 C   0  0  0  0  0  0  0  0  0  0  0  0
  -44.4010   16.2170    8.1080 C   0  0  0  0  0  0  0  0  0  0  0  0
  -46.8900   12.7630    5.6530 C   0  0  0  0  0  0  0  0  0  0  0  0
  -45.5790   13.2900    5.9940 C   0  0  0  0  0  0  0  0  0  0  0  0
  -44.3850   12.4790    5.8090 C   0  0  1  0  0  0  0  0  0  0  0  0
  -43.8760   11.9940    6.7850 O   0  0  0  0  0  0  0  0  0  0  0  0
  -43.7900   12.3510    4.4360 C   0  0  0  0  0  0  0  0  0  0  0  0
  -44.2300   13.1880    3.4110 C   0  0  0  0  0  0  0  0  0  0  0  0
  -43.6870   13.1140    2.1360 C   0  0  0  0  0  0  0  0  0  0  0  0
  -42.6810   12.2000    1.8710 C   0  0  0  0  0  0  0  0  0  0  0  0
  -42.2390   11.3510    2.9020 C   0  0  0  0  0  0  0  0  0  0  0  0
  -42.7880   11.4350    4.1770 C   0  0  0  0  0  0  0  0  0  0  0  0
  -42.1670   12.1540    0.6020 O   0  0  0  0  0  0  0  0  0  0  0  0
  -41.2760   11.0990    0.2130 C   0  0  0  0  0  0  0  0  0  0  0  0
  -40.8240   11.1530   -1.2390 C   0  0  0  0  0  0  0  0  0  0  0  0
  -41.9120   10.8090   -2.1740 N   0  0  0  0  0  0  0  0  0  0  0  0
  -42.8910   11.9200   -2.2130 C   0  0  0  0  0  0  0  0  0  0  0  0
  -43.7730   11.9590   -3.4570 C   0  0  0  0  0  0  0  0  0  0  0  0
  -42.9440   11.8010   -4.7220 C   0  0  0  0  0  0  0  0  0  0  0  0
  -42.2580   10.4580   -4.6090 C   0  0  0  0  0  0  0  0  0  0  0  0
  -41.2570   10.5560   -3.4710 C   0  0  0  0  0  0  0  0  0  0  0  0
  -34.4518   45.0532   -1.9635 H   0  0  0  0  0  0  0  0  0  0  0  0
  -34.7998   44.4210   -0.2357 H   0  0  0  0  0  0  0  0  0  0  0  0
  -36.0007   45.9422    0.0706 H   0  0  0  0  0  0  0  0  0  0  0  0
  -35.7946   46.4501   -1.7381 H   0  0  0  0  0  0  0  0  0  0  0  0
  -37.5920   45.1584   -0.2277 H   0  0  0  0  0  0  0  0  0  0  0  0
  -38.3872   46.6785   -0.0259 H   0  0  0  0  0  0  0  0  0  0  0  0
  -38.6726   43.9486   -1.0253 H   0  0  0  0  0  0  0  0  0  0  0  0
  -38.3003   44.5810   -2.7531 H   0  0  0  0  0  0  0  0  0  0  0  0
  -37.2258   42.8863   -0.9788 H   0  0  0  0  0  0  0  0  0  0  0  0
  -36.1126   40.7626   -1.5556 H   0  0  0  0  0  0  0  0  0  0  0  0
  -34.7480   40.2131   -3.6104 H   0  0  0  0  0  0  0  0  0  0  0  0
  -33.8321   39.5074   -2.2168 H   0  0  0  0  0  0  0  0  0  0  0  0
  -35.3768   38.7405   -1.4551 H   0  0  0  0  0  0  0  0  0  0  0  0
  -33.3686   37.6666   -2.9039 H   0  0  0  0  0  0  0  0  0  0  0  0
  -34.9703   37.0356   -2.1451 H   0  0  0  0  0  0  0  0  0  0  0  0
  -34.0673   37.7489   -4.5730 H   0  0  0  0  0  0  0  0  0  0  0  0
  -34.4315   35.4581   -3.8172 H   0  0  0  0  0  0  0  0  0  0  0  0
  -35.2771   38.3391   -5.7814 H   0  0  0  0  0  0  0  0  0  0  0  0
  -36.7403   37.6521   -4.8159 H   0  0  0  0  0  0  0  0  0  0  0  0
  -37.1926   39.4873   -4.2586 H   0  0  0  0  0  0  0  0  0  0  0  0
  -35.5910   40.1252   -5.0006 H   0  0  0  0  0  0  0  0  0  0  0  0
  -35.7906   43.1130   -0.6907 H   0  0  0  0  0  0  0  0  0  0  0  0
  -34.8698   42.5725   -3.1193 H   0  0  0  0  0  0  0  0  0  0  0  0
  -33.6705   40.9279   -1.9815 H   0  0  0  0  0  0  0  0  0  0  0  0
  -31.8841   41.9092   -2.6547 H   0  0  0  0  0  0  0  0  0  0  0  0
  -33.0413   42.9108   -0.3882 H   0  0  0  0  0  0  0  0  0  0  0  0
  -34.4585   42.3882    0.5743 H   0  0  0  0  0  0  0  0  0  0  0  0
  -34.1511   40.5618    0.2497 H   0  0  0  0  0  0  0  0  0  0  0  0
  -33.6594   42.1272    2.4021 H   0  0  0  0  0  0  0  0  0  0  0  0
  -33.4021   40.3144    1.9538 H   0  0  0  0  0  0  0  0  0  0  0  0
  -31.7263   40.3914    1.7427 H   0  0  0  0  0  0  0  0  0  0  0  0
  -30.4521   42.6678    1.1010 H   0  0  0  0  0  0  0  0  0  0  0  0
  -30.3989   40.8278    0.7511 H   0  0  0  0  0  0  0  0  0  0  0  0
  -31.1047   41.1638   -1.0585 H   0  0  0  0  0  0  0  0  0  0  0  0
  -31.3477   42.9798   -0.6195 H   0  0  0  0  0  0  0  0  0  0  0  0
  -29.3223   41.0442    2.9643 H   0  0  0  0  0  0  0  0  0  0  0  0
  -29.8462   42.6034    3.6588 H   0  0  0  0  0  0  0  0  0  0  0  0
  -30.4581   39.9991    5.1097 H   0  0  0  0  0  0  0  0  0  0  0  0
  -28.8268   40.7505    5.2428 H   0  0  0  0  0  0  0  0  0  0  0  0
  -32.3009   42.3595    5.2556 H   0  0  0  0  0  0  0  0  0  0  0  0
  -32.1485   40.7533    6.1323 H   0  0  0  0  0  0  0  0  0  0  0  0
  -32.4537   43.5217    7.3104 H   0  0  0  0  0  0  0  0  0  0  0  0
  -33.5276   42.0673    7.4733 H   0  0  0  0  0  0  0  0  0  0  0  0
  -32.1668   42.4953    9.5173 H   0  0  0  0  0  0  0  0  0  0  0  0
  -31.8253   40.9073    8.7755 H   0  0  0  0  0  0  0  0  0  0  0  0
  -30.2140   43.4679    8.2416 H   0  0  0  0  0  0  0  0  0  0  0  0
  -29.7234   42.2000    9.3947 H   0  0  0  0  0  0  0  0  0  0  0  0
  -29.8347   40.5125    7.5428 H   0  0  0  0  0  0  0  0  0  0  0  0
  -28.6514   41.8402    7.2072 H   0  0  0  0  0  0  0  0  0  0  0  0
  -47.0163   10.7907    5.8962 H   0  0  0  0  0  0  0  0  0  0  0  0
  -46.8625   11.4905    4.1720 H   0  0  0  0  0  0  0  0  0  0  0  0
  -48.7778   11.1357    3.8676 H   0  0  0  0  0  0  0  0  0  0  0  0
  -48.9534   10.6264    5.6801 H   0  0  0  0  0  0  0  0  0  0  0  0
  -49.4564   12.7774    4.1617 H   0  0  0  0  0  0  0  0  0  0  0  0
  -51.3971   12.0761    5.7828 H   0  0  0  0  0  0  0  0  0  0  0  0
  -49.4988   14.4043    4.9636 H   0  0  0  0  0  0  0  0  0  0  0  0
  -49.6212   13.6887    6.6869 H   0  0  0  0  0  0  0  0  0  0  0  0
  -47.7042   14.2050    4.8788 H   0  0  0  0  0  0  0  0  0  0  0  0
  -45.4273   15.0023    5.4367 H   0  0  0  0  0  0  0  0  0  0  0  0
  -43.9684   14.6517    7.4211 H   0  0  0  0  0  0  0  0  0  0  0  0
  -42.9541   14.5761    5.9586 H   0  0  0  0  0  0  0  0  0  0  0  0
  -43.7388   16.1327    5.2135 H   0  0  0  0  0  0  0  0  0  0  0  0
  -41.3561   15.7108    6.4231 H   0  0  0  0  0  0  0  0  0  0  0  0
  -42.2557   17.1795    5.6549 H   0  0  0  0  0  0  0  0  0  0  0  0
  -41.7343   16.2239    8.0991 H   0  0  0  0  0  0  0  0  0  0  0  0
  -40.9398   17.9064    8.8219 H   0  0  0  0  0  0  0  0  0  0  0  0
  -42.9184   16.6469    9.4234 H   0  0  0  0  0  0  0  0  0  0  0  0
  -43.6970   18.0422    8.4404 H   0  0  0  0  0  0  0  0  0  0  0  0
  -45.2772   16.8820    8.0973 H   0  0  0  0  0  0  0  0  0  0  0  0
  -44.3663   15.4150    8.8601 H   0  0  0  0  0  0  0  0  0  0  0  0
  -46.7530   13.1269    4.6240 H   0  0  0  0  0  0  0  0  0  0  0  0
  -45.7028   12.9302    7.0261 H   0  0  0  0  0  0  0  0  0  0  0  0
  -43.7580   13.3751    5.9273 H   0  0  0  0  0  0  0  0  0  0  0  0
  -44.2847   12.3834    7.5983 H   0  0  0  0  0  0  0  0  0  0  0  0
  -44.5643   11.6168    4.1689 H   0  0  0  0  0  0  0  0  0  0  0  0
  -45.3090   13.0044    3.3009 H   0  0  0  0  0  0  0  0  0  0  0  0
  -43.8988   14.1793    3.7540 H   0  0  0  0  0  0  0  0  0  0  0  0
  -44.5152   12.8849    1.4493 H   0  0  0  0  0  0  0  0  0  0  0  0
  -43.1884   14.0868    2.0129 H   0  0  0  0  0  0  0  0  0  0  0  0
  -41.9267   12.9459    2.1619 H   0  0  0  0  0  0  0  0  0  0  0  0
  -42.4081   10.3211    2.5547 H   0  0  0  0  0  0  0  0  0  0  0  0
  -41.2010   11.6788    3.0606 H   0  0  0  0  0  0  0  0  0  0  0  0
  -41.9611   11.6650    4.8650 H   0  0  0  0  0  0  0  0  0  0  0  0
  -43.2918   10.4651    4.3013 H   0  0  0  0  0  0  0  0  0  0  0  0
  -40.3825   11.1516    0.8524 H   0  0  0  0  0  0  0  0  0  0  0  0
  -41.8363   10.1596    0.3298 H   0  0  0  0  0  0  0  0  0  0  0  0
  -40.4728   12.1710   -1.4632 H   0  0  0  0  0  0  0  0  0  0  0  0
  -40.0196   10.4143   -1.3702 H   0  0  0  0  0  0  0  0  0  0  0  0
  -43.5454   11.8291   -1.3335 H   0  0  0  0  0  0  0  0  0  0  0  0
  -42.3016   12.8487   -2.2249 H   0  0  0  0  0  0  0  0  0  0  0  0
  -44.5059   11.1405   -3.4034 H   0  0  0  0  0  0  0  0  0  0  0  0
  -44.2827   12.9331   -3.4931 H   0  0  0  0  0  0  0  0  0  0  0  0
  -43.5935   11.8244   -5.6095 H   0  0  0  0  0  0  0  0  0  0  0  0
  -42.2143   12.6172   -4.8288 H   0  0  0  0  0  0  0  0  0  0  0  0
  -42.9987    9.6741   -4.3923 H   0  0  0  0  0  0  0  0  0  0  0  0
  -41.7524   10.1987   -5.5509 H   0  0  0  0  0  0  0  0  0  0  0  0
  -40.5596   11.3799   -3.6825 H   0  0  0  0  0  0  0  0  0  0  0  0
  -40.7294    9.5933   -3.4011 H   0  0  0  0  0  0  0  0  0  0  0  0
  1  2  1  0
  2  3  1  0
  3  4  1  0
  3  5  1  0
  5  6  1  0
  6  7  1  0
  7  8  1  0
  8  9  1  0
  9 10  1  0
 10 11  1  0
 11 12  1  0
 12 13  1  0
 12 14  1  0
  9 15  1  0
 14 15  1  0
  1 16  1  0
  6 16  1  0
  8 17  1  0
 16 17  1  0
 17 18  1  0
 18 19  1  0
 18 20  1  0
 20 21  1  0
 21 22  1  0
 22 23  1  0
 23 24  1  0
 20 25  1  0
 24 25  1  0
 23 26  1  0
 26 27  1  0
 27 28  1  0
 28 29  1  0
 29 30  1  0
 30 31  1  0
 31 32  1  0
 32 33  1  0
 29 34  1  0
 33 34  1  0
 35 36  1  0
 36 37  1  0
 37 38  1  0
 37 39  1  0
 39 40  1  0
 40 41  1  0
 41 42  1  0
 42 43  1  0
 43 44  1  0
 44 45  1  0
 45 46  1  0
 46 47  1  0
 46 48  1  0
 43 49  1  0
 48 49  1  0
 35 50  1  0
 40 50  1  0
 42 51  1  0
 50 51  1  0
 51 52  1  0
 52 53  1  0
 52 54  1  0
 54 55  1  0
 55 56  1  0
 56 57  1  0
 57 58  1  0
 54 59  1  0
 58 59  1  0
 57 60  1  0
 60 61  1  0
 61 62  1  0
 62 63  1  0
 63 64  1  0
 64 65  1  0
 65 66  1  0
 66 67  1  0
 63 68  1  0
 67 68  1  0
  1 69  1  0
  1 70  1  0
  2 71  1  0
  2 72  1  0
  3 73  1  0
  4 74  1  0
  5 75  1  0
  5 76  1  0
  6 77  1  0
  8 78  1  1
  9 79  1  1
 10 80  1  0
 10 81  1  0
 11 82  1  0
 11 83  1  0
 12 84  1  0
 13 85  1  0
 14 86  1  0
 14 87  1  0
 15 88  1  0
 15 89  1  0
 16 90  1  0
 17 91  1  6
 18 92  1  0
 19 93  1  0
 20 94  1  0
 21 95  1  0
 21 96  1  0
 22 97  1  0
 22 98  1  0
 23 99  1  0
 24100  1  0
 24101  1  0
 25102  1  0
 25103  1  0
 27104  1  0
 27105  1  0
 28106  1  0
 28107  1  0
 30108  1  0
 30109  1  0
 31110  1  0
 31111  1  0
 32112  1  0
 32113  1  0
 33114  1  0
 33115  1  0
 34116  1  0
 34117  1  0
 35118  1  0
 35119  1  0
 36120  1  0
 36121  1  0
 37122  1  0
 38123  1  0
 39124  1  0
 39125  1  0
 40126  1  0
 42127  1  0
 43128  1  0
 44129  1  0
 44130  1  0
 45131  1  0
 45132  1  0
 46133  1  0
 47134  1  0
 48135  1  0
 48136  1  0
 49137  1  0
 49138  1  0
 50139  1  0
 51140  1  0
 52141  1  6
 53142  1  0
 54143  1  0
 55144  1  0
 55145  1  0
 56146  1  0
 56147  1  0
 57148  1  0
 58149  1  0
 58150  1  0
 59151  1  0
 59152  1  0
 61153  1  0
 61154  1  0
 62155  1  0
 62156  1  0
 64157  1  0
 64158  1  0
 65159  1  0
 65160  1  0
 66161  1  0
 66162  1  0
 67163  1  0
 67164  1  0
 68165  1  0
 68166  1  0
M  END
>  <PDBID>  (1) 
2JFA

>  <PDB ID>  (1) 
2JFA

>  <Generic Name>  (1) 
Raloxifene

>  <Brand Name>  (1) 
Act Raloxifene#Apo-raloxifene#Evista#Evista (60mg)#PMS-raloxifene#Raloxifene#Raloxifene Hydrochloride#Teva-raloxifene#Keoxifene

>  <DrugBank ID>  (1) 
DB00481

>  <ATC Codes>  (1) 
G03XC01

>  <Ligand ID>  (1) 
RAL

>  <Target Name>  (1) 
Estrogen receptor

>  <UniProt ID>  (1) 
P03372

>  <PDB ID.1>  (1) 
2JFA

>  <Seq. Identity>  (1) 
92%

$$$$
