PDB_DB00273_96
     RDKit          3D

 43 45  0  0  0  0  0  0  0  0999 V2000
   39.7870   10.5550   20.8730 C   0  0  0  0  0  0  0  0  0  0  0  0
   38.4970   10.6980   20.0720 C   0  0  0  0  0  0  0  0  0  0  0  0
   37.7980   11.9950   20.4640 C   0  0  0  0  0  0  0  0  0  0  0  0
   37.6660    9.5360   20.2210 O   0  0  0  0  0  0  0  0  0  0  0  0
   38.7700   10.7540   18.6670 O   0  0  0  0  0  0  0  0  0  0  0  0
   37.7400   10.0340   17.9800 C   0  0  1  0  0  0  0  0  0  0  0  0
   38.2750    9.5610   16.6390 C   0  0  2  0  0  0  0  0  0  0  0  0
   37.2080    9.0560   15.8550 O   0  0  0  0  0  0  0  0  0  0  0  0
   37.7000    8.0400   15.0150 C   0  0  0  0  0  0  0  0  0  0  0  0
   38.0310    8.6280   13.6430 C   0  0  0  0  0  0  0  0  0  0  0  0
   36.6170    6.9670   14.8990 C   0  0  0  0  0  0  0  0  0  0  0  0
   38.8850    7.5460   15.6620 O   0  0  0  0  0  0  0  0  0  0  0  0
   39.2920    8.4370   16.7100 C   0  0  2  0  0  0  0  0  0  0  0  0
   39.3190    7.7790   18.0900 C   0  0  0  0  0  0  0  0  0  0  0  0
   38.0180    7.7140   18.6980 O   0  0  0  0  0  0  0  0  0  0  0  0
   37.3150    8.9400   18.9560 C   0  0  1  0  0  0  0  0  0  0  0  0
   35.8220    8.6070   18.8990 C   0  0  0  0  0  0  0  0  0  0  0  0
   34.9830    9.7540   19.0170 O   0  0  0  0  0  0  0  0  0  0  0  0
   33.4510    9.6040   19.1680 S   0  0  0  0  0  0  0  0  0  0  0  0
   33.1370    9.1430   20.5260 O   0  0  0  0  0  0  0  0  0  0  0  0
   32.8400   10.8940   18.8210 O   0  0  0  0  0  0  0  0  0  0  0  0
   32.9150    8.5070   18.2600 N   0  0  0  0  0  0  0  0  0  0  0  0
   39.5558   10.5806   21.9481 H   0  0  0  0  0  0  0  0  0  0  0  0
   40.2689    9.5979   20.6243 H   0  0  0  0  0  0  0  0  0  0  0  0
   40.4668   11.3833   20.6243 H   0  0  0  0  0  0  0  0  0  0  0  0
   37.7564   12.0722   21.5605 H   0  0  0  0  0  0  0  0  0  0  0  0
   38.3573   12.8504   20.0572 H   0  0  0  0  0  0  0  0  0  0  0  0
   36.7760   11.9982   20.0572 H   0  0  0  0  0  0  0  0  0  0  0  0
   36.8501   10.6236   17.7146 H   0  0  0  0  0  0  0  0  0  0  0  0
   38.7663   10.4487   16.2140 H   0  0  0  0  0  0  0  0  0  0  0  0
   38.5669    9.5800   13.7717 H   0  0  0  0  0  0  0  0  0  0  0  0
   38.6648    7.9229   13.0851 H   0  0  0  0  0  0  0  0  0  0  0  0
   37.0995    8.8041   13.0851 H   0  0  0  0  0  0  0  0  0  0  0  0
   36.3014    6.6543   15.9053 H   0  0  0  0  0  0  0  0  0  0  0  0
   35.7531    7.3754   14.3541 H   0  0  0  0  0  0  0  0  0  0  0  0
   37.0174    6.0993   14.3541 H   0  0  0  0  0  0  0  0  0  0  0  0
   40.3277    8.7807   16.5716 H   0  0  0  0  0  0  0  0  0  0  0  0
   39.7100    6.7562   17.9848 H   0  0  0  0  0  0  0  0  0  0  0  0
   39.9594    8.3940   18.7394 H   0  0  0  0  0  0  0  0  0  0  0  0
   35.6101    8.1170   17.9372 H   0  0  0  0  0  0  0  0  0  0  0  0
   35.6014    7.9527   19.7553 H   0  0  0  0  0  0  0  0  0  0  0  0
   32.5397    7.7388   18.8343 H   0  0  0  0  0  0  0  0  0  0  0  0
   32.1656    8.8890   17.6655 H   0  0  0  0  0  0  0  0  0  0  0  0
  1  2  1  0
  2  3  1  0
  2  4  1  0
  2  5  1  0
  5  6  1  0
  6  7  1  0
  7  8  1  0
  8  9  1  0
  9 10  1  0
  9 11  1  0
  9 12  1  0
  7 13  1  0
 12 13  1  0
 13 14  1  0
 14 15  1  0
  4 16  1  0
  6 16  1  0
 15 16  1  0
 16 17  1  1
 17 18  1  0
 18 19  1  0
 19 20  2  0
 19 21  2  0
 19 22  1  0
  1 23  1  0
  1 24  1  0
  1 25  1  0
  3 26  1  0
  3 27  1  0
  3 28  1  0
  6 29  1  6
  7 30  1  6
 10 31  1  0
 10 32  1  0
 10 33  1  0
 11 34  1  0
 11 35  1  0
 11 36  1  0
 13 37  1  6
 14 38  1  0
 14 39  1  0
 17 40  1  0
 17 41  1  0
 22 42  1  0
 22 43  1  0
M  END
$$$$
