PDB_DB09034_99
     RDKit          3D

 75 79  0  0  0  0  0  0  0  0999 V2000
   -8.0670   -1.5380  -55.0270 C   0  0  0  0  0  0  0  0  0  0  0  0
   -9.1820   -0.8810  -54.7610 N   0  0  0  0  0  0  0  0  0  0  0  0
   -7.4280   -2.0600  -53.9480 O   0  0  0  0  0  0  0  0  0  0  0  0
   -3.0280   -4.3530  -56.9700 Cl  0  0  0  0  0  0  0  0  0  0  0  0
   -7.5010   -1.7520  -56.1770 N   0  0  0  0  0  0  0  0  0  0  0  0
   -7.7730    3.0020  -55.0760 O   0  0  0  0  0  0  0  0  0  0  0  0
   -6.3620   -2.4940  -55.8530 C   0  0  0  0  0  0  0  0  0  0  0  0
   -9.0870    1.6180  -53.9070 N   0  0  0  0  0  0  0  0  0  0  0  0
   -5.3470   -3.0150  -56.6460 C   0  0  0  0  0  0  0  0  0  0  0  0
   -7.4890    2.7860  -51.2700 N   0  0  0  0  0  0  0  0  0  0  0  0
   -4.3280   -3.7050  -56.0090 C   0  0  0  0  0  0  0  0  0  0  0  0
   -7.9640    2.3380  -50.1040 N   0  0  0  0  0  0  0  0  0  0  0  0
   -4.3010   -3.8890  -54.6310 C   0  0  0  0  0  0  0  0  0  0  0  0
   -8.0020    3.9510  -51.6840 N   0  0  0  0  0  0  0  0  0  0  0  0
   -5.3200   -3.3660  -53.8500 C   0  0  0  0  0  0  0  0  0  0  0  0
   -6.3260   -2.6770  -54.4920 C   0  0  0  0  0  0  0  0  0  0  0  0
   -9.6570   -0.7180  -53.3820 C   0  0  0  0  0  0  0  0  0  0  0  0
   -9.3210    0.6270  -52.8530 C   0  0  0  0  0  0  0  0  0  0  0  0
  -10.2460    2.0030  -54.7390 C   0  0  1  0  0  0  0  0  0  0  0  0
  -10.9600    0.7950  -55.3290 C   0  0  0  0  0  0  0  0  0  0  0  0
   -9.9960   -0.2810  -55.8250 C   0  0  0  0  0  0  0  0  0  0  0  0
   -7.8930    2.1780  -54.1880 C   0  0  0  0  0  0  0  0  0  0  0  0
   -6.6950    1.7630  -53.3800 C   0  0  0  0  0  0  0  0  0  0  0  0
   -6.5080    2.0750  -52.0250 C   0  0  0  0  0  0  0  0  0  0  0  0
   -5.3440    1.6760  -51.3790 C   0  0  0  0  0  0  0  0  0  0  0  0
   -4.3780    0.9720  -52.0730 C   0  0  0  0  0  0  0  0  0  0  0  0
   -4.5380    0.6460  -53.4100 C   0  0  0  0  0  0  0  0  0  0  0  0
   -5.7010    1.0470  -54.0480 C   0  0  0  0  0  0  0  0  0  0  0  0
   -8.8430    3.2540  -49.7200 C   0  0  0  0  0  0  0  0  0  0  0  0
   -8.8670    4.2950  -50.7400 C   0  0  0  0  0  0  0  0  0  0  0  0
   -3.4750   -0.1270  -54.1530 C   0  0  0  0  0  0  0  0  0  0  0  0
  -11.2080    2.9020  -53.9830 C   0  0  0  0  0  0  0  0  0  0  0  0
   -7.4920   -0.6067  -54.9170 H   0  0  0  0  0  0  0  0  0  0  0  0
   -8.1236   -2.2875  -56.7987 H   0  0  0  0  0  0  0  0  0  0  0  0
   -7.6424    3.8991  -54.6783 H   0  0  0  0  0  0  0  0  0  0  0  0
   -6.9345   -3.4255  -55.9737 H   0  0  0  0  0  0  0  0  0  0  0  0
   -5.8122   -3.7046  -57.3657 H   0  0  0  0  0  0  0  0  0  0  0  0
   -4.8564   -2.1350  -57.0874 H   0  0  0  0  0  0  0  0  0  0  0  0
   -3.7689   -2.7657  -55.8860 H   0  0  0  0  0  0  0  0  0  0  0  0
   -8.4229    1.4241  -50.2266 H   0  0  0  0  0  0  0  0  0  0  0  0
   -4.2879   -4.9746  -54.4539 H   0  0  0  0  0  0  0  0  0  0  0  0
   -3.4152   -3.3196  -54.3129 H   0  0  0  0  0  0  0  0  0  0  0  0
   -7.2619    4.6616  -51.7743 H   0  0  0  0  0  0  0  0  0  0  0  0
   -5.7865   -4.2048  -53.3127 H   0  0  0  0  0  0  0  0  0  0  0  0
   -4.8279   -2.6147  -53.2150 H   0  0  0  0  0  0  0  0  0  0  0  0
   -6.9015   -3.6080  -54.6020 H   0  0  0  0  0  0  0  0  0  0  0  0
  -10.7490   -0.8491  -53.3610 H   0  0  0  0  0  0  0  0  0  0  0  0
   -9.1630   -1.4727  -52.7525 H   0  0  0  0  0  0  0  0  0  0  0  0
   -8.4104    0.5450  -52.2413 H   0  0  0  0  0  0  0  0  0  0  0  0
  -10.1835    0.9724  -52.2641 H   0  0  0  0  0  0  0  0  0  0  0  0
   -9.8464    2.5828  -55.5841 H   0  0  0  0  0  0  0  0  0  0  0  0
  -11.6069    0.3568  -54.5547 H   0  0  0  0  0  0  0  0  0  0  0  0
  -11.5392    1.1447  -56.1963 H   0  0  0  0  0  0  0  0  0  0  0  0
   -9.3203    0.1727  -56.5650 H   0  0  0  0  0  0  0  0  0  0  0  0
  -10.6084   -1.0876  -56.2543 H   0  0  0  0  0  0  0  0  0  0  0  0
   -8.1015    2.9836  -53.4686 H   0  0  0  0  0  0  0  0  0  0  0  0
   -6.1807    2.6927  -53.6650 H   0  0  0  0  0  0  0  0  0  0  0  0
   -6.9794    1.1227  -51.7407 H   0  0  0  0  0  0  0  0  0  0  0  0
   -4.8615    2.5890  -51.0001 H   0  0  0  0  0  0  0  0  0  0  0  0
   -5.7026    0.9495  -50.6350 H   0  0  0  0  0  0  0  0  0  0  0  0
   -3.4544    1.5659  -52.0072 H   0  0  0  0  0  0  0  0  0  0  0  0
   -4.4085   -0.0134  -51.5850 H   0  0  0  0  0  0  0  0  0  0  0  0
   -5.0219   -0.2988  -53.1217 H   0  0  0  0  0  0  0  0  0  0  0  0
   -6.1795    0.1304  -54.4234 H   0  0  0  0  0  0  0  0  0  0  0  0
   -5.3275    1.7856  -54.7725 H   0  0  0  0  0  0  0  0  0  0  0  0
   -9.8403    2.8000  -49.6236 H   0  0  0  0  0  0  0  0  0  0  0  0
   -8.5611    3.6754  -48.7438 H   0  0  0  0  0  0  0  0  0  0  0  0
   -8.5764    5.2596  -50.2984 H   0  0  0  0  0  0  0  0  0  0  0  0
   -9.8776    4.3997  -51.1615 H   0  0  0  0  0  0  0  0  0  0  0  0
   -2.8041   -0.6149  -53.4306 H   0  0  0  0  0  0  0  0  0  0  0  0
   -3.9515   -0.8910  -54.7849 H   0  0  0  0  0  0  0  0  0  0  0  0
   -2.8950    0.5617  -54.7849 H   0  0  0  0  0  0  0  0  0  0  0  0
  -11.0630    2.7665  -52.9010 H   0  0  0  0  0  0  0  0  0  0  0  0
  -11.0157    3.9516  -54.2501 H   0  0  0  0  0  0  0  0  0  0  0  0
  -12.2422    2.6392  -54.2501 H   0  0  0  0  0  0  0  0  0  0  0  0
  1  2  1  0
  1  3  1  0
  1  5  1  0
  5  7  1  0
  7  9  1  0
  4 11  1  0
  9 11  1  0
 10 12  1  0
 11 13  1  0
 10 14  1  0
 13 15  1  0
  3 16  1  0
  7 16  1  0
 15 16  1  0
  2 17  1  0
  8 18  1  0
 17 18  1  0
  8 19  1  0
 19 20  1  0
  2 21  1  0
 20 21  1  0
  6 22  1  0
  8 22  1  0
 22 23  1  0
 10 24  1  0
 23 24  1  0
 24 25  1  0
 25 26  1  0
 26 27  1  0
 23 28  1  0
 27 28  1  0
 12 29  1  0
 14 30  1  0
 29 30  1  0
 27 31  1  0
 19 32  1  0
  1 33  1  0
  5 34  1  0
  6 35  1  0
  7 36  1  0
  9 37  1  0
  9 38  1  0
 11 39  1  0
 12 40  1  0
 13 41  1  0
 13 42  1  0
 14 43  1  0
 15 44  1  0
 15 45  1  0
 16 46  1  0
 17 47  1  0
 17 48  1  0
 18 49  1  0
 18 50  1  0
 19 51  1  6
 20 52  1  0
 20 53  1  0
 21 54  1  0
 21 55  1  0
 22 56  1  0
 23 57  1  0
 24 58  1  0
 25 59  1  0
 25 60  1  0
 26 61  1  0
 26 62  1  0
 27 63  1  0
 28 64  1  0
 28 65  1  0
 29 66  1  0
 29 67  1  0
 30 68  1  0
 30 69  1  0
 31 70  1  0
 31 71  1  0
 31 72  1  0
 32 73  1  0
 32 74  1  0
 32 75  1  0
M  END
>  <PDBID>  (1) 
4ZJ8

>  <PDB ID>  (1) 
4ZJ8

>  <Generic Name>  (1) 
Suvorexant

>  <Brand Name>  (1) 
Belsomra

>  <DrugBank ID>  (1) 
DB09034

>  <ATC Codes>  (1) 
nan

>  <Ligand ID>  (1) 
SUV

>  <Target Name>  (1) 
Orexin receptor type 1

>  <UniProt ID>  (1) 
O43613

>  <PDB ID.1>  (1) 
4ZJ8

>  <Seq. Identity>  (1) 
85%

$$$$
