PDB_DB00783_96
     RDKit          3D

 44 47  0  0  0  0  0  0  0  0999 V2000
   20.1490    4.1850    7.7240 C   0  0  0  0  0  0  0  0  0  0  0  0
   18.8270    4.3900    8.0270 C   0  0  0  0  0  0  0  0  0  0  0  0
   17.9580    4.9780    7.1560 C   0  0  0  0  0  0  0  0  0  0  0  0
   16.6830    5.1560    7.4000 O   0  0  0  0  0  0  0  0  0  0  0  0
   18.4820    5.3260    5.9280 C   0  0  0  0  0  0  0  0  0  0  0  0
   19.7950    5.1380    5.5910 C   0  0  0  0  0  0  0  0  0  0  0  0
   20.2710    5.5740    4.1940 C   0  0  0  0  0  0  0  0  0  0  0  0
   21.7470    5.6320    4.0640 C   0  0  0  0  0  0  0  0  0  0  0  0
   22.3700    4.4120    4.6090 C   0  0  2  0  0  0  0  0  0  0  0  0
   22.1120    4.3660    6.1420 C   0  0  1  0  0  0  0  0  0  0  0  0
   20.6360    4.5490    6.4800 C   0  0  0  0  0  0  0  0  0  0  0  0
   22.8250    3.1530    6.8150 C   0  0  0  0  0  0  0  0  0  0  0  0
   24.3070    3.1070    6.4540 C   0  0  0  0  0  0  0  0  0  0  0  0
   24.5350    3.1820    4.9420 C   0  0  1  0  0  0  0  0  0  0  0  0
   23.8640    4.4240    4.4110 C   0  0  1  0  0  0  0  0  0  0  0  0
   24.3750    4.4970    2.9840 C   0  0  0  0  0  0  0  0  0  0  0  0
   25.7980    3.9550    3.0890 C   0  0  0  0  0  0  0  0  0  0  0  0
   25.9700    3.4700    4.5580 C   0  0  2  0  0  0  0  0  0  0  0  0
   26.7720    2.3450    4.6230 O   0  0  0  0  0  0  0  0  0  0  0  0
   24.0580    1.9160    4.3080 C   0  0  0  0  0  0  0  0  0  0  0  0
   20.8210    3.7323    8.4679 H   0  0  0  0  0  0  0  0  0  0  0  0
   18.4535    4.0678    9.0102 H   0  0  0  0  0  0  0  0  0  0  0  0
   16.1055    5.5907    6.7235 H   0  0  0  0  0  0  0  0  0  0  0  0
   17.8107    5.7772    5.1825 H   0  0  0  0  0  0  0  0  0  0  0  0
   19.8842    4.8571    3.4548 H   0  0  0  0  0  0  0  0  0  0  0  0
   19.8909    6.5924    4.0256 H   0  0  0  0  0  0  0  0  0  0  0  0
   22.0117    5.7277    3.0006 H   0  0  0  0  0  0  0  0  0  0  0  0
   22.1166    6.4994    4.6307 H   0  0  0  0  0  0  0  0  0  0  0  0
   21.9369    3.5455    4.0879 H   0  0  0  0  0  0  0  0  0  0  0  0
   22.5920    5.2407    6.6051 H   0  0  0  0  0  0  0  0  0  0  0  0
   22.7253    3.2402    7.9070 H   0  0  0  0  0  0  0  0  0  0  0  0
   22.3517    2.2287    6.4521 H   0  0  0  0  0  0  0  0  0  0  0  0
   24.8148    3.9578    6.9317 H   0  0  0  0  0  0  0  0  0  0  0  0
   24.7124    2.1484    6.8101 H   0  0  0  0  0  0  0  0  0  0  0  0
   24.1118    5.3497    4.9510 H   0  0  0  0  0  0  0  0  0  0  0  0
   23.7645    3.8727    2.3150 H   0  0  0  0  0  0  0  0  0  0  0  0
   24.3326    5.5129    2.5644 H   0  0  0  0  0  0  0  0  0  0  0  0
   25.9391    3.1163    2.3914 H   0  0  0  0  0  0  0  0  0  0  0  0
   26.5404    4.7247    2.8312 H   0  0  0  0  0  0  0  0  0  0  0  0
   26.4675    4.1888    5.2258 H   0  0  0  0  0  0  0  0  0  0  0  0
   26.9379    2.1123    5.5709 H   0  0  0  0  0  0  0  0  0  0  0  0
   23.7858    1.1935    5.0915 H   0  0  0  0  0  0  0  0  0  0  0  0
   23.1781    2.1279    3.6829 H   0  0  0  0  0  0  0  0  0  0  0  0
   24.8590    1.4945    3.6829 H   0  0  0  0  0  0  0  0  0  0  0  0
  1  2  2  0
  2  3  1  0
  3  4  1  0
  3  5  2  0
  5  6  1  0
  6  7  1  0
  7  8  1  0
  8  9  1  0
  9 10  1  0
  1 11  1  0
  6 11  2  0
 10 11  1  0
 10 12  1  0
 12 13  1  0
 13 14  1  0
  9 15  1  0
 14 15  1  0
 15 16  1  0
 16 17  1  0
 14 18  1  0
 17 18  1  0
 18 19  1  0
 14 20  1  6
  1 21  1  0
  2 22  1  0
  4 23  1  0
  5 24  1  0
  7 25  1  0
  7 26  1  0
  8 27  1  0
  8 28  1  0
  9 29  1  6
 10 30  1  1
 12 31  1  0
 12 32  1  0
 13 33  1  0
 13 34  1  0
 15 35  1  1
 16 36  1  0
 16 37  1  0
 17 38  1  0
 17 39  1  0
 18 40  1  1
 19 41  1  0
 20 42  1  0
 20 43  1  0
 20 44  1  0
M  END
$$$$
