PDB_DB08864_98
     RDKit          3D

 74 76  0  0  0  0  0  0  0  0999 V2000
   49.9200  -25.0390   38.4010 C   0  0  0  0  0  0  0  0  0  0  0  0
   52.9220  -25.5230   33.4870 N   0  0  0  0  0  0  0  0  0  0  0  0
   49.3570  -27.1390   39.6290 C   0  0  0  0  0  0  0  0  0  0  0  0
   50.6730  -27.5810   39.4390 C   0  0  0  0  0  0  0  0  0  0  0  0
   51.6330  -26.8040   38.7590 C   0  0  0  0  0  0  0  0  0  0  0  0
   51.2560  -25.5110   38.2060 C   0  0  0  0  0  0  0  0  0  0  0  0
   49.4380  -23.7010   37.8610 C   0  0  0  0  0  0  0  0  0  0  0  0
   48.9750  -25.8670   39.1020 C   0  0  0  0  0  0  0  0  0  0  0  0
   53.0200  -27.3930   38.6140 C   0  0  0  0  0  0  0  0  0  0  0  0
   52.2190  -24.7430   37.5090 N   0  0  0  0  0  0  0  0  0  0  0  0
   53.4480  -24.3800   34.0610 C   0  0  0  0  0  0  0  0  0  0  0  0
   53.2610  -24.0380   35.4100 C   0  0  0  0  0  0  0  0  0  0  0  0
   52.4990  -24.9520   36.1440 C   0  0  0  0  0  0  0  0  0  0  0  0
   51.9820  -26.0780   35.5810 N   0  0  0  0  0  0  0  0  0  0  0  0
   52.1950  -26.3490   34.2960 C   0  0  0  0  0  0  0  0  0  0  0  0
   51.6610  -27.5010   33.7170 N   0  0  0  0  0  0  0  0  0  0  0  0
   49.7990  -31.0250   35.3120 C   0  0  0  0  0  0  0  0  0  0  0  0
   50.2690  -31.0130   33.9770 C   0  0  0  0  0  0  0  0  0  0  0  0
   50.8830  -29.8610   33.4410 C   0  0  0  0  0  0  0  0  0  0  0  0
   51.0480  -28.6730   34.2210 C   0  0  0  0  0  0  0  0  0  0  0  0
   50.5610  -28.7020   35.5700 C   0  0  0  0  0  0  0  0  0  0  0  0
   49.9400  -29.8610   36.1130 C   0  0  0  0  0  0  0  0  0  0  0  0
   48.6980  -33.1810   36.2720 N   0  0  0  0  0  0  0  0  0  0  0  0
   49.1860  -32.2130   35.8450 C   0  0  0  0  0  0  0  0  0  0  0  0
   47.5920  -27.5910   41.3330 C   0  0  0  0  0  0  0  0  0  0  0  0
   48.3850  -27.9920   40.3450 C   0  0  0  0  0  0  0  0  0  0  0  0
   45.9750  -29.2160   42.5000 N   0  0  0  0  0  0  0  0  0  0  0  0
   46.6980  -28.4860   41.9690 C   0  0  0  0  0  0  0  0  0  0  0  0
   50.2293  -24.5500   39.3365 H   0  0  0  0  0  0  0  0  0  0  0  0
   52.3087  -25.2277   32.7140 H   0  0  0  0  0  0  0  0  0  0  0  0
   49.6546  -26.6586   40.5728 H   0  0  0  0  0  0  0  0  0  0  0  0
   51.0829  -27.7670   40.4427 H   0  0  0  0  0  0  0  0  0  0  0  0
   50.5341  -28.4285   38.7516 H   0  0  0  0  0  0  0  0  0  0  0  0
   51.3555  -27.2899   37.8120 H   0  0  0  0  0  0  0  0  0  0  0  0
   51.5656  -25.0209   39.1409 H   0  0  0  0  0  0  0  0  0  0  0  0
   49.1971  -23.0322   38.7004 H   0  0  0  0  0  0  0  0  0  0  0  0
   50.2292  -23.2473   37.2461 H   0  0  0  0  0  0  0  0  0  0  0  0
   48.5392  -23.8561   37.2461 H   0  0  0  0  0  0  0  0  0  0  0  0
   48.6105  -25.2731   39.9531 H   0  0  0  0  0  0  0  0  0  0  0  0
   48.2599  -26.1387   38.3115 H   0  0  0  0  0  0  0  0  0  0  0  0
   53.4474  -27.5745   39.6112 H   0  0  0  0  0  0  0  0  0  0  0  0
   52.9592  -28.3429   38.0627 H   0  0  0  0  0  0  0  0  0  0  0  0
   53.6613  -26.6896   38.0627 H   0  0  0  0  0  0  0  0  0  0  0  0
   51.9204  -23.7609   37.5944 H   0  0  0  0  0  0  0  0  0  0  0  0
   54.5363  -24.4422   33.9139 H   0  0  0  0  0  0  0  0  0  0  0  0
   52.8646  -23.5960   33.5560 H   0  0  0  0  0  0  0  0  0  0  0  0
   54.2506  -23.9584   35.8837 H   0  0  0  0  0  0  0  0  0  0  0  0
   52.7011  -23.0912   35.4158 H   0  0  0  0  0  0  0  0  0  0  0  0
   51.5832  -24.4064   35.8726 H   0  0  0  0  0  0  0  0  0  0  0  0
   52.3561  -26.8743   36.1166 H   0  0  0  0  0  0  0  0  0  0  0  0
   53.1121  -26.8946   34.5631 H   0  0  0  0  0  0  0  0  0  0  0  0
   50.9475  -27.1262   33.0756 H   0  0  0  0  0  0  0  0  0  0  0  0
   50.7820  -31.3800   35.6549 H   0  0  0  0  0  0  0  0  0  0  0  0
   51.0034  -31.8278   33.8948 H   0  0  0  0  0  0  0  0  0  0  0  0
   49.3425  -31.0937   33.3895 H   0  0  0  0  0  0  0  0  0  0  0  0
   51.8906  -30.1658   33.1219 H   0  0  0  0  0  0  0  0  0  0  0  0
   50.1622  -29.5430   32.6734 H   0  0  0  0  0  0  0  0  0  0  0  0
   50.0691  -28.3098   33.8749 H   0  0  0  0  0  0  0  0  0  0  0  0
   51.4237  -28.4812   36.2158 H   0  0  0  0  0  0  0  0  0  0  0  0
   49.7291  -27.9832   35.5356 H   0  0  0  0  0  0  0  0  0  0  0  0
   48.9278  -29.5640   36.4248 H   0  0  0  0  0  0  0  0  0  0  0  0
   50.6360  -30.1774   36.9038 H   0  0  0  0  0  0  0  0  0  0  0  0
   48.7144  -33.1485   37.3014 H   0  0  0  0  0  0  0  0  0  0  0  0
   47.7231  -33.2466   35.9461 H   0  0  0  0  0  0  0  0  0  0  0  0
   49.1999  -31.7718   36.8526 H   0  0  0  0  0  0  0  0  0  0  0  0
   48.5991  -32.3245   34.9214 H   0  0  0  0  0  0  0  0  0  0  0  0
   48.2512  -27.1974   42.1208 H   0  0  0  0  0  0  0  0  0  0  0  0
   46.9097  -26.8948   40.8232 H   0  0  0  0  0  0  0  0  0  0  0  0
   47.7096  -28.3798   39.5681 H   0  0  0  0  0  0  0  0  0  0  0  0
   49.0727  -28.6463   40.9008 H   0  0  0  0  0  0  0  0  0  0  0  0
   46.0741  -29.1159   43.5203 H   0  0  0  0  0  0  0  0  0  0  0  0
   45.0060  -28.9993   42.2263 H   0  0  0  0  0  0  0  0  0  0  0  0
   45.8502  -27.8427   41.6909 H   0  0  0  0  0  0  0  0  0  0  0  0
   47.3230  -29.3345   41.6535 H   0  0  0  0  0  0  0  0  0  0  0  0
  3  4  1  0
  4  5  1  0
  1  6  1  0
  5  6  1  0
  1  7  1  0
  1  8  1  0
  3  8  1  0
  5  9  1  0
  6 10  1  0
  2 11  1  0
 11 12  1  0
 10 13  1  0
 12 13  1  0
 13 14  1  0
  2 15  1  0
 14 15  1  0
 15 16  1  0
 17 18  1  0
 18 19  1  0
 16 20  1  0
 19 20  1  0
 20 21  1  0
 17 22  1  0
 21 22  1  0
 17 24  1  0
 23 24  1  0
  3 26  1  0
 25 26  1  0
 25 28  1  0
 27 28  1  0
  1 29  1  0
  2 30  1  0
  3 31  1  0
  4 32  1  0
  4 33  1  0
  5 34  1  0
  6 35  1  0
  7 36  1  0
  7 37  1  0
  7 38  1  0
  8 39  1  0
  8 40  1  0
  9 41  1  0
  9 42  1  0
  9 43  1  0
 10 44  1  0
 11 45  1  0
 11 46  1  0
 12 47  1  0
 12 48  1  0
 13 49  1  0
 14 50  1  0
 15 51  1  0
 16 52  1  0
 17 53  1  0
 18 54  1  0
 18 55  1  0
 19 56  1  0
 19 57  1  0
 20 58  1  0
 21 59  1  0
 21 60  1  0
 22 61  1  0
 22 62  1  0
 23 63  1  0
 23 64  1  0
 24 65  1  0
 24 66  1  0
 25 67  1  0
 25 68  1  0
 26 69  1  0
 26 70  1  0
 27 71  1  0
 27 72  1  0
 28 73  1  0
 28 74  1  0
M  END
>  <PDBID>  (1) 
2ZD1

>  <PDB ID>  (1) 
2ZD1

>  <Generic Name>  (1) 
Rilpivirine

>  <Brand Name>  (1) 
Complera#Edurant#Odefsey

>  <DrugBank ID>  (1) 
DB08864

>  <ATC Codes>  (1) 
nan

>  <Ligand ID>  (1) 
T27

>  <Target Name>  (1) 
Reverse transcriptase/RNaseH

>  <UniProt ID>  (1) 
Q72547

>  <PDB ID.1>  (1) 
2ZD1

>  <Seq. Identity>  (1) 
95%

$$$$
