PDB_DB00523_88
     RDKit          3D

 50 50  0  0  0  0  0  0  0  0999 V2000
   29.3870  -18.8020   32.7750 C   0  0  0  0  0  0  0  0  0  0  0  0
   29.9150  -20.3050   33.0840 C   0  0  0  0  0  0  0  0  0  0  0  0
   29.6890  -21.4290   31.9640 C   0  0  0  0  0  0  0  0  0  0  0  0
   28.5530  -21.2040   31.1830 C   0  0  0  0  0  0  0  0  0  0  0  0
   28.2960  -19.9440   30.6120 C   0  0  0  0  0  0  0  0  0  0  0  0
   28.6520  -18.6490   31.2850 C   0  0  0  0  0  0  0  0  0  0  0  0
   28.4270  -17.3360   30.7610 C   0  0  0  0  0  0  0  0  0  0  0  0
   28.7950  -16.6560   29.6160 C   0  0  0  0  0  0  0  0  0  0  0  0
   28.4600  -15.4020   29.1060 C   0  0  0  0  0  0  0  0  0  0  0  0
   28.9780  -14.9690   27.8860 C   0  0  0  0  0  0  0  0  0  0  0  0
   29.8400  -15.7540   27.1290 C   0  0  0  0  0  0  0  0  0  0  0  0
   30.3480  -15.3420   25.9270 C   0  0  0  0  0  0  0  0  0  0  0  0
   31.2340  -16.1180   25.0830 C   0  0  0  0  0  0  0  0  0  0  0  0
   31.3120  -15.6070   23.7740 C   0  0  0  0  0  0  0  0  0  0  0  0
   32.1080  -16.1010   22.5530 C   0  0  0  0  0  0  0  0  0  0  0  0
   30.7570  -17.9970   32.6880 C   0  0  0  0  0  0  0  0  0  0  0  0
   28.6610  -18.1910   34.0220 C   0  0  0  0  0  0  0  0  0  0  0  0
   27.6250  -20.1140   29.2470 C   0  0  0  0  0  0  0  0  0  0  0  0
   27.4770  -14.3670   29.8110 C   0  0  0  0  0  0  0  0  0  0  0  0
   32.0080  -17.3780   25.5420 C   0  0  0  0  0  0  0  0  0  0  0  0
   31.6630  -16.0160   21.4330 O   0  0  0  0  0  0  0  0  0  0  0  0
   33.2600  -16.6180   22.7820 O   0  0  0  0  0  0  0  0  0  0  0  0
   30.9976  -20.2397   33.2676 H   0  0  0  0  0  0  0  0  0  0  0  0
   29.3046  -20.6401   33.9355 H   0  0  0  0  0  0  0  0  0  0  0  0
   30.5691  -21.4479   31.3044 H   0  0  0  0  0  0  0  0  0  0  0  0
   29.5441  -22.3868   32.4852 H   0  0  0  0  0  0  0  0  0  0  0  0
   28.6020  -21.9195   30.3489 H   0  0  0  0  0  0  0  0  0  0  0  0
   27.7372  -21.3055   31.9139 H   0  0  0  0  0  0  0  0  0  0  0  0
   27.8121  -16.7189   31.4327 H   0  0  0  0  0  0  0  0  0  0  0  0
   29.4933  -17.2171   28.9777 H   0  0  0  0  0  0  0  0  0  0  0  0
   28.6955  -13.9744   27.5106 H   0  0  0  0  0  0  0  0  0  0  0  0
   30.1250  -16.7453   27.5112 H   0  0  0  0  0  0  0  0  0  0  0  0
   30.0606  -14.3410   25.5730 H   0  0  0  0  0  0  0  0  0  0  0  0
   30.7048  -14.7076   23.5942 H   0  0  0  0  0  0  0  0  0  0  0  0
   31.1215  -17.7828   33.7035 H   0  0  0  0  0  0  0  0  0  0  0  0
   31.5032  -18.6002   32.1502 H   0  0  0  0  0  0  0  0  0  0  0  0
   30.5932  -17.0515   32.1502 H   0  0  0  0  0  0  0  0  0  0  0  0
   29.1226  -18.5795   34.9418 H   0  0  0  0  0  0  0  0  0  0  0  0
   28.7537  -17.0951   33.9998 H   0  0  0  0  0  0  0  0  0  0  0  0
   27.5971  -18.4695   33.9998 H   0  0  0  0  0  0  0  0  0  0  0  0
   26.5676  -20.3819   29.3890 H   0  0  0  0  0  0  0  0  0  0  0  0
   27.6920  -19.1705   28.6855 H   0  0  0  0  0  0  0  0  0  0  0  0
   28.1331  -20.9118   28.6855 H   0  0  0  0  0  0  0  0  0  0  0  0
   27.5669  -14.4616   30.9032 H   0  0  0  0  0  0  0  0  0  0  0  0
   27.7437  -13.3436   29.5084 H   0  0  0  0  0  0  0  0  0  0  0  0
   26.4412  -14.5806   29.5084 H   0  0  0  0  0  0  0  0  0  0  0  0
   32.0304  -17.4144   26.6412 H   0  0  0  0  0  0  0  0  0  0  0  0
   31.5065  -18.2775   25.1555 H   0  0  0  0  0  0  0  0  0  0  0  0
   33.0370  -17.3373   25.1555 H   0  0  0  0  0  0  0  0  0  0  0  0
   32.1942  -16.3409   20.6633 H   0  0  0  0  0  0  0  0  0  0  0  0
  1  2  1  0
  2  3  1  0
  3  4  1  0
  4  5  1  0
  1  6  1  0
  5  6  2  0
  6  7  1  0
  7  8  2  0
  8  9  1  0
  9 10  2  0
 10 11  1  0
 11 12  2  0
 12 13  1  0
 13 14  2  0
 14 15  1  0
  1 16  1  0
  1 17  1  0
  5 18  1  0
  9 19  1  0
 13 20  1  0
 15 21  1  0
 15 22  2  0
  2 23  1  0
  2 24  1  0
  3 25  1  0
  3 26  1  0
  4 27  1  0
  4 28  1  0
  7 29  1  0
  8 30  1  0
 10 31  1  0
 11 32  1  0
 12 33  1  0
 14 34  1  0
 16 35  1  0
 16 36  1  0
 16 37  1  0
 17 38  1  0
 17 39  1  0
 17 40  1  0
 18 41  1  0
 18 42  1  0
 18 43  1  0
 19 44  1  0
 19 45  1  0
 19 46  1  0
 20 47  1  0
 20 48  1  0
 20 49  1  0
 21 50  1  0
M  END
$$$$
