PDB_DB06147_99
     RDKit          3D

 25 26  0  0  0  0  0  0  0  0999 V2000
  -56.0580   51.6320  136.6700 O   0  0  0  0  0  0  0  0  0  0  0  0
  -56.0980   52.2180  135.3590 S   0  0  0  0  0  0  0  0  0  0  0  0
  -57.1360   51.5600  134.6110 O   0  0  0  0  0  0  0  0  0  0  0  0
  -56.4010   53.7760  135.4680 C   0  0  0  0  0  0  0  0  0  0  0  0
  -55.7270   54.5230  136.4340 C   0  0  0  0  0  0  0  0  0  0  0  0
  -55.9640   55.8880  136.5290 C   0  0  0  0  0  0  0  0  0  0  0  0
  -57.3020   54.3740  134.5880 C   0  0  0  0  0  0  0  0  0  0  0  0
  -57.5360   55.7380  134.6890 C   0  0  0  0  0  0  0  0  0  0  0  0
  -56.8670   56.4870  135.6580 C   0  0  0  0  0  0  0  0  0  0  0  0
  -57.0900   57.8170  135.7570 N   0  0  0  0  0  0  0  0  0  0  0  0
  -54.6500   52.0280  134.6460 N   0  0  0  0  0  0  0  0  0  0  0  0
  -53.9660   52.9220  133.8480 C   0  0  0  0  0  0  0  0  0  0  0  0
  -53.2160   52.4910  132.3430 S   0  0  0  0  0  0  0  0  0  0  0  0
  -52.6180   54.0990  132.0700 C   0  0  0  0  0  0  0  0  0  0  0  0
  -53.0230   54.8710  133.1640 C   0  0  0  0  0  0  0  0  0  0  0  0
  -53.7480   54.2310  134.1420 N   0  0  0  0  0  0  0  0  0  0  0  0
  -55.0139   54.0351  137.1147 H   0  0  0  0  0  0  0  0  0  0  0  0
  -55.4417   56.4902  137.2870 H   0  0  0  0  0  0  0  0  0  0  0  0
  -57.8195   53.7737  133.8252 H   0  0  0  0  0  0  0  0  0  0  0  0
  -58.2469   56.2276  134.0071 H   0  0  0  0  0  0  0  0  0  0  0  0
  -57.7559   58.2764  135.1194 H   0  0  0  0  0  0  0  0  0  0  0  0
  -56.5940   58.3707  136.4700 H   0  0  0  0  0  0  0  0  0  0  0  0
  -54.1832   51.1248  134.8109 H   0  0  0  0  0  0  0  0  0  0  0  0
  -52.0337   54.4436  131.2041 H   0  0  0  0  0  0  0  0  0  0  0  0
  -52.7734   55.9397  133.2386 H   0  0  0  0  0  0  0  0  0  0  0  0
  1  2  2  0
  2  3  2  0
  2  4  1  0
  4  5  2  0
  5  6  1  0
  4  7  1  0
  7  8  2  0
  6  9  2  0
  8  9  1  0
  9 10  1  0
  2 11  1  0
 11 12  1  0
 12 13  1  0
 13 14  1  0
 14 15  2  0
 12 16  2  0
 15 16  1  0
  5 17  1  0
  6 18  1  0
  7 19  1  0
  8 20  1  0
 10 21  1  0
 10 22  1  0
 11 23  1  0
 14 24  1  0
 15 25  1  0
M  END
>  <PDBID>  (1) 
3TYE

>  <PDB ID>  (1) 
3TYE

>  <Generic Name>  (1) 
Sulfathiazole

>  <Brand Name>  (1) 
Norsulfazolum#Sulfatiazol

>  <DrugBank ID>  (1) 
DB06147

>  <ATC Codes>  (1) 
J01EB07#D06BA02

>  <Ligand ID>  (1) 
YTZ

>  <Target Name>  (1) 
Dihydropteroate synthetase

>  <UniProt ID>  (1) 
Q27738

>  <PDB ID.1>  (1) 
3TYE

>  <Seq. Identity>  (1) 
35%

$$$$
