PDB_DB04854_98
     RDKit          3D

 38 39  0  0  0  0  0  0  0  0999 V2000
   96.2200  106.1920   34.4030 S   0  0  0  0  0  0  0  0  0  0  0  0
   97.5930  105.2080   34.1030 C   0  0  0  0  0  0  0  0  0  0  0  0
   98.3240  105.0480   35.2170 N   0  0  0  0  0  0  0  0  0  0  0  0
   97.8310  105.7000   36.3590 C   0  0  0  0  0  0  0  0  0  0  0  0
   96.6610  106.3850   36.0710 C   0  0  0  0  0  0  0  0  0  0  0  0
   97.8770  104.6310   32.7460 C   0  0  0  0  0  0  0  0  0  0  0  0
   98.6730  103.4580   32.6650 C   0  0  0  0  0  0  0  0  0  0  0  0
   98.9530  102.9000   31.4020 C   0  0  0  0  0  0  0  0  0  0  0  0
   98.4390  103.5070   30.1970 C   0  0  0  0  0  0  0  0  0  0  0  0
   97.5550  104.7990   30.2320 C   0  0  0  0  0  0  0  0  0  0  0  0
   97.2680  105.3610   31.4300 C   0  0  0  0  0  0  0  0  0  0  0  0
   99.8030  101.6390   31.2540 C   0  0  0  0  0  0  0  0  0  0  0  0
  100.4440  100.6900   31.1080 N   0  0  0  0  0  0  0  0  0  0  0  0
   98.7770  102.8700   28.9620 O   0  0  0  0  0  0  0  0  0  0  0  0
   98.2550  103.4840   27.7570 C   0  0  0  0  0  0  0  0  0  0  0  0
   98.5720  102.6170   26.4800 C   0  0  0  0  0  0  0  0  0  0  0  0
   98.0920  101.1800   26.6290 C   0  0  0  0  0  0  0  0  0  0  0  0
   97.9170  103.2180   25.2570 C   0  0  0  0  0  0  0  0  0  0  0  0
   98.5650  105.5930   37.6570 C   0  0  0  0  0  0  0  0  0  0  0  0
   95.8050  107.2270   37.0360 C   0  0  0  0  0  0  0  0  0  0  0  0
   96.1140  107.3750   38.2230 O   0  0  0  0  0  0  0  0  0  0  0  0
   94.8050  107.7320   36.5250 O   0  0  0  0  0  0  0  0  0  0  0  0
   99.0670  102.9897   33.5790 H   0  0  0  0  0  0  0  0  0  0  0  0
   97.1740  105.2421   29.3001 H   0  0  0  0  0  0  0  0  0  0  0  0
   96.6517  106.2688   31.5078 H   0  0  0  0  0  0  0  0  0  0  0  0
   97.1645  103.5907   27.8543 H   0  0  0  0  0  0  0  0  0  0  0  0
   98.7364  104.4655   27.6347 H   0  0  0  0  0  0  0  0  0  0  0  0
   99.6660  102.6126   26.3655 H   0  0  0  0  0  0  0  0  0  0  0  0
   98.0085  100.9302   27.6970 H   0  0  0  0  0  0  0  0  0  0  0  0
   97.1084  101.0703   26.1488 H   0  0  0  0  0  0  0  0  0  0  0  0
   98.8122  100.5012   26.1488 H   0  0  0  0  0  0  0  0  0  0  0  0
   97.1400  103.9309   25.5702 H   0  0  0  0  0  0  0  0  0  0  0  0
   98.6744  103.7419   24.6555 H   0  0  0  0  0  0  0  0  0  0  0  0
   97.4600  102.4184   24.6555 H   0  0  0  0  0  0  0  0  0  0  0  0
   97.8540  105.6966   38.4899 H   0  0  0  0  0  0  0  0  0  0  0  0
   99.0610  104.6131   37.7181 H   0  0  0  0  0  0  0  0  0  0  0  0
   99.3201  106.3906   37.7181 H   0  0  0  0  0  0  0  0  0  0  0  0
   95.5432  107.9224   38.8186 H   0  0  0  0  0  0  0  0  0  0  0  0
  1  2  1  0
  2  3  2  0
  3  4  1  0
  1  5  1  0
  4  5  2  0
  2  6  1  0
  6  7  2  0
  7  8  1  0
  8  9  2  0
  9 10  1  0
  6 11  1  0
 10 11  2  0
  8 12  1  0
 12 13  3  0
  9 14  1  0
 14 15  1  0
 15 16  1  0
 16 17  1  0
 16 18  1  0
  4 19  1  0
  5 20  1  0
 20 21  1  0
 20 22  2  0
  7 23  1  0
 10 24  1  0
 11 25  1  0
 15 26  1  0
 15 27  1  0
 16 28  1  0
 17 29  1  0
 17 30  1  0
 17 31  1  0
 18 32  1  0
 18 33  1  0
 18 34  1  0
 19 35  1  0
 19 36  1  0
 19 37  1  0
 21 38  1  0
M  END
$$$$
