PDB_DB01051_99
     RDKit          3D

408420  0  0  0  0  0  0  0  0999 V2000
   -0.7950   -7.0430  -12.1600 C   0  0  0  0  0  0  0  0  0  0  0  0
   -1.1130   -5.6570  -12.1620 O   0  0  0  0  0  0  0  0  0  0  0  0
   -0.6770   -5.7060   -7.4090 N   0  0  0  0  0  0  0  0  0  0  0  0
   -0.8760   -4.7700   -8.3230 C   0  0  0  0  0  0  0  0  0  0  0  0
   -1.4090   -3.7020   -8.1220 O   0  0  0  0  0  0  0  0  0  0  0  0
   -0.4000   -5.1630   -9.5240 O   0  0  0  0  0  0  0  0  0  0  0  0
   -0.0020   -4.8060  -11.9010 C   0  0  2  0  0  0  0  0  0  0  0  0
   -0.1170   -4.1500  -10.5220 C   0  0  2  0  0  0  0  0  0  0  0  0
    1.1330   -3.3100  -10.2560 C   0  0  1  0  0  0  0  0  0  0  0  0
    2.3320   -4.0730  -10.2660 O   0  0  0  0  0  0  0  0  0  0  0  0
    1.2360   -2.2190  -11.3160 C   0  0  1  0  0  0  0  0  0  0  0  0
    1.1710   -2.7180  -12.6630 O   0  0  0  0  0  0  0  0  0  0  0  0
    0.2110   -3.7340  -13.0640 C   0  0  2  0  0  0  0  0  0  0  0  0
   -1.0710   -3.0370  -13.4970 C   0  0  0  0  0  0  0  0  0  0  0  0
    0.8760   -4.3960  -14.2580 C   0  0  0  0  0  0  0  0  0  0  0  0
    0.1510   -1.3580  -11.0680 O   0  0  0  0  0  0  0  0  0  0  0  0
    0.0650   -0.1490  -11.7070 C   0  0  0  0  0  0  0  0  0  0  0  0
   -1.0560    0.5930  -11.3310 C   0  0  1  0  0  0  0  0  0  0  0  0
   -2.0090    0.0810  -10.2770 C   0  0  0  0  0  0  0  0  0  0  0  0
   -1.2140    1.8410  -11.9250 C   0  0  0  0  0  0  0  0  0  0  0  0
   -0.2800    2.3740  -12.8250 C   0  0  0  0  0  0  0  0  0  0  0  0
    0.8160    1.5890  -13.1860 C   0  0  0  0  0  0  0  0  0  0  0  0
    0.9910    0.3310  -12.6400 C   0  0  0  0  0  0  0  0  0  0  0  0
   -2.3490    2.5330  -11.5530 O   0  0  0  0  0  0  0  0  0  0  0  0
   -2.6330    3.7990  -12.0010 C   0  0  0  0  0  0  0  0  0  0  0  0
   -3.6850    4.2350  -11.6170 O   0  0  0  0  0  0  0  0  0  0  0  0
   -1.6040    4.4410  -12.9560 C   0  0  1  0  0  0  0  0  0  0  0  0
   -0.4980    3.7300  -13.3270 C   0  0  0  0  0  0  0  0  0  0  0  0
    0.4280    4.2120  -14.1790 O   0  0  0  0  0  0  0  0  0  0  0  0
   -2.0020    5.7150  -13.4380 N   0  0  0  0  0  0  0  0  0  0  0  0
   -3.2510    6.0520  -13.9140 C   0  0  0  0  0  0  0  0  0  0  0  0
   -3.9100    6.9730  -13.4350 O   0  0  0  0  0  0  0  0  0  0  0  0
   -3.7890    5.1980  -15.0190 C   0  0  1  0  0  0  0  0  0  0  0  0
   -2.9340    4.4000  -15.7770 C   0  0  0  0  0  0  0  0  0  0  0  0
   -3.4220    3.4780  -16.7030 C   0  0  0  0  0  0  0  0  0  0  0  0
   -4.8100    3.3690  -16.8610 C   0  0  1  0  0  0  0  0  0  0  0  0
   -5.3290    2.3700  -17.6210 O   0  0  0  0  0  0  0  0  0  0  0  0
   -5.6700    4.2060  -16.1470 C   0  0  0  0  0  0  0  0  0  0  0  0
   -5.1620    5.1090  -15.2310 C   0  0  0  0  0  0  0  0  0  0  0  0
   -2.4110    2.6580  -17.4830 C   0  0  0  0  0  0  0  0  0  0  0  0
   -2.6740    1.1910  -17.2930 C   0  0  0  0  0  0  0  0  0  0  0  0
   -1.8850    0.2820  -16.7440 C   0  0  0  0  0  0  0  0  0  0  0  0
   -0.4860    0.5530  -16.2760 C   0  0  0  0  0  0  0  0  0  0  0  0
   -2.3670   -1.1120  -16.4900 C   0  0  0  0  0  0  0  0  0  0  0  0
   36.1590  -10.4240   12.1140 C   0  0  0  0  0  0  0  0  0  0  0  0
   35.8990  -11.8210   12.0800 O   0  0  0  0  0  0  0  0  0  0  0  0
   36.1290  -11.9020    7.5540 N   0  0  0  0  0  0  0  0  0  0  0  0
   36.2340  -12.8630    8.4390 C   0  0  0  0  0  0  0  0  0  0  0  0
   35.8550  -14.0020    8.2860 O   0  0  0  0  0  0  0  0  0  0  0  0
   36.8270  -12.4170    9.5470 O   0  0  0  0  0  0  0  0  0  0  0  0
   37.0560  -12.6430   11.9530 C   0  0  2  0  0  0  0  0  0  0  0  0
   37.0580  -13.3660   10.6100 C   0  0  2  0  0  0  0  0  0  0  0  0
   38.3270  -14.2000   10.4390 C   0  0  1  0  0  0  0  0  0  0  0  0
   39.5250  -13.4200   10.4610 O   0  0  0  0  0  0  0  0  0  0  0  0
   38.3600  -15.2810   11.5180 C   0  0  1  0  0  0  0  0  0  0  0  0
   38.1690  -14.7330   12.8370 O   0  0  0  0  0  0  0  0  0  0  0  0
   37.1850  -13.7020   13.1400 C   0  0  2  0  0  0  0  0  0  0  0  0
   35.8690  -14.4010   13.4570 C   0  0  0  0  0  0  0  0  0  0  0  0
   37.7030  -12.9840   14.3720 C   0  0  0  0  0  0  0  0  0  0  0  0
   37.2900  -16.1490   11.2200 O   0  0  0  0  0  0  0  0  0  0  0  0
   37.2170  -17.3910   11.8060 C   0  0  0  0  0  0  0  0  0  0  0  0
   36.0930  -18.1380   11.4210 C   0  0  0  0  0  0  0  0  0  0  0  0
   35.1110  -17.5980   10.4080 C   0  0  0  0  0  0  0  0  0  0  0  0
   35.9310  -19.3960   12.0050 C   0  0  0  0  0  0  0  0  0  0  0  0
   36.8450  -19.9140   12.9310 C   0  0  0  0  0  0  0  0  0  0  0  0
   37.9510  -19.1340   13.2790 C   0  0  0  0  0  0  0  0  0  0  0  0
   38.1440  -17.8830   12.7250 C   0  0  0  0  0  0  0  0  0  0  0  0
   34.8170  -20.1110   11.6000 O   0  0  0  0  0  0  0  0  0  0  0  0
   34.5280  -21.3720   12.0610 C   0  0  0  0  0  0  0  0  0  0  0  0
   33.5510  -21.8770   11.5720 O   0  0  0  0  0  0  0  0  0  0  0  0
   35.5000  -21.9640   13.0940 C   0  0  1  0  0  0  0  0  0  0  0  0
   36.5940  -21.2470   13.4790 C   0  0  0  0  0  0  0  0  0  0  0  0
   37.4580  -21.6900   14.4010 O   0  0  0  0  0  0  0  0  0  0  0  0
   35.0550  -23.2000   13.6470 N   0  0  0  0  0  0  0  0  0  0  0  0
   33.7990  -23.4650   14.1540 C   0  0  0  0  0  0  0  0  0  0  0  0
   33.1430  -24.4450   13.8090 O   0  0  0  0  0  0  0  0  0  0  0  0
   33.2620  -22.4840   15.1450 C   0  0  0  0  0  0  0  0  0  0  0  0
   34.1170  -21.6630   15.8760 C   0  0  0  0  0  0  0  0  0  0  0  0
   33.6310  -20.7710   16.8320 C   0  0  0  0  0  0  0  0  0  0  0  0
   32.2480  -20.7100   17.0410 C   0  0  0  0  0  0  0  0  0  0  0  0
   31.7420  -19.8440   17.9550 O   0  0  0  0  0  0  0  0  0  0  0  0
   31.3850  -21.5200   16.3020 C   0  0  0  0  0  0  0  0  0  0  0  0
   31.8900  -22.3950   15.3590 C   0  0  0  0  0  0  0  0  0  0  0  0
   34.6270  -19.9110   17.5800 C   0  0  0  0  0  0  0  0  0  0  0  0
   34.4020  -18.4600   17.2560 C   0  0  0  0  0  0  0  0  0  0  0  0
   35.2240  -17.6240   16.6500 C   0  0  0  0  0  0  0  0  0  0  0  0
   36.5910  -18.0010   16.1670 C   0  0  0  0  0  0  0  0  0  0  0  0
   34.8490  -16.2000   16.4000 C   0  0  0  0  0  0  0  0  0  0  0  0
   32.2190   -1.9060  -39.9790 C   0  0  0  0  0  0  0  0  0  0  0  0
   30.8200   -2.1610  -39.9420 O   0  0  0  0  0  0  0  0  0  0  0  0
   30.3720   -2.4420  -35.5960 N   0  0  0  0  0  0  0  0  0  0  0  0
   29.3970   -2.0460  -36.4090 C   0  0  0  0  0  0  0  0  0  0  0  0
   28.2250   -2.3510  -36.3000 O   0  0  0  0  0  0  0  0  0  0  0  0
   29.8820   -1.2370  -37.3790 O   0  0  0  0  0  0  0  0  0  0  0  0
   30.0000   -1.0010  -39.8180 C   0  0  2  0  0  0  0  0  0  0  0  0
   29.1000   -1.0880  -38.5830 C   0  0  2  0  0  0  0  0  0  0  0  0
   28.1620    0.1140  -38.4830 C   0  0  1  0  0  0  0  0  0  0  0  0
   28.8370    1.3500  -38.2480 O   0  0  0  0  0  0  0  0  0  0  0  0
   27.2770    0.1930  -39.7250 C   0  0  1  0  0  0  0  0  0  0  0  0
   28.0100    0.0930  -40.9530 O   0  0  0  0  0  0  0  0  0  0  0  0
   29.1190   -0.8320  -41.1210 C   0  0  2  0  0  0  0  0  0  0  0  0
   28.5640   -2.1530  -41.6310 C   0  0  0  0  0  0  0  0  0  0  0  0
   29.9100   -0.1320  -42.2090 C   0  0  0  0  0  0  0  0  0  0  0  0
   26.3510   -0.8650  -39.6140 O   0  0  0  0  0  0  0  0  0  0  0  0
   25.1770   -0.8370  -40.3280 C   0  0  0  0  0  0  0  0  0  0  0  0
   24.3350   -1.9320  -40.0820 C   0  0  0  0  0  0  0  0  0  0  0  0
   24.7060   -2.9820  -39.0610 C   0  0  0  0  0  0  0  0  0  0  0  0
   23.1380   -1.9920  -40.7950 C   0  0  0  0  0  0  0  0  0  0  0  0
   22.7760   -1.0170  -41.7330 C   0  0  0  0  0  0  0  0  0  0  0  0
   23.6440    0.0600  -41.9420 C   0  0  0  0  0  0  0  0  0  0  0  0
   24.8360    0.1570  -41.2450 C   0  0  0  0  0  0  0  0  0  0  0  0
   22.3050   -3.0560  -40.4930 O   0  0  0  0  0  0  0  0  0  0  0  0
   21.0740   -3.2370  -41.0890 C   0  0  0  0  0  0  0  0  0  0  0  0
   20.4340   -4.1740  -40.6820 O   0  0  0  0  0  0  0  0  0  0  0  0
   20.6690   -2.2140  -42.1500 C   0  0  1  0  0  0  0  0  0  0  0  0
   21.5010   -1.1660  -42.4260 C   0  0  0  0  0  0  0  0  0  0  0  0
   21.2330   -0.2620  -43.3660 O   0  0  0  0  0  0  0  0  0  0  0  0
   19.4910   -2.5740  -42.8480 N   0  0  0  0  0  0  0  0  0  0  0  0
   19.1820   -3.8270  -43.3250 C   0  0  0  0  0  0  0  0  0  0  0  0
   18.2030   -4.4570  -42.9340 O   0  0  0  0  0  0  0  0  0  0  0  0
   20.1500   -4.4120  -44.3060 C   0  0  1  0  0  0  0  0  0  0  0  0
   21.0850   -3.6010  -44.9470 C   0  0  0  0  0  0  0  0  0  0  0  0
   22.1060   -4.1400  -45.7260 C   0  0  1  0  0  0  0  0  0  0  0  0
   22.1540   -5.5300  -45.8900 C   0  0  0  0  0  0  0  0  0  0  0  0
   23.1690   -6.1030  -46.5950 O   0  0  0  0  0  0  0  0  0  0  0  0
   21.2000   -6.3440  -45.2870 C   0  0  0  0  0  0  0  0  0  0  0  0
   20.2100   -5.7900  -44.4980 C   0  0  0  0  0  0  0  0  0  0  0  0
   23.1440   -3.1900  -46.2860 C   0  0  0  0  0  0  0  0  0  0  0  0
   24.5280   -3.6150  -45.8740 C   0  0  0  0  0  0  0  0  0  0  0  0
   25.3740   -2.9880  -45.0670 C   0  0  0  0  0  0  0  0  0  0  0  0
   25.0820   -1.6810  -44.4030 C   0  0  0  0  0  0  0  0  0  0  0  0
   26.7240   -3.5450  -44.7570 C   0  0  0  0  0  0  0  0  0  0  0  0
    5.7240   18.6540  -39.8400 C   0  0  0  0  0  0  0  0  0  0  0  0
    7.0900   19.0100  -39.7080 O   0  0  0  0  0  0  0  0  0  0  0  0
    7.3080   19.0250  -34.9990 N   0  0  0  0  0  0  0  0  0  0  0  0
    8.2930   18.8600  -35.8770 C   0  0  0  0  0  0  0  0  0  0  0  0
    9.4530   19.1580  -35.6840 O   0  0  0  0  0  0  0  0  0  0  0  0
    7.8290   18.2870  -37.0230 O   0  0  0  0  0  0  0  0  0  0  0  0
    7.9590   17.9150  -39.4410 C   0  0  2  0  0  0  0  0  0  0  0  0
    8.7350   18.1380  -38.1400 C   0  0  2  0  0  0  0  0  0  0  0  0
    9.7250   17.0010  -37.9090 C   0  0  1  0  0  0  0  0  0  0  0  0
    9.0680   15.7460  -37.7430 O   0  0  0  0  0  0  0  0  0  0  0  0
   10.7170   16.9270  -39.0670 C   0  0  1  0  0  0  0  0  0  0  0  0
   10.0960   16.8740  -40.3540 O   0  0  0  0  0  0  0  0  0  0  0  0
    8.9450   17.6930  -40.6940 C   0  0  2  0  0  0  0  0  0  0  0  0
    9.5070   18.9690  -41.3030 C   0  0  0  0  0  0  0  0  0  0  0  0
    8.2950   16.8330  -41.7650 C   0  0  0  0  0  0  0  0  0  0  0  0
   11.5420   18.0680  -38.9910 O   0  0  0  0  0  0  0  0  0  0  0  0
   12.7390   18.0660  -39.6670 C   0  0  0  0  0  0  0  0  0  0  0  0
   13.4890   19.2360  -39.5090 C   0  0  1  0  0  0  0  0  0  0  0  0
   12.9670   20.3810  -38.6730 C   0  0  0  0  0  0  0  0  0  0  0  0
   14.7520   19.2700  -40.1030 C   0  0  0  0  0  0  0  0  0  0  0  0
   15.2730   18.1850  -40.8200 C   0  0  0  0  0  0  0  0  0  0  0  0
   14.4780   17.0480  -40.9750 C   0  0  0  0  0  0  0  0  0  0  0  0
   13.2180   16.9850  -40.4070 C   0  0  0  0  0  0  0  0  0  0  0  0
   15.4770   20.4310  -39.9120 O   0  0  0  0  0  0  0  0  0  0  0  0
   16.7540   20.6090  -40.3980 C   0  0  0  0  0  0  0  0  0  0  0  0
   17.2630   21.6670  -40.1200 O   0  0  0  0  0  0  0  0  0  0  0  0
   17.3580   19.4370  -41.1970 C   0  0  1  0  0  0  0  0  0  0  0  0
   16.6270   18.2940  -41.3520 C   0  0  0  0  0  0  0  0  0  0  0  0
   17.1120   17.2020  -41.9430 O   0  0  0  0  0  0  0  0  0  0  0  0
   18.5940   19.7610  -41.8190 N   0  0  0  0  0  0  0  0  0  0  0  0
   19.0280   21.0100  -42.2060 C   0  0  1  0  0  0  0  0  0  0  0  0
   19.9730   21.5780  -41.6590 O   0  0  0  0  0  0  0  0  0  0  0  0
   18.2160   21.6820  -43.2700 C   0  0  1  0  0  0  0  0  0  0  0  0
   17.3310   20.9360  -44.0450 C   0  0  0  0  0  0  0  0  0  0  0  0
   16.3860   21.5480  -44.8660 C   0  0  0  0  0  0  0  0  0  0  0  0
   16.3650   22.9480  -44.9250 C   0  0  0  0  0  0  0  0  0  0  0  0
   15.4400   23.6010  -45.6760 O   0  0  0  0  0  0  0  0  0  0  0  0
   17.2790   23.6990  -44.1930 C   0  0  0  0  0  0  0  0  0  0  0  0
   18.1980   23.0700  -43.3750 C   0  0  0  0  0  0  0  0  0  0  0  0
   15.4450   20.6260  -45.6150 C   0  0  0  0  0  0  0  0  0  0  0  0
   14.0000   20.9100  -45.3110 C   0  0  0  0  0  0  0  0  0  0  0  0
   13.0790   20.0770  -44.8480 C   0  0  0  0  0  0  0  0  0  0  0  0
   13.3220   18.6300  -44.5380 C   0  0  0  0  0  0  0  0  0  0  0  0
   11.6810   20.5360  -44.5940 C   0  0  0  0  0  0  0  0  0  0  0  0
   -0.7133   -7.3990  -11.1224 H   0  0  0  0  0  0  0  0  0  0  0  0
   -1.5882   -7.6019  -12.6780 H   0  0  0  0  0  0  0  0  0  0  0  0
    0.1626   -7.2002  -12.6780 H   0  0  0  0  0  0  0  0  0  0  0  0
   -0.7649   -5.2928   -6.4696 H   0  0  0  0  0  0  0  0  0  0  0  0
   -1.3782   -6.4518   -7.5230 H   0  0  0  0  0  0  0  0  0  0  0  0
   -1.8538   -5.2127   -8.5635 H   0  0  0  0  0  0  0  0  0  0  0  0
   -1.4851   -3.5495   -7.1468 H   0  0  0  0  0  0  0  0  0  0  0  0
    0.9009   -5.4341  -11.8865 H   0  0  0  0  0  0  0  0  0  0  0  0
   -0.9632   -3.4488  -10.4756 H   0  0  0  0  0  0  0  0  0  0  0  0
    1.0250   -2.8836   -9.2478 H   0  0  0  0  0  0  0  0  0  0  0  0
    2.6159   -4.2537   -9.3350 H   0  0  0  0  0  0  0  0  0  0  0  0
    2.2138   -1.7203  -11.2438 H   0  0  0  0  0  0  0  0  0  0  0  0
   -1.6390   -2.7282  -12.6071 H   0  0  0  0  0  0  0  0  0  0  0  0
   -0.8212   -2.1505  -14.0984 H   0  0  0  0  0  0  0  0  0  0  0  0
   -1.6792   -3.7286  -14.0984 H   0  0  0  0  0  0  0  0  0  0  0  0
    1.6145   -5.1311  -13.9055 H   0  0  0  0  0  0  0  0  0  0  0  0
    0.1140   -4.9047  -14.8667 H   0  0  0  0  0  0  0  0  0  0  0  0
    1.3813   -3.6317  -14.8667 H   0  0  0  0  0  0  0  0  0  0  0  0
   -0.5161   -0.6174  -12.5150 H   0  0  0  0  0  0  0  0  0  0  0  0
   -1.6490    0.0921  -12.1104 H   0  0  0  0  0  0  0  0  0  0  0  0
   -1.6028    0.2992   -9.2783 H   0  0  0  0  0  0  0  0  0  0  0  0
   -2.9842    0.5766  -10.3925 H   0  0  0  0  0  0  0  0  0  0  0  0
   -2.1341   -1.0057  -10.3925 H   0  0  0  0  0  0  0  0  0  0  0  0
   -0.6739    2.3077  -11.0881 H   0  0  0  0  0  0  0  0  0  0  0  0
    0.2942    2.7887  -11.9834 H   0  0  0  0  0  0  0  0  0  0  0  0
    0.7608    1.4539  -14.2763 H   0  0  0  0  0  0  0  0  0  0  0  0
    1.6680    2.1542  -12.7803 H   0  0  0  0  0  0  0  0  0  0  0  0
    1.9735    0.3305  -12.1454 H   0  0  0  0  0  0  0  0  0  0  0  0
    0.8660   -0.3439  -13.4996 H   0  0  0  0  0  0  0  0  0  0  0  0
   -3.1316    3.3744  -12.8848 H   0  0  0  0  0  0  0  0  0  0  0  0
   -3.6984    4.2405  -10.6271 H   0  0  0  0  0  0  0  0  0  0  0  0
   -1.0548    4.8449  -12.0927 H   0  0  0  0  0  0  0  0  0  0  0  0
   -1.0485    3.3228  -14.1879 H   0  0  0  0  0  0  0  0  0  0  0  0
    1.1783    4.6025  -13.6645 H   0  0  0  0  0  0  0  0  0  0  0  0
   -1.8273    6.3643  -12.6578 H   0  0  0  0  0  0  0  0  0  0  0  0
   -3.7115    5.3519  -13.2014 H   0  0  0  0  0  0  0  0  0  0  0  0
   -3.8753    6.9245  -12.4468 H   0  0  0  0  0  0  0  0  0  0  0  0
   -3.6455    6.0260  -15.7288 H   0  0  0  0  0  0  0  0  0  0  0  0
   -2.2846    5.0881  -16.3381 H   0  0  0  0  0  0  0  0  0  0  0  0
   -2.4822    3.7493  -15.0138 H   0  0  0  0  0  0  0  0  0  0  0  0
   -3.4506    2.7063  -15.9196 H   0  0  0  0  0  0  0  0  0  0  0  0
   -4.7600    4.0177  -17.7479 H   0  0  0  0  0  0  0  0  0  0  0  0
   -5.6959    1.6639  -17.0320 H   0  0  0  0  0  0  0  0  0  0  0  0
   -6.2312    4.7913  -16.8903 H   0  0  0  0  0  0  0  0  0  0  0  0
   -6.2371    3.5040  -15.5180 H   0  0  0  0  0  0  0  0  0  0  0  0
   -5.6164    4.8634  -14.2598 H   0  0  0  0  0  0  0  0  0  0  0  0
   -5.4089    6.0832  -15.6781 H   0  0  0  0  0  0  0  0  0  0  0  0
   -2.4897    2.9056  -18.5519 H   0  0  0  0  0  0  0  0  0  0  0  0
   -1.4006    2.8915  -17.1163 H   0  0  0  0  0  0  0  0  0  0  0  0
   -3.5992    1.1498  -16.6995 H   0  0  0  0  0  0  0  0  0  0  0  0
   -2.5858    0.8719  -18.3420 H   0  0  0  0  0  0  0  0  0  0  0  0
   -1.5003    0.0148  -17.7393 H   0  0  0  0  0  0  0  0  0  0  0  0
   -0.4617    0.5577  -15.1763 H   0  0  0  0  0  0  0  0  0  0  0  0
    0.1857   -0.2317  -16.6542 H   0  0  0  0  0  0  0  0  0  0  0  0
   -0.1560    1.5318  -16.6542 H   0  0  0  0  0  0  0  0  0  0  0  0
   -2.4276   -1.2872  -15.4057 H   0  0  0  0  0  0  0  0  0  0  0  0
   -3.3627   -1.2432  -16.9388 H   0  0  0  0  0  0  0  0  0  0  0  0
   -1.6650   -1.8302  -16.9388 H   0  0  0  0  0  0  0  0  0  0  0  0
   36.2215  -10.0880   13.1596 H   0  0  0  0  0  0  0  0  0  0  0  0
   37.1113  -10.2158   11.6044 H   0  0  0  0  0  0  0  0  0  0  0  0
   35.3454   -9.8871   11.6044 H   0  0  0  0  0  0  0  0  0  0  0  0
   36.0303  -10.9984    8.0384 H   0  0  0  0  0  0  0  0  0  0  0  0
   36.9731  -11.8848    6.9640 H   0  0  0  0  0  0  0  0  0  0  0  0
   35.2509  -12.5912    8.8508 H   0  0  0  0  0  0  0  0  0  0  0  0
   35.7144  -14.4246    9.1702 H   0  0  0  0  0  0  0  0  0  0  0  0
   37.9271  -11.9737   12.0099 H   0  0  0  0  0  0  0  0  0  0  0  0
   36.2308  -14.0900   10.5701 H   0  0  0  0  0  0  0  0  0  0  0  0
   38.2921  -14.6598    9.4403 H   0  0  0  0  0  0  0  0  0  0  0  0
   39.7895  -13.2478   11.3993 H   0  0  0  0  0  0  0  0  0  0  0  0
   39.3371  -15.7862   11.5205 H   0  0  0  0  0  0  0  0  0  0  0  0
   35.7428  -14.4680   14.5477 H   0  0  0  0  0  0  0  0  0  0  0  0
   35.0357  -13.8267   13.0261 H   0  0  0  0  0  0  0  0  0  0  0  0
   35.8783  -15.4130   13.0261 H   0  0  0  0  0  0  0  0  0  0  0  0
   37.3354  -13.4935   15.2750 H   0  0  0  0  0  0  0  0  0  0  0  0
   38.8029  -12.9945   14.3671 H   0  0  0  0  0  0  0  0  0  0  0  0
   37.3462  -11.9435   14.3671 H   0  0  0  0  0  0  0  0  0  0  0  0
   36.6457  -16.9626   12.6427 H   0  0  0  0  0  0  0  0  0  0  0  0
   35.5094  -17.6779   12.2320 H   0  0  0  0  0  0  0  0  0  0  0  0
   34.2633  -17.1318   10.9315 H   0  0  0  0  0  0  0  0  0  0  0  0
   35.6101  -16.8475    9.7774 H   0  0  0  0  0  0  0  0  0  0  0  0
   34.7446  -18.4215    9.7774 H   0  0  0  0  0  0  0  0  0  0  0  0
   36.5048  -19.8510   11.1842 H   0  0  0  0  0  0  0  0  0  0  0  0
   37.4214  -20.3649   12.1098 H   0  0  0  0  0  0  0  0  0  0  0  0
   37.9007  -18.9889   14.3682 H   0  0  0  0  0  0  0  0  0  0  0  0
   38.7923  -19.7118   12.8687 H   0  0  0  0  0  0  0  0  0  0  0  0
   39.1191  -17.9047   12.2163 H   0  0  0  0  0  0  0  0  0  0  0  0
   38.0461  -17.2013   13.5827 H   0  0  0  0  0  0  0  0  0  0  0  0
   33.9052  -20.9382   12.8572 H   0  0  0  0  0  0  0  0  0  0  0  0
   32.9463  -22.1896   12.2908 H   0  0  0  0  0  0  0  0  0  0  0  0
   36.0850  -22.4205   12.2820 H   0  0  0  0  0  0  0  0  0  0  0  0
   36.0127  -20.8004   14.2991 H   0  0  0  0  0  0  0  0  0  0  0  0
   37.0990  -21.5059   15.3051 H   0  0  0  0  0  0  0  0  0  0  0  0
   35.1942  -23.8941   12.8989 H   0  0  0  0  0  0  0  0  0  0  0  0
   33.3470  -22.8766   13.3419 H   0  0  0  0  0  0  0  0  0  0  0  0
   32.8210  -24.9260   14.6122 H   0  0  0  0  0  0  0  0  0  0  0  0
   33.3215  -23.2483   15.9338 H   0  0  0  0  0  0  0  0  0  0  0  0
   34.8147  -22.3315   16.4018 H   0  0  0  0  0  0  0  0  0  0  0  0
   34.5141  -20.9880   15.1035 H   0  0  0  0  0  0  0  0  0  0  0  0
   33.5490  -19.9901   16.0617 H   0  0  0  0  0  0  0  0  0  0  0  0
   32.3315  -21.4827   17.8194 H   0  0  0  0  0  0  0  0  0  0  0  0
   31.9361  -20.1762   18.8672 H   0  0  0  0  0  0  0  0  0  0  0  0
   30.8215  -22.1261   17.0266 H   0  0  0  0  0  0  0  0  0  0  0  0
   30.8199  -20.7967   15.6957 H   0  0  0  0  0  0  0  0  0  0  0  0
   31.4376  -22.1166   14.3957 H   0  0  0  0  0  0  0  0  0  0  0  0
   31.6388  -23.3816   15.7755 H   0  0  0  0  0  0  0  0  0  0  0  0
   34.5015  -20.0660   18.6618 H   0  0  0  0  0  0  0  0  0  0  0  0
   35.6460  -20.1939   17.2773 H   0  0  0  0  0  0  0  0  0  0  0  0
   33.4916  -18.4510   16.6387 H   0  0  0  0  0  0  0  0  0  0  0  0
   34.4719  -18.0507   18.2746 H   0  0  0  0  0  0  0  0  0  0  0  0
   35.6476  -17.3350   17.6232 H   0  0  0  0  0  0  0  0  0  0  0  0
   37.2479  -18.1822   17.0305 H   0  0  0  0  0  0  0  0  0  0  0  0
   36.5256  -18.9146   15.5579 H   0  0  0  0  0  0  0  0  0  0  0  0
   37.0032  -17.1830   15.5579 H   0  0  0  0  0  0  0  0  0  0  0  0
   34.7127  -15.6826   17.3611 H   0  0  0  0  0  0  0  0  0  0  0  0
   35.6476  -15.7056   15.8274 H   0  0  0  0  0  0  0  0  0  0  0  0
   33.9105  -16.1631   15.8274 H   0  0  0  0  0  0  0  0  0  0  0  0
   32.6061   -1.8354  -38.9518 H   0  0  0  0  0  0  0  0  0  0  0  0
   32.7274   -2.7263  -40.5069 H   0  0  0  0  0  0  0  0  0  0  0  0
   32.4053   -0.9591  -40.5069 H   0  0  0  0  0  0  0  0  0  0  0  0
   30.0737   -2.3208  -34.6176 H   0  0  0  0  0  0  0  0  0  0  0  0
   30.5823   -3.4351  -35.7703 H   0  0  0  0  0  0  0  0  0  0  0  0
   29.5676   -2.9283  -37.0434 H   0  0  0  0  0  0  0  0  0  0  0  0
   27.9879   -2.4127  -35.3408 H   0  0  0  0  0  0  0  0  0  0  0  0
   30.6541   -0.1247  -39.6989 H   0  0  0  0  0  0  0  0  0  0  0  0
   28.4744   -1.9857  -38.6955 H   0  0  0  0  0  0  0  0  0  0  0  0
   27.5321   -0.0484  -37.5959 H   0  0  0  0  0  0  0  0  0  0  0  0
   28.9194    1.5008  -37.2730 H   0  0  0  0  0  0  0  0  0  0  0  0
   26.7868    1.1769  -39.7650 H   0  0  0  0  0  0  0  0  0  0  0  0
   28.2955   -2.7921  -40.7769 H   0  0  0  0  0  0  0  0  0  0  0  0
   27.6695   -1.9633  -42.2425 H   0  0  0  0  0  0  0  0  0  0  0  0
   29.3256   -2.6591  -42.2425 H   0  0  0  0  0  0  0  0  0  0  0  0
   30.6585    0.5304  -41.7497 H   0  0  0  0  0  0  0  0  0  0  0  0
   30.4179   -0.8819  -42.8333 H   0  0  0  0  0  0  0  0  0  0  0  0
   29.2274    0.4633  -42.8333 H   0  0  0  0  0  0  0  0  0  0  0  0
   25.6607   -1.3925  -41.1450 H   0  0  0  0  0  0  0  0  0  0  0  0
   24.8549   -2.5071  -40.8624 H   0  0  0  0  0  0  0  0  0  0  0  0
   24.5625   -2.5760  -38.0488 H   0  0  0  0  0  0  0  0  0  0  0  0
   24.0659   -3.8665  -39.1954 H   0  0  0  0  0  0  0  0  0  0  0  0
   25.7596   -3.2680  -39.1954 H   0  0  0  0  0  0  0  0  0  0  0  0
   22.6373   -1.4159  -40.0029 H   0  0  0  0  0  0  0  0  0  0  0  0
   22.2613   -0.4491  -40.9440 H   0  0  0  0  0  0  0  0  0  0  0  0
   23.9057    0.0488  -43.0104 H   0  0  0  0  0  0  0  0  0  0  0  0
   23.0677    0.9150  -41.5587 H   0  0  0  0  0  0  0  0  0  0  0  0
   24.8067    1.1070  -40.6913 H   0  0  0  0  0  0  0  0  0  0  0  0
   25.6024    0.0606  -42.0282 H   0  0  0  0  0  0  0  0  0  0  0  0
   21.5370   -3.8834  -41.8491 H   0  0  0  0  0  0  0  0  0  0  0  0
   20.4365   -4.1703  -39.6920 H   0  0  0  0  0  0  0  0  0  0  0  0
   20.1670   -1.6122  -41.3781 H   0  0  0  0  0  0  0  0  0  0  0  0
   21.9949   -1.7636  -43.2063 H   0  0  0  0  0  0  0  0  0  0  0  0
   20.9793    0.5939  -42.9380 H   0  0  0  0  0  0  0  0  0  0  0  0
   18.7168   -2.3283  -42.2147 H   0  0  0  0  0  0  0  0  0  0  0  0
   19.7914   -4.2802  -42.5293 H   0  0  0  0  0  0  0  0  0  0  0  0
   18.1898   -4.4655  -41.9441 H   0  0  0  0  0  0  0  0  0  0  0  0
   19.4338   -4.2304  -45.1209 H   0  0  0  0  0  0  0  0  0  0  0  0
   20.5137   -2.9304  -45.6057 H   0  0  0  0  0  0  0  0  0  0  0  0
   21.6384   -3.1661  -44.1016 H   0  0  0  0  0  0  0  0  0  0  0  0
   22.7432   -4.2233  -44.8332 H   0  0  0  0  0  0  0  0  0  0  0  0
   21.5627   -5.4415  -46.8133 H   0  0  0  0  0  0  0  0  0  0  0  0
   23.8356   -6.4793  -45.9671 H   0  0  0  0  0  0  0  0  0  0  0  0
   20.6917   -6.8885  -46.0964 H   0  0  0  0  0  0  0  0  0  0  0  0
   21.7910   -6.9325  -44.5698 H   0  0  0  0  0  0  0  0  0  0  0  0
   20.3105   -6.2434  -43.5009 H   0  0  0  0  0  0  0  0  0  0  0  0
   19.2922   -6.0017  -45.0662 H   0  0  0  0  0  0  0  0  0  0  0  0
   23.0780   -3.1888  -47.3840 H   0  0  0  0  0  0  0  0  0  0  0  0
   22.9508   -2.1813  -45.8922 H   0  0  0  0  0  0  0  0  0  0  0  0
   24.3886   -4.6047  -45.4145 H   0  0  0  0  0  0  0  0  0  0  0  0
   25.0455   -3.4316  -46.8272 H   0  0  0  0  0  0  0  0  0  0  0  0
   25.8010   -2.4546  -45.9291 H   0  0  0  0  0  0  0  0  0  0  0  0
   25.1108   -1.8100  -43.3110 H   0  0  0  0  0  0  0  0  0  0  0  0
   25.8367   -0.9398  -44.7047 H   0  0  0  0  0  0  0  0  0  0  0  0
   24.0836   -1.3314  -44.7047 H   0  0  0  0  0  0  0  0  0  0  0  0
   26.8565   -3.5997  -43.6664 H   0  0  0  0  0  0  0  0  0  0  0  0
   26.8125   -4.5531  -45.1881 H   0  0  0  0  0  0  0  0  0  0  0  0
   27.4977   -2.8926  -45.1881 H   0  0  0  0  0  0  0  0  0  0  0  0
    5.2773   18.5376  -38.8416 H   0  0  0  0  0  0  0  0  0  0  0  0
    5.1909   19.4432  -40.3904 H   0  0  0  0  0  0  0  0  0  0  0  0
    5.6439   17.7050  -40.3904 H   0  0  0  0  0  0  0  0  0  0  0  0
    7.6860   18.9617  -34.0430 H   0  0  0  0  0  0  0  0  0  0  0  0
    6.8764   19.9500  -35.1370 H   0  0  0  0  0  0  0  0  0  0  0  0
    8.1018   19.8654  -36.2804 H   0  0  0  0  0  0  0  0  0  0  0  0
    9.6247   19.2021  -34.7100 H   0  0  0  0  0  0  0  0  0  0  0  0
    7.3612   17.0018  -39.3043 H   0  0  0  0  0  0  0  0  0  0  0  0
    9.3091   19.0722  -38.2281 H   0  0  0  0  0  0  0  0  0  0  0  0
   10.2659   17.2161  -36.9757 H   0  0  0  0  0  0  0  0  0  0  0  0
    8.9664   15.5519  -36.7776 H   0  0  0  0  0  0  0  0  0  0  0  0
   11.2862   15.9910  -38.9671 H   0  0  0  0  0  0  0  0  0  0  0  0
    9.8098   19.6564  -40.4994 H   0  0  0  0  0  0  0  0  0  0  0  0
   10.3807   18.7245  -41.9250 H   0  0  0  0  0  0  0  0  0  0  0  0
    8.7368   19.4486  -41.9250 H   0  0  0  0  0  0  0  0  0  0  0  0
    7.6974   16.0424  -41.2877 H   0  0  0  0  0  0  0  0  0  0  0  0
    7.6420   17.4586  -42.3913 H   0  0  0  0  0  0  0  0  0  0  0  0
    9.0750   16.3755  -42.3913 H   0  0  0  0  0  0  0  0  0  0  0  0
   12.2431   18.5027  -40.5464 H   0  0  0  0  0  0  0  0  0  0  0  0
   13.0061   19.6657  -40.3990 H   0  0  0  0  0  0  0  0  0  0  0  0
   13.0784   20.1367  -37.6063 H   0  0  0  0  0  0  0  0  0  0  0  0
   13.5385   21.2926  -38.9020 H   0  0  0  0  0  0  0  0  0  0  0  0
   11.9041   20.5474  -38.9020 H   0  0  0  0  0  0  0  0  0  0  0  0
   15.1973   18.8731  -39.1788 H   0  0  0  0  0  0  0  0  0  0  0  0
   15.6868   17.7689  -39.8896 H   0  0  0  0  0  0  0  0  0  0  0  0
   14.3425   16.9044  -42.0571 H   0  0  0  0  0  0  0  0  0  0  0  0
   15.0365   16.2804  -40.4192 H   0  0  0  0  0  0  0  0  0  0  0  0
   13.2133   16.1126  -39.7370 H   0  0  0  0  0  0  0  0  0  0  0  0
   12.5460   16.9522  -41.2772 H   0  0  0  0  0  0  0  0  0  0  0  0
   16.3424   21.0489  -41.3184 H   0  0  0  0  0  0  0  0  0  0  0  0
   17.3090   21.7626  -39.1357 H   0  0  0  0  0  0  0  0  0  0  0  0
   17.7952   19.0320  -40.2724 H   0  0  0  0  0  0  0  0  0  0  0  0
   16.2236   18.6805  -42.2996 H   0  0  0  0  0  0  0  0  0  0  0  0
   17.4000   16.5535  -41.2527 H   0  0  0  0  0  0  0  0  0  0  0  0
   19.3155   19.4201  -41.1678 H   0  0  0  0  0  0  0  0  0  0  0  0
   18.3344   21.4732  -41.4888 H   0  0  0  0  0  0  0  0  0  0  0  0
   19.8708   21.5166  -40.6762 H   0  0  0  0  0  0  0  0  0  0  0  0
   19.0955   21.5757  -43.9220 H   0  0  0  0  0  0  0  0  0  0  0  0
   17.9491   20.3050  -44.7006 H   0  0  0  0  0  0  0  0  0  0  0  0
   16.7027   20.4504  -43.2838 H   0  0  0  0  0  0  0  0  0  0  0  0
   15.6739   21.5726  -44.0280 H   0  0  0  0  0  0  0  0  0  0  0  0
   17.0470   22.9219  -45.7877 H   0  0  0  0  0  0  0  0  0  0  0  0
   14.7939   24.0571  -45.0806 H   0  0  0  0  0  0  0  0  0  0  0  0
   17.8548   24.2922  -44.9187 H   0  0  0  0  0  0  0  0  0  0  0  0
   16.6422   24.2451  -43.4814 H   0  0  0  0  0  0  0  0  0  0  0  0
   18.0358   23.4609  -42.3597 H   0  0  0  0  0  0  0  0  0  0  0  0
   19.1580   23.2939  -43.8630 H   0  0  0  0  0  0  0  0  0  0  0  0
   15.6104   20.7542  -46.6949 H   0  0  0  0  0  0  0  0  0  0  0  0
   15.6588   19.5960  -45.2934 H   0  0  0  0  0  0  0  0  0  0  0  0
   14.0272   21.7286  -44.5768 H   0  0  0  0  0  0  0  0  0  0  0  0
   13.6316   21.0027  -46.3433 H   0  0  0  0  0  0  0  0  0  0  0  0
   12.8026   19.8098  -45.8786 H   0  0  0  0  0  0  0  0  0  0  0  0
   13.3459   18.4876  -43.4475 H   0  0  0  0  0  0  0  0  0  0  0  0
   12.5134   18.0217  -44.9696 H   0  0  0  0  0  0  0  0  0  0  0  0
   14.2849   18.3192  -44.9696 H   0  0  0  0  0  0  0  0  0  0  0  0
   11.5053   20.5937  -43.5097 H   0  0  0  0  0  0  0  0  0  0  0  0
   11.5341   21.5296  -45.0426 H   0  0  0  0  0  0  0  0  0  0  0  0
   10.9737   19.8229  -45.0426 H   0  0  0  0  0  0  0  0  0  0  0  0
  1  2  1  0
  3  4  1  0
  4  5  1  0
  4  6  1  0
  2  7  1  0
  6  8  1  0
  7  8  1  0
  8  9  1  0
  9 10  1  0
  9 11  1  0
 11 12  1  0
  7 13  1  0
 12 13  1  0
 13 14  1  6
 13 15  1  0
 11 16  1  0
 16 17  1  0
 17 18  1  0
 18 19  1  0
 18 20  1  0
 20 21  1  0
 21 22  1  0
 17 23  1  0
 22 23  1  0
 20 24  1  0
 24 25  1  0
 25 26  1  0
 25 27  1  0
 21 28  1  0
 27 28  1  0
 28 29  1  0
 27 30  1  0
 30 31  1  0
 31 32  1  0
 31 33  1  0
 33 34  1  0
 34 35  1  0
 35 36  1  0
 36 37  1  0
 36 38  1  0
 33 39  1  0
 38 39  1  0
 35 40  1  0
 40 41  1  0
 41 42  1  0
 42 43  1  0
 42 44  1  0
 45 46  1  0
 47 48  1  0
 48 49  1  0
 48 50  1  0
 46 51  1  0
 50 52  1  0
 51 52  1  0
 52 53  1  0
 53 54  1  0
 53 55  1  0
 55 56  1  0
 51 57  1  0
 56 57  1  0
 57 58  1  1
 57 59  1  0
 55 60  1  0
 60 61  1  0
 61 62  1  0
 62 63  1  0
 62 64  1  0
 64 65  1  0
 65 66  1  0
 61 67  1  0
 66 67  1  0
 64 68  1  0
 68 69  1  0
 69 70  1  0
 69 71  1  0
 65 72  1  0
 71 72  1  0
 72 73  1  0
 71 74  1  0
 74 75  1  0
 75 76  1  0
 75 77  1  0
 77 78  1  0
 78 79  1  0
 79 80  1  0
 80 81  1  0
 80 82  1  0
 77 83  1  0
 82 83  1  0
 79 84  1  0
 84 85  1  0
 85 86  1  0
 86 87  1  0
 86 88  1  0
 89 90  1  0
 91 92  1  0
 92 93  1  0
 92 94  1  0
 90 95  1  0
 94 96  1  0
 95 96  1  0
 96 97  1  0
 97 98  1  0
 97 99  1  0
 99100  1  0
 95101  1  0
100101  1  0
101102  1  6
101103  1  0
 99104  1  0
104105  1  0
105106  1  0
106107  1  0
106108  1  0
108109  1  0
109110  1  0
105111  1  0
110111  1  0
108112  1  0
112113  1  0
113114  1  0
113115  1  0
109116  1  0
115116  1  0
116117  1  0
115118  1  0
118119  1  0
119120  1  0
119121  1  0
121122  1  0
122123  1  0
123124  1  0
124125  1  0
124126  1  0
121127  1  0
126127  1  0
123128  1  0
128129  1  0
129130  1  0
130131  1  0
130132  1  0
133134  1  0
135136  1  0
136137  1  0
136138  1  0
134139  1  0
138140  1  0
139140  1  0
140141  1  0
141142  1  0
141143  1  0
143144  1  0
139145  1  0
144145  1  0
145146  1  6
145147  1  0
143148  1  0
148149  1  0
149150  1  0
150151  1  0
150152  1  0
152153  1  0
153154  1  0
149155  1  0
154155  1  0
152156  1  0
156157  1  0
157158  1  0
157159  1  0
153160  1  0
159160  1  0
160161  1  0
159162  1  0
162163  1  0
163164  1  0
163165  1  0
165166  1  0
166167  1  0
167168  1  0
168169  1  0
168170  1  0
165171  1  0
170171  1  0
167172  1  0
172173  1  0
173174  1  0
174175  1  0
174176  1  0
  1177  1  0
  1178  1  0
  1179  1  0
  3180  1  0
  3181  1  0
  4182  1  0
  5183  1  0
  7184  1  1
  8185  1  6
  9186  1  1
 10187  1  0
 11188  1  6
 14189  1  0
 14190  1  0
 14191  1  0
 15192  1  0
 15193  1  0
 15194  1  0
 17195  1  0
 18196  1  6
 19197  1  0
 19198  1  0
 19199  1  0
 20200  1  0
 21201  1  0
 22202  1  0
 22203  1  0
 23204  1  0
 23205  1  0
 25206  1  0
 26207  1  0
 27208  1  1
 28209  1  0
 29210  1  0
 30211  1  0
 31212  1  0
 32213  1  0
 33214  1  6
 34215  1  0
 34216  1  0
 35217  1  0
 36218  1  6
 37219  1  0
 38220  1  0
 38221  1  0
 39222  1  0
 39223  1  0
 40224  1  0
 40225  1  0
 41226  1  0
 41227  1  0
 42228  1  0
 43229  1  0
 43230  1  0
 43231  1  0
 44232  1  0
 44233  1  0
 44234  1  0
 45235  1  0
 45236  1  0
 45237  1  0
 47238  1  0
 47239  1  0
 48240  1  0
 49241  1  0
 51242  1  6
 52243  1  1
 53244  1  6
 54245  1  0
 55246  1  1
 58247  1  0
 58248  1  0
 58249  1  0
 59250  1  0
 59251  1  0
 59252  1  0
 61253  1  0
 62254  1  0
 63255  1  0
 63256  1  0
 63257  1  0
 64258  1  0
 65259  1  0
 66260  1  0
 66261  1  0
 67262  1  0
 67263  1  0
 69264  1  0
 70265  1  0
 71266  1  6
 72267  1  0
 73268  1  0
 74269  1  0
 75270  1  0
 76271  1  0
 77272  1  0
 78273  1  0
 78274  1  0
 79275  1  0
 80276  1  0
 81277  1  0
 82278  1  0
 82279  1  0
 83280  1  0
 83281  1  0
 84282  1  0
 84283  1  0
 85284  1  0
 85285  1  0
 86286  1  0
 87287  1  0
 87288  1  0
 87289  1  0
 88290  1  0
 88291  1  0
 88292  1  0
 89293  1  0
 89294  1  0
 89295  1  0
 91296  1  0
 91297  1  0
 92298  1  0
 93299  1  0
 95300  1  1
 96301  1  6
 97302  1  1
 98303  1  0
 99304  1  6
102305  1  0
102306  1  0
102307  1  0
103308  1  0
103309  1  0
103310  1  0
105311  1  0
106312  1  0
107313  1  0
107314  1  0
107315  1  0
108316  1  0
109317  1  0
110318  1  0
110319  1  0
111320  1  0
111321  1  0
113322  1  0
114323  1  0
115324  1  1
116325  1  0
117326  1  0
118327  1  0
119328  1  0
120329  1  0
121330  1  6
122331  1  0
122332  1  0
123333  1  6
124334  1  0
125335  1  0
126336  1  0
126337  1  0
127338  1  0
127339  1  0
128340  1  0
128341  1  0
129342  1  0
129343  1  0
130344  1  0
131345  1  0
131346  1  0
131347  1  0
132348  1  0
132349  1  0
132350  1  0
133351  1  0
133352  1  0
133353  1  0
135354  1  0
135355  1  0
136356  1  0
137357  1  0
139358  1  1
140359  1  6
141360  1  1
142361  1  0
143362  1  1
146363  1  0
146364  1  0
146365  1  0
147366  1  0
147367  1  0
147368  1  0
149369  1  0
150370  1  6
151371  1  0
151372  1  0
151373  1  0
152374  1  0
153375  1  0
154376  1  0
154377  1  0
155378  1  0
155379  1  0
157380  1  0
158381  1  0
159382  1  1
160383  1  0
161384  1  0
162385  1  0
163386  1  6
164387  1  0
165388  1  6
166389  1  0
166390  1  0
167391  1  0
168392  1  0
169393  1  0
170394  1  0
170395  1  0
171396  1  0
171397  1  0
172398  1  0
172399  1  0
173400  1  0
173401  1  0
174402  1  0
175403  1  0
175404  1  0
175405  1  0
176406  1  0
176407  1  0
176408  1  0
M  END
>  <PDBID>  (1) 
4URO

>  <PDB ID>  (1) 
4URO

>  <Generic Name>  (1) 
Novobiocin

>  <Brand Name>  (1) 
Albamycin

>  <DrugBank ID>  (1) 
DB01051

>  <ATC Codes>  (1) 
nan

>  <Ligand ID>  (1) 
NOV

>  <Target Name>  (1) 
DNA gyrase subunit B

>  <UniProt ID>  (1) 
P0A0K8

>  <PDB ID.1>  (1) 
4URO

>  <Seq. Identity>  (1) 
84%

$$$$
