PDB_DB00877_99
     RDKit          3D

144147  0  0  0  0  0  0  0  0999 V2000
    4.6330    8.5000   12.8470 C   0  0  0  0  0  0  0  0  0  0  0  0
    4.2640    9.5930   13.6790 O   0  0  0  0  0  0  0  0  0  0  0  0
    5.3670    8.7260   11.8880 O   0  0  0  0  0  0  0  0  0  0  0  0
    4.1770    7.0700   13.1350 C   0  0  2  0  0  0  0  0  0  0  0  0
    3.7200    6.3740   11.8620 C   0  0  0  0  0  0  0  0  0  0  0  0
    2.3540    6.8320   11.3720 C   0  0  0  0  0  0  0  0  0  0  0  0
    1.3600    6.6530   12.5050 C   0  0  0  0  0  0  0  0  0  0  0  0
    1.7830    7.4300   13.7130 C   0  0  0  0  0  0  0  0  0  0  0  0
    3.1050    6.9340   14.1270 N   0  0  0  0  0  0  0  0  0  0  0  0
    3.3850    6.5490   15.3820 C   0  0  0  0  0  0  0  0  0  0  0  0
    4.5520    6.2370   15.6540 O   0  0  0  0  0  0  0  0  0  0  0  0
    2.3970    6.4090   16.3810 C   0  0  0  0  0  0  0  0  0  0  0  0
    1.7830    5.3390   16.4740 O   0  0  0  0  0  0  0  0  0  0  0  0
    2.0560    7.5410   17.3680 C   0  0  1  0  0  0  0  0  0  0  0  0
    1.2800    8.4570   16.6310 O   0  0  0  0  0  0  0  0  0  0  0  0
    1.3100    6.9920   18.4580 O   0  0  0  0  0  0  0  0  0  0  0  0
    3.3320    8.2820   17.9400 C   0  0  1  0  0  0  0  0  0  0  0  0
    2.9420    9.5910   18.6640 C   0  0  0  0  0  0  0  0  0  0  0  0
    2.0100   10.4230   17.7950 C   0  0  0  0  0  0  0  0  0  0  0  0
    0.8420    9.6280   17.2210 C   0  0  1  0  0  0  0  0  0  0  0  0
    0.1930   10.4130   16.0940 C   0  0  0  0  0  0  0  0  0  0  0  0
   -0.5820   11.6640   16.4900 C   0  0  2  0  0  0  0  0  0  0  0  0
   -1.6270   11.2720   17.3240 O   0  0  0  0  0  0  0  0  0  0  0  0
   -1.1450   12.3710   15.2760 C   0  0  0  0  0  0  0  0  0  0  0  0
   -0.6720   13.5710   14.9670 C   0  0  0  0  0  0  0  0  0  0  0  0
   -1.0960   14.3670   13.8070 C   0  0  0  0  0  0  0  0  0  0  0  0
   -0.5860   15.5780   13.6340 C   0  0  0  0  0  0  0  0  0  0  0  0
   -0.9000   16.3770   12.4350 C   0  0  0  0  0  0  0  0  0  0  0  0
   -0.2480   17.4880   12.1490 C   0  0  0  0  0  0  0  0  0  0  0  0
   -0.4500   18.2890   10.8810 C   0  0  2  0  0  0  0  0  0  0  0  0
    0.9110   18.4010   10.2160 C   0  0  0  0  0  0  0  0  0  0  0  0
    1.6740   17.1120    9.9750 C   0  0  2  0  0  0  0  0  0  0  0  0
    3.1570   17.3910    9.7710 C   0  0  0  0  0  0  0  0  0  0  0  0
    3.6110   17.6690    8.6630 O   0  0  0  0  0  0  0  0  0  0  0  0
    4.0480   17.2970   11.0050 C   0  0  2  0  0  0  0  0  0  0  0  0
    5.2100   18.0500   10.7780 O   0  0  0  0  0  0  0  0  0  0  0  0
    4.5130   15.8410   11.3290 C   0  0  2  0  0  0  0  0  0  0  0  0
    4.8240   15.2000   10.0840 O   0  0  0  0  0  0  0  0  0  0  0  0
    3.4620   15.0140   12.0940 C   0  0  0  0  0  0  0  0  0  0  0  0
    2.8080   13.9890   11.5490 C   0  0  0  0  0  0  0  0  0  0  0  0
    1.7730   13.0420   12.1750 C   0  0  2  0  0  0  0  0  0  0  0  0
    2.4330   11.7010   12.4950 C   0  0  0  0  0  0  0  0  0  0  0  0
    2.2640   10.7010   11.7910 O   0  0  0  0  0  0  0  0  0  0  0  0
    3.3580   11.6930   13.7070 C   0  0  0  0  0  0  0  0  0  0  0  0
    4.6300   10.9090   13.4550 C   0  0  1  0  0  0  0  0  0  0  0  0
    5.8460   11.1690   14.3670 C   0  0  1  0  0  0  0  0  0  0  0  0
    6.5510   12.4800   14.0270 C   0  0  0  0  0  0  0  0  0  0  0  0
    7.2100   12.5860   12.6500 C   0  0  1  0  0  0  0  0  0  0  0  0
    7.8120   13.9830   12.4610 C   0  0  0  0  0  0  0  0  0  0  0  0
    8.3860   14.2020   11.0590 C   0  0  1  0  0  0  0  0  0  0  0  0
    9.0410   15.4440   11.0860 O   0  0  0  0  0  0  0  0  0  0  0  0
    9.3990   13.0570   10.7110 C   0  0  2  0  0  0  0  0  0  0  0  0
    9.8030   13.1890    9.3490 O   0  0  0  0  0  0  0  0  0  0  0  0
    8.8190   11.6450   10.9300 C   0  0  0  0  0  0  0  0  0  0  0  0
    8.2430   11.5050   12.3320 C   0  0  0  0  0  0  0  0  0  0  0  0
    4.2580    7.4120   18.8400 C   0  0  0  0  0  0  0  0  0  0  0  0
   -2.2570   11.6210   14.5220 C   0  0  0  0  0  0  0  0  0  0  0  0
   -1.0140   19.6680   11.1900 C   0  0  0  0  0  0  0  0  0  0  0  0
    1.0990   16.3270    8.7930 C   0  0  0  0  0  0  0  0  0  0  0  0
    3.2220   15.4750   13.5190 C   0  0  0  0  0  0  0  0  0  0  0  0
    0.6250   12.8300   11.1750 C   0  0  0  0  0  0  0  0  0  0  0  0
    5.4820   11.1300   15.8240 C   0  0  0  0  0  0  0  0  0  0  0  0
   -2.1230   12.2430   18.1890 C   0  0  0  0  0  0  0  0  0  0  0  0
    5.1340   19.3870   11.1300 C   0  0  0  0  0  0  0  0  0  0  0  0
    8.3520   16.5240   10.5560 C   0  0  0  0  0  0  0  0  0  0  0  0
    5.0741    6.5982   13.5623 H   0  0  0  0  0  0  0  0  0  0  0  0
    4.4581    6.5755   11.0717 H   0  0  0  0  0  0  0  0  0  0  0  0
    3.6360    5.3020   12.0937 H   0  0  0  0  0  0  0  0  0  0  0  0
    2.3991    7.8916   11.0799 H   0  0  0  0  0  0  0  0  0  0  0  0
    2.0452    6.2396   10.4981 H   0  0  0  0  0  0  0  0  0  0  0  0
    0.3717    7.0071   12.1766 H   0  0  0  0  0  0  0  0  0  0  0  0
    1.3167    5.5863   12.7700 H   0  0  0  0  0  0  0  0  0  0  0  0
    1.8453    8.5002   13.4665 H   0  0  0  0  0  0  0  0  0  0  0  0
    1.0532    7.3031   14.5262 H   0  0  0  0  0  0  0  0  0  0  0  0
    1.7108    7.2869   19.3139 H   0  0  0  0  0  0  0  0  0  0  0  0
    3.9347    8.5162   17.0501 H   0  0  0  0  0  0  0  0  0  0  0  0
    2.4335    9.3450   19.6079 H   0  0  0  0  0  0  0  0  0  0  0  0
    3.8542   10.1719   18.8651 H   0  0  0  0  0  0  0  0  0  0  0  0
    1.6058   11.2442   18.4051 H   0  0  0  0  0  0  0  0  0  0  0  0
    2.6023   10.7885   16.9431 H   0  0  0  0  0  0  0  0  0  0  0  0
    0.1526    9.4271   18.0543 H   0  0  0  0  0  0  0  0  0  0  0  0
    0.9892   10.7198   15.3998 H   0  0  0  0  0  0  0  0  0  0  0  0
   -0.5561    9.7332   15.6619 H   0  0  0  0  0  0  0  0  0  0  0  0
    0.0947   12.3646   17.0012 H   0  0  0  0  0  0  0  0  0  0  0  0
    0.0943   14.0022   15.6280 H   0  0  0  0  0  0  0  0  0  0  0  0
   -1.8273   13.9630   13.0914 H   0  0  0  0  0  0  0  0  0  0  0  0
    0.0846   15.9952   14.3997 H   0  0  0  0  0  0  0  0  0  0  0  0
   -1.6998   16.0375   11.7604 H   0  0  0  0  0  0  0  0  0  0  0  0
    0.4890   17.8552   12.8784 H   0  0  0  0  0  0  0  0  0  0  0  0
   -1.1744   17.7934   10.2179 H   0  0  0  0  0  0  0  0  0  0  0  0
    0.7631   18.8854    9.2395 H   0  0  0  0  0  0  0  0  0  0  0  0
    1.5288   18.9667   10.9289 H   0  0  0  0  0  0  0  0  0  0  0  0
    1.5593   16.4870   10.8729 H   0  0  0  0  0  0  0  0  0  0  0  0
    3.4486   17.6663   11.8502 H   0  0  0  0  0  0  0  0  0  0  0  0
    5.3881   15.9003   11.9928 H   0  0  0  0  0  0  0  0  0  0  0  0
    5.2492   14.3237   10.2612 H   0  0  0  0  0  0  0  0  0  0  0  0
    3.0445   13.7914   10.4931 H   0  0  0  0  0  0  0  0  0  0  0  0
    1.3800   13.4789   13.1049 H   0  0  0  0  0  0  0  0  0  0  0  0
    3.6254   12.7309   13.9546 H   0  0  0  0  0  0  0  0  0  0  0  0
    2.8222   11.2073   14.5358 H   0  0  0  0  0  0  0  0  0  0  0  0
    4.9743   11.1980   12.4510 H   0  0  0  0  0  0  0  0  0  0  0  0
    6.5507   10.3467   14.1741 H   0  0  0  0  0  0  0  0  0  0  0  0
    5.8046   13.2848   14.0989 H   0  0  0  0  0  0  0  0  0  0  0  0
    7.3825   12.5476   14.7439 H   0  0  0  0  0  0  0  0  0  0  0  0
    6.3989   12.4144   11.9270 H   0  0  0  0  0  0  0  0  0  0  0  0
    7.0250   14.7308   12.6384 H   0  0  0  0  0  0  0  0  0  0  0  0
    8.6421   14.0832   13.1758 H   0  0  0  0  0  0  0  0  0  0  0  0
    7.5953   14.1902   10.2944 H   0  0  0  0  0  0  0  0  0  0  0  0
   10.2542   13.1644   11.3945 H   0  0  0  0  0  0  0  0  0  0  0  0
   10.7434   13.4963    9.3120 H   0  0  0  0  0  0  0  0  0  0  0  0
    8.0219   11.4651   10.1937 H   0  0  0  0  0  0  0  0  0  0  0  0
    9.6284   10.9101   10.8079 H   0  0  0  0  0  0  0  0  0  0  0  0
    9.0646   11.5768   13.0599 H   0  0  0  0  0  0  0  0  0  0  0  0
    7.7362   10.5304   12.3898 H   0  0  0  0  0  0  0  0  0  0  0  0
    4.0392    7.6176   19.8982 H   0  0  0  0  0  0  0  0  0  0  0  0
    4.0795    6.3473   18.6288 H   0  0  0  0  0  0  0  0  0  0  0  0
    5.3095    7.6565   18.6288 H   0  0  0  0  0  0  0  0  0  0  0  0
   -2.9433   11.1581   15.2464 H   0  0  0  0  0  0  0  0  0  0  0  0
   -2.8135   12.3290   13.8903 H   0  0  0  0  0  0  0  0  0  0  0  0
   -1.8091   10.8397   13.8903 H   0  0  0  0  0  0  0  0  0  0  0  0
   -1.0702   19.8054   12.2799 H   0  0  0  0  0  0  0  0  0  0  0  0
   -0.3585   20.4378   10.7567 H   0  0  0  0  0  0  0  0  0  0  0  0
   -2.0211   19.7578   10.7567 H   0  0  0  0  0  0  0  0  0  0  0  0
    0.4882   15.4931    9.1691 H   0  0  0  0  0  0  0  0  0  0  0  0
    0.4733   16.9927    8.1803 H   0  0  0  0  0  0  0  0  0  0  0  0
    1.9224   15.9312    8.1803 H   0  0  0  0  0  0  0  0  0  0  0  0
    3.6139   14.7222   14.2188 H   0  0  0  0  0  0  0  0  0  0  0  0
    3.7357   16.4333   13.6858 H   0  0  0  0  0  0  0  0  0  0  0  0
    2.1424   15.6038   13.6858 H   0  0  0  0  0  0  0  0  0  0  0  0
   -0.3123   12.6569   11.7241 H   0  0  0  0  0  0  0  0  0  0  0  0
    0.5198   13.7239   10.5426 H   0  0  0  0  0  0  0  0  0  0  0  0
    0.8460   11.9575   10.5426 H   0  0  0  0  0  0  0  0  0  0  0  0
    6.3933   11.2276   16.4323 H   0  0  0  0  0  0  0  0  0  0  0  0
    4.7974   11.9599   16.0533 H   0  0  0  0  0  0  0  0  0  0  0  0
    4.9888   10.1739   16.0533 H   0  0  0  0  0  0  0  0  0  0  0  0
   -1.9605   11.9248   19.2294 H   0  0  0  0  0  0  0  0  0  0  0  0
   -1.6004   13.1944   18.0106 H   0  0  0  0  0  0  0  0  0  0  0  0
   -3.2001   12.3772   18.0106 H   0  0  0  0  0  0  0  0  0  0  0  0
    5.1288   19.4778   12.2262 H   0  0  0  0  0  0  0  0  0  0  0  0
    6.0031   19.9236   10.7217 H   0  0  0  0  0  0  0  0  0  0  0  0
    4.2097   19.8217   10.7217 H   0  0  0  0  0  0  0  0  0  0  0  0
    7.9565   17.1439   11.3741 H   0  0  0  0  0  0  0  0  0  0  0  0
    9.0336   17.1256    9.9367 H   0  0  0  0  0  0  0  0  0  0  0  0
    7.5192   16.1595    9.9367 H   0  0  0  0  0  0  0  0  0  0  0  0
  1  2  1  0
  1  3  2  0
  1  4  1  0
  4  5  1  0
  5  6  1  0
  6  7  1  0
  7  8  1  0
  4  9  1  0
  8  9  1  0
  9 10  1  0
 10 11  2  0
 10 12  1  0
 12 13  2  0
 12 14  1  0
 14 15  1  0
 14 16  1  1
 14 17  1  0
 17 18  1  0
 18 19  1  0
 15 20  1  0
 19 20  1  0
 20 21  1  0
 21 22  1  0
 22 23  1  0
 22 24  1  0
 24 25  2  0
 25 26  1  0
 26 27  2  0
 27 28  1  0
 28 29  2  0
 29 30  1  0
 30 31  1  0
 31 32  1  0
 32 33  1  0
 33 34  2  0
 33 35  1  0
 35 36  1  0
 35 37  1  0
 37 38  1  0
 37 39  1  0
 39 40  2  0
 40 41  1  0
 41 42  1  0
 42 43  2  0
 42 44  1  0
  2 45  1  0
 44 45  1  0
 45 46  1  0
 46 47  1  0
 47 48  1  0
 48 49  1  0
 49 50  1  0
 50 51  1  0
 50 52  1  0
 52 53  1  0
 52 54  1  0
 48 55  1  0
 54 55  1  0
 17 56  1  0
 24 57  1  0
 30 58  1  0
 32 59  1  0
 39 60  1  0
 41 61  1  0
 46 62  1  0
 23 63  1  0
 36 64  1  0
 51 65  1  0
  4 66  1  1
  5 67  1  0
  5 68  1  0
  6 69  1  0
  6 70  1  0
  7 71  1  0
  7 72  1  0
  8 73  1  0
  8 74  1  0
 16 75  1  0
 17 76  1  6
 18 77  1  0
 18 78  1  0
 19 79  1  0
 19 80  1  0
 20 81  1  1
 21 82  1  0
 21 83  1  0
 22 84  1  1
 25 85  1  0
 26 86  1  0
 27 87  1  0
 28 88  1  0
 29 89  1  0
 30 90  1  6
 31 91  1  0
 31 92  1  0
 32 93  1  1
 35 94  1  1
 37 95  1  1
 38 96  1  0
 40 97  1  0
 41 98  1  1
 44 99  1  0
 44100  1  0
 45101  1  6
 46102  1  1
 47103  1  0
 47104  1  0
 48105  1  6
 49106  1  0
 49107  1  0
 50108  1  6
 52109  1  1
 53110  1  0
 54111  1  0
 54112  1  0
 55113  1  0
 55114  1  0
 56115  1  0
 56116  1  0
 56117  1  0
 57118  1  0
 57119  1  0
 57120  1  0
 58121  1  0
 58122  1  0
 58123  1  0
 59124  1  0
 59125  1  0
 59126  1  0
 60127  1  0
 60128  1  0
 60129  1  0
 61130  1  0
 61131  1  0
 61132  1  0
 62133  1  0
 62134  1  0
 62135  1  0
 63136  1  0
 63137  1  0
 63138  1  0
 64139  1  0
 64140  1  0
 64141  1  0
 65142  1  0
 65143  1  0
 65144  1  0
M  END
>  <PDBID>  (1) 
1FKB

>  <PDB ID>  (1) 
1FKB

>  <Generic Name>  (1) 
Sirolimus

>  <Brand Name>  (1) 
Gd-sirolimus#Rapamune#Rapamune Oral Solution#Sirolimus

>  <DrugBank ID>  (1) 
DB00877

>  <ATC Codes>  (1) 
S01XA23#L04AA10

>  <Ligand ID>  (1) 
RAP

>  <Target Name>  (1) 
Peptidyl-prolyl cis-trans isomerase FKBP1A

>  <UniProt ID>  (1) 
P62942

>  <PDB ID.1>  (1) 
1FKB

>  <Seq. Identity>  (1) 
100%

$$$$
