PDB_DB00159_95
     RDKit          3D

 52 51  0  0  0  0  0  0  0  0999 V2000
   -5.6120   -4.9490   11.7280 C   0  0  0  0  0  0  0  0  0  0  0  0
   -6.2660   -5.5600   10.7820 O   0  0  0  0  0  0  0  0  0  0  0  0
   -5.4610   -5.4180   12.8500 O   0  0  0  0  0  0  0  0  0  0  0  0
   -5.0300   -3.5850   11.4560 C   0  0  0  0  0  0  0  0  0  0  0  0
   -6.0990   -2.4340   11.5670 C   0  0  0  0  0  0  0  0  0  0  0  0
   -5.3080   -1.2410   11.1020 C   0  0  0  0  0  0  0  0  0  0  0  0
   -6.0960    0.0470   11.1260 C   0  0  0  0  0  0  0  0  0  0  0  0
   -5.5320    1.1530   11.5490 C   0  0  0  0  0  0  0  0  0  0  0  0
   -4.0570    1.2220   12.0280 C   0  0  0  0  0  0  0  0  0  0  0  0
   -3.1550    1.5970   10.8370 C   0  0  0  0  0  0  0  0  0  0  0  0
   -1.8060    1.4960   10.8580 C   0  0  0  0  0  0  0  0  0  0  0  0
   -1.0750    0.9930   12.0850 C   0  0  0  0  0  0  0  0  0  0  0  0
   -0.6220   -0.4580   11.9060 C   0  0  0  0  0  0  0  0  0  0  0  0
    0.6100   -0.9550   12.2830 C   0  0  0  0  0  0  0  0  0  0  0  0
    1.7720   -0.2000   12.9340 C   0  0  0  0  0  0  0  0  0  0  0  0
    1.5950   -0.1900   14.4280 C   0  0  0  0  0  0  0  0  0  0  0  0
    2.4530    0.1050   15.4200 C   0  0  0  0  0  0  0  0  0  0  0  0
    3.8910    0.5180   15.3210 C   0  0  0  0  0  0  0  0  0  0  0  0
    4.7460   -0.2670   16.2470 C   0  0  0  0  0  0  0  0  0  0  0  0
    5.7240   -1.1410   15.9910 C   0  0  0  0  0  0  0  0  0  0  0  0
    6.3200   -1.6580   14.6950 C   0  0  0  0  0  0  0  0  0  0  0  0
    7.5680   -2.4090   15.1650 C   0  0  0  0  0  0  0  0  0  0  0  0
   -4.9546   -4.9121   13.5339 H   0  0  0  0  0  0  0  0  0  0  0  0
   -4.2290   -3.3926   12.1849 H   0  0  0  0  0  0  0  0  0  0  0  0
   -4.6496   -3.5863   10.4239 H   0  0  0  0  0  0  0  0  0  0  0  0
   -6.9623   -2.6234   10.9121 H   0  0  0  0  0  0  0  0  0  0  0  0
   -6.5316   -2.3202   12.5720 H   0  0  0  0  0  0  0  0  0  0  0  0
   -4.4321   -1.1263   11.7575 H   0  0  0  0  0  0  0  0  0  0  0  0
   -5.0228   -1.4279   10.0562 H   0  0  0  0  0  0  0  0  0  0  0  0
   -7.1430    0.0576   10.7887 H   0  0  0  0  0  0  0  0  0  0  0  0
   -6.1322    2.0747   11.5651 H   0  0  0  0  0  0  0  0  0  0  0  0
   -3.9613    1.9834   12.8161 H   0  0  0  0  0  0  0  0  0  0  0  0
   -3.7524    0.2440   12.4289 H   0  0  0  0  0  0  0  0  0  0  0  0
   -3.6341    1.9674    9.9187 H   0  0  0  0  0  0  0  0  0  0  0  0
   -1.2293    1.7847    9.9669 H   0  0  0  0  0  0  0  0  0  0  0  0
   -0.1920    1.6251   12.2604 H   0  0  0  0  0  0  0  0  0  0  0  0
   -1.7627    1.0390   12.9423 H   0  0  0  0  0  0  0  0  0  0  0  0
   -1.3319   -1.1583   11.4417 H   0  0  0  0  0  0  0  0  0  0  0  0
    0.7771   -2.0253   12.0920 H   0  0  0  0  0  0  0  0  0  0  0  0
    2.7195   -0.6983   12.6812 H   0  0  0  0  0  0  0  0  0  0  0  0
    1.7888    0.8349   12.5617 H   0  0  0  0  0  0  0  0  0  0  0  0
    0.5880   -0.4735   14.7679 H   0  0  0  0  0  0  0  0  0  0  0  0
    2.0462    0.0340   16.4395 H   0  0  0  0  0  0  0  0  0  0  0  0
    4.2391    0.3575   14.2899 H   0  0  0  0  0  0  0  0  0  0  0  0
    3.9656    1.5800   15.5978 H   0  0  0  0  0  0  0  0  0  0  0  0
    4.5416   -0.1028   17.3153 H   0  0  0  0  0  0  0  0  0  0  0  0
    6.1858   -1.5677   16.8936 H   0  0  0  0  0  0  0  0  0  0  0  0
    5.6216   -2.3348   14.1810 H   0  0  0  0  0  0  0  0  0  0  0  0
    6.5415   -0.8599   13.9711 H   0  0  0  0  0  0  0  0  0  0  0  0
    7.5941   -2.4247   16.2646 H   0  0  0  0  0  0  0  0  0  0  0  0
    7.5403   -3.4406   14.7841 H   0  0  0  0  0  0  0  0  0  0  0  0
    8.4665   -1.9015   14.7841 H   0  0  0  0  0  0  0  0  0  0  0  0
  1  2  2  0
  1  3  1  0
  1  4  1  0
  4  5  1  0
  5  6  1  0
  6  7  1  0
  7  8  2  0
  8  9  1  0
  9 10  1  0
 10 11  2  0
 11 12  1  0
 12 13  1  0
 13 14  2  0
 14 15  1  0
 15 16  1  0
 16 17  2  0
 17 18  1  0
 18 19  1  0
 19 20  2  0
 20 21  1  0
 21 22  1  0
  3 23  1  0
  4 24  1  0
  4 25  1  0
  5 26  1  0
  5 27  1  0
  6 28  1  0
  6 29  1  0
  7 30  1  0
  8 31  1  0
  9 32  1  0
  9 33  1  0
 10 34  1  0
 11 35  1  0
 12 36  1  0
 12 37  1  0
 13 38  1  0
 14 39  1  0
 15 40  1  0
 15 41  1  0
 16 42  1  0
 17 43  1  0
 18 44  1  0
 18 45  1  0
 19 46  1  0
 20 47  1  0
 21 48  1  0
 21 49  1  0
 22 50  1  0
 22 51  1  0
 22 52  1  0
M  END
$$$$
