PDB_DB00523_94
     RDKit          3D

 50 50  0  0  0  0  0  0  0  0999 V2000
    5.5630   -8.0860  -36.2210 C   0  0  0  0  0  0  0  0  0  0  0  0
    7.1180   -7.9850  -36.8190 C   0  0  0  0  0  0  0  0  0  0  0  0
    7.8410   -6.8520  -36.5610 C   0  0  0  0  0  0  0  0  0  0  0  0
    7.6250   -6.2400  -35.0390 C   0  0  0  0  0  0  0  0  0  0  0  0
    6.2280   -6.0160  -34.8030 C   0  0  0  0  0  0  0  0  0  0  0  0
    5.2800   -7.2580  -35.0610 C   0  0  0  0  0  0  0  0  0  0  0  0
    3.8870   -7.2630  -34.3560 C   0  0  0  0  0  0  0  0  0  0  0  0
    3.8250   -7.3700  -32.9800 C   0  0  0  0  0  0  0  0  0  0  0  0
    2.4440   -7.3600  -32.2610 C   0  0  0  0  0  0  0  0  0  0  0  0
    2.3880   -7.2320  -30.8990 C   0  0  0  0  0  0  0  0  0  0  0  0
    3.7000   -7.1260  -30.0980 C   0  0  0  0  0  0  0  0  0  0  0  0
    3.7110   -7.3160  -28.7870 C   0  0  0  0  0  0  0  0  0  0  0  0
    5.0270   -7.2190  -28.0180 C   0  0  0  0  0  0  0  0  0  0  0  0
    5.0530   -6.6520  -26.8190 C   0  0  0  0  0  0  0  0  0  0  0  0
    6.3060   -6.4910  -25.9200 C   0  0  0  0  0  0  0  0  0  0  0  0
    5.3380   -9.5360  -35.8250 C   0  0  0  0  0  0  0  0  0  0  0  0
    4.5440   -7.7360  -37.3140 C   0  0  0  0  0  0  0  0  0  0  0  0
    5.6420   -4.5860  -34.5160 C   0  0  0  0  0  0  0  0  0  0  0  0
    1.1400   -7.4690  -33.1030 C   0  0  0  0  0  0  0  0  0  0  0  0
    6.2680   -7.7950  -28.7030 C   0  0  0  0  0  0  0  0  0  0  0  0
    6.1620   -6.4460  -24.6620 O   0  0  0  0  0  0  0  0  0  0  0  0
    7.4730   -6.3940  -26.3900 O   0  0  0  0  0  0  0  0  0  0  0  0
    7.6823   -8.8329  -36.4034 H   0  0  0  0  0  0  0  0  0  0  0  0
    6.9885   -7.9810  -37.9113 H   0  0  0  0  0  0  0  0  0  0  0  0
    8.9078   -7.0870  -36.6899 H   0  0  0  0  0  0  0  0  0  0  0  0
    7.4853   -6.0839  -37.2634 H   0  0  0  0  0  0  0  0  0  0  0  0
    8.0109   -6.9561  -34.2985 H   0  0  0  0  0  0  0  0  0  0  0  0
    8.1676   -5.2874  -34.9485 H   0  0  0  0  0  0  0  0  0  0  0  0
    2.9641   -7.1821  -34.9490 H   0  0  0  0  0  0  0  0  0  0  0  0
    4.7506   -7.4622  -32.3928 H   0  0  0  0  0  0  0  0  0  0  0  0
    1.4172   -7.2051  -30.3824 H   0  0  0  0  0  0  0  0  0  0  0  0
    4.6385   -6.8898  -30.6209 H   0  0  0  0  0  0  0  0  0  0  0  0
    2.7757   -7.5428  -28.2542 H   0  0  0  0  0  0  0  0  0  0  0  0
    4.1018   -6.2616  -26.4281 H   0  0  0  0  0  0  0  0  0  0  0  0
    5.3252   -9.6188  -34.7282 H   0  0  0  0  0  0  0  0  0  0  0  0
    4.3755   -9.8816  -36.2301 H   0  0  0  0  0  0  0  0  0  0  0  0
    6.1505  -10.1570  -36.2301 H   0  0  0  0  0  0  0  0  0  0  0  0
    3.6020   -7.4125  -36.8471 H   0  0  0  0  0  0  0  0  0  0  0  0
    4.9416   -6.9229  -37.9392 H   0  0  0  0  0  0  0  0  0  0  0  0
    4.3581   -8.6218  -37.9392 H   0  0  0  0  0  0  0  0  0  0  0  0
    5.5771   -4.4276  -33.4294 H   0  0  0  0  0  0  0  0  0  0  0  0
    6.3005   -3.8242  -34.9589 H   0  0  0  0  0  0  0  0  0  0  0  0
    4.6383   -4.5054  -34.9589 H   0  0  0  0  0  0  0  0  0  0  0  0
    0.2735   -7.5414  -32.4293 H   0  0  0  0  0  0  0  0  0  0  0  0
    1.0375   -6.5763  -33.7375 H   0  0  0  0  0  0  0  0  0  0  0  0
    1.1872   -8.3663  -33.7375 H   0  0  0  0  0  0  0  0  0  0  0  0
    6.9865   -8.1285  -27.9398 H   0  0  0  0  0  0  0  0  0  0  0  0
    5.9767   -8.6500  -29.3308 H   0  0  0  0  0  0  0  0  0  0  0  0
    6.7329   -7.0206  -29.3308 H   0  0  0  0  0  0  0  0  0  0  0  0
    6.9537   -6.3435  -24.0765 H   0  0  0  0  0  0  0  0  0  0  0  0
  1  2  1  0
  2  3  1  0
  3  4  1  0
  4  5  1  0
  1  6  1  0
  5  6  2  0
  6  7  1  0
  7  8  2  0
  8  9  1  0
  9 10  2  0
 10 11  1  0
 11 12  2  0
 12 13  1  0
 13 14  2  0
 14 15  1  0
  1 16  1  0
  1 17  1  0
  5 18  1  0
  9 19  1  0
 13 20  1  0
 15 21  1  0
 15 22  2  0
  2 23  1  0
  2 24  1  0
  3 25  1  0
  3 26  1  0
  4 27  1  0
  4 28  1  0
  7 29  1  0
  8 30  1  0
 10 31  1  0
 11 32  1  0
 12 33  1  0
 14 34  1  0
 16 35  1  0
 16 36  1  0
 16 37  1  0
 17 38  1  0
 17 39  1  0
 17 40  1  0
 18 41  1  0
 18 42  1  0
 18 43  1  0
 19 44  1  0
 19 45  1  0
 19 46  1  0
 20 47  1  0
 20 48  1  0
 20 49  1  0
 21 50  1  0
M  END
>  <PDBID>  (1) 
5UAN

>  <PDB ID>  (1) 
5UAN

>  <Generic Name>  (1) 
Alitretinoin

>  <Brand Name>  (1) 
Panretin#Toctino

>  <DrugBank ID>  (1) 
DB00523

>  <ATC Codes>  (1) 
D11AH04#L01XX22

>  <Ligand ID>  (1) 
9CR

>  <Target Name>  (1) 
Retinoic acid receptor gamma

>  <UniProt ID>  (1) 
P13631

>  <PDB ID.1>  (1) 
5UAN

>  <Seq. Identity>  (1) 
83%

$$$$
