PDB_DB06401_97
     RDKit          3D

 69 73  0  0  0  0  0  0  0  0999 V2000
   10.5670  -36.7140   33.9730 C   0  0  0  0  0  0  0  0  0  0  0  0
   12.0170  -37.3770   33.7650 C   0  0  0  0  0  0  0  0  0  0  0  0
   12.0520  -37.8780   35.0950 C   0  0  0  0  0  0  0  0  0  0  0  0
   12.0120  -37.3450   36.4450 C   0  0  0  0  0  0  0  0  0  0  0  0
   10.7280  -36.6760   36.2090 C   0  0  0  0  0  0  0  0  0  0  0  0
    9.4200  -37.2370   35.7780 C   0  0  0  0  0  0  0  0  0  0  0  0
    9.6290  -37.8710   34.3760 N   0  0  0  0  0  0  0  0  0  0  0  0
    8.2000  -38.0460   34.6820 C   0  0  0  0  0  0  0  0  0  0  0  0
    7.3850  -38.0820   33.3850 C   0  0  0  0  0  0  0  0  0  0  0  0
    7.5990  -36.9430   32.5460 O   0  0  0  0  0  0  0  0  0  0  0  0
    7.3240  -37.3380   31.2590 C   0  0  0  0  0  0  0  0  0  0  0  0
    7.5460  -36.4750   30.1940 C   0  0  0  0  0  0  0  0  0  0  0  0
    7.2990  -36.9070   28.8940 C   0  0  0  0  0  0  0  0  0  0  0  0
    6.9130  -38.6410   30.9770 C   0  0  0  0  0  0  0  0  0  0  0  0
    6.6540  -39.0620   29.6770 C   0  0  0  0  0  0  0  0  0  0  0  0
    6.8530  -38.1980   28.6130 C   0  0  0  0  0  0  0  0  0  0  0  0
    6.6030  -38.6400   27.2980 C   0  0  0  0  0  0  0  0  0  0  0  0
    7.1610  -37.6480   26.3090 N   0  0  0  0  0  0  0  0  0  0  0  0
    8.3300  -37.9780   25.7500 C   0  0  0  0  0  0  0  0  0  0  0  0
    9.0810  -39.0770   25.8550 C   0  0  0  0  0  0  0  0  0  0  0  0
   10.2630  -39.2070   25.1320 C   0  0  0  0  0  0  0  0  0  0  0  0
   10.6410  -38.1640   24.3010 C   0  0  0  0  0  0  0  0  0  0  0  0
   11.7860  -38.2310   23.5680 O   0  0  0  0  0  0  0  0  0  0  0  0
    9.8240  -37.0450   24.2310 C   0  0  0  0  0  0  0  0  0  0  0  0
    8.7030  -36.9850   24.9500 C   0  0  0  0  0  0  0  0  0  0  0  0
    7.7840  -36.0370   25.0400 C   0  0  0  0  0  0  0  0  0  0  0  0
    7.9590  -34.7580   24.2140 C   0  0  0  0  0  0  0  0  0  0  0  0
    6.8420  -36.3880   25.9380 C   0  0  0  0  0  0  0  0  0  0  0  0
    5.6860  -35.7360   26.2510 C   0  0  0  0  0  0  0  0  0  0  0  0
    4.5520  -36.4570   26.6310 C   0  0  0  0  0  0  0  0  0  0  0  0
    3.3230  -35.8740   26.9070 C   0  0  0  0  0  0  0  0  0  0  0  0
    3.1710  -34.5080   26.7430 C   0  0  0  0  0  0  0  0  0  0  0  0
    1.9750  -33.9160   27.0020 O   0  0  0  0  0  0  0  0  0  0  0  0
    4.2550  -33.7560   26.3140 C   0  0  0  0  0  0  0  0  0  0  0  0
    5.4660  -34.3770   26.0270 C   0  0  0  0  0  0  0  0  0  0  0  0
   10.6033  -35.9555   34.7689 H   0  0  0  0  0  0  0  0  0  0  0  0
   10.2180  -36.2095   33.0600 H   0  0  0  0  0  0  0  0  0  0  0  0
   12.0326  -38.1660   32.9987 H   0  0  0  0  0  0  0  0  0  0  0  0
   12.8457  -36.7459   33.4115 H   0  0  0  0  0  0  0  0  0  0  0  0
   11.2021  -38.5764   35.0992 H   0  0  0  0  0  0  0  0  0  0  0  0
   13.1463  -37.9903   35.0976 H   0  0  0  0  0  0  0  0  0  0  0  0
   11.9667  -38.1214   37.2229 H   0  0  0  0  0  0  0  0  0  0  0  0
   12.8638  -36.7539   36.8124 H   0  0  0  0  0  0  0  0  0  0  0  0
   10.5047  -36.1802   37.1652 H   0  0  0  0  0  0  0  0  0  0  0  0
   10.9936  -36.1860   35.2607 H   0  0  0  0  0  0  0  0  0  0  0  0
    9.0858  -38.0041   36.4920 H   0  0  0  0  0  0  0  0  0  0  0  0
    8.6525  -36.4500   35.7390 H   0  0  0  0  0  0  0  0  0  0  0  0
    8.0577  -38.9905   35.2276 H   0  0  0  0  0  0  0  0  0  0  0  0
    7.8578  -37.2023   35.2993 H   0  0  0  0  0  0  0  0  0  0  0  0
    7.6638  -38.9858   32.8233 H   0  0  0  0  0  0  0  0  0  0  0  0
    6.3225  -38.0797   33.6697 H   0  0  0  0  0  0  0  0  0  0  0  0
    7.9152  -35.4551   30.3768 H   0  0  0  0  0  0  0  0  0  0  0  0
    7.4609  -36.2070   28.0610 H   0  0  0  0  0  0  0  0  0  0  0  0
    6.7905  -39.3546   31.8051 H   0  0  0  0  0  0  0  0  0  0  0  0
    6.2902  -40.0837   29.4934 H   0  0  0  0  0  0  0  0  0  0  0  0
    7.0830  -39.6178   27.1443 H   0  0  0  0  0  0  0  0  0  0  0  0
    5.5173  -38.7311   27.1466 H   0  0  0  0  0  0  0  0  0  0  0  0
    8.7610  -39.8909   26.5222 H   0  0  0  0  0  0  0  0  0  0  0  0
   10.8807  -40.1131   25.2177 H   0  0  0  0  0  0  0  0  0  0  0  0
   12.0417  -37.4773   22.9792 H   0  0  0  0  0  0  0  0  0  0  0  0
   10.1024  -36.2036   23.5794 H   0  0  0  0  0  0  0  0  0  0  0  0
    8.0766  -33.8982   24.8900 H   0  0  0  0  0  0  0  0  0  0  0  0
    8.8528  -34.8507   23.5796 H   0  0  0  0  0  0  0  0  0  0  0  0
    7.0731  -34.6071   23.5796 H   0  0  0  0  0  0  0  0  0  0  0  0
    4.6377  -37.5503   26.7165 H   0  0  0  0  0  0  0  0  0  0  0  0
    2.4797  -36.4903   27.2520 H   0  0  0  0  0  0  0  0  0  0  0  0
    1.8704  -32.9387   26.8834 H   0  0  0  0  0  0  0  0  0  0  0  0
    4.1566  -32.6663   26.2006 H   0  0  0  0  0  0  0  0  0  0  0  0
    6.2829  -33.7722   25.6065 H   0  0  0  0  0  0  0  0  0  0  0  0
  1  2  1  0
  2  3  1  0
  3  4  1  0
  4  5  1  0
  5  6  1  0
  1  7  1  0
  6  7  1  0
  7  8  1  0
  8  9  1  0
  9 10  1  0
 10 11  1  0
 11 12  2  0
 12 13  1  0
 11 14  1  0
 14 15  2  0
 13 16  2  0
 15 16  1  0
 16 17  1  0
 17 18  1  0
 18 19  1  0
 19 20  2  0
 20 21  1  0
 21 22  2  0
 22 23  1  0
 22 24  1  0
 19 25  1  0
 24 25  2  0
 25 26  1  0
 26 27  1  0
 18 28  1  0
 26 28  2  0
 28 29  1  0
 29 30  2  0
 30 31  1  0
 31 32  2  0
 32 33  1  0
 32 34  1  0
 29 35  1  0
 34 35  2  0
  1 36  1  0
  1 37  1  0
  2 38  1  0
  2 39  1  0
  3 40  1  0
  3 41  1  0
  4 42  1  0
  4 43  1  0
  5 44  1  0
  5 45  1  0
  6 46  1  0
  6 47  1  0
  8 48  1  0
  8 49  1  0
  9 50  1  0
  9 51  1  0
 12 52  1  0
 13 53  1  0
 14 54  1  0
 15 55  1  0
 17 56  1  0
 17 57  1  0
 20 58  1  0
 21 59  1  0
 23 60  1  0
 24 61  1  0
 27 62  1  0
 27 63  1  0
 27 64  1  0
 30 65  1  0
 31 66  1  0
 33 67  1  0
 34 68  1  0
 35 69  1  0
M  END
$$$$
