PDB_DB00558_76
     RDKit          3D

 43 43  0  0  0  0  0  0  0  0999 V2000
   66.2490   17.1680   -3.6140 C   0  0  0  0  0  0  0  0  0  0  0  0
   65.8990   18.0660   -2.7950 O   0  0  0  0  0  0  0  0  0  0  0  0
   65.7640   17.1330   -4.7860 O   0  0  0  0  0  0  0  0  0  0  0  0
   67.2010   16.2570   -3.2250 C   0  0  0  0  0  0  0  0  0  0  0  0
   66.9910   14.8230   -3.7160 C   0  0  0  0  0  0  0  0  0  0  0  0
   68.0000   13.9340   -3.1960 C   0  0  1  0  0  0  0  0  0  0  0  0
   68.0600   13.9240   -1.8050 C   0  0  1  0  0  0  0  0  0  0  0  0
   69.2720   13.0450   -1.3820 N   0  0  0  0  0  0  0  0  0  0  0  0
   69.0590   11.7530   -0.7730 C   0  0  0  0  0  0  0  0  0  0  0  0
   70.0010   11.0510   -0.4510 O   0  0  0  0  0  0  0  0  0  0  0  0
   67.6770   11.2600   -0.5450 C   0  0  0  0  0  0  0  0  0  0  0  0
   68.2190   15.2360   -1.2210 C   0  0  1  0  0  0  0  0  0  0  0  0
   67.3140   16.2100   -1.7510 O   0  0  0  0  0  0  0  0  0  0  0  0
   68.0150   15.2550    0.3430 C   0  0  2  0  0  0  0  0  0  0  0  0
   66.6850   14.8270    0.8130 O   0  0  0  0  0  0  0  0  0  0  0  0
   68.5160   16.6420    0.9520 C   0  0  2  0  0  0  0  0  0  0  0  0
   69.7530   16.9050    0.4380 O   0  0  0  0  0  0  0  0  0  0  0  0
   68.5800   16.6800    2.4410 C   0  0  0  0  0  0  0  0  0  0  0  0
   69.6480   16.0200    3.0410 O   0  0  0  0  0  0  0  0  0  0  0  0
   67.6810   12.5130   -3.7230 N   0  0  0  0  0  0  0  0  0  0  0  0
   68.7000   11.5140   -3.9580 C   0  0  0  0  0  0  0  0  0  0  0  0
   69.9700   11.8600   -4.0230 N   0  0  0  0  0  0  0  0  0  0  0  0
   68.3360   10.3130   -4.3150 N   0  0  0  0  0  0  0  0  0  0  0  0
   66.2849   18.0822   -1.8835 H   0  0  0  0  0  0  0  0  0  0  0  0
   66.1733   14.5099   -4.3818 H   0  0  0  0  0  0  0  0  0  0  0  0
   68.9851   14.2858   -3.5364 H   0  0  0  0  0  0  0  0  0  0  0  0
   67.1015   13.5272   -1.4391 H   0  0  0  0  0  0  0  0  0  0  0  0
   70.2313   13.3864   -1.5371 H   0  0  0  0  0  0  0  0  0  0  0  0
   67.4857   11.1918    0.5361 H   0  0  0  0  0  0  0  0  0  0  0  0
   66.9590   11.9574   -1.0011 H   0  0  0  0  0  0  0  0  0  0  0  0
   67.5625   10.2656   -1.0011 H   0  0  0  0  0  0  0  0  0  0  0  0
   69.2570   15.4926   -1.4795 H   0  0  0  0  0  0  0  0  0  0  0  0
   68.6578   14.4609    0.7506 H   0  0  0  0  0  0  0  0  0  0  0  0
   66.6706   14.8224    1.8029 H   0  0  0  0  0  0  0  0  0  0  0  0
   67.7735   17.4033    0.6708 H   0  0  0  0  0  0  0  0  0  0  0  0
   70.3958   17.0417    1.1784 H   0  0  0  0  0  0  0  0  0  0  0  0
   68.6285   17.7361    2.7450 H   0  0  0  0  0  0  0  0  0  0  0  0
   67.6824   16.1426    2.7810 H   0  0  0  0  0  0  0  0  0  0  0  0
   69.5589   16.0751    4.0254 H   0  0  0  0  0  0  0  0  0  0  0  0
   70.6910   11.1438   -4.1906 H   0  0  0  0  0  0  0  0  0  0  0  0
   70.2416   12.8467   -3.9062 H   0  0  0  0  0  0  0  0  0  0  0  0
   69.0480    9.5887   -4.4866 H   0  0  0  0  0  0  0  0  0  0  0  0
   67.3367   10.0891   -4.4252 H   0  0  0  0  0  0  0  0  0  0  0  0
  1  2  1  0
  1  3  2  0
  1  4  1  0
  4  5  2  0
  5  6  1  0
  6  7  1  0
  7  8  1  0
  8  9  1  0
  9 10  2  0
  9 11  1  0
  7 12  1  0
  4 13  1  0
 12 13  1  0
 12 14  1  0
 14 15  1  0
 14 16  1  0
 16 17  1  0
 16 18  1  0
 18 19  1  0
  6 20  1  0
 20 21  2  3
 21 22  1  0
 21 23  1  0
  2 24  1  0
  5 25  1  0
  6 26  1  6
  7 27  1  1
  8 28  1  0
 11 29  1  0
 11 30  1  0
 11 31  1  0
 12 32  1  1
 14 33  1  1
 15 34  1  0
 16 35  1  6
 17 36  1  0
 18 37  1  0
 18 38  1  0
 19 39  1  0
 22 40  1  0
 22 41  1  0
 23 42  1  0
 23 43  1  0
M  END
$$$$
