PDB_DB00398_94
     RDKit          3D

 48 50  0  0  0  0  0  0  0  0999 V2000
   -1.9780    2.2590   25.9480 C   0  0  0  0  0  0  0  0  0  0  0  0
   -1.2280    3.4280   25.8570 C   0  0  0  0  0  0  0  0  0  0  0  0
   -1.6980    4.5910   26.4520 C   0  0  0  0  0  0  0  0  0  0  0  0
   -2.9200    4.6600   27.1000 C   0  0  0  0  0  0  0  0  0  0  0  0
    0.4480    2.7040   24.2850 C   0  0  0  0  0  0  0  0  0  0  0  0
    2.3380    2.3780   22.9000 C   0  0  0  0  0  0  0  0  0  0  0  0
    1.6560    2.2710   21.6650 C   0  0  0  0  0  0  0  0  0  0  0  0
    2.3330    1.8220   20.5270 C   0  0  0  0  0  0  0  0  0  0  0  0
    3.7070    1.4910   20.6340 C   0  0  0  0  0  0  0  0  0  0  0  0
    4.3820    1.5940   21.8510 C   0  0  0  0  0  0  0  0  0  0  0  0
    3.6920    2.0440   22.9670 C   0  0  0  0  0  0  0  0  0  0  0  0
    4.4640    1.0880   19.5620 O   0  0  0  0  0  0  0  0  0  0  0  0
    3.7130   -1.0290   18.8880 C   0  0  0  0  0  0  0  0  0  0  0  0
    3.4170   -1.9280   17.8630 C   0  0  0  0  0  0  0  0  0  0  0  0
    4.0410   -0.3090   16.2360 C   0  0  0  0  0  0  0  0  0  0  0  0
    4.3280    0.6230   17.2290 C   0  0  0  0  0  0  0  0  0  0  0  0
    4.1010   -1.0340   13.8920 N   0  0  0  0  0  0  0  0  0  0  0  0
    3.2530   -1.0040   12.7050 C   0  0  0  0  0  0  0  0  0  0  0  0
   -3.7100    3.5350   27.1680 C   0  0  0  0  0  0  0  0  0  0  0  0
   -3.2190    2.2650   26.5840 C   0  0  0  0  0  0  0  0  0  0  0  0
   -4.0500    0.9970   26.6980 C   0  0  0  0  0  0  0  0  0  0  0  0
   -5.2380    1.1420   26.2110 F   0  0  0  0  0  0  0  0  0  0  0  0
   -3.4800    0.0010   26.1220 F   0  0  0  0  0  0  0  0  0  0  0  0
   -4.2250    0.6490   27.9280 F   0  0  0  0  0  0  0  0  0  0  0  0
   -5.2760    3.5990   28.0420 Cl  0  0  0  0  0  0  0  0  0  0  0  0
   -0.0220    3.4870   25.2640 N   0  0  0  0  0  0  0  0  0  0  0  0
    1.7480    2.8090   24.0510 N   0  0  0  0  0  0  0  0  0  0  0  0
   -0.2620    1.9460   23.6160 O   0  0  0  0  0  0  0  0  0  0  0  0
    4.1550    0.2360   18.5580 C   0  0  0  0  0  0  0  0  0  0  0  0
    3.5810   -1.5370   16.5780 N   0  0  0  0  0  0  0  0  0  0  0  0
    4.1310    0.0000   14.7620 C   0  0  0  0  0  0  0  0  0  0  0  0
    4.1550    1.1730   14.3910 O   0  0  0  0  0  0  0  0  0  0  0  0
   -1.5896    1.3250   25.5157 H   0  0  0  0  0  0  0  0  0  0  0  0
   -1.0736    5.4955   26.4068 H   0  0  0  0  0  0  0  0  0  0  0  0
   -3.2555    5.6035   27.5553 H   0  0  0  0  0  0  0  0  0  0  0  0
    0.5917    2.5414   21.6000 H   0  0  0  0  0  0  0  0  0  0  0  0
    1.8081    1.7273   19.5649 H   0  0  0  0  0  0  0  0  0  0  0  0
    5.4454    1.3224   21.9242 H   0  0  0  0  0  0  0  0  0  0  0  0
    4.2231    2.1398   23.9255 H   0  0  0  0  0  0  0  0  0  0  0  0
    3.5960   -1.3235   19.9414 H   0  0  0  0  0  0  0  0  0  0  0  0
    3.0554   -2.9404   18.0962 H   0  0  0  0  0  0  0  0  0  0  0  0
    4.6803    1.6333   16.9738 H   0  0  0  0  0  0  0  0  0  0  0  0
    4.6891   -1.8605   14.0707 H   0  0  0  0  0  0  0  0  0  0  0  0
    2.1967   -0.9666   13.0098 H   0  0  0  0  0  0  0  0  0  0  0  0
    3.4932   -0.1138   12.1052 H   0  0  0  0  0  0  0  0  0  0  0  0
    3.4297   -1.9090   12.1052 H   0  0  0  0  0  0  0  0  0  0  0  0
    0.6153    4.2216   25.6033 H   0  0  0  0  0  0  0  0  0  0  0  0
    2.3424    3.2376   24.7748 H   0  0  0  0  0  0  0  0  0  0  0  0
  1  2  2  0
  2  3  1  0
  3  4  2  0
  6  7  2  0
  7  8  1  0
  8  9  2  0
  9 10  1  0
  6 11  1  0
 10 11  2  0
  9 12  1  0
 13 14  2  0
 15 16  1  0
 17 18  1  0
  4 19  1  0
  1 20  1  0
 19 20  2  0
 20 21  1  0
 21 22  1  0
 21 23  1  0
 21 24  1  0
 19 25  1  0
  2 26  1  0
  5 26  1  0
  5 27  1  0
  6 27  1  0
  5 28  2  0
 12 29  1  0
 13 29  1  0
 16 29  2  0
 14 30  1  0
 15 30  2  0
 15 31  1  0
 17 31  1  0
 31 32  2  0
  1 33  1  0
  3 34  1  0
  4 35  1  0
  7 36  1  0
  8 37  1  0
 10 38  1  0
 11 39  1  0
 13 40  1  0
 14 41  1  0
 16 42  1  0
 17 43  1  0
 18 44  1  0
 18 45  1  0
 18 46  1  0
 26 47  1  0
 27 48  1  0
M  END
>  <PDBID>  (1) 
3HEG

>  <PDB ID>  (1) 
3HEG

>  <Generic Name>  (1) 
Sorafenib

>  <Brand Name>  (1) 
Nexavar

>  <DrugBank ID>  (1) 
DB00398

>  <ATC Codes>  (1) 
L01XE05

>  <Ligand ID>  (1) 
BAX

>  <Target Name>  (1) 
Vascular endothelial growth factor receptor 2

>  <UniProt ID>  (1) 
P35968

>  <PDB ID.1>  (1) 
3HEG

>  <Seq. Identity>  (1) 
32%

$$$$
