PDB_DB00293_93
     RDKit          3D

 54 56  0  0  0  0  0  0  0  0999 V2000
   38.8860   42.7780   24.1390 N   0  0  0  0  0  0  0  0  0  0  0  0
   38.3950   43.9100   24.8430 C   0  0  0  0  0  0  0  0  0  0  0  0
   37.6880   45.0110   24.1930 C   0  0  0  0  0  0  0  0  0  0  0  0
   38.5310   44.0660   26.2080 N   0  0  0  0  0  0  0  0  0  0  0  0
   39.1770   43.1090   26.9120 C   0  0  0  0  0  0  0  0  0  0  0  0
   39.3010   43.2380   28.0800 O   0  0  0  0  0  0  0  0  0  0  0  0
   39.6990   41.9320   26.2460 C   0  0  0  0  0  0  0  0  0  0  0  0
   40.3430   41.0030   27.0330 C   0  0  0  0  0  0  0  0  0  0  0  0
   40.8470   39.9140   26.4440 C   0  0  0  0  0  0  0  0  0  0  0  0
   40.7130   39.7290   25.0870 C   0  0  0  0  0  0  0  0  0  0  0  0
   40.0820   40.6630   24.2960 C   0  0  0  0  0  0  0  0  0  0  0  0
   39.5660   41.7800   24.9100 C   0  0  0  0  0  0  0  0  0  0  0  0
   41.5450   38.9280   27.3260 C   0  0  0  0  0  0  0  0  0  0  0  0
   42.4930   38.2720   26.4990 N   0  0  0  0  0  0  0  0  0  0  0  0
   45.3390   39.8680   24.3020 C   0  0  0  0  0  0  0  0  0  0  0  0
   44.4730   38.4740   24.5760 S   0  0  0  0  0  0  0  0  0  0  0  0
   43.4800   39.0230   25.8040 C   0  0  0  0  0  0  0  0  0  0  0  0
   43.8270   40.3220   26.0000 C   0  0  0  0  0  0  0  0  0  0  0  0
   44.8420   40.7560   25.1930 C   0  0  0  0  0  0  0  0  0  0  0  0
   46.4920   40.0320   23.3540 C   0  0  0  0  0  0  0  0  0  0  0  0
   46.6520   39.3840   22.3790 O   0  0  0  0  0  0  0  0  0  0  0  0
   47.4870   40.9540   23.7620 N   0  0  0  0  0  0  0  0  0  0  0  0
   48.6870   41.1670   23.0210 C   0  0  1  0  0  0  0  0  0  0  0  0
   48.4410   42.2050   21.9900 C   0  0  0  0  0  0  0  0  0  0  0  0
   48.5830   41.6350   20.5850 C   0  0  0  0  0  0  0  0  0  0  0  0
   47.8980   42.5660   19.6290 C   0  0  0  0  0  0  0  0  0  0  0  0
   47.7350   43.7780   19.9230 O   0  0  0  0  0  0  0  0  0  0  0  0
   47.4780   42.1110   18.5370 O   0  0  0  0  0  0  0  0  0  0  0  0
   49.7240   41.6580   23.9540 C   0  0  0  0  0  0  0  0  0  0  0  0
   49.7250   41.4060   25.1750 O   0  0  0  0  0  0  0  0  0  0  0  0
   50.6470   42.3570   23.5230 O   0  0  0  0  0  0  0  0  0  0  0  0
   42.4920   36.8660   26.4130 C   0  0  0  0  0  0  0  0  0  0  0  0
   38.7591   42.6793   23.1216 H   0  0  0  0  0  0  0  0  0  0  0  0
   37.2613   45.6756   24.9587 H   0  0  0  0  0  0  0  0  0  0  0  0
   38.3910   45.5785   23.5655 H   0  0  0  0  0  0  0  0  0  0  0  0
   36.8795   44.6079   23.5655 H   0  0  0  0  0  0  0  0  0  0  0  0
   40.4401   41.1534   28.1183 H   0  0  0  0  0  0  0  0  0  0  0  0
   41.1181   38.8167   24.6248 H   0  0  0  0  0  0  0  0  0  0  0  0
   39.9936   40.5203   23.2089 H   0  0  0  0  0  0  0  0  0  0  0  0
   42.0521   39.4461   28.1533 H   0  0  0  0  0  0  0  0  0  0  0  0
   40.8377   38.2151   27.7749 H   0  0  0  0  0  0  0  0  0  0  0  0
   43.3348   40.9675   26.7423 H   0  0  0  0  0  0  0  0  0  0  0  0
   45.2362   41.7804   25.2651 H   0  0  0  0  0  0  0  0  0  0  0  0
   47.3381   41.4917   24.6278 H   0  0  0  0  0  0  0  0  0  0  0  0
   49.0109   40.2329   22.5388 H   0  0  0  0  0  0  0  0  0  0  0  0
   47.4219   42.5997   22.1151 H   0  0  0  0  0  0  0  0  0  0  0  0
   49.1865   43.0038   22.1172 H   0  0  0  0  0  0  0  0  0  0  0  0
   49.6481   41.5505   20.3235 H   0  0  0  0  0  0  0  0  0  0  0  0
   48.1274   40.6351   20.5332 H   0  0  0  0  0  0  0  0  0  0  0  0
   47.2818   44.3853   19.2859 H   0  0  0  0  0  0  0  0  0  0  0  0
   50.4456   41.7617   25.7532 H   0  0  0  0  0  0  0  0  0  0  0  0
   42.4917   36.4367   27.4258 H   0  0  0  0  0  0  0  0  0  0  0  0
   41.5936   36.5323   25.8730 H   0  0  0  0  0  0  0  0  0  0  0  0
   43.3899   36.5310   25.8730 H   0  0  0  0  0  0  0  0  0  0  0  0
  1  2  1  0
  2  3  1  0
  2  4  2  0
  4  5  1  0
  5  6  2  0
  5  7  1  0
  7  8  1  0
  8  9  2  0
  9 10  1  0
 10 11  2  0
  1 12  1  0
  7 12  2  0
 11 12  1  0
  9 13  1  0
 13 14  1  0
 15 16  1  0
 14 17  1  0
 16 17  1  0
 17 18  2  0
 15 19  2  0
 18 19  1  0
 15 20  1  0
 20 21  2  0
 20 22  1  0
 22 23  1  0
 23 24  1  0
 24 25  1  0
 25 26  1  0
 26 27  1  0
 26 28  2  0
 23 29  1  0
 29 30  1  0
 29 31  2  0
 14 32  1  0
  1 33  1  0
  3 34  1  0
  3 35  1  0
  3 36  1  0
  8 37  1  0
 10 38  1  0
 11 39  1  0
 13 40  1  0
 13 41  1  0
 18 42  1  0
 19 43  1  0
 22 44  1  0
 23 45  1  6
 24 46  1  0
 24 47  1  0
 25 48  1  0
 25 49  1  0
 27 50  1  0
 30 51  1  0
 32 52  1  0
 32 53  1  0
 32 54  1  0
M  END
$$$$
