PDB_DB09034_99
     RDKit          3D

 55 59  0  0  0  0  0  0  0  0999 V2000
   -8.0670   -1.5380  -55.0270 C   0  0  0  0  0  0  0  0  0  0  0  0
   -9.1820   -0.8810  -54.7610 N   0  0  0  0  0  0  0  0  0  0  0  0
   -7.4280   -2.0600  -53.9480 O   0  0  0  0  0  0  0  0  0  0  0  0
   -3.0280   -4.3530  -56.9700 Cl  0  0  0  0  0  0  0  0  0  0  0  0
   -7.5010   -1.7520  -56.1770 N   0  0  0  0  0  0  0  0  0  0  0  0
   -7.7730    3.0020  -55.0760 O   0  0  0  0  0  0  0  0  0  0  0  0
   -6.3620   -2.4940  -55.8530 C   0  0  0  0  0  0  0  0  0  0  0  0
   -9.0870    1.6180  -53.9070 N   0  0  0  0  0  0  0  0  0  0  0  0
   -5.3470   -3.0150  -56.6460 C   0  0  0  0  0  0  0  0  0  0  0  0
   -7.4890    2.7860  -51.2700 N   0  0  0  0  0  0  0  0  0  0  0  0
   -4.3280   -3.7050  -56.0090 C   0  0  0  0  0  0  0  0  0  0  0  0
   -7.9640    2.3380  -50.1040 N   0  0  0  0  0  0  0  0  0  0  0  0
   -4.3010   -3.8890  -54.6310 C   0  0  0  0  0  0  0  0  0  0  0  0
   -8.0020    3.9510  -51.6840 N   0  0  0  0  0  0  0  0  0  0  0  0
   -5.3200   -3.3660  -53.8500 C   0  0  0  0  0  0  0  0  0  0  0  0
   -6.3260   -2.6770  -54.4920 C   0  0  0  0  0  0  0  0  0  0  0  0
   -9.6570   -0.7180  -53.3820 C   0  0  0  0  0  0  0  0  0  0  0  0
   -9.3210    0.6270  -52.8530 C   0  0  0  0  0  0  0  0  0  0  0  0
  -10.2460    2.0030  -54.7390 C   0  0  1  0  0  0  0  0  0  0  0  0
  -10.9600    0.7950  -55.3290 C   0  0  0  0  0  0  0  0  0  0  0  0
   -9.9960   -0.2810  -55.8250 C   0  0  0  0  0  0  0  0  0  0  0  0
   -7.8930    2.1780  -54.1880 C   0  0  0  0  0  0  0  0  0  0  0  0
   -6.6950    1.7630  -53.3800 C   0  0  0  0  0  0  0  0  0  0  0  0
   -6.5080    2.0750  -52.0250 C   0  0  0  0  0  0  0  0  0  0  0  0
   -5.3440    1.6760  -51.3790 C   0  0  0  0  0  0  0  0  0  0  0  0
   -4.3780    0.9720  -52.0730 C   0  0  0  0  0  0  0  0  0  0  0  0
   -4.5380    0.6460  -53.4100 C   0  0  0  0  0  0  0  0  0  0  0  0
   -5.7010    1.0470  -54.0480 C   0  0  0  0  0  0  0  0  0  0  0  0
   -8.8430    3.2540  -49.7200 C   0  0  0  0  0  0  0  0  0  0  0  0
   -8.8670    4.2950  -50.7400 C   0  0  0  0  0  0  0  0  0  0  0  0
   -3.4750   -0.1270  -54.1530 C   0  0  0  0  0  0  0  0  0  0  0  0
  -11.2080    2.9020  -53.9830 C   0  0  0  0  0  0  0  0  0  0  0  0
   -5.3521   -2.8847  -57.7382 H   0  0  0  0  0  0  0  0  0  0  0  0
   -3.4759   -4.4463  -54.1633 H   0  0  0  0  0  0  0  0  0  0  0  0
   -5.3253   -3.4962  -52.7578 H   0  0  0  0  0  0  0  0  0  0  0  0
  -10.7490   -0.8491  -53.3610 H   0  0  0  0  0  0  0  0  0  0  0  0
   -9.1630   -1.4727  -52.7525 H   0  0  0  0  0  0  0  0  0  0  0  0
   -8.4104    0.5450  -52.2413 H   0  0  0  0  0  0  0  0  0  0  0  0
  -10.1835    0.9724  -52.2641 H   0  0  0  0  0  0  0  0  0  0  0  0
   -9.8464    2.5828  -55.5841 H   0  0  0  0  0  0  0  0  0  0  0  0
  -11.6069    0.3568  -54.5547 H   0  0  0  0  0  0  0  0  0  0  0  0
  -11.5392    1.1447  -56.1963 H   0  0  0  0  0  0  0  0  0  0  0  0
   -9.3203    0.1727  -56.5650 H   0  0  0  0  0  0  0  0  0  0  0  0
  -10.6084   -1.0876  -56.2543 H   0  0  0  0  0  0  0  0  0  0  0  0
   -5.1917    1.9200  -50.3173 H   0  0  0  0  0  0  0  0  0  0  0  0
   -3.4602    0.6632  -51.5513 H   0  0  0  0  0  0  0  0  0  0  0  0
   -5.8443    0.7942  -55.1089 H   0  0  0  0  0  0  0  0  0  0  0  0
   -9.4445    3.2321  -48.7993 H   0  0  0  0  0  0  0  0  0  0  0  0
   -9.4898    5.2016  -50.7286 H   0  0  0  0  0  0  0  0  0  0  0  0
   -2.8041   -0.6149  -53.4306 H   0  0  0  0  0  0  0  0  0  0  0  0
   -3.9515   -0.8910  -54.7849 H   0  0  0  0  0  0  0  0  0  0  0  0
   -2.8950    0.5617  -54.7849 H   0  0  0  0  0  0  0  0  0  0  0  0
  -11.0630    2.7665  -52.9010 H   0  0  0  0  0  0  0  0  0  0  0  0
  -11.0157    3.9516  -54.2501 H   0  0  0  0  0  0  0  0  0  0  0  0
  -12.2422    2.6392  -54.2501 H   0  0  0  0  0  0  0  0  0  0  0  0
  1  2  1  0
  1  3  1  0
  1  5  2  0
  5  7  1  0
  7  9  2  0
  4 11  1  0
  9 11  1  0
 10 12  1  0
 11 13  2  0
 10 14  1  0
 13 15  1  0
  3 16  1  0
  7 16  1  0
 15 16  2  0
  2 17  1  0
  8 18  1  0
 17 18  1  0
  8 19  1  0
 19 20  1  0
  2 21  1  0
 20 21  1  0
  6 22  2  0
  8 22  1  0
 22 23  1  0
 10 24  1  0
 23 24  1  0
 24 25  2  0
 25 26  1  0
 26 27  2  0
 23 28  2  0
 27 28  1  0
 12 29  2  0
 14 30  2  0
 29 30  1  0
 27 31  1  0
 19 32  1  0
  9 33  1  0
 13 34  1  0
 15 35  1  0
 17 36  1  0
 17 37  1  0
 18 38  1  0
 18 39  1  0
 19 40  1  6
 20 41  1  0
 20 42  1  0
 21 43  1  0
 21 44  1  0
 25 45  1  0
 26 46  1  0
 28 47  1  0
 29 48  1  0
 30 49  1  0
 31 50  1  0
 31 51  1  0
 31 52  1  0
 32 53  1  0
 32 54  1  0
 32 55  1  0
M  END
>  <PDBID>  (1) 
4ZJ8

>  <PDB ID>  (1) 
4ZJ8

>  <Generic Name>  (1) 
Suvorexant

>  <Brand Name>  (1) 
Belsomra

>  <DrugBank ID>  (1) 
DB09034

>  <ATC Codes>  (1) 
nan

>  <Ligand ID>  (1) 
SUV

>  <Target Name>  (1) 
Orexin receptor type 1

>  <UniProt ID>  (1) 
O43613

>  <PDB ID.1>  (1) 
4ZJ8

>  <Seq. Identity>  (1) 
85%

$$$$
