PDB_DB01764_97
     RDKit          3D

 98100  0  0  0  0  0  0  0  0999 V2000
   42.0750   18.6170   58.4820 O   0  0  0  0  0  0  0  0  0  0  0  0
   43.0550   18.8250   59.4500 C   0  0  0  0  0  0  0  0  0  0  0  0
   43.4370   17.7260   60.3510 N   0  0  0  0  0  0  0  0  0  0  0  0
   44.5180   18.3310   61.1320 C   0  0  0  0  0  0  0  0  0  0  0  0
   45.7970   17.9200   60.3940 C   0  0  0  0  0  0  0  0  0  0  0  0
   45.3730   16.8170   59.4430 C   0  0  1  0  0  0  0  0  0  0  0  0
   46.5860   15.5230   59.5040 S   0  0  0  0  0  0  0  0  0  0  0  0
   46.8690   15.0990   61.1920 O   0  0  0  0  0  0  0  0  0  0  0  0
   46.0190   14.1270   58.5920 O   0  0  0  0  0  0  0  0  0  0  0  0
   48.0860   16.1470   58.7620 C   0  0  0  0  0  0  0  0  0  0  0  0
   48.8400   17.0010   59.7740 C   0  0  0  0  0  0  0  0  0  0  0  0
   50.0550   16.2430   60.0000 N   0  0  0  0  0  0  0  0  0  0  0  0
   51.3460   16.8490   59.6950 C   0  0  0  0  0  0  0  0  0  0  0  0
   51.7760   17.7780   60.8120 C   0  0  0  0  0  0  0  0  0  0  0  0
   49.9420   14.8820   60.5080 C   0  0  0  0  0  0  0  0  0  0  0  0
   51.0370   14.5820   61.5060 C   0  0  0  0  0  0  0  0  0  0  0  0
   44.0810   16.4180   60.1130 C   0  0  2  0  0  0  0  0  0  0  0  0
   43.8820   20.0710   59.6720 C   0  0  0  0  0  0  0  0  0  0  0  0
   45.1740   20.3220   60.4650 C   0  0  0  0  0  0  0  0  0  0  0  0
   45.2090   21.7400   60.7280 O   0  0  0  0  0  0  0  0  0  0  0  0
   43.1440   21.2770   59.5810 N   0  0  0  0  0  0  0  0  0  0  0  0
   43.9980   22.2600   60.1740 C   0  0  0  0  0  0  0  0  0  0  0  0
   43.4640   23.6670   60.1740 C   0  0  0  0  0  0  0  0  0  0  0  0
   41.9960   23.2880   59.9770 C   0  0  0  0  0  0  0  0  0  0  0  0
   41.6280   22.6710   58.7400 O   0  0  0  0  0  0  0  0  0  0  0  0
   40.9210   23.4500   61.0470 C   0  0  0  0  0  0  0  0  0  0  0  0
   39.6900   22.6180   60.6720 C   0  0  2  0  0  0  0  0  0  0  0  0
   38.5260   23.1250   61.3300 O   0  0  0  0  0  0  0  0  0  0  0  0
   39.9100   21.1790   61.1150 C   0  0  0  0  0  0  0  0  0  0  0  0
   38.9920   20.1630   60.4450 C   0  0  0  0  0  0  0  0  0  0  0  0
   37.9340   20.5890   59.4340 C   0  0  0  0  0  0  0  0  0  0  0  0
   38.9120   18.8030   61.1240 C   0  0  0  0  0  0  0  0  0  0  0  0
   37.8320   17.8870   60.5690 C   0  0  0  0  0  0  0  0  0  0  0  0
   37.9400   16.5960   61.3620 C   0  0  0  0  0  0  0  0  0  0  0  0
   39.3260   16.1980   61.2770 N   0  0  0  0  0  0  0  0  0  0  0  0
   39.7260   14.8200   61.4100 C   0  0  0  0  0  0  0  0  0  0  0  0
   38.7170   13.8580   61.7120 O   0  0  0  0  0  0  0  0  0  0  0  0
   41.1370   14.5360   61.8740 C   0  0  0  0  0  0  0  0  0  0  0  0
   41.5210   13.1290   61.4540 C   0  0  0  0  0  0  0  0  0  0  0  0
   42.9410   12.8810   61.9360 C   0  0  1  0  0  0  0  0  0  0  0  0
   43.0280   11.4320   62.4160 C   0  0  0  0  0  0  0  0  0  0  0  0
   44.0710   13.3030   60.9650 C   0  0  1  0  0  0  0  0  0  0  0  0
   44.9620   12.1140   60.5770 C   0  0  0  0  0  0  0  0  0  0  0  0
   46.1610   11.9290   61.5050 C   0  0  0  0  0  0  0  0  0  0  0  0
   44.1750   10.8140   60.4180 C   0  0  0  0  0  0  0  0  0  0  0  0
   43.6550   13.8760   59.7080 O   0  0  0  0  0  0  0  0  0  0  0  0
   43.2380   15.2530   59.5750 C   0  0  0  0  0  0  0  0  0  0  0  0
   41.9830   15.5090   58.9310 O   0  0  0  0  0  0  0  0  0  0  0  0
   44.4163   19.4261   61.1545 H   0  0  0  0  0  0  0  0  0  0  0  0
   44.5140   17.9995   62.1809 H   0  0  0  0  0  0  0  0  0  0  0  0
   46.2105   18.7726   59.8354 H   0  0  0  0  0  0  0  0  0  0  0  0
   46.5813   17.5841   61.0883 H   0  0  0  0  0  0  0  0  0  0  0  0
   45.2700   17.0736   58.3783 H   0  0  0  0  0  0  0  0  0  0  0  0
   48.7193   15.3030   58.4512 H   0  0  0  0  0  0  0  0  0  0  0  0
   47.8320   16.7595   57.8843 H   0  0  0  0  0  0  0  0  0  0  0  0
   49.0655   17.9956   59.3618 H   0  0  0  0  0  0  0  0  0  0  0  0
   48.2682   17.1878   60.6949 H   0  0  0  0  0  0  0  0  0  0  0  0
   52.0984   16.0557   59.5748 H   0  0  0  0  0  0  0  0  0  0  0  0
   51.2543   17.4303   58.7657 H   0  0  0  0  0  0  0  0  0  0  0  0
   51.5589   17.3090   61.7830 H   0  0  0  0  0  0  0  0  0  0  0  0
   52.8557   17.9725   60.7320 H   0  0  0  0  0  0  0  0  0  0  0  0
   51.2256   18.7270   60.7320 H   0  0  0  0  0  0  0  0  0  0  0  0
   48.9651   14.7616   60.9992 H   0  0  0  0  0  0  0  0  0  0  0  0
   50.0380   14.1842   59.6631 H   0  0  0  0  0  0  0  0  0  0  0  0
   50.6422   14.6902   62.5270 H   0  0  0  0  0  0  0  0  0  0  0  0
   51.3955   13.5525   61.3586 H   0  0  0  0  0  0  0  0  0  0  0  0
   51.8701   15.2850   61.3586 H   0  0  0  0  0  0  0  0  0  0  0  0
   44.2687   15.8485   61.0352 H   0  0  0  0  0  0  0  0  0  0  0  0
   45.9200   19.5733   60.7699 H   0  0  0  0  0  0  0  0  0  0  0  0
   43.6431   24.1884   61.1259 H   0  0  0  0  0  0  0  0  0  0  0  0
   43.9010   24.3670   59.4467 H   0  0  0  0  0  0  0  0  0  0  0  0
   41.3139   23.1059   62.0151 H   0  0  0  0  0  0  0  0  0  0  0  0
   40.6361   24.5100   61.1198 H   0  0  0  0  0  0  0  0  0  0  0  0
   39.5436   22.6707   59.5831 H   0  0  0  0  0  0  0  0  0  0  0  0
   38.6511   23.0705   62.3105 H   0  0  0  0  0  0  0  0  0  0  0  0
   40.6696   20.8950   61.8582 H   0  0  0  0  0  0  0  0  0  0  0  0
   37.0413   20.9484   59.9669 H   0  0  0  0  0  0  0  0  0  0  0  0
   38.3340   21.3962   58.8027 H   0  0  0  0  0  0  0  0  0  0  0  0
   37.6631   19.7299   58.8027 H   0  0  0  0  0  0  0  0  0  0  0  0
   39.5793   18.5074   61.9470 H   0  0  0  0  0  0  0  0  0  0  0  0
   37.1204   18.1126   59.7611 H   0  0  0  0  0  0  0  0  0  0  0  0
   37.6534   16.7651   62.4105 H   0  0  0  0  0  0  0  0  0  0  0  0
   37.2701   15.8191   60.9649 H   0  0  0  0  0  0  0  0  0  0  0  0
   40.0461   16.9169   61.1174 H   0  0  0  0  0  0  0  0  0  0  0  0
   41.7809   15.2360   62.4266 H   0  0  0  0  0  0  0  0  0  0  0  0
   40.8877   12.4189   60.9020 H   0  0  0  0  0  0  0  0  0  0  0  0
   43.1377   13.5635   62.7760 H   0  0  0  0  0  0  0  0  0  0  0  0
   43.0294   11.4095   63.5158 H   0  0  0  0  0  0  0  0  0  0  0  0
   42.1621   10.8682   62.0388 H   0  0  0  0  0  0  0  0  0  0  0  0
   43.9552   10.9758   62.0388 H   0  0  0  0  0  0  0  0  0  0  0  0
   44.5902   14.0733   61.5542 H   0  0  0  0  0  0  0  0  0  0  0  0
   45.3679   12.3725   59.5879 H   0  0  0  0  0  0  0  0  0  0  0  0
   45.8261   11.9807   62.5515 H   0  0  0  0  0  0  0  0  0  0  0  0
   46.6232   10.9489   61.3159 H   0  0  0  0  0  0  0  0  0  0  0  0
   46.8972   12.7242   61.3159 H   0  0  0  0  0  0  0  0  0  0  0  0
   43.9303   10.4097   61.4113 H   0  0  0  0  0  0  0  0  0  0  0  0
   43.2458   11.0133   59.8641 H   0  0  0  0  0  0  0  0  0  0  0  0
   44.7824   10.0831   59.8641 H   0  0  0  0  0  0  0  0  0  0  0  0
  1  2  2  0
  2  3  1  0
  3  4  1  0
  4  5  1  0
  5  6  1  0
  6  7  1  0
  7  8  2  0
  7  9  2  0
  7 10  1  0
 10 11  1  0
 11 12  1  0
 12 13  1  0
 13 14  1  0
 12 15  1  0
 15 16  1  0
  3 17  1  0
  6 17  1  0
  2 18  1  0
 18 19  2  0
 19 20  1  0
 18 21  1  0
 20 22  1  0
 21 22  2  0
 22 23  1  0
 23 24  1  0
 24 25  2  0
 24 26  1  0
 26 27  1  0
 27 28  1  0
 27 29  1  0
 29 30  2  0
 30 31  1  0
 30 32  1  0
 32 33  2  0
 33 34  1  0
 34 35  1  0
 35 36  1  0
 36 37  2  0
 36 38  1  0
 38 39  2  0
 39 40  1  0
 40 41  1  0
 40 42  1  0
 42 43  1  0
 43 44  1  0
 43 45  1  0
 42 46  1  0
 17 47  1  0
 46 47  1  0
 47 48  2  0
  4 49  1  0
  4 50  1  0
  5 51  1  0
  5 52  1  0
  6 53  1  6
 10 54  1  0
 10 55  1  0
 11 56  1  0
 11 57  1  0
 13 58  1  0
 13 59  1  0
 14 60  1  0
 14 61  1  0
 14 62  1  0
 15 63  1  0
 15 64  1  0
 16 65  1  0
 16 66  1  0
 16 67  1  0
 17 68  1  1
 19 69  1  0
 23 70  1  0
 23 71  1  0
 26 72  1  0
 26 73  1  0
 27 74  1  6
 28 75  1  0
 29 76  1  0
 31 77  1  0
 31 78  1  0
 31 79  1  0
 32 80  1  0
 33 81  1  0
 34 82  1  0
 34 83  1  0
 35 84  1  0
 38 85  1  0
 39 86  1  0
 40 87  1  1
 41 88  1  0
 41 89  1  0
 41 90  1  0
 42 91  1  1
 43 92  1  0
 44 93  1  0
 44 94  1  0
 44 95  1  0
 45 96  1  0
 45 97  1  0
 45 98  1  0
M  END
$$$$
