PDB_DB08910_92
     RDKit          3D

 31 33  0  0  0  0  0  0  0  0999 V2000
   25.8360  -13.2430    5.9050 C   0  0  0  0  0  0  0  0  0  0  0  0
   26.2230  -14.5780    5.8840 C   0  0  0  0  0  0  0  0  0  0  0  0
   26.1750  -15.3410    4.7060 C   0  0  0  0  0  0  0  0  0  0  0  0
   25.7460  -14.7250    3.5540 C   0  0  0  0  0  0  0  0  0  0  0  0
   25.3870  -13.3720    3.5780 C   0  0  0  0  0  0  0  0  0  0  0  0
   25.4100  -12.6130    4.7440 C   0  0  0  0  0  0  0  0  0  0  0  0
   25.5470  -15.1260    2.2230 C   0  0  0  0  0  0  0  0  0  0  0  0
   25.1060  -14.1460    1.4220 N   0  0  0  0  0  0  0  0  0  0  0  0
   25.0440  -13.0860    2.2770 C   0  0  0  0  0  0  0  0  0  0  0  0
   25.0400  -11.2910    4.7190 N   0  0  0  0  0  0  0  0  0  0  0  0
   24.5610  -11.7820    1.8460 O   0  0  0  0  0  0  0  0  0  0  0  0
   24.8260  -14.0700   -0.0280 C   0  0  1  0  0  0  0  0  0  0  0  0
   25.8040  -16.4370    1.6770 O   0  0  0  0  0  0  0  0  0  0  0  0
   26.0640  -14.4440   -0.8600 C   0  0  0  0  0  0  0  0  0  0  0  0
   23.6300  -14.9010   -0.3980 C   0  0  0  0  0  0  0  0  0  0  0  0
   23.4900  -15.2170   -1.6650 N   0  0  0  0  0  0  0  0  0  0  0  0
   24.3590  -14.8840   -2.6530 C   0  0  0  0  0  0  0  0  0  0  0  0
   25.6750  -14.2120   -2.3290 C   0  0  0  0  0  0  0  0  0  0  0  0
   22.7030  -15.1140    0.4630 O   0  0  0  0  0  0  0  0  0  0  0  0
   23.9630  -15.1310   -3.7990 O   0  0  0  0  0  0  0  0  0  0  0  0
   25.8677  -12.6810    6.8501 H   0  0  0  0  0  0  0  0  0  0  0  0
   26.5757  -15.0486    6.8136 H   0  0  0  0  0  0  0  0  0  0  0  0
   26.4718  -16.4002    4.7049 H   0  0  0  0  0  0  0  0  0  0  0  0
   24.7294  -10.8597    3.8367 H   0  0  0  0  0  0  0  0  0  0  0  0
   25.0731  -10.7305    5.5825 H   0  0  0  0  0  0  0  0  0  0  0  0
   24.5812  -13.0244   -0.2664 H   0  0  0  0  0  0  0  0  0  0  0  0
   26.9162  -13.8051   -0.5851 H   0  0  0  0  0  0  0  0  0  0  0  0
   26.3671  -15.4867   -0.6839 H   0  0  0  0  0  0  0  0  0  0  0  0
   22.6556  -15.7599   -1.9296 H   0  0  0  0  0  0  0  0  0  0  0  0
   25.5813  -13.1311   -2.5101 H   0  0  0  0  0  0  0  0  0  0  0  0
   26.4568  -14.6435   -2.9713 H   0  0  0  0  0  0  0  0  0  0  0  0
  1  2  2  0
  2  3  1  0
  3  4  2  0
  4  5  1  0
  1  6  1  0
  5  6  2  0
  4  7  1  0
  7  8  1  0
  5  9  1  0
  8  9  1  0
  6 10  1  0
  9 11  2  0
  8 12  1  0
  7 13  2  0
 12 14  1  0
 12 15  1  0
 15 16  1  0
 16 17  1  0
 14 18  1  0
 17 18  1  0
 15 19  2  0
 17 20  2  0
  1 21  1  0
  2 22  1  0
  3 23  1  0
 10 24  1  0
 10 25  1  0
 12 26  1  6
 14 27  1  0
 14 28  1  0
 16 29  1  0
 18 30  1  0
 18 31  1  0
M  END
$$$$
