PDB_DB01041_99
     RDKit          3D

 29 31  0  0  0  0  0  0  0  0999 V2000
   35.9570   -1.8110  -46.9150 O   0  0  0  0  0  0  0  0  0  0  0  0
   35.4660   -2.8700  -47.3250 C   0  0  0  0  0  0  0  0  0  0  0  0
   34.4130   -3.4380  -46.7100 N   0  0  0  0  0  0  0  0  0  0  0  0
   33.7250   -4.4940  -47.2030 C   0  0  0  0  0  0  0  0  0  0  0  0
   32.6440   -4.8120  -46.7160 O   0  0  0  0  0  0  0  0  0  0  0  0
   34.3120   -5.2800  -48.3760 C   0  0  0  0  0  0  0  0  0  0  0  0
   35.8140   -5.0590  -48.4880 C   0  0  0  0  0  0  0  0  0  0  0  0
   36.0390   -3.5680  -48.5470 C   0  0  2  0  0  0  0  0  0  0  0  0
   37.4660   -3.1950  -48.6610 N   0  0  0  0  0  0  0  0  0  0  0  0
   42.0160   -1.9650  -48.4670 C   0  0  0  0  0  0  0  0  0  0  0  0
   41.0150   -2.5460  -47.6750 C   0  0  0  0  0  0  0  0  0  0  0  0
   39.7520   -2.6950  -48.2530 C   0  0  0  0  0  0  0  0  0  0  0  0
   39.4840   -2.3040  -49.5370 C   0  0  0  0  0  0  0  0  0  0  0  0
   38.2920   -3.7750  -46.4330 O   0  0  0  0  0  0  0  0  0  0  0  0
   37.2730   -2.3760  -50.9160 O   0  0  0  0  0  0  0  0  0  0  0  0
   40.4550   -1.7290  -50.3470 C   0  0  0  0  0  0  0  0  0  0  0  0
   41.7370   -1.5610  -49.7910 C   0  0  0  0  0  0  0  0  0  0  0  0
   38.0490   -2.6660  -49.7270 C   0  0  0  0  0  0  0  0  0  0  0  0
   38.4550   -3.2410  -47.7670 C   0  0  0  0  0  0  0  0  0  0  0  0
   34.1114   -3.0445  -45.8072 H   0  0  0  0  0  0  0  0  0  0  0  0
   34.1171   -6.3518  -48.2235 H   0  0  0  0  0  0  0  0  0  0  0  0
   33.8374   -4.9285  -49.3040 H   0  0  0  0  0  0  0  0  0  0  0  0
   36.3244   -5.4834  -47.6109 H   0  0  0  0  0  0  0  0  0  0  0  0
   36.2168   -5.5519  -49.3851 H   0  0  0  0  0  0  0  0  0  0  0  0
   35.5177   -3.2392  -49.4581 H   0  0  0  0  0  0  0  0  0  0  0  0
   43.0256   -1.8230  -48.0539 H   0  0  0  0  0  0  0  0  0  0  0  0
   41.2157   -2.8704  -46.6433 H   0  0  0  0  0  0  0  0  0  0  0  0
   40.2316   -1.4184  -51.3783 H   0  0  0  0  0  0  0  0  0  0  0  0
   42.5347   -1.1076  -50.3977 H   0  0  0  0  0  0  0  0  0  0  0  0
  1  2  2  0
  2  3  1  0
  3  4  1  0
  4  5  2  0
  4  6  1  0
  6  7  1  0
  2  8  1  0
  7  8  1  0
  8  9  1  0
 10 11  2  0
 11 12  1  0
 12 13  2  0
 13 16  1  0
 10 17  1  0
 16 17  2  0
  9 18  1  0
 13 18  1  0
 15 18  2  0
  9 19  1  0
 12 19  1  0
 14 19  2  0
  3 20  1  0
  6 21  1  0
  6 22  1  0
  7 23  1  0
  7 24  1  0
  8 25  1  6
 10 26  1  0
 11 27  1  0
 16 28  1  0
 17 29  1  0
M  END
$$$$
