PDB_DB00481_99
     RDKit          3D

 61 65  0  0  0  0  0  0  0  0999 V2000
   44.5780   -0.5720   16.5810 C   0  0  0  0  0  0  0  0  0  0  0  0
   44.6000    0.8200   16.6580 C   0  0  0  0  0  0  0  0  0  0  0  0
   43.4920    1.6080   16.3280 C   0  0  0  0  0  0  0  0  0  0  0  0
   43.6390    2.9510   16.4490 O   0  0  0  0  0  0  0  0  0  0  0  0
   42.2740    1.0600   15.8750 C   0  0  0  0  0  0  0  0  0  0  0  0
   42.1870   -0.3310   15.7770 C   0  0  0  0  0  0  0  0  0  0  0  0
   40.8350   -1.2030   15.2450 S   0  0  0  0  0  0  0  0  0  0  0  0
   41.6150   -2.7420   15.4440 C   0  0  0  0  0  0  0  0  0  0  0  0
   40.9560   -4.0190   15.0780 C   0  0  0  0  0  0  0  0  0  0  0  0
   40.3770   -4.1010   13.7960 C   0  0  0  0  0  0  0  0  0  0  0  0
   39.8080   -5.3010   13.3730 C   0  0  0  0  0  0  0  0  0  0  0  0
   39.8370   -6.3980   14.2340 C   0  0  0  0  0  0  0  0  0  0  0  0
   39.3030   -7.5710   13.8110 O   0  0  0  0  0  0  0  0  0  0  0  0
   40.4300   -6.3280   15.4890 C   0  0  0  0  0  0  0  0  0  0  0  0
   41.0140   -5.1360   15.9180 C   0  0  0  0  0  0  0  0  0  0  0  0
   43.3780   -1.1430   16.1280 C   0  0  0  0  0  0  0  0  0  0  0  0
   42.9930   -2.5390   15.9020 C   0  0  0  0  0  0  0  0  0  0  0  0
   43.9500   -3.6370   16.1760 C   0  0  0  0  0  0  0  0  0  0  0  0
   44.4080   -4.2840   15.2640 O   0  0  0  0  0  0  0  0  0  0  0  0
   44.2820   -3.9200   17.5960 C   0  0  0  0  0  0  0  0  0  0  0  0
   45.3870   -4.7040   17.9090 C   0  0  0  0  0  0  0  0  0  0  0  0
   45.6890   -4.9620   19.2460 C   0  0  0  0  0  0  0  0  0  0  0  0
   44.8970   -4.3980   20.2570 C   0  0  0  0  0  0  0  0  0  0  0  0
   43.7950   -3.6120   19.9210 C   0  0  0  0  0  0  0  0  0  0  0  0
   43.4860   -3.3580   18.5960 C   0  0  0  0  0  0  0  0  0  0  0  0
   45.1570   -4.6330   21.5920 O   0  0  0  0  0  0  0  0  0  0  0  0
   46.4230   -5.1250   21.9940 C   0  0  0  0  0  0  0  0  0  0  0  0
   46.3410   -5.4820   23.4650 C   0  0  0  0  0  0  0  0  0  0  0  0
   46.6310   -4.3010   24.2730 N   0  0  0  0  0  0  0  0  0  0  0  0
   46.9840   -4.8140   25.6160 C   0  0  0  0  0  0  0  0  0  0  0  0
   47.2830   -3.7070   26.6130 C   0  0  0  0  0  0  0  0  0  0  0  0
   46.0790   -2.7680   26.6700 C   0  0  0  0  0  0  0  0  0  0  0  0
   45.6560   -2.2640   25.2850 C   0  0  0  0  0  0  0  0  0  0  0  0
   45.4260   -3.4410   24.3200 C   0  0  0  0  0  0  0  0  0  0  0  0
   45.4479   -1.1855   16.8583 H   0  0  0  0  0  0  0  0  0  0  0  0
   45.5231    1.3173   16.9907 H   0  0  0  0  0  0  0  0  0  0  0  0
   42.8851    3.5534   16.2280 H   0  0  0  0  0  0  0  0  0  0  0  0
   41.4233    1.7044   15.6085 H   0  0  0  0  0  0  0  0  0  0  0  0
   40.3741   -3.2232   13.1330 H   0  0  0  0  0  0  0  0  0  0  0  0
   39.3447   -5.3814   12.3786 H   0  0  0  0  0  0  0  0  0  0  0  0
   39.3128   -8.3624   14.4058 H   0  0  0  0  0  0  0  0  0  0  0  0
   40.4388   -7.2120   16.1436 H   0  0  0  0  0  0  0  0  0  0  0  0
   41.5104   -5.0756   16.8977 H   0  0  0  0  0  0  0  0  0  0  0  0
   46.0180   -5.1175   17.1084 H   0  0  0  0  0  0  0  0  0  0  0  0
   46.5434   -5.6041   19.5061 H   0  0  0  0  0  0  0  0  0  0  0  0
   43.1648   -3.1895   20.7174 H   0  0  0  0  0  0  0  0  0  0  0  0
   42.6265   -2.7231   18.3348 H   0  0  0  0  0  0  0  0  0  0  0  0
   46.6798   -6.0189   21.4066 H   0  0  0  0  0  0  0  0  0  0  0  0
   47.1993   -4.3635   21.8282 H   0  0  0  0  0  0  0  0  0  0  0  0
   45.3291   -5.8451   23.6976 H   0  0  0  0  0  0  0  0  0  0  0  0
   47.0758   -6.2686   23.6913 H   0  0  0  0  0  0  0  0  0  0  0  0
   46.1416   -5.4105   25.9963 H   0  0  0  0  0  0  0  0  0  0  0  0
   47.8978   -5.4169   25.5089 H   0  0  0  0  0  0  0  0  0  0  0  0
   47.4620   -4.1417   27.6075 H   0  0  0  0  0  0  0  0  0  0  0  0
   48.1799   -3.1515   26.3017 H   0  0  0  0  0  0  0  0  0  0  0  0
   45.2333   -3.3071   27.1218 H   0  0  0  0  0  0  0  0  0  0  0  0
   46.3689   -1.8917   27.2684 H   0  0  0  0  0  0  0  0  0  0  0  0
   44.7233   -1.6886   25.3803 H   0  0  0  0  0  0  0  0  0  0  0  0
   46.4587   -1.6295   24.8811 H   0  0  0  0  0  0  0  0  0  0  0  0
   45.2175   -3.0508   23.3129 H   0  0  0  0  0  0  0  0  0  0  0  0
   44.5714   -4.0362   24.6740 H   0  0  0  0  0  0  0  0  0  0  0  0
  1  2  2  0
  2  3  1  0
  3  4  1  0
  3  5  2  0
  5  6  1  0
  6  7  1  0
  7  8  1  0
  8  9  1  0
  9 10  2  0
 10 11  1  0
 11 12  2  0
 12 13  1  0
 12 14  1  0
  9 15  1  0
 14 15  2  0
  1 16  1  0
  6 16  2  0
  8 17  2  0
 16 17  1  0
 17 18  1  0
 18 19  2  0
 18 20  1  0
 20 21  2  0
 21 22  1  0
 22 23  2  0
 23 24  1  0
 20 25  1  0
 24 25  2  0
 23 26  1  0
 26 27  1  0
 27 28  1  0
 28 29  1  0
 29 30  1  0
 30 31  1  0
 31 32  1  0
 32 33  1  0
 29 34  1  0
 33 34  1  0
  1 35  1  0
  2 36  1  0
  4 37  1  0
  5 38  1  0
 10 39  1  0
 11 40  1  0
 13 41  1  0
 14 42  1  0
 15 43  1  0
 21 44  1  0
 22 45  1  0
 24 46  1  0
 25 47  1  0
 27 48  1  0
 27 49  1  0
 28 50  1  0
 28 51  1  0
 30 52  1  0
 30 53  1  0
 31 54  1  0
 31 55  1  0
 32 56  1  0
 32 57  1  0
 33 58  1  0
 33 59  1  0
 34 60  1  0
 34 61  1  0
M  END
$$$$
