PDB_DB00159_98
     RDKit          3D

128126  0  0  0  0  0  0  0  0999 V2000
   26.3430   17.6870   65.1070 C   0  0  0  0  0  0  0  0  0  0  0  0
   27.2280   18.5550   65.2660 O   0  0  0  0  0  0  0  0  0  0  0  0
   25.8940   17.3910   63.9800 O   0  0  0  0  0  0  0  0  0  0  0  0
   25.7830   16.9890   66.3250 C   0  0  0  0  0  0  0  0  0  0  0  0
   24.4660   17.6650   66.6810 C   0  0  0  0  0  0  0  0  0  0  0  0
   24.1900   17.6110   68.1670 C   0  0  0  0  0  0  0  0  0  0  0  0
   23.7040   18.9660   68.6360 C   0  0  0  0  0  0  0  0  0  0  0  0
   22.4820   19.1250   69.1350 C   0  0  0  0  0  0  0  0  0  0  0  0
   21.5130   17.9670   69.2340 C   0  0  0  0  0  0  0  0  0  0  0  0
   21.5830   17.3330   70.6020 C   0  0  0  0  0  0  0  0  0  0  0  0
   21.5470   16.0120   70.7780 C   0  0  0  0  0  0  0  0  0  0  0  0
   21.4240   15.0360   69.6340 C   0  0  0  0  0  0  0  0  0  0  0  0
   20.6390   13.8480   70.1330 C   0  0  0  0  0  0  0  0  0  0  0  0
   19.7210   13.2180   69.3990 C   0  0  0  0  0  0  0  0  0  0  0  0
   19.3580   13.6060   67.9850 C   0  0  0  0  0  0  0  0  0  0  0  0
   18.3120   12.6240   67.5100 C   0  0  0  0  0  0  0  0  0  0  0  0
   18.3270   12.0220   66.3180 C   0  0  0  0  0  0  0  0  0  0  0  0
   19.3940   12.2470   65.2770 C   0  0  0  0  0  0  0  0  0  0  0  0
   18.8600   13.2300   64.2340 C   0  0  0  0  0  0  0  0  0  0  0  0
   19.6280   13.7680   63.2790 C   0  0  0  0  0  0  0  0  0  0  0  0
   21.1150   13.4380   63.1420 C   0  0  0  0  0  0  0  0  0  0  0  0
   21.3650   12.5710   61.9260 C   0  0  0  0  0  0  0  0  0  0  0  0
   11.4720   22.6130   25.7500 C   0  0  0  0  0  0  0  0  0  0  0  0
   10.2770   22.5120   26.0960 O   0  0  0  0  0  0  0  0  0  0  0  0
   12.3870   22.7550   26.5870 O   0  0  0  0  0  0  0  0  0  0  0  0
   11.8340   22.5550   24.2800 C   0  0  0  0  0  0  0  0  0  0  0  0
   12.0530   23.9430   23.6850 C   0  0  0  0  0  0  0  0  0  0  0  0
   13.3590   24.5730   24.1530 C   0  0  0  0  0  0  0  0  0  0  0  0
   14.2030   24.9530   22.9590 C   0  0  0  0  0  0  0  0  0  0  0  0
   15.5360   24.9170   22.9760 C   0  0  0  0  0  0  0  0  0  0  0  0
   16.3390   24.5040   24.1890 C   0  0  0  0  0  0  0  0  0  0  0  0
   17.7560   25.0170   24.0240 C   0  0  0  0  0  0  0  0  0  0  0  0
   18.4020   25.8030   24.9000 C   0  0  0  0  0  0  0  0  0  0  0  0
   17.8320   26.3070   26.2120 C   0  0  0  0  0  0  0  0  0  0  0  0
   16.7590   27.3340   25.9250 C   0  0  0  0  0  0  0  0  0  0  0  0
   16.5510   28.4110   26.6770 C   0  0  0  0  0  0  0  0  0  0  0  0
   17.3700   28.7180   27.9050 C   0  0  0  0  0  0  0  0  0  0  0  0
   16.3620   29.0740   28.9520 C   0  0  0  0  0  0  0  0  0  0  0  0
   16.6690   29.1940   30.2310 C   0  0  0  0  0  0  0  0  0  0  0  0
   18.0560   28.9940   30.7850 C   0  0  0  0  0  0  0  0  0  0  0  0
   17.8550   28.8250   32.2810 C   0  0  0  0  0  0  0  0  0  0  0  0
   18.8270   28.7110   33.1740 C   0  0  0  0  0  0  0  0  0  0  0  0
   20.3120   28.7320   32.8700 C   0  0  0  0  0  0  0  0  0  0  0  0
   21.0220   29.3480   34.0400 C   0  0  0  0  0  0  0  0  0  0  0  0
   25.5667   18.4590   65.2135 H   0  0  0  0  0  0  0  0  0  0  0  0
   27.3769   18.7010   66.2338 H   0  0  0  0  0  0  0  0  0  0  0  0
   25.0720   16.8491   64.0842 H   0  0  0  0  0  0  0  0  0  0  0  0
   25.6100   15.9260   66.1012 H   0  0  0  0  0  0  0  0  0  0  0  0
   26.4894   17.0547   67.1656 H   0  0  0  0  0  0  0  0  0  0  0  0
   24.5095   18.7178   66.3651 H   0  0  0  0  0  0  0  0  0  0  0  0
   23.6563   17.1297   66.1634 H   0  0  0  0  0  0  0  0  0  0  0  0
   23.4185   16.8536   68.3700 H   0  0  0  0  0  0  0  0  0  0  0  0
   25.1128   17.3449   68.7034 H   0  0  0  0  0  0  0  0  0  0  0  0
   24.4049   19.2952   69.4172 H   0  0  0  0  0  0  0  0  0  0  0  0
   23.6568   19.5408   67.6993 H   0  0  0  0  0  0  0  0  0  0  0  0
   22.6116   19.5098   70.1573 H   0  0  0  0  0  0  0  0  0  0  0  0
   22.0024   19.7721   68.3858 H   0  0  0  0  0  0  0  0  0  0  0  0
   20.4913   18.3342   69.0573 H   0  0  0  0  0  0  0  0  0  0  0  0
   21.7817   17.2134   68.4791 H   0  0  0  0  0  0  0  0  0  0  0  0
   22.5268   17.6763   71.0508 H   0  0  0  0  0  0  0  0  0  0  0  0
   20.6280   17.6480   71.0478 H   0  0  0  0  0  0  0  0  0  0  0  0
   22.4782   15.7500   71.3017 H   0  0  0  0  0  0  0  0  0  0  0  0
   20.5790   15.8826   71.2842 H   0  0  0  0  0  0  0  0  0  0  0  0
   20.8959   15.5084   68.7926 H   0  0  0  0  0  0  0  0  0  0  0  0
   22.4186   14.7232   69.2833 H   0  0  0  0  0  0  0  0  0  0  0  0
   21.3844   13.0857   70.4035 H   0  0  0  0  0  0  0  0  0  0  0  0
   20.0147   14.3112   70.9112 H   0  0  0  0  0  0  0  0  0  0  0  0
   20.0502   12.1698   69.3453 H   0  0  0  0  0  0  0  0  0  0  0  0
   18.8003   13.4935   69.9342 H   0  0  0  0  0  0  0  0  0  0  0  0
   18.9521   14.6282   67.9665 H   0  0  0  0  0  0  0  0  0  0  0  0
   20.2433   13.5816   67.3325 H   0  0  0  0  0  0  0  0  0  0  0  0
   18.3101   11.8117   68.2518 H   0  0  0  0  0  0  0  0  0  0  0  0
   17.4450   13.2906   67.3913 H   0  0  0  0  0  0  0  0  0  0  0  0
   18.3377   10.9424   66.5285 H   0  0  0  0  0  0  0  0  0  0  0  0
   17.4579   12.4914   65.8339 H   0  0  0  0  0  0  0  0  0  0  0  0
   20.2936   12.6643   65.7529 H   0  0  0  0  0  0  0  0  0  0  0  0
   19.6552   11.2934   64.7950 H   0  0  0  0  0  0  0  0  0  0  0  0
   18.0483   12.7044   63.7098 H   0  0  0  0  0  0  0  0  0  0  0  0
   18.6337   14.1089   64.8555 H   0  0  0  0  0  0  0  0  0  0  0  0
   19.1635   13.4919   62.3208 H   0  0  0  0  0  0  0  0  0  0  0  0
   19.6569   14.8257   63.5798 H   0  0  0  0  0  0  0  0  0  0  0  0
   21.6840   14.3739   63.0404 H   0  0  0  0  0  0  0  0  0  0  0  0
   21.4376   12.8883   64.0385 H   0  0  0  0  0  0  0  0  0  0  0  0
   21.6563   11.5608   62.2496 H   0  0  0  0  0  0  0  0  0  0  0  0
   20.4472   12.5123   61.3225 H   0  0  0  0  0  0  0  0  0  0  0  0
   22.1731   13.0100   61.3225 H   0  0  0  0  0  0  0  0  0  0  0  0
   11.3611   23.7055   25.6859 H   0  0  0  0  0  0  0  0  0  0  0  0
   10.2189   22.5071   27.0843 H   0  0  0  0  0  0  0  0  0  0  0  0
   12.0104   22.6966   27.5007 H   0  0  0  0  0  0  0  0  0  0  0  0
   12.7589   21.9707   24.1657 H   0  0  0  0  0  0  0  0  0  0  0  0
   10.9955   22.0863   23.7440 H   0  0  0  0  0  0  0  0  0  0  0  0
   12.0739   23.8586   22.5884 H   0  0  0  0  0  0  0  0  0  0  0  0
   11.2282   24.5879   24.0225 H   0  0  0  0  0  0  0  0  0  0  0  0
   13.1381   25.4734   24.7450 H   0  0  0  0  0  0  0  0  0  0  0  0
   13.9101   23.8483   24.7703 H   0  0  0  0  0  0  0  0  0  0  0  0
   13.8912   24.2861   22.1416 H   0  0  0  0  0  0  0  0  0  0  0  0
   14.0107   26.0336   22.8857 H   0  0  0  0  0  0  0  0  0  0  0  0
   15.8296   24.2276   22.1707 H   0  0  0  0  0  0  0  0  0  0  0  0
   15.7831   25.9866   22.9058 H   0  0  0  0  0  0  0  0  0  0  0  0
   15.8908   24.9364   25.0957 H   0  0  0  0  0  0  0  0  0  0  0  0
   16.3431   23.4081   24.2836 H   0  0  0  0  0  0  0  0  0  0  0  0
   18.3819   24.1183   23.9211 H   0  0  0  0  0  0  0  0  0  0  0  0
   17.6125   25.7250   23.1945 H   0  0  0  0  0  0  0  0  0  0  0  0
   19.3133   25.2499   25.1712 H   0  0  0  0  0  0  0  0  0  0  0  0
   18.4374   26.7427   24.3293 H   0  0  0  0  0  0  0  0  0  0  0  0
   17.3964   25.4660   26.7714 H   0  0  0  0  0  0  0  0  0  0  0  0
   18.6323   26.7656   26.8113 H   0  0  0  0  0  0  0  0  0  0  0  0
   16.9671   27.7105   24.9126 H   0  0  0  0  0  0  0  0  0  0  0  0
   15.8475   26.7527   26.1279 H   0  0  0  0  0  0  0  0  0  0  0  0
   16.6687   29.2765   26.0084 H   0  0  0  0  0  0  0  0  0  0  0  0
   15.5663   28.1905   27.1149 H   0  0  0  0  0  0  0  0  0  0  0  0
   17.9544   27.8381   28.2119 H   0  0  0  0  0  0  0  0  0  0  0  0
   18.0946   29.5272   27.7314 H   0  0  0  0  0  0  0  0  0  0  0  0
   15.9387   30.0430   28.6490 H   0  0  0  0  0  0  0  0  0  0  0  0
   15.7250   28.1772   28.9603 H   0  0  0  0  0  0  0  0  0  0  0  0
   16.3796   30.2171   30.5128 H   0  0  0  0  0  0  0  0  0  0  0  0
   16.1459   28.3242   30.6551 H   0  0  0  0  0  0  0  0  0  0  0  0
   18.5203   28.0955   30.3524 H   0  0  0  0  0  0  0  0  0  0  0  0
   18.7234   29.8357   30.5480 H   0  0  0  0  0  0  0  0  0  0  0  0
   17.2682   29.6998   32.5977 H   0  0  0  0  0  0  0  0  0  0  0  0
   17.4420   27.8059   32.3095 H   0  0  0  0  0  0  0  0  0  0  0  0
   18.6649   29.5336   33.8861 H   0  0  0  0  0  0  0  0  0  0  0  0
   18.7043   27.6551   33.4570 H   0  0  0  0  0  0  0  0  0  0  0  0
   20.6744   27.7053   32.7131 H   0  0  0  0  0  0  0  0  0  0  0  0
   20.5048   29.3164   31.9582 H   0  0  0  0  0  0  0  0  0  0  0  0
   20.5848   28.9687   34.9754 H   0  0  0  0  0  0  0  0  0  0  0  0
   22.0894   29.0850   34.0011 H   0  0  0  0  0  0  0  0  0  0  0  0
   20.9122   30.4418   34.0011 H   0  0  0  0  0  0  0  0  0  0  0  0
  1  2  1  0
  1  3  1  0
  1  4  1  0
  4  5  1  0
  5  6  1  0
  6  7  1  0
  7  8  1  0
  8  9  1  0
  9 10  1  0
 10 11  1  0
 11 12  1  0
 12 13  1  0
 13 14  1  0
 14 15  1  0
 15 16  1  0
 16 17  1  0
 17 18  1  0
 18 19  1  0
 19 20  1  0
 20 21  1  0
 21 22  1  0
 23 24  1  0
 23 25  1  0
 23 26  1  0
 26 27  1  0
 27 28  1  0
 28 29  1  0
 29 30  1  0
 30 31  1  0
 31 32  1  0
 32 33  1  0
 33 34  1  0
 34 35  1  0
 35 36  1  0
 36 37  1  0
 37 38  1  0
 38 39  1  0
 39 40  1  0
 40 41  1  0
 41 42  1  0
 42 43  1  0
 43 44  1  0
  1 45  1  0
  2 46  1  0
  3 47  1  0
  4 48  1  0
  4 49  1  0
  5 50  1  0
  5 51  1  0
  6 52  1  0
  6 53  1  0
  7 54  1  0
  7 55  1  0
  8 56  1  0
  8 57  1  0
  9 58  1  0
  9 59  1  0
 10 60  1  0
 10 61  1  0
 11 62  1  0
 11 63  1  0
 12 64  1  0
 12 65  1  0
 13 66  1  0
 13 67  1  0
 14 68  1  0
 14 69  1  0
 15 70  1  0
 15 71  1  0
 16 72  1  0
 16 73  1  0
 17 74  1  0
 17 75  1  0
 18 76  1  0
 18 77  1  0
 19 78  1  0
 19 79  1  0
 20 80  1  0
 20 81  1  0
 21 82  1  0
 21 83  1  0
 22 84  1  0
 22 85  1  0
 22 86  1  0
 23 87  1  0
 24 88  1  0
 25 89  1  0
 26 90  1  0
 26 91  1  0
 27 92  1  0
 27 93  1  0
 28 94  1  0
 28 95  1  0
 29 96  1  0
 29 97  1  0
 30 98  1  0
 30 99  1  0
 31100  1  0
 31101  1  0
 32102  1  0
 32103  1  0
 33104  1  0
 33105  1  0
 34106  1  0
 34107  1  0
 35108  1  0
 35109  1  0
 36110  1  0
 36111  1  0
 37112  1  0
 37113  1  0
 38114  1  0
 38115  1  0
 39116  1  0
 39117  1  0
 40118  1  0
 40119  1  0
 41120  1  0
 41121  1  0
 42122  1  0
 42123  1  0
 43124  1  0
 43125  1  0
 44126  1  0
 44127  1  0
 44128  1  0
M  END
>  <PDBID>  (1) 
3HS6

>  <PDB ID>  (1) 
3HS6

>  <Generic Name>  (1) 
Icosapent

>  <Brand Name>  (1) 
Animi-3#Animi-3 With Vitamin D#Citranatal Assure#Folcaps Care One#Folcaps Omega-3#Gesticare DHA#Herbalifeline#Natelle One#Prenate Essential#Se-tan DHA#Ultimatecare One Nf#Virt-PN Plus#Virt-bal DHA Plus#Vp-CH-pnv

>  <DrugBank ID>  (1) 
DB00159

>  <ATC Codes>  (1) 
nan

>  <Ligand ID>  (1) 
EPA

>  <Target Name>  (1) 
Prostaglandin G/H synthase 1

>  <UniProt ID>  (1) 
P23219

>  <PDB ID.1>  (1) 
3HS6

>  <Seq. Identity>  (1) 
62%

$$$$
