PDB_DB00642_98
     RDKit          3D

 52 54  0  0  0  0  0  0  0  0999 V2000
  -18.5820   -6.2760    6.1120 C   0  0  0  0  0  0  0  0  0  0  0  0
  -18.0400   -7.3200    6.9100 C   0  0  0  0  0  0  0  0  0  0  0  0
  -18.6330   -7.6690    8.1610 C   0  0  0  0  0  0  0  0  0  0  0  0
  -19.7850   -6.9830    8.6510 C   0  0  0  0  0  0  0  0  0  0  0  0
  -20.3110   -5.9290    7.8310 C   0  0  0  0  0  0  0  0  0  0  0  0
  -19.7250   -5.5800    6.5850 C   0  0  0  0  0  0  0  0  0  0  0  0
  -17.9340   -5.9200    4.7480 C   0  0  0  0  0  0  0  0  0  0  0  0
  -16.9560   -4.7070    4.7670 C   0  0  0  0  0  0  0  0  0  0  0  0
  -17.6630   -3.3500    4.8790 C   0  0  0  0  0  0  0  0  0  0  0  0
  -18.4660   -2.7520    3.9080 C   0  0  0  0  0  0  0  0  0  0  0  0
  -18.9530   -1.5160    4.3550 N   0  0  0  0  0  0  0  0  0  0  0  0
  -18.4520   -1.3330    5.6240 C   0  0  0  0  0  0  0  0  0  0  0  0
  -17.6570   -2.4640    5.9380 C   0  0  0  0  0  0  0  0  0  0  0  0
  -16.9630   -2.5150    7.3270 C   0  0  0  0  0  0  0  0  0  0  0  0
  -16.2520   -3.4290    7.7160 O   0  0  0  0  0  0  0  0  0  0  0  0
  -17.1830   -1.4520    8.1430 N   0  0  0  0  0  0  0  0  0  0  0  0
  -18.0110   -0.3290    7.7610 C   0  0  0  0  0  0  0  0  0  0  0  0
  -18.5880   -0.2810    6.6040 N   0  0  0  0  0  0  0  0  0  0  0  0
  -18.1850    0.6980    8.6460 N   0  0  0  0  0  0  0  0  0  0  0  0
  -20.4920   -7.3090    9.9800 C   0  0  0  0  0  0  0  0  0  0  0  0
  -21.4850   -6.6670   10.3220 O   0  0  0  0  0  0  0  0  0  0  0  0
  -20.0120   -8.3300   10.7630 N   0  0  0  0  0  0  0  0  0  0  0  0
  -20.5840   -8.8070   12.0790 C   0  0  1  0  0  0  0  0  0  0  0  0
  -21.6320   -9.9610   11.9640 C   0  0  0  0  0  0  0  0  0  0  0  0
  -22.4230  -10.0100   10.6220 C   0  0  0  0  0  0  0  0  0  0  0  0
  -23.4640  -11.1080   10.4010 C   0  0  0  0  0  0  0  0  0  0  0  0
  -23.7610  -11.4280    9.2290 O   0  0  0  0  0  0  0  0  0  0  0  0
  -23.9950  -11.6650   11.3910 O   0  0  0  0  0  0  0  0  0  0  0  0
  -19.4000   -9.1360   13.0440 C   0  0  0  0  0  0  0  0  0  0  0  0
  -19.5610   -9.1530   14.2860 O   0  0  0  0  0  0  0  0  0  0  0  0
  -18.2730   -9.3890   12.5380 O   0  0  0  0  0  0  0  0  0  0  0  0
  -17.1520   -7.8662    6.5591 H   0  0  0  0  0  0  0  0  0  0  0  0
  -18.1940   -8.4816    8.7584 H   0  0  0  0  0  0  0  0  0  0  0  0
  -21.1952   -5.3743    8.1782 H   0  0  0  0  0  0  0  0  0  0  0  0
  -20.1588   -4.7670    5.9842 H   0  0  0  0  0  0  0  0  0  0  0  0
  -17.3753   -6.8005    4.3980 H   0  0  0  0  0  0  0  0  0  0  0  0
  -18.7631   -5.6295    4.0860 H   0  0  0  0  0  0  0  0  0  0  0  0
  -16.2798   -4.8189    5.6273 H   0  0  0  0  0  0  0  0  0  0  0  0
  -16.4171   -4.7119    3.8080 H   0  0  0  0  0  0  0  0  0  0  0  0
  -18.6873   -3.1911    2.9240 H   0  0  0  0  0  0  0  0  0  0  0  0
  -19.5657   -0.8711    3.8357 H   0  0  0  0  0  0  0  0  0  0  0  0
  -19.1667    0.5392    6.3729 H   0  0  0  0  0  0  0  0  0  0  0  0
  -18.7714    1.5050    8.3896 H   0  0  0  0  0  0  0  0  0  0  0  0
  -17.7297    0.6649    9.5693 H   0  0  0  0  0  0  0  0  0  0  0  0
  -19.1754   -8.8220   10.4180 H   0  0  0  0  0  0  0  0  0  0  0  0
  -21.1857   -7.9884   12.5007 H   0  0  0  0  0  0  0  0  0  0  0  0
  -21.0996  -10.9166   12.0799 H   0  0  0  0  0  0  0  0  0  0  0  0
  -22.3780   -9.7744   12.7505 H   0  0  0  0  0  0  0  0  0  0  0  0
  -22.9472   -9.0479   10.5243 H   0  0  0  0  0  0  0  0  0  0  0  0
  -21.6485  -10.2341    9.8738 H   0  0  0  0  0  0  0  0  0  0  0  0
  -24.4326  -12.1365    9.0644 H   0  0  0  0  0  0  0  0  0  0  0  0
  -18.7984   -9.3637   14.8812 H   0  0  0  0  0  0  0  0  0  0  0  0
  1  2  2  0
  2  3  1  0
  3  4  2  0
  4  5  1  0
  1  6  1  0
  5  6  2  0
  1  7  1  0
  7  8  1  0
  8  9  1  0
  9 10  2  0
 10 11  1  0
 11 12  1  0
  9 13  1  0
 12 13  2  0
 13 14  1  0
 14 15  2  0
 14 16  1  0
 16 17  2  0
 12 18  1  0
 17 18  1  0
 17 19  1  0
  4 20  1  0
 20 21  2  0
 20 22  1  0
 22 23  1  0
 23 24  1  0
 24 25  1  0
 25 26  1  0
 26 27  1  0
 26 28  2  0
 23 29  1  0
 29 30  1  0
 29 31  2  0
  2 32  1  0
  3 33  1  0
  5 34  1  0
  6 35  1  0
  7 36  1  0
  7 37  1  0
  8 38  1  0
  8 39  1  0
 10 40  1  0
 11 41  1  0
 18 42  1  0
 19 43  1  0
 19 44  1  0
 22 45  1  0
 23 46  1  1
 24 47  1  0
 24 48  1  0
 25 49  1  0
 25 50  1  0
 27 51  1  0
 30 52  1  0
M  END
$$$$
