PDB_DB01254_94
     RDKit          3D

 59 62  0  0  0  0  0  0  0  0999 V2000
   52.1600   55.4370  -23.7430 C   0  0  0  0  0  0  0  0  0  0  0  0
   53.4630   55.8610  -24.0440 C   0  0  0  0  0  0  0  0  0  0  0  0
   54.5470   55.2950  -24.9280 C   0  0  0  0  0  0  0  0  0  0  0  0
   51.6430   63.9210  -16.7770 N   0  0  0  0  0  0  0  0  0  0  0  0
   56.9940   52.5830  -28.1580 C   0  0  0  0  0  0  0  0  0  0  0  0
   56.8220   52.1160  -26.8500 C   0  0  0  0  0  0  0  0  0  0  0  0
   55.8350   52.6490  -26.0450 C   0  0  0  0  0  0  0  0  0  0  0  0
   55.6560   52.1570  -24.6660 C   0  0  0  0  0  0  0  0  0  0  0  0
   52.6780   59.1430  -21.0830 C   0  0  0  0  0  0  0  0  0  0  0  0
   52.1610   59.9840  -20.1100 C   0  0  0  0  0  0  0  0  0  0  0  0
   52.9590   61.0020  -19.5710 C   0  0  0  0  0  0  0  0  0  0  0  0
   54.7360   60.2910  -20.9360 C   0  0  0  0  0  0  0  0  0  0  0  0
   56.1310   60.5010  -21.4080 C   0  0  0  0  0  0  0  0  0  0  0  0
   53.0560   63.2400  -18.7200 C   0  0  0  0  0  0  0  0  0  0  0  0
   51.0460   62.0200  -18.3880 C   0  0  0  0  0  0  0  0  0  0  0  0
   51.8160   64.3070  -15.3410 C   0  0  0  0  0  0  0  0  0  0  0  0
   50.6730   63.9420  -14.3880 C   0  0  0  0  0  0  0  0  0  0  0  0
   51.8680   58.1690  -21.5760 N   0  0  0  0  0  0  0  0  0  0  0  0
   52.3010   57.2430  -22.4630 C   0  0  0  0  0  0  0  0  0  0  0  0
   51.4810   56.2260  -22.8290 N   0  0  0  0  0  0  0  0  0  0  0  0
   53.8930   57.3000  -23.1730 S   0  0  0  0  0  0  0  0  0  0  0  0
   54.0950   54.4130  -25.7990 N   0  0  0  0  0  0  0  0  0  0  0  0
   54.9310   53.6870  -26.5790 C   0  0  0  0  0  0  0  0  0  0  0  0
   55.2050   54.1300  -27.9230 C   0  0  0  0  0  0  0  0  0  0  0  0
   56.2170   53.5920  -28.6930 C   0  0  0  0  0  0  0  0  0  0  0  0
   54.1490   55.4160  -28.5090 Cl  0  0  0  0  0  0  0  0  0  0  0  0
   55.7270   55.5940  -24.7980 O   0  0  0  0  0  0  0  0  0  0  0  0
   54.2580   61.1030  -19.9730 N   0  0  0  0  0  0  0  0  0  0  0  0
   53.9690   59.3120  -21.4830 N   0  0  0  0  0  0  0  0  0  0  0  0
   52.5010   61.8880  -18.5560 N   0  0  0  0  0  0  0  0  0  0  0  0
   53.0190   63.8240  -17.3230 C   0  0  0  0  0  0  0  0  0  0  0  0
   50.7880   62.7140  -17.0410 C   0  0  0  0  0  0  0  0  0  0  0  0
   51.1500   62.9410  -13.4740 O   0  0  0  0  0  0  0  0  0  0  0  0
   51.7102   54.5430  -24.1996 H   0  0  0  0  0  0  0  0  0  0  0  0
   57.7772   52.1296  -28.7834 H   0  0  0  0  0  0  0  0  0  0  0  0
   57.4758   51.3211  -26.4617 H   0  0  0  0  0  0  0  0  0  0  0  0
   55.9430   52.9458  -23.9551 H   0  0  0  0  0  0  0  0  0  0  0  0
   54.6017   51.8862  -24.5073 H   0  0  0  0  0  0  0  0  0  0  0  0
   56.2898   51.2721  -24.5073 H   0  0  0  0  0  0  0  0  0  0  0  0
   51.1260   59.8525  -19.7615 H   0  0  0  0  0  0  0  0  0  0  0  0
   56.8002   60.6017  -20.5408 H   0  0  0  0  0  0  0  0  0  0  0  0
   56.4458   59.6401  -22.0161 H   0  0  0  0  0  0  0  0  0  0  0  0
   56.1785   61.4164  -22.0161 H   0  0  0  0  0  0  0  0  0  0  0  0
   54.0881   63.1957  -19.0979 H   0  0  0  0  0  0  0  0  0  0  0  0
   52.4918   63.8438  -19.4460 H   0  0  0  0  0  0  0  0  0  0  0  0
   50.6285   62.6250  -19.2063 H   0  0  0  0  0  0  0  0  0  0  0  0
   50.5662   61.0303  -18.4077 H   0  0  0  0  0  0  0  0  0  0  0  0
   52.7281   63.8156  -14.9713 H   0  0  0  0  0  0  0  0  0  0  0  0
   51.8537   65.4064  -15.3396 H   0  0  0  0  0  0  0  0  0  0  0  0
   50.3551   64.8346  -13.8293 H   0  0  0  0  0  0  0  0  0  0  0  0
   49.8136   63.5573  -14.9567 H   0  0  0  0  0  0  0  0  0  0  0  0
   50.8874   58.1344  -21.2626 H   0  0  0  0  0  0  0  0  0  0  0  0
   53.0785   54.2727  -25.8882 H   0  0  0  0  0  0  0  0  0  0  0  0
   56.4010   53.9599  -29.7132 H   0  0  0  0  0  0  0  0  0  0  0  0
   53.4576   64.8324  -17.3518 H   0  0  0  0  0  0  0  0  0  0  0  0
   53.5890   63.1498  -16.6669 H   0  0  0  0  0  0  0  0  0  0  0  0
   50.9716   61.9833  -16.2395 H   0  0  0  0  0  0  0  0  0  0  0  0
   49.7488   63.0732  -17.0732 H   0  0  0  0  0  0  0  0  0  0  0  0
   51.0042   63.2471  -12.5439 H   0  0  0  0  0  0  0  0  0  0  0  0
  1  2  2  0
  2  3  1  0
  5  6  2  0
  6  7  1  0
  7  8  1  0
  9 10  2  0
 10 11  1  0
 12 13  1  0
  4 16  1  0
 16 17  1  0
  9 18  1  0
 18 19  1  0
  1 20  1  0
 19 20  2  0
  2 21  1  0
 19 21  1  0
  3 22  1  0
  7 23  2  0
 22 23  1  0
 23 24  1  0
  5 25  1  0
 24 25  2  0
 24 26  1  0
  3 27  2  0
 11 28  2  0
 12 28  1  0
  9 29  1  0
 12 29  2  0
 11 30  1  0
 14 30  1  0
 15 30  1  0
  4 31  1  0
 14 31  1  0
  4 32  1  0
 15 32  1  0
 17 33  1  0
  1 34  1  0
  5 35  1  0
  6 36  1  0
  8 37  1  0
  8 38  1  0
  8 39  1  0
 10 40  1  0
 13 41  1  0
 13 42  1  0
 13 43  1  0
 14 44  1  0
 14 45  1  0
 15 46  1  0
 15 47  1  0
 16 48  1  0
 16 49  1  0
 17 50  1  0
 17 51  1  0
 18 52  1  0
 22 53  1  0
 25 54  1  0
 31 55  1  0
 31 56  1  0
 32 57  1  0
 32 58  1  0
 33 59  1  0
M  END
$$$$
