PDB_DB11363_99
     RDKit          3D

 90 95  0  0  0  0  0  0  0  0999 V2000
  -22.4010   14.1550  -10.5160 C   0  0  0  0  0  0  0  0  0  0  0  0
  -20.1640   15.1350  -10.7330 C   0  0  0  0  0  0  0  0  0  0  0  0
  -21.5450   15.1350  -11.0290 C   0  0  0  0  0  0  0  0  0  0  0  0
  -22.4310   12.1100   -9.0180 C   0  0  0  0  0  0  0  0  0  0  0  0
  -21.4340   11.4490   -8.3300 C   0  0  0  0  0  0  0  0  0  0  0  0
  -24.6420    8.1130   -6.6440 C   0  0  0  0  0  0  0  0  0  0  0  0
  -25.3930    9.9110   -8.0880 C   0  0  0  0  0  0  0  0  0  0  0  0
  -24.0840   10.3960   -8.1500 C   0  0  0  0  0  0  0  0  0  0  0  0
  -21.6250   10.2130   -7.4880 C   0  0  2  0  0  0  0  0  0  0  0  0
  -21.2180   10.5350   -6.0410 C   0  0  0  0  0  0  0  0  0  0  0  0
  -20.6900    9.1620   -8.0760 C   0  0  0  0  0  0  0  0  0  0  0  0
  -28.1260    9.4070   -7.0980 C   0  0  0  0  0  0  0  0  0  0  0  0
  -25.1870    4.2990   -4.7470 C   0  0  1  0  0  0  0  0  0  0  0  0
  -25.9750    4.7210   -5.9880 C   0  0  0  0  0  0  0  0  0  0  0  0
  -18.6010   16.8220  -11.6880 N   0  0  0  0  0  0  0  0  0  0  0  0
  -19.3540   16.0480  -11.2240 C   0  0  0  0  0  0  0  0  0  0  0  0
  -19.6410   14.1530   -9.8910 C   0  0  0  0  0  0  0  0  0  0  0  0
  -20.4810   13.1820   -9.3580 C   0  0  0  0  0  0  0  0  0  0  0  0
  -21.8460   13.1890   -9.6630 C   0  0  0  0  0  0  0  0  0  0  0  0
  -20.2580   12.1110   -8.5280 N   0  0  0  0  0  0  0  0  0  0  0  0
  -23.0250    9.7500   -7.4660 C   0  0  0  0  0  0  0  0  0  0  0  0
  -23.8330   11.6270   -8.9630 C   0  0  0  0  0  0  0  0  0  0  0  0
  -24.7640   12.1950   -9.5580 O   0  0  0  0  0  0  0  0  0  0  0  0
  -23.3280    8.5880   -6.7070 C   0  0  0  0  0  0  0  0  0  0  0  0
  -25.6720    8.7690   -7.3210 C   0  0  0  0  0  0  0  0  0  0  0  0
  -27.1110    8.2840   -7.2630 C   0  0  0  0  0  0  0  0  0  0  0  0
  -24.9540    6.9370   -5.8820 N   0  0  0  0  0  0  0  0  0  0  0  0
  -24.0260    6.5610   -4.8050 C   0  0  0  0  0  0  0  0  0  0  0  0
  -24.7950    5.5450   -3.9400 C   0  0  0  0  0  0  0  0  0  0  0  0
  -25.1670    5.7650   -6.7690 C   0  0  0  0  0  0  0  0  0  0  0  0
  -25.9240    3.3790   -3.8210 N   0  0  0  0  0  0  0  0  0  0  0  0
  -27.0110    2.5900   -4.4370 C   0  0  0  0  0  0  0  0  0  0  0  0
  -27.6660    1.7130   -3.3690 C   0  0  0  0  0  0  0  0  0  0  0  0
  -26.6850    0.8430   -2.7970 O   0  0  0  0  0  0  0  0  0  0  0  0
  -25.6310    1.5590   -2.1540 C   0  0  0  0  0  0  0  0  0  0  0  0
  -24.9470    2.4710   -3.1770 C   0  0  0  0  0  0  0  0  0  0  0  0
  -23.1944   14.6716   -9.9559 H   0  0  0  0  0  0  0  0  0  0  0  0
  -22.7373   13.5890  -11.3973 H   0  0  0  0  0  0  0  0  0  0  0  0
  -19.9762   14.4971  -11.6093 H   0  0  0  0  0  0  0  0  0  0  0  0
  -21.6279   15.0774  -12.1244 H   0  0  0  0  0  0  0  0  0  0  0  0
  -21.8962   16.0457  -10.5218 H   0  0  0  0  0  0  0  0  0  0  0  0
  -22.6214   12.7401   -8.1367 H   0  0  0  0  0  0  0  0  0  0  0  0
  -21.6246   12.0789   -7.4486 H   0  0  0  0  0  0  0  0  0  0  0  0
  -24.8257    8.7387   -5.7582 H   0  0  0  0  0  0  0  0  0  0  0  0
  -26.0169   10.7244   -7.6891 H   0  0  0  0  0  0  0  0  0  0  0  0
  -25.5967    9.5856   -9.1188 H   0  0  0  0  0  0  0  0  0  0  0  0
  -24.2739   11.0215   -7.2653 H   0  0  0  0  0  0  0  0  0  0  0  0
  -21.8865   10.0061   -5.3457 H   0  0  0  0  0  0  0  0  0  0  0  0
  -20.1809   10.2103   -5.8709 H   0  0  0  0  0  0  0  0  0  0  0  0
  -21.2954   11.6190   -5.8709 H   0  0  0  0  0  0  0  0  0  0  0  0
  -20.1993    8.6104   -7.2605 H   0  0  0  0  0  0  0  0  0  0  0  0
  -21.2691    8.4617   -8.6958 H   0  0  0  0  0  0  0  0  0  0  0  0
  -19.9270    9.6556   -8.6958 H   0  0  0  0  0  0  0  0  0  0  0  0
  -28.2951    9.5940   -6.0273 H   0  0  0  0  0  0  0  0  0  0  0  0
  -27.7418   10.3213   -7.5738 H   0  0  0  0  0  0  0  0  0  0  0  0
  -29.0744    9.1169   -7.5738 H   0  0  0  0  0  0  0  0  0  0  0  0
  -24.3153    3.7496   -5.1320 H   0  0  0  0  0  0  0  0  0  0  0  0
  -26.1548    3.8429   -6.6256 H   0  0  0  0  0  0  0  0  0  0  0  0
  -26.9396    5.1531   -5.6834 H   0  0  0  0  0  0  0  0  0  0  0  0
  -18.1137   17.3229  -10.9313 H   0  0  0  0  0  0  0  0  0  0  0  0
  -17.9119   16.3243  -12.2697 H   0  0  0  0  0  0  0  0  0  0  0  0
  -20.2046   16.5862  -11.6676 H   0  0  0  0  0  0  0  0  0  0  0  0
  -18.7134   15.9581  -10.3343 H   0  0  0  0  0  0  0  0  0  0  0  0
  -18.8645   13.6237  -10.4626 H   0  0  0  0  0  0  0  0  0  0  0  0
  -19.3148   14.7214   -9.0075 H   0  0  0  0  0  0  0  0  0  0  0  0
  -20.6724   13.8258   -8.4868 H   0  0  0  0  0  0  0  0  0  0  0  0
  -22.0676   13.8278   -8.7954 H   0  0  0  0  0  0  0  0  0  0  0  0
  -19.8934   12.4447   -7.6243 H   0  0  0  0  0  0  0  0  0  0  0  0
  -22.8329    9.1269   -8.3519 H   0  0  0  0  0  0  0  0  0  0  0  0
  -23.6531   11.0037   -9.8513 H   0  0  0  0  0  0  0  0  0  0  0  0
  -25.3929   12.5787   -8.8967 H   0  0  0  0  0  0  0  0  0  0  0  0
  -23.0160    8.7949   -5.6727 H   0  0  0  0  0  0  0  0  0  0  0  0
  -22.7980    7.7898   -7.2473 H   0  0  0  0  0  0  0  0  0  0  0  0
  -25.8470    9.4036   -6.4398 H   0  0  0  0  0  0  0  0  0  0  0  0
  -27.2121    7.5958   -6.4109 H   0  0  0  0  0  0  0  0  0  0  0  0
  -27.3254    7.7937   -8.2241 H   0  0  0  0  0  0  0  0  0  0  0  0
  -23.1177    6.1019   -5.2223 H   0  0  0  0  0  0  0  0  0  0  0  0
  -23.7021    7.4345   -4.2201 H   0  0  0  0  0  0  0  0  0  0  0  0
  -25.7079    6.0227   -3.5547 H   0  0  0  0  0  0  0  0  0  0  0  0
  -24.1393    5.2289   -3.1153 H   0  0  0  0  0  0  0  0  0  0  0  0
  -24.1968    5.3404   -7.0662 H   0  0  0  0  0  0  0  0  0  0  0  0
  -25.7088    6.0665   -7.6776 H   0  0  0  0  0  0  0  0  0  0  0  0
  -27.7619    3.2704   -4.8651 H   0  0  0  0  0  0  0  0  0  0  0  0
  -26.5988    1.9541   -5.2344 H   0  0  0  0  0  0  0  0  0  0  0  0
  -28.0929    2.3517   -2.5817 H   0  0  0  0  0  0  0  0  0  0  0  0
  -28.4649    1.1122   -3.8281 H   0  0  0  0  0  0  0  0  0  0  0  0
  -26.0446    2.1678   -1.3365 H   0  0  0  0  0  0  0  0  0  0  0  0
  -24.8984    0.8492   -1.7425 H   0  0  0  0  0  0  0  0  0  0  0  0
  -24.4706    1.8498   -3.9498 H   0  0  0  0  0  0  0  0  0  0  0  0
  -24.1963    3.0811   -2.6534 H   0  0  0  0  0  0  0  0  0  0  0  0
  1  3  1  0
  2  3  1  0
  4  5  1  0
  7  8  1  0
  5  9  1  0
  9 10  1  1
  9 11  1  0
 13 14  1  0
  2 16  1  0
 15 16  1  0
  2 17  1  0
 17 18  1  0
  1 19  1  0
  4 19  1  0
 18 19  1  0
  5 20  1  0
 18 20  1  0
  8 21  1  0
  9 21  1  0
  4 22  1  0
  8 22  1  0
 22 23  1  0
  6 24  1  0
 21 24  1  0
  6 25  1  0
  7 25  1  0
 12 26  1  0
 25 26  1  0
  6 27  1  0
 27 28  1  0
 13 29  1  0
 28 29  1  0
 14 30  1  0
 27 30  1  0
 13 31  1  0
 31 32  1  0
 32 33  1  0
 33 34  1  0
 34 35  1  0
 31 36  1  0
 35 36  1  0
  1 37  1  0
  1 38  1  0
  2 39  1  0
  3 40  1  0
  3 41  1  0
  4 42  1  0
  5 43  1  0
  6 44  1  0
  7 45  1  0
  7 46  1  0
  8 47  1  0
 10 48  1  0
 10 49  1  0
 10 50  1  0
 11 51  1  0
 11 52  1  0
 11 53  1  0
 12 54  1  0
 12 55  1  0
 12 56  1  0
 13 57  1  6
 14 58  1  0
 14 59  1  0
 15 60  1  0
 15 61  1  0
 16 62  1  0
 16 63  1  0
 17 64  1  0
 17 65  1  0
 18 66  1  0
 19 67  1  0
 20 68  1  0
 21 69  1  0
 22 70  1  0
 23 71  1  0
 24 72  1  0
 24 73  1  0
 25 74  1  0
 26 75  1  0
 26 76  1  0
 28 77  1  0
 28 78  1  0
 29 79  1  0
 29 80  1  0
 30 81  1  0
 30 82  1  0
 32 83  1  0
 32 84  1  0
 33 85  1  0
 33 86  1  0
 35 87  1  0
 35 88  1  0
 36 89  1  0
 36 90  1  0
M  END
>  <PDBID>  (1) 
3AOX

>  <PDB ID>  (1) 
3AOX

>  <Generic Name>  (1) 
Alectinib

>  <Brand Name>  (1) 
Alecensa#Alecensaro

>  <DrugBank ID>  (1) 
DB11363

>  <ATC Codes>  (1) 
nan

>  <Ligand ID>  (1) 
EMH

>  <Target Name>  (1) 
ALK tyrosine kinase receptor

>  <UniProt ID>  (1) 
Q9UM73

>  <PDB ID.1>  (1) 
3AOX

>  <Seq. Identity>  (1) 
100%

$$$$
