PDB_DB00558_79
     RDKit          3D

 43 43  0  0  0  0  0  0  0  0999 V2000
   -6.1630    9.1220  103.3960 C   0  0  0  0  0  0  0  0  0  0  0  0
   -5.0470    9.6110  103.0800 O   0  0  0  0  0  0  0  0  0  0  0  0
   -6.2170    7.9430  103.8450 O   0  0  0  0  0  0  0  0  0  0  0  0
   -7.3080    9.8420  103.2650 C   0  0  0  0  0  0  0  0  0  0  0  0
   -8.3860    9.2340  104.1960 C   0  0  0  0  0  0  0  0  0  0  0  0
   -9.5040   10.0950  104.5930 C   0  0  1  0  0  0  0  0  0  0  0  0
   -9.5170   11.3780  104.0180 C   0  0  1  0  0  0  0  0  0  0  0  0
  -10.5250   12.2080  104.8790 N   0  0  0  0  0  0  0  0  0  0  0  0
  -11.7810   12.6510  104.3410 C   0  0  0  0  0  0  0  0  0  0  0  0
  -12.0890   12.3930  103.1870 O   0  0  0  0  0  0  0  0  0  0  0  0
  -12.7110   13.4370  105.2250 C   0  0  0  0  0  0  0  0  0  0  0  0
   -8.2340   12.0670  103.9890 C   0  0  1  0  0  0  0  0  0  0  0  0
   -7.0600   11.2610  103.6790 O   0  0  0  0  0  0  0  0  0  0  0  0
   -8.2430   13.3130  103.0990 C   0  0  2  0  0  0  0  0  0  0  0  0
   -8.5420   12.9820  101.8100 O   0  0  0  0  0  0  0  0  0  0  0  0
   -6.8830   13.9860  103.1410 C   0  0  2  0  0  0  0  0  0  0  0  0
   -6.4930   14.0830  104.4570 O   0  0  0  0  0  0  0  0  0  0  0  0
   -6.8590   15.3680  102.5210 C   0  0  0  0  0  0  0  0  0  0  0  0
   -7.4490   16.4080  103.2440 O   0  0  0  0  0  0  0  0  0  0  0  0
  -10.8470    9.3600  104.3080 N   0  0  0  0  0  0  0  0  0  0  0  0
  -11.9840    9.4090  105.2030 C   0  0  0  0  0  0  0  0  0  0  0  0
  -11.8740    9.9090  106.4260 N   0  0  0  0  0  0  0  0  0  0  0  0
  -13.1460    9.0410  104.7500 N   0  0  0  0  0  0  0  0  0  0  0  0
   -4.9932   10.5344  102.7270 H   0  0  0  0  0  0  0  0  0  0  0  0
   -8.3153    8.1938  104.5466 H   0  0  0  0  0  0  0  0  0  0  0  0
   -9.3681   10.2781  105.6691 H   0  0  0  0  0  0  0  0  0  0  0  0
   -9.7940   11.2752  102.9584 H   0  0  0  0  0  0  0  0  0  0  0  0
  -10.2830   12.4419  105.8525 H   0  0  0  0  0  0  0  0  0  0  0  0
  -12.4723   13.2352  106.2797 H   0  0  0  0  0  0  0  0  0  0  0  0
  -12.5905   14.5111  105.0208 H   0  0  0  0  0  0  0  0  0  0  0  0
  -13.7500   13.1392  105.0208 H   0  0  0  0  0  0  0  0  0  0  0  0
   -8.1233   12.3565  105.0444 H   0  0  0  0  0  0  0  0  0  0  0  0
   -9.0114   14.0031  103.4774 H   0  0  0  0  0  0  0  0  0  0  0  0
   -9.2056   12.2474  101.8034 H   0  0  0  0  0  0  0  0  0  0  0  0
   -6.1976   13.3663  102.5442 H   0  0  0  0  0  0  0  0  0  0  0  0
   -7.2658   13.8908  105.0452 H   0  0  0  0  0  0  0  0  0  0  0  0
   -5.8053   15.6373  102.3561 H   0  0  0  0  0  0  0  0  0  0  0  0
   -7.4687   15.2779  101.6099 H   0  0  0  0  0  0  0  0  0  0  0  0
   -7.3500   16.2335  104.2135 H   0  0  0  0  0  0  0  0  0  0  0  0
  -12.6949    9.9349  107.0476 H   0  0  0  0  0  0  0  0  0  0  0  0
  -10.9676   10.2716  106.7546 H   0  0  0  0  0  0  0  0  0  0  0  0
  -13.9707    9.0665  105.3665 H   0  0  0  0  0  0  0  0  0  0  0  0
  -13.2417    8.7240  103.7747 H   0  0  0  0  0  0  0  0  0  0  0  0
  1  2  1  0
  1  3  2  0
  1  4  1  0
  4  5  2  0
  5  6  1  0
  6  7  1  0
  7  8  1  0
  8  9  1  0
  9 10  2  0
  9 11  1  0
  7 12  1  0
  4 13  1  0
 12 13  1  0
 12 14  1  0
 14 15  1  0
 14 16  1  0
 16 17  1  0
 16 18  1  0
 18 19  1  0
  6 20  1  0
 20 21  2  3
 21 22  1  0
 21 23  1  0
  2 24  1  0
  5 25  1  0
  6 26  1  1
  7 27  1  6
  8 28  1  0
 11 29  1  0
 11 30  1  0
 11 31  1  0
 12 32  1  1
 14 33  1  1
 15 34  1  0
 16 35  1  6
 17 36  1  0
 18 37  1  0
 18 38  1  0
 19 39  1  0
 22 40  1  0
 22 41  1  0
 23 42  1  0
 23 43  1  0
M  END
$$$$
