PDB_DB01045_98
     RDKit          3D

117121  0  0  0  0  0  0  0  0999 V2000
 -113.1570   26.4420    8.4140 C   0  0  0  0  0  0  0  0  0  0  0  0
 -112.0110   26.1610    7.6560 C   0  0  0  0  0  0  0  0  0  0  0  0
 -110.7220   26.3310    8.1320 C   0  0  0  0  0  0  0  0  0  0  0  0
 -110.5060   26.8070    9.4110 C   0  0  0  0  0  0  0  0  0  0  0  0
 -111.5050   27.5780   11.5580 C   0  0  0  0  0  0  0  0  0  0  0  0
 -112.6880   27.8420   12.2940 C   0  0  0  0  0  0  0  0  0  0  0  0
 -113.9900   27.6890   11.8840 C   0  0  0  0  0  0  0  0  0  0  0  0
 -114.1500   27.2060   10.5610 C   0  0  0  0  0  0  0  0  0  0  0  0
 -112.9590   26.9190    9.7520 C   0  0  0  0  0  0  0  0  0  0  0  0
 -111.5950   27.0970   10.2340 C   0  0  0  0  0  0  0  0  0  0  0  0
 -110.4700   27.9030   12.4580 C   0  0  0  0  0  0  0  0  0  0  0  0
 -110.8310   28.5720   13.5880 C   0  0  2  0  0  0  0  0  0  0  0  0
 -110.0870   27.9080   14.7240 C   0  0  0  0  0  0  0  0  0  0  0  0
 -115.1840   27.9950   12.7500 C   0  0  0  0  0  0  0  0  0  0  0  0
 -113.1370   25.8740    5.3110 C   0  0  0  0  0  0  0  0  0  0  0  0
 -112.8440   25.2980    3.9340 C   0  0  0  0  0  0  0  0  0  0  0  0
 -112.0470   26.1860    3.1850 C   0  0  0  0  0  0  0  0  0  0  0  0
 -112.2850   27.7150    3.3180 C   0  0  0  0  0  0  0  0  0  0  0  0
 -111.5580   28.5950    2.4810 C   0  0  0  0  0  0  0  0  0  0  0  0
 -110.8010   29.8210    2.9660 C   0  0  1  0  0  0  0  0  0  0  0  0
 -110.9600   30.0580    4.4610 C   0  0  1  0  0  0  0  0  0  0  0  0
 -109.9870   31.0380    5.0560 C   0  0  2  0  0  0  0  0  0  0  0  0
 -110.6340   31.6020    6.2960 C   0  0  2  0  0  0  0  0  0  0  0  0
 -109.6980   31.7220    7.4680 C   0  0  2  0  0  0  0  0  0  0  0  0
 -110.3040   32.7430    8.4340 C   0  0  1  0  0  0  0  0  0  0  0  0
 -110.8190   32.0730    9.6950 C   0  0  1  0  0  0  0  0  0  0  0  0
 -110.3910   32.8070   10.9590 C   0  0  2  0  0  0  0  0  0  0  0  0
 -110.7820   32.0650   12.2190 C   0  0  0  0  0  0  0  0  0  0  0  0
 -110.7670   30.6630   12.2560 C   0  0  0  0  0  0  0  0  0  0  0  0
 -112.4090   23.8450    4.0370 C   0  0  0  0  0  0  0  0  0  0  0  0
 -109.3990   29.6180    2.4950 C   0  0  0  0  0  0  0  0  0  0  0  0
 -109.6030   32.1840    4.1530 C   0  0  0  0  0  0  0  0  0  0  0  0
 -108.2630   32.0730    7.0900 C   0  0  0  0  0  0  0  0  0  0  0  0
 -112.3170   31.9050    9.6320 C   0  0  0  0  0  0  0  0  0  0  0  0
 -109.2060   34.8330    7.7070 C   0  0  0  0  0  0  0  0  0  0  0  0
 -107.8490   35.3960    7.4190 C   0  0  0  0  0  0  0  0  0  0  0  0
 -111.9590   34.5560   11.7230 C   0  0  0  0  0  0  0  0  0  0  0  0
 -103.4190   25.5160    6.1440 C   0  0  0  0  0  0  0  0  0  0  0  0
 -105.6080   25.9440    7.3140 C   0  0  0  0  0  0  0  0  0  0  0  0
 -107.0230   26.3240    7.0090 C   0  0  0  0  0  0  0  0  0  0  0  0
 -107.0330   24.7850    5.0720 C   0  0  0  0  0  0  0  0  0  0  0  0
 -105.6130   24.4350    5.4970 C   0  0  0  0  0  0  0  0  0  0  0  0
 -109.6810   25.3780    7.5370 C   0  0  0  0  0  0  0  0  0  0  0  0
 -112.0260   25.6720    6.2710 N   0  0  0  0  0  0  0  0  0  0  0  0
 -108.9690   25.8550    6.5150 N   0  0  0  0  0  0  0  0  0  0  0  0
 -107.7070   25.3480    6.2190 N   0  0  0  0  0  0  0  0  0  0  0  0
 -104.9080   25.5260    6.1300 N   0  0  0  0  0  0  0  0  0  0  0  0
 -114.3990   26.2410    7.9090 O   0  0  0  0  0  0  0  0  0  0  0  0
 -115.4170   27.0030    9.9830 O   0  0  0  0  0  0  0  0  0  0  0  0
 -112.2320   28.3550   13.7070 O   0  0  0  0  0  0  0  0  0  0  0  0
 -109.3000   27.5970   12.2430 O   0  0  0  0  0  0  0  0  0  0  0  0
 -110.5390   29.9600   13.4570 O   0  0  0  0  0  0  0  0  0  0  0  0
 -110.8530   34.1200   10.9850 O   0  0  0  0  0  0  0  0  0  0  0  0
 -109.3790   33.7730    8.6350 O   0  0  0  0  0  0  0  0  0  0  0  0
 -110.0490   35.0390    6.8480 O   0  0  0  0  0  0  0  0  0  0  0  0
 -111.7030   30.7800    6.6320 O   0  0  0  0  0  0  0  0  0  0  0  0
 -112.2570   30.4910    4.7130 O   0  0  0  0  0  0  0  0  0  0  0  0
 -114.1760   26.4630    5.5830 O   0  0  0  0  0  0  0  0  0  0  0  0
 -109.2250   26.9650    9.8480 O   0  0  0  0  0  0  0  0  0  0  0  0
 -110.4880   28.2659   15.6837 H   0  0  0  0  0  0  0  0  0  0  0  0
 -110.2138   26.8174   14.6575 H   0  0  0  0  0  0  0  0  0  0  0  0
 -109.0177   28.1575   14.6575 H   0  0  0  0  0  0  0  0  0  0  0  0
 -114.8971   27.9215   13.8094 H   0  0  0  0  0  0  0  0  0  0  0  0
 -115.5404   29.0135   12.5365 H   0  0  0  0  0  0  0  0  0  0  0  0
 -115.9864   27.2735   12.5365 H   0  0  0  0  0  0  0  0  0  0  0  0
 -111.2652   25.8009    2.5138 H   0  0  0  0  0  0  0  0  0  0  0  0
 -113.0062   28.1073    4.0501 H   0  0  0  0  0  0  0  0  0  0  0  0
 -111.5394   28.3763    1.4031 H   0  0  0  0  0  0  0  0  0  0  0  0
 -111.2020   30.7578    2.5519 H   0  0  0  0  0  0  0  0  0  0  0  0
 -110.7436   29.0941    4.9449 H   0  0  0  0  0  0  0  0  0  0  0  0
 -109.0533   30.4903    5.2515 H   0  0  0  0  0  0  0  0  0  0  0  0
 -110.9602   32.6271    6.0663 H   0  0  0  0  0  0  0  0  0  0  0  0
 -109.6052   30.7354    7.9455 H   0  0  0  0  0  0  0  0  0  0  0  0
 -111.2029   33.2090    8.0041 H   0  0  0  0  0  0  0  0  0  0  0  0
 -110.3607   31.0744    9.7473 H   0  0  0  0  0  0  0  0  0  0  0  0
 -109.2919   32.8436   10.9323 H   0  0  0  0  0  0  0  0  0  0  0  0
 -111.0807   32.6306   13.1140 H   0  0  0  0  0  0  0  0  0  0  0  0
 -110.9370   30.0990   11.3270 H   0  0  0  0  0  0  0  0  0  0  0  0
 -112.3242   23.5619    5.0966 H   0  0  0  0  0  0  0  0  0  0  0  0
 -113.1544   23.2033    3.5445 H   0  0  0  0  0  0  0  0  0  0  0  0
 -111.4336   23.7185    3.5445 H   0  0  0  0  0  0  0  0  0  0  0  0
 -108.7308   29.5213    3.3634 H   0  0  0  0  0  0  0  0  0  0  0  0
 -109.3453   28.7027    1.8873 H   0  0  0  0  0  0  0  0  0  0  0  0
 -109.0879   30.4805    1.8873 H   0  0  0  0  0  0  0  0  0  0  0  0
 -109.3125   33.0511    4.7644 H   0  0  0  0  0  0  0  0  0  0  0  0
 -108.7567   31.8829    3.5181 H   0  0  0  0  0  0  0  0  0  0  0  0
 -110.4599   32.4536    3.5181 H   0  0  0  0  0  0  0  0  0  0  0  0
 -107.6682   32.2185    8.0038 H   0  0  0  0  0  0  0  0  0  0  0  0
 -107.8294   31.2544    6.4967 H   0  0  0  0  0  0  0  0  0  0  0  0
 -108.2562   32.9993    6.4967 H   0  0  0  0  0  0  0  0  0  0  0  0
 -112.7241   31.8593   10.6529 H   0  0  0  0  0  0  0  0  0  0  0  0
 -112.7596   32.7591    9.0986 H   0  0  0  0  0  0  0  0  0  0  0  0
 -112.5594   30.9740    9.0986 H   0  0  0  0  0  0  0  0  0  0  0  0
 -107.3324   35.6103    8.3662 H   0  0  0  0  0  0  0  0  0  0  0  0
 -107.2646   34.6661    6.8396 H   0  0  0  0  0  0  0  0  0  0  0  0
 -107.9530   36.3252    6.8396 H   0  0  0  0  0  0  0  0  0  0  0  0
 -111.7399   34.4696   12.7975 H   0  0  0  0  0  0  0  0  0  0  0  0
 -112.1739   35.6061   11.4758 H   0  0  0  0  0  0  0  0  0  0  0  0
 -112.8326   33.9350   11.4758 H   0  0  0  0  0  0  0  0  0  0  0  0
 -103.0621   25.5136    7.1845 H   0  0  0  0  0  0  0  0  0  0  0  0
 -103.0535   24.6154    5.6289 H   0  0  0  0  0  0  0  0  0  0  0  0
 -103.0414   26.4116    5.6289 H   0  0  0  0  0  0  0  0  0  0  0  0
 -105.0902   26.8123    7.7476 H   0  0  0  0  0  0  0  0  0  0  0  0
 -105.6216   25.1024    8.0222 H   0  0  0  0  0  0  0  0  0  0  0  0
 -107.5647   26.4484    7.9583 H   0  0  0  0  0  0  0  0  0  0  0  0
 -106.9944   27.2567    6.4265 H   0  0  0  0  0  0  0  0  0  0  0  0
 -107.0091   25.5194    4.2534 H   0  0  0  0  0  0  0  0  0  0  0  0
 -107.5613   23.8884    4.7157 H   0  0  0  0  0  0  0  0  0  0  0  0
 -105.6602   23.5950    6.2057 H   0  0  0  0  0  0  0  0  0  0  0  0
 -105.0576   24.1829    4.5816 H   0  0  0  0  0  0  0  0  0  0  0  0
 -109.5297   24.3614    7.9289 H   0  0  0  0  0  0  0  0  0  0  0  0
 -111.2019   25.1490    5.9420 H   0  0  0  0  0  0  0  0  0  0  0  0
 -115.1962   26.4453    8.4594 H   0  0  0  0  0  0  0  0  0  0  0  0
 -115.4895   26.6642    9.0556 H   0  0  0  0  0  0  0  0  0  0  0  0
 -111.7779   30.7224    7.6175 H   0  0  0  0  0  0  0  0  0  0  0  0
 -112.4044   30.5402    5.6907 H   0  0  0  0  0  0  0  0  0  0  0  0
 -109.0520   27.3049   10.7616 H   0  0  0  0  0  0  0  0  0  0  0  0
  1  2  1  0
  2  3  2  0
  3  4  1  0
  5  6  2  0
  6  7  1  0
  7  8  2  0
  1  9  2  0
  8  9  1  0
  4 10  2  0
  5 10  1  0
  9 10  1  0
  5 11  1  0
 11 12  1  0
 12 13  1  1
  7 14  1  0
 15 16  1  0
 16 17  2  0
 17 18  1  0
 18 19  2  0
 19 20  1  0
 20 21  1  0
 21 22  1  0
 22 23  1  0
 23 24  1  0
 24 25  1  0
 25 26  1  0
 26 27  1  0
 27 28  1  0
 28 29  2  0
 16 30  1  0
 20 31  1  0
 22 32  1  0
 24 33  1  0
 26 34  1  0
 35 36  1  0
 39 40  1  0
 41 42  1  0
  3 43  1  0
  2 44  1  0
 15 44  1  0
 43 45  2  0
 40 46  1  0
 41 46  1  0
 45 46  1  0
 38 47  1  0
 39 47  1  0
 42 47  1  0
  1 48  1  0
  8 49  1  0
  6 50  1  0
 12 50  1  0
 11 51  2  0
 12 52  1  0
 29 52  1  0
 27 53  1  0
 37 53  1  0
 25 54  1  0
 35 54  1  0
 35 55  2  0
 23 56  1  0
 21 57  1  0
 15 58  2  0
  4 59  1  0
 13 60  1  0
 13 61  1  0
 13 62  1  0
 14 63  1  0
 14 64  1  0
 14 65  1  0
 17 66  1  0
 18 67  1  0
 19 68  1  0
 20 69  1  6
 21 70  1  1
 22 71  1  1
 23 72  1  6
 24 73  1  1
 25 74  1  6
 26 75  1  1
 27 76  1  6
 28 77  1  0
 29 78  1  0
 30 79  1  0
 30 80  1  0
 30 81  1  0
 31 82  1  0
 31 83  1  0
 31 84  1  0
 32 85  1  0
 32 86  1  0
 32 87  1  0
 33 88  1  0
 33 89  1  0
 33 90  1  0
 34 91  1  0
 34 92  1  0
 34 93  1  0
 36 94  1  0
 36 95  1  0
 36 96  1  0
 37 97  1  0
 37 98  1  0
 37 99  1  0
 38100  1  0
 38101  1  0
 38102  1  0
 39103  1  0
 39104  1  0
 40105  1  0
 40106  1  0
 41107  1  0
 41108  1  0
 42109  1  0
 42110  1  0
 43111  1  0
 44112  1  0
 48113  1  0
 49114  1  0
 56115  1  0
 57116  1  0
 59117  1  0
M  END
$$$$
