PDB_DB05812_98
     RDKit          3D

268284  0  0  0  0  0  0  0  0999 V2000
  -29.9380    0.5230  -35.9990 C   0  0  0  0  0  0  0  0  0  0  0  0
  -30.0670    1.9880  -35.5380 C   0  0  0  0  0  0  0  0  0  0  0  0
  -31.3870    1.9900  -34.7920 C   0  0  2  0  0  0  0  0  0  0  0  0
  -31.6880    3.3250  -34.3410 O   0  0  0  0  0  0  0  0  0  0  0  0
  -31.3150    1.0040  -33.6010 C   0  0  0  0  0  0  0  0  0  0  0  0
  -31.0720   -0.2870  -34.1050 C   0  0  0  0  0  0  0  0  0  0  0  0
  -31.9190   -1.3760  -33.8780 C   0  0  0  0  0  0  0  0  0  0  0  0
  -31.5000   -2.5990  -34.4390 C   0  0  0  0  0  0  0  0  0  0  0  0
  -30.0370   -2.8690  -34.6250 C   0  0  2  0  0  0  0  0  0  0  0  0
  -29.8090   -1.9040  -35.6150 C   0  0  1  0  0  0  0  0  0  0  0  0
  -29.9130   -0.5090  -34.8550 C   0  0  1  0  0  0  0  0  0  0  0  0
  -28.5110   -2.0130  -36.3510 C   0  0  0  0  0  0  0  0  0  0  0  0
  -28.5130   -3.4170  -36.9800 C   0  0  0  0  0  0  0  0  0  0  0  0
  -28.6370   -4.5070  -35.7970 C   0  0  1  0  0  0  0  0  0  0  0  0
  -30.0110   -4.2960  -35.3290 C   0  0  1  0  0  0  0  0  0  0  0  0
  -30.2060   -5.4070  -34.4580 C   0  0  0  0  0  0  0  0  0  0  0  0
  -29.9700   -6.3940  -35.4500 C   0  0  0  0  0  0  0  0  0  0  0  0
  -28.9470   -5.8610  -36.2260 C   0  0  1  0  0  0  0  0  0  0  0  0
  -27.5390   -4.5460  -34.7370 C   0  0  0  0  0  0  0  0  0  0  0  0
  -28.7020   -0.2350  -34.0000 C   0  0  0  0  0  0  0  0  0  0  0  0
  -28.4130   -6.4850  -37.2910 C   0  0  2  0  0  0  0  0  0  0  0  0
  -28.8530   -7.7490  -37.7020 C   0  0  0  0  0  0  0  0  0  0  0  0
  -28.2180   -8.4090  -38.7520 N   0  0  0  0  0  0  0  0  0  0  0  0
  -27.0810   -7.9030  -39.3610 C   0  0  0  0  0  0  0  0  0  0  0  0
  -26.6010   -6.6860  -38.9180 C   0  0  0  0  0  0  0  0  0  0  0  0
  -27.2360   -6.0200  -37.8690 C   0  0  0  0  0  0  0  0  0  0  0  0
  -29.0180    0.4260  -36.5720 H   0  0  0  0  0  0  0  0  0  0  0  0
  -30.7800    0.2960  -36.6500 H   0  0  0  0  0  0  0  0  0  0  0  0
  -30.1040    2.6600  -36.3970 H   0  0  0  0  0  0  0  0  0  0  0  0
  -29.2440    2.2560  -34.8740 H   0  0  0  0  0  0  0  0  0  0  0  0
  -32.1770    1.6680  -35.4710 H   0  0  0  0  0  0  0  0  0  0  0  0
  -30.9620    3.6420  -33.7300 H   0  0  0  0  0  0  0  0  0  0  0  0
  -32.2610    1.0130  -33.0600 H   0  0  0  0  0  0  0  0  0  0  0  0
  -30.5060    1.2940  -32.9320 H   0  0  0  0  0  0  0  0  0  0  0  0
  -32.8350   -1.2880  -33.2940 H   0  0  0  0  0  0  0  0  0  0  0  0
  -31.9650   -2.6840  -35.4190 H   0  0  0  0  0  0  0  0  0  0  0  0
  -31.8930   -3.3970  -33.8140 H   0  0  0  0  0  0  0  0  0  0  0  0
  -29.4310   -2.7700  -33.7240 H   0  0  0  0  0  0  0  0  0  0  0  0
  -30.6190   -1.9610  -36.3420 H   0  0  0  0  0  0  0  0  0  0  0  0
  -28.4520   -1.2510  -37.1300 H   0  0  0  0  0  0  0  0  0  0  0  0
  -27.6730   -1.9110  -35.6600 H   0  0  0  0  0  0  0  0  0  0  0  0
  -29.3590   -3.5090  -37.6580 H   0  0  0  0  0  0  0  0  0  0  0  0
  -27.5840   -3.5700  -37.5270 H   0  0  0  0  0  0  0  0  0  0  0  0
  -30.7120   -4.3300  -36.1630 H   0  0  0  0  0  0  0  0  0  0  0  0
  -31.2280   -5.4400  -34.0680 H   0  0  0  0  0  0  0  0  0  0  0  0
  -29.4590   -5.4290  -33.6580 H   0  0  0  0  0  0  0  0  0  0  0  0
  -30.4070   -7.3910  -35.5160 H   0  0  0  0  0  0  0  0  0  0  0  0
  -26.6450   -5.0070  -35.1570 H   0  0  0  0  0  0  0  0  0  0  0  0
  -27.8800   -5.1280  -33.8810 H   0  0  0  0  0  0  0  0  0  0  0  0
  -27.3070   -3.5300  -34.4160 H   0  0  0  0  0  0  0  0  0  0  0  0
  -28.8190    0.7280  -33.5010 H   0  0  0  0  0  0  0  0  0  0  0  0
  -27.8110   -0.2140  -34.6280 H   0  0  0  0  0  0  0  0  0  0  0  0
  -28.6010   -1.0220  -33.2520 H   0  0  0  0  0  0  0  0  0  0  0  0
  -29.7470   -8.1830  -37.2520 H   0  0  0  0  0  0  0  0  0  0  0  0
  -26.5980   -8.4330  -40.1810 H   0  0  0  0  0  0  0  0  0  0  0  0
  -25.7140   -6.2510  -39.3790 H   0  0  0  0  0  0  0  0  0  0  0  0
  -26.8360   -5.0610  -37.5410 H   0  0  0  0  0  0  0  0  0  0  0  0
  -25.9430   30.5360  -57.7310 C   0  0  0  0  0  0  0  0  0  0  0  0
  -26.0880   29.0730  -58.1790 C   0  0  0  0  0  0  0  0  0  0  0  0
  -26.7940   29.1500  -59.5290 C   0  0  2  0  0  0  0  0  0  0  0  0
  -27.0250   27.7930  -59.9590 O   0  0  0  0  0  0  0  0  0  0  0  0
  -25.9250   29.9420  -60.4860 C   0  0  0  0  0  0  0  0  0  0  0  0
  -25.7550   31.2440  -59.9390 C   0  0  0  0  0  0  0  0  0  0  0  0
  -26.2400   32.4290  -60.5300 C   0  0  0  0  0  0  0  0  0  0  0  0
  -25.9890   33.6490  -59.7980 C   0  0  0  0  0  0  0  0  0  0  0  0
  -24.7300   33.7610  -58.8950 C   0  0  2  0  0  0  0  0  0  0  0  0
  -25.1410   32.8300  -57.9740 C   0  0  1  0  0  0  0  0  0  0  0  0
  -25.0790   31.3880  -58.6970 C   0  0  1  0  0  0  0  0  0  0  0  0
  -24.3370   32.8670  -56.6580 C   0  0  0  0  0  0  0  0  0  0  0  0
  -24.5540   34.3460  -56.0610 C   0  0  0  0  0  0  0  0  0  0  0  0
  -23.9770   35.3850  -57.0960 C   0  0  1  0  0  0  0  0  0  0  0  0
  -24.9340   35.2070  -58.2730 C   0  0  1  0  0  0  0  0  0  0  0  0
  -24.5220   36.2310  -59.1620 C   0  0  0  0  0  0  0  0  0  0  0  0
  -24.7800   37.3090  -58.2660 C   0  0  0  0  0  0  0  0  0  0  0  0
  -24.4730   36.8290  -56.9950 C   0  0  0  0  0  0  0  0  0  0  0  0
  -22.5020   35.3060  -57.4320 C   0  0  0  0  0  0  0  0  0  0  0  0
  -23.7030   30.8030  -58.7470 C   0  0  0  0  0  0  0  0  0  0  0  0
  -24.6360   37.6890  -55.9630 C   0  0  2  0  0  0  0  0  0  0  0  0
  -25.3700   38.8150  -56.2180 C   0  0  0  0  0  0  0  0  0  0  0  0
  -25.5390   39.7700  -55.2490 N   0  0  0  0  0  0  0  0  0  0  0  0
  -24.8600   39.7320  -54.0700 C   0  0  0  0  0  0  0  0  0  0  0  0
  -24.0220   38.7080  -53.8250 C   0  0  0  0  0  0  0  0  0  0  0  0
  -23.8780   37.7260  -54.7860 C   0  0  0  0  0  0  0  0  0  0  0  0
  -25.4850   30.5520  -56.7440 H   0  0  0  0  0  0  0  0  0  0  0  0
  -26.9360   30.9780  -57.6670 H   0  0  0  0  0  0  0  0  0  0  0  0
  -26.6930   28.5150  -57.4630 H   0  0  0  0  0  0  0  0  0  0  0  0
  -25.1060   28.6100  -58.2870 H   0  0  0  0  0  0  0  0  0  0  0  0
  -27.7510   29.6560  -59.4080 H   0  0  0  0  0  0  0  0  0  0  0  0
  -26.1500   27.3160  -60.0430 H   0  0  0  0  0  0  0  0  0  0  0  0
  -26.4130   30.0090  -61.4590 H   0  0  0  0  0  0  0  0  0  0  0  0
  -24.9550   29.4550  -60.5930 H   0  0  0  0  0  0  0  0  0  0  0  0
  -26.7820   32.4240  -61.4750 H   0  0  0  0  0  0  0  0  0  0  0  0
  -26.8510   33.8310  -59.1620 H   0  0  0  0  0  0  0  0  0  0  0  0
  -25.9310   34.4580  -60.5220 H   0  0  0  0  0  0  0  0  0  0  0  0
  -23.7790   33.5670  -59.3900 H   0  0  0  0  0  0  0  0  0  0  0  0
  -26.1840   33.0380  -57.7320 H   0  0  0  0  0  0  0  0  0  0  0  0
  -24.7200   32.1190  -55.9640 H   0  0  0  0  0  0  0  0  0  0  0  0
  -23.2820   32.6910  -56.8580 H   0  0  0  0  0  0  0  0  0  0  0  0
  -25.6180   34.5280  -55.9110 H   0  0  0  0  0  0  0  0  0  0  0  0
  -24.0270   34.4390  -55.1130 H   0  0  0  0  0  0  0  0  0  0  0  0
  -25.9670   35.3560  -57.9590 H   0  0  0  0  0  0  0  0  0  0  0  0
  -25.1550   36.2680  -60.0540 H   0  0  0  0  0  0  0  0  0  0  0  0
  -23.4610   36.1430  -59.4150 H   0  0  0  0  0  0  0  0  0  0  0  0
  -25.1570   38.3000  -58.5210 H   0  0  0  0  0  0  0  0  0  0  0  0
  -21.9250   35.8070  -56.6540 H   0  0  0  0  0  0  0  0  0  0  0  0
  -22.3200   35.7930  -58.3900 H   0  0  0  0  0  0  0  0  0  0  0  0
  -22.1990   34.2600  -57.4920 H   0  0  0  0  0  0  0  0  0  0  0  0
  -23.7370   29.8350  -59.2460 H   0  0  0  0  0  0  0  0  0  0  0  0
  -23.3260   30.6780  -57.7310 H   0  0  0  0  0  0  0  0  0  0  0  0
  -23.0440   31.4750  -59.2980 H   0  0  0  0  0  0  0  0  0  0  0  0
  -25.9580   38.8730  -57.1340 H   0  0  0  0  0  0  0  0  0  0  0  0
  -24.9870   40.5270  -53.3350 H   0  0  0  0  0  0  0  0  0  0  0  0
  -23.4790   38.6470  -52.8820 H   0  0  0  0  0  0  0  0  0  0  0  0
  -23.2200   36.8840  -54.5690 H   0  0  0  0  0  0  0  0  0  0  0  0
    5.9820    6.4360  -59.3710 C   0  0  0  0  0  0  0  0  0  0  0  0
    4.5270    6.0480  -58.9960 C   0  0  0  0  0  0  0  0  0  0  0  0
    4.6740    5.4430  -57.5960 C   0  0  2  0  0  0  0  0  0  0  0  0
    3.4150    4.9450  -57.1250 O   0  0  0  0  0  0  0  0  0  0  0  0
    5.2560    6.5030  -56.6380 C   0  0  0  0  0  0  0  0  0  0  0  0
    6.5130    6.8830  -57.1160 C   0  0  0  0  0  0  0  0  0  0  0  0
    7.6810    6.7580  -56.3590 C   0  0  0  0  0  0  0  0  0  0  0  0
    8.8550    7.2230  -56.9960 C   0  0  0  0  0  0  0  0  0  0  0  0
    8.7940    8.3220  -58.0220 C   0  0  2  0  0  0  0  0  0  0  0  0
    8.0800    7.6320  -59.0160 C   0  0  1  0  0  0  0  0  0  0  0  0
    6.6210    7.4460  -58.4210 C   0  0  1  0  0  0  0  0  0  0  0  0
    8.0390    8.2650  -60.3900 C   0  0  0  0  0  0  0  0  0  0  0  0
    9.5120    8.4220  -60.8130 C   0  0  0  0  0  0  0  0  0  0  0  0
   10.2550    9.3370  -59.7440 C   0  0  1  0  0  0  0  0  0  0  0  0
   10.3050    8.4680  -58.5140 C   0  0  1  0  0  0  0  0  0  0  0  0
   11.1680    9.1620  -57.6340 C   0  0  0  0  0  0  0  0  0  0  0  0
   12.2780    9.1150  -58.5300 C   0  0  0  0  0  0  0  0  0  0  0  0
   11.7150    9.2470  -59.7990 C   0  0  0  0  0  0  0  0  0  0  0  0
    9.7660   10.7690  -59.5640 C   0  0  0  0  0  0  0  0  0  0  0  0
    5.7870    8.7130  -58.5000 C   0  0  0  0  0  0  0  0  0  0  0  0
   12.4170    9.2560  -60.9450 C   0  0  2  0  0  0  0  0  0  0  0  0
   13.7610    8.8850  -61.0110 C   0  0  0  0  0  0  0  0  0  0  0  0
   14.4760    8.9720  -62.2120 N   0  0  0  0  0  0  0  0  0  0  0  0
   13.9680    9.6120  -63.3140 C   0  0  0  0  0  0  0  0  0  0  0  0
   12.6780   10.1280  -63.2160 C   0  0  0  0  0  0  0  0  0  0  0  0
   11.9370    9.9730  -62.0380 C   0  0  0  0  0  0  0  0  0  0  0  0
    5.9770    6.8580  -60.3750 H   0  0  0  0  0  0  0  0  0  0  0  0
    6.5890    5.5320  -59.3750 H   0  0  0  0  0  0  0  0  0  0  0  0
    4.1340    5.3100  -59.6970 H   0  0  0  0  0  0  0  0  0  0  0  0
    3.8890    6.9320  -58.9710 H   0  0  0  0  0  0  0  0  0  0  0  0
    5.3680    4.6040  -57.6500 H   0  0  0  0  0  0  0  0  0  0  0  0
    2.7540    5.6950  -57.0850 H   0  0  0  0  0  0  0  0  0  0  0  0
    5.3560    6.0800  -55.6390 H   0  0  0  0  0  0  0  0  0  0  0  0
    4.5970    7.3700  -56.6060 H   0  0  0  0  0  0  0  0  0  0  0  0
    7.6840    6.3500  -55.3480 H   0  0  0  0  0  0  0  0  0  0  0  0
    9.3170    6.3680  -57.4830 H   0  0  0  0  0  0  0  0  0  0  0  0
    9.5320    7.5630  -56.2160 H   0  0  0  0  0  0  0  0  0  0  0  0
    8.3250    9.2430  -57.6740 H   0  0  0  0  0  0  0  0  0  0  0  0
    8.5270    6.6430  -59.1210 H   0  0  0  0  0  0  0  0  0  0  0  0
    7.5120    7.6170  -61.0910 H   0  0  0  0  0  0  0  0  0  0  0  0
    7.5540    9.2410  -60.3430 H   0  0  0  0  0  0  0  0  0  0  0  0
    9.9860    7.4420  -60.8510 H   0  0  0  0  0  0  0  0  0  0  0  0
    9.5610    8.8910  -61.7950 H   0  0  0  0  0  0  0  0  0  0  0  0
   10.7200    7.4900  -58.7590 H   0  0  0  0  0  0  0  0  0  0  0  0
   11.3440    8.6010  -56.7100 H   0  0  0  0  0  0  0  0  0  0  0  0
   10.8200   10.1820  -57.4430 H   0  0  0  0  0  0  0  0  0  0  0  0
   13.3350    9.0340  -58.2760 H   0  0  0  0  0  0  0  0  0  0  0  0
   10.1090   11.3770  -60.4010 H   0  0  0  0  0  0  0  0  0  0  0  0
   10.1630   11.1740  -58.6340 H   0  0  0  0  0  0  0  0  0  0  0  0
    8.6770   10.7790  -59.5300 H   0  0  0  0  0  0  0  0  0  0  0  0
    4.8000    8.5260  -58.0780 H   0  0  0  0  0  0  0  0  0  0  0  0
    5.6860    9.0170  -59.5420 H   0  0  0  0  0  0  0  0  0  0  0  0
    6.2790    9.5070  -57.9360 H   0  0  0  0  0  0  0  0  0  0  0  0
   14.1980    8.3390  -60.1750 H   0  0  0  0  0  0  0  0  0  0  0  0
   14.5540    9.7190  -64.2270 H   0  0  0  0  0  0  0  0  0  0  0  0
   12.2250   10.6150  -64.0790 H   0  0  0  0  0  0  0  0  0  0  0  0
   10.9200   10.3660  -62.0020 H   0  0  0  0  0  0  0  0  0  0  0  0
   -1.0080   24.5680  -23.3660 C   0  0  0  0  0  0  0  0  0  0  0  0
   -2.2100   24.9580  -24.2610 C   0  0  0  0  0  0  0  0  0  0  0  0
   -1.5250   25.8720  -25.3020 C   0  0  2  0  0  0  0  0  0  0  0  0
   -2.4980   26.5130  -26.1760 O   0  0  0  0  0  0  0  0  0  0  0  0
   -0.4800   25.0140  -26.0910 C   0  0  0  0  0  0  0  0  0  0  0  0
    0.4910   24.5740  -25.1790 C   0  0  0  0  0  0  0  0  0  0  0  0
    1.8310   24.9090  -25.2680 C   0  0  0  0  0  0  0  0  0  0  0  0
    2.6600   24.3880  -24.2610 C   0  0  0  0  0  0  0  0  0  0  0  0
    2.3300   23.1020  -23.6020 C   0  0  2  0  0  0  0  0  0  0  0  0
    1.1660   23.5300  -22.9460 C   0  0  1  0  0  0  0  0  0  0  0  0
    0.1210   23.7640  -24.1040 C   0  0  1  0  0  0  0  0  0  0  0  0
    0.6260   22.6130  -21.8570 C   0  0  0  0  0  0  0  0  0  0  0  0
    1.7700   22.4280  -20.8350 C   0  0  0  0  0  0  0  0  0  0  0  0
    3.0410   21.8110  -21.6060 C   0  0  1  0  0  0  0  0  0  0  0  0
    3.4700   22.9300  -22.4970 C   0  0  1  0  0  0  0  0  0  0  0  0
    4.7220   22.4570  -22.9780 C   0  0  0  0  0  0  0  0  0  0  0  0
    5.3250   22.3550  -21.6900 C   0  0  0  0  0  0  0  0  0  0  0  0
    4.2900   21.9410  -20.8670 C   0  0  0  0  0  0  0  0  0  0  0  0
    2.9040   20.4320  -22.2670 C   0  0  0  0  0  0  0  0  0  0  0  0
   -0.4230   22.4460  -24.6000 C   0  0  0  0  0  0  0  0  0  0  0  0
    4.4110   21.7130  -19.5530 C   0  0  2  0  0  0  0  0  0  0  0  0
    5.5630   22.0290  -18.8230 C   0  0  0  0  0  0  0  0  0  0  0  0
    5.6700   21.6940  -17.4350 N   0  0  0  0  0  0  0  0  0  0  0  0
    4.7020   20.8730  -16.8340 C   0  0  0  0  0  0  0  0  0  0  0  0
    3.6110   20.4280  -17.5990 C   0  0  0  0  0  0  0  0  0  0  0  0
    3.5070   20.8220  -18.9500 C   0  0  0  0  0  0  0  0  0  0  0  0
   -1.3800   23.9630  -22.5420 H   0  0  0  0  0  0  0  0  0  0  0  0
   -0.5750   25.4800  -22.9620 H   0  0  0  0  0  0  0  0  0  0  0  0
   -2.9610   25.5060  -23.6880 H   0  0  0  0  0  0  0  0  0  0  0  0
   -2.6460   24.0770  -24.7350 H   0  0  0  0  0  0  0  0  0  0  0  0
   -0.9920   26.6600  -24.7700 H   0  0  0  0  0  0  0  0  0  0  0  0
   -3.0190   25.8130  -26.6640 H   0  0  0  0  0  0  0  0  0  0  0  0
   -0.0110   25.6230  -26.8640 H   0  0  0  0  0  0  0  0  0  0  0  0
   -0.9740   24.1560  -26.5460 H   0  0  0  0  0  0  0  0  0  0  0  0
    2.2180   25.5400  -26.0680 H   0  0  0  0  0  0  0  0  0  0  0  0
    2.7210   25.1360  -23.4740 H   0  0  0  0  0  0  0  0  0  0  0  0
    3.6540   24.2740  -24.6870 H   0  0  0  0  0  0  0  0  0  0  0  0
    2.1980   22.2600  -24.2810 H   0  0  0  0  0  0  0  0  0  0  0  0
    1.3790   24.4960  -22.4880 H   0  0  0  0  0  0  0  0  0  0  0  0
   -0.2370   23.0720  -21.3750 H   0  0  0  0  0  0  0  0  0  0  0  0
    0.3460   21.6500  -22.2840 H   0  0  0  0  0  0  0  0  0  0  0  0
    2.0320   23.3920  -20.4040 H   0  0  0  0  0  0  0  0  0  0  0  0
    1.4490   21.7480  -20.0480 H   0  0  0  0  0  0  0  0  0  0  0  0
    3.5980   23.8490  -21.9250 H   0  0  0  0  0  0  0  0  0  0  0  0
    5.2160   23.1980  -23.6150 H   0  0  0  0  0  0  0  0  0  0  0  0
    4.6240   21.4870  -23.4740 H   0  0  0  0  0  0  0  0  0  0  0  0
    6.3670   22.5320  -21.4210 H   0  0  0  0  0  0  0  0  0  0  0  0
    2.9280   19.6580  -21.5000 H   0  0  0  0  0  0  0  0  0  0  0  0
    3.7290   20.2790  -22.9630 H   0  0  0  0  0  0  0  0  0  0  0  0
    1.9580   20.3800  -22.8060 H   0  0  0  0  0  0  0  0  0  0  0  0
   -1.1430   22.6260  -25.3990 H   0  0  0  0  0  0  0  0  0  0  0  0
   -0.9140   21.9240  -23.7780 H   0  0  0  0  0  0  0  0  0  0  0  0
    0.3960   21.8340  -24.9790 H   0  0  0  0  0  0  0  0  0  0  0  0
    6.3040   22.6940  -19.2650 H   0  0  0  0  0  0  0  0  0  0  0  0
    4.8000   20.5780  -15.7900 H   0  0  0  0  0  0  0  0  0  0  0  0
    2.8380   19.8090  -17.1450 H   0  0  0  0  0  0  0  0  0  0  0  0
    2.6410   20.4910  -19.5240 H   0  0  0  0  0  0  0  0  0  0  0  0
  -30.5075   -0.5362  -33.1944 H   0  0  0  0  0  0  0  0  0  0  0  0
  -32.4688   -1.1408  -34.8013 H   0  0  0  0  0  0  0  0  0  0  0  0
  -30.7147   -5.9156  -36.1031 H   0  0  0  0  0  0  0  0  0  0  0  0
  -28.2039   -6.2556  -35.5174 H   0  0  0  0  0  0  0  0  0  0  0  0
  -29.1943   -5.8781  -37.7718 H   0  0  0  0  0  0  0  0  0  0  0  0
  -29.5432   -7.2765  -38.4164 H   0  0  0  0  0  0  0  0  0  0  0  0
  -27.9621   -9.3401  -38.3936 H   0  0  0  0  0  0  0  0  0  0  0  0
  -27.7081   -7.3859  -40.1022 H   0  0  0  0  0  0  0  0  0  0  0  0
  -27.2494   -6.1676  -39.6397 H   0  0  0  0  0  0  0  0  0  0  0  0
  -26.6495   -6.6031  -37.1438 H   0  0  0  0  0  0  0  0  0  0  0  0
  -24.8113   31.3537  -60.4934 H   0  0  0  0  0  0  0  0  0  0  0  0
  -27.1937   32.3049  -59.9961 H   0  0  0  0  0  0  0  0  0  0  0  0
  -25.8169   36.9617  -58.1467 H   0  0  0  0  0  0  0  0  0  0  0  0
  -23.4406   37.1915  -57.1075 H   0  0  0  0  0  0  0  0  0  0  0  0
  -25.1449   36.8194  -55.5217 H   0  0  0  0  0  0  0  0  0  0  0  0
  -24.4755   39.3342  -56.5926 H   0  0  0  0  0  0  0  0  0  0  0  0
  -25.3025   40.6710  -55.6885 H   0  0  0  0  0  0  0  0  0  0  0  0
  -25.6852   39.1661  -53.6130 H   0  0  0  0  0  0  0  0  0  0  0  0
  -24.8476   38.1413  -53.3697 H   0  0  0  0  0  0  0  0  0  0  0  0
  -23.1172   38.3358  -55.2952 H   0  0  0  0  0  0  0  0  0  0  0  0
    6.3602    7.8951  -56.7132 H   0  0  0  0  0  0  0  0  0  0  0  0
    7.8481    5.7565  -56.7822 H   0  0  0  0  0  0  0  0  0  0  0  0
   12.1763    8.0219  -58.5986 H   0  0  0  0  0  0  0  0  0  0  0  0
   11.7856   10.3416  -59.7165 H   0  0  0  0  0  0  0  0  0  0  0  0
   12.0138    8.2362  -61.0313 H   0  0  0  0  0  0  0  0  0  0  0  0
   14.0655    9.9104  -60.7544 H   0  0  0  0  0  0  0  0  0  0  0  0
   15.3626    9.4453  -61.9865 H   0  0  0  0  0  0  0  0  0  0  0  0
   13.5588    8.6585  -63.6792 H   0  0  0  0  0  0  0  0  0  0  0  0
   12.2700    9.1803  -63.5974 H   0  0  0  0  0  0  0  0  0  0  0  0
   12.3878   10.8913  -61.6336 H   0  0  0  0  0  0  0  0  0  0  0  0
    0.6720   23.6848  -25.8007 H   0  0  0  0  0  0  0  0  0  0  0  0
    1.6481   25.8036  -24.6546 H   0  0  0  0  0  0  0  0  0  0  0  0
    5.0672   23.4048  -21.4862 H   0  0  0  0  0  0  0  0  0  0  0  0
    4.5317   20.8915  -21.0909 H   0  0  0  0  0  0  0  0  0  0  0  0
    4.0277   22.7356  -19.4212 H   0  0  0  0  0  0  0  0  0  0  0  0
    6.0008   21.0572  -19.0948 H   0  0  0  0  0  0  0  0  0  0  0  0
    6.5775   21.2226  -17.3120 H   0  0  0  0  0  0  0  0  0  0  0  0
    4.1302   21.7646  -16.5371 H   0  0  0  0  0  0  0  0  0  0  0  0
    3.0364   21.3157  -17.2959 H   0  0  0  0  0  0  0  0  0  0  0  0
    4.1440   19.9754  -19.2459 H   0  0  0  0  0  0  0  0  0  0  0  0
  1  2  1  0
  2  3  1  0
  3  4  1  0
  3  5  1  0
  5  6  1  0
  6  7  1  0
  7  8  1  0
  8  9  1  0
  9 10  1  0
  1 11  1  0
  6 11  1  0
 10 11  1  0
 10 12  1  0
 12 13  1  0
 13 14  1  0
  9 15  1  0
 14 15  1  0
 15 16  1  0
 16 17  1  0
 14 18  1  0
 17 18  1  0
 14 19  1  1
 11 20  1  1
 18 21  1  0
 21 22  1  0
 22 23  1  0
 24 23  1  0
 24 25  1  0
 21 26  1  0
 25 26  1  0
  1 27  1  0
  1 28  1  0
  2 29  1  0
  2 30  1  0
  3 31  1  6
  4 32  1  0
  5 33  1  0
  5 34  1  0
  7 35  1  0
  8 36  1  0
  8 37  1  0
  9 38  1  1
 10 39  1  6
 12 40  1  0
 12 41  1  0
 13 42  1  0
 13 43  1  0
 15 44  1  6
 16 45  1  0
 16 46  1  0
 17 47  1  0
 19 48  1  0
 19 49  1  0
 19 50  1  0
 20 51  1  0
 20 52  1  0
 20 53  1  0
 22 54  1  0
 24 55  1  0
 25 56  1  0
 26 57  1  0
 58 59  1  0
 59 60  1  0
 60 61  1  0
 60 62  1  0
 62 63  1  0
 63 64  1  0
 64 65  1  0
 65 66  1  0
 66 67  1  0
 58 68  1  0
 63 68  1  0
 67 68  1  0
 67 69  1  0
 69 70  1  0
 70 71  1  0
 66 72  1  0
 71 72  1  0
 72 73  1  0
 73 74  1  0
 71 75  1  0
 74 75  1  0
 71 76  1  6
 68 77  1  6
 75 78  1  0
 78 79  1  0
 79 80  1  0
 81 80  1  0
 81 82  1  0
 78 83  1  0
 82 83  1  0
 58 84  1  0
 58 85  1  0
 59 86  1  0
 59 87  1  0
 60 88  1  1
 61 89  1  0
 62 90  1  0
 62 91  1  0
 64 92  1  0
 65 93  1  0
 65 94  1  0
 66 95  1  6
 67 96  1  1
 69 97  1  0
 69 98  1  0
 70 99  1  0
 70100  1  0
 72101  1  1
 73102  1  0
 73103  1  0
 74104  1  0
 76105  1  0
 76106  1  0
 76107  1  0
 77108  1  0
 77109  1  0
 77110  1  0
 79111  1  0
 81112  1  0
 82113  1  0
 83114  1  0
115116  1  0
116117  1  0
117118  1  0
117119  1  0
119120  1  0
120121  1  0
121122  1  0
122123  1  0
123124  1  0
115125  1  0
120125  1  0
124125  1  0
124126  1  0
126127  1  0
127128  1  0
123129  1  0
128129  1  0
129130  1  0
130131  1  0
128132  1  0
131132  1  0
128133  1  1
125134  1  1
132135  1  0
135136  1  0
136137  1  0
138137  1  0
138139  1  0
135140  1  0
139140  1  0
115141  1  0
115142  1  0
116143  1  0
116144  1  0
117145  1  6
118146  1  0
119147  1  0
119148  1  0
121149  1  0
122150  1  0
122151  1  0
123152  1  1
124153  1  6
126154  1  0
126155  1  0
127156  1  0
127157  1  0
129158  1  6
130159  1  0
130160  1  0
131161  1  0
133162  1  0
133163  1  0
133164  1  0
134165  1  0
134166  1  0
134167  1  0
136168  1  0
138169  1  0
139170  1  0
140171  1  0
172173  1  0
173174  1  0
174175  1  0
174176  1  0
176177  1  0
177178  1  0
178179  1  0
179180  1  0
180181  1  0
172182  1  0
177182  1  0
181182  1  0
181183  1  0
183184  1  0
184185  1  0
180186  1  0
185186  1  0
186187  1  0
187188  1  0
185189  1  0
188189  1  0
185190  1  6
182191  1  6
189192  1  0
192193  1  0
193194  1  0
195194  1  0
195196  1  0
192197  1  0
196197  1  0
172198  1  0
172199  1  0
173200  1  0
173201  1  0
174202  1  1
175203  1  0
176204  1  0
176205  1  0
178206  1  0
179207  1  0
179208  1  0
180209  1  6
181210  1  1
183211  1  0
183212  1  0
184213  1  0
184214  1  0
186215  1  1
187216  1  0
187217  1  0
188218  1  0
190219  1  0
190220  1  0
190221  1  0
191222  1  0
191223  1  0
191224  1  0
193225  1  0
195226  1  0
196227  1  0
197228  1  0
  6229  1  0
  7230  1  0
 17231  1  0
 18232  1  1
 21233  1  6
 22234  1  0
 23235  1  6
 24236  1  0
 25237  1  0
 26238  1  0
 63239  1  0
 64240  1  0
 74241  1  0
 75242  1  0
 78243  1  1
 79244  1  0
 80245  1  1
 81246  1  0
 82247  1  0
 83248  1  0
120249  1  0
121250  1  0
131251  1  0
132252  1  0
135253  1  6
136254  1  0
137255  1  0
138256  1  0
139257  1  0
140258  1  0
177259  1  0
178260  1  0
188261  1  0
189262  1  0
192263  1  1
193264  1  0
194265  1  6
195266  1  0
196267  1  0
197268  1  0
M  END
>  <PDBID>  (1) 
4NKV

>  <PDB ID>  (1) 
4NKV

>  <Generic Name>  (1) 
Abiraterone

>  <Brand Name>  (1) 
Zytiga

>  <DrugBank ID>  (1) 
DB05812

>  <ATC Codes>  (1) 
L02BX03

>  <Ligand ID>  (1) 
AER

>  <Target Name>  (1) 
Steroid 17-alpha-hydroxylase/17,20 lyase

>  <UniProt ID>  (1) 
P05093

>  <PDB ID.1>  (1) 
4NKV

>  <Seq. Identity>  (1) 
97%

$$$$
