PDB_DB01128_99
     RDKit          3D

 63 64  0  0  0  0  0  0  0  0999 V2000
   29.1850    1.4670    9.0150 C   0  0  0  0  0  0  0  0  0  0  0  0
   28.7480    1.3070   10.3270 C   0  0  0  0  0  0  0  0  0  0  0  0
   29.5430    0.6260   11.2440 C   0  0  0  0  0  0  0  0  0  0  0  0
   29.1270    0.4660   12.5160 F   0  0  0  0  0  0  0  0  0  0  0  0
   30.7730    0.1070   10.8520 C   0  0  0  0  0  0  0  0  0  0  0  0
   31.2100    0.2690    9.5410 C   0  0  0  0  0  0  0  0  0  0  0  0
   30.4160    0.9480    8.6230 C   0  0  0  0  0  0  0  0  0  0  0  0
   30.9610    1.1230    6.9710 S   0  0  1  0  0  4  0  0  0  0  0  0
   30.5010    2.4500    6.4430 O   0  0  0  0  0  0  0  0  0  0  0  0
   32.4580    1.0530    6.9270 O   0  0  0  0  0  0  0  0  0  0  0  0
   30.2570   -0.2330    5.9620 C   0  0  0  0  0  0  0  0  0  0  0  0
   29.6810    0.2030    4.6120 C   0  0  1  0  0  0  0  0  0  0  0  0
   30.6660    0.9590    3.9030 O   0  0  0  0  0  0  0  0  0  0  0  0
   29.2760   -1.0210    3.7880 C   0  0  0  0  0  0  0  0  0  0  0  0
   28.4490    1.0870    4.8230 C   0  0  1  0  0  0  0  0  0  0  0  0
   27.4440    0.6410    5.3760 O   0  0  0  0  0  0  0  0  0  0  0  0
   28.6250    2.3570    4.4660 N   0  0  0  0  0  0  0  0  0  0  0  0
   27.7060    3.3220    4.5180 C   0  0  1  0  0  0  0  0  0  0  0  0
   26.3660    3.0880    4.8190 C   0  0  0  0  0  0  0  0  0  0  0  0
   28.0950    4.6030    4.1420 C   0  0  0  0  0  0  0  0  0  0  0  0
   27.1500    5.6220    4.0830 C   0  0  0  0  0  0  0  0  0  0  0  0
   25.8150    5.3730    4.3880 C   0  0  0  0  0  0  0  0  0  0  0  0
   24.9330    6.4990    4.3240 C   0  0  0  0  0  0  0  0  0  0  0  0
   24.2430    7.4020    4.2630 N   0  0  0  0  0  0  0  0  0  0  0  0
   25.3950    4.0900    4.7550 C   0  0  0  0  0  0  0  0  0  0  0  0
   23.9310    3.7310    5.0750 C   0  0  1  0  0  0  0  0  0  0  0  0
   23.7140    3.8720    6.3790 F   0  0  0  0  0  0  0  0  0  0  0  0
   23.0300    4.4730    4.4370 F   0  0  0  0  0  0  0  0  0  0  0  0
   23.6400    2.4740    4.7490 F   0  0  0  0  0  0  0  0  0  0  0  0
   28.4249    1.0042    8.3685 H   0  0  0  0  0  0  0  0  0  0  0  0
   29.3295    2.5539    8.9275 H   0  0  0  0  0  0  0  0  0  0  0  0
   28.5862    2.3161   10.7338 H   0  0  0  0  0  0  0  0  0  0  0  0
   27.8658    0.6580   10.2239 H   0  0  0  0  0  0  0  0  0  0  0  0
   30.0314    1.5714   11.5227 H   0  0  0  0  0  0  0  0  0  0  0  0
   31.5333    0.5682   11.4995 H   0  0  0  0  0  0  0  0  0  0  0  0
   30.6280   -0.9800   10.9379 H   0  0  0  0  0  0  0  0  0  0  0  0
   32.1690    0.8056    9.5898 H   0  0  0  0  0  0  0  0  0  0  0  0
   31.2258   -0.7592    9.1505 H   0  0  0  0  0  0  0  0  0  0  0  0
   30.9034    1.8941    8.9012 H   0  0  0  0  0  0  0  0  0  0  0  0
   30.2923    3.0522    7.2006 H   0  0  0  0  0  0  0  0  0  0  0  0
   32.8149    1.0363    7.8503 H   0  0  0  0  0  0  0  0  0  0  0  0
   31.0535   -0.9677    5.7729 H   0  0  0  0  0  0  0  0  0  0  0  0
   29.4156   -0.6436    6.5394 H   0  0  0  0  0  0  0  0  0  0  0  0
   31.2605    1.4153    4.5499 H   0  0  0  0  0  0  0  0  0  0  0  0
   29.0035   -1.8445    4.4644 H   0  0  0  0  0  0  0  0  0  0  0  0
   28.4140   -0.7671    3.1536 H   0  0  0  0  0  0  0  0  0  0  0  0
   30.1193   -1.3313    3.1536 H   0  0  0  0  0  0  0  0  0  0  0  0
   28.0534    0.7686    3.8472 H   0  0  0  0  0  0  0  0  0  0  0  0
   27.5579    0.6915    6.3581 H   0  0  0  0  0  0  0  0  0  0  0  0
   29.4044    2.6952    5.0483 H   0  0  0  0  0  0  0  0  0  0  0  0
   27.4915    3.1753    3.4491 H   0  0  0  0  0  0  0  0  0  0  0  0
   26.0328    2.2959    4.1323 H   0  0  0  0  0  0  0  0  0  0  0  0
   26.4102    2.8865    5.8995 H   0  0  0  0  0  0  0  0  0  0  0  0
   28.8664    4.9247    4.8572 H   0  0  0  0  0  0  0  0  0  0  0  0
   28.4030    4.4791    3.0933 H   0  0  0  0  0  0  0  0  0  0  0  0
   27.4896    6.4056    4.7763 H   0  0  0  0  0  0  0  0  0  0  0  0
   27.1152    5.8616    3.0100 H   0  0  0  0  0  0  0  0  0  0  0  0
   26.0163    5.5909    5.4472 H   0  0  0  0  0  0  0  0  0  0  0  0
   24.1164    5.8460    3.9825 H   0  0  0  0  0  0  0  0  0  0  0  0
   25.4255    6.9349    5.2058 H   0  0  0  0  0  0  0  0  0  0  0  0
   24.0032    7.7158    5.2143 H   0  0  0  0  0  0  0  0  0  0  0  0
   24.7189    8.1643    3.7597 H   0  0  0  0  0  0  0  0  0  0  0  0
   25.5762    4.3331    5.8124 H   0  0  0  0  0  0  0  0  0  0  0  0
  1  2  1  0
  2  3  1  0
  3  4  1  0
  3  5  1  0
  5  6  1  0
  1  7  1  0
  6  7  1  0
  7  8  1  0
  8  9  1  6
  8 10  1  0
  8 11  1  0
 11 12  1  0
 12 13  1  6
 12 14  1  0
 12 15  1  0
 15 16  1  0
 15 17  1  0
 17 18  1  0
 18 19  1  0
 18 20  1  0
 20 21  1  0
 21 22  1  0
 22 23  1  0
 23 24  1  0
 19 25  1  0
 22 25  1  0
 25 26  1  0
 26 27  1  1
 26 28  1  0
 26 29  1  0
  1 30  1  0
  1 31  1  0
  2 32  1  0
  2 33  1  0
  3 34  1  0
  5 35  1  0
  5 36  1  0
  6 37  1  0
  6 38  1  0
  7 39  1  0
  9 40  1  0
 10 41  1  0
 11 42  1  0
 11 43  1  0
 13 44  1  0
 14 45  1  0
 14 46  1  0
 14 47  1  0
 15 48  1  6
 16 49  1  0
 17 50  1  0
 18 51  1  1
 19 52  1  0
 19 53  1  0
 20 54  1  0
 20 55  1  0
 21 56  1  0
 21 57  1  0
 22 58  1  0
 23 59  1  0
 23 60  1  0
 24 61  1  0
 24 62  1  0
 25 63  1  0
M  END
>  <PDBID>  (1) 
1Z95

>  <PDB ID>  (1) 
1Z95

>  <Generic Name>  (1) 
Bicalutamide

>  <Brand Name>  (1) 
Accel-bicalutamide Tablets USP#Ach-bicalutamide#Act Bicalutamide#Ag-bicalutamide#Apo-bicalutamide#Ava-bicalutamide#Bicalutamide#Bicalutamide Tablets#Casodex#Dom-bicalutamide#Jamp-bicalutamide#Med-bicalutamide#Mylan-bicalutamide#Ntp-bicalutamide#Nu-bicalutamide#PHL-bicalutamide#PMS-bicalutamide#Pro-bicalutamide - 50#Ran-bicalutamide#Ratio-bicalutamide#Sandoz Bicalutamide#Teva-bicalutamide#Van-bicalutamide

>  <DrugBank ID>  (1) 
DB01128

>  <ATC Codes>  (1) 
L02BB03

>  <Ligand ID>  (1) 
0U9,198

>  <Target Name>  (1) 
Androgen receptor

>  <UniProt ID>  (1) 
P10275

>  <PDB ID.1>  (1) 
1Z95

>  <Seq. Identity>  (1) 
100%

$$$$
