PDB_DB00482_99
     RDKit          3D

 40 42  0  0  0  0  0  0  0  0999 V2000
  138.9160  146.1130   75.3160 S   0  0  0  0  0  0  0  0  0  0  0  0
  139.1430  146.0740   73.5570 C   0  0  0  0  0  0  0  0  0  0  0  0
  138.1820  145.4720   72.7660 C   0  0  0  0  0  0  0  0  0  0  0  0
  138.3510  145.4340   71.3920 C   0  0  0  0  0  0  0  0  0  0  0  0
  139.4720  145.9910   70.7940 C   0  0  0  0  0  0  0  0  0  0  0  0
  140.4420  146.5870   71.5880 C   0  0  0  0  0  0  0  0  0  0  0  0
  140.2700  146.6320   72.9660 C   0  0  0  0  0  0  0  0  0  0  0  0
  139.5530  145.9020   69.4530 N   0  0  0  0  0  0  0  0  0  0  0  0
  140.1190  146.7350   68.5380 C   0  0  0  0  0  0  0  0  0  0  0  0
  140.8080  147.9260   68.7390 C   0  0  0  0  0  0  0  0  0  0  0  0
  140.2570  148.9410   69.5060 C   0  0  0  0  0  0  0  0  0  0  0  0
  140.9540  150.1250   69.6930 C   0  0  0  0  0  0  0  0  0  0  0  0
  142.1960  150.3010   69.1030 C   0  0  0  0  0  0  0  0  0  0  0  0
  142.9530  151.5950   69.3050 C   0  0  0  0  0  0  0  0  0  0  0  0
  142.7440  149.2920   68.3280 C   0  0  0  0  0  0  0  0  0  0  0  0
  142.0490  148.1080   68.1440 C   0  0  0  0  0  0  0  0  0  0  0  0
  139.9040  146.1890   67.3030 C   0  0  0  0  0  0  0  0  0  0  0  0
  139.1960  145.0330   67.4490 C   0  0  0  0  0  0  0  0  0  0  0  0
  138.7450  144.1050   66.3400 C   0  0  0  0  0  0  0  0  0  0  0  0
  138.5750  142.8640   66.8100 F   0  0  0  0  0  0  0  0  0  0  0  0
  137.5800  144.5520   65.8560 F   0  0  0  0  0  0  0  0  0  0  0  0
  139.6590  144.0870   65.3610 F   0  0  0  0  0  0  0  0  0  0  0  0
  138.9860  144.8590   68.7650 N   0  0  0  0  0  0  0  0  0  0  0  0
  139.0590  144.5980   75.9280 N   0  0  0  0  0  0  0  0  0  0  0  0
  139.8560  147.0000   75.9370 O   0  0  0  0  0  0  0  0  0  0  0  0
  137.6650  146.7170   75.6880 O   0  0  0  0  0  0  0  0  0  0  0  0
  137.2879  145.0256   73.2256 H   0  0  0  0  0  0  0  0  0  0  0  0
  137.5846  144.9548   70.7652 H   0  0  0  0  0  0  0  0  0  0  0  0
  141.3422  147.0214   71.1287 H   0  0  0  0  0  0  0  0  0  0  0  0
  141.0331  147.1138   73.5949 H   0  0  0  0  0  0  0  0  0  0  0  0
  139.2669  148.8070   69.9662 H   0  0  0  0  0  0  0  0  0  0  0  0
  140.5208  150.9257   70.3104 H   0  0  0  0  0  0  0  0  0  0  0  0
  143.0666  151.7891   70.3818 H   0  0  0  0  0  0  0  0  0  0  0  0
  143.9467  151.5149   68.8401 H   0  0  0  0  0  0  0  0  0  0  0  0
  142.3962  152.4219   68.8401 H   0  0  0  0  0  0  0  0  0  0  0  0
  143.7295  149.4308   67.8595 H   0  0  0  0  0  0  0  0  0  0  0  0
  142.4820  147.3091   67.5242 H   0  0  0  0  0  0  0  0  0  0  0  0
  140.2464  146.6132   66.3476 H   0  0  0  0  0  0  0  0  0  0  0  0
  139.0549  144.6416   76.9571 H   0  0  0  0  0  0  0  0  0  0  0  0
  138.2687  144.0215   75.6056 H   0  0  0  0  0  0  0  0  0  0  0  0
  1  2  1  0
  2  3  2  0
  3  4  1  0
  4  5  2  0
  5  6  1  0
  2  7  1  0
  6  7  2  0
  5  8  1  0
  8  9  1  0
  9 10  1  0
 10 11  2  0
 11 12  1  0
 12 13  2  0
 13 14  1  0
 13 15  1  0
 10 16  1  0
 15 16  2  0
  9 17  2  0
 17 18  1  0
 18 19  1  0
 19 20  1  0
 19 21  1  0
 19 22  1  0
  8 23  1  0
 18 23  2  0
  1 24  1  0
  1 25  2  0
  1 26  2  0
  3 27  1  0
  4 28  1  0
  6 29  1  0
  7 30  1  0
 11 31  1  0
 12 32  1  0
 14 33  1  0
 14 34  1  0
 14 35  1  0
 15 36  1  0
 16 37  1  0
 17 38  1  0
 24 39  1  0
 24 40  1  0
M  END
$$$$
