PDB_DB08895_99
     RDKit          3D

 43 45  0  0  0  0  0  0  0  0999 V2000
  -57.4340    9.4780    0.5310 C   0  0  1  0  0  0  0  0  0  0  0  0
  -56.3220    8.4320    0.4380 C   0  0  0  0  0  0  0  0  0  0  0  0
  -55.8400    8.7950    2.9180 C   0  0  0  0  0  0  0  0  0  0  0  0
  -56.8560    9.9570    3.0180 C   0  0  0  0  0  0  0  0  0  0  0  0
  -57.1750   10.5680    1.6340 C   0  0  1  0  0  0  0  0  0  0  0  0
  -56.1520    7.9000    1.7880 N   0  0  0  0  0  0  0  0  0  0  0  0
  -56.5060    5.8990    0.9780 O   0  0  0  0  0  0  0  0  0  0  0  0
  -56.2650    6.6170    1.9400 C   0  0  0  0  0  0  0  0  0  0  0  0
  -56.0830    6.1110    3.3000 C   0  0  0  0  0  0  0  0  0  0  0  0
  -56.5170    4.9590    3.5980 C   0  0  0  0  0  0  0  0  0  0  0  0
  -56.6770    3.8260    3.8130 N   0  0  0  0  0  0  0  0  0  0  0  0
  -56.1490   11.6450    1.2840 C   0  0  0  0  0  0  0  0  0  0  0  0
  -57.5700   10.1590   -0.7640 N   0  0  0  0  0  0  0  0  0  0  0  0
  -56.4410   10.2590   -1.7270 C   0  0  0  0  0  0  0  0  0  0  0  0
  -58.8020   10.6870   -1.0900 C   0  0  0  0  0  0  0  0  0  0  0  0
  -59.8920   10.6100   -0.2150 C   0  0  0  0  0  0  0  0  0  0  0  0
  -60.1110   10.0400    1.0990 C   0  0  0  0  0  0  0  0  0  0  0  0
  -61.4560   10.3500    1.3320 C   0  0  0  0  0  0  0  0  0  0  0  0
  -62.0250   11.0510    0.2990 N   0  0  0  0  0  0  0  0  0  0  0  0
  -61.1230   11.2650   -0.6710 C   0  0  0  0  0  0  0  0  0  0  0  0
  -61.1610   11.8620   -1.8740 N   0  0  0  0  0  0  0  0  0  0  0  0
  -60.0950   11.9030   -2.6540 C   0  0  0  0  0  0  0  0  0  0  0  0
  -58.9600   11.3430   -2.2770 N   0  0  0  0  0  0  0  0  0  0  0  0
  -58.3505    8.9358    0.8068 H   0  0  0  0  0  0  0  0  0  0  0  0
  -56.6108    7.6284   -0.2554 H   0  0  0  0  0  0  0  0  0  0  0  0
  -55.3877    8.8715    0.0587 H   0  0  0  0  0  0  0  0  0  0  0  0
  -54.8323    9.2125    2.7756 H   0  0  0  0  0  0  0  0  0  0  0  0
  -55.8933    8.2090    3.8474 H   0  0  0  0  0  0  0  0  0  0  0  0
  -57.7879    9.5767    3.4617 H   0  0  0  0  0  0  0  0  0  0  0  0
  -56.4105   10.7451    3.6429 H   0  0  0  0  0  0  0  0  0  0  0  0
  -58.1427   11.0888    1.6821 H   0  0  0  0  0  0  0  0  0  0  0  0
  -55.0010    6.1070    3.4983 H   0  0  0  0  0  0  0  0  0  0  0  0
  -56.6981    6.7865    3.9126 H   0  0  0  0  0  0  0  0  0  0  0  0
  -55.7390   12.0754    2.2095 H   0  0  0  0  0  0  0  0  0  0  0  0
  -55.3344   11.1979    0.6953 H   0  0  0  0  0  0  0  0  0  0  0  0
  -56.6350   12.4369    0.6953 H   0  0  0  0  0  0  0  0  0  0  0  0
  -55.4938   10.3429   -1.1741 H   0  0  0  0  0  0  0  0  0  0  0  0
  -56.4179    9.3594   -2.3596 H   0  0  0  0  0  0  0  0  0  0  0  0
  -56.5763   11.1487   -2.3596 H   0  0  0  0  0  0  0  0  0  0  0  0
  -59.4028    9.5023    1.7466 H   0  0  0  0  0  0  0  0  0  0  0  0
  -61.9982   10.0626    2.2449 H   0  0  0  0  0  0  0  0  0  0  0  0
  -63.0047   11.3678    0.2720 H   0  0  0  0  0  0  0  0  0  0  0  0
  -60.1538   12.4095   -3.6287 H   0  0  0  0  0  0  0  0  0  0  0  0
  1  2  1  0
  3  4  1  0
  1  5  1  0
  4  5  1  0
  2  6  1  0
  3  6  1  0
  6  8  1  0
  7  8  2  0
  8  9  1  0
  9 10  1  0
 10 11  3  0
  5 12  1  0
  1 13  1  0
 13 14  1  0
 13 15  1  0
 15 16  2  0
 16 17  1  0
 17 18  2  0
 18 19  1  0
 16 20  1  0
 19 20  1  0
 20 21  2  0
 21 22  1  0
 15 23  1  0
 22 23  2  0
  1 24  1  1
  2 25  1  0
  2 26  1  0
  3 27  1  0
  3 28  1  0
  4 29  1  0
  4 30  1  0
  5 31  1  1
  9 32  1  0
  9 33  1  0
 12 34  1  0
 12 35  1  0
 12 36  1  0
 14 37  1  0
 14 38  1  0
 14 39  1  0
 17 40  1  0
 18 41  1  0
 19 42  1  0
 22 43  1  0
M  END
$$$$
