PDB_DB08954_95
     RDKit          3D

 51 53  0  0  0  0  0  0  0  0999 V2000
   80.2790    1.0070  -32.3670 C   0  0  0  0  0  0  0  0  0  0  0  0
   85.8880    6.5160  -32.0490 N   0  0  0  0  0  0  0  0  0  0  0  0
   85.6360    9.4850  -32.8330 O   0  0  0  0  0  0  0  0  0  0  0  0
   90.0250   10.2150  -30.8360 C   0  0  0  0  0  0  0  0  0  0  0  0
   91.5580   11.7410  -31.8950 O   0  0  0  0  0  0  0  0  0  0  0  0
   89.4340   11.3410  -32.8730 C   0  0  0  0  0  0  0  0  0  0  0  0
   82.2790    2.6020  -31.2350 C   0  0  0  0  0  0  0  0  0  0  0  0
   81.0890    3.1620  -31.7040 C   0  0  0  0  0  0  0  0  0  0  0  0
   80.0950    2.3690  -32.2590 C   0  0  0  0  0  0  0  0  0  0  0  0
   83.2600    3.4320  -30.4400 C   0  0  0  0  0  0  0  0  0  0  0  0
   84.3830    4.0830  -31.2590 C   0  0  0  0  0  0  0  0  0  0  0  0
   83.8480    5.0830  -32.2930 C   0  0  0  0  0  0  0  0  0  0  0  0
   81.4770    0.4380  -31.9420 C   0  0  0  0  0  0  0  0  0  0  0  0
   82.4670    1.2310  -31.3800 C   0  0  0  0  0  0  0  0  0  0  0  0
   84.9720    5.8510  -33.0080 C   0  0  0  0  0  0  0  0  0  0  0  0
   86.4670    5.5340  -31.1210 C   0  0  0  0  0  0  0  0  0  0  0  0
   85.3890    4.7810  -30.3470 C   0  0  0  0  0  0  0  0  0  0  0  0
   86.9360    7.4540  -32.5010 C   0  0  2  0  0  0  0  0  0  0  0  0
   86.6480    8.8880  -32.0110 C   0  0  1  0  0  0  0  0  0  0  0  0
   87.9130    9.7260  -31.9090 C   0  0  0  0  0  0  0  0  0  0  0  0
   88.8210    9.5290  -30.8720 C   0  0  0  0  0  0  0  0  0  0  0  0
   90.3420   11.1150  -31.8490 C   0  0  0  0  0  0  0  0  0  0  0  0
   88.2360   10.6520  -32.8970 C   0  0  0  0  0  0  0  0  0  0  0  0
   87.1940    7.4020  -33.9990 C   0  0  0  0  0  0  0  0  0  0  0  0
   79.4839    0.3731  -32.7866 H   0  0  0  0  0  0  0  0  0  0  0  0
   84.9423    9.8942  -32.2574 H   0  0  0  0  0  0  0  0  0  0  0  0
   90.7292   10.0481  -30.0076 H   0  0  0  0  0  0  0  0  0  0  0  0
   91.7598   12.3774  -32.6260 H   0  0  0  0  0  0  0  0  0  0  0  0
   89.6671   12.0678  -33.6651 H   0  0  0  0  0  0  0  0  0  0  0  0
   80.9372    4.2491  -31.6323 H   0  0  0  0  0  0  0  0  0  0  0  0
   79.1597    2.8272  -32.6130 H   0  0  0  0  0  0  0  0  0  0  0  0
   82.6982    4.2328  -29.9369 H   0  0  0  0  0  0  0  0  0  0  0  0
   83.7539    2.7367  -29.7453 H   0  0  0  0  0  0  0  0  0  0  0  0
   84.8842    3.2687  -31.8028 H   0  0  0  0  0  0  0  0  0  0  0  0
   83.2630    4.5333  -33.0451 H   0  0  0  0  0  0  0  0  0  0  0  0
   83.2300    5.8185  -31.7571 H   0  0  0  0  0  0  0  0  0  0  0  0
   81.6389   -0.6444  -32.0523 H   0  0  0  0  0  0  0  0  0  0  0  0
   83.4091    0.7717  -31.0460 H   0  0  0  0  0  0  0  0  0  0  0  0
   84.5218    6.6159  -33.6578 H   0  0  0  0  0  0  0  0  0  0  0  0
   85.5591    5.1276  -33.5927 H   0  0  0  0  0  0  0  0  0  0  0  0
   87.0640    4.8103  -31.6954 H   0  0  0  0  0  0  0  0  0  0  0  0
   87.0924    6.0760  -30.3963 H   0  0  0  0  0  0  0  0  0  0  0  0
   84.8484    5.4972  -29.7107 H   0  0  0  0  0  0  0  0  0  0  0  0
   85.8909    4.0038  -29.7520 H   0  0  0  0  0  0  0  0  0  0  0  0
   87.8738    7.1177  -32.0346 H   0  0  0  0  0  0  0  0  0  0  0  0
   86.2579    8.8410  -30.9836 H   0  0  0  0  0  0  0  0  0  0  0  0
   88.5791    8.8177  -30.0686 H   0  0  0  0  0  0  0  0  0  0  0  0
   87.5232   10.8392  -33.7136 H   0  0  0  0  0  0  0  0  0  0  0  0
   88.2575    7.1876  -34.1807 H   0  0  0  0  0  0  0  0  0  0  0  0
   86.5781    6.6099  -34.4499 H   0  0  0  0  0  0  0  0  0  0  0  0
   86.9330    8.3708  -34.4499 H   0  0  0  0  0  0  0  0  0  0  0  0
  7  8  2  0
  1  9  2  0
  8  9  1  0
  7 10  1  0
 10 11  1  0
 11 12  1  0
  1 13  1  0
  7 14  1  0
 13 14  2  0
  2 15  1  0
 12 15  1  0
  2 16  1  0
 11 17  1  0
 16 17  1  0
  2 18  1  0
  3 19  1  0
 18 19  1  0
 19 20  1  0
  4 21  2  0
 20 21  1  0
  4 22  1  0
  5 22  1  0
  6 22  2  0
  6 23  1  0
 20 23  2  0
 18 24  1  0
  1 25  1  0
  3 26  1  0
  4 27  1  0
  5 28  1  0
  6 29  1  0
  8 30  1  0
  9 31  1  0
 10 32  1  0
 10 33  1  0
 11 34  1  0
 12 35  1  0
 12 36  1  0
 13 37  1  0
 14 38  1  0
 15 39  1  0
 15 40  1  0
 16 41  1  0
 16 42  1  0
 17 43  1  0
 17 44  1  0
 18 45  1  1
 19 46  1  1
 21 47  1  0
 23 48  1  0
 24 49  1  0
 24 50  1  0
 24 51  1  0
M  END
$$$$
