PDB_DB00205_96
     RDKit          3D

 30 31  0  0  0  0  0  0  0  0999 V2000
   10.5910   27.1860   36.9680 N   0  0  0  0  0  0  0  0  0  0  0  0
   11.6320   27.5410   37.7260 C   0  0  0  0  0  0  0  0  0  0  0  0
    9.7940   28.1200   36.4610 C   0  0  0  0  0  0  0  0  0  0  0  0
   10.0810   29.5060   36.6850 C   0  0  0  0  0  0  0  0  0  0  0  0
   11.1730   29.8220   37.4690 C   0  0  0  0  0  0  0  0  0  0  0  0
   11.9170   28.8310   38.0140 N   0  0  0  0  0  0  0  0  0  0  0  0
    9.2650   30.5320   36.0240 C   0  0  0  0  0  0  0  0  0  0  0  0
    7.9080   30.6600   36.2630 C   0  0  0  0  0  0  0  0  0  0  0  0
    7.0770   31.5560   35.5610 C   0  0  0  0  0  0  0  0  0  0  0  0
    7.6940   32.3170   34.5870 C   0  0  0  0  0  0  0  0  0  0  0  0
    9.0860   32.3030   34.3060 C   0  0  0  0  0  0  0  0  0  0  0  0
    9.7980   31.3630   35.0320 C   0  0  0  0  0  0  0  0  0  0  0  0
    8.7240   27.6960   35.7750 N   0  0  0  0  0  0  0  0  0  0  0  0
   12.4970   26.6470   38.2050 N   0  0  0  0  0  0  0  0  0  0  0  0
   11.6980   31.2360   37.8710 C   0  0  0  0  0  0  0  0  0  0  0  0
   13.0190   31.5510   37.1860 C   0  0  0  0  0  0  0  0  0  0  0  0
    6.7640   33.4460   33.6880 Cl  0  0  0  0  0  0  0  0  0  0  0  0
    7.4542   30.0294   37.0417 H   0  0  0  0  0  0  0  0  0  0  0  0
    6.0018   31.6441   35.7757 H   0  0  0  0  0  0  0  0  0  0  0  0
    9.5567   32.9786   33.5766 H   0  0  0  0  0  0  0  0  0  0  0  0
   10.8707   31.2611   34.8108 H   0  0  0  0  0  0  0  0  0  0  0  0
    8.0737   28.3792   35.3611 H   0  0  0  0  0  0  0  0  0  0  0  0
    8.5517   26.6869   35.6616 H   0  0  0  0  0  0  0  0  0  0  0  0
   13.2887   26.9567   38.7865 H   0  0  0  0  0  0  0  0  0  0  0  0
   12.3737   25.6465   37.9936 H   0  0  0  0  0  0  0  0  0  0  0  0
   10.9536   31.9911   37.5781 H   0  0  0  0  0  0  0  0  0  0  0  0
   11.8594   31.2498   38.9590 H   0  0  0  0  0  0  0  0  0  0  0  0
   13.7918   31.7353   37.9468 H   0  0  0  0  0  0  0  0  0  0  0  0
   13.3186   30.6991   36.5579 H   0  0  0  0  0  0  0  0  0  0  0  0
   12.9020   32.4464   36.5579 H   0  0  0  0  0  0  0  0  0  0  0  0
  1  2  2  0
  1  3  1  0
  3  4  2  0
  4  5  1  0
  2  6  1  0
  5  6  2  0
  4  7  1  0
  7  8  2  0
  8  9  1  0
  9 10  2  0
 10 11  1  0
  7 12  1  0
 11 12  2  0
  3 13  1  0
  2 14  1  0
  5 15  1  0
 15 16  1  0
 10 17  1  0
  8 18  1  0
  9 19  1  0
 11 20  1  0
 12 21  1  0
 13 22  1  0
 13 23  1  0
 14 24  1  0
 14 25  1  0
 15 26  1  0
 15 27  1  0
 16 28  1  0
 16 29  1  0
 16 30  1  0
M  END
$$$$
