PDB_DB00834_95
     RDKit          3D

 67 71  0  0  0  0  0  0  0  0999 V2000
  -19.9180    4.7950   42.9620 O   0  0  0  0  0  0  0  0  0  0  0  0
  -20.7150    4.9070   42.0460 C   0  0  0  0  0  0  0  0  0  0  0  0
  -20.5650    4.0120   40.8150 C   0  0  0  0  0  0  0  0  0  0  0  0
  -21.7620    5.9430   42.0270 C   0  0  0  0  0  0  0  0  0  0  0  0
  -22.5720    6.1620   40.9480 C   0  0  0  0  0  0  0  0  0  0  0  0
  -23.5650    7.2870   40.9500 C   0  0  0  0  0  0  0  0  0  0  0  0
  -22.4630    5.3770   39.7010 C   0  0  0  0  0  0  0  0  0  0  0  0
  -21.7510    4.0400   39.8500 C   0  0  0  0  0  0  0  0  0  0  0  0
  -23.0000    5.7990   38.5260 C   0  0  0  0  0  0  0  0  0  0  0  0
  -22.8950    4.9410   37.2570 C   0  0  1  0  0  0  0  0  0  0  0  0
  -24.0310    3.9400   37.1110 C   0  0  0  0  0  0  0  0  0  0  0  0
  -24.0400    3.0530   36.0310 C   0  0  0  0  0  0  0  0  0  0  0  0
  -25.0550    2.1260   35.8430 C   0  0  0  0  0  0  0  0  0  0  0  0
  -26.1470    2.0440   36.7510 C   0  0  0  0  0  0  0  0  0  0  0  0
  -27.1890    1.1230   36.6010 N   0  0  0  0  0  0  0  0  0  0  0  0
  -28.4060    1.3060   37.3730 C   0  0  0  0  0  0  0  0  0  0  0  0
  -26.8880   -0.2410   36.1670 C   0  0  0  0  0  0  0  0  0  0  0  0
  -26.1240    2.9410   37.8280 C   0  0  0  0  0  0  0  0  0  0  0  0
  -25.1030    3.8710   37.9950 C   0  0  0  0  0  0  0  0  0  0  0  0
  -22.6940    5.7840   35.9680 C   0  0  0  0  0  0  0  0  0  0  0  0
  -23.5910    7.0150   35.8410 C   0  0  2  0  0  0  0  0  0  0  0  0
  -25.0790    6.6520   35.6380 C   0  0  0  0  0  0  0  0  0  0  0  0
  -23.1940    8.0260   34.7000 C   0  0  1  0  0  0  0  0  0  0  0  0
  -21.7460    8.1210   34.5990 C   0  0  0  0  0  0  0  0  0  0  0  0
  -20.5490    8.1810   34.6130 C   0  0  0  0  0  0  0  0  0  0  0  0
  -19.0970    8.2760   34.6790 C   0  0  0  0  0  0  0  0  0  0  0  0
  -23.7510    7.5780   33.4540 O   0  0  0  0  0  0  0  0  0  0  0  0
  -23.7780    9.3850   35.2170 C   0  0  0  0  0  0  0  0  0  0  0  0
  -23.9030    9.2710   36.7730 C   0  0  0  0  0  0  0  0  0  0  0  0
  -23.3230    7.8680   37.0940 C   0  0  1  0  0  0  0  0  0  0  0  0
  -23.7050    7.1540   38.4040 C   0  0  2  0  0  0  0  0  0  0  0  0
  -23.4730    8.0500   39.6280 C   0  0  0  0  0  0  0  0  0  0  0  0
  -19.6691    4.3352   40.2647 H   0  0  0  0  0  0  0  0  0  0  0  0
  -20.4970    2.9802   41.1903 H   0  0  0  0  0  0  0  0  0  0  0  0
  -21.8981    6.5686   42.9215 H   0  0  0  0  0  0  0  0  0  0  0  0
  -24.5800    6.8800   41.0687 H   0  0  0  0  0  0  0  0  0  0  0  0
  -23.3441    7.9697   41.7837 H   0  0  0  0  0  0  0  0  0  0  0  0
  -21.3830    3.7429   38.8569 H   0  0  0  0  0  0  0  0  0  0  0  0
  -22.4968    3.3549   40.2793 H   0  0  0  0  0  0  0  0  0  0  0  0
  -21.9781    4.3481   37.3899 H   0  0  0  0  0  0  0  0  0  0  0  0
  -23.2142    3.0911   35.3053 H   0  0  0  0  0  0  0  0  0  0  0  0
  -25.0148    1.4451   34.9800 H   0  0  0  0  0  0  0  0  0  0  0  0
  -28.1682    1.2702   38.4464 H   0  0  0  0  0  0  0  0  0  0  0  0
  -28.8521    2.2813   37.1286 H   0  0  0  0  0  0  0  0  0  0  0  0
  -29.1192    0.5050   37.1286 H   0  0  0  0  0  0  0  0  0  0  0  0
  -26.7462   -0.8834   37.0486 H   0  0  0  0  0  0  0  0  0  0  0  0
  -27.7227   -0.6262   35.5630 H   0  0  0  0  0  0  0  0  0  0  0  0
  -25.9687   -0.2391   35.5630 H   0  0  0  0  0  0  0  0  0  0  0  0
  -26.9399    2.9084   38.5651 H   0  0  0  0  0  0  0  0  0  0  0  0
  -25.1442    4.5676   38.8453 H   0  0  0  0  0  0  0  0  0  0  0  0
  -21.6478    6.1230   35.9443 H   0  0  0  0  0  0  0  0  0  0  0  0
  -22.9652    5.1247   35.1303 H   0  0  0  0  0  0  0  0  0  0  0  0
  -25.5645    6.5336   36.6179 H   0  0  0  0  0  0  0  0  0  0  0  0
  -25.5788    7.4546   35.0758 H   0  0  0  0  0  0  0  0  0  0  0  0
  -25.1531    5.7094   35.0758 H   0  0  0  0  0  0  0  0  0  0  0  0
  -18.7784    8.2968   35.7316 H   0  0  0  0  0  0  0  0  0  0  0  0
  -18.6494    7.4052   34.1776 H   0  0  0  0  0  0  0  0  0  0  0  0
  -18.7667    9.1977   34.1776 H   0  0  0  0  0  0  0  0  0  0  0  0
  -24.5098    6.9677   33.6322 H   0  0  0  0  0  0  0  0  0  0  0  0
  -23.1016   10.2112   34.9525 H   0  0  0  0  0  0  0  0  0  0  0  0
  -24.7575    9.5890   34.7598 H   0  0  0  0  0  0  0  0  0  0  0  0
  -23.3189   10.0589   37.2710 H   0  0  0  0  0  0  0  0  0  0  0  0
  -24.9382    9.3919   37.1247 H   0  0  0  0  0  0  0  0  0  0  0  0
  -22.2577    8.0201   37.3219 H   0  0  0  0  0  0  0  0  0  0  0  0
  -24.7852    6.9488   38.3705 H   0  0  0  0  0  0  0  0  0  0  0  0
  -24.2318    8.8464   39.6289 H   0  0  0  0  0  0  0  0  0  0  0  0
  -22.4535    8.4560   39.5514 H   0  0  0  0  0  0  0  0  0  0  0  0
  1  2  2  0
  2  3  1  0
  2  4  1  0
  4  5  2  0
  5  6  1  0
  5  7  1  0
  3  8  1  0
  7  8  1  0
  7  9  2  0
  9 10  1  0
 10 11  1  0
 11 12  2  0
 12 13  1  0
 13 14  2  0
 14 15  1  0
 15 16  1  0
 15 17  1  0
 14 18  1  0
 11 19  1  0
 18 19  2  0
 10 20  1  0
 20 21  1  0
 21 22  1  6
 21 23  1  0
 23 24  1  6
 24 25  3  0
 25 26  1  0
 23 27  1  0
 23 28  1  0
 28 29  1  0
 21 30  1  0
 29 30  1  0
  9 31  1  0
 30 31  1  0
  6 32  1  0
 31 32  1  0
  3 33  1  0
  3 34  1  0
  4 35  1  0
  6 36  1  0
  6 37  1  0
  8 38  1  0
  8 39  1  0
 10 40  1  1
 12 41  1  0
 13 42  1  0
 16 43  1  0
 16 44  1  0
 16 45  1  0
 17 46  1  0
 17 47  1  0
 17 48  1  0
 18 49  1  0
 19 50  1  0
 20 51  1  0
 20 52  1  0
 22 53  1  0
 22 54  1  0
 22 55  1  0
 26 56  1  0
 26 57  1  0
 26 58  1  0
 27 59  1  0
 28 60  1  0
 28 61  1  0
 29 62  1  0
 29 63  1  0
 30 64  1  1
 31 65  1  6
 32 66  1  0
 32 67  1  0
M  END
$$$$
