PDB_DB00136_97
     RDKit          3D

 80 82  0  0  0  0  0  0  0  0999 V2000
   16.6920   17.9360   34.4920 O   0  0  0  0  0  0  0  0  0  0  0  0
    4.1380   26.7470   34.8910 O   0  0  0  0  0  0  0  0  0  0  0  0
   13.8730   17.7990   35.5140 C   0  0  1  0  0  0  0  0  0  0  0  0
   14.5730   16.7040   34.6640 C   0  0  0  0  0  0  0  0  0  0  0  0
   15.6590   17.3310   33.6840 C   0  0  1  0  0  0  0  0  0  0  0  0
   14.9930   18.4180   32.7480 C   0  0  0  0  0  0  0  0  0  0  0  0
   14.2700   19.4930   33.5550 C   0  0  0  0  0  0  0  0  0  0  0  0
   14.4520   20.8850   33.4590 C   0  0  0  0  0  0  0  0  0  0  0  0
   13.8410   22.0640   34.1690 C   0  0  0  0  0  0  0  0  0  0  0  0
   13.5920   23.2450   33.6600 C   0  0  1  0  0  0  0  0  0  0  0  0
   13.9260   23.6500   32.1370 C   0  0  0  0  0  0  0  0  0  0  0  0
   13.2690   18.8500   34.5460 C   0  0  0  0  0  0  0  0  0  0  0  0
   12.6100   24.1240   31.2860 C   0  0  0  0  0  0  0  0  0  0  0  0
   11.6820   25.1060   32.1620 C   0  0  0  0  0  0  0  0  0  0  0  0
   11.3760   24.6400   33.7170 C   0  0  1  0  0  0  0  0  0  0  0  0
   12.8100   24.3250   34.3790 C   0  0  1  0  0  0  0  0  0  0  0  0
   12.3800   24.1250   35.9830 C   0  0  0  0  0  0  0  0  0  0  0  0
   11.1440   25.0870   36.1240 C   0  0  0  0  0  0  0  0  0  0  0  0
   10.9680   25.7350   34.7150 C   0  0  2  0  0  0  0  0  0  0  0  0
   10.3890   23.2910   33.5490 C   0  0  0  0  0  0  0  0  0  0  0  0
   11.9320   19.1690   34.5470 C   0  0  0  0  0  0  0  0  0  0  0  0
    9.5110   26.3190   34.3590 C   0  0  2  0  0  0  0  0  0  0  0  0
    9.5150   27.7670   35.0340 C   0  0  0  0  0  0  0  0  0  0  0  0
    8.2480   25.6550   35.0030 C   0  0  0  0  0  0  0  0  0  0  0  0
    6.9620   25.8840   34.2000 C   0  0  0  0  0  0  0  0  0  0  0  0
    5.8080   25.0780   34.5420 C   0  0  0  0  0  0  0  0  0  0  0  0
    4.4130   25.5400   34.2290 C   0  0  2  0  0  0  0  0  0  0  0  0
    4.2760   25.6810   32.7270 C   0  0  0  0  0  0  0  0  0  0  0  0
    3.3450   24.4950   34.7100 C   0  0  0  0  0  0  0  0  0  0  0  0
   12.8720   17.1940   36.4070 O   0  0  0  0  0  0  0  0  0  0  0  0
   16.4774   17.8103   35.4503 H   0  0  0  0  0  0  0  0  0  0  0  0
    4.1711   26.6016   35.8697 H   0  0  0  0  0  0  0  0  0  0  0  0
   14.5929   18.3094   36.1707 H   0  0  0  0  0  0  0  0  0  0  0  0
   15.0697   15.9911   35.3386 H   0  0  0  0  0  0  0  0  0  0  0  0
   13.8088   16.1995   34.0545 H   0  0  0  0  0  0  0  0  0  0  0  0
   16.0864   16.5469   33.0418 H   0  0  0  0  0  0  0  0  0  0  0  0
   15.7773   18.8948   32.1417 H   0  0  0  0  0  0  0  0  0  0  0  0
   14.2528   17.9131   32.1098 H   0  0  0  0  0  0  0  0  0  0  0  0
   15.0548   19.4434   34.3242 H   0  0  0  0  0  0  0  0  0  0  0  0
   15.5285   21.0100   33.6474 H   0  0  0  0  0  0  0  0  0  0  0  0
   13.8733   21.0058   32.5314 H   0  0  0  0  0  0  0  0  0  0  0  0
   12.8692   21.7022   34.5360 H   0  0  0  0  0  0  0  0  0  0  0  0
   14.6796   22.3281   34.8301 H   0  0  0  0  0  0  0  0  0  0  0  0
   14.5897   23.5891   33.9703 H   0  0  0  0  0  0  0  0  0  0  0  0
   14.6510   24.4772   32.1473 H   0  0  0  0  0  0  0  0  0  0  0  0
   14.3259   22.7523   31.6428 H   0  0  0  0  0  0  0  0  0  0  0  0
   13.4815   19.6447   35.2763 H   0  0  0  0  0  0  0  0  0  0  0  0
   12.9388   24.6530   30.3794 H   0  0  0  0  0  0  0  0  0  0  0  0
   12.0241   23.2321   31.0193 H   0  0  0  0  0  0  0  0  0  0  0  0
   12.1763   26.0880   32.1987 H   0  0  0  0  0  0  0  0  0  0  0  0
   10.7031   25.1051   31.6603 H   0  0  0  0  0  0  0  0  0  0  0  0
   13.5818   25.1037   34.2894 H   0  0  0  0  0  0  0  0  0  0  0  0
   12.0987   23.0824   36.1925 H   0  0  0  0  0  0  0  0  0  0  0  0
   13.1943   24.3497   36.6875 H   0  0  0  0  0  0  0  0  0  0  0  0
   10.2436   24.5201   36.4032 H   0  0  0  0  0  0  0  0  0  0  0  0
   11.2983   25.8429   36.9081 H   0  0  0  0  0  0  0  0  0  0  0  0
   11.5917   26.6403   34.6770 H   0  0  0  0  0  0  0  0  0  0  0  0
   10.1123   22.9129   34.5442 H   0  0  0  0  0  0  0  0  0  0  0  0
    9.4793   23.5688   32.9964 H   0  0  0  0  0  0  0  0  0  0  0  0
   10.9290   22.5081   32.9964 H   0  0  0  0  0  0  0  0  0  0  0  0
   11.5761   19.2539   35.5844 H   0  0  0  0  0  0  0  0  0  0  0  0
   11.7834   20.1278   34.0287 H   0  0  0  0  0  0  0  0  0  0  0  0
   11.3665   18.3806   34.0287 H   0  0  0  0  0  0  0  0  0  0  0  0
    9.4069   26.1959   33.2709 H   0  0  0  0  0  0  0  0  0  0  0  0
    9.5147   27.6612   36.1289 H   0  0  0  0  0  0  0  0  0  0  0  0
   10.4147   28.3159   34.7189 H   0  0  0  0  0  0  0  0  0  0  0  0
    8.6184   28.3209   34.7189 H   0  0  0  0  0  0  0  0  0  0  0  0
    8.4238   24.5717   35.0779 H   0  0  0  0  0  0  0  0  0  0  0  0
    8.1027   26.1224   35.9881 H   0  0  0  0  0  0  0  0  0  0  0  0
    6.6770   26.9387   34.3280 H   0  0  0  0  0  0  0  0  0  0  0  0
    7.2167   25.5871   33.1719 H   0  0  0  0  0  0  0  0  0  0  0  0
    5.9389   24.1136   34.0294 H   0  0  0  0  0  0  0  0  0  0  0  0
    5.8235   25.0935   35.6418 H   0  0  0  0  0  0  0  0  0  0  0  0
    3.5262   26.4526   32.4980 H   0  0  0  0  0  0  0  0  0  0  0  0
    5.2453   25.9723   32.2961 H   0  0  0  0  0  0  0  0  0  0  0  0
    3.9570   24.7205   32.2961 H   0  0  0  0  0  0  0  0  0  0  0  0
    3.3227   24.4732   35.8096 H   0  0  0  0  0  0  0  0  0  0  0  0
    2.3538   24.7817   34.3288 H   0  0  0  0  0  0  0  0  0  0  0  0
    3.6101   23.4978   34.3288 H   0  0  0  0  0  0  0  0  0  0  0  0
   13.1323   17.3513   37.3491 H   0  0  0  0  0  0  0  0  0  0  0  0
  3  4  1  0
  1  5  1  0
  4  5  1  0
  5  6  1  0
  6  7  1  0
  7  8  1  0
  8  9  1  0
  9 10  1  0
 10 11  1  0
  3 12  1  0
  7 12  1  0
 11 13  1  0
 13 14  1  0
 14 15  1  0
 10 16  1  0
 15 16  1  0
 16 17  1  0
 17 18  1  0
 15 19  1  0
 18 19  1  0
 15 20  1  6
 12 21  1  0
 19 22  1  0
 22 23  1  0
 22 24  1  0
 24 25  1  0
 25 26  1  0
 27  2  1  1
 26 27  1  0
 27 28  1  0
 27 29  1  0
  3 30  1  0
  1 31  1  0
  2 32  1  0
  3 33  1  1
  4 34  1  0
  4 35  1  0
  5 36  1  6
  6 37  1  0
  6 38  1  0
  7 39  1  0
  8 40  1  0
  8 41  1  0
  9 42  1  0
  9 43  1  0
 10 44  1  1
 11 45  1  0
 11 46  1  0
 12 47  1  0
 13 48  1  0
 13 49  1  0
 14 50  1  0
 14 51  1  0
 16 52  1  1
 17 53  1  0
 17 54  1  0
 18 55  1  0
 18 56  1  0
 19 57  1  1
 20 58  1  0
 20 59  1  0
 20 60  1  0
 21 61  1  0
 21 62  1  0
 21 63  1  0
 22 64  1  6
 23 65  1  0
 23 66  1  0
 23 67  1  0
 24 68  1  0
 24 69  1  0
 25 70  1  0
 25 71  1  0
 26 72  1  0
 26 73  1  0
 28 74  1  0
 28 75  1  0
 28 76  1  0
 29 77  1  0
 29 78  1  0
 29 79  1  0
 30 80  1  0
M  END
>  <PDBID>  (1) 
3M7R

>  <PDB ID>  (1) 
3M7R

>  <Generic Name>  (1) 
Calcitriol

>  <Brand Name>  (1) 
Calcijex#Calcitriol#Calcitriol Injection#Calcitriol Injection USP#Calcitriol-odan#Rocaltrol#Rocaltrol Cap 0.25mcg#Rocaltrol Cap 0.5mcg#Rocaltrol Oral Solution 1mcg/ml#Silkis#Vectical#Calcitriol Oral Solution#Decostriol

>  <DrugBank ID>  (1) 
DB00136

>  <ATC Codes>  (1) 
A11CC04#D05AX03

>  <Ligand ID>  (1) 
VDX

>  <Target Name>  (1) 
Vitamin D3 receptor

>  <UniProt ID>  (1) 
P11473

>  <PDB ID.1>  (1) 
3M7R

>  <Seq. Identity>  (1) 
83%

$$$$
