PDB_DB00360_97
     RDKit          3D

 32 33  0  0  0  0  0  0  0  0999 V2000
   -4.8370   21.7930    8.0010 N   0  0  0  0  0  0  0  0  0  0  0  0
   -3.8580   20.9680    8.4830 C   0  0  0  0  0  0  0  0  0  0  0  0
   -4.0930   19.7480    8.9280 N   0  0  0  0  0  0  0  0  0  0  0  0
   -2.5630   21.4530    8.4820 N   0  0  0  0  0  0  0  0  0  0  0  0
   -2.1730   22.7620    8.0280 C   0  0  0  0  0  0  0  0  0  0  0  0
   -0.9830   23.0640    8.0750 O   0  0  0  0  0  0  0  0  0  0  0  0
   -3.2620   23.5610    7.5370 C   0  0  0  0  0  0  0  0  0  0  0  0
   -4.5880   23.0840    7.5370 C   0  0  0  0  0  0  0  0  0  0  0  0
   -2.9810   24.9140    7.0430 N   0  0  0  0  0  0  0  0  0  0  0  0
   -5.6180   23.8380    7.0670 N   0  0  0  0  0  0  0  0  0  0  0  0
   -4.1690   25.8890    7.1640 C   0  0  2  0  0  0  0  0  0  0  0  0
   -5.4140   25.2270    6.5510 C   0  0  0  0  0  0  0  0  0  0  0  0
   -3.6450   27.2240    6.5110 C   0  0  1  0  0  0  0  0  0  0  0  0
   -3.2290   27.0210    5.1550 O   0  0  0  0  0  0  0  0  0  0  0  0
   -4.6780   28.4220    6.4860 C   0  0  2  0  0  0  0  0  0  0  0  0
   -5.1480   28.8270    7.8510 C   0  0  0  0  0  0  0  0  0  0  0  0
   -5.7800   28.0280    5.6620 O   0  0  0  0  0  0  0  0  0  0  0  0
   -3.3167   19.1698    9.2801 H   0  0  0  0  0  0  0  0  0  0  0  0
   -5.0527   19.3740    8.9232 H   0  0  0  0  0  0  0  0  0  0  0  0
   -1.8213   20.8303    8.8327 H   0  0  0  0  0  0  0  0  0  0  0  0
   -2.0694   25.1883    6.6497 H   0  0  0  0  0  0  0  0  0  0  0  0
   -6.5680   23.4400    7.0664 H   0  0  0  0  0  0  0  0  0  0  0  0
   -4.5041   26.1355    8.1823 H   0  0  0  0  0  0  0  0  0  0  0  0
   -5.2937   25.1864    5.4584 H   0  0  0  0  0  0  0  0  0  0  0  0
   -6.2922   25.8272    6.8311 H   0  0  0  0  0  0  0  0  0  0  0  0
   -2.8092   27.5025    7.1697 H   0  0  0  0  0  0  0  0  0  0  0  0
   -2.3393   26.5869    5.1442 H   0  0  0  0  0  0  0  0  0  0  0  0
   -4.1759   29.3113    6.0772 H   0  0  0  0  0  0  0  0  0  0  0  0
   -4.5477   28.3097    8.6139 H   0  0  0  0  0  0  0  0  0  0  0  0
   -5.0343   29.9146    7.9702 H   0  0  0  0  0  0  0  0  0  0  0  0
   -6.2068   28.5538    7.9702 H   0  0  0  0  0  0  0  0  0  0  0  0
   -6.5401   27.7563    6.2352 H   0  0  0  0  0  0  0  0  0  0  0  0
  1  2  2  0
  2  3  1  0
  2  4  1  0
  4  5  1  0
  5  6  2  0
  5  7  1  0
  1  8  1  0
  7  8  2  0
  7  9  1  0
  8 10  1  0
  9 11  1  0
 10 12  1  0
 11 12  1  0
 11 13  1  0
 13 14  1  0
 13 15  1  0
 15 16  1  0
 15 17  1  0
  3 18  1  0
  3 19  1  0
  4 20  1  0
  9 21  1  0
 10 22  1  0
 11 23  1  1
 12 24  1  0
 12 25  1  0
 13 26  1  1
 14 27  1  0
 15 28  1  6
 16 29  1  0
 16 30  1  0
 16 31  1  0
 17 32  1  0
M  END
>  <PDBID>  (1) 
1KW0

>  <PDB ID>  (1) 
1KW0

>  <Generic Name>  (1) 
Sapropterin

>  <Brand Name>  (1) 
Kuvan#BH4#Biopten

>  <DrugBank ID>  (1) 
DB00360

>  <ATC Codes>  (1) 
A16AX07

>  <Ligand ID>  (1) 
BH4,BHS,H4B,THB

>  <Target Name>  (1) 
Tryptophan 5-hydroxylase 1

>  <UniProt ID>  (1) 
P17752

>  <PDB ID.1>  (1) 
1KW0

>  <Seq. Identity>  (1) 
65%

$$$$
