PDB_DB00570_98
     RDKit          3D

117125  0  0  0  0  0  0  0  0999 V2000
   -3.6890   28.2060   19.5360 C   0  0  0  0  0  0  0  0  0  0  0  0
   -4.4210   28.9120   18.4090 C   0  0  0  0  0  0  0  0  0  0  0  0
   -3.5820   29.9850   17.7340 C   0  0  1  0  0  0  0  0  0  0  0  0
   -2.6100   29.3350   16.9390 O   0  0  0  0  0  0  0  0  0  0  0  0
   -4.5190   30.7770   16.8370 C   0  0  0  0  0  0  0  0  0  0  0  0
   -2.9720   30.8320   18.7790 C   0  0  0  0  0  0  0  0  0  0  0  0
   -2.3010   32.0920   18.2060 C   0  0  1  0  0  0  0  0  0  0  0  0
   -0.8690   31.7560   17.6780 C   0  0  0  0  0  0  0  0  0  0  0  0
   -3.2300   32.8430   17.2310 C   0  0  0  0  0  0  0  0  0  0  0  0
   -3.9910   32.0310   16.2630 N   0  0  0  0  0  0  0  0  0  0  0  0
   -3.3570   31.8920   14.9140 C   0  0  0  0  0  0  0  0  0  0  0  0
   -1.7670   31.6720   14.8540 C   0  0  0  0  0  0  0  0  0  0  0  0
   -0.9920   32.8840   14.8170 C   0  0  0  0  0  0  0  0  0  0  0  0
   -0.9050   33.7260   13.7560 C   0  0  0  0  0  0  0  0  0  0  0  0
   -1.4730   33.6980   12.5260 C   0  0  0  0  0  0  0  0  0  0  0  0
   -1.2490   34.6690   11.5680 C   0  0  0  0  0  0  0  0  0  0  0  0
   -0.3980   35.7090   11.9180 C   0  0  0  0  0  0  0  0  0  0  0  0
    0.1760   35.7420   13.1980 C   0  0  0  0  0  0  0  0  0  0  0  0
   -0.1080   34.7460   14.0820 C   0  0  0  0  0  0  0  0  0  0  0  0
    0.2860   34.5350   15.3470 N   0  0  0  0  0  0  0  0  0  0  0  0
   -0.2450   33.4200   15.8430 C   0  0  0  0  0  0  0  0  0  0  0  0
    0.0290   32.9320   17.1730 C   0  0  2  0  0  0  0  0  0  0  0  0
    1.3930   32.4540   17.0480 C   0  0  0  0  0  0  0  0  0  0  0  0
    1.6460   31.3160   16.6550 O   0  0  0  0  0  0  0  0  0  0  0  0
    2.3770   33.3920   17.2970 O   0  0  0  0  0  0  0  0  0  0  0  0
    3.6890   33.0360   16.9110 C   0  0  0  0  0  0  0  0  0  0  0  0
   -0.0970   33.9190   18.2260 C   0  0  0  0  0  0  0  0  0  0  0  0
   -0.9380   35.0370   18.1860 C   0  0  0  0  0  0  0  0  0  0  0  0
   -1.0800   35.9150   19.1940 C   0  0  0  0  0  0  0  0  0  0  0  0
   -1.9340   37.0290   19.3620 C   0  0  1  0  0  0  0  0  0  0  0  0
   -2.0800   37.9950   18.2250 C   0  0  1  0  0  0  0  0  0  0  0  0
   -3.3540   36.4070   19.3220 C   0  0  0  0  0  0  0  0  0  0  0  0
   -4.2760   37.6210   19.1720 C   0  0  0  0  0  0  0  0  0  0  0  0
   -3.5680   38.3550   18.1740 N   0  0  0  0  0  0  0  0  0  0  0  0
   -3.9300   39.7510   18.0820 C   0  0  0  0  0  0  0  0  0  0  0  0
   -2.9390   40.3930   17.1110 C   0  0  0  0  0  0  0  0  0  0  0  0
   -1.5510   40.4800   17.7680 C   0  0  0  0  0  0  0  0  0  0  0  0
   -1.0320   39.1260   18.1960 C   0  0  2  0  0  0  0  0  0  0  0  0
    0.0150   38.7120   17.2160 C   0  0  0  0  0  0  0  0  0  0  0  0
   -0.5290   38.5420   15.7910 C   0  0  0  0  0  0  0  0  0  0  0  0
   -0.2990   39.2120   19.5150 C   0  0  1  0  0  0  0  0  0  0  0  0
    0.3580   40.4640   19.5300 O   0  0  0  0  0  0  0  0  0  0  0  0
    1.7220   40.6180   19.5730 C   0  0  0  0  0  0  0  0  0  0  0  0
    2.6380   39.3810   19.4380 C   0  0  0  0  0  0  0  0  0  0  0  0
    2.2290   41.7400   19.7130 O   0  0  0  0  0  0  0  0  0  0  0  0
   -1.2570   39.0070   20.7480 C   0  0  1  0  0  0  0  0  0  0  0  0
   -0.5270   39.3480   22.0670 C   0  0  0  0  0  0  0  0  0  0  0  0
   -1.0390   39.9710   22.9780 O   0  0  0  0  0  0  0  0  0  0  0  0
    0.7430   38.9220   22.1180 O   0  0  0  0  0  0  0  0  0  0  0  0
    1.5850   39.5580   23.0910 C   0  0  0  0  0  0  0  0  0  0  0  0
   -2.4110   39.7940   20.6440 O   0  0  0  0  0  0  0  0  0  0  0  0
   -1.6930   37.5840   20.7660 C   0  0  2  0  0  0  0  0  0  0  0  0
   -0.6160   36.6950   21.2590 N   0  0  0  0  0  0  0  0  0  0  0  0
   -0.7260   36.2720   22.6840 C   0  0  0  0  0  0  0  0  0  0  0  0
   -0.4200   35.7210   20.3460 C   0  0  0  0  0  0  0  0  0  0  0  0
    0.4190   34.6820   20.4510 C   0  0  0  0  0  0  0  0  0  0  0  0
    0.5830   33.7580   19.4260 C   0  0  0  0  0  0  0  0  0  0  0  0
    1.3950   32.6540   19.5120 O   0  0  0  0  0  0  0  0  0  0  0  0
    2.4710   32.7200   20.4730 C   0  0  0  0  0  0  0  0  0  0  0  0
   -4.0664   28.5700   20.5030 H   0  0  0  0  0  0  0  0  0  0  0  0
   -3.8586   27.1218   19.4608 H   0  0  0  0  0  0  0  0  0  0  0  0
   -2.6116   28.4147   19.4608 H   0  0  0  0  0  0  0  0  0  0  0  0
   -4.7065   28.1643   17.6544 H   0  0  0  0  0  0  0  0  0  0  0  0
   -5.2984   29.4092   18.8482 H   0  0  0  0  0  0  0  0  0  0  0  0
   -1.9469   28.8916   17.5253 H   0  0  0  0  0  0  0  0  0  0  0  0
   -4.8090   30.1245   16.0003 H   0  0  0  0  0  0  0  0  0  0  0  0
   -5.3484   31.0866   17.4898 H   0  0  0  0  0  0  0  0  0  0  0  0
   -3.7576   31.1415   19.4840 H   0  0  0  0  0  0  0  0  0  0  0  0
   -2.1914   30.2366   19.2751 H   0  0  0  0  0  0  0  0  0  0  0  0
   -2.1367   32.8264   19.0083 H   0  0  0  0  0  0  0  0  0  0  0  0
   -0.3273   31.2612   18.4976 H   0  0  0  0  0  0  0  0  0  0  0  0
   -1.0467   31.1451   16.7807 H   0  0  0  0  0  0  0  0  0  0  0  0
   -3.9573   33.4059   17.8345 H   0  0  0  0  0  0  0  0  0  0  0  0
   -2.5569   33.4589   16.6165 H   0  0  0  0  0  0  0  0  0  0  0  0
   -3.8267   31.0299   14.4178 H   0  0  0  0  0  0  0  0  0  0  0  0
   -3.5209   32.8655   14.4287 H   0  0  0  0  0  0  0  0  0  0  0  0
   -1.4666   31.1005   15.7446 H   0  0  0  0  0  0  0  0  0  0  0  0
   -1.5623   31.1441   13.9109 H   0  0  0  0  0  0  0  0  0  0  0  0
   -2.1444   32.8627   12.2781 H   0  0  0  0  0  0  0  0  0  0  0  0
   -1.7221   34.6202   10.5761 H   0  0  0  0  0  0  0  0  0  0  0  0
   -0.1743   36.5055   11.1931 H   0  0  0  0  0  0  0  0  0  0  0  0
    0.8485   36.5640   13.4844 H   0  0  0  0  0  0  0  0  0  0  0  0
    0.9196   35.1575   15.8685 H   0  0  0  0  0  0  0  0  0  0  0  0
    4.3028   32.8695   17.8085 H   0  0  0  0  0  0  0  0  0  0  0  0
    3.6575   32.1139   16.3120 H   0  0  0  0  0  0  0  0  0  0  0  0
    4.1279   33.8475   16.3120 H   0  0  0  0  0  0  0  0  0  0  0  0
   -1.5213   35.2086   17.2693 H   0  0  0  0  0  0  0  0  0  0  0  0
   -1.8130   37.5501   17.2551 H   0  0  0  0  0  0  0  0  0  0  0  0
   -3.4600   35.7253   18.4652 H   0  0  0  0  0  0  0  0  0  0  0  0
   -3.5819   35.8053   20.2142 H   0  0  0  0  0  0  0  0  0  0  0  0
   -5.2797   37.3302   18.8284 H   0  0  0  0  0  0  0  0  0  0  0  0
   -4.4653   38.1741   20.1038 H   0  0  0  0  0  0  0  0  0  0  0  0
   -4.9565   39.8531   17.7002 H   0  0  0  0  0  0  0  0  0  0  0  0
   -3.8930   40.2375   19.0679 H   0  0  0  0  0  0  0  0  0  0  0  0
   -3.1819   40.7402   16.0959 H   0  0  0  0  0  0  0  0  0  0  0  0
   -0.9987   41.4206   17.9103 H   0  0  0  0  0  0  0  0  0  0  0  0
    0.8034   39.4790   17.2008 H   0  0  0  0  0  0  0  0  0  0  0  0
    0.3992   37.7335   17.5397 H   0  0  0  0  0  0  0  0  0  0  0  0
   -1.5781   38.2142   15.8357 H   0  0  0  0  0  0  0  0  0  0  0  0
   -0.4673   39.5023   15.2580 H   0  0  0  0  0  0  0  0  0  0  0  0
    0.0685   37.7877   15.2580 H   0  0  0  0  0  0  0  0  0  0  0  0
    0.4343   38.3973   19.6073 H   0  0  0  0  0  0  0  0  0  0  0  0
    2.9093   39.0146   20.4391 H   0  0  0  0  0  0  0  0  0  0  0  0
    2.1066   38.5894   18.8894 H   0  0  0  0  0  0  0  0  0  0  0  0
    3.5502   39.6584   18.8894 H   0  0  0  0  0  0  0  0  0  0  0  0
    1.2391   39.2967   24.1020 H   0  0  0  0  0  0  0  0  0  0  0  0
    2.6219   39.2157   22.9583 H   0  0  0  0  0  0  0  0  0  0  0  0
    1.5393   40.6490   22.9583 H   0  0  0  0  0  0  0  0  0  0  0  0
   -2.7401   40.0185   21.5503 H   0  0  0  0  0  0  0  0  0  0  0  0
   -2.5972   37.5916   21.3924 H   0  0  0  0  0  0  0  0  0  0  0  0
   -0.5035   37.1275   23.3387 H   0  0  0  0  0  0  0  0  0  0  0  0
   -1.7471   35.9142   22.8825 H   0  0  0  0  0  0  0  0  0  0  0  0
   -0.0086   35.4621   22.8825 H   0  0  0  0  0  0  0  0  0  0  0  0
    0.9968   34.5561   21.3785 H   0  0  0  0  0  0  0  0  0  0  0  0
    2.0554   32.6945   21.4911 H   0  0  0  0  0  0  0  0  0  0  0  0
    3.1436   31.8614   20.3299 H   0  0  0  0  0  0  0  0  0  0  0  0
    3.0336   33.6543   20.3299 H   0  0  0  0  0  0  0  0  0  0  0  0
  1  2  1  0
  2  3  1  0
  3  4  1  6
  3  5  1  0
  3  6  1  0
  6  7  1  0
  7  8  1  0
  7  9  1  0
  5 10  1  0
  9 10  1  0
 10 11  1  0
 11 12  1  0
 12 13  1  0
 13 14  1  0
 14 15  1  0
 15 16  2  0
 16 17  1  0
 17 18  2  0
 14 19  2  0
 18 19  1  0
 19 20  1  0
 13 21  2  0
 20 21  1  0
  8 22  1  0
 21 22  1  0
 22 23  1  6
 23 24  2  0
 23 25  1  0
 25 26  1  0
 22 27  1  0
 27 28  2  0
 28 29  1  0
 29 30  1  0
 30 31  1  0
 30 32  1  1
 32 33  1  0
 31 34  1  0
 33 34  1  0
 34 35  1  0
 35 36  1  0
 36 37  2  0
 31 38  1  0
 37 38  1  0
 38 39  1  6
 39 40  1  0
 38 41  1  0
 41 42  1  0
 42 43  1  0
 43 44  1  0
 43 45  2  0
 41 46  1  0
 46 47  1  0
 47 48  2  0
 47 49  1  0
 49 50  1  0
 46 51  1  6
 30 52  1  0
 46 52  1  0
 52 53  1  0
 53 54  1  0
 29 55  2  0
 53 55  1  0
 55 56  1  0
 27 57  1  0
 56 57  2  0
 57 58  1  0
 58 59  1  0
  1 60  1  0
  1 61  1  0
  1 62  1  0
  2 63  1  0
  2 64  1  0
  4 65  1  0
  5 66  1  0
  5 67  1  0
  6 68  1  0
  6 69  1  0
  7 70  1  1
  8 71  1  0
  8 72  1  0
  9 73  1  0
  9 74  1  0
 11 75  1  0
 11 76  1  0
 12 77  1  0
 12 78  1  0
 15 79  1  0
 16 80  1  0
 17 81  1  0
 18 82  1  0
 20 83  1  0
 26 84  1  0
 26 85  1  0
 26 86  1  0
 28 87  1  0
 31 88  1  6
 32 89  1  0
 32 90  1  0
 33 91  1  0
 33 92  1  0
 35 93  1  0
 35 94  1  0
 36 95  1  0
 37 96  1  0
 39 97  1  0
 39 98  1  0
 40 99  1  0
 40100  1  0
 40101  1  0
 41102  1  6
 44103  1  0
 44104  1  0
 44105  1  0
 50106  1  0
 50107  1  0
 50108  1  0
 51109  1  0
 52110  1  1
 54111  1  0
 54112  1  0
 54113  1  0
 56114  1  0
 59115  1  0
 59116  1  0
 59117  1  0
M  END
>  <PDBID>  (1) 
5BMV

>  <PDB ID>  (1) 
5BMV

>  <Generic Name>  (1) 
Vinblastine

>  <Brand Name>  (1) 
Velbe 1mg/ml#Vinblastine Sulfate#Vinblastine Sulfate Inj 1mg/ml#Vinblastine Sulfate Injection#Vinblastine Sulphate Injection#Blastivin#Cytoblastin#Lemblastine#Oncostin#Velban#Velbastin#Velbe#Vinblasin#Vinblastin#Vinko#Weibaoding#Xintoprost

>  <DrugBank ID>  (1) 
DB00570

>  <ATC Codes>  (1) 
L01CA01

>  <Ligand ID>  (1) 
VLB

>  <Target Name>  (1) 
Tubulin beta chain

>  <UniProt ID>  (1) 
P07437

>  <PDB ID.1>  (1) 
5BMV

>  <Seq. Identity>  (1) 
93%

$$$$
