PDB_DB00328_99
     RDKit          3D

 41 43  0  0  0  0  0  0  0  0999 V2000
   24.4300   22.5620   15.7290 C   0  0  0  0  0  0  0  0  0  0  0  0
   24.6130   21.6270   16.7660 C   0  0  0  0  0  0  0  0  0  0  0  0
   23.4840   20.9760   17.3480 C   0  0  0  0  0  0  0  0  0  0  0  0
   22.1610   21.2580   16.9000 C   0  0  0  0  0  0  0  0  0  0  0  0
   21.9650   22.2130   15.8370 C   0  0  0  0  0  0  0  0  0  0  0  0
   23.1000   22.8630   15.2550 C   0  0  0  0  0  0  0  0  0  0  0  0
   19.7380   21.0300   17.1770 C   0  0  0  0  0  0  0  0  0  0  0  0
   26.1130   21.5610   16.9930 C   0  0  0  0  0  0  0  0  0  0  0  0
   26.6830   22.4120   16.1370 C   0  0  0  0  0  0  0  0  0  0  0  0
   26.0230   24.0190   14.5170 C   0  0  0  0  0  0  0  0  0  0  0  0
   25.6030   23.9870   13.0580 C   0  0  0  0  0  0  0  0  0  0  0  0
   25.6130   25.1840   12.3130 C   0  0  0  0  0  0  0  0  0  0  0  0
   25.2400   25.1990   10.9540 C   0  0  0  0  0  0  0  0  0  0  0  0
   24.8640   24.0480   10.3300 C   0  0  0  0  0  0  0  0  0  0  0  0
   24.8410   22.8530   11.0520 C   0  0  0  0  0  0  0  0  0  0  0  0
   25.2170   22.8220   12.4340 C   0  0  0  0  0  0  0  0  0  0  0  0
   28.1450   22.6380   16.0440 C   0  0  0  0  0  0  0  0  0  0  0  0
   26.8760   20.7210   18.0620 C   0  0  0  0  0  0  0  0  0  0  0  0
   26.3280   19.2970   18.1950 C   0  0  0  0  0  0  0  0  0  0  0  0
   25.7500   23.0430   15.3710 N   0  0  0  0  0  0  0  0  0  0  0  0
   21.0600   20.6030   17.5140 O   0  0  0  0  0  0  0  0  0  0  0  0
   26.6270   24.9820   14.9450 O   0  0  0  0  0  0  0  0  0  0  0  0
   25.5030   18.8650   17.4260 O   0  0  0  0  0  0  0  0  0  0  0  0
   26.7530   18.5340   19.1350 O   0  0  0  0  0  0  0  0  0  0  0  0
   24.4880   24.0690    8.6490 Cl  0  0  0  0  0  0  0  0  0  0  0  0
   23.6376   20.2448   18.1553 H   0  0  0  0  0  0  0  0  0  0  0  0
   20.9510   22.4402   15.4762 H   0  0  0  0  0  0  0  0  0  0  0  0
   22.9584   23.5934   14.4448 H   0  0  0  0  0  0  0  0  0  0  0  0
   19.1663   21.2147   18.0984 H   0  0  0  0  0  0  0  0  0  0  0  0
   19.7913   21.9566   16.5866 H   0  0  0  0  0  0  0  0  0  0  0  0
   19.2392   20.2473   16.5866 H   0  0  0  0  0  0  0  0  0  0  0  0
   25.9170   26.1219   12.8007 H   0  0  0  0  0  0  0  0  0  0  0  0
   25.2526   26.1457   10.3939 H   0  0  0  0  0  0  0  0  0  0  0  0
   24.5301   21.9233   10.5531 H   0  0  0  0  0  0  0  0  0  0  0  0
   25.1975   21.8745   12.9924 H   0  0  0  0  0  0  0  0  0  0  0  0
   28.5709   22.7038   17.0560 H   0  0  0  0  0  0  0  0  0  0  0  0
   28.6117   21.8013   15.5035 H   0  0  0  0  0  0  0  0  0  0  0  0
   28.3373   23.5765   15.5035 H   0  0  0  0  0  0  0  0  0  0  0  0
   27.9363   20.6648   17.7745 H   0  0  0  0  0  0  0  0  0  0  0  0
   26.7443   21.2202   19.0333 H   0  0  0  0  0  0  0  0  0  0  0  0
   26.4001   17.6132   19.2228 H   0  0  0  0  0  0  0  0  0  0  0  0
  1  2  1  0
  2  3  2  0
  3  4  1  0
  4  5  2  0
  1  6  2  0
  5  6  1  0
  2  8  1  0
  8  9  2  0
 10 11  1  0
 11 12  2  0
 12 13  1  0
 13 14  2  0
 14 15  1  0
 11 16  1  0
 15 16  2  0
  9 17  1  0
  8 18  1  0
 18 19  1  0
  1 20  1  0
  9 20  1  0
 10 20  1  0
  4 21  1  0
  7 21  1  0
 10 22  2  0
 19 23  2  0
 19 24  1  0
 14 25  1  0
  3 26  1  0
  5 27  1  0
  6 28  1  0
  7 29  1  0
  7 30  1  0
  7 31  1  0
 12 32  1  0
 13 33  1  0
 15 34  1  0
 16 35  1  0
 17 36  1  0
 17 37  1  0
 17 38  1  0
 18 39  1  0
 18 40  1  0
 24 41  1  0
M  END
$$$$
