PDB_DB01601_97
     RDKit          3D

 94 97  0  0  0  0  0  0  0  0999 V2000
  -14.6170   58.9170   10.9060 C   0  0  0  0  0  0  0  0  0  0  0  0
  -14.9180   56.6930    9.6780 C   0  0  0  0  0  0  0  0  0  0  0  0
  -13.4650   56.7080    9.4710 N   0  0  0  0  0  0  0  0  0  0  0  0
  -12.6670   57.6800    9.8870 C   0  0  0  0  0  0  0  0  0  0  0  0
  -13.2170   58.6980   10.5600 N   0  0  0  0  0  0  0  0  0  0  0  0
  -12.9540   51.0240    3.7080 C   0  0  0  0  0  0  0  0  0  0  0  0
  -12.5850   50.0330    2.7930 C   0  0  0  0  0  0  0  0  0  0  0  0
  -13.5170   49.0920    2.3400 C   0  0  0  0  0  0  0  0  0  0  0  0
  -14.8260   49.1410    2.8020 C   0  0  0  0  0  0  0  0  0  0  0  0
  -15.1930   50.1230    3.7250 C   0  0  0  0  0  0  0  0  0  0  0  0
  -14.2710   51.0660    4.1780 C   0  0  0  0  0  0  0  0  0  0  0  0
  -11.4670   57.6290    9.6740 O   0  0  0  0  0  0  0  0  0  0  0  0
  -12.9170   55.5820    8.6970 C   0  0  2  0  0  0  0  0  0  0  0  0
  -13.3970   55.7490    7.2770 C   0  0  0  0  0  0  0  0  0  0  0  0
  -12.5230   56.3260    6.4370 N   0  0  0  0  0  0  0  0  0  0  0  0
  -12.8350   56.5810    5.0280 C   0  0  1  0  0  0  0  0  0  0  0  0
  -13.3000   54.2100    9.2810 C   0  0  0  0  0  0  0  0  0  0  0  0
  -12.8490   53.0460    8.4060 C   0  0  0  0  0  0  0  0  0  0  0  0
  -12.7500   53.9950   10.6880 C   0  0  0  0  0  0  0  0  0  0  0  0
  -14.5330   55.3970    6.9640 O   0  0  0  0  0  0  0  0  0  0  0  0
  -16.0270   59.5560    6.2880 C   0  0  0  0  0  0  0  0  0  0  0  0
  -15.5640   60.3360    7.3470 C   0  0  0  0  0  0  0  0  0  0  0  0
  -14.1970   60.3960    7.6000 C   0  0  0  0  0  0  0  0  0  0  0  0
  -13.3150   59.6720    6.7890 C   0  0  0  0  0  0  0  0  0  0  0  0
  -13.7810   58.8810    5.7300 C   0  0  0  0  0  0  0  0  0  0  0  0
  -15.1520   58.8360    5.4780 C   0  0  0  0  0  0  0  0  0  0  0  0
  -12.7890   58.1080    4.8660 C   0  0  0  0  0  0  0  0  0  0  0  0
  -11.7220   55.9580    4.1660 C   0  0  0  0  0  0  0  0  0  0  0  0
  -11.3400   54.4980    4.4610 C   0  0  1  0  0  0  0  0  0  0  0  0
  -12.3670   53.4660    3.9830 C   0  0  1  0  0  0  0  0  0  0  0  0
  -12.5260   53.5790    2.5330 N   0  0  0  0  0  0  0  0  0  0  0  0
  -13.6880   54.0170    2.0320 C   0  0  0  0  0  0  0  0  0  0  0  0
  -13.8340   54.1130    0.5290 C   0  0  0  0  0  0  0  0  0  0  0  0
  -12.6990   53.5740   -0.1450 O   0  0  0  0  0  0  0  0  0  0  0  0
  -12.8110   53.1830   -1.4520 C   0  0  0  0  0  0  0  0  0  0  0  0
  -10.0960   54.2220    3.8470 O   0  0  0  0  0  0  0  0  0  0  0  0
  -11.9130   52.0240    4.1880 C   0  0  0  0  0  0  0  0  0  0  0  0
  -14.6300   54.3510    2.7390 O   0  0  0  0  0  0  0  0  0  0  0  0
  -12.9250   54.1510   -2.4480 C   0  0  0  0  0  0  0  0  0  0  0  0
  -13.0420   53.7690   -3.7890 C   0  0  0  0  0  0  0  0  0  0  0  0
  -13.0500   52.4230   -4.1400 C   0  0  0  0  0  0  0  0  0  0  0  0
  -12.9320   51.4590   -3.1360 C   0  0  0  0  0  0  0  0  0  0  0  0
  -12.8120   51.8340   -1.7970 C   0  0  0  0  0  0  0  0  0  0  0  0
  -12.6960   50.7570   -0.7500 C   0  0  0  0  0  0  0  0  0  0  0  0
  -12.9210   55.6170   -2.0870 C   0  0  0  0  0  0  0  0  0  0  0  0
  -15.2250   57.5110   10.9490 C   0  0  0  0  0  0  0  0  0  0  0  0
  -14.7031   59.4082   11.8865 H   0  0  0  0  0  0  0  0  0  0  0  0
  -15.1286   59.5726   10.1860 H   0  0  0  0  0  0  0  0  0  0  0  0
  -15.4235   57.1448    8.8118 H   0  0  0  0  0  0  0  0  0  0  0  0
  -15.2779   55.6598    9.7914 H   0  0  0  0  0  0  0  0  0  0  0  0
  -12.5617   59.4267   10.8770 H   0  0  0  0  0  0  0  0  0  0  0  0
  -11.5493   49.9924    2.4246 H   0  0  0  0  0  0  0  0  0  0  0  0
  -13.2139   48.3167    1.6209 H   0  0  0  0  0  0  0  0  0  0  0  0
  -15.5679   48.4121    2.4438 H   0  0  0  0  0  0  0  0  0  0  0  0
  -16.2264   50.1530    4.1008 H   0  0  0  0  0  0  0  0  0  0  0  0
  -14.5771   51.8375    4.8999 H   0  0  0  0  0  0  0  0  0  0  0  0
  -11.8180   55.6002    8.7396 H   0  0  0  0  0  0  0  0  0  0  0  0
  -11.5976   56.6000    6.7967 H   0  0  0  0  0  0  0  0  0  0  0  0
  -13.8077   56.1628    4.7298 H   0  0  0  0  0  0  0  0  0  0  0  0
  -14.3992   54.2261    9.3189 H   0  0  0  0  0  0  0  0  0  0  0  0
  -12.5255   52.2110    9.0448 H   0  0  0  0  0  0  0  0  0  0  0  0
  -13.6855   52.7191    7.7709 H   0  0  0  0  0  0  0  0  0  0  0  0
  -12.0106   53.3680    7.7709 H   0  0  0  0  0  0  0  0  0  0  0  0
  -13.5085   54.2915   11.4274 H   0  0  0  0  0  0  0  0  0  0  0  0
  -12.4995   52.9328   10.8254 H   0  0  0  0  0  0  0  0  0  0  0  0
  -11.8455   54.6058   10.8254 H   0  0  0  0  0  0  0  0  0  0  0  0
  -17.1076   59.5082    6.0877 H   0  0  0  0  0  0  0  0  0  0  0  0
  -16.2712   60.8974    7.9752 H   0  0  0  0  0  0  0  0  0  0  0  0
  -13.8127   61.0070    8.4301 H   0  0  0  0  0  0  0  0  0  0  0  0
  -12.2343   59.7250    6.9869 H   0  0  0  0  0  0  0  0  0  0  0  0
  -15.5407   58.2344    4.6431 H   0  0  0  0  0  0  0  0  0  0  0  0
  -11.7752   58.4477    5.1245 H   0  0  0  0  0  0  0  0  0  0  0  0
  -13.0672   58.3137    3.8218 H   0  0  0  0  0  0  0  0  0  0  0  0
  -12.0480   56.0094    3.1167 H   0  0  0  0  0  0  0  0  0  0  0  0
  -10.8197   56.5410    4.4026 H   0  0  0  0  0  0  0  0  0  0  0  0
  -11.2943   54.4036    5.5560 H   0  0  0  0  0  0  0  0  0  0  0  0
  -13.2794   53.6726    4.5616 H   0  0  0  0  0  0  0  0  0  0  0  0
  -11.7516   53.3241    1.9036 H   0  0  0  0  0  0  0  0  0  0  0  0
  -14.7303   53.5545    0.2212 H   0  0  0  0  0  0  0  0  0  0  0  0
  -13.9210   55.1759    0.2594 H   0  0  0  0  0  0  0  0  0  0  0  0
   -9.4102   54.0699    4.5446 H   0  0  0  0  0  0  0  0  0  0  0  0
  -11.7297   51.8586    5.2599 H   0  0  0  0  0  0  0  0  0  0  0  0
  -10.9971   51.8696    3.5987 H   0  0  0  0  0  0  0  0  0  0  0  0
  -13.1282   54.5381   -4.5707 H   0  0  0  0  0  0  0  0  0  0  0  0
  -13.1479   52.1219   -5.1935 H   0  0  0  0  0  0  0  0  0  0  0  0
  -12.9337   50.3921   -3.4038 H   0  0  0  0  0  0  0  0  0  0  0  0
  -12.7450   51.2115    0.2505 H   0  0  0  0  0  0  0  0  0  0  0  0
  -13.5222   50.0404   -0.8680 H   0  0  0  0  0  0  0  0  0  0  0  0
  -11.7362   50.2327   -0.8680 H   0  0  0  0  0  0  0  0  0  0  0  0
  -12.9207   55.7251   -0.9923 H   0  0  0  0  0  0  0  0  0  0  0  0
  -12.0215   56.0946   -2.5028 H   0  0  0  0  0  0  0  0  0  0  0  0
  -13.8178   56.0995   -2.5028 H   0  0  0  0  0  0  0  0  0  0  0  0
  -14.8159   56.9767   11.8192 H   0  0  0  0  0  0  0  0  0  0  0  0
  -16.3172   57.6223   11.0179 H   0  0  0  0  0  0  0  0  0  0  0  0
  2  3  1  0
  3  4  1  0
  1  5  1  0
  4  5  1  0
  6  7  2  0
  7  8  1  0
  8  9  2  0
  9 10  1  0
  6 11  1  0
 10 11  2  0
  4 12  2  0
  3 13  1  0
 13 14  1  0
 14 15  1  0
 15 16  1  0
 13 17  1  0
 17 18  1  0
 17 19  1  0
 14 20  2  0
 21 22  2  0
 22 23  1  0
 23 24  2  0
 24 25  1  0
 21 26  1  0
 25 26  2  0
 16 27  1  0
 25 27  1  0
 16 28  1  0
 28 29  1  0
 29 30  1  0
 30 31  1  0
 31 32  1  0
 32 33  1  0
 33 34  1  0
 34 35  1  0
 29 36  1  0
  6 37  1  0
 30 37  1  0
 32 38  2  0
 35 39  2  0
 39 40  1  0
 40 41  2  0
 41 42  1  0
 35 43  1  0
 42 43  2  0
 43 44  1  0
 39 45  1  0
  1 46  1  0
  2 46  1  0
  1 47  1  0
  1 48  1  0
  2 49  1  0
  2 50  1  0
  5 51  1  0
  7 52  1  0
  8 53  1  0
  9 54  1  0
 10 55  1  0
 11 56  1  0
 13 57  1  6
 15 58  1  0
 16 59  1  6
 17 60  1  0
 18 61  1  0
 18 62  1  0
 18 63  1  0
 19 64  1  0
 19 65  1  0
 19 66  1  0
 21 67  1  0
 22 68  1  0
 23 69  1  0
 24 70  1  0
 26 71  1  0
 27 72  1  0
 27 73  1  0
 28 74  1  0
 28 75  1  0
 29 76  1  1
 30 77  1  1
 31 78  1  0
 33 79  1  0
 33 80  1  0
 36 81  1  0
 37 82  1  0
 37 83  1  0
 40 84  1  0
 41 85  1  0
 42 86  1  0
 44 87  1  0
 44 88  1  0
 44 89  1  0
 45 90  1  0
 45 91  1  0
 45 92  1  0
 46 93  1  0
 46 94  1  0
M  END
>  <PDBID>  (1) 
2QHC

>  <PDB ID>  (1) 
2QHC

>  <Generic Name>  (1) 
Lopinavir

>  <Brand Name>  (1) 
Kaletra#Lopinavir-ritonavir#Aluviran#Koletra

>  <DrugBank ID>  (1) 
DB01601

>  <ATC Codes>  (1) 
J05AR10

>  <Ligand ID>  (1) 
AB1

>  <Target Name>  (1) 
Pol polyprotein

>  <UniProt ID>  (1) 
Q72874

>  <PDB ID.1>  (1) 
2QHC

>  <Seq. Identity>  (1) 
98%

$$$$
