PDB_DB01273_98
     RDKit          3D

 29 32  0  0  0  0  0  0  0  0999 V2000
   23.2300  -26.4410   16.0050 C   0  0  0  0  0  0  0  0  0  0  0  0
   22.4860  -25.1470   15.7950 N   0  0  0  0  0  0  0  0  0  0  0  0
   23.1500  -24.1130   14.8600 C   0  0  0  0  0  0  0  0  0  0  0  0
   24.6060  -24.1710   14.9110 C   0  0  2  0  0  0  0  0  0  0  0  0
   25.0410  -25.5650   14.6830 C   0  0  0  0  0  0  0  0  0  0  0  0
   24.6950  -26.3270   15.8830 C   0  0  1  0  0  0  0  0  0  0  0  0
   25.0800  -25.3320   16.7840 C   0  0  0  0  0  0  0  0  0  0  0  0
   25.4920  -25.5190   18.1280 C   0  0  0  0  0  0  0  0  0  0  0  0
   25.8660  -24.4160   18.9350 C   0  0  0  0  0  0  0  0  0  0  0  0
   26.2670  -24.6470   20.2520 N   0  0  0  0  0  0  0  0  0  0  0  0
   26.6320  -23.6060   21.0170 C   0  0  0  0  0  0  0  0  0  0  0  0
   26.6190  -22.3130   20.5260 C   0  0  0  0  0  0  0  0  0  0  0  0
   26.2400  -22.1000   19.2490 N   0  0  0  0  0  0  0  0  0  0  0  0
   25.8490  -23.1680   18.4380 C   0  0  0  0  0  0  0  0  0  0  0  0
   25.4290  -22.9420   17.1000 C   0  0  0  0  0  0  0  0  0  0  0  0
   25.0430  -24.0450   16.2730 C   0  0  0  0  0  0  0  0  0  0  0  0
   22.9965  -26.8125   17.0137 H   0  0  0  0  0  0  0  0  0  0  0  0
   22.9007  -27.1256   15.2095 H   0  0  0  0  0  0  0  0  0  0  0  0
   21.5628  -25.3775   15.4008 H   0  0  0  0  0  0  0  0  0  0  0  0
   22.8247  -24.3100   13.8279 H   0  0  0  0  0  0  0  0  0  0  0  0
   22.8425  -23.1116   15.1956 H   0  0  0  0  0  0  0  0  0  0  0  0
   24.9776  -23.4132   14.2056 H   0  0  0  0  0  0  0  0  0  0  0  0
   24.5222  -25.9835   13.8080 H   0  0  0  0  0  0  0  0  0  0  0  0
   26.1230  -25.6102   14.4898 H   0  0  0  0  0  0  0  0  0  0  0  0
   25.1167  -27.3397   15.9638 H   0  0  0  0  0  0  0  0  0  0  0  0
   25.5216  -26.5344   18.5499 H   0  0  0  0  0  0  0  0  0  0  0  0
   26.9478  -23.7849   22.0554 H   0  0  0  0  0  0  0  0  0  0  0  0
   26.9137  -21.4699   21.1681 H   0  0  0  0  0  0  0  0  0  0  0  0
   25.4003  -21.9182   16.6988 H   0  0  0  0  0  0  0  0  0  0  0  0
  1  2  1  0
  2  3  1  0
  3  4  1  0
  4  5  1  0
  1  6  1  0
  5  6  1  0
  6  7  1  0
  7  8  1  0
  8  9  2  0
  9 10  1  0
 10 11  2  0
 11 12  1  0
 12 13  2  0
  9 14  1  0
 13 14  1  0
 14 15  2  0
  4 16  1  0
  7 16  2  0
 15 16  1  0
  1 17  1  0
  1 18  1  0
  2 19  1  0
  3 20  1  0
  3 21  1  0
  4 22  1  6
  5 23  1  0
  5 24  1  0
  6 25  1  1
  8 26  1  0
 11 27  1  0
 12 28  1  0
 15 29  1  0
M  END
$$$$
