PDB_DB00582_97
     RDKit          3D

 39 41  0  0  0  0  0  0  0  0999 V2000
  135.1690  196.9980    6.4980 F   0  0  0  0  0  0  0  0  0  0  0  0
  136.5640  200.2430    4.3560 F   0  0  0  0  0  0  0  0  0  0  0  0
  133.9470  192.4400    6.8870 F   0  0  0  0  0  0  0  0  0  0  0  0
  136.1930  196.1750    2.3690 O   0  0  0  0  0  0  0  0  0  0  0  0
  133.4870  196.8740    3.2030 N   0  0  0  0  0  0  0  0  0  0  0  0
  138.4770  197.8770    2.3180 N   0  0  0  0  0  0  0  0  0  0  0  0
  132.2690  197.4060    3.6440 N   0  0  0  0  0  0  0  0  0  0  0  0
  131.9570  195.4710    2.6470 N   0  0  0  0  0  0  0  0  0  0  0  0
  138.7500  200.0620    1.5160 N   0  0  0  0  0  0  0  0  0  0  0  0
  135.8630  196.6660    3.6730 C   0  0  1  0  0  0  0  0  0  0  0  0
  137.0770  197.3560    4.2840 C   0  0  1  0  0  0  0  0  0  0  0  0
  134.6850  197.6270    3.5720 C   0  0  0  0  0  0  0  0  0  0  0  0
  135.4230  195.5260    4.5420 C   0  0  0  0  0  0  0  0  0  0  0  0
  138.1360  196.3480    4.7150 C   0  0  0  0  0  0  0  0  0  0  0  0
  137.6600  198.3020    3.3050 C   0  0  0  0  0  0  0  0  0  0  0  0
  135.0260  195.7770    5.9520 C   0  0  0  0  0  0  0  0  0  0  0  0
  135.2230  194.2610    4.0040 C   0  0  0  0  0  0  0  0  0  0  0  0
  137.3710  199.7560    3.3970 C   0  0  0  0  0  0  0  0  0  0  0  0
  134.5500  194.7160    6.7120 C   0  0  0  0  0  0  0  0  0  0  0  0
  134.7380  193.2350    4.8060 C   0  0  0  0  0  0  0  0  0  0  0  0
  133.2930  195.6710    2.6570 C   0  0  0  0  0  0  0  0  0  0  0  0
  134.4090  193.4580    6.1390 C   0  0  0  0  0  0  0  0  0  0  0  0
  137.9600  200.5900    2.4560 C   0  0  0  0  0  0  0  0  0  0  0  0
  139.0000  198.7490    1.4480 C   0  0  0  0  0  0  0  0  0  0  0  0
  131.3370  196.5150    3.2420 C   0  0  0  0  0  0  0  0  0  0  0  0
  136.7432  195.3564    2.4541 H   0  0  0  0  0  0  0  0  0  0  0  0
  136.7418  197.9016    5.1784 H   0  0  0  0  0  0  0  0  0  0  0  0
  134.8938  198.3871    2.8048 H   0  0  0  0  0  0  0  0  0  0  0  0
  134.5275  198.1251    4.5400 H   0  0  0  0  0  0  0  0  0  0  0  0
  138.1783  196.3077    5.8134 H   0  0  0  0  0  0  0  0  0  0  0  0
  137.8777  195.3539    4.3213 H   0  0  0  0  0  0  0  0  0  0  0  0
  139.1162  196.6550    4.3213 H   0  0  0  0  0  0  0  0  0  0  0  0
  135.4483  194.0716    2.9441 H   0  0  0  0  0  0  0  0  0  0  0  0
  134.2845  194.8719    7.7681 H   0  0  0  0  0  0  0  0  0  0  0  0
  134.6121  192.2290    4.3793 H   0  0  0  0  0  0  0  0  0  0  0  0
  134.0664  194.9808    2.2889 H   0  0  0  0  0  0  0  0  0  0  0  0
  137.7783  201.6745    2.4839 H   0  0  0  0  0  0  0  0  0  0  0  0
  139.6576  198.3739    0.6500 H   0  0  0  0  0  0  0  0  0  0  0  0
  130.2505  196.6213    3.3767 H   0  0  0  0  0  0  0  0  0  0  0  0
  5  7  1  0
 10  4  1  6
 10 11  1  0
  5 12  1  0
 10 12  1  0
 10 13  1  0
 11 14  1  0
  6 15  2  0
 11 15  1  0
  1 16  1  0
 13 16  2  0
 13 17  1  0
  2 18  1  0
 15 18  1  0
 16 19  1  0
 17 20  2  0
  5 21  1  0
 21  8  2  0
  3 22  1  0
 19 22  2  0
 20 22  1  0
  9 23  1  0
 18 23  2  0
  6 24  1  0
  9 24  2  0
  7 25  2  0
 25  8  1  0
  4 26  1  0
 11 27  1  1
 12 28  1  0
 12 29  1  0
 14 30  1  0
 14 31  1  0
 14 32  1  0
 17 33  1  0
 19 34  1  0
 20 35  1  0
 21 36  1  0
 23 37  1  0
 24 38  1  0
 25 39  1  0
M  END
$$$$
