PDB_DB00619_95
     RDKit          3D

376392  0  0  0  0  0  0  0  0999 V2000
   22.8270   11.7250   13.7800 C   0  0  0  0  0  0  0  0  0  0  0  0
   22.0360   12.1770   14.8390 C   0  0  0  0  0  0  0  0  0  0  0  0
   20.6680   11.8090   14.9590 C   0  0  0  0  0  0  0  0  0  0  0  0
   20.1400   11.0010   13.9470 C   0  0  0  0  0  0  0  0  0  0  0  0
   20.8920   10.5700   12.9040 N   0  0  0  0  0  0  0  0  0  0  0  0
   22.1760   10.9310   12.8420 C   0  0  0  0  0  0  0  0  0  0  0  0
   19.7780   12.2610   16.1190 C   0  0  0  0  0  0  0  0  0  0  0  0
   20.2660   12.8280   17.2280 C   0  0  0  0  0  0  0  0  0  0  0  0
   19.3470   13.1770   18.2350 C   0  0  0  0  0  0  0  0  0  0  0  0
   18.0470   12.9440   18.0700 N   0  0  0  0  0  0  0  0  0  0  0  0
   17.5930   12.3830   16.9620 C   0  0  0  0  0  0  0  0  0  0  0  0
   18.4330   12.0210   15.9770 N   0  0  0  0  0  0  0  0  0  0  0  0
   16.2540   12.1250   16.6950 N   0  0  0  0  0  0  0  0  0  0  0  0
   15.3460   12.2710   17.7100 C   0  0  0  0  0  0  0  0  0  0  0  0
   15.2340   11.3050   18.7320 C   0  0  0  0  0  0  0  0  0  0  0  0
   14.2850   11.5390   19.7140 C   0  0  0  0  0  0  0  0  0  0  0  0
   13.4510   12.6990   19.6990 C   0  0  0  0  0  0  0  0  0  0  0  0
   13.5600   13.6330   18.6980 C   0  0  0  0  0  0  0  0  0  0  0  0
   14.5060   13.4010   17.6880 C   0  0  0  0  0  0  0  0  0  0  0  0
   12.6590   14.7350   18.8140 N   0  0  0  0  0  0  0  0  0  0  0  0
   12.5890   15.6820   17.8510 C   0  0  0  0  0  0  0  0  0  0  0  0
   11.4550   16.6420   17.9000 C   0  0  0  0  0  0  0  0  0  0  0  0
   11.0790   17.3300   16.7130 C   0  0  0  0  0  0  0  0  0  0  0  0
   10.0060   18.2850   16.6780 C   0  0  0  0  0  0  0  0  0  0  0  0
    9.2980   18.5360   17.8690 C   0  0  0  0  0  0  0  0  0  0  0  0
    9.6620   17.8540   19.0650 C   0  0  0  0  0  0  0  0  0  0  0  0
   10.7360   16.9080   19.1120 C   0  0  0  0  0  0  0  0  0  0  0  0
    8.1960   19.5290   17.8320 C   0  0  0  0  0  0  0  0  0  0  0  0
    8.1910   20.4060   18.9880 N   0  0  0  0  0  0  0  0  0  0  0  0
    9.4550   21.1520   19.1060 C   0  0  0  0  0  0  0  0  0  0  0  0
    9.4480   22.0490   20.4020 C   0  0  0  0  0  0  0  0  0  0  0  0
    8.1500   22.8120   20.4470 N   0  0  0  0  0  0  0  0  0  0  0  0
    8.1830   23.6190   21.6400 C   0  0  0  0  0  0  0  0  0  0  0  0
    6.9280   22.0290   20.3800 C   0  0  0  0  0  0  0  0  0  0  0  0
    6.9520   21.2300   19.0530 C   0  0  0  0  0  0  0  0  0  0  0  0
   13.3990   15.8030   16.9310 O   0  0  0  0  0  0  0  0  0  0  0  0
   16.0750   10.0530   18.8150 C   0  0  0  0  0  0  0  0  0  0  0  0
   25.7540   63.5930   46.9850 C   0  0  0  0  0  0  0  0  0  0  0  0
   25.0030   63.2180   45.8300 C   0  0  0  0  0  0  0  0  0  0  0  0
   23.6940   63.7260   45.6670 C   0  0  0  0  0  0  0  0  0  0  0  0
   23.1570   64.5960   46.6450 C   0  0  0  0  0  0  0  0  0  0  0  0
   23.8470   64.9730   47.7760 N   0  0  0  0  0  0  0  0  0  0  0  0
   25.1010   64.4620   47.8940 C   0  0  0  0  0  0  0  0  0  0  0  0
   22.8490   63.3700   44.4490 C   0  0  0  0  0  0  0  0  0  0  0  0
   23.3040   62.6940   43.3790 C   0  0  0  0  0  0  0  0  0  0  0  0
   22.4210   62.4410   42.3330 C   0  0  0  0  0  0  0  0  0  0  0  0
   21.1820   62.8410   42.4050 N   0  0  0  0  0  0  0  0  0  0  0  0
   20.7760   63.5350   43.4870 C   0  0  0  0  0  0  0  0  0  0  0  0
   21.5970   63.8370   44.4970 N   0  0  0  0  0  0  0  0  0  0  0  0
   19.4890   64.0310   43.7060 N   0  0  0  0  0  0  0  0  0  0  0  0
   18.5380   63.8450   42.7120 C   0  0  1  0  0  0  0  0  0  0  0  0
   18.3700   64.8080   41.7120 C   0  0  0  0  0  0  0  0  0  0  0  0
   17.3530   64.6170   40.7810 C   0  0  0  0  0  0  0  0  0  0  0  0
   16.4840   63.5060   40.7630 C   0  0  0  0  0  0  0  0  0  0  0  0
   16.6150   62.5740   41.8020 C   0  0  0  0  0  0  0  0  0  0  0  0
   17.6350   62.7350   42.7720 C   0  0  0  0  0  0  0  0  0  0  0  0
   15.6520   61.5420   41.7390 N   0  0  0  0  0  0  0  0  0  0  0  0
   15.4300   60.7370   42.7700 C   0  0  1  0  0  0  0  0  0  0  0  0
   14.1720   60.0050   42.7730 C   0  0  1  0  0  0  0  0  0  0  0  0
   13.7500   59.3560   43.9740 C   0  0  0  0  0  0  0  0  0  0  0  0
   12.5550   58.5650   43.9500 C   0  0  0  0  0  0  0  0  0  0  0  0
   11.7750   58.4620   42.7750 C   0  0  1  0  0  0  0  0  0  0  0  0
   12.2160   59.0960   41.6070 C   0  0  0  0  0  0  0  0  0  0  0  0
   13.4320   59.8720   41.5880 C   0  0  0  0  0  0  0  0  0  0  0  0
   10.5420   57.6220   42.8210 C   0  0  0  0  0  0  0  0  0  0  0  0
   10.4130   56.7750   41.6520 N   0  0  0  0  0  0  0  0  0  0  0  0
   11.5700   55.9080   41.4660 C   0  0  0  0  0  0  0  0  0  0  0  0
   11.4280   54.9250   40.2100 C   0  0  0  0  0  0  0  0  0  0  0  0
   10.0440   54.3590   40.2790 N   0  0  0  0  0  0  0  0  0  0  0  0
    9.8340   53.5540   39.0770 C   0  0  0  0  0  0  0  0  0  0  0  0
    8.9820   55.3270   40.3300 C   0  0  0  0  0  0  0  0  0  0  0  0
    9.0930   56.0860   41.6540 C   0  0  0  0  0  0  0  0  0  0  0  0
   16.2110   60.4770   43.6620 O   0  0  0  0  0  0  0  0  0  0  0  0
   19.2890   66.0280   41.5800 C   0  0  0  0  0  0  0  0  0  0  0  0
   63.5480   48.1030   18.6180 C   0  0  0  0  0  0  0  0  0  0  0  0
   63.0290   48.8330   17.5400 C   0  0  0  0  0  0  0  0  0  0  0  0
   63.3200   50.2310   17.4320 C   0  0  1  0  0  0  0  0  0  0  0  0
   64.1560   50.8350   18.3690 C   0  0  0  0  0  0  0  0  0  0  0  0
   64.6750   50.0840   19.4270 N   0  0  0  0  0  0  0  0  0  0  0  0
   64.3670   48.7670   19.5100 C   0  0  0  0  0  0  0  0  0  0  0  0
   62.8240   51.1030   16.2970 C   0  0  1  0  0  0  0  0  0  0  0  0
   62.2280   50.5780   15.2210 C   0  0  0  0  0  0  0  0  0  0  0  0
   61.8700   51.4970   14.1990 C   0  0  0  0  0  0  0  0  0  0  0  0
   62.1290   52.8060   14.3580 N   0  0  0  0  0  0  0  0  0  0  0  0
   62.7400   53.2580   15.4700 C   0  0  0  0  0  0  0  0  0  0  0  0
   63.1420   52.4270   16.4430 N   0  0  0  0  0  0  0  0  0  0  0  0
   63.0140   54.5840   15.7220 N   0  0  0  0  0  0  0  0  0  0  0  0
   62.8730   55.4970   14.6950 C   0  0  0  0  0  0  0  0  0  0  0  0
   63.8370   55.7240   13.6800 C   0  0  0  0  0  0  0  0  0  0  0  0
   63.5250   56.7300   12.7570 C   0  0  0  0  0  0  0  0  0  0  0  0
   62.3210   57.4780   12.8000 C   0  0  0  0  0  0  0  0  0  0  0  0
   61.3740   57.2630   13.7760 C   0  0  0  0  0  0  0  0  0  0  0  0
   61.6840   56.2770   14.7130 C   0  0  0  0  0  0  0  0  0  0  0  0
   60.1800   58.0950   13.7210 N   0  0  0  0  0  0  0  0  0  0  0  0
   59.3060   58.3230   14.7280 C   0  0  0  0  0  0  0  0  0  0  0  0
   58.3860   59.4950   14.7360 C   0  0  1  0  0  0  0  0  0  0  0  0
   57.5700   59.7550   15.8520 C   0  0  0  0  0  0  0  0  0  0  0  0
   56.6310   60.8190   15.8980 C   0  0  0  0  0  0  0  0  0  0  0  0
   56.5060   61.6630   14.7990 C   0  0  1  0  0  0  0  0  0  0  0  0
   57.2670   61.3960   13.6720 C   0  0  0  0  0  0  0  0  0  0  0  0
   58.1950   60.3220   13.6180 C   0  0  0  0  0  0  0  0  0  0  0  0
   55.5170   62.7980   14.8260 C   0  0  0  0  0  0  0  0  0  0  0  0
   54.6660   62.8220   13.6500 N   0  0  0  0  0  0  0  0  0  0  0  0
   53.9280   61.5600   13.5270 C   0  0  0  0  0  0  0  0  0  0  0  0
   53.0530   61.5960   12.2140 C   0  0  0  0  0  0  0  0  0  0  0  0
   52.2570   62.8380   12.2300 N   0  0  0  0  0  0  0  0  0  0  0  0
   51.6290   62.8120   10.9250 C   0  0  0  0  0  0  0  0  0  0  0  0
   53.0920   63.9910   12.3580 C   0  0  0  0  0  0  0  0  0  0  0  0
   53.7320   63.9520   13.7600 C   0  0  0  0  0  0  0  0  0  0  0  0
   59.2040   57.5660   15.6480 O   0  0  0  0  0  0  0  0  0  0  0  0
   65.1760   54.9810   13.5260 C   0  0  0  0  0  0  0  0  0  0  0  0
   62.3160   23.0770   42.3350 C   0  0  0  0  0  0  0  0  0  0  0  0
   61.7440   22.4080   43.4540 C   0  0  0  0  0  0  0  0  0  0  0  0
   61.7840   21.0080   43.5850 C   0  0  0  0  0  0  0  0  0  0  0  0
   62.4370   20.2940   42.5920 C   0  0  0  0  0  0  0  0  0  0  0  0
   62.9960   20.8910   41.4870 N   0  0  0  0  0  0  0  0  0  0  0  0
   62.9100   22.2540   41.3890 C   0  0  0  0  0  0  0  0  0  0  0  0
   61.1990   20.2660   44.7790 C   0  0  1  0  0  0  0  0  0  0  0  0
   60.6640   20.9070   45.8230 C   0  0  0  0  0  0  0  0  0  0  0  0
   60.2400   20.0770   46.8730 C   0  0  0  0  0  0  0  0  0  0  0  0
   60.3430   18.7380   46.7950 N   0  0  0  0  0  0  0  0  0  0  0  0
   60.9040   18.1770   45.7640 C   0  0  0  0  0  0  0  0  0  0  0  0
   61.3320   18.9100   44.7400 N   0  0  0  0  0  0  0  0  0  0  0  0
   61.0630   16.8080   45.5810 N   0  0  0  0  0  0  0  0  0  0  0  0
   60.8390   15.8570   46.5890 C   0  0  1  0  0  0  0  0  0  0  0  0
   61.8030   15.5150   47.5610 C   0  0  1  0  0  0  0  0  0  0  0  0
   61.4850   14.5420   48.4750 C   0  0  0  0  0  0  0  0  0  0  0  0
   60.2630   13.8590   48.4840 C   0  0  0  0  0  0  0  0  0  0  0  0
   59.3370   14.1380   47.4770 C   0  0  0  0  0  0  0  0  0  0  0  0
   59.6430   15.1370   46.5540 C   0  0  0  0  0  0  0  0  0  0  0  0
   58.1060   13.3940   47.5150 N   0  0  0  0  0  0  0  0  0  0  0  0
   57.2180   13.4310   46.5110 C   0  0  1  0  0  0  0  0  0  0  0  0
   56.1740   12.4180   46.5170 C   0  0  1  0  0  0  0  0  0  0  0  0
   55.4260   12.2230   45.3490 C   0  0  0  0  0  0  0  0  0  0  0  0
   54.3920   11.2570   45.3680 C   0  0  0  0  0  0  0  0  0  0  0  0
   54.1040   10.5400   46.5240 C   0  0  0  0  0  0  0  0  0  0  0  0
   54.8160   10.7580   47.6950 C   0  0  0  0  0  0  0  0  0  0  0  0
   55.8550   11.7280   47.7210 C   0  0  0  0  0  0  0  0  0  0  0  0
   52.9730    9.5730   46.4640 C   0  0  0  0  0  0  0  0  0  0  0  0
   52.0760    9.5570   47.6140 N   0  0  0  0  0  0  0  0  0  0  0  0
   51.4340   10.8810   47.8620 C   0  0  0  0  0  0  0  0  0  0  0  0
   50.3770   10.8150   49.0660 C   0  0  0  0  0  0  0  0  0  0  0  0
   49.4820    9.6420   48.8620 N   0  0  0  0  0  0  0  0  0  0  0  0
   48.5730    9.5270   50.0010 C   0  0  0  0  0  0  0  0  0  0  0  0
   50.2190    8.4270   48.6860 C   0  0  0  0  0  0  0  0  0  0  0  0
   51.0690    8.5000   47.3820 C   0  0  0  0  0  0  0  0  0  0  0  0
   57.1480   14.2650   45.6160 O   0  0  0  0  0  0  0  0  0  0  0  0
   63.1340   16.2200   47.6690 C   0  0  0  0  0  0  0  0  0  0  0  0
   23.2292   12.6056   13.2577 H   0  0  0  0  0  0  0  0  0  0  0  0
   23.5997   11.0858   14.2320 H   0  0  0  0  0  0  0  0  0  0  0  0
   22.5299   11.8372   15.7612 H   0  0  0  0  0  0  0  0  0  0  0  0
   21.9717   13.2568   14.6394 H   0  0  0  0  0  0  0  0  0  0  0  0
   20.3769   12.7068   14.3940 H   0  0  0  0  0  0  0  0  0  0  0  0
   19.7561   10.0976   14.4435 H   0  0  0  0  0  0  0  0  0  0  0  0
   19.4316   11.6829   13.4539 H   0  0  0  0  0  0  0  0  0  0  0  0
   20.8678    9.5404   12.9189 H   0  0  0  0  0  0  0  0  0  0  0  0
   22.2863   11.4591   11.8834 H   0  0  0  0  0  0  0  0  0  0  0  0
   22.6637    9.9628   13.0287 H   0  0  0  0  0  0  0  0  0  0  0  0
   19.8780   11.2684   16.5825 H   0  0  0  0  0  0  0  0  0  0  0  0
   20.9869   12.1238   17.6689 H   0  0  0  0  0  0  0  0  0  0  0  0
   20.6911   13.7850   16.8911 H   0  0  0  0  0  0  0  0  0  0  0  0
   19.6522   12.6353   19.1424 H   0  0  0  0  0  0  0  0  0  0  0  0
   19.4025   14.2755   18.2525 H   0  0  0  0  0  0  0  0  0  0  0  0
   17.7574   12.3338   18.8476 H   0  0  0  0  0  0  0  0  0  0  0  0
   17.4837   13.3769   16.5035 H   0  0  0  0  0  0  0  0  0  0  0  0
   18.1280   12.5139   15.1256 H   0  0  0  0  0  0  0  0  0  0  0  0
   15.9672   12.7601   15.9366 H   0  0  0  0  0  0  0  0  0  0  0  0
   14.5949   11.7296   17.1160 H   0  0  0  0  0  0  0  0  0  0  0  0
   15.9834   11.8476   19.3270 H   0  0  0  0  0  0  0  0  0  0  0  0
   13.6076   10.6724   19.7005 H   0  0  0  0  0  0  0  0  0  0  0  0
   14.9097   11.7148   20.6021 H   0  0  0  0  0  0  0  0  0  0  0  0
   12.4122   12.3377   19.6786 H   0  0  0  0  0  0  0  0  0  0  0  0
   13.7898   13.2534   20.5866 H   0  0  0  0  0  0  0  0  0  0  0  0
   14.3183   14.1728   19.2842 H   0  0  0  0  0  0  0  0  0  0  0  0
   15.1682   14.2793   17.6759 H   0  0  0  0  0  0  0  0  0  0  0  0
   13.8713   13.2057   16.8111 H   0  0  0  0  0  0  0  0  0  0  0  0
   11.7144   14.3332   18.8988 H   0  0  0  0  0  0  0  0  0  0  0  0
   11.9878   15.0037   17.2277 H   0  0  0  0  0  0  0  0  0  0  0  0
   12.1535   17.4543   18.1496 H   0  0  0  0  0  0  0  0  0  0  0  0
   11.9770   17.8679   16.3750 H   0  0  0  0  0  0  0  0  0  0  0  0
   10.6717   16.5127   16.0997 H   0  0  0  0  0  0  0  0  0  0  0  0
   10.4327   19.2425   16.3445 H   0  0  0  0  0  0  0  0  0  0  0  0
    9.2601   17.8316   16.0086 H   0  0  0  0  0  0  0  0  0  0  0  0
    8.5950   17.7269   17.6216 H   0  0  0  0  0  0  0  0  0  0  0  0
    9.9096   18.6348   19.7993 H   0  0  0  0  0  0  0  0  0  0  0  0
    8.7859   17.2109   19.2349 H   0  0  0  0  0  0  0  0  0  0  0  0
   10.3149   15.9527   19.4584 H   0  0  0  0  0  0  0  0  0  0  0  0
   11.4805   17.3718   19.7758 H   0  0  0  0  0  0  0  0  0  0  0  0
    8.3060   20.1426   16.9257 H   0  0  0  0  0  0  0  0  0  0  0  0
    7.2476   18.9718   17.8346 H   0  0  0  0  0  0  0  0  0  0  0  0
   10.2915   20.4400   19.1631 H   0  0  0  0  0  0  0  0  0  0  0  0
    9.5686   21.8008   18.2250 H   0  0  0  0  0  0  0  0  0  0  0  0
    9.5354   21.4122   21.2947 H   0  0  0  0  0  0  0  0  0  0  0  0
   10.2965   22.7488   20.3811 H   0  0  0  0  0  0  0  0  0  0  0  0
    8.1563   22.9663   22.5250 H   0  0  0  0  0  0  0  0  0  0  0  0
    9.1063   24.2167   21.6529 H   0  0  0  0  0  0  0  0  0  0  0  0
    7.3115   24.2901   21.6529 H   0  0  0  0  0  0  0  0  0  0  0  0
    6.8796   21.3365   21.2333 H   0  0  0  0  0  0  0  0  0  0  0  0
    6.0469   22.6865   20.4177 H   0  0  0  0  0  0  0  0  0  0  0  0
    6.9326   21.9294   18.2042 H   0  0  0  0  0  0  0  0  0  0  0  0
    6.0724   20.5711   19.0075 H   0  0  0  0  0  0  0  0  0  0  0  0
   14.3055   15.9384   17.3051 H   0  0  0  0  0  0  0  0  0  0  0  0
   16.2474    9.7964   19.8707 H   0  0  0  0  0  0  0  0  0  0  0  0
   15.5495    9.2246   18.3174 H   0  0  0  0  0  0  0  0  0  0  0  0
   17.0406   10.2262   18.3174 H   0  0  0  0  0  0  0  0  0  0  0  0
   26.0177   62.6736   47.5284 H   0  0  0  0  0  0  0  0  0  0  0  0
   26.6202   64.1555   46.6064 H   0  0  0  0  0  0  0  0  0  0  0  0
   25.5835   63.5359   44.9514 H   0  0  0  0  0  0  0  0  0  0  0  0
   24.8514   62.1357   45.9549 H   0  0  0  0  0  0  0  0  0  0  0  0
   23.2903   62.8615   46.2144 H   0  0  0  0  0  0  0  0  0  0  0  0
   22.9087   65.5285   46.1170 H   0  0  0  0  0  0  0  0  0  0  0  0
   22.3557   63.9761   47.0735 H   0  0  0  0  0  0  0  0  0  0  0  0
   23.9218   66.0003   47.7744 H   0  0  0  0  0  0  0  0  0  0  0  0
   25.0983   63.9212   48.8519 H   0  0  0  0  0  0  0  0  0  0  0  0
   25.6839   65.3775   47.7151 H   0  0  0  0  0  0  0  0  0  0  0  0
   23.1368   64.3186   43.9721 H   0  0  0  0  0  0  0  0  0  0  0  0
   24.1444   63.2695   42.9636 H   0  0  0  0  0  0  0  0  0  0  0  0
   23.5504   61.6970   43.7729 H   0  0  0  0  0  0  0  0  0  0  0  0
   22.8522   62.9087   41.4356 H   0  0  0  0  0  0  0  0  0  0  0  0
   22.3297   61.3449   42.3440 H   0  0  0  0  0  0  0  0  0  0  0  0
   21.0103   63.4377   41.5832 H   0  0  0  0  0  0  0  0  0  0  0  0
   20.5049   62.5943   43.9886 H   0  0  0  0  0  0  0  0  0  0  0  0
   21.1675   63.4740   45.3599 H   0  0  0  0  0  0  0  0  0  0  0  0
   19.1297   63.5822   44.5606 H   0  0  0  0  0  0  0  0  0  0  0  0
   17.7890   64.3587   43.3325 H   0  0  0  0  0  0  0  0  0  0  0  0
   19.0669   64.2565   41.0638 H   0  0  0  0  0  0  0  0  0  0  0  0
   16.7025   65.4997   40.8685 H   0  0  0  0  0  0  0  0  0  0  0  0
   17.9425   64.4290   39.8715 H   0  0  0  0  0  0  0  0  0  0  0  0
   15.4539   63.8909   40.7915 H   0  0  0  0  0  0  0  0  0  0  0  0
   16.7496   62.9526   39.8502 H   0  0  0  0  0  0  0  0  0  0  0  0
   17.2997   61.9779   41.1809 H   0  0  0  0  0  0  0  0  0  0  0  0
   18.2529   61.8259   42.7307 H   0  0  0  0  0  0  0  0  0  0  0  0
   17.0662   62.9338   43.6923 H   0  0  0  0  0  0  0  0  0  0  0  0
   14.7525   61.9965   41.5263 H   0  0  0  0  0  0  0  0  0  0  0  0
   14.9498   61.5645   43.3127 H   0  0  0  0  0  0  0  0  0  0  0  0
   14.7027   59.0917   42.4659 H   0  0  0  0  0  0  0  0  0  0  0  0
   14.5698   58.6932   44.2881 H   0  0  0  0  0  0  0  0  0  0  0  0
   13.5047   60.1866   44.6522 H   0  0  0  0  0  0  0  0  0  0  0  0
   12.8521   57.5407   44.2193 H   0  0  0  0  0  0  0  0  0  0  0  0
   11.8896   59.1097   44.6360 H   0  0  0  0  0  0  0  0  0  0  0  0
   11.2248   59.3707   43.0605 H   0  0  0  0  0  0  0  0  0  0  0  0
   12.3393   58.3059   40.8517 H   0  0  0  0  0  0  0  0  0  0  0  0
   11.4425   59.8611   41.4447 H   0  0  0  0  0  0  0  0  0  0  0  0
   13.1618   60.8869   41.2609 H   0  0  0  0  0  0  0  0  0  0  0  0
   14.0982   59.3028   40.9230 H   0  0  0  0  0  0  0  0  0  0  0  0
   10.5802   56.9854   43.7173 H   0  0  0  0  0  0  0  0  0  0  0  0
    9.6740   58.2972   42.8464 H   0  0  0  0  0  0  0  0  0  0  0  0
   12.4589   56.5387   41.3173 H   0  0  0  0  0  0  0  0  0  0  0  0
   11.6543   55.2792   42.3646 H   0  0  0  0  0  0  0  0  0  0  0  0
   11.5660   55.4823   39.2717 H   0  0  0  0  0  0  0  0  0  0  0  0
   12.1883   54.1305   40.2341 H   0  0  0  0  0  0  0  0  0  0  0  0
    9.5661   52.5269   39.3657 H   0  0  0  0  0  0  0  0  0  0  0  0
    9.0199   53.9914   38.4804 H   0  0  0  0  0  0  0  0  0  0  0  0
   10.7580   53.5379   38.4804 H   0  0  0  0  0  0  0  0  0  0  0  0
    9.0770   56.0292   39.4887 H   0  0  0  0  0  0  0  0  0  0  0  0
    8.0056   54.8253   40.2593 H   0  0  0  0  0  0  0  0  0  0  0  0
    9.0351   55.3832   42.4982 H   0  0  0  0  0  0  0  0  0  0  0  0
    8.2723   56.8106   41.7609 H   0  0  0  0  0  0  0  0  0  0  0  0
   15.7725   60.6230   44.5375 H   0  0  0  0  0  0  0  0  0  0  0  0
   19.5625   66.3911   42.5817 H   0  0  0  0  0  0  0  0  0  0  0  0
   20.1993   65.7437   41.0318 H   0  0  0  0  0  0  0  0  0  0  0  0
   18.7645   66.8245   41.0318 H   0  0  0  0  0  0  0  0  0  0  0  0
   62.6943   47.7077   19.1880 H   0  0  0  0  0  0  0  0  0  0  0  0
   64.1989   47.3476   18.1535 H   0  0  0  0  0  0  0  0  0  0  0  0
   63.4017   48.3563   16.6213 H   0  0  0  0  0  0  0  0  0  0  0  0
   61.9423   48.8067   17.7084 H   0  0  0  0  0  0  0  0  0  0  0  0
   62.4479   50.4612   18.0617 H   0  0  0  0  0  0  0  0  0  0  0  0
   65.0157   51.2390   17.8143 H   0  0  0  0  0  0  0  0  0  0  0  0
   63.4948   51.5568   18.8708 H   0  0  0  0  0  0  0  0  0  0  0  0
   65.7012   50.1511   19.3701 H   0  0  0  0  0  0  0  0  0  0  0  0
   63.9014   48.6325   20.4975 H   0  0  0  0  0  0  0  0  0  0  0  0
   65.3405   48.3119   19.2749 H   0  0  0  0  0  0  0  0  0  0  0  0
   63.8012   51.0121   15.8001 H   0  0  0  0  0  0  0  0  0  0  0  0
   62.9141   49.8379   14.7833 H   0  0  0  0  0  0  0  0  0  0  0  0
   61.2806   50.1528   15.5837 H   0  0  0  0  0  0  0  0  0  0  0  0
   62.3930   51.1774   13.2856 H   0  0  0  0  0  0  0  0  0  0  0  0
   60.7709   51.4534   14.1900 H   0  0  0  0  0  0  0  0  0  0  0  0
   62.7204   53.0871   13.5630 H   0  0  0  0  0  0  0  0  0  0  0  0
   61.7628   53.3637   15.9640 H   0  0  0  0  0  0  0  0  0  0  0  0
   62.7206   52.7529   17.3245 H   0  0  0  0  0  0  0  0  0  0  0  0
   62.3874   54.8839   16.4825 H   0  0  0  0  0  0  0  0  0  0  0  0
   63.3464   56.2705   15.3176 H   0  0  0  0  0  0  0  0  0  0  0  0
   63.3377   54.9818   13.0398 H   0  0  0  0  0  0  0  0  0  0  0  0
   64.3400   57.4656   12.8252 H   0  0  0  0  0  0  0  0  0  0  0  0
   63.3845   56.1445   11.8364 H   0  0  0  0  0  0  0  0  0  0  0  0
   62.6152   58.5348   12.8808 H   0  0  0  0  0  0  0  0  0  0  0  0
   61.8022   57.1426   11.8899 H   0  0  0  0  0  0  0  0  0  0  0  0
   60.8904   56.5068   13.1402 H   0  0  0  0  0  0  0  0  0  0  0  0
   60.8554   55.5549   14.6684 H   0  0  0  0  0  0  0  0  0  0  0  0
   61.8563   56.8923   15.6084 H   0  0  0  0  0  0  0  0  0  0  0  0
   60.5176   59.0280   13.4446 H   0  0  0  0  0  0  0  0  0  0  0  0
   60.0675   58.9172   15.2544 H   0  0  0  0  0  0  0  0  0  0  0  0
   57.5905   58.8735   14.2991 H   0  0  0  0  0  0  0  0  0  0  0  0
   56.9925   58.8349   16.0247 H   0  0  0  0  0  0  0  0  0  0  0  0
   58.3128   60.0881   16.5918 H   0  0  0  0  0  0  0  0  0  0  0  0
   55.6427   60.3680   16.0707 H   0  0  0  0  0  0  0  0  0  0  0  0
   57.0199   61.4766   16.6894 H   0  0  0  0  0  0  0  0  0  0  0  0
   57.3135   62.2970   15.1940 H   0  0  0  0  0  0  0  0  0  0  0  0
   56.5523   61.2244   12.8536 H   0  0  0  0  0  0  0  0  0  0  0  0
   57.9313   62.2720   13.6340 H   0  0  0  0  0  0  0  0  0  0  0  0
   59.1744   60.7621   13.3791 H   0  0  0  0  0  0  0  0  0  0  0  0
   57.7477   59.6422   12.8779 H   0  0  0  0  0  0  0  0  0  0  0  0
   54.8826   62.6920   15.7184 H   0  0  0  0  0  0  0  0  0  0  0  0
   56.0877   63.7382   14.8448 H   0  0  0  0  0  0  0  0  0  0  0  0
   54.6386   60.7221   13.4726 H   0  0  0  0  0  0  0  0  0  0  0  0
   53.2753   61.4269   14.4024 H   0  0  0  0  0  0  0  0  0  0  0  0
   53.7067   61.5830   11.3294 H   0  0  0  0  0  0  0  0  0  0  0  0
   52.3909   60.7186   12.1720 H   0  0  0  0  0  0  0  0  0  0  0  0
   50.5365   62.7668   11.0447 H   0  0  0  0  0  0  0  0  0  0  0  0
   51.8997   63.7221   10.3696 H   0  0  0  0  0  0  0  0  0  0  0  0
   51.9740   61.9274   10.3696 H   0  0  0  0  0  0  0  0  0  0  0  0
   53.8766   63.9730   11.5872 H   0  0  0  0  0  0  0  0  0  0  0  0
   52.5022   64.9105   12.2289 H   0  0  0  0  0  0  0  0  0  0  0  0
   52.9758   63.7689   14.5376 H   0  0  0  0  0  0  0  0  0  0  0  0
   54.2170   64.8964   14.0479 H   0  0  0  0  0  0  0  0  0  0  0  0
   59.2717   58.0688   16.4981 H   0  0  0  0  0  0  0  0  0  0  0  0
   65.5857   54.7536   14.5212 H   0  0  0  0  0  0  0  0  0  0  0  0
   65.0139   54.0438   12.9734 H   0  0  0  0  0  0  0  0  0  0  0  0
   65.8854   55.6145   12.9734 H   0  0  0  0  0  0  0  0  0  0  0  0
   61.5182   23.6467   41.8361 H   0  0  0  0  0  0  0  0  0  0  0  0
   63.1229   23.7064   42.7384 H   0  0  0  0  0  0  0  0  0  0  0  0
   62.2442   22.8152   44.3451 H   0  0  0  0  0  0  0  0  0  0  0  0
   60.6696   22.5964   43.3117 H   0  0  0  0  0  0  0  0  0  0  0  0
   60.8419   20.9285   43.0227 H   0  0  0  0  0  0  0  0  0  0  0  0
   63.2555   19.7565   43.0931 H   0  0  0  0  0  0  0  0  0  0  0  0
   61.6060   19.7309   42.1421 H   0  0  0  0  0  0  0  0  0  0  0  0
   63.9959   20.6442   41.4766 H   0  0  0  0  0  0  0  0  0  0  0  0
   62.3724   22.4488   40.4493 H   0  0  0  0  0  0  0  0  0  0  0  0
   63.9668   22.5326   41.5138 H   0  0  0  0  0  0  0  0  0  0  0  0
   62.1822   20.2839   45.2719 H   0  0  0  0  0  0  0  0  0  0  0  0
   61.4184   21.6020   46.2203 H   0  0  0  0  0  0  0  0  0  0  0  0
   59.7624   21.4117   45.4457 H   0  0  0  0  0  0  0  0  0  0  0  0
   60.8140   20.3814   47.7606 H   0  0  0  0  0  0  0  0  0  0  0  0
   59.1509   20.2312   46.8717 H   0  0  0  0  0  0  0  0  0  0  0  0
   60.8762   18.4346   47.6223 H   0  0  0  0  0  0  0  0  0  0  0  0
   59.9200   18.0785   45.2822 H   0  0  0  0  0  0  0  0  0  0  0  0
   60.8236   18.5837   43.9057 H   0  0  0  0  0  0  0  0  0  0  0  0
   60.4310   16.5527   44.8088 H   0  0  0  0  0  0  0  0  0  0  0  0
   61.2244   15.0662   45.9286 H   0  0  0  0  0  0  0  0  0  0  0  0
   61.3949   16.2821   48.2356 H   0  0  0  0  0  0  0  0  0  0  0  0
   62.2606   13.7687   48.3727 H   0  0  0  0  0  0  0  0  0  0  0  0
   61.4065   15.1336   49.3990 H   0  0  0  0  0  0  0  0  0  0  0  0
   60.4911   12.7844   48.4269 H   0  0  0  0  0  0  0  0  0  0  0  0
   59.7699   14.2010   49.4059 H   0  0  0  0  0  0  0  0  0  0  0  0
   58.8563   14.8848   48.1260 H   0  0  0  0  0  0  0  0  0  0  0  0
   58.8372   15.8816   46.6331 H   0  0  0  0  0  0  0  0  0  0  0  0
   59.7597   14.5560   45.6273 H   0  0  0  0  0  0  0  0  0  0  0  0
   58.3711   12.4051   47.6281 H   0  0  0  0  0  0  0  0  0  0  0  0
   57.8612   12.7646   45.9175 H   0  0  0  0  0  0  0  0  0  0  0  0
   55.4466   13.1697   46.8573 H   0  0  0  0  0  0  0  0  0  0  0  0
   54.9652   13.1883   45.0924 H   0  0  0  0  0  0  0  0  0  0  0  0
   56.1529   11.8284   44.6238 H   0  0  0  0  0  0  0  0  0  0  0  0
   53.4674   11.7827   45.0874 H   0  0  0  0  0  0  0  0  0  0  0  0
   54.7740   10.4798   44.6897 H   0  0  0  0  0  0  0  0  0  0  0  0
   54.8296    9.7687   46.2264 H   0  0  0  0  0  0  0  0  0  0  0  0
   54.0848   11.0541   48.4616 H   0  0  0  0  0  0  0  0  0  0  0  0
   55.3501    9.8087   47.8487 H   0  0  0  0  0  0  0  0  0  0  0  0
   56.7696   11.2146   48.0525 H   0  0  0  0  0  0  0  0  0  0  0  0
   55.4707   12.5146   48.3869 H   0  0  0  0  0  0  0  0  0  0  0  0
   52.3730    9.8136   45.5740 H   0  0  0  0  0  0  0  0  0  0  0  0
   53.4391    8.5769   46.4411 H   0  0  0  0  0  0  0  0  0  0  0  0
   52.2149   11.6136   48.1137 H   0  0  0  0  0  0  0  0  0  0  0  0
   50.8946   11.1753   46.9496 H   0  0  0  0  0  0  0  0  0  0  0  0
   50.9122   10.7088   50.0211 H   0  0  0  0  0  0  0  0  0  0  0  0
   49.7800   11.7386   49.0874 H   0  0  0  0  0  0  0  0  0  0  0  0
   49.1467    9.5996   50.9367 H   0  0  0  0  0  0  0  0  0  0  0  0
   47.8314   10.3385   49.9617 H   0  0  0  0  0  0  0  0  0  0  0  0
   48.0569    8.5564   49.9617 H   0  0  0  0  0  0  0  0  0  0  0  0
   50.8866    8.2784   49.5475 H   0  0  0  0  0  0  0  0  0  0  0  0
   49.5138    7.5862   48.6094 H   0  0  0  0  0  0  0  0  0  0  0  0
   50.4318    8.7602   46.5239 H   0  0  0  0  0  0  0  0  0  0  0  0
   51.5426    7.5338   47.1538 H   0  0  0  0  0  0  0  0  0  0  0  0
   57.0721   15.1690   46.0125 H   0  0  0  0  0  0  0  0  0  0  0  0
   63.3916   16.3565   48.7297 H   0  0  0  0  0  0  0  0  0  0  0  0
   63.9104   15.6149   47.1780 H   0  0  0  0  0  0  0  0  0  0  0  0
   63.0696   17.2022   47.1780 H   0  0  0  0  0  0  0  0  0  0  0  0
  1  2  1  0
  2  3  1  0
  3  4  1  0
  4  5  1  0
  1  6  1  0
  5  6  1  0
  3  7  1  0
  7  8  1  0
  8  9  1  0
  9 10  1  0
 10 11  1  0
  7 12  1  0
 11 12  1  0
 11 13  1  0
 13 14  1  0
 14 15  1  0
 15 16  1  0
 16 17  1  0
 17 18  1  0
 14 19  1  0
 18 19  1  0
 18 20  1  0
 20 21  1  0
 21 22  1  0
 22 23  1  0
 23 24  1  0
 24 25  1  0
 25 26  1  0
 22 27  1  0
 26 27  1  0
 25 28  1  0
 28 29  1  0
 29 30  1  0
 30 31  1  0
 31 32  1  0
 32 33  1  0
 32 34  1  0
 29 35  1  0
 34 35  1  0
 21 36  1  0
 15 37  1  0
 38 39  1  0
 39 40  1  0
 40 41  1  0
 41 42  1  0
 38 43  1  0
 42 43  1  0
 40 44  1  0
 44 45  1  0
 45 46  1  0
 46 47  1  0
 47 48  1  0
 44 49  1  0
 48 49  1  0
 48 50  1  0
 50 51  1  0
 51 52  1  0
 52 53  1  0
 53 54  1  0
 54 55  1  0
 51 56  1  0
 55 56  1  0
 55 57  1  0
 57 58  1  0
 58 59  1  0
 59 60  1  0
 60 61  1  0
 61 62  1  0
 62 63  1  0
 59 64  1  0
 63 64  1  0
 62 65  1  0
 65 66  1  0
 66 67  1  0
 67 68  1  0
 68 69  1  0
 69 70  1  0
 69 71  1  0
 66 72  1  0
 71 72  1  0
 58 73  1  0
 52 74  1  0
 75 76  1  0
 76 77  1  0
 77 78  1  0
 78 79  1  0
 75 80  1  0
 79 80  1  0
 77 81  1  0
 81 82  1  0
 82 83  1  0
 83 84  1  0
 84 85  1  0
 81 86  1  0
 85 86  1  0
 85 87  1  0
 87 88  1  0
 88 89  1  0
 89 90  1  0
 90 91  1  0
 91 92  1  0
 88 93  1  0
 92 93  1  0
 92 94  1  0
 94 95  1  0
 95 96  1  0
 96 97  1  0
 97 98  1  0
 98 99  1  0
 99100  1  0
 96101  1  0
100101  1  0
 99102  1  0
102103  1  0
103104  1  0
104105  1  0
105106  1  0
106107  1  0
106108  1  0
103109  1  0
108109  1  0
 95110  1  0
 89111  1  0
112113  1  0
113114  1  0
114115  1  0
115116  1  0
112117  1  0
116117  1  0
114118  1  0
118119  1  0
119120  1  0
120121  1  0
121122  1  0
118123  1  0
122123  1  0
122124  1  0
124125  1  0
125126  1  0
126127  1  0
127128  1  0
128129  1  0
125130  1  0
129130  1  0
129131  1  0
131132  1  0
132133  1  0
133134  1  0
134135  1  0
135136  1  0
136137  1  0
133138  1  0
137138  1  0
136139  1  0
139140  1  0
140141  1  0
141142  1  0
142143  1  0
143144  1  0
143145  1  0
140146  1  0
145146  1  0
132147  1  0
126148  1  0
  1149  1  0
  1150  1  0
  2151  1  0
  2152  1  0
  3153  1  0
  4154  1  0
  4155  1  0
  5156  1  0
  6157  1  0
  6158  1  0
  7159  1  0
  8160  1  0
  8161  1  0
  9162  1  0
  9163  1  0
 10164  1  0
 11165  1  0
 12166  1  0
 13167  1  0
 14168  1  0
 15169  1  0
 16170  1  0
 16171  1  0
 17172  1  0
 17173  1  0
 18174  1  0
 19175  1  0
 19176  1  0
 20177  1  0
 21178  1  0
 22179  1  0
 23180  1  0
 23181  1  0
 24182  1  0
 24183  1  0
 25184  1  0
 26185  1  0
 26186  1  0
 27187  1  0
 27188  1  0
 28189  1  0
 28190  1  0
 30191  1  0
 30192  1  0
 31193  1  0
 31194  1  0
 33195  1  0
 33196  1  0
 33197  1  0
 34198  1  0
 34199  1  0
 35200  1  0
 35201  1  0
 36202  1  0
 37203  1  0
 37204  1  0
 37205  1  0
 38206  1  0
 38207  1  0
 39208  1  0
 39209  1  0
 40210  1  0
 41211  1  0
 41212  1  0
 42213  1  0
 43214  1  0
 43215  1  0
 44216  1  0
 45217  1  0
 45218  1  0
 46219  1  0
 46220  1  0
 47221  1  0
 48222  1  0
 49223  1  0
 50224  1  0
 51225  1  6
 52226  1  0
 53227  1  0
 53228  1  0
 54229  1  0
 54230  1  0
 55231  1  0
 56232  1  0
 56233  1  0
 57234  1  0
 58235  1  1
 59236  1  1
 60237  1  0
 60238  1  0
 61239  1  0
 61240  1  0
 62241  1  1
 63242  1  0
 63243  1  0
 64244  1  0
 64245  1  0
 65246  1  0
 65247  1  0
 67248  1  0
 67249  1  0
 68250  1  0
 68251  1  0
 70252  1  0
 70253  1  0
 70254  1  0
 71255  1  0
 71256  1  0
 72257  1  0
 72258  1  0
 73259  1  0
 74260  1  0
 74261  1  0
 74262  1  0
 75263  1  0
 75264  1  0
 76265  1  0
 76266  1  0
 77267  1  1
 78268  1  0
 78269  1  0
 79270  1  0
 80271  1  0
 80272  1  0
 81273  1  1
 82274  1  0
 82275  1  0
 83276  1  0
 83277  1  0
 84278  1  0
 85279  1  0
 86280  1  0
 87281  1  0
 88282  1  0
 89283  1  0
 90284  1  0
 90285  1  0
 91286  1  0
 91287  1  0
 92288  1  0
 93289  1  0
 93290  1  0
 94291  1  0
 95292  1  0
 96293  1  1
 97294  1  0
 97295  1  0
 98296  1  0
 98297  1  0
 99298  1  1
100299  1  0
100300  1  0
101301  1  0
101302  1  0
102303  1  0
102304  1  0
104305  1  0
104306  1  0
105307  1  0
105308  1  0
107309  1  0
107310  1  0
107311  1  0
108312  1  0
108313  1  0
109314  1  0
109315  1  0
110316  1  0
111317  1  0
111318  1  0
111319  1  0
112320  1  0
112321  1  0
113322  1  0
113323  1  0
114324  1  0
115325  1  0
115326  1  0
116327  1  0
117328  1  0
117329  1  0
118330  1  6
119331  1  0
119332  1  0
120333  1  0
120334  1  0
121335  1  0
122336  1  0
123337  1  0
124338  1  0
125339  1  1
126340  1  6
127341  1  0
127342  1  0
128343  1  0
128344  1  0
129345  1  0
130346  1  0
130347  1  0
131348  1  0
132349  1  6
133350  1  6
134351  1  0
134352  1  0
135353  1  0
135354  1  0
136355  1  0
137356  1  0
137357  1  0
138358  1  0
138359  1  0
139360  1  0
139361  1  0
141362  1  0
141363  1  0
142364  1  0
142365  1  0
144366  1  0
144367  1  0
144368  1  0
145369  1  0
145370  1  0
146371  1  0
146372  1  0
147373  1  0
148374  1  0
148375  1  0
148376  1  0
M  END
>  <PDBID>  (1) 
2HYY

>  <PDB ID>  (1) 
2HYY

>  <Generic Name>  (1) 
Imatinib

>  <Brand Name>  (1) 
Apo-imatinib#Gleevec#Imatinib Mesylate#Mylan-imatinib#Nat-imatinib#PMS-imatinib#Ran-imatinib#Teva-imatinib#Celonib#Enliven#Glivec#Imatib#Mesylonib#Mitinab#Plivatinib#Shantinib

>  <DrugBank ID>  (1) 
DB00619

>  <ATC Codes>  (1) 
L01XE01

>  <Ligand ID>  (1) 
STI

>  <Target Name>  (1) 
BCR/ABL fusion protein isoform X9

>  <UniProt ID>  (1) 
A9UF02

>  <PDB ID.1>  (1) 
2HYY

>  <Seq. Identity>  (1) 
96%

$$$$
