PDB_DB00730_99
     RDKit          3D

 21 23  0  0  0  0  0  0  0  0999 V2000
   85.2100   65.0860   86.1900 C   0  0  0  0  0  0  0  0  0  0  0  0
   84.1680   65.9500   86.1360 N   0  0  0  0  0  0  0  0  0  0  0  0
   83.0910   65.1490   86.1240 C   0  0  0  0  0  0  0  0  0  0  0  0
   81.6970   65.6790   86.0650 C   0  0  0  0  0  0  0  0  0  0  0  0
   81.5020   67.0530   86.0270 C   0  0  0  0  0  0  0  0  0  0  0  0
   79.7750   67.1510   85.9730 S   0  0  0  0  0  0  0  0  0  0  0  0
   79.4330   65.4450   86.0040 C   0  0  0  0  0  0  0  0  0  0  0  0
   80.6390   64.8130   86.0540 N   0  0  0  0  0  0  0  0  0  0  0  0
   83.3560   63.8330   86.1670 N   0  0  0  0  0  0  0  0  0  0  0  0
   84.7040   63.7710   86.2100 C   0  0  0  0  0  0  0  0  0  0  0  0
   85.5730   62.6810   86.2660 C   0  0  0  0  0  0  0  0  0  0  0  0
   86.9490   62.9040   86.3010 C   0  0  0  0  0  0  0  0  0  0  0  0
   87.4540   64.2080   86.2780 C   0  0  0  0  0  0  0  0  0  0  0  0
   86.5890   65.3020   86.2230 C   0  0  0  0  0  0  0  0  0  0  0  0
   84.1957   66.9793   86.1102 H   0  0  0  0  0  0  0  0  0  0  0  0
   82.2463   67.8629   86.0303 H   0  0  0  0  0  0  0  0  0  0  0  0
   78.4405   64.9711   85.9867 H   0  0  0  0  0  0  0  0  0  0  0  0
   85.1763   61.6551   86.2824 H   0  0  0  0  0  0  0  0  0  0  0  0
   87.6408   62.0500   86.3469 H   0  0  0  0  0  0  0  0  0  0  0  0
   88.5413   64.3727   86.3035 H   0  0  0  0  0  0  0  0  0  0  0  0
   86.9904   66.3260   86.2058 H   0  0  0  0  0  0  0  0  0  0  0  0
  1  2  1  0
  2  3  1  0
  3  4  1  0
  4  5  2  0
  5  6  1  0
  6  7  1  0
  4  8  1  0
  7  8  2  0
  3  9  2  0
  1 10  2  0
  9 10  1  0
 10 11  1  0
 11 12  2  0
 12 13  1  0
  1 14  1  0
 13 14  2  0
  2 15  1  0
  5 16  1  0
  7 17  1  0
 11 18  1  0
 12 19  1  0
 13 20  1  0
 14 21  1  0
M  END
>  <PDBID>  (1) 
3SFE

>  <PDB ID>  (1) 
3SFE

>  <Generic Name>  (1) 
Thiabendazole

>  <Brand Name>  (1) 
Mintezol Chewable Tab 500mg#Mintezol

>  <DrugBank ID>  (1) 
DB00730

>  <ATC Codes>  (1) 
D01AC06#P02CA02

>  <Ligand ID>  (1) 
TMG

>  <Target Name>  (1) 
Fumarate reductase flavoprotein subunit

>  <UniProt ID>  (1) 
P00363

>  <PDB ID.1>  (1) 
3SFE

>  <Seq. Identity>  (1) 
38%

$$$$
