PDB_DB00939_98
     RDKit          3D

 30 31  0  0  0  0  0  0  0  0999 V2000
   17.8950   39.8930   59.9840 O   0  0  0  0  0  0  0  0  0  0  0  0
   17.3070   40.9640   60.0030 C   0  0  0  0  0  0  0  0  0  0  0  0
   16.3650   41.0770   59.2490 O   0  0  0  0  0  0  0  0  0  0  0  0
   17.7490   42.0920   60.8880 C   0  0  0  0  0  0  0  0  0  0  0  0
   19.0240   42.0740   61.3510 C   0  0  0  0  0  0  0  0  0  0  0  0
   19.5050   43.0520   62.1430 C   0  0  0  0  0  0  0  0  0  0  0  0
   18.7040   44.0750   62.4980 C   0  0  0  0  0  0  0  0  0  0  0  0
   17.4280   44.1130   62.0480 C   0  0  0  0  0  0  0  0  0  0  0  0
   16.9350   43.1350   61.2490 C   0  0  0  0  0  0  0  0  0  0  0  0
   15.6110   43.2180   60.8290 N   0  0  0  0  0  0  0  0  0  0  0  0
   14.7560   44.2670   61.1940 C   0  0  0  0  0  0  0  0  0  0  0  0
   14.1390   44.9730   60.1950 C   0  0  0  0  0  0  0  0  0  0  0  0
   14.3730   44.6440   58.5400 Cl  0  0  0  0  0  0  0  0  0  0  0  0
   13.2920   45.9920   60.5010 C   0  0  0  0  0  0  0  0  0  0  0  0
   12.6180   46.7650   59.4450 C   0  0  0  0  0  0  0  0  0  0  0  0
   13.0280   46.3320   61.7710 C   0  0  0  0  0  0  0  0  0  0  0  0
   13.6200   45.6490   62.7630 C   0  0  0  0  0  0  0  0  0  0  0  0
   14.4590   44.6240   62.4970 C   0  0  0  0  0  0  0  0  0  0  0  0
   15.0960   43.8700   63.9110 Cl  0  0  0  0  0  0  0  0  0  0  0  0
   18.6722   39.7444   60.5790 H   0  0  0  0  0  0  0  0  0  0  0  0
   19.6829   41.2384   61.0723 H   0  0  0  0  0  0  0  0  0  0  0  0
   20.5456   43.0153   62.4976 H   0  0  0  0  0  0  0  0  0  0  0  0
   19.0846   44.8751   63.1499 H   0  0  0  0  0  0  0  0  0  0  0  0
   16.7789   44.9531   62.3360 H   0  0  0  0  0  0  0  0  0  0  0  0
   15.2417   42.4732   60.2210 H   0  0  0  0  0  0  0  0  0  0  0  0
   11.9612   47.5183   59.9045 H   0  0  0  0  0  0  0  0  0  0  0  0
   13.3715   47.2674   58.8207 H   0  0  0  0  0  0  0  0  0  0  0  0
   12.0176   46.0869   58.8207 H   0  0  0  0  0  0  0  0  0  0  0  0
   12.3370   47.1578   61.9961 H   0  0  0  0  0  0  0  0  0  0  0  0
   13.4192   45.9278   63.8080 H   0  0  0  0  0  0  0  0  0  0  0  0
  1  2  1  0
  2  3  2  0
  2  4  1  0
  4  5  2  0
  5  6  1  0
  6  7  2  0
  7  8  1  0
  4  9  1  0
  8  9  2  0
  9 10  1  0
 10 11  1  0
 11 12  2  0
 12 13  1  0
 12 14  1  0
 14 15  1  0
 14 16  2  0
 16 17  1  0
 11 18  1  0
 17 18  2  0
 18 19  1  0
  1 20  1  0
  5 21  1  0
  6 22  1  0
  7 23  1  0
  8 24  1  0
 10 25  1  0
 15 26  1  0
 15 27  1  0
 15 28  1  0
 16 29  1  0
 17 30  1  0
M  END
$$$$
