PDB_DB01179_98
     RDKit          3D

 52 56  0  0  0  0  0  0  0  0999 V2000
   40.3690   51.0220   -5.7530 O   0  0  0  0  0  0  0  0  0  0  0  0
   41.3540   51.5030   -6.2760 C   0  0  0  0  0  0  0  0  0  0  0  0
   42.7170   51.5170   -5.7800 O   0  0  0  0  0  0  0  0  0  0  0  0
   41.3360   52.3470   -7.4470 C   0  0  0  0  0  0  0  0  0  0  0  0
   42.7540   52.7410   -7.7870 C   0  0  2  0  0  0  0  0  0  0  0  0
   43.6310   52.2670   -6.6180 C   0  0  0  0  0  0  0  0  0  0  0  0
   40.0600   52.6810   -8.1080 C   0  0  1  0  0  0  0  0  0  0  0  0
   40.3450   53.9000   -8.9150 C   0  0  0  0  0  0  0  0  0  0  0  0
   41.5890   54.4140   -9.1430 C   0  0  0  0  0  0  0  0  0  0  0  0
   42.9460   54.0180   -8.5960 C   0  0  2  0  0  0  0  0  0  0  0  0
   43.8850   53.7770   -9.6390 O   0  0  0  0  0  0  0  0  0  0  0  0
   41.3830   55.3540   -9.8810 C   0  0  0  0  0  0  0  0  0  0  0  0
   40.5790   56.0210  -10.4880 C   0  0  0  0  0  0  0  0  0  0  0  0
   39.3960   55.5550  -10.2870 C   0  0  0  0  0  0  0  0  0  0  0  0
   39.2540   54.4810   -9.4890 C   0  0  0  0  0  0  0  0  0  0  0  0
   40.5600   57.1520  -11.3530 O   0  0  0  0  0  0  0  0  0  0  0  0
   39.1710   57.3590  -11.7210 C   0  0  0  0  0  0  0  0  0  0  0  0
   38.4330   56.3350  -11.0310 O   0  0  0  0  0  0  0  0  0  0  0  0
   39.6700   51.4940   -8.9080 C   0  0  0  0  0  0  0  0  0  0  0  0
   38.7560   50.6350   -8.3370 C   0  0  0  0  0  0  0  0  0  0  0  0
   38.3180   49.5040   -9.0100 C   0  0  0  0  0  0  0  0  0  0  0  0
   37.4060   48.6410   -8.4760 O   0  0  0  0  0  0  0  0  0  0  0  0
   37.7910   47.7510   -7.4250 C   0  0  0  0  0  0  0  0  0  0  0  0
   38.7870   49.2120  -10.2460 C   0  0  0  0  0  0  0  0  0  0  0  0
   38.3410   48.0890  -10.8620 O   0  0  0  0  0  0  0  0  0  0  0  0
   37.1470   47.3500  -10.6010 C   0  0  0  0  0  0  0  0  0  0  0  0
   39.6950   50.0400  -10.8310 C   0  0  0  0  0  0  0  0  0  0  0  0
   40.1570   51.1860  -10.1780 C   0  0  0  0  0  0  0  0  0  0  0  0
   40.1250   49.6740  -12.0570 O   0  0  0  0  0  0  0  0  0  0  0  0
   39.6770   50.4920  -13.1180 C   0  0  0  0  0  0  0  0  0  0  0  0
   41.2430   53.2355   -6.8052 H   0  0  0  0  0  0  0  0  0  0  0  0
   43.2119   52.2326   -8.6483 H   0  0  0  0  0  0  0  0  0  0  0  0
   44.0505   53.1240   -6.0706 H   0  0  0  0  0  0  0  0  0  0  0  0
   44.4924   51.6683   -6.9488 H   0  0  0  0  0  0  0  0  0  0  0  0
   39.2177   52.9019   -7.4359 H   0  0  0  0  0  0  0  0  0  0  0  0
   43.3433   54.8371   -7.9785 H   0  0  0  0  0  0  0  0  0  0  0  0
   44.7648   53.5512   -9.2453 H   0  0  0  0  0  0  0  0  0  0  0  0
   42.3675   55.7971  -10.0919 H   0  0  0  0  0  0  0  0  0  0  0  0
   38.2517   54.0696   -9.2988 H   0  0  0  0  0  0  0  0  0  0  0  0
   38.8337   58.3564  -11.4027 H   0  0  0  0  0  0  0  0  0  0  0  0
   39.0250   57.3033  -12.8098 H   0  0  0  0  0  0  0  0  0  0  0  0
   38.3673   50.8499   -7.3307 H   0  0  0  0  0  0  0  0  0  0  0  0
   37.5871   48.2224   -6.4523 H   0  0  0  0  0  0  0  0  0  0  0  0
   37.2167   46.8164   -7.5071 H   0  0  0  0  0  0  0  0  0  0  0  0
   38.8654   47.5296   -7.5071 H   0  0  0  0  0  0  0  0  0  0  0  0
   37.0016   47.2600   -9.5144 H   0  0  0  0  0  0  0  0  0  0  0  0
   36.2872   47.8741  -11.0438 H   0  0  0  0  0  0  0  0  0  0  0  0
   37.2326   46.3467  -11.0438 H   0  0  0  0  0  0  0  0  0  0  0  0
   40.8982   51.8393  -10.6615 H   0  0  0  0  0  0  0  0  0  0  0  0
   39.1866   51.3875  -12.7087 H   0  0  0  0  0  0  0  0  0  0  0  0
   40.5355   50.7942  -13.7357 H   0  0  0  0  0  0  0  0  0  0  0  0
   38.9601   49.9313  -13.7357 H   0  0  0  0  0  0  0  0  0  0  0  0
  1  2  2  0
  2  3  1  0
  2  4  1  0
  4  5  1  0
  3  6  1  0
  5  6  1  0
  4  7  1  0
  7  8  1  0
  8  9  2  0
  5 10  1  0
  9 10  1  0
 10 11  1  0
  9 12  1  0
 12 13  2  0
 13 14  1  0
  8 15  1  0
 14 15  2  0
 13 16  1  0
 16 17  1  0
 14 18  1  0
 17 18  1  0
  7 19  1  0
 19 20  2  0
 20 21  1  0
 21 22  1  0
 22 23  1  0
 21 24  2  0
 24 25  1  0
 25 26  1  0
 24 27  1  0
 19 28  1  0
 27 28  2  0
 27 29  1  0
 29 30  1  0
  4 31  1  0
  5 32  1  6
  6 33  1  0
  6 34  1  0
  7 35  1  1
 10 36  1  1
 11 37  1  0
 12 38  1  0
 15 39  1  0
 17 40  1  0
 17 41  1  0
 20 42  1  0
 23 43  1  0
 23 44  1  0
 23 45  1  0
 26 46  1  0
 26 47  1  0
 26 48  1  0
 28 49  1  0
 30 50  1  0
 30 51  1  0
 30 52  1  0
M  END
$$$$
