PDB_DB00293_99
     RDKit          3D

296304  0  0  0  0  0  0  0  0999 V2000
   -0.3080    6.6200   19.3640 N   0  0  0  0  0  0  0  0  0  0  0  0
   -1.6030    6.6600   18.9260 C   0  0  0  0  0  0  0  0  0  0  0  0
   -2.6410    5.8470   19.5660 C   0  0  0  0  0  0  0  0  0  0  0  0
   -1.9470    7.4590   17.8800 N   0  0  0  0  0  0  0  0  0  0  0  0
   -1.0230    8.2410   17.2540 C   0  0  0  0  0  0  0  0  0  0  0  0
   -1.4230    9.0040   16.1900 O   0  0  0  0  0  0  0  0  0  0  0  0
    0.3250    8.2490   17.6810 C   0  0  0  0  0  0  0  0  0  0  0  0
    1.3180    9.0650   17.0900 C   0  0  0  0  0  0  0  0  0  0  0  0
    2.6760    9.0370   17.5790 C   0  0  0  0  0  0  0  0  0  0  0  0
    3.0090    8.1690   18.6550 C   0  0  0  0  0  0  0  0  0  0  0  0
    2.0100    7.3490   19.2550 C   0  0  0  0  0  0  0  0  0  0  0  0
    0.6580    7.3820   18.7820 C   0  0  0  0  0  0  0  0  0  0  0  0
    3.7660    9.9050   17.0090 C   0  0  0  0  0  0  0  0  0  0  0  0
    3.3900   10.8370   15.9090 N   0  0  0  0  0  0  0  0  0  0  0  0
    1.0690   13.7040   17.0850 C   0  0  0  0  0  0  0  0  0  0  0  0
    1.8900   12.3420   17.6620 S   0  0  0  0  0  0  0  0  0  0  0  0
    2.5740   11.9240   16.1210 C   0  0  0  0  0  0  0  0  0  0  0  0
    2.1710   12.8340   15.1590 C   0  0  0  0  0  0  0  0  0  0  0  0
    1.2730   13.8930   15.7400 C   0  0  0  0  0  0  0  0  0  0  0  0
    0.2530   14.5550   17.9120 C   0  0  0  0  0  0  0  0  0  0  0  0
    0.1360   14.2850   19.1140 O   0  0  0  0  0  0  0  0  0  0  0  0
   -0.3490   15.6000   17.3470 N   0  0  0  0  0  0  0  0  0  0  0  0
   -1.2180   16.5590   18.0520 C   0  0  1  0  0  0  0  0  0  0  0  0
   -0.5640   17.8810   18.3990 C   0  0  0  0  0  0  0  0  0  0  0  0
   -0.6590   18.4840   19.7620 C   0  0  0  0  0  0  0  0  0  0  0  0
    0.4540   19.5100   19.8900 C   0  0  0  0  0  0  0  0  0  0  0  0
    1.4720   19.2220   20.5240 O   0  0  0  0  0  0  0  0  0  0  0  0
    0.3280   20.6200   19.3580 O   0  0  0  0  0  0  0  0  0  0  0  0
   -2.3990   16.8470   17.1360 C   0  0  0  0  0  0  0  0  0  0  0  0
   -2.2490   16.7750   15.8980 O   0  0  0  0  0  0  0  0  0  0  0  0
   -3.4760   17.1360   17.6490 O   0  0  0  0  0  0  0  0  0  0  0  0
    3.9310   10.5450   14.5740 C   0  0  0  0  0  0  0  0  0  0  0  0
    7.9140   -9.5210  -16.2400 N   0  0  0  0  0  0  0  0  0  0  0  0
    6.9710   -8.6500  -16.7190 C   0  0  0  0  0  0  0  0  0  0  0  0
    7.3450   -7.5230  -17.5690 C   0  0  0  0  0  0  0  0  0  0  0  0
    5.6550   -8.8230  -16.4010 N   0  0  0  0  0  0  0  0  0  0  0  0
    5.2390   -9.8540  -15.6180 C   0  0  0  0  0  0  0  0  0  0  0  0
    3.9000   -9.9560  -15.3170 O   0  0  0  0  0  0  0  0  0  0  0  0
    6.1670  -10.7940  -15.1090 C   0  0  0  0  0  0  0  0  0  0  0  0
    5.7820  -11.9100  -14.3110 C   0  0  0  0  0  0  0  0  0  0  0  0
    6.7750  -12.8340  -13.8320 C   0  0  0  0  0  0  0  0  0  0  0  0
    8.1500  -12.6070  -14.1620 C   0  0  0  0  0  0  0  0  0  0  0  0
    8.5380  -11.4970  -14.9620 C   0  0  0  0  0  0  0  0  0  0  0  0
    7.5570  -10.5800  -15.4520 C   0  0  0  0  0  0  0  0  0  0  0  0
    6.4440  -14.0500  -13.0010 C   0  0  0  0  0  0  0  0  0  0  0  0
    5.0080  -14.3100  -12.6730 N   0  0  0  0  0  0  0  0  0  0  0  0
    2.8570  -15.4280  -15.7030 C   0  0  0  0  0  0  0  0  0  0  0  0
    4.4410  -14.9970  -15.2820 S   0  0  0  0  0  0  0  0  0  0  0  0
    4.0860  -14.7200  -13.6150 C   0  0  0  0  0  0  0  0  0  0  0  0
    2.7450  -14.9590  -13.3760 C   0  0  0  0  0  0  0  0  0  0  0  0
    2.0160  -15.3820  -14.6180 C   0  0  0  0  0  0  0  0  0  0  0  0
    2.4390  -15.7830  -17.0400 C   0  0  0  0  0  0  0  0  0  0  0  0
    3.2760  -15.7900  -17.9570 O   0  0  0  0  0  0  0  0  0  0  0  0
    1.1570  -16.0880  -17.2350 N   0  0  0  0  0  0  0  0  0  0  0  0
    0.5580  -16.4650  -18.5290 C   0  0  1  0  0  0  0  0  0  0  0  0
    0.3820  -17.9600  -18.7510 C   0  0  0  0  0  0  0  0  0  0  0  0
    0.9110  -18.6510  -19.9700 C   0  0  0  0  0  0  0  0  0  0  0  0
    1.2750  -20.0800  -19.5880 C   0  0  0  0  0  0  0  0  0  0  0  0
    2.2770  -20.2940  -18.8920 O   0  0  0  0  0  0  0  0  0  0  0  0
    0.5680  -21.0080  -19.9810 O   0  0  0  0  0  0  0  0  0  0  0  0
   -0.8170  -15.8220  -18.5760 C   0  0  0  0  0  0  0  0  0  0  0  0
   -1.4170  -15.6040  -17.5080 O   0  0  0  0  0  0  0  0  0  0  0  0
   -1.2970  -15.5300  -19.6700 O   0  0  0  0  0  0  0  0  0  0  0  0
    4.6120  -14.1030  -11.2770 C   0  0  0  0  0  0  0  0  0  0  0  0
   31.1500   40.8690   40.7760 N   0  0  0  0  0  0  0  0  0  0  0  0
   31.7850   41.0490   41.9630 C   0  0  0  0  0  0  0  0  0  0  0  0
   31.6700   42.3090   42.7060 C   0  0  0  0  0  0  0  0  0  0  0  0
   32.5510   40.0570   42.4820 N   0  0  0  0  0  0  0  0  0  0  0  0
   32.6960   38.8650   41.8430 C   0  0  0  0  0  0  0  0  0  0  0  0
   33.5020   37.9320   42.4180 O   0  0  0  0  0  0  0  0  0  0  0  0
   32.0440   38.6160   40.6080 C   0  0  0  0  0  0  0  0  0  0  0  0
   32.1300   37.3810   39.9020 C   0  0  0  0  0  0  0  0  0  0  0  0
   31.4200   37.2110   38.6470 C   0  0  0  0  0  0  0  0  0  0  0  0
   30.6500   38.2930   38.1300 C   0  0  0  0  0  0  0  0  0  0  0  0
   30.5640   39.5210   38.8400 C   0  0  0  0  0  0  0  0  0  0  0  0
   31.2490   39.6970   40.0830 C   0  0  0  0  0  0  0  0  0  0  0  0
   31.4270   35.9340   37.8500 C   0  0  0  0  0  0  0  0  0  0  0  0
   32.1860   34.7790   38.4010 N   0  0  0  0  0  0  0  0  0  0  0  0
   30.5990   33.3220   41.6290 C   0  0  0  0  0  0  0  0  0  0  0  0
   30.3630   34.5390   40.4640 S   0  0  0  0  0  0  0  0  0  0  0  0
   31.7790   34.1230   39.5410 C   0  0  0  0  0  0  0  0  0  0  0  0
   32.4290   33.0550   40.1300 C   0  0  0  0  0  0  0  0  0  0  0  0
   31.7250   32.5820   41.3690 C   0  0  0  0  0  0  0  0  0  0  0  0
   29.7320   33.0890   42.7670 C   0  0  0  0  0  0  0  0  0  0  0  0
   28.7340   33.8070   42.9240 O   0  0  0  0  0  0  0  0  0  0  0  0
   30.0570   32.0990   43.6060 N   0  0  0  0  0  0  0  0  0  0  0  0
   29.3110   31.7050   44.8170 C   0  0  1  0  0  0  0  0  0  0  0  0
   28.5810   30.3710   44.7070 C   0  0  0  0  0  0  0  0  0  0  0  0
   27.1750   30.1770   45.1910 C   0  0  0  0  0  0  0  0  0  0  0  0
   26.2880   29.9230   43.9770 C   0  0  0  0  0  0  0  0  0  0  0  0
   25.9080   30.8710   43.2820 O   0  0  0  0  0  0  0  0  0  0  0  0
   25.9550   28.7710   43.7000 O   0  0  0  0  0  0  0  0  0  0  0  0
   30.3330   31.5860   45.9450 C   0  0  0  0  0  0  0  0  0  0  0  0
   31.5160   31.2900   45.6710 O   0  0  0  0  0  0  0  0  0  0  0  0
   29.9620   31.7920   47.1030 O   0  0  0  0  0  0  0  0  0  0  0  0
   33.3910   34.3650   37.6710 C   0  0  0  0  0  0  0  0  0  0  0  0
   66.9780   39.8920   23.3300 N   0  0  0  0  0  0  0  0  0  0  0  0
   67.3880   39.2730   24.4780 C   0  0  0  0  0  0  0  0  0  0  0  0
   67.7840   37.8630   24.4860 C   0  0  0  0  0  0  0  0  0  0  0  0
   67.4330   39.9620   25.6440 N   0  0  0  0  0  0  0  0  0  0  0  0
   67.0840   41.2730   25.7090 C   0  0  0  0  0  0  0  0  0  0  0  0
   67.1330   41.8990   26.9260 O   0  0  0  0  0  0  0  0  0  0  0  0
   66.6680   41.9700   24.5500 C   0  0  0  0  0  0  0  0  0  0  0  0
   66.3300   43.3470   24.5560 C   0  0  0  0  0  0  0  0  0  0  0  0
   65.9320   44.0100   23.3390 C   0  0  0  0  0  0  0  0  0  0  0  0
   65.8690   43.2550   22.1270 C   0  0  0  0  0  0  0  0  0  0  0  0
   66.2110   41.8680   22.1190 C   0  0  0  0  0  0  0  0  0  0  0  0
   66.6210   41.2130   23.3270 C   0  0  0  0  0  0  0  0  0  0  0  0
   65.5960   45.4730   23.2820 C   0  0  0  0  0  0  0  0  0  0  0  0
   65.7090   46.2410   24.5570 N   0  0  0  0  0  0  0  0  0  0  0  0
   69.3670   46.7260   25.8120 C   0  0  0  0  0  0  0  0  0  0  0  0
   68.4770   46.0440   24.5450 S   0  0  0  0  0  0  0  0  0  0  0  0
   66.9250   46.5230   25.1630 C   0  0  0  0  0  0  0  0  0  0  0  0
   67.0930   47.2120   26.3510 C   0  0  0  0  0  0  0  0  0  0  0  0
   68.5440   47.3340   26.7360 C   0  0  0  0  0  0  0  0  0  0  0  0
   70.8160   46.6910   25.9020 C   0  0  0  0  0  0  0  0  0  0  0  0
   71.4640   46.1100   25.0170 O   0  0  0  0  0  0  0  0  0  0  0  0
   71.4040   47.2920   26.9430 N   0  0  0  0  0  0  0  0  0  0  0  0
   72.8700   47.3480   27.1840 C   0  0  1  0  0  0  0  0  0  0  0  0
   73.5690   48.6320   26.7310 C   0  0  0  0  0  0  0  0  0  0  0  0
   73.1130   49.4580   25.5580 C   0  0  0  0  0  0  0  0  0  0  0  0
   74.2150   50.4540   25.1820 C   0  0  0  0  0  0  0  0  0  0  0  0
   74.8320   51.0630   26.0680 O   0  0  0  0  0  0  0  0  0  0  0  0
   74.4740   50.6460   23.9890 O   0  0  0  0  0  0  0  0  0  0  0  0
   73.0750   47.2200   28.6850 C   0  0  0  0  0  0  0  0  0  0  0  0
   72.1410   47.5200   29.4490 O   0  0  0  0  0  0  0  0  0  0  0  0
   74.1640   46.8260   29.1040 O   0  0  0  0  0  0  0  0  0  0  0  0
   64.4420   46.6850   25.1540 C   0  0  0  0  0  0  0  0  0  0  0  0
   -0.3283    6.8848   20.3592 H   0  0  0  0  0  0  0  0  0  0  0  0
   -1.3915    5.8386   18.2256 H   0  0  0  0  0  0  0  0  0  0  0  0
   -2.5442    5.9229   20.6591 H   0  0  0  0  0  0  0  0  0  0  0  0
   -3.6328    6.2111   19.2596 H   0  0  0  0  0  0  0  0  0  0  0  0
   -2.5251    4.7969   19.2596 H   0  0  0  0  0  0  0  0  0  0  0  0
   -2.3426    6.8401   17.1580 H   0  0  0  0  0  0  0  0  0  0  0  0
   -0.7850    7.4126   16.5705 H   0  0  0  0  0  0  0  0  0  0  0  0
   -1.8562    9.8304   16.5209 H   0  0  0  0  0  0  0  0  0  0  0  0
    0.5569    7.4476   16.9641 H   0  0  0  0  0  0  0  0  0  0  0  0
    1.3604    8.7890   16.0260 H   0  0  0  0  0  0  0  0  0  0  0  0
    0.9849   10.0824   17.3431 H   0  0  0  0  0  0  0  0  0  0  0  0
    2.4339    9.8343   18.2971 H   0  0  0  0  0  0  0  0  0  0  0  0
    3.7921    7.4917   18.2835 H   0  0  0  0  0  0  0  0  0  0  0  0
    3.2769    8.8658   19.4629 H   0  0  0  0  0  0  0  0  0  0  0  0
    2.3537    6.3091   19.1530 H   0  0  0  0  0  0  0  0  0  0  0  0
    1.9260    7.7660   20.2694 H   0  0  0  0  0  0  0  0  0  0  0  0
    0.8746    6.5675   18.0751 H   0  0  0  0  0  0  0  0  0  0  0  0
    4.1706   10.5116   17.8327 H   0  0  0  0  0  0  0  0  0  0  0  0
    4.4787    9.2019   16.5533 H   0  0  0  0  0  0  0  0  0  0  0  0
    1.9480   14.3274   17.3059 H   0  0  0  0  0  0  0  0  0  0  0  0
    1.6922   11.3057   15.8973 H   0  0  0  0  0  0  0  0  0  0  0  0
    3.0610   13.3170   14.7294 H   0  0  0  0  0  0  0  0  0  0  0  0
    1.6073   12.2909   14.3862 H   0  0  0  0  0  0  0  0  0  0  0  0
    0.3021   13.8595   15.2240 H   0  0  0  0  0  0  0  0  0  0  0  0
    1.7598   14.8695   15.6009 H   0  0  0  0  0  0  0  0  0  0  0  0
   -0.6251   13.9320   17.6866 H   0  0  0  0  0  0  0  0  0  0  0  0
    0.4653   15.0449   19.6565 H   0  0  0  0  0  0  0  0  0  0  0  0
    0.4088   16.1654   16.9385 H   0  0  0  0  0  0  0  0  0  0  0  0
   -1.4944   16.0961   19.0108 H   0  0  0  0  0  0  0  0  0  0  0  0
    0.5093   17.7554   18.1934 H   0  0  0  0  0  0  0  0  0  0  0  0
   -1.1486   18.5902   17.7946 H   0  0  0  0  0  0  0  0  0  0  0  0
   -1.6361   18.9731   19.8883 H   0  0  0  0  0  0  0  0  0  0  0  0
   -0.5593   17.7079   20.5351 H   0  0  0  0  0  0  0  0  0  0  0  0
   -0.0090   19.8975   20.8095 H   0  0  0  0  0  0  0  0  0  0  0  0
    1.2827   19.2756   21.4943 H   0  0  0  0  0  0  0  0  0  0  0  0
    0.2491   21.3148   20.0588 H   0  0  0  0  0  0  0  0  0  0  0  0
   -2.1182   17.9102   17.1082 H   0  0  0  0  0  0  0  0  0  0  0  0
   -1.3754   16.3557   15.6953 H   0  0  0  0  0  0  0  0  0  0  0  0
   -3.3888   17.1126   18.6349 H   0  0  0  0  0  0  0  0  0  0  0  0
    4.8949   10.0247   14.6748 H   0  0  0  0  0  0  0  0  0  0  0  0
    3.2249    9.9055   14.0240 H   0  0  0  0  0  0  0  0  0  0  0  0
    4.0781   11.4862   14.0240 H   0  0  0  0  0  0  0  0  0  0  0  0
    8.3929   -9.9157  -17.0621 H   0  0  0  0  0  0  0  0  0  0  0  0
    7.0999   -8.0198  -15.8267 H   0  0  0  0  0  0  0  0  0  0  0  0
    7.6290   -6.6671  -16.9391 H   0  0  0  0  0  0  0  0  0  0  0  0
    8.1963   -7.8094  -18.2041 H   0  0  0  0  0  0  0  0  0  0  0  0
    6.4914   -7.2436  -18.2041 H   0  0  0  0  0  0  0  0  0  0  0  0
    5.3557   -7.9594  -15.9261 H   0  0  0  0  0  0  0  0  0  0  0  0
    5.3934   -9.2355  -14.7216 H   0  0  0  0  0  0  0  0  0  0  0  0
    3.7825   -9.9650  -14.3340 H   0  0  0  0  0  0  0  0  0  0  0  0
    6.2854  -10.1852  -14.2005 H   0  0  0  0  0  0  0  0  0  0  0  0
    5.2730  -11.5045  -13.4242 H   0  0  0  0  0  0  0  0  0  0  0  0
    5.1856  -12.5205  -15.0050 H   0  0  0  0  0  0  0  0  0  0  0  0
    6.6553  -13.4359  -14.7449 H   0  0  0  0  0  0  0  0  0  0  0  0
    8.6883  -12.5081  -13.2078 H   0  0  0  0  0  0  0  0  0  0  0  0
    8.3886  -13.4652  -14.8074 H   0  0  0  0  0  0  0  0  0  0  0  0
    9.2481  -10.9087  -14.3623 H   0  0  0  0  0  0  0  0  0  0  0  0
    8.9143  -11.9720  -15.8800 H   0  0  0  0  0  0  0  0  0  0  0  0
    7.6820   -9.9550  -14.5555 H   0  0  0  0  0  0  0  0  0  0  0  0
    6.8191  -14.9293  -13.5452 H   0  0  0  0  0  0  0  0  0  0  0  0
    6.9155  -13.8522  -12.0271 H   0  0  0  0  0  0  0  0  0  0  0  0
    3.0848  -16.4812  -15.4818 H   0  0  0  0  0  0  0  0  0  0  0  0
    3.8489  -13.6697  -13.8400 H   0  0  0  0  0  0  0  0  0  0  0  0
    2.6556  -15.7563  -12.6235 H   0  0  0  0  0  0  0  0  0  0  0  0
    2.2923  -14.0216  -13.0206 H   0  0  0  0  0  0  0  0  0  0  0  0
    1.2088  -14.6629  -14.8214 H   0  0  0  0  0  0  0  0  0  0  0  0
    1.6089  -16.3905  -14.4533 H   0  0  0  0  0  0  0  0  0  0  0  0
    2.2167  -14.7266  -17.2510 H   0  0  0  0  0  0  0  0  0  0  0  0
    4.1878  -15.7976  -17.5715 H   0  0  0  0  0  0  0  0  0  0  0  0
    0.9655  -16.8795  -16.6043 H   0  0  0  0  0  0  0  0  0  0  0  0
    1.2480  -16.1244  -19.3150 H   0  0  0  0  0  0  0  0  0  0  0  0
    0.8508  -18.4562  -17.8885 H   0  0  0  0  0  0  0  0  0  0  0  0
   -0.7056  -18.0451  -18.8921 H   0  0  0  0  0  0  0  0  0  0  0  0
    0.1415  -18.6604  -20.7559 H   0  0  0  0  0  0  0  0  0  0  0  0
    1.7972  -18.1226  -20.3513 H   0  0  0  0  0  0  0  0  0  0  0  0
    1.8880  -20.1669  -20.4972 H   0  0  0  0  0  0  0  0  0  0  0  0
    2.0310  -20.2415  -17.9345 H   0  0  0  0  0  0  0  0  0  0  0  0
    0.1979  -21.4938  -19.2018 H   0  0  0  0  0  0  0  0  0  0  0  0
   -1.2807  -16.8178  -18.6333 H   0  0  0  0  0  0  0  0  0  0  0  0
   -0.8231  -15.8198  -16.7459 H   0  0  0  0  0  0  0  0  0  0  0  0
   -2.1351  -15.0201  -19.5371 H   0  0  0  0  0  0  0  0  0  0  0  0
    5.3883  -14.5088  -10.6116 H   0  0  0  0  0  0  0  0  0  0  0  0
    4.4913  -13.0265  -11.0859 H   0  0  0  0  0  0  0  0  0  0  0  0
    3.6592  -14.6184  -11.0859 H   0  0  0  0  0  0  0  0  0  0  0  0
   30.1468   41.0144   40.9585 H   0  0  0  0  0  0  0  0  0  0  0  0
   32.6649   41.4420   41.4327 H   0  0  0  0  0  0  0  0  0  0  0  0
   31.6890   42.1009   43.7860 H   0  0  0  0  0  0  0  0  0  0  0  0
   32.5118   42.9670   42.4445 H   0  0  0  0  0  0  0  0  0  0  0  0
   30.7230   42.8037   42.4445 H   0  0  0  0  0  0  0  0  0  0  0  0
   33.4984   40.4468   42.5892 H   0  0  0  0  0  0  0  0  0  0  0  0
   33.5568   39.2669   41.2885 H   0  0  0  0  0  0  0  0  0  0  0  0
   33.4396   38.0042   43.4034 H   0  0  0  0  0  0  0  0  0  0  0  0
   32.9271   38.9868   40.0670 H   0  0  0  0  0  0  0  0  0  0  0  0
   33.1957   37.2103   39.6895 H   0  0  0  0  0  0  0  0  0  0  0  0
   31.6281   36.6699   40.5746 H   0  0  0  0  0  0  0  0  0  0  0  0
   30.5389   36.8458   39.1950 H   0  0  0  0  0  0  0  0  0  0  0  0
   31.0651   38.5302   37.1393 H   0  0  0  0  0  0  0  0  0  0  0  0
   29.6206   37.9081   38.1759 H   0  0  0  0  0  0  0  0  0  0  0  0
   30.9381   40.3023   38.1621 H   0  0  0  0  0  0  0  0  0  0  0  0
   29.5055   39.5580   39.1369 H   0  0  0  0  0  0  0  0  0  0  0  0
   32.1295   40.0861   39.5508 H   0  0  0  0  0  0  0  0  0  0  0  0
   30.3811   35.6140   37.7330 H   0  0  0  0  0  0  0  0  0  0  0  0
   31.9505   36.1912   36.9174 H   0  0  0  0  0  0  0  0  0  0  0  0
   30.0013   32.6256   41.0226 H   0  0  0  0  0  0  0  0  0  0  0  0
   32.3800   34.8124   40.1522 H   0  0  0  0  0  0  0  0  0  0  0  0
   32.4747   32.2256   39.4089 H   0  0  0  0  0  0  0  0  0  0  0  0
   33.4371   33.3877   40.4181 H   0  0  0  0  0  0  0  0  0  0  0  0
   32.4123   32.6672   42.2236 H   0  0  0  0  0  0  0  0  0  0  0  0
   31.4188   31.5374   41.2107 H   0  0  0  0  0  0  0  0  0  0  0  0
   30.3308   33.7902   43.3668 H   0  0  0  0  0  0  0  0  0  0  0  0
   28.5643   33.9291   43.8917 H   0  0  0  0  0  0  0  0  0  0  0  0
   30.0903   31.2511   43.0222 H   0  0  0  0  0  0  0  0  0  0  0  0
   28.5371   32.4677   44.9881 H   0  0  0  0  0  0  0  0  0  0  0  0
   28.5734   30.1148   43.6373 H   0  0  0  0  0  0  0  0  0  0  0  0
   29.1491   29.7457   45.4115 H   0  0  0  0  0  0  0  0  0  0  0  0
   27.1307   29.3146   45.8724 H   0  0  0  0  0  0  0  0  0  0  0  0
   26.8318   31.0699   45.7341 H   0  0  0  0  0  0  0  0  0  0  0  0
   25.3935   30.0275   44.6087 H   0  0  0  0  0  0  0  0  0  0  0  0
   25.6111   31.6116   43.8680 H   0  0  0  0  0  0  0  0  0  0  0  0
   25.8074   28.2603   44.5352 H   0  0  0  0  0  0  0  0  0  0  0  0
   30.0906   30.5184   46.0520 H   0  0  0  0  0  0  0  0  0  0  0  0
   32.0268   31.1622   46.5093 H   0  0  0  0  0  0  0  0  0  0  0  0
   30.6289   31.4217   47.7340 H   0  0  0  0  0  0  0  0  0  0  0  0
   34.1795   34.0941   38.3886 H   0  0  0  0  0  0  0  0  0  0  0  0
   33.1563   33.4960   37.0388 H   0  0  0  0  0  0  0  0  0  0  0  0
   33.7399   35.1948   37.0388 H   0  0  0  0  0  0  0  0  0  0  0  0
   67.7499   39.7964   22.6548 H   0  0  0  0  0  0  0  0  0  0  0  0
   66.3490   38.9824   24.6924 H   0  0  0  0  0  0  0  0  0  0  0  0
   67.8816   37.5155   25.5251 H   0  0  0  0  0  0  0  0  0  0  0  0
   67.0192   37.2644   23.9695 H   0  0  0  0  0  0  0  0  0  0  0  0
   68.7486   37.7501   23.9695 H   0  0  0  0  0  0  0  0  0  0  0  0
   66.8140   39.4640   26.2995 H   0  0  0  0  0  0  0  0  0  0  0  0
   66.0394   40.9855   25.8989 H   0  0  0  0  0  0  0  0  0  0  0  0
   67.0801   41.2229   27.6472 H   0  0  0  0  0  0  0  0  0  0  0  0
   65.6216   41.7122   24.7705 H   0  0  0  0  0  0  0  0  0  0  0  0
   65.4969   43.4635   25.2648 H   0  0  0  0  0  0  0  0  0  0  0  0
   67.2853   43.8342   24.8010 H   0  0  0  0  0  0  0  0  0  0  0  0
   66.9832   44.2576   23.1301 H   0  0  0  0  0  0  0  0  0  0  0  0
   64.8329   43.3264   21.7646 H   0  0  0  0  0  0  0  0  0  0  0  0
   66.6596   43.7086   21.5112 H   0  0  0  0  0  0  0  0  0  0  0  0
   65.3262   41.3273   21.7519 H   0  0  0  0  0  0  0  0  0  0  0  0
   67.1210   41.8409   21.5015 H   0  0  0  0  0  0  0  0  0  0  0  0
   65.5793   40.9320   23.5410 H   0  0  0  0  0  0  0  0  0  0  0  0
   66.2715   45.9411   22.5509 H   0  0  0  0  0  0  0  0  0  0  0  0
   64.5293   45.5126   23.0164 H   0  0  0  0  0  0  0  0  0  0  0  0
   69.4380   47.6710   25.2535 H   0  0  0  0  0  0  0  0  0  0  0  0
   66.8605   45.5826   25.7300 H   0  0  0  0  0  0  0  0  0  0  0  0
   66.6700   48.2212   26.2384 H   0  0  0  0  0  0  0  0  0  0  0  0
   66.5787   46.6494   27.1441 H   0  0  0  0  0  0  0  0  0  0  0  0
   68.6945   46.8578   27.7161 H   0  0  0  0  0  0  0  0  0  0  0  0
   68.8010   48.4029   26.7750 H   0  0  0  0  0  0  0  0  0  0  0  0
   70.7578   45.7537   26.4747 H   0  0  0  0  0  0  0  0  0  0  0  0
   72.1318   45.5113   25.4362 H   0  0  0  0  0  0  0  0  0  0  0  0
   71.0956   48.2739   26.9021 H   0  0  0  0  0  0  0  0  0  0  0  0
   73.3153   46.5387   26.5867 H   0  0  0  0  0  0  0  0  0  0  0  0
   73.5496   49.3070   27.5993 H   0  0  0  0  0  0  0  0  0  0  0  0
   74.5235   48.2349   26.3550 H   0  0  0  0  0  0  0  0  0  0  0  0
   72.9060   48.7985   24.7023 H   0  0  0  0  0  0  0  0  0  0  0  0
   72.1972   50.0052   25.8260 H   0  0  0  0  0  0  0  0  0  0  0  0
   73.4708   51.2631   25.1441 H   0  0  0  0  0  0  0  0  0  0  0  0
   74.5214   50.7565   26.9566 H   0  0  0  0  0  0  0  0  0  0  0  0
   75.2670   51.2339   23.9139 H   0  0  0  0  0  0  0  0  0  0  0  0
   73.4397   48.2571   28.7236 H   0  0  0  0  0  0  0  0  0  0  0  0
   72.4392   47.4242   30.3882 H   0  0  0  0  0  0  0  0  0  0  0  0
   74.1572   46.8285   30.0940 H   0  0  0  0  0  0  0  0  0  0  0  0
   64.5235   46.6564   26.2506 H   0  0  0  0  0  0  0  0  0  0  0  0
   64.2240   47.7131   24.8292 H   0  0  0  0  0  0  0  0  0  0  0  0
   63.6299   46.0179   24.8292 H   0  0  0  0  0  0  0  0  0  0  0  0
  1  2  1  0
  2  3  1  0
  2  4  1  0
  4  5  1  0
  5  6  1  0
  5  7  1  0
  7  8  1  0
  8  9  1  0
  9 10  1  0
 10 11  1  0
  1 12  1  0
  7 12  1  0
 11 12  1  0
  9 13  1  0
 13 14  1  0
 15 16  1  0
 14 17  1  0
 16 17  1  0
 17 18  1  0
 15 19  1  0
 18 19  1  0
 15 20  1  0
 20 21  1  0
 20 22  1  0
 22 23  1  0
 23 24  1  0
 24 25  1  0
 25 26  1  0
 26 27  1  0
 26 28  1  0
 23 29  1  0
 29 30  1  0
 29 31  1  0
 14 32  1  0
 33 34  1  0
 34 35  1  0
 34 36  1  0
 36 37  1  0
 37 38  1  0
 37 39  1  0
 39 40  1  0
 40 41  1  0
 41 42  1  0
 42 43  1  0
 33 44  1  0
 39 44  1  0
 43 44  1  0
 41 45  1  0
 45 46  1  0
 47 48  1  0
 46 49  1  0
 48 49  1  0
 49 50  1  0
 47 51  1  0
 50 51  1  0
 47 52  1  0
 52 53  1  0
 52 54  1  0
 54 55  1  0
 55 56  1  0
 56 57  1  0
 57 58  1  0
 58 59  1  0
 58 60  1  0
 55 61  1  0
 61 62  1  0
 61 63  1  0
 46 64  1  0
 65 66  1  0
 66 67  1  0
 66 68  1  0
 68 69  1  0
 69 70  1  0
 69 71  1  0
 71 72  1  0
 72 73  1  0
 73 74  1  0
 74 75  1  0
 65 76  1  0
 71 76  1  0
 75 76  1  0
 73 77  1  0
 77 78  1  0
 79 80  1  0
 78 81  1  0
 80 81  1  0
 81 82  1  0
 79 83  1  0
 82 83  1  0
 79 84  1  0
 84 85  1  0
 84 86  1  0
 86 87  1  0
 87 88  1  0
 88 89  1  0
 89 90  1  0
 90 91  1  0
 90 92  1  0
 87 93  1  0
 93 94  1  0
 93 95  1  0
 78 96  1  0
 97 98  1  0
 98 99  1  0
 98100  1  0
100101  1  0
101102  1  0
101103  1  0
103104  1  0
104105  1  0
105106  1  0
106107  1  0
 97108  1  0
103108  1  0
107108  1  0
105109  1  0
109110  1  0
111112  1  0
110113  1  0
112113  1  0
113114  1  0
111115  1  0
114115  1  0
111116  1  0
116117  1  0
116118  1  0
118119  1  0
119120  1  0
120121  1  0
121122  1  0
122123  1  0
122124  1  0
119125  1  0
125126  1  0
125127  1  0
110128  1  0
  1129  1  0
  2130  1  0
  3131  1  0
  3132  1  0
  3133  1  0
  4134  1  0
  5135  1  0
  6136  1  0
  7137  1  0
  8138  1  0
  8139  1  0
  9140  1  0
 10141  1  0
 10142  1  0
 11143  1  0
 11144  1  0
 12145  1  0
 13146  1  0
 13147  1  0
 15148  1  0
 17149  1  0
 18150  1  0
 18151  1  0
 19152  1  0
 19153  1  0
 20154  1  0
 21155  1  0
 22156  1  0
 23157  1  1
 24158  1  0
 24159  1  0
 25160  1  0
 25161  1  0
 26162  1  0
 27163  1  0
 28164  1  0
 29165  1  0
 30166  1  0
 31167  1  0
 32168  1  0
 32169  1  0
 32170  1  0
 33171  1  0
 34172  1  0
 35173  1  0
 35174  1  0
 35175  1  0
 36176  1  0
 37177  1  0
 38178  1  0
 39179  1  0
 40180  1  0
 40181  1  0
 41182  1  0
 42183  1  0
 42184  1  0
 43185  1  0
 43186  1  0
 44187  1  0
 45188  1  0
 45189  1  0
 47190  1  0
 49191  1  0
 50192  1  0
 50193  1  0
 51194  1  0
 51195  1  0
 52196  1  0
 53197  1  0
 54198  1  0
 55199  1  6
 56200  1  0
 56201  1  0
 57202  1  0
 57203  1  0
 58204  1  0
 59205  1  0
 60206  1  0
 61207  1  0
 62208  1  0
 63209  1  0
 64210  1  0
 64211  1  0
 64212  1  0
 65213  1  0
 66214  1  0
 67215  1  0
 67216  1  0
 67217  1  0
 68218  1  0
 69219  1  0
 70220  1  0
 71221  1  0
 72222  1  0
 72223  1  0
 73224  1  0
 74225  1  0
 74226  1  0
 75227  1  0
 75228  1  0
 76229  1  0
 77230  1  0
 77231  1  0
 79232  1  0
 81233  1  0
 82234  1  0
 82235  1  0
 83236  1  0
 83237  1  0
 84238  1  0
 85239  1  0
 86240  1  0
 87241  1  1
 88242  1  0
 88243  1  0
 89244  1  0
 89245  1  0
 90246  1  0
 91247  1  0
 92248  1  0
 93249  1  0
 94250  1  0
 95251  1  0
 96252  1  0
 96253  1  0
 96254  1  0
 97255  1  0
 98256  1  0
 99257  1  0
 99258  1  0
 99259  1  0
100260  1  0
101261  1  0
102262  1  0
103263  1  0
104264  1  0
104265  1  0
105266  1  0
106267  1  0
106268  1  0
107269  1  0
107270  1  0
108271  1  0
109272  1  0
109273  1  0
111274  1  0
113275  1  0
114276  1  0
114277  1  0
115278  1  0
115279  1  0
116280  1  0
117281  1  0
118282  1  0
119283  1  6
120284  1  0
120285  1  0
121286  1  0
121287  1  0
122288  1  0
123289  1  0
124290  1  0
125291  1  0
126292  1  0
127293  1  0
128294  1  0
128295  1  0
128296  1  0
M  END
>  <PDBID>  (1) 
1HVY

>  <PDB ID>  (1) 
1HVY

>  <Generic Name>  (1) 
Raltitrexed

>  <Brand Name>  (1) 
Tomudex

>  <DrugBank ID>  (1) 
DB00293

>  <ATC Codes>  (1) 
L01BA03

>  <Ligand ID>  (1) 
D16

>  <Target Name>  (1) 
Thymidylate synthase

>  <UniProt ID>  (1) 
P04818

>  <PDB ID.1>  (1) 
1HVY

>  <Seq. Identity>  (1) 
100%

$$$$
