PDB_DB00530_99
     RDKit          3D

 72 74  0  0  0  0  0  0  0  0999 V2000
   29.5520   -1.9890   53.4960 C   0  0  0  0  0  0  0  0  0  0  0  0
   28.8410   -1.0220   53.4320 C   0  0  0  0  0  0  0  0  0  0  0  0
   27.9890    0.0940   53.3660 C   0  0  0  0  0  0  0  0  0  0  0  0
   26.6060   -0.1190   53.3230 C   0  0  0  0  0  0  0  0  0  0  0  0
   25.7250    0.9720   53.2580 C   0  0  0  0  0  0  0  0  0  0  0  0
   24.2890    0.7120   53.2150 N   0  0  0  0  0  0  0  0  0  0  0  0
   23.4100   -0.2170   53.9080 C   0  0  0  0  0  0  0  0  0  0  0  0
   22.0370   -0.3090   53.5720 C   0  0  0  0  0  0  0  0  0  0  0  0
   21.5010    0.4760   52.5460 C   0  0  0  0  0  0  0  0  0  0  0  0
   20.1430    0.3760   52.2180 C   0  0  0  0  0  0  0  0  0  0  0  0
   19.5890    1.2200   51.1200 O   0  0  0  0  0  0  0  0  0  0  0  0
   20.5500    1.3620   50.0410 C   0  0  0  0  0  0  0  0  0  0  0  0
   20.2350    2.6450   49.2620 C   0  0  0  0  0  0  0  0  0  0  0  0
   18.9900    2.4850   48.5430 O   0  0  0  0  0  0  0  0  0  0  0  0
   17.7120    2.6180   49.3990 C   0  0  0  0  0  0  0  0  0  0  0  0
   19.3010   -0.5350   52.9230 C   0  0  0  0  0  0  0  0  0  0  0  0
   17.8280   -0.6790   52.5970 O   0  0  0  0  0  0  0  0  0  0  0  0
   17.2270    0.6010   52.2200 C   0  0  0  0  0  0  0  0  0  0  0  0
   15.7030    0.4940   52.0660 C   0  0  0  0  0  0  0  0  0  0  0  0
   15.1080    0.1670   53.3350 O   0  0  0  0  0  0  0  0  0  0  0  0
   13.8430   -0.6950   53.2210 C   0  0  0  0  0  0  0  0  0  0  0  0
   19.8450   -1.3180   53.9420 C   0  0  0  0  0  0  0  0  0  0  0  0
   21.1990   -1.2220   54.2640 C   0  0  0  0  0  0  0  0  0  0  0  0
   21.7470   -2.0390   55.3190 N   0  0  0  0  0  0  0  0  0  0  0  0
   23.1170   -1.9340   55.6420 C   0  0  0  0  0  0  0  0  0  0  0  0
   23.9430   -1.0230   54.9400 N   0  0  0  0  0  0  0  0  0  0  0  0
   26.2340    2.2920   53.2360 C   0  0  0  0  0  0  0  0  0  0  0  0
   27.6250    2.5090   53.2790 C   0  0  0  0  0  0  0  0  0  0  0  0
   28.5080    1.4100   53.3440 C   0  0  0  0  0  0  0  0  0  0  0  0
   29.7362   -2.2395   54.5511 H   0  0  0  0  0  0  0  0  0  0  0  0
   29.0617   -2.8383   52.9977 H   0  0  0  0  0  0  0  0  0  0  0  0
   30.5089   -1.7742   52.9977 H   0  0  0  0  0  0  0  0  0  0  0  0
   29.5388   -0.4592   54.0695 H   0  0  0  0  0  0  0  0  0  0  0  0
   28.5817   -1.2813   52.3949 H   0  0  0  0  0  0  0  0  0  0  0  0
   28.0285    0.0592   52.2673 H   0  0  0  0  0  0  0  0  0  0  0  0
   26.4086   -0.7386   52.4358 H   0  0  0  0  0  0  0  0  0  0  0  0
   26.3893   -0.5577   54.3082 H   0  0  0  0  0  0  0  0  0  0  0  0
   25.7640    0.9381   52.1592 H   0  0  0  0  0  0  0  0  0  0  0  0
   23.8796    1.6303   53.4385 H   0  0  0  0  0  0  0  0  0  0  0  0
   23.1760    0.5591   54.6516 H   0  0  0  0  0  0  0  0  0  0  0  0
   21.8060    0.4835   54.2990 H   0  0  0  0  0  0  0  0  0  0  0  0
   21.6836    1.5251   52.8218 H   0  0  0  0  0  0  0  0  0  0  0  0
   22.0048    0.0912   51.6470 H   0  0  0  0  0  0  0  0  0  0  0  0
   19.9092    1.1679   52.9447 H   0  0  0  0  0  0  0  0  0  0  0  0
   21.5664    1.4227   50.4572 H   0  0  0  0  0  0  0  0  0  0  0  0
   20.4879    0.4930   49.3694 H   0  0  0  0  0  0  0  0  0  0  0  0
   20.1461    3.4869   49.9644 H   0  0  0  0  0  0  0  0  0  0  0  0
   21.0460    2.8454   48.5464 H   0  0  0  0  0  0  0  0  0  0  0  0
   17.9804    2.5901   50.4654 H   0  0  0  0  0  0  0  0  0  0  0  0
   17.2155    3.5727   49.1707 H   0  0  0  0  0  0  0  0  0  0  0  0
   17.0296    1.7860   49.1707 H   0  0  0  0  0  0  0  0  0  0  0  0
   19.0623    0.2514   53.6541 H   0  0  0  0  0  0  0  0  0  0  0  0
   17.4546    1.3439   52.9986 H   0  0  0  0  0  0  0  0  0  0  0  0
   17.6476    0.9027   51.2494 H   0  0  0  0  0  0  0  0  0  0  0  0
   15.3031    1.4556   51.7118 H   0  0  0  0  0  0  0  0  0  0  0  0
   15.4654   -0.2960   51.3384 H   0  0  0  0  0  0  0  0  0  0  0  0
   13.4772   -0.9443   54.2280 H   0  0  0  0  0  0  0  0  0  0  0  0
   13.0669   -0.1370   52.6767 H   0  0  0  0  0  0  0  0  0  0  0  0
   14.0784   -1.6214   52.6767 H   0  0  0  0  0  0  0  0  0  0  0  0
   19.2856   -1.0761   54.8577 H   0  0  0  0  0  0  0  0  0  0  0  0
   19.7583   -2.3389   53.5418 H   0  0  0  0  0  0  0  0  0  0  0  0
   20.9671   -0.4454   55.0077 H   0  0  0  0  0  0  0  0  0  0  0  0
   21.2198   -1.8152   56.1751 H   0  0  0  0  0  0  0  0  0  0  0  0
   23.1721   -1.6578   56.7053 H   0  0  0  0  0  0  0  0  0  0  0  0
   23.5206   -2.9154   55.3523 H   0  0  0  0  0  0  0  0  0  0  0  0
   24.7018   -1.5776   54.5187 H   0  0  0  0  0  0  0  0  0  0  0  0
   25.8678    2.7586   52.3096 H   0  0  0  0  0  0  0  0  0  0  0  0
   25.8813    2.7160   54.1878 H   0  0  0  0  0  0  0  0  0  0  0  0
   27.8867    3.0737   52.3720 H   0  0  0  0  0  0  0  0  0  0  0  0
   27.7733    3.0107   54.2466 H   0  0  0  0  0  0  0  0  0  0  0  0
   29.1038    1.5333   54.2604 H   0  0  0  0  0  0  0  0  0  0  0  0
   29.0463    1.4570   52.3859 H   0  0  0  0  0  0  0  0  0  0  0  0
  1  2  1  0
  2  3  1  0
  3  4  1  0
  4  5  1  0
  5  6  1  0
  6  7  1  0
  7  8  1  0
  8  9  1  0
  9 10  1  0
 10 11  1  0
 11 12  1  0
 12 13  1  0
 13 14  1  0
 14 15  1  0
 10 16  1  0
 16 17  1  0
 17 18  1  0
 18 19  1  0
 19 20  1  0
 20 21  1  0
 16 22  1  0
  8 23  1  0
 22 23  1  0
 23 24  1  0
 24 25  1  0
  7 26  1  0
 25 26  1  0
  5 27  1  0
 27 28  1  0
  3 29  1  0
 28 29  1  0
  1 30  1  0
  1 31  1  0
  1 32  1  0
  2 33  1  0
  2 34  1  0
  3 35  1  0
  4 36  1  0
  4 37  1  0
  5 38  1  0
  6 39  1  0
  7 40  1  0
  8 41  1  0
  9 42  1  0
  9 43  1  0
 10 44  1  0
 12 45  1  0
 12 46  1  0
 13 47  1  0
 13 48  1  0
 15 49  1  0
 15 50  1  0
 15 51  1  0
 16 52  1  0
 18 53  1  0
 18 54  1  0
 19 55  1  0
 19 56  1  0
 21 57  1  0
 21 58  1  0
 21 59  1  0
 22 60  1  0
 22 61  1  0
 23 62  1  0
 24 63  1  0
 25 64  1  0
 25 65  1  0
 26 66  1  0
 27 67  1  0
 27 68  1  0
 28 69  1  0
 28 70  1  0
 29 71  1  0
 29 72  1  0
M  END
>  <PDBID>  (1) 
1M17

>  <PDB ID>  (1) 
1M17

>  <Generic Name>  (1) 
Erlotinib

>  <Brand Name>  (1) 
PMS-erlotinib#Tarceva#Teva-erlotinib

>  <DrugBank ID>  (1) 
DB00530

>  <ATC Codes>  (1) 
L01XE03

>  <Ligand ID>  (1) 
AQ4

>  <Target Name>  (1) 
Epidermal growth factor receptor

>  <UniProt ID>  (1) 
P00533

>  <PDB ID.1>  (1) 
1M17

>  <Seq. Identity>  (1) 
96%

$$$$
