PDB_DB00278_97
     RDKit          3D

 85 87  0  0  0  0  0  0  0  0999 V2000
  -35.1690  -32.1600   45.7160 S   0  0  2  0  0  4  0  0  0  0  0  0
  -35.9600  -32.9770   46.7400 O   0  0  0  0  0  0  0  0  0  0  0  0
  -34.1530  -33.0520   45.0940 O   0  0  0  0  0  0  0  0  0  0  0  0
  -37.3200  -29.0370   47.6640 C   0  0  0  0  0  0  0  0  0  0  0  0
  -36.6110  -28.0170   48.5360 C   0  0  1  0  0  0  0  0  0  0  0  0
  -35.3650  -27.4850   47.8910 C   0  0  0  0  0  0  0  0  0  0  0  0
  -34.5190  -28.6650   47.4570 C   0  0  1  0  0  0  0  0  0  0  0  0
  -33.1670  -28.4470   47.3480 C   0  0  0  0  0  0  0  0  0  0  0  0
  -32.3790  -29.3780   46.7280 C   0  0  0  0  0  0  0  0  0  0  0  0
  -32.9890  -30.4740   46.1930 C   0  0  0  0  0  0  0  0  0  0  0  0
  -34.3130  -30.7420   46.5010 C   0  0  1  0  0  0  0  0  0  0  0  0
  -35.1530  -29.8260   47.0650 C   0  0  1  0  0  0  0  0  0  0  0  0
  -37.4740  -26.8410   48.8390 C   0  0  0  0  0  0  0  0  0  0  0  0
  -36.4220  -30.1510   47.3630 N   0  0  0  0  0  0  0  0  0  0  0  0
  -36.2040  -31.9230   44.4240 N   0  0  0  0  0  0  0  0  0  0  0  0
  -35.5900  -31.1910   43.3390 C   0  0  2  0  0  0  0  0  0  0  0  0
  -35.7990  -29.6970   43.5510 C   0  0  1  0  0  0  0  0  0  0  0  0
  -36.6700  -29.3770   44.3390 O   0  0  0  0  0  0  0  0  0  0  0  0
  -36.1440  -31.6550   41.9980 C   0  0  0  0  0  0  0  0  0  0  0  0
  -37.5720  -31.9960   41.9920 C   0  0  0  0  0  0  0  0  0  0  0  0
  -38.0390  -32.1450   40.5680 C   0  0  0  0  0  0  0  0  0  0  0  0
  -39.4550  -32.4600   40.6590 N   0  0  0  0  0  0  0  0  0  0  0  0
  -40.4130  -31.5300   40.7300 C   0  0  0  0  0  0  0  0  0  0  0  0
  -40.1890  -30.2430   40.4180 N   0  0  0  0  0  0  0  0  0  0  0  0
  -41.6320  -31.9250   41.0790 N   0  0  0  0  0  0  0  0  0  0  0  0
  -34.9960  -28.7550   43.0340 N   0  0  0  0  0  0  0  0  0  0  0  0
  -33.7780  -29.0960   42.3050 C   0  0  2  0  0  0  0  0  0  0  0  0
  -32.5830  -28.3080   42.9540 C   0  0  0  0  0  0  0  0  0  0  0  0
  -32.7060  -26.8400   43.1660 C   0  0  1  0  0  0  0  0  0  0  0  0
  -33.9650  -26.7260   44.0150 C   0  0  0  0  0  0  0  0  0  0  0  0
  -35.1790  -27.3130   43.2720 C   0  0  0  0  0  0  0  0  0  0  0  0
  -33.8760  -28.8930   40.7810 C   0  0  1  0  0  0  0  0  0  0  0  0
  -32.8190  -28.8150   40.1510 O   0  0  0  0  0  0  0  0  0  0  0  0
  -34.9780  -28.8860   40.2120 O   0  0  0  0  0  0  0  0  0  0  0  0
  -31.4510  -26.3080   43.8470 C   0  0  0  0  0  0  0  0  0  0  0  0
  -36.7930  -31.0040   47.0530 H   0  0  0  0  0  0  0  0  0  0  0  0
  -37.0520  -31.5050   44.6950 H   0  0  0  0  0  0  0  0  0  0  0  0
  -39.7280  -33.3990   40.6750 H   0  0  0  0  0  0  0  0  0  0  0  0
  -39.2780  -29.9500   40.1270 H   0  0  0  0  0  0  0  0  0  0  0  0
  -40.9210  -29.5650   40.4910 H   0  0  0  0  0  0  0  0  0  0  0  0
  -41.8230  -32.8850   41.2700 H   0  0  0  0  0  0  0  0  0  0  0  0
  -42.3710  -31.2520   41.1240 H   0  0  0  0  0  0  0  0  0  0  0  0
  -35.6961  -32.7045   47.6544 H   0  0  0  0  0  0  0  0  0  0  0  0
  -33.6346  -33.5072   45.8040 H   0  0  0  0  0  0  0  0  0  0  0  0
  -38.2056  -29.4166   48.1947 H   0  0  0  0  0  0  0  0  0  0  0  0
  -37.6254  -28.5562   46.7230 H   0  0  0  0  0  0  0  0  0  0  0  0
  -36.3620  -28.5608   49.4592 H   0  0  0  0  0  0  0  0  0  0  0  0
  -35.6300  -26.8741   47.0154 H   0  0  0  0  0  0  0  0  0  0  0  0
  -34.8070  -26.8565   48.6007 H   0  0  0  0  0  0  0  0  0  0  0  0
  -34.6510  -28.3726   46.4048 H   0  0  0  0  0  0  0  0  0  0  0  0
  -33.0392  -27.5032   46.7976 H   0  0  0  0  0  0  0  0  0  0  0  0
  -32.8185  -28.4695   48.3911 H   0  0  0  0  0  0  0  0  0  0  0  0
  -31.8483  -28.8668   45.9113 H   0  0  0  0  0  0  0  0  0  0  0  0
  -31.7426  -29.7798   47.5302 H   0  0  0  0  0  0  0  0  0  0  0  0
  -32.9308  -30.3694   45.0995 H   0  0  0  0  0  0  0  0  0  0  0  0
  -32.4453  -31.3162   46.6460 H   0  0  0  0  0  0  0  0  0  0  0  0
  -33.8217  -31.0942   47.4200 H   0  0  0  0  0  0  0  0  0  0  0  0
  -35.9713  -29.3768   46.4832 H   0  0  0  0  0  0  0  0  0  0  0  0
  -37.5616  -26.7216   49.9290 H   0  0  0  0  0  0  0  0  0  0  0  0
  -37.0247  -25.9352   48.4059 H   0  0  0  0  0  0  0  0  0  0  0  0
  -38.4729  -26.9979   48.4059 H   0  0  0  0  0  0  0  0  0  0  0  0
  -34.5081  -31.3895   43.3281 H   0  0  0  0  0  0  0  0  0  0  0  0
  -36.5343  -29.6838   42.7329 H   0  0  0  0  0  0  0  0  0  0  0  0
  -36.3390  -29.4986   45.2641 H   0  0  0  0  0  0  0  0  0  0  0  0
  -35.9844  -30.8485   41.2672 H   0  0  0  0  0  0  0  0  0  0  0  0
  -35.6088  -32.5844   41.7535 H   0  0  0  0  0  0  0  0  0  0  0  0
  -37.7266  -32.9424   42.5309 H   0  0  0  0  0  0  0  0  0  0  0  0
  -38.1448  -31.1982   42.4875 H   0  0  0  0  0  0  0  0  0  0  0  0
  -37.8879  -31.2074   40.0130 H   0  0  0  0  0  0  0  0  0  0  0  0
  -37.4790  -32.9259   40.0327 H   0  0  0  0  0  0  0  0  0  0  0  0
  -40.1364  -31.3249   41.7747 H   0  0  0  0  0  0  0  0  0  0  0  0
  -33.6062  -30.1782   42.4011 H   0  0  0  0  0  0  0  0  0  0  0  0
  -32.3988  -28.7599   43.9398 H   0  0  0  0  0  0  0  0  0  0  0  0
  -31.7786  -28.3963   42.2089 H   0  0  0  0  0  0  0  0  0  0  0  0
  -32.7907  -26.2408   42.2474 H   0  0  0  0  0  0  0  0  0  0  0  0
  -33.8169  -27.2765   44.9557 H   0  0  0  0  0  0  0  0  0  0  0  0
  -34.1572  -25.6626   44.2205 H   0  0  0  0  0  0  0  0  0  0  0  0
  -35.2943  -26.7993   42.3062 H   0  0  0  0  0  0  0  0  0  0  0  0
  -36.0767  -27.1677   43.8909 H   0  0  0  0  0  0  0  0  0  0  0  0
  -33.8701  -27.8026   40.9259 H   0  0  0  0  0  0  0  0  0  0  0  0
  -32.0605  -28.7590   40.7847 H   0  0  0  0  0  0  0  0  0  0  0  0
  -35.6994  -28.8814   40.8900 H   0  0  0  0  0  0  0  0  0  0  0  0
  -31.5757  -26.3609   44.9386 H   0  0  0  0  0  0  0  0  0  0  0  0
  -30.5851  -26.9164   43.5470 H   0  0  0  0  0  0  0  0  0  0  0  0
  -31.2862  -25.2626   43.5470 H   0  0  0  0  0  0  0  0  0  0  0  0
  1  2  1  1
  1  3  1  0
  4  5  1  0
  5  6  1  0
  6  7  1  0
  7  8  1  0
  8  9  1  0
  9 10  1  0
  1 11  1  0
 10 11  1  0
  7 12  1  0
 11 12  1  0
  5 13  1  0
  4 14  1  0
 12 14  1  0
  1 15  1  0
 15 16  1  0
 16 17  1  0
 17 18  1  0
 16 19  1  0
 19 20  1  0
 20 21  1  0
 21 22  1  0
 22 23  1  0
 23 24  1  0
 23 25  1  0
 17 26  1  0
 26 27  1  0
 27 28  1  0
 28 29  1  0
 29 30  1  0
 26 31  1  0
 30 31  1  0
 27 32  1  0
 32 33  1  0
 32 34  1  0
 29 35  1  0
 14 36  1  0
 15 37  1  0
 22 38  1  0
 24 39  1  0
 24 40  1  0
 25 41  1  0
 25 42  1  0
  2 43  1  0
  3 44  1  0
  4 45  1  0
  4 46  1  0
  5 47  1  1
  6 48  1  0
  6 49  1  0
  7 50  1  1
  8 51  1  0
  8 52  1  0
  9 53  1  0
  9 54  1  0
 10 55  1  0
 10 56  1  0
 11 57  1  1
 12 58  1  6
 13 59  1  0
 13 60  1  0
 13 61  1  0
 16 62  1  6
 17 63  1  6
 18 64  1  0
 19 65  1  0
 19 66  1  0
 20 67  1  0
 20 68  1  0
 21 69  1  0
 21 70  1  0
 23 71  1  0
 27 72  1  6
 28 73  1  0
 28 74  1  0
 29 75  1  6
 30 76  1  0
 30 77  1  0
 31 78  1  0
 31 79  1  0
 32 80  1  1
 33 81  1  0
 34 82  1  0
 35 83  1  0
 35 84  1  0
 35 85  1  0
M  END
>  <PDBID>  (1) 
1ETR

>  <PDB ID>  (1) 
1ETR

>  <Generic Name>  (1) 
Argatroban

>  <Brand Name>  (1) 
Argatroban

>  <DrugBank ID>  (1) 
DB00278

>  <ATC Codes>  (1) 
B01AE03

>  <Ligand ID>  (1) 
15U,MIT

>  <Target Name>  (1) 
Prothrombin

>  <UniProt ID>  (1) 
P00734

>  <PDB ID.1>  (1) 
1ETR

>  <Seq. Identity>  (1) 
88%

$$$$
