PDB_DB00819_98
     RDKit          3D

 19 19  0  0  0  0  0  0  0  0999 V2000
   34.0420   -2.3670    7.1390 C   0  0  0  0  0  0  0  0  0  0  0  0
   33.3280   -1.8050    9.4410 C   0  0  0  0  0  0  0  0  0  0  0  0
   33.0210    0.2330   10.8510 C   0  0  0  0  0  0  0  0  0  0  0  0
   32.6680    0.8550   12.1500 C   0  0  0  0  0  0  0  0  0  0  0  0
   36.1400   -2.9850    5.4370 N   0  0  0  0  0  0  0  0  0  0  0  0
   33.2190   -3.1640    9.1940 N   0  0  0  0  0  0  0  0  0  0  0  0
   33.6500   -3.4970    7.8320 N   0  0  0  0  0  0  0  0  0  0  0  0
   32.9820   -1.1890   10.7000 N   0  0  0  0  0  0  0  0  0  0  0  0
   33.5560   -2.1560    4.4950 O   0  0  0  0  0  0  0  0  0  0  0  0
   35.2050   -1.0940    5.0580 O   0  0  0  0  0  0  0  0  0  0  0  0
   33.3490    0.9550    9.9210 O   0  0  0  0  0  0  0  0  0  0  0  0
   34.6300   -2.3980    5.4590 S   0  0  0  0  0  0  0  0  0  0  0  0
   33.9120   -1.0270    8.0820 S   0  0  0  0  0  0  0  0  0  0  0  0
   33.0291    0.2187   12.9714 H   0  0  0  0  0  0  0  0  0  0  0  0
   33.1376    1.8472   12.2211 H   0  0  0  0  0  0  0  0  0  0  0  0
   31.5754    0.9606   12.2211 H   0  0  0  0  0  0  0  0  0  0  0  0
   36.4723   -3.1142    6.4033 H   0  0  0  0  0  0  0  0  0  0  0  0
   36.1491   -3.8908    4.9468 H   0  0  0  0  0  0  0  0  0  0  0  0
   32.7044   -1.7791   11.4972 H   0  0  0  0  0  0  0  0  0  0  0  0
  3  4  1  0
  2  6  2  0
  1  7  2  0
  6  7  1  0
  2  8  1  0
  3  8  1  0
  3 11  2  0
  1 12  1  0
  5 12  1  0
  9 12  2  0
 12 10  2  0
  1 13  1  0
  2 13  1  0
  4 14  1  0
  4 15  1  0
  4 16  1  0
  5 17  1  0
  5 18  1  0
  8 19  1  0
M  END
$$$$
