PDB_DB03849_99
     RDKit          3D

124128  0  0  0  0  0  0  0  0999 V2000
    7.9420    4.6870   -6.5890 O   0  0  0  0  0  0  0  0  0  0  0  0
    7.5860    3.4940   -6.9050 C   0  0  0  0  0  0  0  0  0  0  0  0
    8.3870    2.5060   -6.9390 O   0  0  0  0  0  0  0  0  0  0  0  0
    6.1320    3.2870   -7.3190 C   0  0  1  0  0  0  0  0  0  0  0  0
    6.0640    2.7220   -8.7220 C   0  0  0  0  0  0  0  0  0  0  0  0
    4.6350    2.7440   -9.2690 C   0  0  0  0  0  0  0  0  0  0  0  0
    5.3430    2.3310   -6.4460 C   0  0  0  0  0  0  0  0  0  0  0  0
    3.8900    2.3100   -6.9890 C   0  0  0  0  0  0  0  0  0  0  0  0
    3.7010    1.8680   -8.4480 C   0  0  2  0  0  0  0  0  0  0  0  0
    4.1120    0.4820   -8.6500 C   0  0  0  0  0  0  0  0  0  0  0  0
    4.4000   -0.6190   -8.8760 N   0  0  0  0  0  0  0  0  0  0  0  0
    2.2530    1.8440   -8.9660 C   0  0  0  0  0  0  0  0  0  0  0  0
    1.1400    2.1900   -8.1900 C   0  0  0  0  0  0  0  0  0  0  0  0
   -0.1550    2.1250   -8.7190 C   0  0  0  0  0  0  0  0  0  0  0  0
   -0.4000    1.7080  -10.0480 C   0  0  0  0  0  0  0  0  0  0  0  0
   -1.6840    1.6250  -10.6010 O   0  0  0  0  0  0  0  0  0  0  0  0
   -2.8660    1.8650   -9.8090 C   0  0  0  0  0  0  0  0  0  0  0  0
    0.6990    1.3670  -10.8250 C   0  0  0  0  0  0  0  0  0  0  0  0
    2.0010    1.4220  -10.2850 C   0  0  0  0  0  0  0  0  0  0  0  0
    0.4640    0.9490  -12.1020 O   0  0  0  0  0  0  0  0  0  0  0  0
    1.6130    0.8440  -12.9960 C   0  0  1  0  0  0  0  0  0  0  0  0
    1.5100   -0.4340  -13.7600 C   0  0  0  0  0  0  0  0  0  0  0  0
    0.4070   -0.1240  -14.7200 C   0  0  0  0  0  0  0  0  0  0  0  0
    0.4930    1.3530  -14.9750 C   0  0  0  0  0  0  0  0  0  0  0  0
    1.6120    1.8690  -14.1020 C   0  0  0  0  0  0  0  0  0  0  0  0
   36.4580    4.1070    9.4880 O   0  0  0  0  0  0  0  0  0  0  0  0
   36.9940    2.9270    9.5040 C   0  0  0  0  0  0  0  0  0  0  0  0
   36.3020    1.8870    9.3380 O   0  0  0  0  0  0  0  0  0  0  0  0
   38.4930    2.7520    9.7770 C   0  0  1  0  0  0  0  0  0  0  0  0
   38.6010    2.3660   11.2450 C   0  0  0  0  0  0  0  0  0  0  0  0
   40.0430    2.1160   11.6840 C   0  0  0  0  0  0  0  0  0  0  0  0
   39.1680    1.6280    8.9890 C   0  0  0  0  0  0  0  0  0  0  0  0
   40.6390    1.4750    9.4140 C   0  0  0  0  0  0  0  0  0  0  0  0
   40.8260    1.0940   10.8780 C   0  0  2  0  0  0  0  0  0  0  0  0
   40.2000   -0.2120   11.0750 C   0  0  0  0  0  0  0  0  0  0  0  0
   39.6950   -1.2470   11.2430 N   0  0  0  0  0  0  0  0  0  0  0  0
   42.2730    1.0670   11.4040 C   0  0  0  0  0  0  0  0  0  0  0  0
   43.3740    1.3950   10.5900 C   0  0  0  0  0  0  0  0  0  0  0  0
   44.6510    1.3670   11.0520 C   0  0  0  0  0  0  0  0  0  0  0  0
   44.8920    1.0170   12.3650 C   0  0  0  0  0  0  0  0  0  0  0  0
   46.1700    1.0040   12.8310 O   0  0  0  0  0  0  0  0  0  0  0  0
   47.3020    1.3210   12.0310 C   0  0  0  0  0  0  0  0  0  0  0  0
   43.8520    0.6880   13.2470 C   0  0  0  0  0  0  0  0  0  0  0  0
   42.5440    0.6940   12.7600 C   0  0  0  0  0  0  0  0  0  0  0  0
   44.1490    0.3480   14.5610 O   0  0  0  0  0  0  0  0  0  0  0  0
   43.1020    0.3370   15.5600 C   0  0  1  0  0  0  0  0  0  0  0  0
   42.8460   -1.0810   16.0280 C   0  0  0  0  0  0  0  0  0  0  0  0
   43.7320   -1.2380   17.2680 C   0  0  0  0  0  0  0  0  0  0  0  0
   44.1200    0.1610   17.7820 C   0  0  0  0  0  0  0  0  0  0  0  0
   43.5120    1.1300   16.7870 C   0  0  0  0  0  0  0  0  0  0  0  0
    7.9678    4.7735   -5.6031 H   0  0  0  0  0  0  0  0  0  0  0  0
    7.8055    3.7083   -7.9614 H   0  0  0  0  0  0  0  0  0  0  0  0
    8.6105    2.2304   -6.0148 H   0  0  0  0  0  0  0  0  0  0  0  0
    5.6851    4.2879   -7.2273 H   0  0  0  0  0  0  0  0  0  0  0  0
    6.7078    3.3234   -9.3807 H   0  0  0  0  0  0  0  0  0  0  0  0
    6.4039    1.6763   -8.6889 H   0  0  0  0  0  0  0  0  0  0  0  0
    4.2621    3.7786   -9.2486 H   0  0  0  0  0  0  0  0  0  0  0  0
    4.6566    2.3511  -10.2962 H   0  0  0  0  0  0  0  0  0  0  0  0
    5.7803    1.3231   -6.4995 H   0  0  0  0  0  0  0  0  0  0  0  0
    5.3632    2.6539   -5.3947 H   0  0  0  0  0  0  0  0  0  0  0  0
    3.3082    1.6241   -6.3557 H   0  0  0  0  0  0  0  0  0  0  0  0
    3.5576    3.3582   -6.9610 H   0  0  0  0  0  0  0  0  0  0  0  0
    5.1708    0.7573   -8.5353 H   0  0  0  0  0  0  0  0  0  0  0  0
    3.2111    0.1377   -8.1209 H   0  0  0  0  0  0  0  0  0  0  0  0
    4.5331   -1.1278   -7.9904 H   0  0  0  0  0  0  0  0  0  0  0  0
    3.6477   -1.0661   -9.4191 H   0  0  0  0  0  0  0  0  0  0  0  0
    2.1542    0.7977   -8.6412 H   0  0  0  0  0  0  0  0  0  0  0  0
    1.1529    1.5280   -7.3116 H   0  0  0  0  0  0  0  0  0  0  0  0
    1.2824    3.2688   -8.0293 H   0  0  0  0  0  0  0  0  0  0  0  0
   -0.7184    1.4372   -8.0713 H   0  0  0  0  0  0  0  0  0  0  0  0
   -0.4455    3.1854   -8.7516 H   0  0  0  0  0  0  0  0  0  0  0  0
   -0.4798    0.6655   -9.7062 H   0  0  0  0  0  0  0  0  0  0  0  0
   -2.6085    1.8127   -8.7408 H   0  0  0  0  0  0  0  0  0  0  0  0
   -3.2666    2.8628  -10.0412 H   0  0  0  0  0  0  0  0  0  0  0  0
   -3.6240    1.1024  -10.0412 H   0  0  0  0  0  0  0  0  0  0  0  0
    0.7911    2.4127  -11.1536 H   0  0  0  0  0  0  0  0  0  0  0  0
    2.5745    2.0971  -10.9371 H   0  0  0  0  0  0  0  0  0  0  0  0
    2.2721    0.3570  -10.2380 H   0  0  0  0  0  0  0  0  0  0  0  0
    2.4936    0.9515  -12.3456 H   0  0  0  0  0  0  0  0  0  0  0  0
    2.4480   -0.6630  -14.2870 H   0  0  0  0  0  0  0  0  0  0  0  0
    1.3204   -1.3165  -13.1313 H   0  0  0  0  0  0  0  0  0  0  0  0
    0.5455   -0.6836  -15.6569 H   0  0  0  0  0  0  0  0  0  0  0  0
   -0.5753   -0.4095  -14.3155 H   0  0  0  0  0  0  0  0  0  0  0  0
    0.7175    1.5442  -16.0347 H   0  0  0  0  0  0  0  0  0  0  0  0
   -0.4583    1.8548  -14.7441 H   0  0  0  0  0  0  0  0  0  0  0  0
    1.3929    2.8764  -13.7184 H   0  0  0  0  0  0  0  0  0  0  0  0
    2.5766    1.9774  -14.6195 H   0  0  0  0  0  0  0  0  0  0  0  0
   36.3168    4.4179   10.4172 H   0  0  0  0  0  0  0  0  0  0  0  0
   36.8261    2.8655   10.5894 H   0  0  0  0  0  0  0  0  0  0  0  0
   36.0527    1.5123   10.2198 H   0  0  0  0  0  0  0  0  0  0  0  0
   38.9913    3.6886    9.4861 H   0  0  0  0  0  0  0  0  0  0  0  0
   38.1836    3.1808   11.8548 H   0  0  0  0  0  0  0  0  0  0  0  0
   38.0438    1.4278   11.3839 H   0  0  0  0  0  0  0  0  0  0  0  0
   40.5818    3.0732   11.6247 H   0  0  0  0  0  0  0  0  0  0  0  0
   39.9714    1.6961   12.6982 H   0  0  0  0  0  0  0  0  0  0  0  0
   38.6368    0.6838    9.1794 H   0  0  0  0  0  0  0  0  0  0  0  0
   39.1327    1.8757    7.9178 H   0  0  0  0  0  0  0  0  0  0  0  0
   41.0991    0.6932    8.7918 H   0  0  0  0  0  0  0  0  0  0  0  0
   41.1129    2.4584    9.2785 H   0  0  0  0  0  0  0  0  0  0  0  0
   39.8110   -0.1849   10.0465 H   0  0  0  0  0  0  0  0  0  0  0  0
   41.0448   -0.5215   11.7078 H   0  0  0  0  0  0  0  0  0  0  0  0
   39.6075   -1.4263   12.2535 H   0  0  0  0  0  0  0  0  0  0  0  0
   38.7595   -1.2465   10.8121 H   0  0  0  0  0  0  0  0  0  0  0  0
   42.3633    0.0133   11.1015 H   0  0  0  0  0  0  0  0  0  0  0  0
   43.3415    0.7020    9.7364 H   0  0  0  0  0  0  0  0  0  0  0  0
   43.2175    2.4700   10.4170 H   0  0  0  0  0  0  0  0  0  0  0  0
   45.2026    0.6519   10.4240 H   0  0  0  0  0  0  0  0  0  0  0  0
   44.9658    2.4199   11.0038 H   0  0  0  0  0  0  0  0  0  0  0  0
   44.9903   -0.0370   12.0660 H   0  0  0  0  0  0  0  0  0  0  0  0
   48.1558    1.5601   12.6821 H   0  0  0  0  0  0  0  0  0  0  0  0
   47.5552    0.4592   11.3960 H   0  0  0  0  0  0  0  0  0  0  0  0
   47.0708    2.1889   11.3960 H   0  0  0  0  0  0  0  0  0  0  0  0
   43.7531    1.7475   13.5256 H   0  0  0  0  0  0  0  0  0  0  0  0
   41.9742    1.3867   13.3968 H   0  0  0  0  0  0  0  0  0  0  0  0
   42.2677   -0.3705   12.7827 H   0  0  0  0  0  0  0  0  0  0  0  0
   42.2070    0.7774   15.0963 H   0  0  0  0  0  0  0  0  0  0  0  0
   41.7860   -1.2203   16.2867 H   0  0  0  0  0  0  0  0  0  0  0  0
   43.0742   -1.8266   15.2521 H   0  0  0  0  0  0  0  0  0  0  0  0
   43.1800   -1.7793   18.0505 H   0  0  0  0  0  0  0  0  0  0  0  0
   44.6382   -1.8057   17.0100 H   0  0  0  0  0  0  0  0  0  0  0  0
   43.7080    0.3309   18.7877 H   0  0  0  0  0  0  0  0  0  0  0  0
   45.2103    0.2828   17.8624 H   0  0  0  0  0  0  0  0  0  0  0  0
   44.2524    1.8944   16.5086 H   0  0  0  0  0  0  0  0  0  0  0  0
   42.6401    1.6363   17.2268 H   0  0  0  0  0  0  0  0  0  0  0  0
  1  2  1  0
  2  3  1  0
  2  4  1  0
  4  5  1  0
  5  6  1  0
  4  7  1  0
  7  8  1  0
  6  9  1  0
  8  9  1  0
  9 10  1  1
 10 11  1  0
  9 12  1  0
 12 13  1  0
 13 14  1  0
 14 15  1  0
 15 16  1  0
 16 17  1  0
 15 18  1  0
 12 19  1  0
 18 19  1  0
 18 20  1  0
 20 21  1  0
 21 22  1  0
 22 23  1  0
 23 24  1  0
 21 25  1  0
 24 25  1  0
 26 27  1  0
 27 28  1  0
 27 29  1  0
 29 30  1  0
 30 31  1  0
 29 32  1  0
 32 33  1  0
 31 34  1  0
 33 34  1  0
 34 35  1  6
 35 36  1  0
 34 37  1  0
 37 38  1  0
 38 39  1  0
 39 40  1  0
 40 41  1  0
 41 42  1  0
 40 43  1  0
 37 44  1  0
 43 44  1  0
 43 45  1  0
 45 46  1  0
 46 47  1  0
 47 48  1  0
 48 49  1  0
 46 50  1  0
 49 50  1  0
  1 51  1  0
  2 52  1  0
  3 53  1  0
  4 54  1  6
  5 55  1  0
  5 56  1  0
  6 57  1  0
  6 58  1  0
  7 59  1  0
  7 60  1  0
  8 61  1  0
  8 62  1  0
 10 63  1  0
 10 64  1  0
 11 65  1  0
 11 66  1  0
 12 67  1  0
 13 68  1  0
 13 69  1  0
 14 70  1  0
 14 71  1  0
 15 72  1  0
 17 73  1  0
 17 74  1  0
 17 75  1  0
 18 76  1  0
 19 77  1  0
 19 78  1  0
 21 79  1  1
 22 80  1  0
 22 81  1  0
 23 82  1  0
 23 83  1  0
 24 84  1  0
 24 85  1  0
 25 86  1  0
 25 87  1  0
 26 88  1  0
 27 89  1  0
 28 90  1  0
 29 91  1  1
 30 92  1  0
 30 93  1  0
 31 94  1  0
 31 95  1  0
 32 96  1  0
 32 97  1  0
 33 98  1  0
 33 99  1  0
 35100  1  0
 35101  1  0
 36102  1  0
 36103  1  0
 37104  1  0
 38105  1  0
 38106  1  0
 39107  1  0
 39108  1  0
 40109  1  0
 42110  1  0
 42111  1  0
 42112  1  0
 43113  1  0
 44114  1  0
 44115  1  0
 46116  1  6
 47117  1  0
 47118  1  0
 48119  1  0
 48120  1  0
 49121  1  0
 49122  1  0
 50123  1  0
 50124  1  0
M  END
>  <PDBID>  (1) 
1XLX

>  <PDB ID>  (1) 
1XLX

>  <Generic Name>  (1) 
Cilomilast

>  <Brand Name>  (1) 
nan

>  <DrugBank ID>  (1) 
DB03849

>  <ATC Codes>  (1) 
nan

>  <Ligand ID>  (1) 
CIO

>  <Target Name>  (1) 
cAMP-specific 3',5'-cyclic phosphodiesterase 4B

>  <UniProt ID>  (1) 
Q07343

>  <PDB ID.1>  (1) 
1XLX

>  <Seq. Identity>  (1) 
97%

$$$$
