PDB_DB05990_99
     RDKit          3D

 74 77  0  0  0  0  0  0  0  0999 V2000
    8.7840   35.1580   16.2070 C   0  0  0  0  0  0  0  0  0  0  0  0
    9.0330   34.1550   17.3700 C   0  0  0  0  0  0  0  0  0  0  0  0
    8.4160   34.7480   18.7160 C   0  0  1  0  0  0  0  0  0  0  0  0
    8.6240   33.8490   19.7490 O   0  0  0  0  0  0  0  0  0  0  0  0
    9.0720   36.2090   19.0800 C   0  0  0  0  0  0  0  0  0  0  0  0
    8.8320   37.2570   17.8530 C   0  0  1  0  0  0  0  0  0  0  0  0
    9.4650   38.7130   18.0450 C   0  0  2  0  0  0  0  0  0  0  0  0
   11.0450   38.7340   18.1250 C   0  0  1  0  0  0  0  0  0  0  0  0
   11.5660   38.0820   19.3400 O   0  0  0  0  0  0  0  0  0  0  0  0
   11.6710   38.0910   16.8300 C   0  0  2  0  0  0  0  0  0  0  0  0
   11.1080   36.5570   16.5970 C   0  0  1  0  0  0  0  0  0  0  0  0
    9.4280   36.6010   16.4530 C   0  0  1  0  0  0  0  0  0  0  0  0
   11.7950   35.9730   15.3610 C   0  0  0  0  0  0  0  0  0  0  0  0
   13.3820   35.9230   15.4510 C   0  0  0  0  0  0  0  0  0  0  0  0
   13.9830   37.3750   15.6520 C   0  0  1  0  0  0  0  0  0  0  0  0
   13.2620   38.0170   16.8960 C   0  0  1  0  0  0  0  0  0  0  0  0
   14.0670   39.3870   17.0740 C   0  0  0  0  0  0  0  0  0  0  0  0
   15.4790   38.8270   17.0600 C   0  0  0  0  0  0  0  0  0  0  0  0
   15.5030   37.4910   16.1760 C   0  0  2  0  0  0  0  0  0  0  0  0
   13.7190   38.2360   14.2770 C   0  0  0  0  0  0  0  0  0  0  0  0
    8.9660   37.3570   15.2230 C   0  0  0  0  0  0  0  0  0  0  0  0
   16.6470   37.5060   15.0370 C   0  0  2  0  0  0  0  0  0  0  0  0
   16.5980   36.1200   14.2000 C   0  0  0  0  0  0  0  0  0  0  0  0
   18.0430   37.6690   15.6370 C   0  0  0  0  0  0  0  0  0  0  0  0
   19.1850   37.7030   14.5680 C   0  0  0  0  0  0  0  0  0  0  0  0
   20.5670   37.8840   15.0680 C   0  0  0  0  0  0  0  0  0  0  0  0
    7.6120   39.9320   19.3560 C   0  0  0  0  0  0  0  0  0  0  0  0
    9.0120   39.2920   19.3220 C   0  0  0  0  0  0  0  0  0  0  0  0
   21.2610   36.8770   15.3810 O   0  0  0  0  0  0  0  0  0  0  0  0
   20.9700   39.0610   15.1620 O   0  0  0  0  0  0  0  0  0  0  0  0
    9.2161   34.7372   15.2871 H   0  0  0  0  0  0  0  0  0  0  0  0
    7.6958   35.3003   16.1329 H   0  0  0  0  0  0  0  0  0  0  0  0
    8.5510   33.1942   17.1366 H   0  0  0  0  0  0  0  0  0  0  0  0
   10.1143   33.9981   17.4972 H   0  0  0  0  0  0  0  0  0  0  0  0
    7.3358   34.8994   18.5735 H   0  0  0  0  0  0  0  0  0  0  0  0
    8.5166   34.3130   20.6169 H   0  0  0  0  0  0  0  0  0  0  0  0
    8.5987   36.6026   19.9916 H   0  0  0  0  0  0  0  0  0  0  0  0
   10.1533   36.0865   19.2405 H   0  0  0  0  0  0  0  0  0  0  0  0
    7.7434   37.4112   17.8201 H   0  0  0  0  0  0  0  0  0  0  0  0
    9.1363   39.2742   17.1578 H   0  0  0  0  0  0  0  0  0  0  0  0
   11.3480   39.7898   18.1840 H   0  0  0  0  0  0  0  0  0  0  0  0
   11.2024   38.5371   20.1405 H   0  0  0  0  0  0  0  0  0  0  0  0
   11.3718   38.7452   15.9978 H   0  0  0  0  0  0  0  0  0  0  0  0
   11.3419   35.9051   17.4516 H   0  0  0  0  0  0  0  0  0  0  0  0
   11.4265   34.9468   15.2157 H   0  0  0  0  0  0  0  0  0  0  0  0
   11.5499   36.6406   14.5218 H   0  0  0  0  0  0  0  0  0  0  0  0
   13.6747   35.2911   16.3025 H   0  0  0  0  0  0  0  0  0  0  0  0
   13.7743   35.5073   14.5112 H   0  0  0  0  0  0  0  0  0  0  0  0
   13.3082   37.3940   17.8014 H   0  0  0  0  0  0  0  0  0  0  0  0
   13.8894   40.0825   16.2405 H   0  0  0  0  0  0  0  0  0  0  0  0
   13.8005   39.9843   17.9584 H   0  0  0  0  0  0  0  0  0  0  0  0
   16.1654   39.5687   16.6256 H   0  0  0  0  0  0  0  0  0  0  0  0
   15.7975   38.5978   18.0876 H   0  0  0  0  0  0  0  0  0  0  0  0
   15.7943   36.5899   16.7355 H   0  0  0  0  0  0  0  0  0  0  0  0
   13.4058   39.2575   14.5385 H   0  0  0  0  0  0  0  0  0  0  0  0
   14.6460   38.2766   13.6862 H   0  0  0  0  0  0  0  0  0  0  0  0
   12.9286   37.7501   13.6862 H   0  0  0  0  0  0  0  0  0  0  0  0
    8.4154   38.2579   15.5316 H   0  0  0  0  0  0  0  0  0  0  0  0
    9.8400   37.6492   14.6224 H   0  0  0  0  0  0  0  0  0  0  0  0
    8.3073   36.7125   14.6224 H   0  0  0  0  0  0  0  0  0  0  0  0
   16.4492   38.3647   14.3786 H   0  0  0  0  0  0  0  0  0  0  0  0
   16.5680   35.2707   14.8985 H   0  0  0  0  0  0  0  0  0  0  0  0
   15.6988   36.1058   13.5666 H   0  0  0  0  0  0  0  0  0  0  0  0
   17.4940   36.0423   13.5666 H   0  0  0  0  0  0  0  0  0  0  0  0
   18.0697   38.6111   16.2043 H   0  0  0  0  0  0  0  0  0  0  0  0
   18.2243   36.7910   16.2744 H   0  0  0  0  0  0  0  0  0  0  0  0
   19.1530   36.7512   14.0175 H   0  0  0  0  0  0  0  0  0  0  0  0
   18.9813   38.5967   13.9598 H   0  0  0  0  0  0  0  0  0  0  0  0
    7.2994   40.0749   20.4009 H   0  0  0  0  0  0  0  0  0  0  0  0
    7.6416   40.9060   18.8457 H   0  0  0  0  0  0  0  0  0  0  0  0
    6.8948   39.2723   18.8457 H   0  0  0  0  0  0  0  0  0  0  0  0
    9.0244   38.4870   20.0715 H   0  0  0  0  0  0  0  0  0  0  0  0
    9.7051   40.1244   19.5136 H   0  0  0  0  0  0  0  0  0  0  0  0
   21.8855   39.2460   15.4902 H   0  0  0  0  0  0  0  0  0  0  0  0
  1  2  1  0
  2  3  1  0
  3  4  1  0
  3  5  1  0
  5  6  1  0
  6  7  1  0
  7  8  1  0
  8  9  1  0
  8 10  1  0
 10 11  1  0
  1 12  1  0
  6 12  1  0
 11 12  1  0
 11 13  1  0
 13 14  1  0
 14 15  1  0
 10 16  1  0
 15 16  1  0
 16 17  1  0
 17 18  1  0
 15 19  1  0
 18 19  1  0
 15 20  1  6
 12 21  1  6
 19 22  1  0
 22 23  1  0
 22 24  1  0
 24 25  1  0
 25 26  1  0
  7 28  1  0
 27 28  1  0
 26 29  2  0
 26 30  1  0
  1 31  1  0
  1 32  1  0
  2 33  1  0
  2 34  1  0
  3 35  1  6
  4 36  1  0
  5 37  1  0
  5 38  1  0
  6 39  1  6
  7 40  1  6
  8 41  1  1
  9 42  1  0
 10 43  1  6
 11 44  1  1
 13 45  1  0
 13 46  1  0
 14 47  1  0
 14 48  1  0
 16 49  1  1
 17 50  1  0
 17 51  1  0
 18 52  1  0
 18 53  1  0
 19 54  1  1
 20 55  1  0
 20 56  1  0
 20 57  1  0
 21 58  1  0
 21 59  1  0
 21 60  1  0
 22 61  1  6
 23 62  1  0
 23 63  1  0
 23 64  1  0
 24 65  1  0
 24 66  1  0
 25 67  1  0
 25 68  1  0
 27 69  1  0
 27 70  1  0
 27 71  1  0
 28 72  1  0
 28 73  1  0
 30 74  1  0
M  END
>  <PDBID>  (1) 
1OT7

>  <PDB ID>  (1) 
1OT7

>  <Generic Name>  (1) 
Obeticholic acid

>  <Brand Name>  (1) 
Ocaliva

>  <DrugBank ID>  (1) 
DB05990

>  <ATC Codes>  (1) 
A05AA04

>  <Ligand ID>  (1) 
CHC

>  <Target Name>  (1) 
Bile acid receptor

>  <UniProt ID>  (1) 
Q96RI1

>  <PDB ID.1>  (1) 
1OT7

>  <Seq. Identity>  (1) 
95%

$$$$
