PDB_DB01199_99
     RDKit          3D

 86 92  0  0  0  0  0  0  0  0999 V2000
   37.1400  117.7530   52.1260 N   0  0  0  0  0  0  0  0  0  0  0  0
   36.8440  118.3230   50.8540 C   0  0  0  0  0  0  0  0  0  0  0  0
   37.9710  118.1530   49.8780 C   0  0  0  0  0  0  0  0  0  0  0  0
   38.8200  116.9350   50.1080 C   0  0  0  0  0  0  0  0  0  0  0  0
   38.5420  116.0150   51.1590 C   0  0  0  0  0  0  0  0  0  0  0  0
   37.3610  116.2610   52.0100 C   0  0  2  0  0  0  0  0  0  0  0  0
   39.9180  116.6730   49.2490 C   0  0  0  0  0  0  0  0  0  0  0  0
   40.7210  115.5200   49.4640 C   0  0  0  0  0  0  0  0  0  0  0  0
   40.4180  114.6170   50.5280 C   0  0  0  0  0  0  0  0  0  0  0  0
   39.3190  114.8520   51.3870 C   0  0  0  0  0  0  0  0  0  0  0  0
   41.2160  113.4540   50.6380 O   0  0  0  0  0  0  0  0  0  0  0  0
   41.1230  112.7220   51.8480 C   0  0  0  0  0  0  0  0  0  0  0  0
   42.2150  112.8570   52.7160 C   0  0  0  0  0  0  0  0  0  0  0  0
   42.2790  112.1030   53.8660 C   0  0  0  0  0  0  0  0  0  0  0  0
   41.2460  111.1790   54.1500 C   0  0  0  0  0  0  0  0  0  0  0  0
   40.1700  111.0120   53.2770 C   0  0  0  0  0  0  0  0  0  0  0  0
   40.0990  111.7890   52.1170 C   0  0  0  0  0  0  0  0  0  0  0  0
   39.0430  110.0090   53.6880 C   0  0  0  0  0  0  0  0  0  0  0  0
   38.8970  108.6740   52.8710 C   0  0  1  0  0  0  0  0  0  0  0  0
   39.6970  107.5350   53.3030 N   0  0  0  0  0  0  0  0  0  0  0  0
   39.1200  106.4860   54.1120 C   0  0  0  0  0  0  0  0  0  0  0  0
   37.8260  106.7800   54.7930 C   0  0  0  0  0  0  0  0  0  0  0  0
   36.8790  107.4720   53.8900 C   0  0  0  0  0  0  0  0  0  0  0  0
   37.3660  108.3910   52.9160 C   0  0  0  0  0  0  0  0  0  0  0  0
   35.5020  107.2100   54.0320 C   0  0  0  0  0  0  0  0  0  0  0  0
   34.6140  107.8630   53.2070 C   0  0  0  0  0  0  0  0  0  0  0  0
   35.0870  108.7990   52.2200 C   0  0  0  0  0  0  0  0  0  0  0  0
   36.4760  109.0740   52.0890 C   0  0  0  0  0  0  0  0  0  0  0  0
   36.9550  109.9360   51.0690 O   0  0  0  0  0  0  0  0  0  0  0  0
   36.7370  111.3110   51.2260 C   0  0  0  0  0  0  0  0  0  0  0  0
   36.8750  112.1320   50.0800 C   0  0  0  0  0  0  0  0  0  0  0  0
   36.6670  113.5090   50.1600 C   0  0  0  0  0  0  0  0  0  0  0  0
   36.3320  114.0900   51.3630 C   0  0  0  0  0  0  0  0  0  0  0  0
   36.2000  113.2720   52.5300 C   0  0  0  0  0  0  0  0  0  0  0  0
   36.3970  111.8960   52.4590 C   0  0  0  0  0  0  0  0  0  0  0  0
   36.1050  115.5870   51.4220 C   0  0  0  0  0  0  0  0  0  0  0  0
   41.8020  115.2530   48.5980 O   0  0  0  0  0  0  0  0  0  0  0  0
   42.5670  116.3090   48.0430 C   0  0  0  0  0  0  0  0  0  0  0  0
   43.1970  113.7730   52.3910 O   0  0  0  0  0  0  0  0  0  0  0  0
   33.2670  107.6020   53.3540 O   0  0  0  0  0  0  0  0  0  0  0  0
   32.8740  106.3610   53.7670 C   0  0  0  0  0  0  0  0  0  0  0  0
   34.1830  109.4830   51.4410 O   0  0  0  0  0  0  0  0  0  0  0  0
   36.4320  118.5700   53.1010 C   0  0  0  0  0  0  0  0  0  0  0  0
   40.9110  108.0110   53.9990 C   0  0  0  0  0  0  0  0  0  0  0  0
   40.1210  106.8000   52.0970 C   0  0  0  0  0  0  0  0  0  0  0  0
   35.9468  117.8336   50.4472 H   0  0  0  0  0  0  0  0  0  0  0  0
   36.6829  119.4016   50.9977 H   0  0  0  0  0  0  0  0  0  0  0  0
   37.5422  118.0863   48.8672 H   0  0  0  0  0  0  0  0  0  0  0  0
   38.6315  119.0226   50.0104 H   0  0  0  0  0  0  0  0  0  0  0  0
   37.5425  115.8289   53.0052 H   0  0  0  0  0  0  0  0  0  0  0  0
   40.1470  117.3590   48.4202 H   0  0  0  0  0  0  0  0  0  0  0  0
   39.0759  114.1562   52.2036 H   0  0  0  0  0  0  0  0  0  0  0  0
   43.1261  112.2180   54.5582 H   0  0  0  0  0  0  0  0  0  0  0  0
   41.2916  110.5829   55.0733 H   0  0  0  0  0  0  0  0  0  0  0  0
   39.2544  111.6744   51.4217 H   0  0  0  0  0  0  0  0  0  0  0  0
   39.2219  109.7306   54.7370 H   0  0  0  0  0  0  0  0  0  0  0  0
   38.1089  110.5536   53.4859 H   0  0  0  0  0  0  0  0  0  0  0  0
   39.3056  108.8105   51.8589 H   0  0  0  0  0  0  0  0  0  0  0  0
   38.9592  105.6157   53.4588 H   0  0  0  0  0  0  0  0  0  0  0  0
   39.8401  106.3314   54.9291 H   0  0  0  0  0  0  0  0  0  0  0  0
   37.3748  105.8336   55.1258 H   0  0  0  0  0  0  0  0  0  0  0  0
   38.0302  107.4406   55.6485 H   0  0  0  0  0  0  0  0  0  0  0  0
   35.1428  106.4966   54.7884 H   0  0  0  0  0  0  0  0  0  0  0  0
   37.1493  111.6786   49.1161 H   0  0  0  0  0  0  0  0  0  0  0  0
   36.7708  114.1326   49.2598 H   0  0  0  0  0  0  0  0  0  0  0  0
   35.9401  113.7356   53.4931 H   0  0  0  0  0  0  0  0  0  0  0  0
   36.2878  111.2722   53.3584 H   0  0  0  0  0  0  0  0  0  0  0  0
   35.2364  115.8036   52.0612 H   0  0  0  0  0  0  0  0  0  0  0  0
   35.9136  115.9746   50.4105 H   0  0  0  0  0  0  0  0  0  0  0  0
   43.0032  116.9111   48.8537 H   0  0  0  0  0  0  0  0  0  0  0  0
   43.3731  115.8909   47.4223 H   0  0  0  0  0  0  0  0  0  0  0  0
   41.9184  116.9447   47.4223 H   0  0  0  0  0  0  0  0  0  0  0  0
   43.9803  113.8906   52.9848 H   0  0  0  0  0  0  0  0  0  0  0  0
   32.8632  106.3268   54.8664 H   0  0  0  0  0  0  0  0  0  0  0  0
   31.8649  106.1495   53.3836 H   0  0  0  0  0  0  0  0  0  0  0  0
   33.5774  105.6072   53.3836 H   0  0  0  0  0  0  0  0  0  0  0  0
   34.5033  110.1275   50.7612 H   0  0  0  0  0  0  0  0  0  0  0  0
   36.7086  118.2509   54.1167 H   0  0  0  0  0  0  0  0  0  0  0  0
   36.7050  119.6264   52.9615 H   0  0  0  0  0  0  0  0  0  0  0  0
   35.3475  118.4500   52.9615 H   0  0  0  0  0  0  0  0  0  0  0  0
   40.7575  107.9508   55.0866 H   0  0  0  0  0  0  0  0  0  0  0  0
   41.7673  107.3820   53.7142 H   0  0  0  0  0  0  0  0  0  0  0  0
   41.1116  109.0544   53.7142 H   0  0  0  0  0  0  0  0  0  0  0  0
   40.6503  105.8825   52.3939 H   0  0  0  0  0  0  0  0  0  0  0  0
   39.2365  106.5358   51.4987 H   0  0  0  0  0  0  0  0  0  0  0  0
   40.7925  107.4334   51.4987 H   0  0  0  0  0  0  0  0  0  0  0  0
  1  2  1  0
  2  3  1  0
  3  4  1  0
  4  5  2  0
  1  6  1  0
  5  6  1  0
  4  7  1  0
  7  8  2  0
  8  9  1  0
  5 10  1  0
  9 10  2  0
  9 11  1  0
 11 12  1  0
 12 13  2  0
 13 14  1  0
 14 15  2  0
 15 16  1  0
 12 17  1  0
 16 17  2  0
 16 18  1  0
 18 19  1  0
 19 20  1  0
 20 21  1  0
 21 22  1  0
 22 23  1  0
 19 24  1  0
 23 24  2  0
 23 25  1  0
 25 26  2  0
 26 27  1  0
 24 28  1  0
 27 28  2  0
 28 29  1  0
 29 30  1  0
 30 31  2  0
 31 32  1  0
 32 33  2  0
 33 34  1  0
 30 35  1  0
 34 35  2  0
  6 36  1  0
 33 36  1  0
  8 37  1  0
 37 38  1  0
 13 39  1  0
 26 40  1  0
 40 41  1  0
 27 42  1  0
  1 43  1  0
 20 44  1  0
 20 45  1  0
  2 46  1  0
  2 47  1  0
  3 48  1  0
  3 49  1  0
  6 50  1  1
  7 51  1  0
 10 52  1  0
 14 53  1  0
 15 54  1  0
 17 55  1  0
 18 56  1  0
 18 57  1  0
 19 58  1  6
 21 59  1  0
 21 60  1  0
 22 61  1  0
 22 62  1  0
 25 63  1  0
 31 64  1  0
 32 65  1  0
 34 66  1  0
 35 67  1  0
 36 68  1  0
 36 69  1  0
 38 70  1  0
 38 71  1  0
 38 72  1  0
 39 73  1  0
 41 74  1  0
 41 75  1  0
 41 76  1  0
 42 77  1  0
 43 78  1  0
 43 79  1  0
 43 80  1  0
 44 81  1  0
 44 82  1  0
 44 83  1  0
 45 84  1  0
 45 85  1  0
 45 86  1  0
M  CHG  1  20   1
M  END
$$$$
