PDB_DB01261_97
     RDKit          3D

 43 45  0  0  0  0  0  0  0  0999 V2000
   26.2310  -11.0030   50.9740 C   0  0  0  0  0  0  0  0  0  0  0  0
   24.9970  -11.0960   51.6130 C   0  0  0  0  0  0  0  0  0  0  0  0
   24.4590   -9.9820   52.2440 C   0  0  0  0  0  0  0  0  0  0  0  0
   25.1610   -8.7770   52.2360 C   0  0  0  0  0  0  0  0  0  0  0  0
   26.3950   -8.6880   51.5990 C   0  0  0  0  0  0  0  0  0  0  0  0
   26.9280   -9.7980   50.9680 C   0  0  0  0  0  0  0  0  0  0  0  0
   27.0710   -7.5290   51.5910 F   0  0  0  0  0  0  0  0  0  0  0  0
   24.3350  -12.2660   51.6060 F   0  0  0  0  0  0  0  0  0  0  0  0
   23.1170  -10.0560   52.9400 C   0  0  0  0  0  0  0  0  0  0  0  0
   22.1190   -9.1620   52.1990 C   0  0  2  0  0  0  0  0  0  0  0  0
   20.7100   -9.2070   52.7910 C   0  0  0  0  0  0  0  0  0  0  0  0
   20.6750   -8.8670   54.2710 C   0  0  0  0  0  0  0  0  0  0  0  0
   19.6550   -9.3140   55.0190 N   0  0  0  0  0  0  0  0  0  0  0  0
   22.0460   -9.6000   50.8170 N   0  0  0  0  0  0  0  0  0  0  0  0
   21.5600   -8.1730   54.7470 O   0  0  0  0  0  0  0  0  0  0  0  0
   18.8100  -10.4720   54.7100 C   0  0  0  0  0  0  0  0  0  0  0  0
   17.4720   -9.9030   54.2280 C   0  0  0  0  0  0  0  0  0  0  0  0
   17.0040   -8.9130   55.2030 N   0  0  0  0  0  0  0  0  0  0  0  0
   17.7850   -8.3390   56.1250 C   0  0  0  0  0  0  0  0  0  0  0  0
   19.2530   -8.6520   56.2580 C   0  0  0  0  0  0  0  0  0  0  0  0
   15.7920   -8.3910   55.3930 C   0  0  0  0  0  0  0  0  0  0  0  0
   15.7310   -7.5000   56.3940 N   0  0  0  0  0  0  0  0  0  0  0  0
   17.0520   -7.4740   56.8730 N   0  0  0  0  0  0  0  0  0  0  0  0
   14.5860   -8.7510   54.5730 C   0  0  0  0  0  0  0  0  0  0  0  0
   14.2690  -10.0130   54.7960 F   0  0  0  0  0  0  0  0  0  0  0  0
   14.8560   -8.5760   53.2930 F   0  0  0  0  0  0  0  0  0  0  0  0
   13.5680   -7.9780   54.9060 F   0  0  0  0  0  0  0  0  0  0  0  0
   28.1220   -9.7080   50.3570 F   0  0  0  0  0  0  0  0  0  0  0  0
   26.6563  -11.8847   50.4723 H   0  0  0  0  0  0  0  0  0  0  0  0
   24.7374   -7.8931   52.7354 H   0  0  0  0  0  0  0  0  0  0  0  0
   22.7558  -11.0950   52.9343 H   0  0  0  0  0  0  0  0  0  0  0  0
   23.2196   -9.7142   53.9805 H   0  0  0  0  0  0  0  0  0  0  0  0
   22.4809   -8.1273   52.2905 H   0  0  0  0  0  0  0  0  0  0  0  0
   20.0800   -8.4850   52.2508 H   0  0  0  0  0  0  0  0  0  0  0  0
   20.3410  -10.2375   52.6821 H   0  0  0  0  0  0  0  0  0  0  0  0
   21.8767  -10.6156   50.7872 H   0  0  0  0  0  0  0  0  0  0  0  0
   21.2752   -9.1094   50.3416 H   0  0  0  0  0  0  0  0  0  0  0  0
   19.2723  -11.0824   53.9202 H   0  0  0  0  0  0  0  0  0  0  0  0
   18.6785  -11.1203   55.5889 H   0  0  0  0  0  0  0  0  0  0  0  0
   17.6057   -9.4225   53.2476 H   0  0  0  0  0  0  0  0  0  0  0  0
   16.7334  -10.7124   54.1314 H   0  0  0  0  0  0  0  0  0  0  0  0
   19.4222   -9.3189   57.1163 H   0  0  0  0  0  0  0  0  0  0  0  0
   19.8392   -7.7364   56.4257 H   0  0  0  0  0  0  0  0  0  0  0  0
  1  2  2  0
  2  3  1  0
  3  4  2  0
  4  5  1  0
  1  6  1  0
  5  6  2  0
  5  7  1  0
  2  8  1  0
  3  9  1  0
  9 10  1  0
 10 11  1  0
 11 12  1  0
 12 13  1  0
 10 14  1  0
 12 15  2  0
 13 16  1  0
 16 17  1  0
 17 18  1  0
 18 19  1  0
 13 20  1  0
 19 20  1  0
 18 21  1  0
 21 22  2  0
 19 23  2  0
 22 23  1  0
 21 24  1  0
 24 25  1  0
 24 26  1  0
 24 27  1  0
  6 28  1  0
  1 29  1  0
  4 30  1  0
  9 31  1  0
  9 32  1  0
 10 33  1  6
 11 34  1  0
 11 35  1  0
 14 36  1  0
 14 37  1  0
 16 38  1  0
 16 39  1  0
 17 40  1  0
 17 41  1  0
 20 42  1  0
 20 43  1  0
M  END
$$$$
