PDB_DB00819_89
     RDKit          3D

 27 27  0  0  0  0  0  0  0  0999 V2000
   -5.1930    2.4560   16.1520 C   0  0  1  0  0  0  0  0  0  0  0  0
   -4.6390    4.3570   15.0410 C   0  0  1  0  0  0  0  0  0  0  0  0
   -5.4520    6.0000   13.6430 C   0  0  0  0  0  0  0  0  0  0  0  0
   -5.1420    7.1880   12.7350 C   0  0  0  0  0  0  0  0  0  0  0  0
   -4.6350   -0.1330   16.8470 N   0  0  0  0  0  0  0  0  0  0  0  0
   -3.5780    3.8380   15.5520 N   0  0  0  0  0  0  0  0  0  0  0  0
   -3.9150    2.6890   16.2150 N   0  0  0  0  0  0  0  0  0  0  0  0
   -4.4210    5.3940   14.2730 N   0  0  0  0  0  0  0  0  0  0  0  0
   -5.8720    1.3760   18.2830 O   0  0  0  0  0  0  0  0  0  0  0  0
   -7.2330    0.5160   16.8020 O   0  0  0  0  0  0  0  0  0  0  0  0
   -6.6270    5.6470   13.7460 O   0  0  0  0  0  0  0  0  0  0  0  0
   -5.8120    0.9610   16.8820 S   0  0  0  0  0  4  0  0  0  0  0  0
   -6.1380    3.5870   15.3270 S   0  0  0  0  0  0  0  0  0  0  0  0
   -5.0500    1.9302   15.1964 H   0  0  0  0  0  0  0  0  0  0  0  0
   -4.7333    5.0220   15.9121 H   0  0  0  0  0  0  0  0  0  0  0  0
   -5.3323    5.3164   12.7895 H   0  0  0  0  0  0  0  0  0  0  0  0
   -4.9119    8.0699   13.3508 H   0  0  0  0  0  0  0  0  0  0  0  0
   -4.2764    6.9481   12.1001 H   0  0  0  0  0  0  0  0  0  0  0  0
   -6.0145    7.4017   12.1001 H   0  0  0  0  0  0  0  0  0  0  0  0
   -4.3681   -0.3811   17.8104 H   0  0  0  0  0  0  0  0  0  0  0  0
   -4.9639   -0.9755   16.3541 H   0  0  0  0  0  0  0  0  0  0  0  0
   -2.9060    3.6192   14.8027 H   0  0  0  0  0  0  0  0  0  0  0  0
   -3.6405    2.7809   17.2035 H   0  0  0  0  0  0  0  0  0  0  0  0
   -3.9707    6.1096   14.8613 H   0  0  0  0  0  0  0  0  0  0  0  0
   -5.7576    0.5847   18.8668 H   0  0  0  0  0  0  0  0  0  0  0  0
   -7.5952    0.4026   17.7163 H   0  0  0  0  0  0  0  0  0  0  0  0
   -6.8672    5.5749   14.7037 H   0  0  0  0  0  0  0  0  0  0  0  0
  3  4  1  0
  2  6  1  0
  1  7  1  0
  6  7  1  0
  2  8  1  0
  3  8  1  0
  3 11  1  0
  1 12  1  0
  5 12  1  0
  9 12  1  0
 12 10  1  0
  1 13  1  0
  2 13  1  0
  1 14  1  1
  2 15  1  1
  3 16  1  0
  4 17  1  0
  4 18  1  0
  4 19  1  0
  5 20  1  0
  5 21  1  0
  6 22  1  0
  7 23  1  0
  8 24  1  0
  9 25  1  0
 10 26  1  0
 11 27  1  0
M  END
>  <PDBID>  (1) 
1YDA

>  <PDB ID>  (1) 
1YDA

>  <Generic Name>  (1) 
Acetazolamide

>  <Brand Name>  (1) 
Acetazolam#Acetazolamide#Acetazolamide for Injection, USP#Diamox IV 500mg#Diamox Pws 500mg/vial#Diamox Sequels#Diamox Src 500mg#Diamox Tab 250mg#Diamox Tablets 250mg#Novo-zolamide Tab 250mg#Acemit#Acemox#Acetak#Acetamide#Acetazolamax#Azm#Azol#Azomid#Carbinib#Defiltran#Diabo#Diacarb#Diamox#Diamox Depot#Diazomid#Diluran#Diuramid#Défiltran#Edemox#Glaumox#Glaupax#Glupax#Huma-Zolamide#Iopar-SR#Medene#Oculten#Uramox#Zolmide#Ödemin

>  <DrugBank ID>  (1) 
DB00819

>  <ATC Codes>  (1) 
S01EC01

>  <Ligand ID>  (1) 
AZM

>  <Target Name>  (1) 
Carbonic anhydrase 3

>  <UniProt ID>  (1) 
P07451

>  <PDB ID.1>  (1) 
1YDA

>  <Seq. Identity>  (1) 
59%

$$$$
