PDB_DB02546_90
     RDKit          3D

 39 39  0  0  0  0  0  0  0  0999 V2000
   -4.3600  -14.5190   43.9310 O   0  0  0  0  0  0  0  0  0  0  0  0
   -2.3410  -14.5180   42.2580 O   0  0  0  0  0  0  0  0  0  0  0  0
   -4.4660  -14.5820   42.5380 N   0  0  0  0  0  0  0  0  0  0  0  0
   -3.4500  -14.1660   41.8800 C   0  0  0  0  0  0  0  0  0  0  0  0
   -3.7520  -13.3200   40.6460 C   0  0  0  0  0  0  0  0  0  0  0  0
   -4.0330  -11.8480   40.9210 C   0  0  0  0  0  0  0  0  0  0  0  0
   -4.1800  -10.9850   39.6570 C   0  0  0  0  0  0  0  0  0  0  0  0
   -5.1840  -11.4680   38.6000 C   0  0  0  0  0  0  0  0  0  0  0  0
   -5.6240  -10.3570   37.6390 C   0  0  0  0  0  0  0  0  0  0  0  0
   -6.6640  -10.8180   36.6160 C   0  0  0  0  0  0  0  0  0  0  0  0
   -7.2510   -9.5920   35.9400 C   0  0  0  0  0  0  0  0  0  0  0  0
   -6.5290   -8.8030   35.3400 O   0  0  0  0  0  0  0  0  0  0  0  0
   -8.5720   -9.4340   36.0480 N   0  0  0  0  0  0  0  0  0  0  0  0
   -9.2500   -8.3670   35.5510 C   0  0  0  0  0  0  0  0  0  0  0  0
  -10.4390   -8.5970   34.8640 C   0  0  0  0  0  0  0  0  0  0  0  0
  -11.1670   -7.5280   34.3460 C   0  0  0  0  0  0  0  0  0  0  0  0
  -10.7050   -6.2200   34.5160 C   0  0  0  0  0  0  0  0  0  0  0  0
   -9.5140   -5.9780   35.2050 C   0  0  0  0  0  0  0  0  0  0  0  0
   -8.7880   -7.0560   35.7220 C   0  0  0  0  0  0  0  0  0  0  0  0
   -5.1342  -14.9792   44.3420 H   0  0  0  0  0  0  0  0  0  0  0  0
   -5.3103  -14.9413   42.0700 H   0  0  0  0  0  0  0  0  0  0  0  0
   -2.8852  -13.3807   39.9715 H   0  0  0  0  0  0  0  0  0  0  0  0
   -4.6758  -13.7312   40.2129 H   0  0  0  0  0  0  0  0  0  0  0  0
   -4.9675  -11.7774   41.4969 H   0  0  0  0  0  0  0  0  0  0  0  0
   -3.1626  -11.4582   41.4691 H   0  0  0  0  0  0  0  0  0  0  0  0
   -4.4907   -9.9790   39.9755 H   0  0  0  0  0  0  0  0  0  0  0  0
   -3.1984  -11.0303   39.1626 H   0  0  0  0  0  0  0  0  0  0  0  0
   -4.7161  -12.2730   38.0143 H   0  0  0  0  0  0  0  0  0  0  0  0
   -6.0810  -11.8159   39.1332 H   0  0  0  0  0  0  0  0  0  0  0  0
   -6.0555   -9.5353   38.2295 H   0  0  0  0  0  0  0  0  0  0  0  0
   -4.7328  -10.0404   37.0773 H   0  0  0  0  0  0  0  0  0  0  0  0
   -6.1848  -11.4625   35.8643 H   0  0  0  0  0  0  0  0  0  0  0  0
   -7.4592  -11.3887   37.1179 H   0  0  0  0  0  0  0  0  0  0  0  0
   -9.1090  -10.1643   36.5371 H   0  0  0  0  0  0  0  0  0  0  0  0
  -10.8046   -9.6257   34.7298 H   0  0  0  0  0  0  0  0  0  0  0  0
  -12.1056   -7.7135   33.8031 H   0  0  0  0  0  0  0  0  0  0  0  0
  -11.2814   -5.3777   34.1057 H   0  0  0  0  0  0  0  0  0  0  0  0
   -9.1503   -4.9486   35.3397 H   0  0  0  0  0  0  0  0  0  0  0  0
   -7.8494   -6.8731   36.2657 H   0  0  0  0  0  0  0  0  0  0  0  0
  3  1  1  0
  4  2  2  0
  4  3  1  0
  4  5  1  0
  5  6  1  0
  6  7  1  0
  7  8  1  0
  8  9  1  0
  9 10  1  0
 10 11  1  0
 11 12  2  0
 11 13  1  0
 13 14  1  0
 14 15  2  0
 15 16  1  0
 16 17  2  0
 17 18  1  0
 14 19  1  0
 18 19  2  0
  1 20  1  0
  3 21  1  0
  5 22  1  0
  5 23  1  0
  6 24  1  0
  6 25  1  0
  7 26  1  0
  7 27  1  0
  8 28  1  0
  8 29  1  0
  9 30  1  0
  9 31  1  0
 10 32  1  0
 10 33  1  0
 13 34  1  0
 15 35  1  0
 16 36  1  0
 17 37  1  0
 18 38  1  0
 19 39  1  0
M  END
$$$$
