PDB_DB00819_87
     RDKit          3D

 27 27  0  0  0  0  0  0  0  0999 V2000
   -5.1710    2.0530   15.9880 C   0  0  1  0  0  0  0  0  0  0  0  0
   -4.7260    3.8470   14.5620 C   0  0  2  0  0  0  0  0  0  0  0  0
   -5.5320    5.7530   13.2640 C   0  0  1  0  0  0  0  0  0  0  0  0
   -5.2070    6.6980   12.4970 C   0  0  0  0  0  0  0  0  0  0  0  0
   -5.4920   -0.5860   16.3150 N   0  0  0  0  0  0  0  0  0  0  0  0
   -3.5950    3.2790   15.0570 N   0  0  0  0  0  0  0  0  0  0  0  0
   -3.8530    2.1680   15.9320 N   0  0  0  0  0  0  0  0  0  0  0  0
   -4.6410    5.0950   13.9610 N   0  0  0  0  0  0  0  0  0  0  0  0
   -5.4940    0.9270   18.2800 O   0  0  0  0  0  0  0  0  0  0  0  0
   -7.3740    1.0210   16.7110 O   0  0  0  0  0  0  0  0  0  0  0  0
   -6.9800    5.6060   13.5770 O   0  0  0  0  0  0  0  0  0  0  0  0
   -5.9630    0.8210   16.9040 S   0  0  1  0  0  4  0  0  0  0  0  0
   -6.0650    3.3190   15.2400 S   0  0  0  0  0  0  0  0  0  0  0  0
   -5.1502    1.3882   15.1119 H   0  0  0  0  0  0  0  0  0  0  0  0
   -4.8721    3.4263   13.5562 H   0  0  0  0  0  0  0  0  0  0  0  0
   -5.3487    4.9474   12.5377 H   0  0  0  0  0  0  0  0  0  0  0  0
   -4.9070    7.5702   13.0965 H   0  0  0  0  0  0  0  0  0  0  0  0
   -4.3658    6.3824   11.8624 H   0  0  0  0  0  0  0  0  0  0  0  0
   -6.0644    6.9666   11.8624 H   0  0  0  0  0  0  0  0  0  0  0  0
   -5.2770   -1.2284   17.0909 H   0  0  0  0  0  0  0  0  0  0  0  0
   -6.2451   -0.9857   15.7370 H   0  0  0  0  0  0  0  0  0  0  0  0
   -3.0231    2.9472   14.2672 H   0  0  0  0  0  0  0  0  0  0  0  0
   -3.4687    2.3528   16.8696 H   0  0  0  0  0  0  0  0  0  0  0  0
   -4.4064    5.7321   14.7355 H   0  0  0  0  0  0  0  0  0  0  0  0
   -6.2473    0.7568   18.8994 H   0  0  0  0  0  0  0  0  0  0  0  0
   -7.8218    1.0845   17.5917 H   0  0  0  0  0  0  0  0  0  0  0  0
   -7.1057    5.5932   14.5589 H   0  0  0  0  0  0  0  0  0  0  0  0
  3  4  1  0
  2  6  1  0
  1  7  1  0
  6  7  1  0
  2  8  1  0
  3  8  1  0
  3 11  1  0
  1 12  1  0
  5 12  1  0
 12  9  1  1
 10 12  1  0
  1 13  1  0
  2 13  1  0
  1 14  1  6
  2 15  1  6
  3 16  1  6
  4 17  1  0
  4 18  1  0
  4 19  1  0
  5 20  1  0
  5 21  1  0
  6 22  1  0
  7 23  1  0
  8 24  1  0
  9 25  1  0
 10 26  1  0
 11 27  1  0
M  END
>  <PDBID>  (1) 
3DC3

>  <PDB ID>  (1) 
3DC3

>  <Generic Name>  (1) 
Acetazolamide

>  <Brand Name>  (1) 
Acetazolam#Acetazolamide#Acetazolamide for Injection, USP#Diamox IV 500mg#Diamox Pws 500mg/vial#Diamox Sequels#Diamox Src 500mg#Diamox Tab 250mg#Diamox Tablets 250mg#Novo-zolamide Tab 250mg#Acemit#Acemox#Acetak#Acetamide#Acetazolamax#Azm#Azol#Azomid#Carbinib#Defiltran#Diabo#Diacarb#Diamox#Diamox Depot#Diazomid#Diluran#Diuramid#Défiltran#Edemox#Glaumox#Glaupax#Glupax#Huma-Zolamide#Iopar-SR#Medene#Oculten#Uramox#Zolmide#Ödemin

>  <DrugBank ID>  (1) 
DB00819

>  <ATC Codes>  (1) 
S01EC01

>  <Ligand ID>  (1) 
AZM

>  <Target Name>  (1) 
Carbonic anhydrase 7

>  <UniProt ID>  (1) 
P43166

>  <PDB ID.1>  (1) 
3DC3

>  <Seq. Identity>  (1) 
57%

$$$$
