PDB_DB00218_99
     RDKit          3D

390414  0  0  0  0  0  0  0  0999 V2000
   41.3680  -49.3060   63.1350 F   0  0  0  0  0  0  0  0  0  0  0  0
   42.6930  -47.2470   67.3970 O   0  0  0  0  0  0  0  0  0  0  0  0
   41.4500  -44.4630   61.9890 O   0  0  0  0  0  0  0  0  0  0  0  0
   42.4490  -40.9180   63.9160 O   0  0  0  0  0  0  0  0  0  0  0  0
   41.4790  -41.8180   62.1740 O   0  0  0  0  0  0  0  0  0  0  0  0
   42.1590  -49.6140   66.0380 N   0  0  0  0  0  0  0  0  0  0  0  0
   43.4490  -52.4390   66.7850 N   0  0  0  0  0  0  0  0  0  0  0  0
   42.4380  -44.4980   66.0380 N   0  0  0  0  0  0  0  0  0  0  0  0
   41.1290  -51.5090   67.0820 C   0  0  2  0  0  0  0  0  0  0  0  0
   42.2260  -51.9970   66.1250 C   0  0  1  0  0  0  0  0  0  0  0  0
   40.9500  -50.0360   66.7500 C   0  0  0  0  0  0  0  0  0  0  0  0
   42.5460  -50.7960   65.2520 C   0  0  0  0  0  0  0  0  0  0  0  0
   41.3230  -51.6400   68.6030 C   0  0  0  0  0  0  0  0  0  0  0  0
   42.7300  -44.3200   67.4750 C   0  0  2  0  0  0  0  0  0  0  0  0
   42.6860  -52.0900   69.1290 C   0  0  0  0  0  0  0  0  0  0  0  0
   41.4470  -44.4990   68.2960 C   0  0  0  0  0  0  0  0  0  0  0  0
   42.0380  -43.1120   68.1120 C   0  0  0  0  0  0  0  0  0  0  0  0
   43.8330  -51.9780   68.1170 C   0  0  0  0  0  0  0  0  0  0  0  0
   42.0080  -48.3710   65.3410 C   0  0  1  0  0  0  0  0  0  0  0  0
   42.2550  -45.7800   65.4020 C   0  0  1  0  0  0  0  0  0  0  0  0
   42.3040  -47.1170   66.0990 C   0  0  1  0  0  0  0  0  0  0  0  0
   41.8860  -45.8030   63.9400 C   0  0  0  0  0  0  0  0  0  0  0  0
   41.6970  -48.2420   63.8800 C   0  0  0  0  0  0  0  0  0  0  0  0
   42.4160  -43.3660   65.3080 C   0  0  0  0  0  0  0  0  0  0  0  0
   41.6830  -47.0000   63.2540 C   0  0  0  0  0  0  0  0  0  0  0  0
   42.0350  -43.2690   63.9700 C   0  0  1  0  0  0  0  0  0  0  0  0
   41.7520  -44.5100   63.2070 C   0  0  0  0  0  0  0  0  0  0  0  0
   41.9860  -41.9170   63.3120 C   0  0  0  0  0  0  0  0  0  0  0  0
   44.1030  -47.4710   67.5740 C   0  0  0  0  0  0  0  0  0  0  0  0
   57.4670  -50.1730   58.1170 F   0  0  0  0  0  0  0  0  0  0  0  0
   56.2090  -48.0540   53.8690 O   0  0  0  0  0  0  0  0  0  0  0  0
   57.7710  -45.3490   59.2260 O   0  0  0  0  0  0  0  0  0  0  0  0
   57.1060  -41.7040   57.2980 O   0  0  0  0  0  0  0  0  0  0  0  0
   57.6660  -42.7060   59.1520 O   0  0  0  0  0  0  0  0  0  0  0  0
   56.5930  -50.4300   55.2140 N   0  0  0  0  0  0  0  0  0  0  0  0
   54.9520  -53.1070   54.5710 N   0  0  0  0  0  0  0  0  0  0  0  0
   56.7560  -45.3140   55.2070 N   0  0  0  0  0  0  0  0  0  0  0  0
   57.3640  -52.4430   54.1760 C   0  0  2  0  0  0  0  0  0  0  0  0
   56.2470  -52.8010   55.1690 C   0  0  1  0  0  0  0  0  0  0  0  0
   57.7280  -50.9920   54.4780 C   0  0  0  0  0  0  0  0  0  0  0  0
   56.0870  -51.5550   56.0220 C   0  0  0  0  0  0  0  0  0  0  0  0
   57.0850  -52.5790   52.6660 C   0  0  0  0  0  0  0  0  0  0  0  0
   56.4520  -45.1240   53.7700 C   0  0  2  0  0  0  0  0  0  0  0  0
   55.6590  -52.9180   52.2070 C   0  0  0  0  0  0  0  0  0  0  0  0
   57.6960  -45.4240   52.9180 C   0  0  0  0  0  0  0  0  0  0  0  0
   57.2330  -43.9890   53.1100 C   0  0  0  0  0  0  0  0  0  0  0  0
   54.5730  -52.6330   53.2450 C   0  0  0  0  0  0  0  0  0  0  0  0
   56.8850  -49.2100   55.9040 C   0  0  1  0  0  0  0  0  0  0  0  0
   56.8640  -46.6070   55.8360 C   0  0  0  0  0  0  0  0  0  0  0  0
   56.6610  -47.9400   55.1560 C   0  0  1  0  0  0  0  0  0  0  0  0
   57.2520  -46.6500   57.2800 C   0  0  1  0  0  0  0  0  0  0  0  0
   57.2250  -49.0970   57.3570 C   0  0  0  0  0  0  0  0  0  0  0  0
   56.8680  -44.1760   55.9280 C   0  0  0  0  0  0  0  0  0  0  0  0
   57.3400  -47.8570   57.9680 C   0  0  0  0  0  0  0  0  0  0  0  0
   57.2730  -44.0970   57.2590 C   0  0  1  0  0  0  0  0  0  0  0  0
   57.4610  -45.3660   58.0120 C   0  0  0  0  0  0  0  0  0  0  0  0
   57.3700  -42.7520   57.9380 C   0  0  0  0  0  0  0  0  0  0  0  0
   54.7790  -48.1300   53.7280 C   0  0  0  0  0  0  0  0  0  0  0  0
   21.6710  -53.1640   53.4730 F   0  0  0  0  0  0  0  0  0  0  0  0
   17.3010  -50.8180   53.6300 O   0  0  0  0  0  0  0  0  0  0  0  0
   20.1410  -54.1150   58.1370 O   0  0  0  0  0  0  0  0  0  0  0  0
   16.9360  -53.1590   60.5730 O   0  0  0  0  0  0  0  0  0  0  0  0
   19.0500  -53.7790   60.5130 O   0  0  0  0  0  0  0  0  0  0  0  0
   20.0040  -51.5200   52.2760 N   0  0  0  0  0  0  0  0  0  0  0  0
   22.3570  -50.1360   51.2510 N   0  0  0  0  0  0  0  0  0  0  0  0
   17.0500  -51.8350   56.5690 N   0  0  0  0  0  0  0  0  0  0  0  0
   20.0890  -50.4150   50.2160 C   0  0  2  0  0  0  0  0  0  0  0  0
   20.9680  -49.6740   51.2320 C   0  0  1  0  0  0  0  0  0  0  0  0
   19.2690  -51.4300   51.0240 C   0  0  0  0  0  0  0  0  0  0  0  0
   20.3560  -50.1170   52.5330 C   0  0  0  0  0  0  0  0  0  0  0  0
   20.8660  -51.1150   49.0840 C   0  0  0  0  0  0  0  0  0  0  0  0
   15.9380  -50.9330   56.2040 C   0  0  2  0  0  0  0  0  0  0  0  0
   22.2500  -50.5230   48.7760 C   0  0  0  0  0  0  0  0  0  0  0  0
   14.6960  -51.0670   57.0810 C   0  0  0  0  0  0  0  0  0  0  0  0
   14.6980  -51.6420   55.6700 C   0  0  0  0  0  0  0  0  0  0  0  0
   23.1220  -50.3220   50.0240 C   0  0  0  0  0  0  0  0  0  0  0  0
   19.4650  -52.0820   53.4530 C   0  0  2  0  0  0  0  0  0  0  0  0
   18.1650  -52.0690   55.6870 C   0  0  1  0  0  0  0  0  0  0  0  0
   18.2580  -51.6180   54.2340 C   0  0  0  0  0  0  0  0  0  0  0  0
   19.2990  -52.9030   56.2290 C   0  0  1  0  0  0  0  0  0  0  0  0
   20.5330  -52.8630   54.1370 C   0  0  0  0  0  0  0  0  0  0  0  0
   17.1010  -52.2030   57.8720 C   0  0  0  0  0  0  0  0  0  0  0  0
   20.3900  -53.2780   55.4460 C   0  0  0  0  0  0  0  0  0  0  0  0
   18.0890  -52.9840   58.4700 C   0  0  0  0  0  0  0  0  0  0  0  0
   19.2370  -53.4020   57.6380 C   0  0  0  0  0  0  0  0  0  0  0  0
   18.0130  -53.3460   59.9390 C   0  0  0  0  0  0  0  0  0  0  0  0
   16.3800  -51.4130   52.6980 C   0  0  0  0  0  0  0  0  0  0  0  0
   76.2580   -9.6420    1.4730 F   0  0  0  0  0  0  0  0  0  0  0  0
   74.7140  -11.6160    5.6840 O   0  0  0  0  0  0  0  0  0  0  0  0
   76.3120  -14.4850    0.3920 O   0  0  0  0  0  0  0  0  0  0  0  0
   75.2370  -17.9990    2.3750 O   0  0  0  0  0  0  0  0  0  0  0  0
   76.1530  -17.1290    0.5790 O   0  0  0  0  0  0  0  0  0  0  0  0
   75.3770   -9.2750    4.3460 N   0  0  0  0  0  0  0  0  0  0  0  0
   74.1120   -6.3890    4.9200 N   0  0  0  0  0  0  0  0  0  0  0  0
   75.1830  -14.3750    4.4100 N   0  0  0  0  0  0  0  0  0  0  0  0
   76.3370   -7.4010    5.4880 C   0  0  2  0  0  0  0  0  0  0  0  0
   75.3860   -6.8840    4.4100 C   0  0  1  0  0  0  0  0  0  0  0  0
   76.5070   -8.8780    5.1900 C   0  0  0  0  0  0  0  0  0  0  0  0
   75.1260   -8.0860    3.5190 C   0  0  0  0  0  0  0  0  0  0  0  0
   75.9760   -7.2290    6.9720 C   0  0  0  0  0  0  0  0  0  0  0  0
   74.7790  -14.5000    5.8300 C   0  0  2  0  0  0  0  0  0  0  0  0
   74.5710   -6.7260    7.3240 C   0  0  0  0  0  0  0  0  0  0  0  0
   76.0000  -14.3050    6.7290 C   0  0  0  0  0  0  0  0  0  0  0  0
   75.4130  -15.6930    6.5400 C   0  0  0  0  0  0  0  0  0  0  0  0
   73.5470   -6.8420    6.1900 C   0  0  0  0  0  0  0  0  0  0  0  0
   75.5620  -10.5270    3.6650 C   0  0  1  0  0  0  0  0  0  0  0  0
   75.3690  -13.1110    3.7500 C   0  0  1  0  0  0  0  0  0  0  0  0
   75.2150  -11.7680    4.4150 C   0  0  1  0  0  0  0  0  0  0  0  0
   75.8130  -13.1210    2.3080 C   0  0  0  0  0  0  0  0  0  0  0  0
   75.9440  -10.6890    2.2270 C   0  0  1  0  0  0  0  0  0  0  0  0
   75.2360  -15.5280    3.7010 C   0  0  0  0  0  0  0  0  0  0  0  0
   76.0660  -11.9350    1.6240 C   0  0  0  0  0  0  0  0  0  0  0  0
   75.6490  -15.6510    2.3730 C   0  0  1  0  0  0  0  0  0  0  0  0
   75.9490  -14.4230    1.5930 C   0  0  0  0  0  0  0  0  0  0  0  0
   75.6920  -17.0140    1.7390 C   0  0  0  0  0  0  0  0  0  0  0  0
   73.2910  -11.4060    5.7470 C   0  0  0  0  0  0  0  0  0  0  0  0
   60.1390   -8.9040   -3.6060 F   0  0  0  0  0  0  0  0  0  0  0  0
   61.3260  -10.9920   -7.9100 O   0  0  0  0  0  0  0  0  0  0  0  0
   59.9030  -13.6560   -2.5230 O   0  0  0  0  0  0  0  0  0  0  0  0
   60.6720  -17.3230   -4.3490 O   0  0  0  0  0  0  0  0  0  0  0  0
   59.8330  -16.3220   -2.6000 O   0  0  0  0  0  0  0  0  0  0  0  0
   60.9790   -8.6070   -6.5150 N   0  0  0  0  0  0  0  0  0  0  0  0
   62.6400   -5.9350   -7.1670 N   0  0  0  0  0  0  0  0  0  0  0  0
   60.8330  -13.7440   -6.5430 N   0  0  0  0  0  0  0  0  0  0  0  0
   60.2040   -6.5660   -7.4870 C   0  0  2  0  0  0  0  0  0  0  0  0
   61.3610   -6.2450   -6.5280 C   0  0  1  0  0  0  0  0  0  0  0  0
   59.8260   -8.0180   -7.2030 C   0  0  0  0  0  0  0  0  0  0  0  0
   61.5360   -7.5090   -5.6980 C   0  0  0  0  0  0  0  0  0  0  0  0
   60.4420   -6.4030   -8.9980 C   0  0  0  0  0  0  0  0  0  0  0  0
   61.1550  -13.9420   -7.9720 C   0  0  2  0  0  0  0  0  0  0  0  0
   61.8580   -6.0720   -9.4920 C   0  0  0  0  0  0  0  0  0  0  0  0
   59.9190  -13.6750   -8.8350 C   0  0  0  0  0  0  0  0  0  0  0  0
   60.4000  -15.1040   -8.6190 C   0  0  0  0  0  0  0  0  0  0  0  0
   62.9770   -6.3990   -8.5050 C   0  0  0  0  0  0  0  0  0  0  0  0
   60.6940   -9.8410   -5.8440 C   0  0  1  0  0  0  0  0  0  0  0  0
   60.7230  -12.4450   -5.9300 C   0  0  0  0  0  0  0  0  0  0  0  0
   60.9120  -11.1090   -6.6140 C   0  0  0  0  0  0  0  0  0  0  0  0
   60.3590  -12.3950   -4.4800 C   0  0  1  0  0  0  0  0  0  0  0  0
   60.3680   -9.9630   -4.3850 C   0  0  0  0  0  0  0  0  0  0  0  0
   60.7590  -14.8780   -5.8080 C   0  0  0  0  0  0  0  0  0  0  0  0
   60.2800  -11.1980   -3.7780 C   0  0  0  0  0  0  0  0  0  0  0  0
   60.3930  -14.9440   -4.4670 C   0  0  1  0  0  0  0  0  0  0  0  0
   60.1860  -13.6670   -3.7390 C   0  0  0  0  0  0  0  0  0  0  0  0
   60.2850  -16.2800   -3.7670 C   0  0  0  0  0  0  0  0  0  0  0  0
   62.7490  -10.8990   -8.0750 C   0  0  0  0  0  0  0  0  0  0  0  0
   96.0780   -6.0130   -8.4190 F   0  0  0  0  0  0  0  0  0  0  0  0
  100.4460   -8.3520   -8.0150 O   0  0  0  0  0  0  0  0  0  0  0  0
   97.5020   -4.9010   -3.7400 O   0  0  0  0  0  0  0  0  0  0  0  0
  100.7190   -5.7900   -1.2220 O   0  0  0  0  0  0  0  0  0  0  0  0
   98.6220   -5.1120   -1.3130 O   0  0  0  0  0  0  0  0  0  0  0  0
   98.2540   -7.7910   -9.6560 N   0  0  0  0  0  0  0  0  0  0  0  0
   96.5420   -8.3570  -12.5400 N   0  0  0  0  0  0  0  0  0  0  0  0
  100.6230   -7.2620   -5.1420 N   0  0  0  0  0  0  0  0  0  0  0  0
   96.4320   -9.2830  -10.2360 C   0  0  2  0  0  0  0  0  0  0  0  0
   96.3240   -8.0490  -11.1330 C   0  0  1  0  0  0  0  0  0  0  0  0
   97.8300   -9.2050   -9.6560 C   0  0  0  0  0  0  0  0  0  0  0  0
   97.4360   -7.1170  -10.6790 C   0  0  0  0  0  0  0  0  0  0  0  0
   96.3090  -10.6390  -10.9370 C   0  0  0  0  0  0  0  0  0  0  0  0
  101.7330   -8.1810   -5.4620 C   0  0  2  0  0  0  0  0  0  0  0  0
   95.4700  -10.6000  -12.2200 C   0  0  0  0  0  0  0  0  0  0  0  0
  102.9630   -8.0400   -4.5650 C   0  0  0  0  0  0  0  0  0  0  0  0
  102.9720   -7.4610   -5.9730 C   0  0  0  0  0  0  0  0  0  0  0  0
   95.8630   -9.4730  -13.1860 C   0  0  0  0  0  0  0  0  0  0  0  0
   98.2730   -7.2160   -8.3320 C   0  0  0  0  0  0  0  0  0  0  0  0
   99.5200   -7.0480   -6.0480 C   0  0  1  0  0  0  0  0  0  0  0  0
   99.4680   -7.5390   -7.4790 C   0  0  1  0  0  0  0  0  0  0  0  0
   98.3880   -6.1720   -5.5890 C   0  0  0  0  0  0  0  0  0  0  0  0
   97.2000   -6.3340   -7.7360 C   0  0  0  0  0  0  0  0  0  0  0  0
  100.5720   -6.8290   -3.8600 C   0  0  0  0  0  0  0  0  0  0  0  0
   97.3290   -5.8300   -6.4380 C   0  0  0  0  0  0  0  0  0  0  0  0
   99.5740   -6.0230   -3.3200 C   0  0  0  0  0  0  0  0  0  0  0  0
   98.4350   -5.6160   -4.1980 C   0  0  1  0  0  0  0  0  0  0  0  0
   99.6490   -5.6050   -1.8650 C   0  0  0  0  0  0  0  0  0  0  0  0
  101.3210   -7.7980   -9.0080 C   0  0  0  0  0  0  0  0  0  0  0  0
   40.4761  -44.3114   61.8961 H   0  0  0  0  0  0  0  0  0  0  0  0
   42.3819  -41.0628   64.8931 H   0  0  0  0  0  0  0  0  0  0  0  0
   40.5110  -41.6290   62.2593 H   0  0  0  0  0  0  0  0  0  0  0  0
   43.3870  -53.4654   66.8445 H   0  0  0  0  0  0  0  0  0  0  0  0
   40.2737  -52.1785   66.9084 H   0  0  0  0  0  0  0  0  0  0  0  0
   41.8599  -52.8777   65.5771 H   0  0  0  0  0  0  0  0  0  0  0  0
   40.8307  -49.4511   67.6739 H   0  0  0  0  0  0  0  0  0  0  0  0
   40.0525  -49.8758   66.1345 H   0  0  0  0  0  0  0  0  0  0  0  0
   41.9700  -50.8387   64.3158 H   0  0  0  0  0  0  0  0  0  0  0  0
   43.6106  -50.7680   64.9767 H   0  0  0  0  0  0  0  0  0  0  0  0
   41.1149  -50.6535   69.0429 H   0  0  0  0  0  0  0  0  0  0  0  0
   40.6412  -52.4534   68.8921 H   0  0  0  0  0  0  0  0  0  0  0  0
   43.7611  -44.7028   67.4899 H   0  0  0  0  0  0  0  0  0  0  0  0
   42.9378  -51.4702   70.0021 H   0  0  0  0  0  0  0  0  0  0  0  0
   42.5882  -53.1587   69.3703 H   0  0  0  0  0  0  0  0  0  0  0  0
   40.5058  -44.7663   67.7933 H   0  0  0  0  0  0  0  0  0  0  0  0
   41.1589  -45.1117   69.1630 H   0  0  0  0  0  0  0  0  0  0  0  0
   42.5062  -42.5973   68.9640 H   0  0  0  0  0  0  0  0  0  0  0  0
   41.6573  -42.1501   67.7382 H   0  0  0  0  0  0  0  0  0  0  0  0
   44.6774  -52.5873   68.4716 H   0  0  0  0  0  0  0  0  0  0  0  0
   44.1070  -50.9156   68.0376 H   0  0  0  0  0  0  0  0  0  0  0  0
   40.9576  -48.3179   65.6633 H   0  0  0  0  0  0  0  0  0  0  0  0
   43.3367  -45.8398   65.2113 H   0  0  0  0  0  0  0  0  0  0  0  0
   43.3549  -47.1714   65.7786 H   0  0  0  0  0  0  0  0  0  0  0  0
   42.9523  -45.8298   63.6713 H   0  0  0  0  0  0  0  0  0  0  0  0
   40.6355  -48.0819   64.1201 H   0  0  0  0  0  0  0  0  0  0  0  0
   41.7452  -42.6838   65.8508 H   0  0  0  0  0  0  0  0  0  0  0  0
   43.4958  -43.1784   65.2134 H   0  0  0  0  0  0  0  0  0  0  0  0
   40.6961  -46.9122   62.7762 H   0  0  0  0  0  0  0  0  0  0  0  0
   42.5896  -47.0553   62.6334 H   0  0  0  0  0  0  0  0  0  0  0  0
   43.0907  -43.3225   63.6655 H   0  0  0  0  0  0  0  0  0  0  0  0
   40.6944  -44.4513   63.5038 H   0  0  0  0  0  0  0  0  0  0  0  0
   42.9720  -42.1010   62.8605 H   0  0  0  0  0  0  0  0  0  0  0  0
   44.3364  -47.5081   68.6483 H   0  0  0  0  0  0  0  0  0  0  0  0
   44.3845  -48.4251   67.1045 H   0  0  0  0  0  0  0  0  0  0  0  0
   44.6663  -46.6511   67.1045 H   0  0  0  0  0  0  0  0  0  0  0  0
   56.9497  -45.3940   59.7770 H   0  0  0  0  0  0  0  0  0  0  0  0
   56.9205  -40.9675   57.9330 H   0  0  0  0  0  0  0  0  0  0  0  0
   56.8487  -42.8330   59.6960 H   0  0  0  0  0  0  0  0  0  0  0  0
   54.8873  -54.1344   54.5375 H   0  0  0  0  0  0  0  0  0  0  0  0
   58.1566  -53.1886   54.3365 H   0  0  0  0  0  0  0  0  0  0  0  0
   56.5360  -53.7168   55.7055 H   0  0  0  0  0  0  0  0  0  0  0  0
   57.8882  -50.4365   53.5422 H   0  0  0  0  0  0  0  0  0  0  0  0
   58.6572  -50.9255   55.0629 H   0  0  0  0  0  0  0  0  0  0  0  0
   56.6714  -51.6508   56.9490 H   0  0  0  0  0  0  0  0  0  0  0  0
   55.0363  -51.3997   56.3083 H   0  0  0  0  0  0  0  0  0  0  0  0
   57.3562  -51.6207   52.1990 H   0  0  0  0  0  0  0  0  0  0  0  0
   57.6784  -53.4541   52.3625 H   0  0  0  0  0  0  0  0  0  0  0  0
   55.3914  -45.4156   53.7811 H   0  0  0  0  0  0  0  0  0  0  0  0
   55.4379  -52.3252   51.3071 H   0  0  0  0  0  0  0  0  0  0  0  0
   55.6393  -54.0025   52.0240 H   0  0  0  0  0  0  0  0  0  0  0  0
   58.6216  -45.7725   53.3995 H   0  0  0  0  0  0  0  0  0  0  0  0
   57.9078  -46.0635   52.0484 H   0  0  0  0  0  0  0  0  0  0  0  0
   56.7917  -43.4377   52.2666 H   0  0  0  0  0  0  0  0  0  0  0  0
   57.7072  -43.0639   53.4696 H   0  0  0  0  0  0  0  0  0  0  0  0
   53.6457  -53.1388   52.9379 H   0  0  0  0  0  0  0  0  0  0  0  0
   54.4304  -51.5437   53.2997 H   0  0  0  0  0  0  0  0  0  0  0  0
   57.8279  -49.7686   55.9987 H   0  0  0  0  0  0  0  0  0  0  0  0
   55.7941  -46.5732   56.0892 H   0  0  0  0  0  0  0  0  0  0  0  0
   55.6227  -47.9099   55.5180 H   0  0  0  0  0  0  0  0  0  0  0  0
   56.1936  -46.5636   57.5670 H   0  0  0  0  0  0  0  0  0  0  0  0
   58.2934  -49.0366   57.1023 H   0  0  0  0  0  0  0  0  0  0  0  0
   57.5779  -43.5474   55.3704 H   0  0  0  0  0  0  0  0  0  0  0  0
   55.8059  -43.9100   56.0339 H   0  0  0  0  0  0  0  0  0  0  0  0
   58.3254  -47.8531   58.4569 H   0  0  0  0  0  0  0  0  0  0  0  0
   56.4197  -47.8283   58.5698 H   0  0  0  0  0  0  0  0  0  0  0  0
   56.2206  -44.0641   57.5773 H   0  0  0  0  0  0  0  0  0  0  0  0
   58.5237  -45.3771   57.7280 H   0  0  0  0  0  0  0  0  0  0  0  0
   56.3164  -42.8305   58.2441 H   0  0  0  0  0  0  0  0  0  0  0  0
   54.3131  -48.1548   54.7242 H   0  0  0  0  0  0  0  0  0  0  0  0
   54.4177  -47.2498   53.1760 H   0  0  0  0  0  0  0  0  0  0  0  0
   54.5130  -49.0435   53.1760 H   0  0  0  0  0  0  0  0  0  0  0  0
   20.0873  -54.0726   59.1246 H   0  0  0  0  0  0  0  0  0  0  0  0
   17.1161  -53.1903   61.5460 H   0  0  0  0  0  0  0  0  0  0  0  0
   18.9294  -53.7286   61.4943 H   0  0  0  0  0  0  0  0  0  0  0  0
   22.8809  -49.4539   51.8177 H   0  0  0  0  0  0  0  0  0  0  0  0
   19.4600  -49.6819   49.6897 H   0  0  0  0  0  0  0  0  0  0  0  0
   20.9985  -48.5952   51.0193 H   0  0  0  0  0  0  0  0  0  0  0  0
   19.2336  -52.4046   50.5152 H   0  0  0  0  0  0  0  0  0  0  0  0
   18.2188  -51.1313   51.1578 H   0  0  0  0  0  0  0  0  0  0  0  0
   19.4614  -49.5228   52.7710 H   0  0  0  0  0  0  0  0  0  0  0  0
   21.0306  -49.9913   53.3927 H   0  0  0  0  0  0  0  0  0  0  0  0
   21.0023  -52.1694   49.3665 H   0  0  0  0  0  0  0  0  0  0  0  0
   20.2660  -50.9778   48.1723 H   0  0  0  0  0  0  0  0  0  0  0  0
   16.5668  -50.0965   55.8650 H   0  0  0  0  0  0  0  0  0  0  0  0
   22.7753  -51.2041   48.0903 H   0  0  0  0  0  0  0  0  0  0  0  0
   22.0856  -49.5297   48.3328 H   0  0  0  0  0  0  0  0  0  0  0  0
   14.7064  -51.7416   57.9498 H   0  0  0  0  0  0  0  0  0  0  0  0
   14.0547  -50.3648   57.6339 H   0  0  0  0  0  0  0  0  0  0  0  0
   14.0910  -51.1702   54.8832 H   0  0  0  0  0  0  0  0  0  0  0  0
   14.4957  -52.6312   55.2335 H   0  0  0  0  0  0  0  0  0  0  0  0
   23.7505  -49.4327   49.8687 H   0  0  0  0  0  0  0  0  0  0  0  0
   23.7157  -51.2392   50.1518 H   0  0  0  0  0  0  0  0  0  0  0  0
   18.5923  -52.6086   53.0393 H   0  0  0  0  0  0  0  0  0  0  0  0
   17.7103  -53.0170   55.3636 H   0  0  0  0  0  0  0  0  0  0  0  0
   17.7075  -52.5160   53.9168 H   0  0  0  0  0  0  0  0  0  0  0  0
   18.7688  -53.8189   55.9289 H   0  0  0  0  0  0  0  0  0  0  0  0
   20.9886  -51.9275   54.4938 H   0  0  0  0  0  0  0  0  0  0  0  0
   17.0999  -51.2593   58.4371 H   0  0  0  0  0  0  0  0  0  0  0  0
   16.2630  -52.9151   57.8958 H   0  0  0  0  0  0  0  0  0  0  0  0
   21.2857  -52.9266   55.9791 H   0  0  0  0  0  0  0  0  0  0  0  0
   20.2254  -54.3591   55.3267 H   0  0  0  0  0  0  0  0  0  0  0  0
   17.5457  -53.8948   58.1780 H   0  0  0  0  0  0  0  0  0  0  0  0
   19.8022  -52.5206   57.9750 H   0  0  0  0  0  0  0  0  0  0  0  0
   17.6798  -54.3597   59.6720 H   0  0  0  0  0  0  0  0  0  0  0  0
   15.5812  -51.9291   53.2507 H   0  0  0  0  0  0  0  0  0  0  0  0
   15.9400  -50.6280   52.0654 H   0  0  0  0  0  0  0  0  0  0  0  0
   16.9148  -52.1368   52.0654 H   0  0  0  0  0  0  0  0  0  0  0  0
   77.2870  -14.6515    0.3501 H   0  0  0  0  0  0  0  0  0  0  0  0
   75.3156  -17.8290    3.3471 H   0  0  0  0  0  0  0  0  0  0  0  0
   77.1124  -17.3683    0.6274 H   0  0  0  0  0  0  0  0  0  0  0  0
   74.2130   -5.3671    4.9997 H   0  0  0  0  0  0  0  0  0  0  0  0
   77.2348   -6.7701    5.4116 H   0  0  0  0  0  0  0  0  0  0  0  0
   75.8450   -6.0240    3.9004 H   0  0  0  0  0  0  0  0  0  0  0  0
   76.5013   -9.4558    6.1260 H   0  0  0  0  0  0  0  0  0  0  0  0
   77.4639   -9.0695    4.6823 H   0  0  0  0  0  0  0  0  0  0  0  0
   75.8058   -8.0732    2.6543 H   0  0  0  0  0  0  0  0  0  0  0  0
   74.0972   -8.0799    3.1297 H   0  0  0  0  0  0  0  0  0  0  0  0
   76.1010   -8.2101    7.4535 H   0  0  0  0  0  0  0  0  0  0  0  0
   76.6464   -6.4312    7.3241 H   0  0  0  0  0  0  0  0  0  0  0  0
   73.7537  -14.1071    5.7646 H   0  0  0  0  0  0  0  0  0  0  0  0
   74.2022   -7.3104    8.1799 H   0  0  0  0  0  0  0  0  0  0  0  0
   74.6711   -5.6529    7.5439 H   0  0  0  0  0  0  0  0  0  0  0  0
   76.9751  -14.0554    6.2853 H   0  0  0  0  0  0  0  0  0  0  0  0
   76.2325  -13.6711    7.5974 H   0  0  0  0  0  0  0  0  0  0  0  0
   74.8833  -16.1831    7.3702 H   0  0  0  0  0  0  0  0  0  0  0  0
   75.8106  -16.6666    6.2176 H   0  0  0  0  0  0  0  0  0  0  0  0
   72.6702   -6.2240    6.4335 H   0  0  0  0  0  0  0  0  0  0  0  0
   73.2596   -7.8987    6.0865 H   0  0  0  0  0  0  0  0  0  0  0  0
   76.5916  -10.5833    4.0482 H   0  0  0  0  0  0  0  0  0  0  0  0
   74.3038  -13.0974    3.4759 H   0  0  0  0  0  0  0  0  0  0  0  0
   74.1941  -11.7290    4.0073 H   0  0  0  0  0  0  0  0  0  0  0  0
   74.7624  -13.0836    1.9843 H   0  0  0  0  0  0  0  0  0  0  0  0
   76.9992  -10.7950    2.5192 H   0  0  0  0  0  0  0  0  0  0  0  0
   75.9023  -16.1897    4.2739 H   0  0  0  0  0  0  0  0  0  0  0  0
   74.1608  -15.7293    3.5850 H   0  0  0  0  0  0  0  0  0  0  0  0
   77.1045  -12.0025    1.2676 H   0  0  0  0  0  0  0  0  0  0  0  0
   75.2449  -11.9149    0.8922 H   0  0  0  0  0  0  0  0  0  0  0  0
   74.6008  -15.6047    2.0427 H   0  0  0  0  0  0  0  0  0  0  0  0
   77.0026  -14.4833    1.9033 H   0  0  0  0  0  0  0  0  0  0  0  0
   74.6994  -16.8402    1.2980 H   0  0  0  0  0  0  0  0  0  0  0  0
   72.9735  -11.3591    6.7991 H   0  0  0  0  0  0  0  0  0  0  0  0
   73.0373  -10.4607    5.2450 H   0  0  0  0  0  0  0  0  0  0  0  0
   72.7750  -12.2377    5.2450 H   0  0  0  0  0  0  0  0  0  0  0  0
   60.7366  -13.6884   -1.9899 H   0  0  0  0  0  0  0  0  0  0  0  0
   60.9242  -18.0028   -3.6749 H   0  0  0  0  0  0  0  0  0  0  0  0
   60.5800  -16.2526   -1.9541 H   0  0  0  0  0  0  0  0  0  0  0  0
   62.7041   -4.9074   -7.1957 H   0  0  0  0  0  0  0  0  0  0  0  0
   59.4255   -5.8159   -7.2839 H   0  0  0  0  0  0  0  0  0  0  0  0
   61.1019   -5.3377   -5.9626 H   0  0  0  0  0  0  0  0  0  0  0  0
   59.6278   -8.5526   -8.1437 H   0  0  0  0  0  0  0  0  0  0  0  0
   58.9138   -8.0854   -6.5920 H   0  0  0  0  0  0  0  0  0  0  0  0
   60.9882   -7.4224   -4.7480 H   0  0  0  0  0  0  0  0  0  0  0  0
   62.5924   -7.6861   -5.4477 H   0  0  0  0  0  0  0  0  0  0  0  0
   60.1455   -7.3484   -9.4759 H   0  0  0  0  0  0  0  0  0  0  0  0
   59.8520   -5.5142   -9.2661 H   0  0  0  0  0  0  0  0  0  0  0  0
   62.2093  -13.6286   -7.9581 H   0  0  0  0  0  0  0  0  0  0  0  0
   62.0396   -6.6418  -10.4153 H   0  0  0  0  0  0  0  0  0  0  0  0
   61.8860   -4.9823   -9.6398 H   0  0  0  0  0  0  0  0  0  0  0  0
   58.9847  -13.3327   -8.3661 H   0  0  0  0  0  0  0  0  0  0  0  0
   59.7060  -13.0514   -9.7157 H   0  0  0  0  0  0  0  0  0  0  0  0
   60.8570  -15.6614   -9.4499 H   0  0  0  0  0  0  0  0  0  0  0  0
   59.9380  -16.0315   -8.2498 H   0  0  0  0  0  0  0  0  0  0  0  0
   63.9036   -5.9062   -8.8346 H   0  0  0  0  0  0  0  0  0  0  0  0
   63.1124   -7.4902   -8.4754 H   0  0  0  0  0  0  0  0  0  0  0  0
   59.7201   -9.3343   -5.7749 H   0  0  0  0  0  0  0  0  0  0  0  0
   61.7948  -12.4705   -5.6837 H   0  0  0  0  0  0  0  0  0  0  0  0
   61.9602  -11.1309   -6.2811 H   0  0  0  0  0  0  0  0  0  0  0  0
   61.4217  -12.4831   -4.2102 H   0  0  0  0  0  0  0  0  0  0  0  0
   59.2966  -10.0154   -4.6288 H   0  0  0  0  0  0  0  0  0  0  0  0
   60.0430  -15.5233   -6.3381 H   0  0  0  0  0  0  0  0  0  0  0  0
   61.8267  -15.1313   -5.7317 H   0  0  0  0  0  0  0  0  0  0  0  0
   59.3087  -11.2132   -3.2619 H   0  0  0  0  0  0  0  0  0  0  0  0
   61.2128  -11.2232   -3.1955 H   0  0  0  0  0  0  0  0  0  0  0  0
   61.4541  -14.9373   -4.1771 H   0  0  0  0  0  0  0  0  0  0  0  0
   59.1211  -13.6826   -4.0144 H   0  0  0  0  0  0  0  0  0  0  0  0
   61.2919  -16.1411   -3.3465 H   0  0  0  0  0  0  0  0  0  0  0  0
   63.2314  -10.8675   -7.0869 H   0  0  0  0  0  0  0  0  0  0  0  0
   63.1116  -11.7754   -8.6323 H   0  0  0  0  0  0  0  0  0  0  0  0
   62.9944   -9.9829   -8.6323 H   0  0  0  0  0  0  0  0  0  0  0  0
   97.5269   -4.9201   -2.7505 H   0  0  0  0  0  0  0  0  0  0  0  0
  100.5302   -5.7574   -0.2507 H   0  0  0  0  0  0  0  0  0  0  0  0
   98.7212   -5.1596   -0.3291 H   0  0  0  0  0  0  0  0  0  0  0  0
   96.2796   -7.5119  -13.0672 H   0  0  0  0  0  0  0  0  0  0  0  0
   95.5973   -9.2537   -9.5202 H   0  0  0  0  0  0  0  0  0  0  0  0
   95.3150   -7.6194  -11.0474 H   0  0  0  0  0  0  0  0  0  0  0  0
   98.5213   -9.8005  -10.2704 H   0  0  0  0  0  0  0  0  0  0  0  0
   97.8374   -9.6027   -8.6304 H   0  0  0  0  0  0  0  0  0  0  0  0
   96.9972   -6.2024  -10.2536 H   0  0  0  0  0  0  0  0  0  0  0  0
   98.0685   -6.8540  -11.5397 H   0  0  0  0  0  0  0  0  0  0  0  0
   97.3196  -10.9891  -11.1943 H   0  0  0  0  0  0  0  0  0  0  0  0
   95.7938  -11.3146  -10.2384 H   0  0  0  0  0  0  0  0  0  0  0  0
  101.1151   -9.0278   -5.7953 H   0  0  0  0  0  0  0  0  0  0  0  0
   95.5900  -11.5610  -12.7417 H   0  0  0  0  0  0  0  0  0  0  0  0
   94.4298  -10.4118  -11.9158 H   0  0  0  0  0  0  0  0  0  0  0  0
  102.9351   -7.3688   -3.6939 H   0  0  0  0  0  0  0  0  0  0  0  0
  103.6033   -8.7380   -4.0057 H   0  0  0  0  0  0  0  0  0  0  0  0
  103.5937   -7.9242   -6.7533 H   0  0  0  0  0  0  0  0  0  0  0  0
  103.1707   -6.4680   -6.4025 H   0  0  0  0  0  0  0  0  0  0  0  0
   94.9492   -9.0926  -13.6658 H   0  0  0  0  0  0  0  0  0  0  0  0
   96.5700   -9.9031  -13.9106 H   0  0  0  0  0  0  0  0  0  0  0  0
   97.7533   -8.1025   -7.9396 H   0  0  0  0  0  0  0  0  0  0  0  0
   99.9808   -6.1085   -6.3871 H   0  0  0  0  0  0  0  0  0  0  0  0
   99.9884   -6.6534   -7.8727 H   0  0  0  0  0  0  0  0  0  0  0  0
   98.9421   -5.2818   -5.9215 H   0  0  0  0  0  0  0  0  0  0  0  0
   96.6968   -7.2225   -7.3270 H   0  0  0  0  0  0  0  0  0  0  0  0
  100.5750   -7.7406   -3.2444 H   0  0  0  0  0  0  0  0  0  0  0  0
  101.4136   -6.1207   -3.8611 H   0  0  0  0  0  0  0  0  0  0  0  0
   96.4098   -6.1197   -5.9077 H   0  0  0  0  0  0  0  0  0  0  0  0
   97.5385   -4.7681   -6.6342 H   0  0  0  0  0  0  0  0  0  0  0  0
  100.1317   -5.1262   -3.6278 H   0  0  0  0  0  0  0  0  0  0  0  0
   97.8491   -6.4735   -3.8355 H   0  0  0  0  0  0  0  0  0  0  0  0
  100.0040   -4.6093   -2.1693 H   0  0  0  0  0  0  0  0  0  0  0  0
  102.1510   -7.2725   -8.5132 H   0  0  0  0  0  0  0  0  0  0  0  0
  101.7218   -8.6072   -9.6361 H   0  0  0  0  0  0  0  0  0  0  0  0
  100.7609   -7.0896   -9.6361 H   0  0  0  0  0  0  0  0  0  0  0  0
  7 10  1  0
  9 10  1  0
  6 11  1  0
  9 11  1  0
  6 12  1  0
 10 12  1  0
  9 13  1  0
  8 14  1  0
 13 15  1  0
 14 16  1  0
 14 17  1  0
 16 17  1  0
  7 18  1  0
 15 18  1  0
  6 19  1  0
  8 20  1  0
  2 21  1  0
 19 21  1  0
 20 21  1  0
 20 22  1  0
  1 23  1  0
 19 23  1  0
  8 24  1  0
 22 25  1  0
 23 25  1  0
 24 26  1  0
 22 27  1  0
 26 27  1  0
 27  3  1  0
  4 28  1  0
 26 28  1  0
 28  5  1  0
  2 29  1  0
 36 39  1  0
 38 39  1  0
 35 40  1  0
 38 40  1  0
 35 41  1  0
 39 41  1  0
 38 42  1  0
 37 43  1  0
 42 44  1  0
 43 45  1  0
 43 46  1  0
 45 46  1  0
 36 47  1  0
 44 47  1  0
 35 48  1  0
 37 49  1  0
 31 50  1  0
 48 50  1  0
 49 50  1  0
 49 51  1  0
 30 52  1  0
 48 52  1  0
 37 53  1  0
 51 54  1  0
 52 54  1  0
 53 55  1  0
 51 56  1  0
 55 56  1  0
 56 32  1  0
 33 57  1  0
 55 57  1  0
 57 34  1  0
 31 58  1  0
 65 68  1  0
 67 68  1  0
 64 69  1  0
 67 69  1  0
 64 70  1  0
 68 70  1  0
 67 71  1  0
 66 72  1  0
 71 73  1  0
 72 74  1  0
 72 75  1  0
 74 75  1  0
 65 76  1  0
 73 76  1  0
 64 77  1  0
 66 78  1  0
 60 79  1  0
 77 79  1  0
 78 79  1  0
 78 80  1  0
 59 81  1  0
 77 81  1  0
 66 82  1  0
 80 83  1  0
 81 83  1  0
 82 84  1  0
 80 85  1  0
 84 85  1  0
 85 61  1  0
 62 86  1  0
 84 86  1  0
 86 63  1  0
 60 87  1  0
 94 97  1  0
 96 97  1  0
 93 98  1  0
 96 98  1  0
 93 99  1  0
 97 99  1  0
 96100  1  0
 95101  1  0
100102  1  0
101103  1  0
101104  1  0
103104  1  0
 94105  1  0
102105  1  0
 93106  1  0
 95107  1  0
 89108  1  0
106108  1  0
107108  1  0
107109  1  0
 88110  1  0
106110  1  0
 95111  1  0
109112  1  0
110112  1  0
111113  1  0
109114  1  0
113114  1  0
114 90  1  0
 91115  1  0
113115  1  0
115 92  1  0
 89116  1  0
123126  1  0
125126  1  0
122127  1  0
125127  1  0
122128  1  0
126128  1  0
125129  1  0
124130  1  0
129131  1  0
130132  1  0
130133  1  0
132133  1  0
123134  1  0
131134  1  0
122135  1  0
124136  1  0
118137  1  0
135137  1  0
136137  1  0
136138  1  0
117139  1  0
135139  1  0
124140  1  0
138141  1  0
139141  1  0
140142  1  0
138143  1  0
142143  1  0
143119  1  0
120144  1  0
142144  1  0
144121  1  0
118145  1  0
152155  1  0
154155  1  0
151156  1  0
154156  1  0
151157  1  0
155157  1  0
154158  1  0
153159  1  0
158160  1  0
159161  1  0
159162  1  0
161162  1  0
152163  1  0
160163  1  0
151164  1  0
153165  1  0
147166  1  0
164166  1  0
165166  1  0
165167  1  0
146168  1  0
164168  1  0
153169  1  0
167170  1  0
168170  1  0
169171  1  0
167172  1  0
171172  1  0
172148  1  0
149173  1  0
171173  1  0
173150  1  0
147174  1  0
  3175  1  0
  4176  1  0
  5177  1  0
  7178  1  0
  9179  1  6
 10180  1  6
 11181  1  0
 11182  1  0
 12183  1  0
 12184  1  0
 13185  1  0
 13186  1  0
 14187  1  1
 15188  1  0
 15189  1  0
 16190  1  0
 16191  1  0
 17192  1  0
 17193  1  0
 18194  1  0
 18195  1  0
 19196  1  1
 20197  1  6
 21198  1  1
 22199  1  0
 23200  1  0
 24201  1  0
 24202  1  0
 25203  1  0
 25204  1  0
 26205  1  1
 27206  1  0
 28207  1  0
 29208  1  0
 29209  1  0
 29210  1  0
 32211  1  0
 33212  1  0
 34213  1  0
 36214  1  0
 38215  1  1
 39216  1  1
 40217  1  0
 40218  1  0
 41219  1  0
 41220  1  0
 42221  1  0
 42222  1  0
 43223  1  6
 44224  1  0
 44225  1  0
 45226  1  0
 45227  1  0
 46228  1  0
 46229  1  0
 47230  1  0
 47231  1  0
 48232  1  6
 49233  1  0
 50234  1  6
 51235  1  6
 52236  1  0
 53237  1  0
 53238  1  0
 54239  1  0
 54240  1  0
 55241  1  6
 56242  1  0
 57243  1  0
 58244  1  0
 58245  1  0
 58246  1  0
 61247  1  0
 62248  1  0
 63249  1  0
 65250  1  0
 67251  1  6
 68252  1  6
 69253  1  0
 69254  1  0
 70255  1  0
 70256  1  0
 71257  1  0
 71258  1  0
 72259  1  6
 73260  1  0
 73261  1  0
 74262  1  0
 74263  1  0
 75264  1  0
 75265  1  0
 76266  1  0
 76267  1  0
 77268  1  6
 78269  1  1
 79270  1  0
 80271  1  1
 81272  1  0
 82273  1  0
 82274  1  0
 83275  1  0
 83276  1  0
 84277  1  0
 85278  1  0
 86279  1  0
 87280  1  0
 87281  1  0
 87282  1  0
 90283  1  0
 91284  1  0
 92285  1  0
 94286  1  0
 96287  1  1
 97288  1  6
 98289  1  0
 98290  1  0
 99291  1  0
 99292  1  0
100293  1  0
100294  1  0
101295  1  1
102296  1  0
102297  1  0
103298  1  0
103299  1  0
104300  1  0
104301  1  0
105302  1  0
105303  1  0
106304  1  1
107305  1  6
108306  1  1
109307  1  0
110308  1  6
111309  1  0
111310  1  0
112311  1  0
112312  1  0
113313  1  1
114314  1  0
115315  1  0
116316  1  0
116317  1  0
116318  1  0
119319  1  0
120320  1  0
121321  1  0
123322  1  0
125323  1  1
126324  1  1
127325  1  0
127326  1  0
128327  1  0
128328  1  0
129329  1  0
129330  1  0
130331  1  6
131332  1  0
131333  1  0
132334  1  0
132335  1  0
133336  1  0
133337  1  0
134338  1  0
134339  1  0
135340  1  6
136341  1  0
137342  1  0
138343  1  6
139344  1  0
140345  1  0
140346  1  0
141347  1  0
141348  1  0
142349  1  6
143350  1  0
144351  1  0
145352  1  0
145353  1  0
145354  1  0
148355  1  0
149356  1  0
150357  1  0
152358  1  0
154359  1  1
155360  1  6
156361  1  0
156362  1  0
157363  1  0
157364  1  0
158365  1  0
158366  1  0
159367  1  6
160368  1  0
160369  1  0
161370  1  0
161371  1  0
162372  1  0
162373  1  0
163374  1  0
163375  1  0
164376  1  0
165377  1  1
166378  1  6
167379  1  0
168380  1  0
169381  1  0
169382  1  0
170383  1  0
170384  1  0
171385  1  0
172386  1  6
173387  1  0
174388  1  0
174389  1  0
174390  1  0
M  END
>  <PDBID>  (1) 
5CDQ

>  <PDB ID>  (1) 
5CDQ

>  <Generic Name>  (1) 
Moxifloxacin

>  <Brand Name>  (1) 
Act Moxifloxacin#Apo-moxifloxacin#Auro-moxifloxacin#Avelox#Avelox Abc Pack#Avelox I.V.#Bio-moxifloxacin#Dom-moxifloxacin#Ipg-moxifloxacin#Jamp-moxifloxacin#Jamp-moxifloxacin Tablets#Mar-moxifloxacin#Med-moxifloxacin#Moxeza#Moxifloxacin#Moxifloxacin Hydrochloride#Moxifloxacin Injection#Mylan-moxifloxacin#Mylan-moxifloxacin HCl Ophthalmic Solution#PHL-moxifloxacin#PMS-moxifloxacin#Priva-moxifloxacin#Riva-moxifloxacin#Sandoz Moxifloxacin#Teva-moxifloxacin#Torrent-moxifloxacin#Vigamox

>  <DrugBank ID>  (1) 
DB00218

>  <ATC Codes>  (1) 
J01MA14#S01AE07

>  <Ligand ID>  (1) 
MFX

>  <Target Name>  (1) 
DNA gyrase subunit A

>  <UniProt ID>  (1) 
P43700

>  <PDB ID.1>  (1) 
5CDQ

>  <Seq. Identity>  (1) 
53%

$$$$
