PDB_DB00523_98
     RDKit          3D

124124  0  0  0  0  0  0  0  0999 V2000
   21.8290   10.8740   18.2900 C   0  0  2  0  0  0  0  0  0  0  0  0
   23.4010   10.8260   18.6980 C   0  0  0  0  0  0  0  0  0  0  0  0
   24.4050   11.6750   17.8000 C   0  0  0  0  0  0  0  0  0  0  0  0
   24.1260   11.4620   16.3160 C   0  0  0  0  0  0  0  0  0  0  0  0
   22.6780   11.8940   15.9000 C   0  0  0  0  0  0  0  0  0  0  0  0
   21.5330   11.6320   16.8140 C   0  0  0  0  0  0  0  0  0  0  0  0
   20.1320   11.9900   16.5760 C   0  0  0  0  0  0  0  0  0  0  0  0
   19.4640   12.7860   15.6730 C   0  0  0  0  0  0  0  0  0  0  0  0
   18.0950   12.8960   15.2770 C   0  0  0  0  0  0  0  0  0  0  0  0
   17.6880   14.0210   14.5250 C   0  0  0  0  0  0  0  0  0  0  0  0
   18.5160   15.0980   14.2160 C   0  0  0  0  0  0  0  0  0  0  0  0
   18.0440   16.2170   13.5430 C   0  0  0  0  0  0  0  0  0  0  0  0
   18.7740   17.4110   13.2820 C   0  0  0  0  0  0  0  0  0  0  0  0
   18.0840   18.3980   12.5920 C   0  0  0  0  0  0  0  0  0  0  0  0
   18.5310   19.8040   12.1720 C   0  0  0  0  0  0  0  0  0  0  0  0
   21.3070   11.9510   19.3770 C   0  0  0  0  0  0  0  0  0  0  0  0
   21.1380    9.5810   18.6440 C   0  0  0  0  0  0  0  0  0  0  0  0
   22.6100   12.5500   14.5170 C   0  0  0  0  0  0  0  0  0  0  0  0
   17.0190   11.8800   15.6370 C   0  0  0  0  0  0  0  0  0  0  0  0
   20.2640   17.6320   13.7710 C   0  0  0  0  0  0  0  0  0  0  0  0
   18.1000   20.2710   11.1120 O   0  0  0  0  0  0  0  0  0  0  0  0
   19.3250   20.4510   12.9030 O   0  0  0  0  0  0  0  0  0  0  0  0
  -10.2600   38.6260   42.0630 C   0  0  2  0  0  0  0  0  0  0  0  0
  -11.8270   38.9820   41.9370 C   0  0  0  0  0  0  0  0  0  0  0  0
  -12.6520   38.1890   40.8290 C   0  0  0  0  0  0  0  0  0  0  0  0
  -11.9310   38.1550   39.4760 C   0  0  0  0  0  0  0  0  0  0  0  0
  -10.4370   37.6660   39.5120 C   0  0  0  0  0  0  0  0  0  0  0  0
   -9.5960   37.8750   40.7240 C   0  0  0  0  0  0  0  0  0  0  0  0
   -8.2060   37.4550   40.9040 C   0  0  0  0  0  0  0  0  0  0  0  0
   -7.3590   36.6460   40.2170 C   0  0  0  0  0  0  0  0  0  0  0  0
   -5.9540   36.4600   40.2000 C   0  0  0  0  0  0  0  0  0  0  0  0
   -5.4480   35.3030   39.5730 C   0  0  0  0  0  0  0  0  0  0  0  0
   -6.2490   34.2810   39.0450 C   0  0  0  0  0  0  0  0  0  0  0  0
   -5.6900   33.1160   38.5280 C   0  0  0  0  0  0  0  0  0  0  0  0
   -6.3990   31.9770   38.0720 C   0  0  0  0  0  0  0  0  0  0  0  0
   -5.6250   30.9330   37.6060 C   0  0  0  0  0  0  0  0  0  0  0  0
   -6.0500   29.5460   37.0810 C   0  0  0  0  0  0  0  0  0  0  0  0
  -10.2980   37.3720   43.1240 C   0  0  0  0  0  0  0  0  0  0  0  0
   -9.5040   39.7060   42.8040 C   0  0  0  0  0  0  0  0  0  0  0  0
   -9.9880   37.0110   38.2020 C   0  0  0  0  0  0  0  0  0  0  0  0
   -4.9490   37.4010   40.8400 C   0  0  0  0  0  0  0  0  0  0  0  0
   -7.9630   31.8720   38.1280 C   0  0  0  0  0  0  0  0  0  0  0  0
   -5.4820   29.0880   36.0890 O   0  0  0  0  0  0  0  0  0  0  0  0
   -6.9790   28.9090   37.6680 O   0  0  0  0  0  0  0  0  0  0  0  0
   23.4875   11.1935   19.7312 H   0  0  0  0  0  0  0  0  0  0  0  0
   23.7028    9.7782   18.5529 H   0  0  0  0  0  0  0  0  0  0  0  0
   24.2862   12.7422   18.0386 H   0  0  0  0  0  0  0  0  0  0  0  0
   25.4318   11.3437   18.0142 H   0  0  0  0  0  0  0  0  0  0  0  0
   24.8492   12.0526   15.7345 H   0  0  0  0  0  0  0  0  0  0  0  0
   24.2204   10.3849   16.1134 H   0  0  0  0  0  0  0  0  0  0  0  0
   22.5224   10.9145   15.4243 H   0  0  0  0  0  0  0  0  0  0  0  0
   21.6862   12.6132   17.2872 H   0  0  0  0  0  0  0  0  0  0  0  0
   19.6535   11.0098   16.4336 H   0  0  0  0  0  0  0  0  0  0  0  0
   20.0850   12.7226   17.3952 H   0  0  0  0  0  0  0  0  0  0  0  0
   19.7094   13.8044   16.0086 H   0  0  0  0  0  0  0  0  0  0  0  0
   19.7896   12.2318   14.7803 H   0  0  0  0  0  0  0  0  0  0  0  0
   17.8691   13.4366   16.2080 H   0  0  0  0  0  0  0  0  0  0  0  0
   17.3441   13.6238   13.5586 H   0  0  0  0  0  0  0  0  0  0  0  0
   16.9851   14.4950   15.2260 H   0  0  0  0  0  0  0  0  0  0  0  0
   18.9197   15.4610   15.1727 H   0  0  0  0  0  0  0  0  0  0  0  0
   19.2044   14.6576   13.4797 H   0  0  0  0  0  0  0  0  0  0  0  0
   17.7336   15.8480   12.5543 H   0  0  0  0  0  0  0  0  0  0  0  0
   17.3307   16.5954   14.2900 H   0  0  0  0  0  0  0  0  0  0  0  0
   19.1237   16.9888   12.3283 H   0  0  0  0  0  0  0  0  0  0  0  0
   17.7973   17.9140   11.6467 H   0  0  0  0  0  0  0  0  0  0  0  0
   17.4081   18.6982   13.4063 H   0  0  0  0  0  0  0  0  0  0  0  0
   19.3868   19.3710   11.6333 H   0  0  0  0  0  0  0  0  0  0  0  0
   21.4927   11.5678   20.3912 H   0  0  0  0  0  0  0  0  0  0  0  0
   21.8448   12.9007   19.2397 H   0  0  0  0  0  0  0  0  0  0  0  0
   20.2283   12.1172   19.2397 H   0  0  0  0  0  0  0  0  0  0  0  0
   21.0847    9.4813   19.7382 H   0  0  0  0  0  0  0  0  0  0  0  0
   20.1205    9.5826   18.2260 H   0  0  0  0  0  0  0  0  0  0  0  0
   21.7048    8.7360   18.2260 H   0  0  0  0  0  0  0  0  0  0  0  0
   22.4972   13.6381   14.6324 H   0  0  0  0  0  0  0  0  0  0  0  0
   23.5353   12.3340   13.9628 H   0  0  0  0  0  0  0  0  0  0  0  0
   21.7486   12.1488   13.9628 H   0  0  0  0  0  0  0  0  0  0  0  0
   16.9382   11.8037   16.7314 H   0  0  0  0  0  0  0  0  0  0  0  0
   16.0542   12.2043   15.2198 H   0  0  0  0  0  0  0  0  0  0  0  0
   17.2875   10.8982   15.2198 H   0  0  0  0  0  0  0  0  0  0  0  0
   20.2922   17.6362   14.8706 H   0  0  0  0  0  0  0  0  0  0  0  0
   20.8991   16.8182   13.3910 H   0  0  0  0  0  0  0  0  0  0  0  0
   20.6356   18.5951   13.3910 H   0  0  0  0  0  0  0  0  0  0  0  0
   17.4420   20.9840   11.3089 H   0  0  0  0  0  0  0  0  0  0  0  0
   19.1129   20.2782   13.8544 H   0  0  0  0  0  0  0  0  0  0  0  0
  -12.2950   38.7777   42.9113 H   0  0  0  0  0  0  0  0  0  0  0  0
  -11.8606   40.0361   41.6243 H   0  0  0  0  0  0  0  0  0  0  0  0
  -12.8044   37.1557   41.1741 H   0  0  0  0  0  0  0  0  0  0  0  0
  -13.6094   38.7115   40.6858 H   0  0  0  0  0  0  0  0  0  0  0  0
  -12.4913   37.4811   38.8112 H   0  0  0  0  0  0  0  0  0  0  0  0
  -11.8970   39.1979   39.1279 H   0  0  0  0  0  0  0  0  0  0  0  0
  -10.1091   38.6387   39.1167 H   0  0  0  0  0  0  0  0  0  0  0  0
   -9.9152   36.8973   41.1141 H   0  0  0  0  0  0  0  0  0  0  0  0
   -7.6626   38.4110   40.9333 H   0  0  0  0  0  0  0  0  0  0  0  0
   -8.4258   36.7209   41.6931 H   0  0  0  0  0  0  0  0  0  0  0  0
   -7.7364   35.6399   40.4524 H   0  0  0  0  0  0  0  0  0  0  0  0
   -7.3910   37.2359   39.2891 H   0  0  0  0  0  0  0  0  0  0  0  0
   -6.0144   35.9164   41.1544 H   0  0  0  0  0  0  0  0  0  0  0  0
   -4.8340   35.6633   38.7344 H   0  0  0  0  0  0  0  0  0  0  0  0
   -4.9892   34.7864   40.4289 H   0  0  0  0  0  0  0  0  0  0  0  0
   -6.9270   33.9686   39.8529 H   0  0  0  0  0  0  0  0  0  0  0  0
   -6.6802   34.7549   38.1509 H   0  0  0  0  0  0  0  0  0  0  0  0
   -5.0888   33.4436   37.6670 H   0  0  0  0  0  0  0  0  0  0  0  0
   -5.2453   32.7018   39.4449 H   0  0  0  0  0  0  0  0  0  0  0  0
   -6.4332   32.4039   37.0588 H   0  0  0  0  0  0  0  0  0  0  0  0
   -5.0529   31.3718   36.7752 H   0  0  0  0  0  0  0  0  0  0  0  0
   -5.2209   30.6057   38.5753 H   0  0  0  0  0  0  0  0  0  0  0  0
   -6.8001   30.0215   36.4320 H   0  0  0  0  0  0  0  0  0  0  0  0
  -10.2862   37.7615   44.1526 H   0  0  0  0  0  0  0  0  0  0  0  0
  -11.2144   36.7847   42.9648 H   0  0  0  0  0  0  0  0  0  0  0  0
   -9.4189   36.7303   42.9648 H   0  0  0  0  0  0  0  0  0  0  0  0
   -9.6121   39.5516   43.8877 H   0  0  0  0  0  0  0  0  0  0  0  0
   -8.4392   39.6610   42.5316 H   0  0  0  0  0  0  0  0  0  0  0  0
   -9.9108   40.6911   42.5316 H   0  0  0  0  0  0  0  0  0  0  0  0
   -9.3791   36.1227   38.4261 H   0  0  0  0  0  0  0  0  0  0  0  0
  -10.8721   36.7122   37.6196 H   0  0  0  0  0  0  0  0  0  0  0  0
   -9.3904   37.7278   37.6196 H   0  0  0  0  0  0  0  0  0  0  0  0
   -5.0254   37.3295   41.9350 H   0  0  0  0  0  0  0  0  0  0  0  0
   -3.9329   37.1220   40.5243 H   0  0  0  0  0  0  0  0  0  0  0  0
   -5.1606   38.4333   40.5243 H   0  0  0  0  0  0  0  0  0  0  0  0
   -8.2917   31.8499   39.1775 H   0  0  0  0  0  0  0  0  0  0  0  0
   -8.4072   32.7423   37.6229 H   0  0  0  0  0  0  0  0  0  0  0  0
   -8.2869   30.9501   37.6229 H   0  0  0  0  0  0  0  0  0  0  0  0
   -4.7445   28.4933   36.3762 H   0  0  0  0  0  0  0  0  0  0  0  0
   -6.8646   28.9874   38.6482 H   0  0  0  0  0  0  0  0  0  0  0  0
  1  2  1  0
  2  3  1  0
  3  4  1  0
  4  5  1  0
  1  6  1  0
  5  6  1  0
  6  7  1  0
  7  8  1  0
  8  9  1  0
  9 10  1  0
 10 11  1  0
 11 12  1  0
 12 13  1  0
 13 14  1  0
 14 15  1  0
  1 16  1  1
  1 17  1  0
  5 18  1  0
  9 19  1  0
 13 20  1  0
 15 21  1  0
 15 22  1  0
 23 24  1  0
 24 25  1  0
 25 26  1  0
 26 27  1  0
 23 28  1  0
 27 28  1  0
 28 29  1  0
 29 30  1  0
 30 31  1  0
 31 32  1  0
 32 33  1  0
 33 34  1  0
 34 35  1  0
 35 36  1  0
 36 37  1  0
 23 38  1  1
 23 39  1  0
 27 40  1  0
 31 41  1  0
 35 42  1  0
 37 43  1  0
 37 44  1  0
  2 45  1  0
  2 46  1  0
  3 47  1  0
  3 48  1  0
  4 49  1  0
  4 50  1  0
  5 51  1  0
  6 52  1  0
  7 53  1  0
  7 54  1  0
  8 55  1  0
  8 56  1  0
  9 57  1  0
 10 58  1  0
 10 59  1  0
 11 60  1  0
 11 61  1  0
 12 62  1  0
 12 63  1  0
 13 64  1  0
 14 65  1  0
 14 66  1  0
 15 67  1  0
 16 68  1  0
 16 69  1  0
 16 70  1  0
 17 71  1  0
 17 72  1  0
 17 73  1  0
 18 74  1  0
 18 75  1  0
 18 76  1  0
 19 77  1  0
 19 78  1  0
 19 79  1  0
 20 80  1  0
 20 81  1  0
 20 82  1  0
 21 83  1  0
 22 84  1  0
 24 85  1  0
 24 86  1  0
 25 87  1  0
 25 88  1  0
 26 89  1  0
 26 90  1  0
 27 91  1  0
 28 92  1  0
 29 93  1  0
 29 94  1  0
 30 95  1  0
 30 96  1  0
 31 97  1  0
 32 98  1  0
 32 99  1  0
 33100  1  0
 33101  1  0
 34102  1  0
 34103  1  0
 35104  1  0
 36105  1  0
 36106  1  0
 37107  1  0
 38108  1  0
 38109  1  0
 38110  1  0
 39111  1  0
 39112  1  0
 39113  1  0
 40114  1  0
 40115  1  0
 40116  1  0
 41117  1  0
 41118  1  0
 41119  1  0
 42120  1  0
 42121  1  0
 42122  1  0
 43123  1  0
 44124  1  0
M  END
>  <PDBID>  (1) 
1FM6

>  <PDB ID>  (1) 
1FM6

>  <Generic Name>  (1) 
Alitretinoin

>  <Brand Name>  (1) 
Panretin#Toctino

>  <DrugBank ID>  (1) 
DB00523

>  <ATC Codes>  (1) 
D11AH04#L01XX22

>  <Ligand ID>  (1) 
9CR

>  <Target Name>  (1) 
Retinoic acid receptor RXR-beta

>  <UniProt ID>  (1) 
P28702

>  <PDB ID.1>  (1) 
1FM6

>  <Seq. Identity>  (1) 
87%

$$$$
