PDB_DB02546_98
     RDKit          3D

 98 98  0  0  0  0  0  0  0  0999 V2000
   18.5440   26.0960   15.0360 O   0  0  0  0  0  0  0  0  0  0  0  0
   18.8700   26.8960   17.5570 O   0  0  0  0  0  0  0  0  0  0  0  0
   18.6180   27.4360   15.4010 N   0  0  0  0  0  0  0  0  0  0  0  0
   18.7820   27.7450   16.6830 C   0  0  0  0  0  0  0  0  0  0  0  0
   18.8340   29.2150   17.0280 C   0  0  0  0  0  0  0  0  0  0  0  0
   19.8870   29.9270   16.2000 C   0  0  0  0  0  0  0  0  0  0  0  0
   19.2780   31.1630   15.5530 C   0  0  0  0  0  0  0  0  0  0  0  0
   19.0500   32.3010   16.5410 C   0  0  0  0  0  0  0  0  0  0  0  0
   18.0760   33.3110   15.9490 C   0  0  0  0  0  0  0  0  0  0  0  0
   18.3800   34.7540   16.3330 C   0  0  0  0  0  0  0  0  0  0  0  0
   17.9510   35.0160   17.7580 C   0  0  0  0  0  0  0  0  0  0  0  0
   17.0690   34.3330   18.2500 O   0  0  0  0  0  0  0  0  0  0  0  0
   18.5980   36.0200   18.3570 N   0  0  0  0  0  0  0  0  0  0  0  0
   18.4250   36.4930   19.6700 C   0  0  0  0  0  0  0  0  0  0  0  0
   17.5020   35.9490   20.5620 C   0  0  0  0  0  0  0  0  0  0  0  0
   17.3830   36.4620   21.8470 C   0  0  0  0  0  0  0  0  0  0  0  0
   18.1890   37.5190   22.2540 C   0  0  0  0  0  0  0  0  0  0  0  0
   19.1140   38.0620   21.3700 C   0  0  0  0  0  0  0  0  0  0  0  0
   19.2320   37.5480   20.0840 C   0  0  0  0  0  0  0  0  0  0  0  0
   14.0320   43.6190   29.7590 O   0  0  0  0  0  0  0  0  0  0  0  0
   15.5940   42.6470   27.8060 O   0  0  0  0  0  0  0  0  0  0  0  0
   14.9210   42.5660   29.9370 N   0  0  0  0  0  0  0  0  0  0  0  0
   15.6620   42.1500   28.9160 C   0  0  0  0  0  0  0  0  0  0  0  0
   16.6000   41.0000   29.1930 C   0  0  0  0  0  0  0  0  0  0  0  0
   15.8030   39.7120   29.0670 C   0  0  0  0  0  0  0  0  0  0  0  0
   16.6590   38.5000   29.3960 C   0  0  0  0  0  0  0  0  0  0  0  0
   15.9490   37.2390   28.9280 C   0  0  0  0  0  0  0  0  0  0  0  0
   16.6520   35.9930   29.4480 C   0  0  0  0  0  0  0  0  0  0  0  0
   16.0000   34.7310   28.9000 C   0  0  0  0  0  0  0  0  0  0  0  0
   16.3330   34.5590   27.4330 C   0  0  0  0  0  0  0  0  0  0  0  0
   15.7080   35.1780   26.5850 O   0  0  0  0  0  0  0  0  0  0  0  0
   17.3360   33.7120   27.1950 N   0  0  0  0  0  0  0  0  0  0  0  0
   17.8560   33.3340   25.9430 C   0  0  0  0  0  0  0  0  0  0  0  0
   17.2010   33.5980   24.7420 C   0  0  0  0  0  0  0  0  0  0  0  0
   17.7500   33.1880   23.5330 C   0  0  0  0  0  0  0  0  0  0  0  0
   18.9540   32.4960   23.5190 C   0  0  0  0  0  0  0  0  0  0  0  0
   19.6070   32.2170   24.7130 C   0  0  0  0  0  0  0  0  0  0  0  0
   19.0570   32.6310   25.9200 C   0  0  0  0  0  0  0  0  0  0  0  0
   18.5129   25.5335   15.8501 H   0  0  0  0  0  0  0  0  0  0  0  0
   18.8249   27.3309   18.4452 H   0  0  0  0  0  0  0  0  0  0  0  0
   19.4114   27.8456   14.8876 H   0  0  0  0  0  0  0  0  0  0  0  0
   19.8736   27.7205   16.5493 H   0  0  0  0  0  0  0  0  0  0  0  0
   17.8515   29.6672   16.8276 H   0  0  0  0  0  0  0  0  0  0  0  0
   19.0938   29.3180   18.0919 H   0  0  0  0  0  0  0  0  0  0  0  0
   20.7221   30.2277   16.8498 H   0  0  0  0  0  0  0  0  0  0  0  0
   20.2559   29.2487   15.4165 H   0  0  0  0  0  0  0  0  0  0  0  0
   19.9570   31.5156   14.7627 H   0  0  0  0  0  0  0  0  0  0  0  0
   18.2956   30.8740   15.1513 H   0  0  0  0  0  0  0  0  0  0  0  0
   18.6332   31.8958   17.4748 H   0  0  0  0  0  0  0  0  0  0  0  0
   20.0085   32.7993   16.7484 H   0  0  0  0  0  0  0  0  0  0  0  0
   18.1137   33.2282   14.8528 H   0  0  0  0  0  0  0  0  0  0  0  0
   17.0813   33.0736   16.3543 H   0  0  0  0  0  0  0  0  0  0  0  0
   19.4610   34.9348   16.2399 H   0  0  0  0  0  0  0  0  0  0  0  0
   17.8274   35.4281   15.6620 H   0  0  0  0  0  0  0  0  0  0  0  0
   17.1967   35.7317   17.3993 H   0  0  0  0  0  0  0  0  0  0  0  0
   17.1281   34.3787   19.2372 H   0  0  0  0  0  0  0  0  0  0  0  0
   19.5933   35.7608   18.3009 H   0  0  0  0  0  0  0  0  0  0  0  0
   17.6631   37.2022   19.3141 H   0  0  0  0  0  0  0  0  0  0  0  0
   16.5127   36.0446   20.0906 H   0  0  0  0  0  0  0  0  0  0  0  0
   17.8893   34.9338   20.7335 H   0  0  0  0  0  0  0  0  0  0  0  0
   16.3411   36.7964   21.9595 H   0  0  0  0  0  0  0  0  0  0  0  0
   17.7204   35.6297   22.4821 H   0  0  0  0  0  0  0  0  0  0  0  0
   17.5160   38.3362   22.5527 H   0  0  0  0  0  0  0  0  0  0  0  0
   18.8174   37.0732   23.0391 H   0  0  0  0  0  0  0  0  0  0  0  0
   18.8639   39.1279   21.2641 H   0  0  0  0  0  0  0  0  0  0  0  0
   20.0809   37.8124   21.8314 H   0  0  0  0  0  0  0  0  0  0  0  0
   20.2732   37.2110   19.9733 H   0  0  0  0  0  0  0  0  0  0  0  0
   18.8939   38.3820   19.4515 H   0  0  0  0  0  0  0  0  0  0  0  0
   13.7437   43.9604   30.6424 H   0  0  0  0  0  0  0  0  0  0  0  0
   15.4603   43.6244   27.8897 H   0  0  0  0  0  0  0  0  0  0  0  0
   15.5724   42.8481   30.6833 H   0  0  0  0  0  0  0  0  0  0  0  0
   14.8783   41.4288   28.6411 H   0  0  0  0  0  0  0  0  0  0  0  0
   17.4231   41.0040   28.4633 H   0  0  0  0  0  0  0  0  0  0  0  0
   17.0309   41.0890   30.2012 H   0  0  0  0  0  0  0  0  0  0  0  0
   14.9508   39.7483   29.7616 H   0  0  0  0  0  0  0  0  0  0  0  0
   15.4538   39.6194   28.0280 H   0  0  0  0  0  0  0  0  0  0  0  0
   17.6293   38.5862   28.8850 H   0  0  0  0  0  0  0  0  0  0  0  0
   16.8216   38.4487   30.4827 H   0  0  0  0  0  0  0  0  0  0  0  0
   14.9138   37.2498   29.2999 H   0  0  0  0  0  0  0  0  0  0  0  0
   15.9628   37.2163   27.8283 H   0  0  0  0  0  0  0  0  0  0  0  0
   17.7065   36.0180   29.1358 H   0  0  0  0  0  0  0  0  0  0  0  0
   16.5757   35.9792   30.5453 H   0  0  0  0  0  0  0  0  0  0  0  0
   16.3697   33.8595   29.4602 H   0  0  0  0  0  0  0  0  0  0  0  0
   14.9089   34.8163   29.0105 H   0  0  0  0  0  0  0  0  0  0  0  0
   15.6082   33.7343   27.3652 H   0  0  0  0  0  0  0  0  0  0  0  0
   15.0789   35.8010   27.0280 H   0  0  0  0  0  0  0  0  0  0  0  0
   18.1393   34.1043   27.7066 H   0  0  0  0  0  0  0  0  0  0  0  0
   17.3322   32.3695   26.0166 H   0  0  0  0  0  0  0  0  0  0  0  0
   16.2097   33.1266   24.8137 H   0  0  0  0  0  0  0  0  0  0  0  0
   17.2442   34.6950   24.6733 H   0  0  0  0  0  0  0  0  0  0  0  0
   17.0048   32.5397   23.0489 H   0  0  0  0  0  0  0  0  0  0  0  0
   17.9957   34.1355   23.0312 H   0  0  0  0  0  0  0  0  0  0  0  0
   18.7599   31.5302   23.0296 H   0  0  0  0  0  0  0  0  0  0  0  0
   19.6397   33.1903   23.0112 H   0  0  0  0  0  0  0  0  0  0  0  0
   19.7106   31.1234   24.7700 H   0  0  0  0  0  0  0  0  0  0  0  0
   20.5306   32.8100   24.6400 H   0  0  0  0  0  0  0  0  0  0  0  0
   19.8074   33.2725   26.4051 H   0  0  0  0  0  0  0  0  0  0  0  0
   18.7988   31.6824   26.4134 H   0  0  0  0  0  0  0  0  0  0  0  0
  1  3  1  0
  4  2  1  0
  4  3  1  0
  4  5  1  0
  5  6  1  0
  6  7  1  0
  7  8  1  0
  8  9  1  0
  9 10  1  0
 10 11  1  0
 11 12  1  0
 11 13  1  0
 13 14  1  0
 14 15  1  0
 15 16  1  0
 16 17  1  0
 17 18  1  0
 14 19  1  0
 18 19  1  0
 20 22  1  0
 22 23  1  0
 23 21  1  0
 23 24  1  0
 24 25  1  0
 25 26  1  0
 26 27  1  0
 27 28  1  0
 28 29  1  0
 29 30  1  0
 30 31  1  0
 30 32  1  0
 32 33  1  0
 33 34  1  0
 34 35  1  0
 35 36  1  0
 36 37  1  0
 33 38  1  0
 37 38  1  0
  1 39  1  0
  2 40  1  0
  3 41  1  1
  4 42  1  0
  5 43  1  0
  5 44  1  0
  6 45  1  0
  6 46  1  0
  7 47  1  0
  7 48  1  0
  8 49  1  0
  8 50  1  0
  9 51  1  0
  9 52  1  0
 10 53  1  0
 10 54  1  0
 11 55  1  0
 12 56  1  0
 13 57  1  0
 14 58  1  0
 15 59  1  0
 15 60  1  0
 16 61  1  0
 16 62  1  0
 17 63  1  0
 17 64  1  0
 18 65  1  0
 18 66  1  0
 19 67  1  0
 19 68  1  0
 20 69  1  0
 21 70  1  0
 22 71  1  0
 23 72  1  0
 24 73  1  0
 24 74  1  0
 25 75  1  0
 25 76  1  0
 26 77  1  0
 26 78  1  0
 27 79  1  0
 27 80  1  0
 28 81  1  0
 28 82  1  0
 29 83  1  0
 29 84  1  0
 30 85  1  0
 31 86  1  0
 32 87  1  0
 33 88  1  0
 34 89  1  0
 34 90  1  0
 35 91  1  0
 35 92  1  0
 36 93  1  0
 36 94  1  0
 37 95  1  0
 37 96  1  0
 38 97  1  0
 38 98  1  0
M  END
>  <PDBID>  (1) 
4QA0

>  <PDB ID>  (1) 
4QA0

>  <Generic Name>  (1) 
Vorinostat

>  <Brand Name>  (1) 
Zolinza

>  <DrugBank ID>  (1) 
DB02546

>  <ATC Codes>  (1) 
L01XX38

>  <Ligand ID>  (1) 
SHH

>  <Target Name>  (1) 
Histone deacetylase 1

>  <UniProt ID>  (1) 
Q13547

>  <PDB ID.1>  (1) 
4QA0

>  <Seq. Identity>  (1) 
43%

$$$$
