PDB_DB01764_98
     RDKit          3D

 98100  0  0  0  0  0  0  0  0999 V2000
   32.8920   33.0040   25.0120 O   0  0  0  0  0  0  0  0  0  0  0  0
   34.1000   32.6820   24.3160 C   0  0  0  0  0  0  0  0  0  0  0  0
   33.8670   32.3160   22.8160 N   0  0  0  0  0  0  0  0  0  0  0  0
   35.2350   31.9530   22.4400 C   0  0  0  0  0  0  0  0  0  0  0  0
   35.8090   33.2370   21.8320 C   0  0  0  0  0  0  0  0  0  0  0  0
   34.6180   34.1430   21.5810 C   0  0  1  0  0  0  0  0  0  0  0  0
   34.7940   34.8790   19.9740 S   0  0  0  0  0  0  0  0  0  0  0  0
   35.1260   33.5960   18.8100 O   0  0  0  0  0  0  0  0  0  0  0  0
   33.3270   35.7530   19.5420 O   0  0  0  0  0  0  0  0  0  0  0  0
   36.1680   36.0220   20.0490 C   0  0  0  0  0  0  0  0  0  0  0  0
   37.4830   35.2630   19.9100 C   0  0  0  0  0  0  0  0  0  0  0  0
   38.0230   35.7490   18.6510 N   0  0  0  0  0  0  0  0  0  0  0  0
   39.3110   36.4340   18.6250 C   0  0  0  0  0  0  0  0  0  0  0  0
   40.4430   35.4280   18.6820 C   0  0  0  0  0  0  0  0  0  0  0  0
   37.2470   35.5590   17.4310 C   0  0  0  0  0  0  0  0  0  0  0  0
   38.1510   35.3020   16.2450 C   0  0  0  0  0  0  0  0  0  0  0  0
   33.5310   33.0960   21.6040 C   0  0  2  0  0  0  0  0  0  0  0  0
   35.4630   32.5810   24.6970 C   0  0  0  0  0  0  0  0  0  0  0  0
   36.7860   32.3930   23.9390 C   0  0  0  0  0  0  0  0  0  0  0  0
   37.7170   31.8600   24.9030 O   0  0  0  0  0  0  0  0  0  0  0  0
   35.5940   32.0740   26.0120 N   0  0  0  0  0  0  0  0  0  0  0  0
   36.9690   31.7010   26.1090 C   0  0  0  0  0  0  0  0  0  0  0  0
   37.3920   31.1580   27.4460 C   0  0  0  0  0  0  0  0  0  0  0  0
   35.9870   30.8000   27.9320 C   0  0  0  0  0  0  0  0  0  0  0  0
   35.0680   31.8740   28.1620 O   0  0  0  0  0  0  0  0  0  0  0  0
   35.4890   29.3680   28.1130 C   0  0  0  0  0  0  0  0  0  0  0  0
   33.9620   29.3620   28.2220 C   0  0  2  0  0  0  0  0  0  0  0  0
   33.5120   28.1800   28.8940 O   0  0  0  0  0  0  0  0  0  0  0  0
   33.3710   29.3930   26.8200 C   0  0  0  0  0  0  0  0  0  0  0  0
   31.9110   29.8310   26.7590 C   0  0  0  0  0  0  0  0  0  0  0  0
   31.1240   30.1810   28.0180 C   0  0  0  0  0  0  0  0  0  0  0  0
   31.1900   29.4940   25.4640 C   0  0  0  0  0  0  0  0  0  0  0  0
   29.6910   29.7340   25.5090 C   0  0  0  0  0  0  0  0  0  0  0  0
   29.1800   29.3650   24.1290 C   0  0  0  0  0  0  0  0  0  0  0  0
   29.9850   30.1270   23.2030 N   0  0  0  0  0  0  0  0  0  0  0  0
   29.5010   30.4770   21.8920 C   0  0  0  0  0  0  0  0  0  0  0  0
   28.2220   29.9750   21.5030 O   0  0  0  0  0  0  0  0  0  0  0  0
   30.5250   30.7240   20.8070 C   0  0  0  0  0  0  0  0  0  0  0  0
   29.8880   31.5690   19.7210 C   0  0  0  0  0  0  0  0  0  0  0  0
   30.9380   31.8030   18.6460 C   0  0  1  0  0  0  0  0  0  0  0  0
   30.2410   31.7410   17.2880 C   0  0  0  0  0  0  0  0  0  0  0  0
   31.8510   33.0370   18.8480 C   0  0  1  0  0  0  0  0  0  0  0  0
   31.7420   34.0310   17.6830 C   0  0  0  0  0  0  0  0  0  0  0  0
   32.7680   33.7980   16.5750 C   0  0  0  0  0  0  0  0  0  0  0  0
   30.3260   34.1500   17.1200 C   0  0  0  0  0  0  0  0  0  0  0  0
   31.5970   33.8420   20.0170 O   0  0  0  0  0  0  0  0  0  0  0  0
   32.0650   33.4690   21.3300 C   0  0  0  0  0  0  0  0  0  0  0  0
   31.1020   33.4330   22.3880 O   0  0  0  0  0  0  0  0  0  0  0  0
   35.8144   31.6464   23.3233 H   0  0  0  0  0  0  0  0  0  0  0  0
   35.2696   31.1034   21.7421 H   0  0  0  0  0  0  0  0  0  0  0  0
   36.5110   33.7123   22.5329 H   0  0  0  0  0  0  0  0  0  0  0  0
   36.3653   33.0330   20.9052 H   0  0  0  0  0  0  0  0  0  0  0  0
   34.4611   34.9824   22.2744 H   0  0  0  0  0  0  0  0  0  0  0  0
   36.0801   36.7521   19.2309 H   0  0  0  0  0  0  0  0  0  0  0  0
   36.1520   36.5443   21.0170 H   0  0  0  0  0  0  0  0  0  0  0  0
   38.1611   35.4950   20.7445 H   0  0  0  0  0  0  0  0  0  0  0  0
   37.3516   34.1710   19.9271 H   0  0  0  0  0  0  0  0  0  0  0  0
   39.3921   37.0193   17.6972 H   0  0  0  0  0  0  0  0  0  0  0  0
   39.3798   37.0999   19.4978 H   0  0  0  0  0  0  0  0  0  0  0  0
   40.6877   35.2105   19.7321 H   0  0  0  0  0  0  0  0  0  0  0  0
   40.1348   34.5003   18.1776 H   0  0  0  0  0  0  0  0  0  0  0  0
   41.3281   35.8430   18.1776 H   0  0  0  0  0  0  0  0  0  0  0  0
   36.5745   34.6986   17.5633 H   0  0  0  0  0  0  0  0  0  0  0  0
   36.6694   36.4750   17.2381 H   0  0  0  0  0  0  0  0  0  0  0  0
   39.1519   35.0175   16.6017 H   0  0  0  0  0  0  0  0  0  0  0  0
   37.7335   34.4870   15.6356 H   0  0  0  0  0  0  0  0  0  0  0  0
   38.2247   36.2148   15.6356 H   0  0  0  0  0  0  0  0  0  0  0  0
   33.5404   32.4938   20.6835 H   0  0  0  0  0  0  0  0  0  0  0  0
   36.9825   32.6182   22.8804 H   0  0  0  0  0  0  0  0  0  0  0  0
   38.0472   30.2788   27.3585 H   0  0  0  0  0  0  0  0  0  0  0  0
   37.9889   31.8219   28.0887 H   0  0  0  0  0  0  0  0  0  0  0  0
   35.7961   28.7621   27.2478 H   0  0  0  0  0  0  0  0  0  0  0  0
   35.9212   28.9457   29.0322 H   0  0  0  0  0  0  0  0  0  0  0  0
   33.6380   30.2421   28.7969 H   0  0  0  0  0  0  0  0  0  0  0  0
   33.5641   28.3169   29.8731 H   0  0  0  0  0  0  0  0  0  0  0  0
   33.9490   29.1219   25.9242 H   0  0  0  0  0  0  0  0  0  0  0  0
   31.7169   29.9173   28.9062 H   0  0  0  0  0  0  0  0  0  0  0  0
   30.9087   31.2597   28.0278 H   0  0  0  0  0  0  0  0  0  0  0  0
   30.1788   29.6184   28.0278 H   0  0  0  0  0  0  0  0  0  0  0  0
   31.7082   29.1102   24.5729 H   0  0  0  0  0  0  0  0  0  0  0  0
   29.1003   30.0985   26.3623 H   0  0  0  0  0  0  0  0  0  0  0  0
   29.3035   28.2869   23.9489 H   0  0  0  0  0  0  0  0  0  0  0  0
   28.1086   29.5878   24.0175 H   0  0  0  0  0  0  0  0  0  0  0  0
   30.9284   30.4276   23.4870 H   0  0  0  0  0  0  0  0  0  0  0  0
   31.5603   30.3523   20.8058 H   0  0  0  0  0  0  0  0  0  0  0  0
   28.8541   31.9446   19.7123 H   0  0  0  0  0  0  0  0  0  0  0  0
   31.6832   30.9968   18.7150 H   0  0  0  0  0  0  0  0  0  0  0  0
   29.1554   31.6444   17.4371 H   0  0  0  0  0  0  0  0  0  0  0  0
   30.4533   32.6616   16.7245 H   0  0  0  0  0  0  0  0  0  0  0  0
   30.6124   30.8723   16.7245 H   0  0  0  0  0  0  0  0  0  0  0  0
   32.8359   32.5560   18.9404 H   0  0  0  0  0  0  0  0  0  0  0  0
   31.9897   35.0034   18.1337 H   0  0  0  0  0  0  0  0  0  0  0  0
   33.7476   33.5755   17.0232 H   0  0  0  0  0  0  0  0  0  0  0  0
   32.4486   32.9495   15.9520 H   0  0  0  0  0  0  0  0  0  0  0  0
   32.8464   34.7012   15.9520 H   0  0  0  0  0  0  0  0  0  0  0  0
   29.6056   34.2105   17.9491 H   0  0  0  0  0  0  0  0  0  0  0  0
   30.2519   35.0575   16.5029 H   0  0  0  0  0  0  0  0  0  0  0  0
   30.1014   33.2676   16.5029 H   0  0  0  0  0  0  0  0  0  0  0  0
  1  2  2  0
  2  3  1  0
  3  4  1  0
  4  5  1  0
  5  6  1  0
  6  7  1  0
  7  8  2  0
  7  9  2  0
  7 10  1  0
 10 11  1  0
 11 12  1  0
 12 13  1  0
 13 14  1  0
 12 15  1  0
 15 16  1  0
  3 17  1  0
  6 17  1  0
  2 18  1  0
 18 19  2  0
 19 20  1  0
 18 21  1  0
 20 22  1  0
 21 22  2  0
 22 23  1  0
 23 24  1  0
 24 25  2  0
 24 26  1  0
 26 27  1  0
 27 28  1  0
 27 29  1  0
 29 30  2  0
 30 31  1  0
 30 32  1  0
 32 33  2  0
 33 34  1  0
 34 35  1  0
 35 36  1  0
 36 37  2  0
 36 38  1  0
 38 39  2  0
 39 40  1  0
 40 41  1  0
 40 42  1  0
 42 43  1  0
 43 44  1  0
 43 45  1  0
 42 46  1  0
 17 47  1  0
 46 47  1  0
 47 48  2  0
  4 49  1  0
  4 50  1  0
  5 51  1  0
  5 52  1  0
  6 53  1  1
 10 54  1  0
 10 55  1  0
 11 56  1  0
 11 57  1  0
 13 58  1  0
 13 59  1  0
 14 60  1  0
 14 61  1  0
 14 62  1  0
 15 63  1  0
 15 64  1  0
 16 65  1  0
 16 66  1  0
 16 67  1  0
 17 68  1  6
 19 69  1  0
 23 70  1  0
 23 71  1  0
 26 72  1  0
 26 73  1  0
 27 74  1  1
 28 75  1  0
 29 76  1  0
 31 77  1  0
 31 78  1  0
 31 79  1  0
 32 80  1  0
 33 81  1  0
 34 82  1  0
 34 83  1  0
 35 84  1  0
 38 85  1  0
 39 86  1  0
 40 87  1  6
 41 88  1  0
 41 89  1  0
 41 90  1  0
 42 91  1  1
 43 92  1  0
 44 93  1  0
 44 94  1  0
 44 95  1  0
 45 96  1  0
 45 97  1  0
 45 98  1  0
M  END
$$$$
