PDB_DB00814_98
     RDKit          3D

 36 38  0  0  0  0  0  0  0  0999 V2000
    7.1000   48.3110   77.5410 C   0  0  0  0  0  0  0  0  0  0  0  0
    7.4810   49.3430   76.4870 C   0  0  0  0  0  0  0  0  0  0  0  0
    6.7440   49.6130   75.0160 S   0  0  0  0  0  0  0  0  0  0  0  0
    8.4990   50.1770   76.6390 C   0  0  0  0  0  0  0  0  0  0  0  0
    8.6550   50.9900   75.5930 N   0  0  0  0  0  0  0  0  0  0  0  0
    7.7480   50.8980   74.6130 C   0  0  0  0  0  0  0  0  0  0  0  0
    7.8410   51.5770   73.4540 N   0  0  0  0  0  0  0  0  0  0  0  0
    8.7440   52.5940   73.3900 C   0  0  0  0  0  0  0  0  0  0  0  0
    9.5490   52.8320   74.2880 O   0  0  0  0  0  0  0  0  0  0  0  0
    8.8710   53.3260   72.1980 C   0  0  0  0  0  0  0  0  0  0  0  0
    7.9310   53.2420   71.1150 C   0  0  0  0  0  0  0  0  0  0  0  0
    7.0170   52.2340   71.1540 O   0  0  0  0  0  0  0  0  0  0  0  0
    8.0170   53.9710   69.9040 C   0  0  0  0  0  0  0  0  0  0  0  0
    6.9250   54.1840   69.0660 C   0  0  0  0  0  0  0  0  0  0  0  0
    7.0710   55.0390   67.9720 C   0  0  0  0  0  0  0  0  0  0  0  0
    8.2580   55.7380   67.7650 C   0  0  0  0  0  0  0  0  0  0  0  0
    9.3160   55.5850   68.6510 C   0  0  0  0  0  0  0  0  0  0  0  0
    9.0910   54.8130   69.7770 C   0  0  0  0  0  0  0  0  0  0  0  0
   10.1770   54.4010   70.7530 S   0  0  0  0  0  0  0  0  0  0  0  0
   11.3010   55.4350   70.6340 O   0  0  0  0  0  0  0  0  0  0  0  0
   10.7690   53.0390   70.3550 O   0  0  0  0  0  0  0  0  0  0  0  0
    9.7450   54.4010   72.1930 N   0  0  0  0  0  0  0  0  0  0  0  0
    9.2510   55.4260   73.1450 C   0  0  0  0  0  0  0  0  0  0  0  0
    7.2568   48.7357   78.5435 H   0  0  0  0  0  0  0  0  0  0  0  0
    6.0415   48.0371   77.4202 H   0  0  0  0  0  0  0  0  0  0  0  0
    7.7266   47.4150   77.4202 H   0  0  0  0  0  0  0  0  0  0  0  0
    9.1444   50.1969   77.5295 H   0  0  0  0  0  0  0  0  0  0  0  0
    7.2505   51.3358   72.6453 H   0  0  0  0  0  0  0  0  0  0  0  0
    6.3515   52.1408   70.4270 H   0  0  0  0  0  0  0  0  0  0  0  0
    5.9637   53.6869   69.2629 H   0  0  0  0  0  0  0  0  0  0  0  0
    6.2379   55.1623   67.2643 H   0  0  0  0  0  0  0  0  0  0  0  0
    8.3571   56.4107   66.9003 H   0  0  0  0  0  0  0  0  0  0  0  0
   10.2919   56.0576   68.4656 H   0  0  0  0  0  0  0  0  0  0  0  0
    9.4178   55.0798   74.1757 H   0  0  0  0  0  0  0  0  0  0  0  0
    9.7935   56.3690   72.9826 H   0  0  0  0  0  0  0  0  0  0  0  0
    8.1754   55.5891   72.9826 H   0  0  0  0  0  0  0  0  0  0  0  0
  1  2  1  0
  2  3  1  0
  2  4  2  0
  4  5  1  0
  3  6  1  0
  5  6  2  0
  6  7  1  0
  7  8  1  0
  8  9  2  0
  8 10  1  0
 10 11  2  0
 11 12  1  0
 11 13  1  0
 13 14  2  0
 14 15  1  0
 15 16  2  0
 16 17  1  0
 13 18  1  0
 17 18  2  0
 18 19  1  0
 19 20  2  0
 19 21  2  0
 10 22  1  0
 19 22  1  0
 22 23  1  0
  1 24  1  0
  1 25  1  0
  1 26  1  0
  4 27  1  0
  7 28  1  0
 12 29  1  0
 14 30  1  0
 15 31  1  0
 16 32  1  0
 17 33  1  0
 23 34  1  0
 23 35  1  0
 23 36  1  0
M  END
$$$$
