PDB_DB00819_85
     RDKit          3D

 19 19  0  0  0  0  0  0  0  0999 V2000
   33.8190   59.3640   18.1560 C   0  0  0  0  0  0  0  0  0  0  0  0
   35.4080   60.0500   19.7330 C   0  0  0  0  0  0  0  0  0  0  0  0
   36.0940   61.9150   21.1990 C   0  0  0  0  0  0  0  0  0  0  0  0
   37.3070   62.4470   21.8940 C   0  0  0  0  0  0  0  0  0  0  0  0
   33.0630   59.1140   15.5560 N   0  0  0  0  0  0  0  0  0  0  0  0
   35.6360   58.8370   19.2900 N   0  0  0  0  0  0  0  0  0  0  0  0
   34.6980   58.4400   18.3630 N   0  0  0  0  0  0  0  0  0  0  0  0
   36.2400   60.6350   20.6680 N   0  0  0  0  0  0  0  0  0  0  0  0
   31.9450   57.8730   17.3260 O   0  0  0  0  0  0  0  0  0  0  0  0
   31.6640   60.3250   17.1420 O   0  0  0  0  0  0  0  0  0  0  0  0
   35.0410   62.5320   21.0950 O   0  0  0  0  0  0  0  0  0  0  0  0
   32.4740   59.1560   17.0090 S   0  0  0  0  0  0  0  0  0  0  0  0
   34.0170   60.8120   19.0530 S   0  0  0  0  0  0  0  0  0  0  0  0
   37.1630   62.3839   22.9827 H   0  0  0  0  0  0  0  0  0  0  0  0
   38.1857   61.8517   21.6052 H   0  0  0  0  0  0  0  0  0  0  0  0
   37.4643   63.4967   21.6052 H   0  0  0  0  0  0  0  0  0  0  0  0
   34.0893   59.0408   15.6035 H   0  0  0  0  0  0  0  0  0  0  0  0
   32.6834   58.2979   15.0551 H   0  0  0  0  0  0  0  0  0  0  0  0
   37.0381   60.0760   21.0018 H   0  0  0  0  0  0  0  0  0  0  0  0
  3  4  1  0
  2  6  2  0
  1  7  2  0
  6  7  1  0
  2  8  1  0
  3  8  1  0
  3 11  2  0
  1 12  1  0
  5 12  1  0
  9 12  2  0
 10 12  2  0
  1 13  1  0
  2 13  1  0
  4 14  1  0
  4 15  1  0
  4 16  1  0
  5 17  1  0
  5 18  1  0
  8 19  1  0
M  END
$$$$
