PDB_DB00523_92
     RDKit          3D

248248  0  0  0  0  0  0  0  0999 V2000
   29.3870  -18.8020   32.7750 C   0  0  2  0  0  0  0  0  0  0  0  0
   29.9150  -20.3050   33.0840 C   0  0  0  0  0  0  0  0  0  0  0  0
   29.6890  -21.4290   31.9640 C   0  0  0  0  0  0  0  0  0  0  0  0
   28.5530  -21.2040   31.1830 C   0  0  0  0  0  0  0  0  0  0  0  0
   28.2960  -19.9440   30.6120 C   0  0  0  0  0  0  0  0  0  0  0  0
   28.6520  -18.6490   31.2850 C   0  0  0  0  0  0  0  0  0  0  0  0
   28.4270  -17.3360   30.7610 C   0  0  0  0  0  0  0  0  0  0  0  0
   28.7950  -16.6560   29.6160 C   0  0  0  0  0  0  0  0  0  0  0  0
   28.4600  -15.4020   29.1060 C   0  0  0  0  0  0  0  0  0  0  0  0
   28.9780  -14.9690   27.8860 C   0  0  0  0  0  0  0  0  0  0  0  0
   29.8400  -15.7540   27.1290 C   0  0  0  0  0  0  0  0  0  0  0  0
   30.3480  -15.3420   25.9270 C   0  0  0  0  0  0  0  0  0  0  0  0
   31.2340  -16.1180   25.0830 C   0  0  0  0  0  0  0  0  0  0  0  0
   31.3120  -15.6070   23.7740 C   0  0  0  0  0  0  0  0  0  0  0  0
   32.1080  -16.1010   22.5530 C   0  0  0  0  0  0  0  0  0  0  0  0
   30.7570  -17.9970   32.6880 C   0  0  0  0  0  0  0  0  0  0  0  0
   28.6610  -18.1910   34.0220 C   0  0  0  0  0  0  0  0  0  0  0  0
   27.6250  -20.1140   29.2470 C   0  0  0  0  0  0  0  0  0  0  0  0
   27.4770  -14.3670   29.8110 C   0  0  0  0  0  0  0  0  0  0  0  0
   32.0080  -17.3780   25.5420 C   0  0  0  0  0  0  0  0  0  0  0  0
   31.6630  -16.0160   21.4330 O   0  0  0  0  0  0  0  0  0  0  0  0
   33.2600  -16.6180   22.7820 O   0  0  0  0  0  0  0  0  0  0  0  0
    2.4100  -20.4660  -31.0250 C   0  0  2  0  0  0  0  0  0  0  0  0
    1.6640  -21.8330  -31.4820 C   0  0  0  0  0  0  0  0  0  0  0  0
    1.8690  -23.1370  -30.5770 C   0  0  0  0  0  0  0  0  0  0  0  0
    3.1060  -23.1600  -29.9220 C   0  0  0  0  0  0  0  0  0  0  0  0
    3.5790  -22.0440  -29.2030 C   0  0  0  0  0  0  0  0  0  0  0  0
    3.3160  -20.6280  -29.6300 C   0  0  0  0  0  0  0  0  0  0  0  0
    3.7540  -19.4480  -28.9540 C   0  0  0  0  0  0  0  0  0  0  0  0
    3.6050  -18.9360  -27.6840 C   0  0  0  0  0  0  0  0  0  0  0  0
    4.1510  -17.8320  -27.0370 C   0  0  0  0  0  0  0  0  0  0  0  0
    3.8290  -17.5530  -25.7050 C   0  0  0  0  0  0  0  0  0  0  0  0
    2.9620  -18.3540  -24.9660 C   0  0  0  0  0  0  0  0  0  0  0  0
    2.6450  -18.0930  -23.6620 C   0  0  0  0  0  0  0  0  0  0  0  0
    1.7620  -18.8980  -22.8290 C   0  0  0  0  0  0  0  0  0  0  0  0
    1.8930  -18.5910  -21.4600 C   0  0  0  0  0  0  0  0  0  0  0  0
    1.1950  -19.1820  -20.2230 C   0  0  0  0  0  0  0  0  0  0  0  0
    1.1660  -19.5460  -30.6520 C   0  0  0  0  0  0  0  0  0  0  0  0
    3.0740  -19.7490  -32.2500 C   0  0  0  0  0  0  0  0  0  0  0  0
    4.3690  -22.5070  -27.9710 C   0  0  0  0  0  0  0  0  0  0  0  0
    5.1710  -16.8090  -27.6980 C   0  0  0  0  0  0  0  0  0  0  0  0
    0.7960  -19.9890  -23.3570 C   0  0  0  0  0  0  0  0  0  0  0  0
    1.7730  -19.2890  -19.1660 O   0  0  0  0  0  0  0  0  0  0  0  0
   -0.0270  -19.5640  -20.3660 O   0  0  0  0  0  0  0  0  0  0  0  0
  -24.1600   20.4390   30.7370 C   0  0  2  0  0  0  0  0  0  0  0  0
  -24.8860   21.8090   31.2260 C   0  0  0  0  0  0  0  0  0  0  0  0
  -24.6750   23.1340   30.3470 C   0  0  0  0  0  0  0  0  0  0  0  0
  -23.4520   23.1540   29.6610 C   0  0  0  0  0  0  0  0  0  0  0  0
  -23.0000   22.0410   28.9160 C   0  0  0  0  0  0  0  0  0  0  0  0
  -23.2710   20.6150   29.3280 C   0  0  0  0  0  0  0  0  0  0  0  0
  -22.8500   19.4380   28.6330 C   0  0  0  0  0  0  0  0  0  0  0  0
  -23.0160   18.9400   27.3630 C   0  0  0  0  0  0  0  0  0  0  0  0
  -22.4900   17.8350   26.6980 C   0  0  0  0  0  0  0  0  0  0  0  0
  -22.8270   17.5760   25.3620 C   0  0  0  0  0  0  0  0  0  0  0  0
  -23.6910   18.3960   24.6370 C   0  0  0  0  0  0  0  0  0  0  0  0
  -24.0200   18.1540   23.3320 C   0  0  0  0  0  0  0  0  0  0  0  0
  -24.8970   18.9800   22.5160 C   0  0  0  0  0  0  0  0  0  0  0  0
  -24.7870   18.6860   21.1450 C   0  0  0  0  0  0  0  0  0  0  0  0
  -25.5010   19.2990   19.9280 C   0  0  0  0  0  0  0  0  0  0  0  0
  -25.4200   19.5380   30.3700 C   0  0  0  0  0  0  0  0  0  0  0  0
  -23.4840   19.6950   31.9460 C   0  0  0  0  0  0  0  0  0  0  0  0
  -22.2240   22.5170   27.6820 C   0  0  0  0  0  0  0  0  0  0  0  0
  -21.4770   16.7910   27.3380 C   0  0  0  0  0  0  0  0  0  0  0  0
  -25.8500   20.0760   23.0630 C   0  0  0  0  0  0  0  0  0  0  0  0
  -24.9310   19.4480   18.8750 O   0  0  0  0  0  0  0  0  0  0  0  0
  -26.7310   19.6450   20.0830 O   0  0  0  0  0  0  0  0  0  0  0  0
  -12.2410   18.8060  -33.1750 C   0  0  2  0  0  0  0  0  0  0  0  0
  -11.7190   20.3130  -33.4830 C   0  0  0  0  0  0  0  0  0  0  0  0
  -11.9380   21.4310  -32.3530 C   0  0  0  0  0  0  0  0  0  0  0  0
  -13.0680   21.2000  -31.5670 C   0  0  0  0  0  0  0  0  0  0  0  0
  -13.3200   19.9380  -30.9940 C   0  0  0  0  0  0  0  0  0  0  0  0
  -12.9640   18.6450  -31.6730 C   0  0  0  0  0  0  0  0  0  0  0  0
  -13.1810   17.3290  -31.1500 C   0  0  0  0  0  0  0  0  0  0  0  0
  -12.8100   16.6470  -30.0010 C   0  0  0  0  0  0  0  0  0  0  0  0
  -13.1480   15.3940  -29.4850 C   0  0  0  0  0  0  0  0  0  0  0  0
  -12.6320   14.9670  -28.2620 C   0  0  0  0  0  0  0  0  0  0  0  0
  -11.7720   15.7570  -27.5090 C   0  0  0  0  0  0  0  0  0  0  0  0
  -11.2630   15.3530  -26.3050 C   0  0  0  0  0  0  0  0  0  0  0  0
  -10.3780   16.1400  -25.4650 C   0  0  0  0  0  0  0  0  0  0  0  0
  -10.2840   15.6290  -24.1580 C   0  0  0  0  0  0  0  0  0  0  0  0
   -9.4880   16.1360  -22.9420 C   0  0  0  0  0  0  0  0  0  0  0  0
  -10.8610   18.0080  -33.1100 C   0  0  0  0  0  0  0  0  0  0  0  0
  -12.9850   18.1950  -34.4140 C   0  0  0  0  0  0  0  0  0  0  0  0
  -13.9870   20.1040  -29.6250 C   0  0  0  0  0  0  0  0  0  0  0  0
  -14.1330   14.3570  -30.1850 C   0  0  0  0  0  0  0  0  0  0  0  0
   -9.6240   17.4160  -25.9260 C   0  0  0  0  0  0  0  0  0  0  0  0
   -9.9300   16.0490  -21.8210 O   0  0  0  0  0  0  0  0  0  0  0  0
   -8.3350   16.6600  -23.1750 O   0  0  0  0  0  0  0  0  0  0  0  0
   30.9976  -20.2397   33.2676 H   0  0  0  0  0  0  0  0  0  0  0  0
   29.3046  -20.6401   33.9355 H   0  0  0  0  0  0  0  0  0  0  0  0
   30.5691  -21.4479   31.3044 H   0  0  0  0  0  0  0  0  0  0  0  0
   29.5441  -22.3868   32.4852 H   0  0  0  0  0  0  0  0  0  0  0  0
   28.6020  -21.9195   30.3489 H   0  0  0  0  0  0  0  0  0  0  0  0
   27.7372  -21.3055   31.9139 H   0  0  0  0  0  0  0  0  0  0  0  0
   27.3092  -19.9252   31.0977 H   0  0  0  0  0  0  0  0  0  0  0  0
   29.6377  -18.6664   30.7970 H   0  0  0  0  0  0  0  0  0  0  0  0
   27.3292  -17.2715   30.7368 H   0  0  0  0  0  0  0  0  0  0  0  0
   29.1828  -16.8540   31.3986 H   0  0  0  0  0  0  0  0  0  0  0  0
   29.8920  -16.6160   29.6866 H   0  0  0  0  0  0  0  0  0  0  0  0
   28.1568  -17.2326   28.9303 H   0  0  0  0  0  0  0  0  0  0  0  0
   29.3209  -14.9595   29.6286 H   0  0  0  0  0  0  0  0  0  0  0  0
   28.1117  -14.7555   27.2426 H   0  0  0  0  0  0  0  0  0  0  0  0
   29.6330  -14.1411   28.1953 H   0  0  0  0  0  0  0  0  0  0  0  0
   30.7080  -15.9612   27.7721 H   0  0  0  0  0  0  0  0  0  0  0  0
   29.1812  -16.5801   26.8231 H   0  0  0  0  0  0  0  0  0  0  0  0
   29.4716  -15.1170   25.3014 H   0  0  0  0  0  0  0  0  0  0  0  0
   31.0394  -14.5565   26.2660 H   0  0  0  0  0  0  0  0  0  0  0  0
   30.3897  -16.7563   24.7835 H   0  0  0  0  0  0  0  0  0  0  0  0
   30.2681  -15.6043   23.4272 H   0  0  0  0  0  0  0  0  0  0  0  0
   31.9376  -14.7317   24.0032 H   0  0  0  0  0  0  0  0  0  0  0  0
   31.6521  -17.0965   22.6586 H   0  0  0  0  0  0  0  0  0  0  0  0
   31.1215  -17.7828   33.7035 H   0  0  0  0  0  0  0  0  0  0  0  0
   31.5032  -18.6002   32.1502 H   0  0  0  0  0  0  0  0  0  0  0  0
   30.5932  -17.0515   32.1502 H   0  0  0  0  0  0  0  0  0  0  0  0
   29.1226  -18.5795   34.9418 H   0  0  0  0  0  0  0  0  0  0  0  0
   28.7537  -17.0951   33.9998 H   0  0  0  0  0  0  0  0  0  0  0  0
   27.5971  -18.4695   33.9998 H   0  0  0  0  0  0  0  0  0  0  0  0
   26.5676  -20.3819   29.3890 H   0  0  0  0  0  0  0  0  0  0  0  0
   27.6920  -19.1705   28.6855 H   0  0  0  0  0  0  0  0  0  0  0  0
   28.1331  -20.9118   28.6855 H   0  0  0  0  0  0  0  0  0  0  0  0
   27.5669  -14.4616   30.9032 H   0  0  0  0  0  0  0  0  0  0  0  0
   27.7437  -13.3436   29.5084 H   0  0  0  0  0  0  0  0  0  0  0  0
   26.4412  -14.5806   29.5084 H   0  0  0  0  0  0  0  0  0  0  0  0
   32.0304  -17.4144   26.6412 H   0  0  0  0  0  0  0  0  0  0  0  0
   31.5065  -18.2775   25.1555 H   0  0  0  0  0  0  0  0  0  0  0  0
   33.0370  -17.3373   25.1555 H   0  0  0  0  0  0  0  0  0  0  0  0
   30.6915  -15.8304   21.4771 H   0  0  0  0  0  0  0  0  0  0  0  0
   33.4043  -16.6827   23.7593 H   0  0  0  0  0  0  0  0  0  0  0  0
    0.5848  -21.6224  -31.5133 H   0  0  0  0  0  0  0  0  0  0  0  0
    2.1272  -22.0908  -32.4459 H   0  0  0  0  0  0  0  0  0  0  0  0
    1.0712  -23.1673  -29.8203 H   0  0  0  0  0  0  0  0  0  0  0  0
    1.8347  -24.0099  -31.2455 H   0  0  0  0  0  0  0  0  0  0  0  0
    3.0630  -23.9946  -29.2067 H   0  0  0  0  0  0  0  0  0  0  0  0
    3.8163  -23.2200  -30.7598 H   0  0  0  0  0  0  0  0  0  0  0  0
    4.5036  -22.0520  -29.7989 H   0  0  0  0  0  0  0  0  0  0  0  0
    2.3940  -20.6183  -29.0301 H   0  0  0  0  0  0  0  0  0  0  0  0
    4.8470  -19.4950  -29.0691 H   0  0  0  0  0  0  0  0  0  0  0  0
    2.9933  -18.7949  -29.4065 H   0  0  0  0  0  0  0  0  0  0  0  0
    2.5211  -18.7658  -27.6048 H   0  0  0  0  0  0  0  0  0  0  0  0
    4.2353  -19.6857  -27.1834 H   0  0  0  0  0  0  0  0  0  0  0  0
    3.3026  -17.2167  -27.3710 H   0  0  0  0  0  0  0  0  0  0  0  0
    4.7815  -17.5435  -25.1549 H   0  0  0  0  0  0  0  0  0  0  0  0
    3.2527  -16.6209  -25.8003 H   0  0  0  0  0  0  0  0  0  0  0  0
    2.0092  -18.3590  -25.5157 H   0  0  0  0  0  0  0  0  0  0  0  0
    3.5425  -19.2837  -24.8725 H   0  0  0  0  0  0  0  0  0  0  0  0
    3.6065  -18.0690  -23.1282 H   0  0  0  0  0  0  0  0  0  0  0  0
    2.0231  -17.1948  -23.7907 H   0  0  0  0  0  0  0  0  0  0  0  0
    2.5483  -19.6612  -22.7331 H   0  0  0  0  0  0  0  0  0  0  0  0
    2.9633  -18.7435  -21.2568 H   0  0  0  0  0  0  0  0  0  0  0  0
    1.3444  -17.6378  -21.4822 H   0  0  0  0  0  0  0  0  0  0  0  0
    1.5357  -20.1874  -20.5111 H   0  0  0  0  0  0  0  0  0  0  0  0
    1.0748  -19.4786  -29.5579 H   0  0  0  0  0  0  0  0  0  0  0  0
    1.3157  -18.5397  -31.0702 H   0  0  0  0  0  0  0  0  0  0  0  0
    0.2476  -19.9839  -31.0702 H   0  0  0  0  0  0  0  0  0  0  0  0
    3.7802  -18.9864  -31.8899 H   0  0  0  0  0  0  0  0  0  0  0  0
    3.6129  -20.4889  -32.8600 H   0  0  0  0  0  0  0  0  0  0  0  0
    2.2950  -19.2684  -32.8600 H   0  0  0  0  0  0  0  0  0  0  0  0
    3.8396  -22.1967  -27.0581 H   0  0  0  0  0  0  0  0  0  0  0  0
    4.4626  -23.6029  -27.9860 H   0  0  0  0  0  0  0  0  0  0  0  0
    5.3709  -22.0532  -27.9860 H   0  0  0  0  0  0  0  0  0  0  0  0
    5.7111  -16.2673  -26.9075 H   0  0  0  0  0  0  0  0  0  0  0  0
    5.8901  -17.3598  -28.3221 H   0  0  0  0  0  0  0  0  0  0  0  0
    4.6181  -16.0915  -28.3221 H   0  0  0  0  0  0  0  0  0  0  0  0
    0.3333  -20.5116  -22.5069 H   0  0  0  0  0  0  0  0  0  0  0  0
    0.0121  -19.5195  -23.9694 H   0  0  0  0  0  0  0  0  0  0  0  0
    1.3570  -20.7102  -23.9694 H   0  0  0  0  0  0  0  0  0  0  0  0
    1.1286  -19.1697  -18.4240 H   0  0  0  0  0  0  0  0  0  0  0  0
   -0.4389  -19.6928  -19.4750 H   0  0  0  0  0  0  0  0  0  0  0  0
  -25.9673   21.6102   31.2619 H   0  0  0  0  0  0  0  0  0  0  0  0
  -24.4082   22.0419   32.1891 H   0  0  0  0  0  0  0  0  0  0  0  0
  -25.4897   23.1983   29.6107 H   0  0  0  0  0  0  0  0  0  0  0  0
  -24.6749   23.9886   31.0396 H   0  0  0  0  0  0  0  0  0  0  0  0
  -23.5065   23.9967   28.9560 H   0  0  0  0  0  0  0  0  0  0  0  0
  -22.7228   23.1971   30.4834 H   0  0  0  0  0  0  0  0  0  0  0  0
  -22.0660   22.0314   29.4970 H   0  0  0  0  0  0  0  0  0  0  0  0
  -24.2017   20.6225   28.7417 H   0  0  0  0  0  0  0  0  0  0  0  0
  -21.7555   19.4757   28.7361 H   0  0  0  0  0  0  0  0  0  0  0  0
  -23.6125   18.7874   29.0861 H   0  0  0  0  0  0  0  0  0  0  0  0
  -24.1026   18.7837   27.2928 H   0  0  0  0  0  0  0  0  0  0  0  0
  -22.3792   19.6858   26.8647 H   0  0  0  0  0  0  0  0  0  0  0  0
  -23.3445   17.2277   27.0313 H   0  0  0  0  0  0  0  0  0  0  0  0
  -21.8788   17.5618   24.8045 H   0  0  0  0  0  0  0  0  0  0  0  0
  -23.4149   16.6506   25.4519 H   0  0  0  0  0  0  0  0  0  0  0  0
  -24.6399   18.4052   25.1933 H   0  0  0  0  0  0  0  0  0  0  0  0
  -23.1004   19.3199   24.5500 H   0  0  0  0  0  0  0  0  0  0  0  0
  -23.0626   18.1235   22.7912 H   0  0  0  0  0  0  0  0  0  0  0  0
  -24.6523   17.2622   23.4540 H   0  0  0  0  0  0  0  0  0  0  0  0
  -24.0993   19.7311   22.4189 H   0  0  0  0  0  0  0  0  0  0  0  0
  -23.7188   18.8327   20.9273 H   0  0  0  0  0  0  0  0  0  0  0  0
  -25.3379   17.7341   21.1633 H   0  0  0  0  0  0  0  0  0  0  0  0
  -25.1789   20.3021   20.2443 H   0  0  0  0  0  0  0  0  0  0  0  0
  -25.9047   19.1914   31.2946 H   0  0  0  0  0  0  0  0  0  0  0  0
  -26.1354   20.1306   29.7809 H   0  0  0  0  0  0  0  0  0  0  0  0
  -25.0906   18.6694   29.7809 H   0  0  0  0  0  0  0  0  0  0  0  0
  -23.8626   20.1117   32.8910 H   0  0  0  0  0  0  0  0  0  0  0  0
  -23.7230   18.6224   31.8964 H   0  0  0  0  0  0  0  0  0  0  0  0
  -22.3935   19.8304   31.8964 H   0  0  0  0  0  0  0  0  0  0  0  0
  -21.3271   23.0672   28.0026 H   0  0  0  0  0  0  0  0  0  0  0  0
  -21.9245   21.6470   27.0791 H   0  0  0  0  0  0  0  0  0  0  0  0
  -22.8638   23.1782   27.0791 H   0  0  0  0  0  0  0  0  0  0  0  0
  -21.5341   16.8499   28.4349 H   0  0  0  0  0  0  0  0  0  0  0  0
  -21.7424   15.7748   27.0110 H   0  0  0  0  0  0  0  0  0  0  0  0
  -20.4533   17.0257   27.0110 H   0  0  0  0  0  0  0  0  0  0  0  0
  -25.8353   20.0591   24.1628 H   0  0  0  0  0  0  0  0  0  0  0  0
  -25.5173   21.0622   22.7070 H   0  0  0  0  0  0  0  0  0  0  0  0
  -26.8728   19.8835   22.7070 H   0  0  0  0  0  0  0  0  0  0  0  0
  -23.9870   19.6948   19.0428 H   0  0  0  0  0  0  0  0  0  0  0  0
  -26.9382   19.7033   21.0493 H   0  0  0  0  0  0  0  0  0  0  0  0
  -10.6381   20.2516  -33.6774 H   0  0  0  0  0  0  0  0  0  0  0  0
  -12.3372   20.6509  -34.3277 H   0  0  0  0  0  0  0  0  0  0  0  0
  -11.0536   21.4460  -31.6991 H   0  0  0  0  0  0  0  0  0  0  0  0
  -12.0862   22.3924  -32.8666 H   0  0  0  0  0  0  0  0  0  0  0  0
  -13.0174   21.9152  -30.7328 H   0  0  0  0  0  0  0  0  0  0  0  0
  -13.8867   21.2970  -32.2952 H   0  0  0  0  0  0  0  0  0  0  0  0
  -14.3095   19.9176  -31.4740 H   0  0  0  0  0  0  0  0  0  0  0  0
  -11.9739   18.6661  -31.1942 H   0  0  0  0  0  0  0  0  0  0  0  0
  -14.2784   17.2570  -31.1284 H   0  0  0  0  0  0  0  0  0  0  0  0
  -12.4196   16.8536  -31.7858 H   0  0  0  0  0  0  0  0  0  0  0  0
  -11.7135   16.6022  -30.0763 H   0  0  0  0  0  0  0  0  0  0  0  0
  -13.4440   17.2274  -29.3146 H   0  0  0  0  0  0  0  0  0  0  0  0
  -12.2868   14.9479  -30.0041 H   0  0  0  0  0  0  0  0  0  0  0  0
  -13.4991   14.7565  -27.6187 H   0  0  0  0  0  0  0  0  0  0  0  0
  -11.9769   14.1370  -28.5652 H   0  0  0  0  0  0  0  0  0  0  0  0
  -10.9044   15.9626  -28.1532 H   0  0  0  0  0  0  0  0  0  0  0  0
  -12.4330   16.5828  -27.2070 H   0  0  0  0  0  0  0  0  0  0  0  0
  -12.1384   15.1285  -25.6779 H   0  0  0  0  0  0  0  0  0  0  0  0
  -10.5697   14.5668  -26.6385 H   0  0  0  0  0  0  0  0  0  0  0  0
  -11.2275   16.7680  -25.1584 H   0  0  0  0  0  0  0  0  0  0  0  0
  -11.3255   15.6089  -23.8046 H   0  0  0  0  0  0  0  0  0  0  0  0
   -9.6467   14.7634  -24.3915 H   0  0  0  0  0  0  0  0  0  0  0  0
   -9.9549   17.1262  -23.0492 H   0  0  0  0  0  0  0  0  0  0  0  0
  -10.5804   17.8458  -32.0588 H   0  0  0  0  0  0  0  0  0  0  0  0
  -10.9752   17.0365  -33.6132 H   0  0  0  0  0  0  0  0  0  0  0  0
  -10.0760   18.5915  -33.6132 H   0  0  0  0  0  0  0  0  0  0  0  0
  -13.7917   17.5325  -34.0672 H   0  0  0  0  0  0  0  0  0  0  0  0
  -13.4124   19.0062  -35.0217 H   0  0  0  0  0  0  0  0  0  0  0  0
  -12.2724   17.6180  -35.0217 H   0  0  0  0  0  0  0  0  0  0  0  0
  -13.2473   19.9199  -28.8320 H   0  0  0  0  0  0  0  0  0  0  0  0
  -14.3794   21.1272  -29.5300 H   0  0  0  0  0  0  0  0  0  0  0  0
  -14.8133   19.3841  -29.5300 H   0  0  0  0  0  0  0  0  0  0  0  0
  -14.6738   13.7877  -29.4147 H   0  0  0  0  0  0  0  0  0  0  0  0
  -14.8540   14.9020  -30.8119 H   0  0  0  0  0  0  0  0  0  0  0  0
  -13.5516   13.6649  -30.8119 H   0  0  0  0  0  0  0  0  0  0  0  0
   -9.2892   17.9826  -25.0446 H   0  0  0  0  0  0  0  0  0  0  0  0
   -8.7510   17.1279  -26.5300 H   0  0  0  0  0  0  0  0  0  0  0  0
  -10.2975   18.0418  -26.5300 H   0  0  0  0  0  0  0  0  0  0  0  0
   -9.2010   16.1925  -21.1668 H   0  0  0  0  0  0  0  0  0  0  0  0
   -7.8858   16.8642  -22.3167 H   0  0  0  0  0  0  0  0  0  0  0  0
  1  2  1  0
  2  3  1  0
  3  4  1  0
  4  5  1  0
  1  6  1  0
  5  6  1  0
  6  7  1  0
  7  8  1  0
  8  9  1  0
  9 10  1  0
 10 11  1  0
 11 12  1  0
 12 13  1  0
 13 14  1  0
 14 15  1  0
  1 16  1  6
  1 17  1  0
  5 18  1  0
  9 19  1  0
 13 20  1  0
 15 21  1  0
 15 22  1  0
 23 24  1  0
 24 25  1  0
 25 26  1  0
 26 27  1  0
 23 28  1  0
 27 28  1  0
 28 29  1  0
 29 30  1  0
 30 31  1  0
 31 32  1  0
 32 33  1  0
 33 34  1  0
 34 35  1  0
 35 36  1  0
 36 37  1  0
 23 38  1  1
 23 39  1  0
 27 40  1  0
 31 41  1  0
 35 42  1  0
 37 43  1  0
 37 44  1  0
 45 46  1  0
 46 47  1  0
 47 48  1  0
 48 49  1  0
 45 50  1  0
 49 50  1  0
 50 51  1  0
 51 52  1  0
 52 53  1  0
 53 54  1  0
 54 55  1  0
 55 56  1  0
 56 57  1  0
 57 58  1  0
 58 59  1  0
 45 60  1  6
 45 61  1  0
 49 62  1  0
 53 63  1  0
 57 64  1  0
 59 65  1  0
 59 66  1  0
 67 68  1  0
 68 69  1  0
 69 70  1  0
 70 71  1  0
 67 72  1  0
 71 72  1  0
 72 73  1  0
 73 74  1  0
 74 75  1  0
 75 76  1  0
 76 77  1  0
 77 78  1  0
 78 79  1  0
 79 80  1  0
 80 81  1  0
 67 82  1  1
 67 83  1  0
 71 84  1  0
 75 85  1  0
 79 86  1  0
 81 87  1  0
 81 88  1  0
  2 89  1  0
  2 90  1  0
  3 91  1  0
  3 92  1  0
  4 93  1  0
  4 94  1  0
  5 95  1  0
  6 96  1  0
  7 97  1  0
  7 98  1  0
  8 99  1  0
  8100  1  0
  9101  1  0
 10102  1  0
 10103  1  0
 11104  1  0
 11105  1  0
 12106  1  0
 12107  1  0
 13108  1  0
 14109  1  0
 14110  1  0
 15111  1  0
 16112  1  0
 16113  1  0
 16114  1  0
 17115  1  0
 17116  1  0
 17117  1  0
 18118  1  0
 18119  1  0
 18120  1  0
 19121  1  0
 19122  1  0
 19123  1  0
 20124  1  0
 20125  1  0
 20126  1  0
 21127  1  0
 22128  1  0
 24129  1  0
 24130  1  0
 25131  1  0
 25132  1  0
 26133  1  0
 26134  1  0
 27135  1  0
 28136  1  0
 29137  1  0
 29138  1  0
 30139  1  0
 30140  1  0
 31141  1  0
 32142  1  0
 32143  1  0
 33144  1  0
 33145  1  0
 34146  1  0
 34147  1  0
 35148  1  0
 36149  1  0
 36150  1  0
 37151  1  0
 38152  1  0
 38153  1  0
 38154  1  0
 39155  1  0
 39156  1  0
 39157  1  0
 40158  1  0
 40159  1  0
 40160  1  0
 41161  1  0
 41162  1  0
 41163  1  0
 42164  1  0
 42165  1  0
 42166  1  0
 43167  1  0
 44168  1  0
 46169  1  0
 46170  1  0
 47171  1  0
 47172  1  0
 48173  1  0
 48174  1  0
 49175  1  0
 50176  1  0
 51177  1  0
 51178  1  0
 52179  1  0
 52180  1  0
 53181  1  0
 54182  1  0
 54183  1  0
 55184  1  0
 55185  1  0
 56186  1  0
 56187  1  0
 57188  1  0
 58189  1  0
 58190  1  0
 59191  1  0
 60192  1  0
 60193  1  0
 60194  1  0
 61195  1  0
 61196  1  0
 61197  1  0
 62198  1  0
 62199  1  0
 62200  1  0
 63201  1  0
 63202  1  0
 63203  1  0
 64204  1  0
 64205  1  0
 64206  1  0
 65207  1  0
 66208  1  0
 68209  1  0
 68210  1  0
 69211  1  0
 69212  1  0
 70213  1  0
 70214  1  0
 71215  1  0
 72216  1  0
 73217  1  0
 73218  1  0
 74219  1  0
 74220  1  0
 75221  1  0
 76222  1  0
 76223  1  0
 77224  1  0
 77225  1  0
 78226  1  0
 78227  1  0
 79228  1  0
 80229  1  0
 80230  1  0
 81231  1  0
 82232  1  0
 82233  1  0
 82234  1  0
 83235  1  0
 83236  1  0
 83237  1  0
 84238  1  0
 84239  1  0
 84240  1  0
 85241  1  0
 85242  1  0
 85243  1  0
 86244  1  0
 86245  1  0
 86246  1  0
 87247  1  0
 88248  1  0
M  END
>  <PDBID>  (1) 
1XLS

>  <PDB ID>  (1) 
1XLS

>  <Generic Name>  (1) 
Alitretinoin

>  <Brand Name>  (1) 
Panretin#Toctino

>  <DrugBank ID>  (1) 
DB00523

>  <ATC Codes>  (1) 
D11AH04#L01XX22

>  <Ligand ID>  (1) 
9CR

>  <Target Name>  (1) 
Retinoic acid receptor RXR-gamma

>  <UniProt ID>  (1) 
P48443

>  <PDB ID.1>  (1) 
1XLS

>  <Seq. Identity>  (1) 
88%

$$$$
