PDB_DB01041_96
     RDKit          3D

 29 31  0  0  0  0  0  0  0  0999 V2000
   47.5870  -34.8400  -72.2250 O   0  0  0  0  0  0  0  0  0  0  0  0
   48.0310  -34.3560  -73.2720 C   0  0  0  0  0  0  0  0  0  0  0  0
   47.4090  -33.3120  -73.8370 N   0  0  0  0  0  0  0  0  0  0  0  0
   47.8810  -32.6690  -74.9330 C   0  0  0  0  0  0  0  0  0  0  0  0
   47.3290  -31.6940  -75.3630 O   0  0  0  0  0  0  0  0  0  0  0  0
   49.1200  -33.2010  -75.6280 C   0  0  0  0  0  0  0  0  0  0  0  0
   49.2640  -34.7090  -75.4220 C   0  0  0  0  0  0  0  0  0  0  0  0
   49.2890  -34.9050  -73.9190 C   0  0  2  0  0  0  0  0  0  0  0  0
   49.4460  -36.3150  -73.5120 N   0  0  0  0  0  0  0  0  0  0  0  0
   49.4190  -40.7870  -72.1150 C   0  0  0  0  0  0  0  0  0  0  0  0
   48.5680  -39.8540  -72.7380 C   0  0  0  0  0  0  0  0  0  0  0  0
   49.0990  -38.5920  -72.9330 C   0  0  0  0  0  0  0  0  0  0  0  0
   50.3860  -38.2760  -72.5550 C   0  0  0  0  0  0  0  0  0  0  0  0
   47.2410  -37.2060  -74.0690 O   0  0  0  0  0  0  0  0  0  0  0  0
   51.7160  -36.1080  -72.6630 O   0  0  0  0  0  0  0  0  0  0  0  0
   51.2500  -39.1690  -71.9280 C   0  0  0  0  0  0  0  0  0  0  0  0
   50.7460  -40.4590  -71.7250 C   0  0  0  0  0  0  0  0  0  0  0  0
   50.5230  -36.8630  -72.9410 C   0  0  0  0  0  0  0  0  0  0  0  0
   48.5750  -37.3270  -73.5270 C   0  0  0  0  0  0  0  0  0  0  0  0
   46.5282  -32.9817  -73.4174 H   0  0  0  0  0  0  0  0  0  0  0  0
   49.0452  -32.9914  -76.7053 H   0  0  0  0  0  0  0  0  0  0  0  0
   50.0018  -32.7045  -75.1970 H   0  0  0  0  0  0  0  0  0  0  0  0
   48.4105  -35.2421  -75.8662 H   0  0  0  0  0  0  0  0  0  0  0  0
   50.1707  -35.1046  -75.9030 H   0  0  0  0  0  0  0  0  0  0  0  0
   50.1732  -34.3497  -73.5729 H   0  0  0  0  0  0  0  0  0  0  0  0
   49.0445  -41.8034  -71.9238 H   0  0  0  0  0  0  0  0  0  0  0  0
   47.5453  -40.1126  -73.0499 H   0  0  0  0  0  0  0  0  0  0  0  0
   52.2633  -38.8798  -71.6124 H   0  0  0  0  0  0  0  0  0  0  0  0
   51.3826  -41.2259  -71.2595 H   0  0  0  0  0  0  0  0  0  0  0  0
  1  2  2  0
  2  3  1  0
  3  4  1  0
  4  5  2  0
  4  6  1  0
  6  7  1  0
  2  8  1  0
  7  8  1  0
  8  9  1  0
 10 11  2  0
 11 12  1  0
 12 13  2  0
 13 16  1  0
 10 17  1  0
 16 17  2  0
  9 18  1  0
 13 18  1  0
 15 18  2  0
  9 19  1  0
 12 19  1  0
 14 19  2  0
  3 20  1  0
  6 21  1  0
  6 22  1  0
  7 23  1  0
  7 24  1  0
  8 25  1  1
 10 26  1  0
 11 27  1  0
 16 28  1  0
 17 29  1  0
M  END
$$$$
