PDB_DB00843_98
     RDKit          3D

 57 60  0  0  0  0  0  0  0  0999 V2000
   12.1090  -50.7890  -23.4660 C   0  0  0  0  0  0  0  0  0  0  0  0
   12.6830  -51.3280  -24.5920 C   0  0  0  0  0  0  0  0  0  0  0  0
   12.5240  -52.6740  -24.8840 C   0  0  0  0  0  0  0  0  0  0  0  0
   11.7720  -53.4980  -24.0290 C   0  0  0  0  0  0  0  0  0  0  0  0
   11.1890  -52.9740  -22.8990 C   0  0  0  0  0  0  0  0  0  0  0  0
   11.3530  -51.5940  -22.5990 C   0  0  0  0  0  0  0  0  0  0  0  0
   10.4500  -54.0510  -22.1770 C   0  0  0  0  0  0  0  0  0  0  0  0
   10.6220  -55.3680  -22.9100 C   0  0  1  0  0  0  0  0  0  0  0  0
   11.4610  -54.9910  -24.1310 C   0  0  0  0  0  0  0  0  0  0  0  0
   11.2070  -56.4790  -22.0310 C   0  0  0  0  0  0  0  0  0  0  0  0
   10.8420  -57.9080  -22.4900 C   0  0  0  0  0  0  0  0  0  0  0  0
   11.5490  -58.3400  -23.7380 C   0  0  0  0  0  0  0  0  0  0  0  0
   11.2470  -59.7520  -24.1460 C   0  0  0  0  0  0  0  0  0  0  0  0
   11.3950  -60.7540  -23.0740 N   0  0  0  0  0  0  0  0  0  0  0  0
   10.8130  -60.2820  -21.8130 C   0  0  0  0  0  0  0  0  0  0  0  0
   11.2690  -58.9050  -21.4300 C   0  0  0  0  0  0  0  0  0  0  0  0
   11.3120  -62.1570  -23.4640 C   0  0  0  0  0  0  0  0  0  0  0  0
    9.8890  -62.5850  -23.7940 C   0  0  0  0  0  0  0  0  0  0  0  0
    9.3880  -62.4340  -25.0930 C   0  0  0  0  0  0  0  0  0  0  0  0
    8.0760  -62.8320  -25.4000 C   0  0  0  0  0  0  0  0  0  0  0  0
    7.2690  -63.3810  -24.4000 C   0  0  0  0  0  0  0  0  0  0  0  0
    7.7640  -63.5400  -23.0890 C   0  0  0  0  0  0  0  0  0  0  0  0
    9.0670  -63.1450  -22.7930 C   0  0  0  0  0  0  0  0  0  0  0  0
    9.7950  -53.8950  -21.1440 O   0  0  0  0  0  0  0  0  0  0  0  0
   12.3080  -49.4460  -23.2490 O   0  0  0  0  0  0  0  0  0  0  0  0
   11.6840  -48.7860  -22.2260 C   0  0  0  0  0  0  0  0  0  0  0  0
   13.4370  -50.5060  -25.4380 O   0  0  0  0  0  0  0  0  0  0  0  0
   13.9990  -51.0470  -26.6020 C   0  0  0  0  0  0  0  0  0  0  0  0
   12.9875  -53.0980  -25.7870 H   0  0  0  0  0  0  0  0  0  0  0  0
   10.8929  -51.1620  -21.6981 H   0  0  0  0  0  0  0  0  0  0  0  0
    9.6672  -55.8236  -23.2114 H   0  0  0  0  0  0  0  0  0  0  0  0
   10.8964  -55.1953  -25.0527 H   0  0  0  0  0  0  0  0  0  0  0  0
   12.3896  -55.5799  -24.1608 H   0  0  0  0  0  0  0  0  0  0  0  0
   12.3028  -56.3837  -22.0384 H   0  0  0  0  0  0  0  0  0  0  0  0
   10.7746  -56.3491  -21.0279 H   0  0  0  0  0  0  0  0  0  0  0  0
    9.7568  -57.8853  -22.6687 H   0  0  0  0  0  0  0  0  0  0  0  0
   11.2479  -57.6702  -24.5570 H   0  0  0  0  0  0  0  0  0  0  0  0
   12.6278  -58.2902  -23.5292 H   0  0  0  0  0  0  0  0  0  0  0  0
   10.2085  -59.7886  -24.5067 H   0  0  0  0  0  0  0  0  0  0  0  0
   11.9859  -60.0146  -24.9174 H   0  0  0  0  0  0  0  0  0  0  0  0
    9.7179  -60.2716  -21.9158 H   0  0  0  0  0  0  0  0  0  0  0  0
   11.1474  -60.9688  -21.0215 H   0  0  0  0  0  0  0  0  0  0  0  0
   12.3653  -58.8953  -21.3403 H   0  0  0  0  0  0  0  0  0  0  0  0
   10.8154  -58.6274  -20.4671 H   0  0  0  0  0  0  0  0  0  0  0  0
   11.9430  -62.3148  -24.3511 H   0  0  0  0  0  0  0  0  0  0  0  0
   11.6550  -62.7625  -22.6121 H   0  0  0  0  0  0  0  0  0  0  0  0
   10.0256  -62.0011  -25.8779 H   0  0  0  0  0  0  0  0  0  0  0  0
    7.6863  -62.7121  -26.4217 H   0  0  0  0  0  0  0  0  0  0  0  0
    6.2406  -63.6913  -24.6370 H   0  0  0  0  0  0  0  0  0  0  0  0
    7.1254  -63.9731  -22.3050 H   0  0  0  0  0  0  0  0  0  0  0  0
    9.4575  -63.2705  -21.7723 H   0  0  0  0  0  0  0  0  0  0  0  0
   12.0496  -49.1726  -21.2633 H   0  0  0  0  0  0  0  0  0  0  0  0
   11.9030  -47.7103  -22.2961 H   0  0  0  0  0  0  0  0  0  0  0  0
   10.5977  -48.9444  -22.2961 H   0  0  0  0  0  0  0  0  0  0  0  0
   14.7667  -51.7860  -26.3292 H   0  0  0  0  0  0  0  0  0  0  0  0
   13.2128  -51.5369  -27.1953 H   0  0  0  0  0  0  0  0  0  0  0  0
   14.4586  -50.2428  -27.1953 H   0  0  0  0  0  0  0  0  0  0  0  0
  1  2  2  0
  2  3  1  0
  3  4  2  0
  4  5  1  0
  1  6  1  0
  5  6  2  0
  5  7  1  0
  7  8  1  0
  4  9  1  0
  8  9  1  0
  8 10  1  0
 10 11  1  0
 11 12  1  0
 12 13  1  0
 13 14  1  0
 14 15  1  0
 11 16  1  0
 15 16  1  0
 14 17  1  0
 17 18  1  0
 18 19  2  0
 19 20  1  0
 20 21  2  0
 21 22  1  0
 18 23  1  0
 22 23  2  0
  7 24  2  0
  1 25  1  0
 25 26  1  0
  2 27  1  0
 27 28  1  0
  3 29  1  0
  6 30  1  0
  8 31  1  6
  9 32  1  0
  9 33  1  0
 10 34  1  0
 10 35  1  0
 11 36  1  0
 12 37  1  0
 12 38  1  0
 13 39  1  0
 13 40  1  0
 15 41  1  0
 15 42  1  0
 16 43  1  0
 16 44  1  0
 17 45  1  0
 17 46  1  0
 19 47  1  0
 20 48  1  0
 21 49  1  0
 22 50  1  0
 23 51  1  0
 26 52  1  0
 26 53  1  0
 26 54  1  0
 28 55  1  0
 28 56  1  0
 28 57  1  0
M  END
$$$$
