PDB_DB08883_99
     RDKit          3D

 42 45  0  0  0  0  0  0  0  0999 V2000
  -47.8960    3.9510  -46.7440 N   0  0  0  0  0  0  0  0  0  0  0  0
  -47.2360    4.4030  -45.9430 C   0  0  0  0  0  0  0  0  0  0  0  0
  -46.3450    5.0130  -44.8610 C   0  0  0  0  0  0  0  0  0  0  0  0
  -46.0970    6.3770  -44.8600 C   0  0  0  0  0  0  0  0  0  0  0  0
  -45.2900    6.9330  -43.8820 C   0  0  0  0  0  0  0  0  0  0  0  0
  -44.7310    6.1270  -42.9030 C   0  0  0  0  0  0  0  0  0  0  0  0
  -44.9790    4.7630  -42.9040 C   0  0  0  0  0  0  0  0  0  0  0  0
  -45.7860    4.2060  -43.8820 C   0  0  0  0  0  0  0  0  0  0  0  0
  -46.0320    2.8380  -43.8800 C   0  0  0  0  0  0  0  0  0  0  0  0
  -45.4660    1.9880  -44.8410 C   0  0  0  0  0  0  0  0  0  0  0  0
  -44.7570    2.4670  -45.6740 O   0  0  0  0  0  0  0  0  0  0  0  0
  -46.8560    2.2930  -42.9080 C   0  0  0  0  0  0  0  0  0  0  0  0
  -47.0930    0.9410  -42.9140 C   0  0  0  0  0  0  0  0  0  0  0  0
  -47.9150    0.3780  -41.9490 C   0  0  0  0  0  0  0  0  0  0  0  0
  -47.6990    0.6450  -40.6730 N   0  0  0  0  0  0  0  0  0  0  0  0
  -48.4550    0.1320  -39.7180 C   0  0  0  0  0  0  0  0  0  0  0  0
  -49.5080   -0.7110  -40.0400 C   0  0  0  0  0  0  0  0  0  0  0  0
  -49.7670   -1.0150  -41.3660 C   0  0  0  0  0  0  0  0  0  0  0  0
  -48.9510   -0.4570  -42.3380 C   0  0  0  0  0  0  0  0  0  0  0  0
  -46.5170    0.1440  -43.8750 C   0  0  0  0  0  0  0  0  0  0  0  0
  -45.7310    0.6670  -44.8020 N   0  0  0  0  0  0  0  0  0  0  0  0
  -45.2210   -0.1840  -45.6880 C   0  0  0  0  0  0  0  0  0  0  0  0
  -45.4650   -0.0050  -47.0410 C   0  0  0  0  0  0  0  0  0  0  0  0
  -44.9330   -0.8910  -47.9640 C   0  0  0  0  0  0  0  0  0  0  0  0
  -44.1580   -1.9560  -47.5350 C   0  0  0  0  0  0  0  0  0  0  0  0
  -43.9140   -2.1350  -46.1830 C   0  0  0  0  0  0  0  0  0  0  0  0
  -44.4460   -1.2490  -45.2590 C   0  0  0  0  0  0  0  0  0  0  0  0
  -46.5413    7.0174  -45.6361 H   0  0  0  0  0  0  0  0  0  0  0  0
  -45.0924    8.0151  -43.8820 H   0  0  0  0  0  0  0  0  0  0  0  0
  -44.0908    6.5693  -42.1255 H   0  0  0  0  0  0  0  0  0  0  0  0
  -44.5346    4.1229  -42.1276 H   0  0  0  0  0  0  0  0  0  0  0  0
  -47.3141    2.9356  -42.1417 H   0  0  0  0  0  0  0  0  0  0  0  0
  -48.2485    0.3743  -38.6651 H   0  0  0  0  0  0  0  0  0  0  0  0
  -50.1361   -1.1373  -39.2439 H   0  0  0  0  0  0  0  0  0  0  0  0
  -50.5979   -1.6814  -41.6407 H   0  0  0  0  0  0  0  0  0  0  0  0
  -49.1231   -0.6737  -43.4026 H   0  0  0  0  0  0  0  0  0  0  0  0
  -46.7115   -0.9387  -43.8731 H   0  0  0  0  0  0  0  0  0  0  0  0
  -46.0809    0.8403  -47.3817 H   0  0  0  0  0  0  0  0  0  0  0  0
  -45.1261   -0.7486  -49.0375 H   0  0  0  0  0  0  0  0  0  0  0  0
  -43.7363   -2.6596  -48.2678 H   0  0  0  0  0  0  0  0  0  0  0  0
  -43.2980   -2.9804  -45.8426 H   0  0  0  0  0  0  0  0  0  0  0  0
  -44.2528   -1.3916  -44.1855 H   0  0  0  0  0  0  0  0  0  0  0  0
  1  2  3  0
  2  3  1  0
  3  4  2  0
  4  5  1  0
  5  6  2  0
  6  7  1  0
  3  8  1  0
  7  8  2  0
  8  9  1  0
  9 10  1  0
 10 11  2  0
  9 12  2  0
 12 13  1  0
 13 14  1  0
 14 15  2  0
 15 16  1  0
 16 17  2  0
 17 18  1  0
 14 19  1  0
 18 19  2  0
 13 20  2  0
 10 21  1  0
 20 21  1  0
 21 22  1  0
 22 23  2  0
 23 24  1  0
 24 25  2  0
 25 26  1  0
 22 27  1  0
 26 27  2  0
  4 28  1  0
  5 29  1  0
  6 30  1  0
  7 31  1  0
 12 32  1  0
 16 33  1  0
 17 34  1  0
 18 35  1  0
 19 36  1  0
 20 37  1  0
 23 38  1  0
 24 39  1  0
 25 40  1  0
 26 41  1  0
 27 42  1  0
M  END
$$$$
