PDB_DB00399_96
     RDKit          3D

 68 68  0  0  0  0  0  0  0  0999 V2000
   28.9780   43.4940    5.0900 O   0  0  0  0  0  0  0  0  0  0  0  0
   29.5310   44.9490    4.6960 P   0  0  0  0  0  5  0  0  0  0  0  0
   28.9690   45.3700    3.2410 O   0  0  0  0  0  0  0  0  0  0  0  0
   31.0030   45.0270    4.8460 O   0  0  0  0  0  0  0  0  0  0  0  0
   28.6380   46.1140    5.8410 C   0  0  2  0  0  0  0  0  0  0  0  0
   26.8200   45.7440    5.6160 P   0  0  0  0  0  5  0  0  0  0  0  0
   26.5750   44.2930    6.2630 O   0  0  0  0  0  0  0  0  0  0  0  0
   26.0330   46.8350    6.4970 O   0  0  0  0  0  0  0  0  0  0  0  0
   26.4830   45.7670    4.1690 O   0  0  0  0  0  0  0  0  0  0  0  0
   28.9140   47.4520    5.4150 O   0  0  0  0  0  0  0  0  0  0  0  0
   29.1060   45.8650    7.2780 C   0  0  0  0  0  0  0  0  0  0  0  0
   28.4500   46.7580    8.2490 N   0  0  0  0  0  0  0  0  0  0  0  0
   28.3730   48.0790    8.1550 C   0  0  0  0  0  0  0  0  0  0  0  0
   27.7660   48.4950    9.2680 N   0  0  0  0  0  0  0  0  0  0  0  0
   27.4810   47.4440   10.0340 C   0  0  0  0  0  0  0  0  0  0  0  0
   27.9080   46.3560    9.3960 C   0  0  0  0  0  0  0  0  0  0  0  0
   22.3660   24.9030   27.7890 O   0  0  0  0  0  0  0  0  0  0  0  0
   22.4190   24.8090   29.3940 P   0  0  0  0  0  5  0  0  0  0  0  0
   22.3050   23.2440   29.7500 O   0  0  0  0  0  0  0  0  0  0  0  0
   21.4010   25.6330   30.0850 O   0  0  0  0  0  0  0  0  0  0  0  0
   24.1270   25.3180   29.9370 C   0  0  2  0  0  0  0  0  0  0  0  0
   25.2960   24.3270   28.8750 P   0  0  0  0  0  5  0  0  0  0  0  0
   25.0820   24.8850   27.3810 O   0  0  0  0  0  0  0  0  0  0  0  0
   26.7900   24.6450   29.3840 O   0  0  0  0  0  0  0  0  0  0  0  0
   24.9840   22.8850   28.9630 O   0  0  0  0  0  0  0  0  0  0  0  0
   24.2960   24.9560   31.3100 O   0  0  0  0  0  0  0  0  0  0  0  0
   24.3010   26.8270   29.7310 C   0  0  0  0  0  0  0  0  0  0  0  0
   25.5790   27.3600   30.2310 N   0  0  0  0  0  0  0  0  0  0  0  0
   26.1310   27.0820   31.4100 C   0  0  0  0  0  0  0  0  0  0  0  0
   27.2290   27.8280   31.5000 N   0  0  0  0  0  0  0  0  0  0  0  0
   27.3440   28.5560   30.3890 C   0  0  0  0  0  0  0  0  0  0  0  0
   26.3150   28.2680   29.5950 C   0  0  0  0  0  0  0  0  0  0  0  0
   28.9457   43.4091    6.0758 H   0  0  0  0  0  0  0  0  0  0  0  0
    0.0000    0.0000    0.0000 H   0  0  0  0  0  0  0  0  0  0  0  0
   28.1814   45.9600    3.3495 H   0  0  0  0  0  0  0  0  0  0  0  0
   31.2365   45.0394    5.8080 H   0  0  0  0  0  0  0  0  0  0  0  0
    0.0000    0.0000    0.0000 H   0  0  0  0  0  0  0  0  0  0  0  0
   26.5873   44.3656    7.2503 H   0  0  0  0  0  0  0  0  0  0  0  0
   26.1707   46.6442    7.4586 H   0  0  0  0  0  0  0  0  0  0  0  0
   25.5013   45.8340    4.0598 H   0  0  0  0  0  0  0  0  0  0  0  0
   29.0338   48.0327    6.2078 H   0  0  0  0  0  0  0  0  0  0  0  0
   28.8782   44.8231    7.5474 H   0  0  0  0  0  0  0  0  0  0  0  0
   30.1867   46.0664    7.3166 H   0  0  0  0  0  0  0  0  0  0  0  0
   29.3800   48.5159    8.0834 H   0  0  0  0  0  0  0  0  0  0  0  0
   27.8181   48.3860    7.2562 H   0  0  0  0  0  0  0  0  0  0  0  0
   28.3889   49.1353    9.7807 H   0  0  0  0  0  0  0  0  0  0  0  0
   27.9927   47.5360   11.0034 H   0  0  0  0  0  0  0  0  0  0  0  0
   26.3988   47.3834   10.2215 H   0  0  0  0  0  0  0  0  0  0  0  0
   27.0632   45.6803    9.1969 H   0  0  0  0  0  0  0  0  0  0  0  0
   28.6441   45.8107   10.0050 H   0  0  0  0  0  0  0  0  0  0  0  0
   21.8977   25.7335   27.5224 H   0  0  0  0  0  0  0  0  0  0  0  0
    0.0000    0.0000    0.0000 H   0  0  0  0  0  0  0  0  0  0  0  0
   22.2966   23.1290   30.7333 H   0  0  0  0  0  0  0  0  0  0  0  0
   21.5127   25.5426   31.0645 H   0  0  0  0  0  0  0  0  0  0  0  0
    0.0000    0.0000    0.0000 H   0  0  0  0  0  0  0  0  0  0  0  0
   24.7278   25.8086   27.4213 H   0  0  0  0  0  0  0  0  0  0  0  0
   26.8076   24.6487   30.3738 H   0  0  0  0  0  0  0  0  0  0  0  0
   24.9261   22.6174   29.9144 H   0  0  0  0  0  0  0  0  0  0  0  0
   23.9559   25.6845   31.8876 H   0  0  0  0  0  0  0  0  0  0  0  0
   24.2371   27.0379   28.6533 H   0  0  0  0  0  0  0  0  0  0  0  0
   23.5050   27.3192   30.3090 H   0  0  0  0  0  0  0  0  0  0  0  0
   25.4344   27.3319   32.2238 H   0  0  0  0  0  0  0  0  0  0  0  0
   26.3702   26.0116   31.4940 H   0  0  0  0  0  0  0  0  0  0  0  0
   27.1584   28.4513   32.3169 H   0  0  0  0  0  0  0  0  0  0  0  0
   27.3309   29.6264   30.6421 H   0  0  0  0  0  0  0  0  0  0  0  0
   28.2922   28.3266   29.8807 H   0  0  0  0  0  0  0  0  0  0  0  0
   26.6768   27.8601   28.6397 H   0  0  0  0  0  0  0  0  0  0  0  0
   25.7242   29.1690   29.3733 H   0  0  0  0  0  0  0  0  0  0  0  0
  1  2  1  0
  2  3  1  0
  2  4  1  0
  2  5  1  0
  5  6  1  0
  6  7  1  0
  6  8  1  0
  6  9  1  0
  5 10  1  6
  5 11  1  0
 11 12  1  0
 12 13  1  0
 13 14  1  0
 14 15  1  0
 12 16  1  0
 15 16  1  0
 17 18  1  0
 18 19  1  0
 18 20  1  0
 18 21  1  0
 21 22  1  0
 22 23  1  0
 22 24  1  0
 22 25  1  0
 21 26  1  1
 21 27  1  0
 27 28  1  0
 28 29  1  0
 29 30  1  0
 30 31  1  0
 28 32  1  0
 31 32  1  0
  1 33  1  0
  2 34  1  0
  3 35  1  0
  4 36  1  0
  6 37  1  0
  7 38  1  6
  8 39  1  0
  9 40  1  0
 10 41  1  0
 11 42  1  0
 11 43  1  0
 13 44  1  0
 13 45  1  0
 14 46  1  0
 15 47  1  0
 15 48  1  0
 16 49  1  0
 16 50  1  0
 17 51  1  0
 18 52  1  0
 19 53  1  0
 20 54  1  0
 22 55  1  0
 23 56  1  6
 24 57  1  0
 25 58  1  0
 26 59  1  0
 27 60  1  0
 27 61  1  0
 29 62  1  0
 29 63  1  0
 30 64  1  0
 31 65  1  0
 31 66  1  0
 32 67  1  0
 32 68  1  0
M  END
>  <PDBID>  (1) 
2E91

>  <PDB ID>  (1) 
2E91

>  <Generic Name>  (1) 
Zoledronic acid

>  <Brand Name>  (1) 
Aclasta#Act Zoledronic Acid#Act Zoledronic Acid Concentrate#PMS-zoledronic Acid#Reclast#Taro-zoledronic Acid#Taro-zoledronic Acid Concentrate#Val-zoledronic Acid#Zoledronic Acid#Zoledronic Acid - A#Zoledronic Acid - Z#Zoledronic Acid Concentrate#Zoledronic Acid Concentrate for Injection#Zoledronic Acid Injection#Zoledronic Acid for Injection#Zoledronic Acid for Injection Concentrate#Zometa#Zometa Concentrate#Zometa Lyophilized Powder

>  <DrugBank ID>  (1) 
DB00399

>  <ATC Codes>  (1) 
M05BB08#M05BA08

>  <Ligand ID>  (1) 
ZOL

>  <Target Name>  (1) 
Geranylgeranyl pyrophosphate synthase

>  <UniProt ID>  (1) 
O95749

>  <PDB ID.1>  (1) 
2E91

>  <Seq. Identity>  (1) 
44%

$$$$
