PDB_DB00188_95
     RDKit          3D

 53 54  0  0  0  0  0  0  0  0999 V2000
   51.7590  188.5520   66.3430 N   0  0  0  0  0  0  0  0  0  0  0  0
   51.1330  187.8610   67.3080 C   0  0  0  0  0  0  0  0  0  0  0  0
   51.7750  187.6320   68.5420 C   0  0  0  0  0  0  0  0  0  0  0  0
   52.9810  188.1950   68.7800 N   0  0  0  0  0  0  0  0  0  0  0  0
   53.5820  188.9050   67.8380 C   0  0  0  0  0  0  0  0  0  0  0  0
   52.9570  189.0950   66.6150 C   0  0  0  0  0  0  0  0  0  0  0  0
   49.8670  187.1460   67.0120 C   0  0  0  0  0  0  0  0  0  0  0  0
   49.1150  186.8070   67.9140 O   0  0  0  0  0  0  0  0  0  0  0  0
   49.6950  186.7230   65.7460 N   0  0  0  0  0  0  0  0  0  0  0  0
   48.5900  185.9030   65.3230 C   0  0  1  0  0  0  0  0  0  0  0  0
   48.2860  186.2300   63.8760 C   0  0  0  0  0  0  0  0  0  0  0  0
   47.2400  185.3380   63.2520 C   0  0  0  0  0  0  0  0  0  0  0  0
   45.9290  185.3210   63.7040 C   0  0  0  0  0  0  0  0  0  0  0  0
   44.9780  184.5110   63.0580 C   0  0  0  0  0  0  0  0  0  0  0  0
   45.2920  183.7060   61.9890 C   0  0  0  0  0  0  0  0  0  0  0  0
   46.5910  183.7240   61.4970 C   0  0  0  0  0  0  0  0  0  0  0  0
   47.5580  184.5520   62.1300 C   0  0  0  0  0  0  0  0  0  0  0  0
   48.9920  184.4430   65.4500 C   0  0  0  0  0  0  0  0  0  0  0  0
   49.9990  184.0580   64.8870 O   0  0  0  0  0  0  0  0  0  0  0  0
   48.2530  183.5940   66.1430 N   0  0  0  0  0  0  0  0  0  0  0  0
   48.5070  182.1750   66.2820 C   0  0  1  0  0  0  0  0  0  0  0  0
   48.1700  181.7550   67.7260 C   0  0  0  0  0  0  0  0  0  0  0  0
   48.9150  182.5570   68.7800 C   0  0  0  0  0  0  0  0  0  0  0  0
   50.4080  182.7030   68.5030 C   0  0  0  0  0  0  0  0  0  0  0  0
   48.7050  181.9180   70.1430 C   0  0  0  0  0  0  0  0  0  0  0  0
   47.6200  181.2890   65.2320 B   0  0  0  0  0  0  0  0  0  0  0  0
   47.9820  181.5650   63.7630 O   0  0  0  0  0  0  0  0  0  0  0  0
   46.1420  181.6740   65.3140 O   0  0  0  0  0  0  0  0  0  0  0  0
   51.2983  186.9999   69.3057 H   0  0  0  0  0  0  0  0  0  0  0  0
   54.5737  189.3427   68.0249 H   0  0  0  0  0  0  0  0  0  0  0  0
   53.4550  189.7061   65.8478 H   0  0  0  0  0  0  0  0  0  0  0  0
   50.3924  187.0013   65.0409 H   0  0  0  0  0  0  0  0  0  0  0  0
   47.7001  186.0905   65.9418 H   0  0  0  0  0  0  0  0  0  0  0  0
   47.9301  187.2695   63.8236 H   0  0  0  0  0  0  0  0  0  0  0  0
   49.2169  186.0722   63.3115 H   0  0  0  0  0  0  0  0  0  0  0  0
   45.6340  185.9390   64.5649 H   0  0  0  0  0  0  0  0  0  0  0  0
   43.9404  184.5221   63.4231 H   0  0  0  0  0  0  0  0  0  0  0  0
   44.5287  183.0594   61.5315 H   0  0  0  0  0  0  0  0  0  0  0  0
   46.8676  183.1063   60.6298 H   0  0  0  0  0  0  0  0  0  0  0  0
   48.5828  184.5786   61.7313 H   0  0  0  0  0  0  0  0  0  0  0  0
   47.4260  183.9740   66.6253 H   0  0  0  0  0  0  0  0  0  0  0  0
   49.5673  181.9876   66.0568 H   0  0  0  0  0  0  0  0  0  0  0  0
   47.0899  181.8899   67.8848 H   0  0  0  0  0  0  0  0  0  0  0  0
   48.4803  180.7057   67.8386 H   0  0  0  0  0  0  0  0  0  0  0  0
   48.4970  183.5742   68.7543 H   0  0  0  0  0  0  0  0  0  0  0  0
   50.9543  182.7564   69.4563 H   0  0  0  0  0  0  0  0  0  0  0  0
   50.7606  181.8350   67.9265 H   0  0  0  0  0  0  0  0  0  0  0  0
   50.5857  183.6228   67.9265 H   0  0  0  0  0  0  0  0  0  0  0  0
   48.9447  182.6474   70.9308 H   0  0  0  0  0  0  0  0  0  0  0  0
   47.6559  181.6025   70.2423 H   0  0  0  0  0  0  0  0  0  0  0  0
   49.3624  181.0417   70.2423 H   0  0  0  0  0  0  0  0  0  0  0  0
   48.7687  182.1648   63.7241 H   0  0  0  0  0  0  0  0  0  0  0  0
   45.8715  181.7445   66.2637 H   0  0  0  0  0  0  0  0  0  0  0  0
  1  2  2  0
  2  3  1  0
  3  4  2  0
  4  5  1  0
  1  6  1  0
  5  6  2  0
  2  7  1  0
  7  8  2  0
  7  9  1  0
  9 10  1  0
 10 11  1  0
 11 12  1  0
 12 13  2  0
 13 14  1  0
 14 15  2  0
 15 16  1  0
 12 17  1  0
 16 17  2  0
 10 18  1  0
 18 19  2  0
 18 20  1  0
 20 21  1  0
 21 22  1  0
 22 23  1  0
 23 24  1  0
 23 25  1  0
 21 26  1  0
 26 27  1  0
 26 28  1  0
  3 29  1  0
  5 30  1  0
  6 31  1  0
  9 32  1  0
 10 33  1  1
 11 34  1  0
 11 35  1  0
 13 36  1  0
 14 37  1  0
 15 38  1  0
 16 39  1  0
 17 40  1  0
 20 41  1  0
 21 42  1  6
 22 43  1  0
 22 44  1  0
 23 45  1  0
 24 46  1  0
 24 47  1  0
 24 48  1  0
 25 49  1  0
 25 50  1  0
 25 51  1  0
 27 52  1  0
 28 53  1  0
M  END
$$$$
