PDB_DB02546_95
     RDKit          3D

 66 63  0  0  0  0  0  0  0  0999 V2000
  -35.4870  -25.8380  -15.6880 O   0  0  0  0  0  0  0  0  0  0  0  0
  -37.4870  -27.2050  -17.6530 O   0  0  0  0  0  0  0  0  0  0  0  0
  -36.2040  -25.6400  -16.8410 N   0  0  0  0  0  0  0  0  0  0  0  0
  -36.4150  -26.6370  -17.6800 C   0  0  0  0  0  0  0  0  0  0  0  0
  -35.2990  -27.0090  -18.6420 C   0  0  0  0  0  0  0  0  0  0  0  0
  -35.5260  -28.3770  -19.2790 C   0  0  0  0  0  0  0  0  0  0  0  0
  -34.4050  -28.7640  -20.2420 C   0  0  0  0  0  0  0  0  0  0  0  0
  -34.4850  -30.2550  -20.5500 C   0  0  0  0  0  0  0  0  0  0  0  0
    4.6080    1.7250  -11.0210 O   0  0  0  0  0  0  0  0  0  0  0  0
    4.6420   -0.3610  -12.7850 O   0  0  0  0  0  0  0  0  0  0  0  0
    5.6920    1.4150  -11.8400 N   0  0  0  0  0  0  0  0  0  0  0  0
    5.5060    0.5390  -12.8510 C   0  0  0  0  0  0  0  0  0  0  0  0
    6.3990    0.7960  -14.0790 C   0  0  0  0  0  0  0  0  0  0  0  0
    7.4250   -0.2830  -14.4150 C   0  0  0  0  0  0  0  0  0  0  0  0
    7.8640   -0.1860  -15.8840 C   0  0  0  0  0  0  0  0  0  0  0  0
    9.3670   -0.3140  -16.1230 C   0  0  0  0  0  0  0  0  0  0  0  0
    9.8470   -1.7610  -16.0280 C   0  0  0  0  0  0  0  0  0  0  0  0
  -47.4520   24.5990   10.7480 O   0  0  0  0  0  0  0  0  0  0  0  0
  -46.5170   26.2720    8.5870 O   0  0  0  0  0  0  0  0  0  0  0  0
  -47.8180   24.6410    9.4130 N   0  0  0  0  0  0  0  0  0  0  0  0
  -47.6150   25.7420    8.6770 C   0  0  0  0  0  0  0  0  0  0  0  0
  -48.8510   26.3190    7.9970 C   0  0  0  0  0  0  0  0  0  0  0  0
  -48.8230   26.2290    6.4690 C   0  0  0  0  0  0  0  0  0  0  0  0
  -49.7540   27.2360    5.7710 C   0  0  0  0  0  0  0  0  0  0  0  0
  -49.3580   28.6800    6.0990 C   0  0  0  0  0  0  0  0  0  0  0  0
  -36.0706  -25.6768  -14.9047 H   0  0  0  0  0  0  0  0  0  0  0  0
  -37.7602  -27.3497  -16.7125 H   0  0  0  0  0  0  0  0  0  0  0  0
  -37.1311  -25.2936  -16.5558 H   0  0  0  0  0  0  0  0  0  0  0  0
  -36.8093  -25.9282  -18.4231 H   0  0  0  0  0  0  0  0  0  0  0  0
  -35.2483  -26.2508  -19.4374 H   0  0  0  0  0  0  0  0  0  0  0  0
  -34.3591  -27.0512  -18.0721 H   0  0  0  0  0  0  0  0  0  0  0  0
  -35.5835  -29.1328  -18.4818 H   0  0  0  0  0  0  0  0  0  0  0  0
  -36.4614  -28.3275  -19.8556 H   0  0  0  0  0  0  0  0  0  0  0  0
  -34.5107  -28.1915  -21.1753 H   0  0  0  0  0  0  0  0  0  0  0  0
  -33.4328  -28.5390  -19.7791 H   0  0  0  0  0  0  0  0  0  0  0  0
  -34.5155  -30.8228  -19.6084 H   0  0  0  0  0  0  0  0  0  0  0  0
  -35.3955  -30.4609  -21.1319 H   0  0  0  0  0  0  0  0  0  0  0  0
  -33.6018  -30.5571  -21.1319 H   0  0  0  0  0  0  0  0  0  0  0  0
    4.8787    1.6476  -10.0719 H   0  0  0  0  0  0  0  0  0  0  0  0
    4.4479   -0.5632  -11.8355 H   0  0  0  0  0  0  0  0  0  0  0  0
    6.0190    2.2975  -12.2586 H   0  0  0  0  0  0  0  0  0  0  0  0
    4.7659    1.2165  -13.3018 H   0  0  0  0  0  0  0  0  0  0  0  0
    5.7403    0.9137  -14.9520 H   0  0  0  0  0  0  0  0  0  0  0  0
    6.9892    1.6894  -13.8269 H   0  0  0  0  0  0  0  0  0  0  0  0
    8.3051   -0.1568  -13.7673 H   0  0  0  0  0  0  0  0  0  0  0  0
    6.9643   -1.2683  -14.2510 H   0  0  0  0  0  0  0  0  0  0  0  0
    7.3609   -0.9885  -16.4433 H   0  0  0  0  0  0  0  0  0  0  0  0
    7.5863    0.8241  -16.2197 H   0  0  0  0  0  0  0  0  0  0  0  0
    9.5998    0.0709  -17.1268 H   0  0  0  0  0  0  0  0  0  0  0  0
    9.8828    0.2640  -15.3420 H   0  0  0  0  0  0  0  0  0  0  0  0
    9.9419   -2.0471  -14.9701 H   0  0  0  0  0  0  0  0  0  0  0  0
    9.1199   -2.4217  -16.5227 H   0  0  0  0  0  0  0  0  0  0  0  0
   10.8248   -1.8562  -16.5227 H   0  0  0  0  0  0  0  0  0  0  0  0
  -48.2587   24.6916   11.3144 H   0  0  0  0  0  0  0  0  0  0  0  0
  -46.1587   26.4449    9.4936 H   0  0  0  0  0  0  0  0  0  0  0  0
  -47.3084   23.8778    8.9453 H   0  0  0  0  0  0  0  0  0  0  0  0
  -47.3841   25.1152    7.8030 H   0  0  0  0  0  0  0  0  0  0  0  0
  -49.7326   25.7699    8.3593 H   0  0  0  0  0  0  0  0  0  0  0  0
  -48.8827   27.3887    8.2513 H   0  0  0  0  0  0  0  0  0  0  0  0
  -47.7935   26.4152    6.1293 H   0  0  0  0  0  0  0  0  0  0  0  0
  -49.1792   25.2235    6.2004 H   0  0  0  0  0  0  0  0  0  0  0  0
  -49.6929   27.0860    4.6830 H   0  0  0  0  0  0  0  0  0  0  0  0
  -50.7800   27.0671    6.1300 H   0  0  0  0  0  0  0  0  0  0  0  0
  -49.3220   28.8114    7.1905 H   0  0  0  0  0  0  0  0  0  0  0  0
  -48.3678   28.8949    5.6709 H   0  0  0  0  0  0  0  0  0  0  0  0
  -50.1001   29.3700    5.6709 H   0  0  0  0  0  0  0  0  0  0  0  0
  1  3  1  0
  2  4  1  0
  3  4  1  0
  4  5  1  0
  5  6  1  0
  6  7  1  0
  7  8  1  0
  9 11  1  0
 10 12  1  0
 11 12  1  0
 12 13  1  0
 13 14  1  0
 14 15  1  0
 15 16  1  0
 16 17  1  0
 18 20  1  0
 19 21  1  0
 20 21  1  0
 21 22  1  0
 22 23  1  0
 23 24  1  0
 24 25  1  0
  1 26  1  0
  2 27  1  0
  3 28  1  0
  4 29  1  0
  5 30  1  0
  5 31  1  0
  6 32  1  0
  6 33  1  0
  7 34  1  0
  7 35  1  0
  8 36  1  0
  8 37  1  0
  8 38  1  0
  9 39  1  0
 10 40  1  0
 11 41  1  0
 12 42  1  0
 13 43  1  0
 13 44  1  0
 14 45  1  0
 14 46  1  0
 15 47  1  0
 15 48  1  0
 16 49  1  0
 16 50  1  0
 17 51  1  0
 17 52  1  0
 17 53  1  0
 18 54  1  0
 19 55  1  0
 20 56  1  0
 21 57  1  0
 22 58  1  0
 22 59  1  0
 23 60  1  0
 23 61  1  0
 24 62  1  0
 24 63  1  0
 25 64  1  0
 25 65  1  0
 25 66  1  0
M  END
>  <PDBID>  (1) 
3C0Z

>  <PDB ID>  (1) 
3C0Z

>  <Generic Name>  (1) 
Vorinostat

>  <Brand Name>  (1) 
Zolinza

>  <DrugBank ID>  (1) 
DB02546

>  <ATC Codes>  (1) 
L01XX38

>  <Ligand ID>  (1) 
SHH

>  <Target Name>  (1) 
Histone deacetylase 6

>  <UniProt ID>  (1) 
Q9UBN7

>  <PDB ID.1>  (1) 
3C0Z

>  <Seq. Identity>  (1) 
44%

$$$$
