PDB_DB08916_98
     RDKit          3D

 59 62  0  0  0  0  0  0  0  0999 V2000
   56.8870    2.4590    1.3780 C   0  0  0  0  0  0  0  0  0  0  0  0
   57.9630    1.6020    1.3820 N   0  0  0  0  0  0  0  0  0  0  0  0
   57.1150    3.8130    1.4960 N   0  0  0  0  0  0  0  0  0  0  0  0
   59.2640    2.0680    1.5140 C   0  0  0  0  0  0  0  0  0  0  0  0
   58.4000    4.2990    1.6240 C   0  0  0  0  0  0  0  0  0  0  0  0
   59.5070    3.4420    1.6290 C   0  0  0  0  0  0  0  0  0  0  0  0
   60.9530    5.3940    1.8620 C   0  0  0  0  0  0  0  0  0  0  0  0
   60.7890    4.0060    1.7540 C   0  0  0  0  0  0  0  0  0  0  0  0
   59.8360    6.2300    1.8670 C   0  0  0  0  0  0  0  0  0  0  0  0
   58.5580    5.6700    1.7430 C   0  0  0  0  0  0  0  0  0  0  0  0
   60.3060    1.1120    1.5710 N   0  0  0  0  0  0  0  0  0  0  0  0
   58.8830   -2.3590    2.0130 C   0  0  0  0  0  0  0  0  0  0  0  0
   60.0380   -3.1070    1.8410 C   0  0  0  0  0  0  0  0  0  0  0  0
   58.9220   -0.9720    1.9510 C   0  0  0  0  0  0  0  0  0  0  0  0
   61.2320   -2.4530    1.6120 C   0  0  0  0  0  0  0  0  0  0  0  0
   60.1320   -0.3040    1.7140 C   0  0  0  0  0  0  0  0  0  0  0  0
   61.2800   -1.0700    1.5480 C   0  0  0  0  0  0  0  0  0  0  0  0
   60.0180   -4.4380    1.8940 F   0  0  0  0  0  0  0  0  0  0  0  0
   57.3900   -3.1570    2.3180 Cl  0  0  0  0  0  0  0  0  0  0  0  0
   60.0450    7.5850    1.9890 O   0  0  0  0  0  0  0  0  0  0  0  0
   59.0180    8.5870    1.9930 C   0  0  2  0  0  0  0  0  0  0  0  0
   59.6160   10.0030    2.0510 C   0  0  0  0  0  0  0  0  0  0  0  0
   59.4570   10.5370    3.3710 O   0  0  0  0  0  0  0  0  0  0  0  0
   58.8260    9.5360    4.1610 C   0  0  0  0  0  0  0  0  0  0  0  0
   58.1310    8.5840    3.2120 C   0  0  0  0  0  0  0  0  0  0  0  0
   62.2080    6.0530    2.0140 N   0  0  0  0  0  0  0  0  0  0  0  0
   63.5120    5.5660    2.0380 C   0  0  0  0  0  0  0  0  0  0  0  0
   64.5890    6.5730    2.2730 C   0  0  0  0  0  0  0  0  0  0  0  0
   63.7630    4.3860    1.9080 O   0  0  0  0  0  0  0  0  0  0  0  0
   65.8770    6.2280    2.4670 C   0  0  0  0  0  0  0  0  0  0  0  0
   66.8930    7.3430    2.7380 C   0  0  0  0  0  0  0  0  0  0  0  0
   68.2800    7.1730    2.2210 N   0  0  0  0  0  0  0  0  0  0  0  0
   68.4710    6.0740    1.2260 C   0  0  0  0  0  0  0  0  0  0  0  0
   68.8090    8.4550    1.6750 C   0  0  0  0  0  0  0  0  0  0  0  0
   55.8624    2.0703    1.2823 H   0  0  0  0  0  0  0  0  0  0  0  0
   61.6727    3.3510    1.7672 H   0  0  0  0  0  0  0  0  0  0  0  0
   57.6734    6.3238    1.7401 H   0  0  0  0  0  0  0  0  0  0  0  0
   61.2719    1.4635    1.5040 H   0  0  0  0  0  0  0  0  0  0  0  0
   57.9968   -0.3932    2.0888 H   0  0  0  0  0  0  0  0  0  0  0  0
   62.1551   -3.0363    1.4789 H   0  0  0  0  0  0  0  0  0  0  0  0
   62.2421   -0.5699    1.3628 H   0  0  0  0  0  0  0  0  0  0  0  0
   58.4576    8.3479    1.0772 H   0  0  0  0  0  0  0  0  0  0  0  0
   60.6861    9.9593    1.8000 H   0  0  0  0  0  0  0  0  0  0  0  0
   59.0953   10.6498    1.3296 H   0  0  0  0  0  0  0  0  0  0  0  0
   59.5783    8.9944    4.7533 H   0  0  0  0  0  0  0  0  0  0  0  0
   58.1038    9.9877    4.8570 H   0  0  0  0  0  0  0  0  0  0  0  0
   57.1216    8.9440    2.9640 H   0  0  0  0  0  0  0  0  0  0  0  0
   57.9947    7.5793    3.6386 H   0  0  0  0  0  0  0  0  0  0  0  0
   62.1371    7.0744    2.1264 H   0  0  0  0  0  0  0  0  0  0  0  0
   64.3202    7.6395    2.2884 H   0  0  0  0  0  0  0  0  0  0  0  0
   66.1909    5.1743    2.4318 H   0  0  0  0  0  0  0  0  0  0  0  0
   66.4905    8.2657    2.2946 H   0  0  0  0  0  0  0  0  0  0  0  0
   67.0085    7.3463    3.8319 H   0  0  0  0  0  0  0  0  0  0  0  0
   68.6361    5.1243    1.7559 H   0  0  0  0  0  0  0  0  0  0  0  0
   67.5739    5.9907    0.5950 H   0  0  0  0  0  0  0  0  0  0  0  0
   69.3436    6.2983    0.5950 H   0  0  0  0  0  0  0  0  0  0  0  0
   69.0841    9.1216    2.5057 H   0  0  0  0  0  0  0  0  0  0  0  0
   69.6969    8.2522    1.0582 H   0  0  0  0  0  0  0  0  0  0  0  0
   68.0364    8.9374    1.0582 H   0  0  0  0  0  0  0  0  0  0  0  0
  1  2  2  0
  1  3  1  0
  2  4  1  0
  3  5  2  0
  4  6  2  0
  5  6  1  0
  6  8  1  0
  7  8  2  0
  7  9  1  0
  5 10  1  0
  9 10  2  0
  4 11  1  0
 12 13  2  0
 12 14  1  0
 13 15  1  0
 11 16  1  0
 14 16  2  0
 15 17  2  0
 16 17  1  0
 13 18  1  0
 12 19  1  0
  9 20  1  0
 20 21  1  0
 21 22  1  0
 22 23  1  0
 23 24  1  0
 21 25  1  0
 24 25  1  0
  7 26  1  0
 26 27  1  0
 27 28  1  0
 27 29  2  0
 28 30  2  0
 30 31  1  0
 31 32  1  0
 32 33  1  0
 32 34  1  0
  1 35  1  0
  8 36  1  0
 10 37  1  0
 11 38  1  0
 14 39  1  0
 15 40  1  0
 17 41  1  0
 21 42  1  6
 22 43  1  0
 22 44  1  0
 24 45  1  0
 24 46  1  0
 25 47  1  0
 25 48  1  0
 26 49  1  0
 28 50  1  0
 30 51  1  0
 31 52  1  0
 31 53  1  0
 33 54  1  0
 33 55  1  0
 33 56  1  0
 34 57  1  0
 34 58  1  0
 34 59  1  0
M  END
$$$$
