PDB_DB01167_98
     RDKit          3D

 87 93  0  0  0  0  0  0  0  0999 V2000
    9.6860   12.8000   19.5350 C   0  0  0  0  0  0  0  0  0  0  0  0
    9.2800   11.7770   18.6930 C   0  0  0  0  0  0  0  0  0  0  0  0
    6.0170   15.9850   16.1460 C   0  0  0  0  0  0  0  0  0  0  0  0
    5.7800   14.6940   15.3940 C   0  0  0  0  0  0  0  0  0  0  0  0
    5.2890   13.5870   16.3420 C   0  0  1  0  0  0  0  0  0  0  0  0
    4.3310   12.6710   15.6020 C   0  0  0  0  0  0  0  0  0  0  0  0
    6.4340   12.7660   16.8250 N   0  0  0  0  0  0  0  0  0  0  0  0
    7.4030   13.1210   17.7060 C   0  0  0  0  0  0  0  0  0  0  0  0
    7.5860   14.1970   18.2440 O   0  0  0  0  0  0  0  0  0  0  0  0
    8.1480   11.9540   17.8170 N   0  0  0  0  0  0  0  0  0  0  0  0
    7.6190   10.9830   17.0050 C   0  0  0  0  0  0  0  0  0  0  0  0
    6.5410   11.4760   16.3750 N   0  0  0  0  0  0  0  0  0  0  0  0
   10.8420   12.6660   20.2810 C   0  0  0  0  0  0  0  0  0  0  0  0
   11.6120   11.5100   20.1940 C   0  0  0  0  0  0  0  0  0  0  0  0
   11.1660   10.4670   19.3900 C   0  0  0  0  0  0  0  0  0  0  0  0
   10.0130   10.6020   18.6400 C   0  0  0  0  0  0  0  0  0  0  0  0
   12.8520   11.4540   20.7980 N   0  0  0  0  0  0  0  0  0  0  0  0
   13.5110   10.1560   20.9790 C   0  0  0  0  0  0  0  0  0  0  0  0
   14.4010    9.8110   19.7900 C   0  0  0  0  0  0  0  0  0  0  0  0
   15.3020   10.9160   19.4540 N   0  0  0  0  0  0  0  0  0  0  0  0
   15.1910   12.0660   20.3530 C   0  0  0  0  0  0  0  0  0  0  0  0
   13.7610   12.5470   20.4400 C   0  0  0  0  0  0  0  0  0  0  0  0
   16.5710   10.6060   18.9810 C   0  0  0  0  0  0  0  0  0  0  0  0
   17.2710   11.5190   18.2060 C   0  0  0  0  0  0  0  0  0  0  0  0
   18.5230   11.2120   17.7080 C   0  0  0  0  0  0  0  0  0  0  0  0
   19.0970    9.9880   17.9930 C   0  0  0  0  0  0  0  0  0  0  0  0
   18.4170    9.0670   18.7720 C   0  0  0  0  0  0  0  0  0  0  0  0
   17.1580    9.3740   19.2580 C   0  0  0  0  0  0  0  0  0  0  0  0
   20.3400    9.8450   17.4290 O   0  0  0  0  0  0  0  0  0  0  0  0
   21.0830    8.6410   17.6580 C   0  0  0  0  0  0  0  0  0  0  0  0
   22.0980    8.5320   16.5560 C   0  0  1  0  0  0  0  0  0  0  0  0
   21.5440    9.0870   15.2720 C   0  0  0  0  0  0  0  0  0  0  0  0
   21.8090   10.4650   15.3730 O   0  0  0  0  0  0  0  0  0  0  0  0
   23.0740   10.5790   16.0020 C   0  0  2  0  0  0  0  0  0  0  0  0
   23.2330    9.3990   16.7990 O   0  0  0  0  0  0  0  0  0  0  0  0
   22.9600   11.7920   16.9590 C   0  0  0  0  0  0  0  0  0  0  0  0
   24.2970   12.1580   17.3950 N   0  0  0  0  0  0  0  0  0  0  0  0
   25.1370   11.5010   18.1810 C   0  0  0  0  0  0  0  0  0  0  0  0
   26.2520   12.1710   18.3450 N   0  0  0  0  0  0  0  0  0  0  0  0
   26.0330   13.2760   17.6030 C   0  0  0  0  0  0  0  0  0  0  0  0
   24.8670   13.3280   17.0000 N   0  0  0  0  0  0  0  0  0  0  0  0
   24.1370   10.7180   14.8990 C   0  0  0  0  0  0  0  0  0  0  0  0
   24.1100   11.7220   13.9250 C   0  0  0  0  0  0  0  0  0  0  0  0
   25.0920   11.8230   12.9550 C   0  0  0  0  0  0  0  0  0  0  0  0
   26.1210   10.9080   12.9590 C   0  0  0  0  0  0  0  0  0  0  0  0
   26.1880    9.9080   13.9010 C   0  0  0  0  0  0  0  0  0  0  0  0
   25.1970    9.8210   14.8600 C   0  0  0  0  0  0  0  0  0  0  0  0
   27.3750   11.0340   11.7530 Cl  0  0  0  0  0  0  0  0  0  0  0  0
   22.8490   12.9100   13.8860 Cl  0  0  0  0  0  0  0  0  0  0  0  0
    9.0876   13.7199   19.6098 H   0  0  0  0  0  0  0  0  0  0  0  0
    5.9814   15.7908   17.2281 H   0  0  0  0  0  0  0  0  0  0  0  0
    7.0044   16.3893   15.8783 H   0  0  0  0  0  0  0  0  0  0  0  0
    5.2376   16.7136   15.8783 H   0  0  0  0  0  0  0  0  0  0  0  0
    5.0210   14.8647   14.6164 H   0  0  0  0  0  0  0  0  0  0  0  0
    6.7295   14.3724   14.9412 H   0  0  0  0  0  0  0  0  0  0  0  0
    4.7878   14.0640   17.1971 H   0  0  0  0  0  0  0  0  0  0  0  0
    3.7342   12.1004   16.3288 H   0  0  0  0  0  0  0  0  0  0  0  0
    3.6616   13.2736   14.9705 H   0  0  0  0  0  0  0  0  0  0  0  0
    4.9030   11.9753   14.9705 H   0  0  0  0  0  0  0  0  0  0  0  0
    8.0149    9.9633   16.8887 H   0  0  0  0  0  0  0  0  0  0  0  0
   11.1563   13.4808   20.9498 H   0  0  0  0  0  0  0  0  0  0  0  0
   11.7355    9.5267   19.3505 H   0  0  0  0  0  0  0  0  0  0  0  0
    9.6760    9.7741   17.9989 H   0  0  0  0  0  0  0  0  0  0  0  0
   14.1281   10.1921   21.8889 H   0  0  0  0  0  0  0  0  0  0  0  0
   12.7333    9.3828   21.0640 H   0  0  0  0  0  0  0  0  0  0  0  0
   15.0014    8.9235   20.0388 H   0  0  0  0  0  0  0  0  0  0  0  0
   13.7552    9.6165   18.9210 H   0  0  0  0  0  0  0  0  0  0  0  0
   15.5341   11.7732   21.3563 H   0  0  0  0  0  0  0  0  0  0  0  0
   15.8128   12.8825   19.9572 H   0  0  0  0  0  0  0  0  0  0  0  0
   13.4611   12.9575   19.4645 H   0  0  0  0  0  0  0  0  0  0  0  0
   13.7012   13.3184   21.2219 H   0  0  0  0  0  0  0  0  0  0  0  0
   16.8240   12.4995   17.9851 H   0  0  0  0  0  0  0  0  0  0  0  0
   19.0620   11.9413   17.0854 H   0  0  0  0  0  0  0  0  0  0  0  0
   18.8760    8.0946   19.0038 H   0  0  0  0  0  0  0  0  0  0  0  0
   16.6157    8.6375   19.8691 H   0  0  0  0  0  0  0  0  0  0  0  0
   21.5889    8.6896   18.6335 H   0  0  0  0  0  0  0  0  0  0  0  0
   20.4172    7.7654   17.6651 H   0  0  0  0  0  0  0  0  0  0  0  0
   22.3650    7.4660   16.5069 H   0  0  0  0  0  0  0  0  0  0  0  0
   22.0551    8.6504   14.4012 H   0  0  0  0  0  0  0  0  0  0  0  0
   20.4760    8.8635   15.1323 H   0  0  0  0  0  0  0  0  0  0  0  0
   22.4960   12.6388   16.4321 H   0  0  0  0  0  0  0  0  0  0  0  0
   22.3368   11.5318   17.8273 H   0  0  0  0  0  0  0  0  0  0  0  0
   24.9266   10.5220   18.6362 H   0  0  0  0  0  0  0  0  0  0  0  0
   26.7795   14.0785   17.5093 H   0  0  0  0  0  0  0  0  0  0  0  0
   25.0513   12.6182   12.1961 H   0  0  0  0  0  0  0  0  0  0  0  0
   27.0191    9.1874   13.8911 H   0  0  0  0  0  0  0  0  0  0  0  0
   25.2488    9.0203   15.6124 H   0  0  0  0  0  0  0  0  0  0  0  0
  1  2  2  0
  3  4  1  0
  4  5  1  0
  5  6  1  0
  5  7  1  0
  7  8  1  0
  8  9  2  0
  2 10  1  0
  8 10  1  0
 10 11  1  0
  7 12  1  0
 11 12  2  0
  1 13  1  0
 13 14  2  0
 14 15  1  0
  2 16  1  0
 15 16  2  0
 14 17  1  0
 17 18  1  0
 18 19  1  0
 19 20  1  0
 20 21  1  0
 17 22  1  0
 21 22  1  0
 20 23  1  0
 23 24  2  0
 24 25  1  0
 25 26  2  0
 26 27  1  0
 23 28  1  0
 27 28  2  0
 26 29  1  0
 29 30  1  0
 30 31  1  0
 31 32  1  0
 32 33  1  0
 33 34  1  0
 31 35  1  0
 34 35  1  0
 34 36  1  1
 36 37  1  0
 37 38  1  0
 38 39  2  0
 39 40  1  0
 37 41  1  0
 40 41  2  0
 34 42  1  0
 42 43  2  0
 43 44  1  0
 44 45  2  0
 45 46  1  0
 42 47  1  0
 46 47  2  0
 45 48  1  0
 43 49  1  0
  1 50  1  0
  3 51  1  0
  3 52  1  0
  3 53  1  0
  4 54  1  0
  4 55  1  0
  5 56  1  1
  6 57  1  0
  6 58  1  0
  6 59  1  0
 11 60  1  0
 13 61  1  0
 15 62  1  0
 16 63  1  0
 18 64  1  0
 18 65  1  0
 19 66  1  0
 19 67  1  0
 21 68  1  0
 21 69  1  0
 22 70  1  0
 22 71  1  0
 24 72  1  0
 25 73  1  0
 27 74  1  0
 28 75  1  0
 30 76  1  0
 30 77  1  0
 31 78  1  6
 32 79  1  0
 32 80  1  0
 36 81  1  0
 36 82  1  0
 38 83  1  0
 40 84  1  0
 44 85  1  0
 46 86  1  0
 47 87  1  0
M  END
>  <PDBID>  (1) 
5ESG

>  <PDB ID>  (1) 
5ESG

>  <Generic Name>  (1) 
Itraconazole

>  <Brand Name>  (1) 
Itraconazole#Onmel#Sporanox#Sporanox Oral Solution 10mg/ml#Itrizole#Oriconazole#Sporal

>  <DrugBank ID>  (1) 
DB01167

>  <ATC Codes>  (1) 
J02AC02

>  <Ligand ID>  (1) 
1YN

>  <Target Name>  (1) 
Lanosterol 14-alpha demethylase

>  <UniProt ID>  (1) 
P50859

>  <PDB ID.1>  (1) 
5ESG

>  <Seq. Identity>  (1) 
82%

$$$$
