PDB_DB00703_95
     RDKit          3D

 22 22  0  0  0  0  0  0  0  0999 V2000
   30.6910   -9.6400  -22.3000 N   0  0  0  0  0  0  0  0  0  0  0  0
   30.9200  -10.8370  -23.3630 S   0  0  0  0  0  0  0  0  0  0  0  0
   30.1770  -10.5640  -24.5640 O   0  0  0  0  0  0  0  0  0  0  0  0
   30.5090  -12.0700  -22.7820 O   0  0  0  0  0  0  0  0  0  0  0  0
   32.5280  -10.9170  -23.7700 C   0  0  0  0  0  0  0  0  0  0  0  0
   33.4570  -12.3520  -23.4060 S   0  0  0  0  0  0  0  0  0  0  0  0
   34.7600  -11.4810  -24.1500 C   0  0  0  0  0  0  0  0  0  0  0  0
   34.4900  -10.2570  -24.5950 N   0  0  0  0  0  0  0  0  0  0  0  0
   35.3510   -9.2580  -25.2650 C   0  0  0  0  0  0  0  0  0  0  0  0
   33.1520   -9.8800  -24.3840 N   0  0  0  0  0  0  0  0  0  0  0  0
   36.0000  -12.0230  -24.2660 N   0  0  0  0  0  0  0  0  0  0  0  0
   36.3500  -12.7480  -25.3350 C   0  0  0  0  0  0  0  0  0  0  0  0
   35.8180  -13.8210  -25.6020 O   0  0  0  0  0  0  0  0  0  0  0  0
   37.4440  -12.1670  -26.1930 C   0  0  0  0  0  0  0  0  0  0  0  0
   30.7623  -10.0128  -21.3425 H   0  0  0  0  0  0  0  0  0  0  0  0
   31.4084   -8.9144  -22.4402 H   0  0  0  0  0  0  0  0  0  0  0  0
   35.8711   -8.6546  -24.5065 H   0  0  0  0  0  0  0  0  0  0  0  0
   36.0914   -9.7746  -25.8934 H   0  0  0  0  0  0  0  0  0  0  0  0
   34.7308   -8.6019  -25.8934 H   0  0  0  0  0  0  0  0  0  0  0  0
   38.2317  -11.7486  -25.5492 H   0  0  0  0  0  0  0  0  0  0  0  0
   37.8707  -12.9573  -26.8281 H   0  0  0  0  0  0  0  0  0  0  0  0
   37.0282  -11.3709  -26.8281 H   0  0  0  0  0  0  0  0  0  0  0  0
  1  2  1  0
  2  3  2  0
  2  4  2  0
  2  5  1  0
  5  6  1  0
  6  7  1  0
  7  8  1  0
  8  9  1  0
  5 10  2  0
  8 10  1  0
  7 11  2  0
 11 12  1  0
 12 13  2  0
 12 14  1  0
  1 15  1  0
  1 16  1  0
  9 17  1  0
  9 18  1  0
  9 19  1  0
 14 20  1  0
 14 21  1  0
 14 22  1  0
M  END
$$$$
