PDB_DB01261_98
     RDKit          3D

110114  0  0  0  0  0  0  0  0999 V2000
   26.2310  -11.0030   50.9740 C   0  0  0  0  0  0  0  0  0  0  0  0
   24.9970  -11.0960   51.6130 C   0  0  0  0  0  0  0  0  0  0  0  0
   24.4590   -9.9820   52.2440 C   0  0  0  0  0  0  0  0  0  0  0  0
   25.1610   -8.7770   52.2360 C   0  0  0  0  0  0  0  0  0  0  0  0
   26.3950   -8.6880   51.5990 C   0  0  0  0  0  0  0  0  0  0  0  0
   26.9280   -9.7980   50.9680 C   0  0  0  0  0  0  0  0  0  0  0  0
   27.0710   -7.5290   51.5910 F   0  0  0  0  0  0  0  0  0  0  0  0
   24.3350  -12.2660   51.6060 F   0  0  0  0  0  0  0  0  0  0  0  0
   23.1170  -10.0560   52.9400 C   0  0  0  0  0  0  0  0  0  0  0  0
   22.1190   -9.1620   52.1990 C   0  0  2  0  0  0  0  0  0  0  0  0
   20.7100   -9.2070   52.7910 C   0  0  0  0  0  0  0  0  0  0  0  0
   20.6750   -8.8670   54.2710 C   0  0  0  0  0  0  0  0  0  0  0  0
   19.6550   -9.3140   55.0190 N   0  0  0  0  0  0  0  0  0  0  0  0
   22.0460   -9.6000   50.8170 N   0  0  0  0  0  0  0  0  0  0  0  0
   21.5600   -8.1730   54.7470 O   0  0  0  0  0  0  0  0  0  0  0  0
   18.8100  -10.4720   54.7100 C   0  0  0  0  0  0  0  0  0  0  0  0
   17.4720   -9.9030   54.2280 C   0  0  0  0  0  0  0  0  0  0  0  0
   17.0040   -8.9130   55.2030 N   0  0  0  0  0  0  0  0  0  0  0  0
   17.7850   -8.3390   56.1250 C   0  0  0  0  0  0  0  0  0  0  0  0
   19.2530   -8.6520   56.2580 C   0  0  0  0  0  0  0  0  0  0  0  0
   15.7920   -8.3910   55.3930 C   0  0  0  0  0  0  0  0  0  0  0  0
   15.7310   -7.5000   56.3940 N   0  0  0  0  0  0  0  0  0  0  0  0
   17.0520   -7.4740   56.8730 N   0  0  0  0  0  0  0  0  0  0  0  0
   14.5860   -8.7510   54.5730 C   0  0  2  0  0  0  0  0  0  0  0  0
   14.2690  -10.0130   54.7960 F   0  0  0  0  0  0  0  0  0  0  0  0
   14.8560   -8.5760   53.2930 F   0  0  0  0  0  0  0  0  0  0  0  0
   13.5680   -7.9780   54.9060 F   0  0  0  0  0  0  0  0  0  0  0  0
   28.1220   -9.7080   50.3570 F   0  0  0  0  0  0  0  0  0  0  0  0
   49.0150  -31.7750   29.5060 C   0  0  0  0  0  0  0  0  0  0  0  0
   49.8120  -31.6550   28.3700 C   0  0  0  0  0  0  0  0  0  0  0  0
   50.4710  -32.7710   27.8680 C   0  0  0  0  0  0  0  0  0  0  0  0
   50.3360  -34.0020   28.5030 C   0  0  0  0  0  0  0  0  0  0  0  0
   49.5410  -34.1180   29.6400 C   0  0  0  0  0  0  0  0  0  0  0  0
   48.8820  -33.0080   30.1400 C   0  0  0  0  0  0  0  0  0  0  0  0
   49.4090  -35.3050   30.2540 F   0  0  0  0  0  0  0  0  0  0  0  0
   49.9300  -30.4580   27.7670 F   0  0  0  0  0  0  0  0  0  0  0  0
   51.3400  -32.6720   26.6340 C   0  0  0  0  0  0  0  0  0  0  0  0
   50.6060  -33.2570   25.4270 C   0  0  2  0  0  0  0  0  0  0  0  0
   51.3780  -32.9690   24.1400 C   0  0  0  0  0  0  0  0  0  0  0  0
   52.6590  -33.7790   24.0320 C   0  0  0  0  0  0  0  0  0  0  0  0
   53.5160  -33.5150   23.0310 N   0  0  0  0  0  0  0  0  0  0  0  0
   49.2870  -32.6620   25.3200 N   0  0  0  0  0  0  0  0  0  0  0  0
   52.8900  -34.6610   24.8450 O   0  0  0  0  0  0  0  0  0  0  0  0
   53.5610  -32.2660   22.2610 C   0  0  0  0  0  0  0  0  0  0  0  0
   53.0740  -32.5890   20.8460 C   0  0  0  0  0  0  0  0  0  0  0  0
   53.8610  -33.7110   20.3300 N   0  0  0  0  0  0  0  0  0  0  0  0
   54.5210  -34.5750   21.1050 C   0  0  0  0  0  0  0  0  0  0  0  0
   54.5240  -34.4900   22.6100 C   0  0  0  0  0  0  0  0  0  0  0  0
   54.0920  -34.1080   19.0780 C   0  0  0  0  0  0  0  0  0  0  0  0
   54.8750  -35.1920   18.9840 N   0  0  0  0  0  0  0  0  0  0  0  0
   55.1530  -35.4930   20.3280 N   0  0  0  0  0  0  0  0  0  0  0  0
   53.5420  -33.4160   17.8640 C   0  0  2  0  0  0  0  0  0  0  0  0
   54.1230  -32.2350   17.7460 F   0  0  0  0  0  0  0  0  0  0  0  0
   52.2360  -33.2650   17.9900 F   0  0  0  0  0  0  0  0  0  0  0  0
   53.7920  -34.1320   16.7830 F   0  0  0  0  0  0  0  0  0  0  0  0
   48.1170  -33.1250   31.2390 F   0  0  0  0  0  0  0  0  0  0  0  0
   26.8891  -11.7469   51.4468 H   0  0  0  0  0  0  0  0  0  0  0  0
   25.9758  -11.1499   49.9141 H   0  0  0  0  0  0  0  0  0  0  0  0
   25.5024  -11.3812   52.5475 H   0  0  0  0  0  0  0  0  0  0  0  0
   24.9620  -10.2688   53.1793 H   0  0  0  0  0  0  0  0  0  0  0  0
   24.5055   -8.0323   51.7609 H   0  0  0  0  0  0  0  0  0  0  0  0
   25.4158   -8.6294   53.2958 H   0  0  0  0  0  0  0  0  0  0  0  0
   26.8982   -8.9775   52.5333 H   0  0  0  0  0  0  0  0  0  0  0  0
   26.4223   -9.5102   50.0345 H   0  0  0  0  0  0  0  0  0  0  0  0
   22.7558  -11.0950   52.9343 H   0  0  0  0  0  0  0  0  0  0  0  0
   23.2196   -9.7142   53.9805 H   0  0  0  0  0  0  0  0  0  0  0  0
   22.4809   -8.1273   52.2905 H   0  0  0  0  0  0  0  0  0  0  0  0
   20.0800   -8.4850   52.2508 H   0  0  0  0  0  0  0  0  0  0  0  0
   20.3410  -10.2375   52.6821 H   0  0  0  0  0  0  0  0  0  0  0  0
   20.1092   -7.9506   54.0471 H   0  0  0  0  0  0  0  0  0  0  0  0
   21.8767  -10.6156   50.7872 H   0  0  0  0  0  0  0  0  0  0  0  0
   21.2752   -9.1094   50.3416 H   0  0  0  0  0  0  0  0  0  0  0  0
   21.5129   -8.2100   55.7352 H   0  0  0  0  0  0  0  0  0  0  0  0
   19.2723  -11.0824   53.9202 H   0  0  0  0  0  0  0  0  0  0  0  0
   18.6785  -11.1203   55.5889 H   0  0  0  0  0  0  0  0  0  0  0  0
   17.6057   -9.4225   53.2476 H   0  0  0  0  0  0  0  0  0  0  0  0
   16.7334  -10.7124   54.1314 H   0  0  0  0  0  0  0  0  0  0  0  0
   17.5483   -9.1495   56.8301 H   0  0  0  0  0  0  0  0  0  0  0  0
   19.4222   -9.3189   57.1163 H   0  0  0  0  0  0  0  0  0  0  0  0
   19.8392   -7.7364   56.4257 H   0  0  0  0  0  0  0  0  0  0  0  0
   15.5541   -9.2004   56.0989 H   0  0  0  0  0  0  0  0  0  0  0  0
   15.4441   -6.5732   56.0481 H   0  0  0  0  0  0  0  0  0  0  0  0
   17.0715   -7.7629   57.8615 H   0  0  0  0  0  0  0  0  0  0  0  0
   49.4207  -31.0768   30.2529 H   0  0  0  0  0  0  0  0  0  0  0  0
   48.0023  -31.5781   29.1244 H   0  0  0  0  0  0  0  0  0  0  0  0
   50.6814  -31.4268   29.0041 H   0  0  0  0  0  0  0  0  0  0  0  0
   51.3418  -32.5408   28.4994 H   0  0  0  0  0  0  0  0  0  0  0  0
   49.9270  -34.7000   27.7577 H   0  0  0  0  0  0  0  0  0  0  0  0
   51.3489  -34.2016   28.8828 H   0  0  0  0  0  0  0  0  0  0  0  0
   50.4110  -33.8862   30.2720 H   0  0  0  0  0  0  0  0  0  0  0  0
   48.0123  -33.2394   29.5075 H   0  0  0  0  0  0  0  0  0  0  0  0
   51.5765  -31.6155   26.4392 H   0  0  0  0  0  0  0  0  0  0  0  0
   52.2681  -33.2384   26.8005 H   0  0  0  0  0  0  0  0  0  0  0  0
   50.5216  -34.3447   25.5673 H   0  0  0  0  0  0  0  0  0  0  0  0
   50.7345  -33.2118   23.2816 H   0  0  0  0  0  0  0  0  0  0  0  0
   51.6571  -31.9050   24.1505 H   0  0  0  0  0  0  0  0  0  0  0  0
   52.1417  -34.5122   23.3958 H   0  0  0  0  0  0  0  0  0  0  0  0
   48.9096  -32.4918   26.2631 H   0  0  0  0  0  0  0  0  0  0  0  0
   49.3533  -31.7693   24.8105 H   0  0  0  0  0  0  0  0  0  0  0  0
   52.7950  -34.2983   25.7613 H   0  0  0  0  0  0  0  0  0  0  0  0
   52.9042  -31.5144   22.7233 H   0  0  0  0  0  0  0  0  0  0  0  0
   54.5821  -31.8574   22.2389 H   0  0  0  0  0  0  0  0  0  0  0  0
   52.0092  -32.8639   20.8735 H   0  0  0  0  0  0  0  0  0  0  0  0
   53.1966  -31.7109   20.1949 H   0  0  0  0  0  0  0  0  0  0  0  0
   55.4109  -33.9295   21.0668 H   0  0  0  0  0  0  0  0  0  0  0  0
   55.5165  -34.1698   22.9600 H   0  0  0  0  0  0  0  0  0  0  0  0
   54.2921  -35.4756   23.0398 H   0  0  0  0  0  0  0  0  0  0  0  0
   54.9814  -33.4620   19.0373 H   0  0  0  0  0  0  0  0  0  0  0  0
   54.3790  -35.9692   18.5247 H   0  0  0  0  0  0  0  0  0  0  0  0
   56.1688  -35.4498   20.4926 H   0  0  0  0  0  0  0  0  0  0  0  0
  1  2  1  0
  2  3  1  0
  3  4  1  0
  4  5  1  0
  1  6  1  0
  5  6  1  0
  5  7  1  0
  2  8  1  0
  3  9  1  0
  9 10  1  0
 10 11  1  0
 11 12  1  0
 12 13  1  0
 10 14  1  0
 12 15  1  0
 13 16  1  0
 16 17  1  0
 17 18  1  0
 18 19  1  0
 13 20  1  0
 19 20  1  0
 18 21  1  0
 21 22  1  0
 19 23  1  0
 22 23  1  0
 21 24  1  0
 24 25  1  6
 24 26  1  0
 24 27  1  0
  6 28  1  0
 29 30  1  0
 30 31  1  0
 31 32  1  0
 32 33  1  0
 29 34  1  0
 33 34  1  0
 33 35  1  0
 30 36  1  0
 31 37  1  0
 37 38  1  0
 38 39  1  0
 39 40  1  0
 40 41  1  0
 38 42  1  0
 40 43  1  0
 41 44  1  0
 44 45  1  0
 45 46  1  0
 46 47  1  0
 41 48  1  0
 47 48  1  0
 46 49  1  0
 49 50  1  0
 47 51  1  0
 50 51  1  0
 49 52  1  0
 52 53  1  6
 52 54  1  0
 52 55  1  0
 34 56  1  0
  1 57  1  0
  1 58  1  0
  2 59  1  0
  3 60  1  0
  4 61  1  0
  4 62  1  0
  5 63  1  0
  6 64  1  0
  9 65  1  0
  9 66  1  0
 10 67  1  6
 11 68  1  0
 11 69  1  0
 12 70  1  0
 14 71  1  0
 14 72  1  0
 15 73  1  0
 16 74  1  0
 16 75  1  0
 17 76  1  0
 17 77  1  0
 19 78  1  0
 20 79  1  0
 20 80  1  0
 21 81  1  0
 22 82  1  0
 23 83  1  0
 29 84  1  0
 29 85  1  0
 30 86  1  0
 31 87  1  0
 32 88  1  0
 32 89  1  0
 33 90  1  0
 34 91  1  0
 37 92  1  0
 37 93  1  0
 38 94  1  1
 39 95  1  0
 39 96  1  0
 40 97  1  0
 42 98  1  0
 42 99  1  0
 43100  1  0
 44101  1  0
 44102  1  0
 45103  1  0
 45104  1  0
 47105  1  0
 48106  1  0
 48107  1  0
 49108  1  0
 50109  1  0
 51110  1  0
M  END
>  <PDBID>  (1) 
4FFW

>  <PDB ID>  (1) 
4FFW

>  <Generic Name>  (1) 
Sitagliptin

>  <Brand Name>  (1) 
Janumet#Janumet XR#Januvia#Xelevia

>  <DrugBank ID>  (1) 
DB01261

>  <ATC Codes>  (1) 
A10BD12#A10BH51#A10BH01#A10BD07

>  <Ligand ID>  (1) 
715

>  <Target Name>  (1) 
Dipeptidyl peptidase 4

>  <UniProt ID>  (1) 
P27487

>  <PDB ID.1>  (1) 
4FFW

>  <Seq. Identity>  (1) 
85%

$$$$
