PDB_DB00570_96
     RDKit          3D

117125  0  0  0  0  0  0  0  0999 V2000
    9.4380   88.4060  100.3320 C   0  0  0  0  0  0  0  0  0  0  0  0
   10.0370   87.0710  100.8280 C   0  0  0  0  0  0  0  0  0  0  0  0
   11.2510   87.1040  101.7940 C   0  0  1  0  0  0  0  0  0  0  0  0
   12.0900   85.9860  101.5290 O   0  0  0  0  0  0  0  0  0  0  0  0
   12.1450   88.3600  101.6070 C   0  0  0  0  0  0  0  0  0  0  0  0
   10.7330   86.8760  103.2330 C   0  0  0  0  0  0  0  0  0  0  0  0
   10.9160   88.0740  104.1760 C   0  0  1  0  0  0  0  0  0  0  0  0
   12.3240   87.9780  104.8580 C   0  0  0  0  0  0  0  0  0  0  0  0
   10.6140   89.3450  103.3430 C   0  0  0  0  0  0  0  0  0  0  0  0
   11.5800   89.5710  102.2300 N   0  0  0  0  0  0  0  0  0  0  0  0
   12.5950   90.6460  102.4190 C   0  0  0  0  0  0  0  0  0  0  0  0
   13.3910   90.6100  103.7390 C   0  0  0  0  0  0  0  0  0  0  0  0
   12.5260   91.0340  104.9490 C   0  0  0  0  0  0  0  0  0  0  0  0
   11.9960   92.3040  105.1030 C   0  0  0  0  0  0  0  0  0  0  0  0
   12.0830   93.4680  104.3050 C   0  0  0  0  0  0  0  0  0  0  0  0
   11.4270   94.6310  104.7220 C   0  0  0  0  0  0  0  0  0  0  0  0
   10.7050   94.6330  105.9340 C   0  0  0  0  0  0  0  0  0  0  0  0
   10.6270   93.4690  106.7290 C   0  0  0  0  0  0  0  0  0  0  0  0
   11.2750   92.2960  106.3110 C   0  0  0  0  0  0  0  0  0  0  0  0
   11.3670   91.0730  106.8430 N   0  0  0  0  0  0  0  0  0  0  0  0
   12.0970   90.2590  106.0580 C   0  0  0  0  0  0  0  0  0  0  0  0
   12.5320   88.7580  106.1920 C   0  0  2  0  0  0  0  0  0  0  0  0
   14.0240   88.9170  106.5950 C   0  0  0  0  0  0  0  0  0  0  0  0
   14.2800   89.5630  107.6270 O   0  0  0  0  0  0  0  0  0  0  0  0
   15.0440   88.3500  105.8630 O   0  0  0  0  0  0  0  0  0  0  0  0
   16.1250   87.8970  106.7050 C   0  0  0  0  0  0  0  0  0  0  0  0
   11.7610   87.8930  107.2480 C   0  0  0  0  0  0  0  0  0  0  0  0
   10.3870   88.1270  107.4320 C   0  0  0  0  0  0  0  0  0  0  0  0
    9.6380   87.3780  108.3380 C   0  0  0  0  0  0  0  0  0  0  0  0
    8.1920   87.4780  108.6920 C   0  0  1  0  0  0  0  0  0  0  0  0
    8.0300   88.8430  109.3990 C   0  0  1  0  0  0  0  0  0  0  0  0
    7.3600   87.5550  107.4140 C   0  0  0  0  0  0  0  0  0  0  0  0
    6.3270   88.6520  107.6780 C   0  0  0  0  0  0  0  0  0  0  0  0
    6.8270   89.5010  108.7820 N   0  0  0  0  0  0  0  0  0  0  0  0
    5.7300   89.8220  109.7330 C   0  0  0  0  0  0  0  0  0  0  0  0
    6.2420   90.4590  110.8620 C   0  0  0  0  0  0  0  0  0  0  0  0
    7.4140   89.9720  111.4660 C   0  0  0  0  0  0  0  0  0  0  0  0
    8.0940   88.8310  110.9770 C   0  0  2  0  0  0  0  0  0  0  0  0
    9.5590   89.0520  111.4290 C   0  0  0  0  0  0  0  0  0  0  0  0
   10.3090   87.9000  112.1230 C   0  0  0  0  0  0  0  0  0  0  0  0
    7.4640   87.5220  111.6250 C   0  0  1  0  0  0  0  0  0  0  0  0
    6.4330   87.8050  112.6270 O   0  0  0  0  0  0  0  0  0  0  0  0
    6.8530   87.7650  113.9460 C   0  0  0  0  0  0  0  0  0  0  0  0
    8.0260   88.3910  114.4070 C   0  0  0  0  0  0  0  0  0  0  0  0
    6.1380   87.1800  114.7690 O   0  0  0  0  0  0  0  0  0  0  0  0
    6.9630   86.3970  110.6690 C   0  0  1  0  0  0  0  0  0  0  0  0
    6.7870   85.0620  111.4250 C   0  0  0  0  0  0  0  0  0  0  0  0
    5.8380   84.2970  111.1670 O   0  0  0  0  0  0  0  0  0  0  0  0
    7.7440   84.7020  112.3350 O   0  0  0  0  0  0  0  0  0  0  0  0
    7.2040   84.4030  113.6300 C   0  0  0  0  0  0  0  0  0  0  0  0
    5.6760   86.7480  110.1280 O   0  0  0  0  0  0  0  0  0  0  0  0
    7.9550   86.2060  109.4960 C   0  0  2  0  0  0  0  0  0  0  0  0
    9.3090   85.7730  109.9140 N   0  0  0  0  0  0  0  0  0  0  0  0
    9.4160   84.3180  109.7240 C   0  0  0  0  0  0  0  0  0  0  0  0
   10.2080   86.3590  109.1100 C   0  0  0  0  0  0  0  0  0  0  0  0
   11.5700   86.1040  108.9430 C   0  0  0  0  0  0  0  0  0  0  0  0
   12.3420   86.8330  108.0330 C   0  0  0  0  0  0  0  0  0  0  0  0
   13.6330   86.4550  107.9770 O   0  0  0  0  0  0  0  0  0  0  0  0
   13.7840   85.5400  106.8910 C   0  0  0  0  0  0  0  0  0  0  0  0
    9.1595   89.0266  101.1965 H   0  0  0  0  0  0  0  0  0  0  0  0
   10.1834   88.9386   99.7232 H   0  0  0  0  0  0  0  0  0  0  0  0
    8.5446   88.2033   99.7232 H   0  0  0  0  0  0  0  0  0  0  0  0
    9.2307   86.5272  101.3420 H   0  0  0  0  0  0  0  0  0  0  0  0
   10.4387   86.6068   99.9152 H   0  0  0  0  0  0  0  0  0  0  0  0
   12.3890   85.5876  102.3846 H   0  0  0  0  0  0  0  0  0  0  0  0
   13.1280   88.1603  102.0586 H   0  0  0  0  0  0  0  0  0  0  0  0
   12.2190   88.5516  100.5263 H   0  0  0  0  0  0  0  0  0  0  0  0
    9.6593   86.6434  103.1782 H   0  0  0  0  0  0  0  0  0  0  0  0
   11.3317   86.0544  103.6532 H   0  0  0  0  0  0  0  0  0  0  0  0
   10.2211   88.0991  105.0284 H   0  0  0  0  0  0  0  0  0  0  0  0
   12.5187   86.9151  105.0639 H   0  0  0  0  0  0  0  0  0  0  0  0
   13.0139   88.4530  104.1450 H   0  0  0  0  0  0  0  0  0  0  0  0
    9.6055   89.2487  102.9144 H   0  0  0  0  0  0  0  0  0  0  0  0
   10.6981   90.2050  104.0236 H   0  0  0  0  0  0  0  0  0  0  0  0
   13.3158   90.5756  101.5910 H   0  0  0  0  0  0  0  0  0  0  0  0
   12.0246   91.5862  102.4462 H   0  0  0  0  0  0  0  0  0  0  0  0
   13.7567   89.5860  103.9053 H   0  0  0  0  0  0  0  0  0  0  0  0
   14.2255   91.3214  103.6520 H   0  0  0  0  0  0  0  0  0  0  0  0
   12.6593   93.4591  103.3681 H   0  0  0  0  0  0  0  0  0  0  0  0
   11.4740   95.5415  104.1066 H   0  0  0  0  0  0  0  0  0  0  0  0
   10.1972   95.5516  106.2632 H   0  0  0  0  0  0  0  0  0  0  0  0
   10.0608   93.4812  107.6720 H   0  0  0  0  0  0  0  0  0  0  0  0
   10.9364   90.7910  107.7352 H   0  0  0  0  0  0  0  0  0  0  0  0
   15.8416   88.0158  107.7612 H   0  0  0  0  0  0  0  0  0  0  0  0
   16.3316   86.8366  106.4978 H   0  0  0  0  0  0  0  0  0  0  0  0
   17.0258   88.4933  106.4978 H   0  0  0  0  0  0  0  0  0  0  0  0
    9.8926   88.9178  106.8487 H   0  0  0  0  0  0  0  0  0  0  0  0
    8.9225   89.4606  109.2199 H   0  0  0  0  0  0  0  0  0  0  0  0
    7.9944   87.8202  106.5553 H   0  0  0  0  0  0  0  0  0  0  0  0
    6.8866   86.5922  107.1711 H   0  0  0  0  0  0  0  0  0  0  0  0
    6.1906   89.2610  106.7722 H   0  0  0  0  0  0  0  0  0  0  0  0
    5.3592   88.2055  107.9501 H   0  0  0  0  0  0  0  0  0  0  0  0
    5.0040   90.4850  109.2397 H   0  0  0  0  0  0  0  0  0  0  0  0
    5.2373   88.8879  110.0407 H   0  0  0  0  0  0  0  0  0  0  0  0
    5.7309   91.3394  111.2787 H   0  0  0  0  0  0  0  0  0  0  0  0
    7.8156   90.4943  112.3469 H   0  0  0  0  0  0  0  0  0  0  0  0
   10.1365   89.3178  110.5313 H   0  0  0  0  0  0  0  0  0  0  0  0
    9.4803   89.8230  112.2096 H   0  0  0  0  0  0  0  0  0  0  0  0
   10.2326   88.0174  113.2140 H   0  0  0  0  0  0  0  0  0  0  0  0
    9.8624   86.9398  111.8254 H   0  0  0  0  0  0  0  0  0  0  0  0
   11.3678   87.9199  111.8254 H   0  0  0  0  0  0  0  0  0  0  0  0
    8.3604   87.1023  112.1050 H   0  0  0  0  0  0  0  0  0  0  0  0
    8.0319   88.3941  115.5070 H   0  0  0  0  0  0  0  0  0  0  0  0
    8.9044   87.8417  114.0372 H   0  0  0  0  0  0  0  0  0  0  0  0
    8.0586   89.4265  114.0372 H   0  0  0  0  0  0  0  0  0  0  0  0
    7.8850   84.7801  114.4072 H   0  0  0  0  0  0  0  0  0  0  0  0
    6.2214   84.8856  113.7379 H   0  0  0  0  0  0  0  0  0  0  0  0
    7.0915   83.3141  113.7379 H   0  0  0  0  0  0  0  0  0  0  0  0
    5.0425   86.9208  110.8689 H   0  0  0  0  0  0  0  0  0  0  0  0
    7.4552   85.4291  108.8988 H   0  0  0  0  0  0  0  0  0  0  0  0
    9.4525   83.8218  110.7051 H   0  0  0  0  0  0  0  0  0  0  0  0
    8.5420   83.9563  109.1624 H   0  0  0  0  0  0  0  0  0  0  0  0
   10.3335   84.0880  109.1624 H   0  0  0  0  0  0  0  0  0  0  0  0
   12.0465   85.3125  109.5401 H   0  0  0  0  0  0  0  0  0  0  0  0
   13.9512   84.5269  107.2856 H   0  0  0  0  0  0  0  0  0  0  0  0
   12.8724   85.5479  106.2754 H   0  0  0  0  0  0  0  0  0  0  0  0
   14.6447   85.8404  106.2754 H   0  0  0  0  0  0  0  0  0  0  0  0
  1  2  1  0
  2  3  1  0
  3  4  1  6
  3  5  1  0
  3  6  1  0
  6  7  1  0
  7  8  1  0
  7  9  1  0
  5 10  1  0
  9 10  1  0
 10 11  1  0
 11 12  1  0
 12 13  1  0
 13 14  1  0
 14 15  1  0
 15 16  2  0
 16 17  1  0
 17 18  2  0
 14 19  2  0
 18 19  1  0
 19 20  1  0
 13 21  2  0
 20 21  1  0
  8 22  1  0
 21 22  1  0
 22 23  1  1
 23 24  2  0
 23 25  1  0
 25 26  1  0
 22 27  1  0
 27 28  2  0
 28 29  1  0
 29 30  1  0
 30 31  1  0
 30 32  1  6
 32 33  1  0
 31 34  1  0
 33 34  1  0
 34 35  1  0
 35 36  1  0
 36 37  2  0
 31 38  1  0
 37 38  1  0
 38 39  1  6
 39 40  1  0
 38 41  1  0
 41 42  1  0
 42 43  1  0
 43 44  1  0
 43 45  2  0
 41 46  1  0
 46 47  1  0
 47 48  2  0
 47 49  1  0
 49 50  1  0
 46 51  1  6
 30 52  1  0
 46 52  1  0
 52 53  1  0
 53 54  1  0
 29 55  2  0
 53 55  1  0
 55 56  1  0
 27 57  1  0
 56 57  2  0
 57 58  1  0
 58 59  1  0
  1 60  1  0
  1 61  1  0
  1 62  1  0
  2 63  1  0
  2 64  1  0
  4 65  1  0
  5 66  1  0
  5 67  1  0
  6 68  1  0
  6 69  1  0
  7 70  1  1
  8 71  1  0
  8 72  1  0
  9 73  1  0
  9 74  1  0
 11 75  1  0
 11 76  1  0
 12 77  1  0
 12 78  1  0
 15 79  1  0
 16 80  1  0
 17 81  1  0
 18 82  1  0
 20 83  1  0
 26 84  1  0
 26 85  1  0
 26 86  1  0
 28 87  1  0
 31 88  1  6
 32 89  1  0
 32 90  1  0
 33 91  1  0
 33 92  1  0
 35 93  1  0
 35 94  1  0
 36 95  1  0
 37 96  1  0
 39 97  1  0
 39 98  1  0
 40 99  1  0
 40100  1  0
 40101  1  0
 41102  1  1
 44103  1  0
 44104  1  0
 44105  1  0
 50106  1  0
 50107  1  0
 50108  1  0
 51109  1  0
 52110  1  6
 54111  1  0
 54112  1  0
 54113  1  0
 56114  1  0
 59115  1  0
 59116  1  0
 59117  1  0
M  END
>  <PDBID>  (1) 
4EB6

>  <PDB ID>  (1) 
4EB6

>  <Generic Name>  (1) 
Vinblastine

>  <Brand Name>  (1) 
Velbe 1mg/ml#Vinblastine Sulfate#Vinblastine Sulfate Inj 1mg/ml#Vinblastine Sulfate Injection#Vinblastine Sulphate Injection#Blastivin#Cytoblastin#Lemblastine#Oncostin#Velban#Velbastin#Velbe#Vinblasin#Vinblastin#Vinko#Weibaoding#Xintoprost

>  <DrugBank ID>  (1) 
DB00570

>  <ATC Codes>  (1) 
L01CA01

>  <Ligand ID>  (1) 
VLB

>  <Target Name>  (1) 
Tubulin alpha-1A chain

>  <UniProt ID>  (1) 
Q71U36

>  <PDB ID.1>  (1) 
4EB6

>  <Seq. Identity>  (1) 
97%

$$$$
