PDB_DB00220_97
     RDKit          3D

101104  0  0  0  0  0  0  0  0999 V2000
  -12.8470   13.7840   27.6230 C   0  0  2  0  0  0  0  0  0  0  0  0
  -12.6750   12.9750   28.9230 C   0  0  1  0  0  0  0  0  0  0  0  0
  -12.8840   11.4660   28.7450 C   0  0  0  0  0  0  0  0  0  0  0  0
  -12.1810   10.9280   27.4960 C   0  0  0  0  0  0  0  0  0  0  0  0
  -12.6230   11.7100   26.2680 C   0  0  0  0  0  0  0  0  0  0  0  0
  -12.1690   13.1600   26.4020 C   0  0  0  0  0  0  0  0  0  0  0  0
  -11.0390   15.3410   28.3640 N   0  0  0  0  0  0  0  0  0  0  0  0
  -11.0360   14.7060   29.6950 C   0  0  1  0  0  0  0  0  0  0  0  0
  -11.3080   13.2100   29.5690 C   0  0  0  0  0  0  0  0  0  0  0  0
  -12.3760   15.2340   27.7480 C   0  0  0  0  0  0  0  0  0  0  0  0
   -9.6980   14.8390   30.3560 C   0  0  0  0  0  0  0  0  0  0  0  0
   -9.7250   15.1520   31.6500 N   0  0  0  0  0  0  0  0  0  0  0  0
   -8.5370   15.3490   32.4790 C   0  0  2  0  0  0  0  0  0  0  0  0
   -7.6660   16.4330   31.8560 C   0  0  0  0  0  0  0  0  0  0  0  0
   -7.7750   14.0410   32.6220 C   0  0  0  0  0  0  0  0  0  0  0  0
   -8.9680   15.7660   33.8770 C   0  0  0  0  0  0  0  0  0  0  0  0
   -8.6920   14.6310   29.7010 O   0  0  0  0  0  0  0  0  0  0  0  0
  -10.6700   16.7630   28.4400 C   0  0  0  0  0  0  0  0  0  0  0  0
  -10.0980   17.1960   27.0930 C   0  0  2  0  0  0  0  0  0  0  0  0
   -8.6250   16.8290   26.9330 C   0  0  1  0  0  0  0  0  0  0  0  0
  -10.2860   18.5980   26.9020 O   0  0  0  0  0  0  0  0  0  0  0  0
   -8.2830   17.0440   25.5490 N   0  0  0  0  0  0  0  0  0  0  0  0
   -7.6960   17.6510   27.8270 C   0  0  0  0  0  0  0  0  0  0  0  0
   -8.0140   16.0640   24.6890 C   0  0  0  0  0  0  0  0  0  0  0  0
   -8.0650   14.8740   24.9720 O   0  0  0  0  0  0  0  0  0  0  0  0
   -7.6030   16.4850   23.3120 C   0  0  0  0  0  0  0  0  0  0  0  0
   -6.4110   17.2000   23.1280 C   0  0  0  0  0  0  0  0  0  0  0  0
   -6.0090   17.6100   21.8540 C   0  0  0  0  0  0  0  0  0  0  0  0
   -6.7760   17.3300   20.7190 C   0  0  0  0  0  0  0  0  0  0  0  0
   -7.9760   16.6240   20.8140 C   0  0  0  0  0  0  0  0  0  0  0  0
   -8.4530   16.1680   22.1380 C   0  0  0  0  0  0  0  0  0  0  0  0
   -8.7130   16.3550   19.7040 O   0  0  0  0  0  0  0  0  0  0  0  0
   -9.7450   15.3980   22.2760 C   0  0  0  0  0  0  0  0  0  0  0  0
   -6.1250   16.8550   27.9280 S   0  0  0  0  0  0  0  0  0  0  0  0
   -5.1280   17.5380   26.7320 C   0  0  0  0  0  0  0  0  0  0  0  0
   -4.0170   16.8290   26.2710 C   0  0  0  0  0  0  0  0  0  0  0  0
   -3.1850   17.3760   25.2950 C   0  0  0  0  0  0  0  0  0  0  0  0
   -3.4600   18.6370   24.7740 C   0  0  0  0  0  0  0  0  0  0  0  0
   -4.5690   19.3480   25.2260 C   0  0  0  0  0  0  0  0  0  0  0  0
   -5.3980   18.8000   26.2050 C   0  0  0  0  0  0  0  0  0  0  0  0
  -13.9351   13.7652   27.4626 H   0  0  0  0  0  0  0  0  0  0  0  0
  -13.4695   13.3506   29.5846 H   0  0  0  0  0  0  0  0  0  0  0  0
  -12.4839   10.9464   29.6282 H   0  0  0  0  0  0  0  0  0  0  0  0
  -13.9630   11.2860   28.6291 H   0  0  0  0  0  0  0  0  0  0  0  0
  -11.0926   11.0293   27.6193 H   0  0  0  0  0  0  0  0  0  0  0  0
  -12.4461    9.8688   27.3624 H   0  0  0  0  0  0  0  0  0  0  0  0
  -12.1727   11.2658   25.3680 H   0  0  0  0  0  0  0  0  0  0  0  0
  -13.7192   11.6739   26.1836 H   0  0  0  0  0  0  0  0  0  0  0  0
  -12.4506   13.7196   25.4978 H   0  0  0  0  0  0  0  0  0  0  0  0
  -11.0765   13.1973   26.5244 H   0  0  0  0  0  0  0  0  0  0  0  0
  -11.8136   15.2091   30.2885 H   0  0  0  0  0  0  0  0  0  0  0  0
  -11.2952   12.7527   30.5693 H   0  0  0  0  0  0  0  0  0  0  0  0
  -10.5297   12.7551   28.9386 H   0  0  0  0  0  0  0  0  0  0  0  0
  -12.3388   15.6810   26.7436 H   0  0  0  0  0  0  0  0  0  0  0  0
  -13.0880   15.7626   28.3988 H   0  0  0  0  0  0  0  0  0  0  0  0
   -9.6767   15.9081   30.0979 H   0  0  0  0  0  0  0  0  0  0  0  0
  -10.2544   16.0335   31.7107 H   0  0  0  0  0  0  0  0  0  0  0  0
   -7.1908   17.0244   32.6525 H   0  0  0  0  0  0  0  0  0  0  0  0
   -6.8891   15.9660   31.2329 H   0  0  0  0  0  0  0  0  0  0  0  0
   -8.2893   17.0911   31.2329 H   0  0  0  0  0  0  0  0  0  0  0  0
   -7.6403   13.8099   33.6890 H   0  0  0  0  0  0  0  0  0  0  0  0
   -8.3428   13.2313   32.1402 H   0  0  0  0  0  0  0  0  0  0  0  0
   -6.7906   14.1355   32.1402 H   0  0  0  0  0  0  0  0  0  0  0  0
   -8.3869   15.2038   34.6228 H   0  0  0  0  0  0  0  0  0  0  0  0
   -8.7899   16.8434   34.0095 H   0  0  0  0  0  0  0  0  0  0  0  0
  -10.0389   15.5524   34.0095 H   0  0  0  0  0  0  0  0  0  0  0  0
   -7.9281   14.4731   30.3106 H   0  0  0  0  0  0  0  0  0  0  0  0
  -11.5611   17.3641   28.6735 H   0  0  0  0  0  0  0  0  0  0  0  0
   -9.9192   16.9123   29.2300 H   0  0  0  0  0  0  0  0  0  0  0  0
  -10.6500   16.6445   26.3177 H   0  0  0  0  0  0  0  0  0  0  0  0
   -8.4891   15.7811   27.2387 H   0  0  0  0  0  0  0  0  0  0  0  0
  -10.3461   19.0459   27.7828 H   0  0  0  0  0  0  0  0  0  0  0  0
   -9.0747   17.5628   25.1428 H   0  0  0  0  0  0  0  0  0  0  0  0
   -7.5710   18.6570   27.3999 H   0  0  0  0  0  0  0  0  0  0  0  0
   -8.1320   17.7327   28.8336 H   0  0  0  0  0  0  0  0  0  0  0  0
   -6.9563   16.0902   24.9899 H   0  0  0  0  0  0  0  0  0  0  0  0
   -8.0695   14.7688   25.9564 H   0  0  0  0  0  0  0  0  0  0  0  0
   -8.1508   17.4306   23.4376 H   0  0  0  0  0  0  0  0  0  0  0  0
   -6.4951   18.1114   23.7382 H   0  0  0  0  0  0  0  0  0  0  0  0
   -5.6412   16.4628   23.3999 H   0  0  0  0  0  0  0  0  0  0  0  0
   -5.9085   18.7045   21.8979 H   0  0  0  0  0  0  0  0  0  0  0  0
   -5.1073   17.0031   21.6847 H   0  0  0  0  0  0  0  0  0  0  0  0
   -7.0201   18.2997   20.2606 H   0  0  0  0  0  0  0  0  0  0  0  0
   -6.1323   16.6349   20.1600 H   0  0  0  0  0  0  0  0  0  0  0  0
   -7.4297   15.6780   20.6850 H   0  0  0  0  0  0  0  0  0  0  0  0
   -8.9913   17.1180   22.2712 H   0  0  0  0  0  0  0  0  0  0  0  0
   -9.6079   16.0284   19.9733 H   0  0  0  0  0  0  0  0  0  0  0  0
   -9.9773   15.2596   23.3423 H   0  0  0  0  0  0  0  0  0  0  0  0
  -10.5592   15.9583   21.7931 H   0  0  0  0  0  0  0  0  0  0  0  0
   -9.6395   14.4153   21.7931 H   0  0  0  0  0  0  0  0  0  0  0  0
   -4.5080   18.0014   27.5135 H   0  0  0  0  0  0  0  0  0  0  0  0
   -3.3845   16.6285   27.1484 H   0  0  0  0  0  0  0  0  0  0  0  0
   -4.4684   15.9673   25.7575 H   0  0  0  0  0  0  0  0  0  0  0  0
   -2.1755   17.4249   25.7291 H   0  0  0  0  0  0  0  0  0  0  0  0
   -3.3327   16.7084   24.4333 H   0  0  0  0  0  0  0  0  0  0  0  0
   -2.5778   19.2630   24.9738 H   0  0  0  0  0  0  0  0  0  0  0  0
   -3.7030   18.4295   23.7214 H   0  0  0  0  0  0  0  0  0  0  0  0
   -4.1934   20.3016   25.6255 H   0  0  0  0  0  0  0  0  0  0  0  0
   -5.2193   19.3916   24.3399 H   0  0  0  0  0  0  0  0  0  0  0  0
   -6.4082   18.7519   25.7725 H   0  0  0  0  0  0  0  0  0  0  0  0
   -5.2415   19.4673   27.0653 H   0  0  0  0  0  0  0  0  0  0  0  0
  1  2  1  0
  2  3  1  0
  3  4  1  0
  4  5  1  0
  1  6  1  0
  5  6  1  0
  7  8  1  0
  2  9  1  0
  8  9  1  0
  1 10  1  0
  7 10  1  0
  8 11  1  0
 11 12  1  0
 13 12  1  6
 13 14  1  0
 13 15  1  0
 13 16  1  0
 11 17  1  0
  7 18  1  0
 18 19  1  0
 19 20  1  0
 19 21  1  0
 20 22  1  0
 20 23  1  0
 22 24  1  0
 24 25  1  0
 24 26  1  0
 26 27  1  0
 27 28  1  0
 28 29  1  0
 29 30  1  0
 26 31  1  0
 30 31  1  0
 30 32  1  0
 31 33  1  0
 23 34  1  0
 34 35  1  0
 35 36  1  0
 36 37  1  0
 37 38  1  0
 38 39  1  0
 35 40  1  0
 39 40  1  0
  1 41  1  6
  2 42  1  1
  3 43  1  0
  3 44  1  0
  4 45  1  0
  4 46  1  0
  5 47  1  0
  5 48  1  0
  6 49  1  0
  6 50  1  0
  8 51  1  1
  9 52  1  0
  9 53  1  0
 10 54  1  0
 10 55  1  0
 11 56  1  0
 12 57  1  0
 14 58  1  0
 14 59  1  0
 14 60  1  0
 15 61  1  0
 15 62  1  0
 15 63  1  0
 16 64  1  0
 16 65  1  0
 16 66  1  0
 17 67  1  0
 18 68  1  0
 18 69  1  0
 19 70  1  6
 20 71  1  1
 21 72  1  0
 22 73  1  0
 23 74  1  0
 23 75  1  0
 24 76  1  0
 25 77  1  0
 26 78  1  0
 27 79  1  0
 27 80  1  0
 28 81  1  0
 28 82  1  0
 29 83  1  0
 29 84  1  0
 30 85  1  0
 31 86  1  0
 32 87  1  0
 33 88  1  0
 33 89  1  0
 33 90  1  0
 35 91  1  0
 36 92  1  0
 36 93  1  0
 37 94  1  0
 37 95  1  0
 38 96  1  0
 38 97  1  0
 39 98  1  0
 39 99  1  0
 40100  1  0
 40101  1  0
M  END
>  <PDBID>  (1) 
2PYN

>  <PDB ID>  (1) 
2PYN

>  <Generic Name>  (1) 
Nelfinavir

>  <Brand Name>  (1) 
Viracept#Viracept -250mg#Viracept -50mg

>  <DrugBank ID>  (1) 
DB00220

>  <ATC Codes>  (1) 
J05AE04

>  <Ligand ID>  (1) 
1UN

>  <Target Name>  (1) 
HIV-1 protease

>  <UniProt ID>  (1) 
O90777

>  <PDB ID.1>  (1) 
2PYN

>  <Seq. Identity>  (1) 
91%

$$$$
