PDB_DB00625_98
     RDKit          3D

 42 44  0  0  0  0  0  0  0  0999 V2000
  -69.2710  -34.7990  -19.6660 Cl  0  0  0  0  0  0  0  0  0  0  0  0
  -63.8460  -36.7540  -17.5020 F   0  0  0  0  0  0  0  0  0  0  0  0
  -64.6800  -37.7880  -15.7630 F   0  0  0  0  0  0  0  0  0  0  0  0
  -65.8420  -37.5130  -17.5590 F   0  0  0  0  0  0  0  0  0  0  0  0
  -62.5300  -33.5570  -15.7150 O   0  0  0  0  0  0  0  0  0  0  0  0
  -64.4510  -34.7900  -15.7330 O   0  0  0  0  0  0  0  0  0  0  0  0
  -63.8720  -33.3140  -17.3840 N   0  0  0  0  0  0  0  0  0  0  0  0
  -65.1160  -33.5170  -18.0280 C   0  0  0  0  0  0  0  0  0  0  0  0
  -65.9520  -32.9420  -19.1470 C   0  0  0  0  0  0  0  0  0  0  0  0
  -67.2040  -33.4480  -19.5310 C   0  0  0  0  0  0  0  0  0  0  0  0
  -67.7320  -34.4210  -18.9760 C   0  0  0  0  0  0  0  0  0  0  0  0
  -67.2660  -35.0720  -18.0310 C   0  0  0  0  0  0  0  0  0  0  0  0
  -66.0280  -34.7340  -17.4920 C   0  0  0  0  0  0  0  0  0  0  0  0
  -65.4430  -35.5930  -16.2650 C   0  0  2  0  0  0  0  0  0  0  0  0
  -66.5240  -35.9080  -15.2290 C   0  0  0  0  0  0  0  0  0  0  0  0
  -67.3830  -36.0250  -14.3860 C   0  0  0  0  0  0  0  0  0  0  0  0
  -68.5340  -36.1600  -13.2000 C   0  0  2  0  0  0  0  0  0  0  0  0
  -69.7830  -35.8810  -13.6290 C   0  0  0  0  0  0  0  0  0  0  0  0
  -68.6150  -35.1430  -12.3180 C   0  0  0  0  0  0  0  0  0  0  0  0
  -64.9510  -36.9370  -16.7580 C   0  0  2  0  0  0  0  0  0  0  0  0
  -63.5820  -33.8920  -16.2310 C   0  0  0  0  0  0  0  0  0  0  0  0
  -62.6217  -33.5862  -14.7297 H   0  0  0  0  0  0  0  0  0  0  0  0
  -63.1482  -33.6188  -18.0504 H   0  0  0  0  0  0  0  0  0  0  0  0
  -65.5967  -32.8301  -17.3159 H   0  0  0  0  0  0  0  0  0  0  0  0
  -66.1252  -31.8892  -18.8792 H   0  0  0  0  0  0  0  0  0  0  0  0
  -65.3413  -33.2080  -20.0224 H   0  0  0  0  0  0  0  0  0  0  0  0
  -67.9144  -32.6149  -19.4252 H   0  0  0  0  0  0  0  0  0  0  0  0
  -66.9838  -33.8535  -20.5295 H   0  0  0  0  0  0  0  0  0  0  0  0
  -67.2440  -35.0958  -19.6947 H   0  0  0  0  0  0  0  0  0  0  0  0
  -67.9966  -35.0076  -17.2112 H   0  0  0  0  0  0  0  0  0  0  0  0
  -67.0851  -36.0626  -18.4736 H   0  0  0  0  0  0  0  0  0  0  0  0
  -66.5222  -34.0520  -16.7845 H   0  0  0  0  0  0  0  0  0  0  0  0
  -67.1340  -36.4387  -15.9748 H   0  0  0  0  0  0  0  0  0  0  0  0
  -65.7498  -36.0226  -14.4560 H   0  0  0  0  0  0  0  0  0  0  0  0
  -68.1307  -35.6085  -15.0770 H   0  0  0  0  0  0  0  0  0  0  0  0
  -66.9068  -36.9501  -14.0291 H   0  0  0  0  0  0  0  0  0  0  0  0
  -68.2546  -37.1598  -12.8364 H   0  0  0  0  0  0  0  0  0  0  0  0
  -69.9753  -35.3825  -14.5905 H   0  0  0  0  0  0  0  0  0  0  0  0
  -70.7767  -36.3429  -13.7252 H   0  0  0  0  0  0  0  0  0  0  0  0
  -68.7615  -35.3111  -11.2408 H   0  0  0  0  0  0  0  0  0  0  0  0
  -68.1148  -34.1997  -12.0534 H   0  0  0  0  0  0  0  0  0  0  0  0
  -63.0609  -34.6960  -16.7714 H   0  0  0  0  0  0  0  0  0  0  0  0
  7  8  1  0
  8  9  1  0
  9 10  1  0
  1 11  1  0
 10 11  1  0
 11 12  1  0
  8 13  1  0
 12 13  1  0
  6 14  1  0
 13 14  1  0
 14 15  1  1
 15 16  1  0
 16 17  1  0
 17 18  1  0
 17 19  1  0
 18 19  1  0
 20  2  1  6
  3 20  1  0
  4 20  1  0
 14 20  1  0
  5 21  1  0
  6 21  1  0
  7 21  1  0
  5 22  1  0
  7 23  1  0
  8 24  1  0
  9 25  1  0
  9 26  1  0
 10 27  1  0
 10 28  1  0
 11 29  1  0
 12 30  1  0
 12 31  1  0
 13 32  1  0
 15 33  1  0
 15 34  1  0
 16 35  1  0
 16 36  1  0
 17 37  1  1
 18 38  1  0
 18 39  1  0
 19 40  1  0
 19 41  1  0
 21 42  1  0
M  END
>  <PDBID>  (1) 
6BSG

>  <PDB ID>  (1) 
6BSG

>  <Generic Name>  (1) 
Efavirenz

>  <Brand Name>  (1) 
Atripla#Auro-efavirenz#Mylan-efavirenz#Sustiva#Sustiva 100mg#Sustiva 200mg#Sustiva 50mg#Sustiva Tablets#Teva-efavirenz#E.F#Efavir#Efavirenz#Efcure#Efferven#Estiva#Evirenz#Stocrin#Viranz

>  <DrugBank ID>  (1) 
DB00625

>  <ATC Codes>  (1) 
J05AR06#J05AG03#J05AR11

>  <Ligand ID>  (1) 
EFZ

>  <Target Name>  (1) 
Reverse transcriptase/RNaseH

>  <UniProt ID>  (1) 
Q72547

>  <PDB ID.1>  (1) 
6BSG

>  <Seq. Identity>  (1) 
95%

$$$$
