PDB_DB00819_94
     RDKit          3D

 19 19  0  0  0  0  0  0  0  0999 V2000
   11.5900   -0.7500   12.6440 C   0  0  0  0  0  0  0  0  0  0  0  0
   13.0320   -0.6310   10.7640 C   0  0  0  0  0  0  0  0  0  0  0  0
   14.4920   -1.9910    9.4320 C   0  0  0  0  0  0  0  0  0  0  0  0
   15.2950   -2.1250    8.1650 C   0  0  0  0  0  0  0  0  0  0  0  0
   11.8080   -1.0600   15.3280 N   0  0  0  0  0  0  0  0  0  0  0  0
   12.4450    0.5140   11.0220 N   0  0  0  0  0  0  0  0  0  0  0  0
   11.6930    0.4550   12.1630 N   0  0  0  0  0  0  0  0  0  0  0  0
   13.8990   -0.7800    9.6760 N   0  0  0  0  0  0  0  0  0  0  0  0
    9.7890    0.0000   14.3560 O   0  0  0  0  0  0  0  0  0  0  0  0
   10.1500   -2.3880   14.0070 O   0  0  0  0  0  0  0  0  0  0  0  0
   14.3980   -2.9320   10.2260 O   0  0  0  0  0  0  0  0  0  0  0  0
   10.7190   -1.0840   14.1420 S   0  0  0  0  0  0  0  0  0  0  0  0
   12.6360   -1.8840   11.8620 S   0  0  0  0  0  0  0  0  0  0  0  0
   16.3511   -2.3012    8.4171 H   0  0  0  0  0  0  0  0  0  0  0  0
   14.9124   -2.9717    7.5762 H   0  0  0  0  0  0  0  0  0  0  0  0
   15.2080   -1.1999    7.5762 H   0  0  0  0  0  0  0  0  0  0  0  0
   11.3251   -1.0706   16.2377 H   0  0  0  0  0  0  0  0  0  0  0  0
   12.4162   -1.8878   15.2524 H   0  0  0  0  0  0  0  0  0  0  0  0
   14.0917    0.0212    9.0580 H   0  0  0  0  0  0  0  0  0  0  0  0
  3  4  1  0
  2  6  2  0
  1  7  2  0
  6  7  1  0
  2  8  1  0
  3  8  1  0
  3 11  2  0
  1 12  1  0
  5 12  1  0
  9 12  2  0
 10 12  2  0
  1 13  1  0
  2 13  1  0
  4 14  1  0
  4 15  1  0
  4 16  1  0
  5 17  1  0
  5 18  1  0
  8 19  1  0
M  END
$$$$
