PDB_DB00203_94
     RDKit          3D

 63 66  0  0  0  0  0  0  0  0999 V2000
  -11.0200  -59.5350   44.4140 C   0  0  0  0  0  0  0  0  0  0  0  0
  -12.1030  -60.4930   44.9430 C   0  0  0  0  0  0  0  0  0  0  0  0
  -13.3990  -59.7520   45.2670 C   0  0  0  0  0  0  0  0  0  0  0  0
  -13.7160  -60.0120   46.7110 C   0  0  0  0  0  0  0  0  0  0  0  0
  -14.3520  -61.1000   47.1200 N   0  0  0  0  0  0  0  0  0  0  0  0
  -14.4970  -61.0790   48.3540 N   0  0  0  0  0  0  0  0  0  0  0  0
  -15.1680  -62.1660   49.1340 C   0  0  0  0  0  0  0  0  0  0  0  0
  -13.9620  -59.9790   48.9060 C   0  0  0  0  0  0  0  0  0  0  0  0
  -13.8650  -59.5150   50.2400 C   0  0  0  0  0  0  0  0  0  0  0  0
  -14.3230  -60.1630   51.1930 O   0  0  0  0  0  0  0  0  0  0  0  0
  -13.2260  -58.2810   50.4480 N   0  0  0  0  0  0  0  0  0  0  0  0
  -12.7310  -57.5680   49.3260 C   0  0  0  0  0  0  0  0  0  0  0  0
  -12.8360  -58.0630   48.0540 N   0  0  0  0  0  0  0  0  0  0  0  0
  -13.4310  -59.2440   47.8320 C   0  0  0  0  0  0  0  0  0  0  0  0
  -12.0890  -56.3550   49.5220 C   0  0  0  0  0  0  0  0  0  0  0  0
  -12.2580  -55.3900   48.5580 C   0  0  0  0  0  0  0  0  0  0  0  0
  -11.6000  -54.1760   48.6980 C   0  0  0  0  0  0  0  0  0  0  0  0
  -10.7950  -53.9020   49.8120 C   0  0  0  0  0  0  0  0  0  0  0  0
  -10.6340  -54.8770   50.7850 C   0  0  0  0  0  0  0  0  0  0  0  0
  -11.2780  -56.1130   50.6430 C   0  0  0  0  0  0  0  0  0  0  0  0
  -11.1270  -57.0830   51.6200 O   0  0  0  0  0  0  0  0  0  0  0  0
  -10.1010  -56.8680   52.6350 C   0  0  0  0  0  0  0  0  0  0  0  0
  -10.1420  -57.9980   53.6490 C   0  0  0  0  0  0  0  0  0  0  0  0
  -11.7730  -52.9270   47.4800 S   0  0  0  0  0  0  0  0  0  0  0  0
  -13.1960  -52.4670   47.6100 O   0  0  0  0  0  0  0  0  0  0  0  0
  -10.7590  -51.8620   47.8050 O   0  0  0  0  0  0  0  0  0  0  0  0
  -11.5570  -53.4730   45.8660 N   0  0  0  0  0  0  0  0  0  0  0  0
  -12.2970  -54.7120   45.4880 C   0  0  0  0  0  0  0  0  0  0  0  0
  -11.3270  -55.8140   45.0050 C   0  0  0  0  0  0  0  0  0  0  0  0
  -10.4430  -55.3810   43.9060 N   0  0  0  0  0  0  0  0  0  0  0  0
   -9.1490  -56.1000   44.0410 C   0  0  0  0  0  0  0  0  0  0  0  0
  -10.1590  -53.9500   43.9720 C   0  0  0  0  0  0  0  0  0  0  0  0
  -10.1490  -53.5990   45.4620 C   0  0  0  0  0  0  0  0  0  0  0  0
  -10.4952  -59.0708   45.2620 H   0  0  0  0  0  0  0  0  0  0  0  0
  -10.3005  -60.0976   43.8010 H   0  0  0  0  0  0  0  0  0  0  0  0
  -11.4906  -58.7522   43.8010 H   0  0  0  0  0  0  0  0  0  0  0  0
  -12.3096  -61.2558   44.1779 H   0  0  0  0  0  0  0  0  0  0  0  0
  -11.7306  -60.9561   45.8687 H   0  0  0  0  0  0  0  0  0  0  0  0
  -13.2670  -58.6729   45.0995 H   0  0  0  0  0  0  0  0  0  0  0  0
  -14.2178  -60.1010   44.6207 H   0  0  0  0  0  0  0  0  0  0  0  0
  -15.0485  -61.9724   50.2102 H   0  0  0  0  0  0  0  0  0  0  0  0
  -16.2386  -62.1905   48.8825 H   0  0  0  0  0  0  0  0  0  0  0  0
  -14.7101  -63.1340   48.8825 H   0  0  0  0  0  0  0  0  0  0  0  0
  -13.1188  -57.9005   51.3991 H   0  0  0  0  0  0  0  0  0  0  0  0
  -12.9052  -55.5771   47.6884 H   0  0  0  0  0  0  0  0  0  0  0  0
  -10.2973  -52.9263   49.9133 H   0  0  0  0  0  0  0  0  0  0  0  0
  -10.0033  -54.6807   51.6646 H   0  0  0  0  0  0  0  0  0  0  0  0
   -9.1114  -56.8424   52.1554 H   0  0  0  0  0  0  0  0  0  0  0  0
  -10.2877  -55.9120   53.1460 H   0  0  0  0  0  0  0  0  0  0  0  0
  -10.1268  -57.5789   54.6659 H   0  0  0  0  0  0  0  0  0  0  0  0
  -11.0620  -58.5842   53.5077 H   0  0  0  0  0  0  0  0  0  0  0  0
   -9.2669  -58.6493   53.5077 H   0  0  0  0  0  0  0  0  0  0  0  0
  -12.8518  -55.0803   46.3635 H   0  0  0  0  0  0  0  0  0  0  0  0
  -12.9874  -54.4697   44.6666 H   0  0  0  0  0  0  0  0  0  0  0  0
  -10.7003  -56.1227   45.8546 H   0  0  0  0  0  0  0  0  0  0  0  0
  -11.9426  -56.6395   44.6183 H   0  0  0  0  0  0  0  0  0  0  0  0
   -8.9121  -56.2316   45.1071 H   0  0  0  0  0  0  0  0  0  0  0  0
   -9.2249  -57.0853   43.5579 H   0  0  0  0  0  0  0  0  0  0  0  0
   -8.3524  -55.5151   43.5579 H   0  0  0  0  0  0  0  0  0  0  0  0
   -9.1803  -53.7318   43.5198 H   0  0  0  0  0  0  0  0  0  0  0  0
  -10.9071  -53.3614   43.4208 H   0  0  0  0  0  0  0  0  0  0  0  0
   -9.6193  -52.6490   45.6259 H   0  0  0  0  0  0  0  0  0  0  0  0
   -9.6317  -54.3707   46.0510 H   0  0  0  0  0  0  0  0  0  0  0  0
  1  2  1  0
  2  3  1  0
  3  4  1  0
  4  5  2  0
  5  6  1  0
  6  7  1  0
  6  8  1  0
  8  9  1  0
  9 10  2  0
  9 11  1  0
 11 12  1  0
 12 13  2  0
  4 14  1  0
  8 14  2  0
 13 14  1  0
 12 15  1  0
 15 16  2  0
 16 17  1  0
 17 18  2  0
 18 19  1  0
 15 20  1  0
 19 20  2  0
 20 21  1  0
 21 22  1  0
 22 23  1  0
 17 24  1  0
 24 25  2  0
 24 26  2  0
 24 27  1  0
 27 28  1  0
 28 29  1  0
 29 30  1  0
 30 31  1  0
 30 32  1  0
 27 33  1  0
 32 33  1  0
  1 34  1  0
  1 35  1  0
  1 36  1  0
  2 37  1  0
  2 38  1  0
  3 39  1  0
  3 40  1  0
  7 41  1  0
  7 42  1  0
  7 43  1  0
 11 44  1  0
 16 45  1  0
 18 46  1  0
 19 47  1  0
 22 48  1  0
 22 49  1  0
 23 50  1  0
 23 51  1  0
 23 52  1  0
 28 53  1  0
 28 54  1  0
 29 55  1  0
 29 56  1  0
 31 57  1  0
 31 58  1  0
 31 59  1  0
 32 60  1  0
 32 61  1  0
 33 62  1  0
 33 63  1  0
M  END
$$$$
