PDB_DB00215_99
     RDKit          3D

 61 63  0  0  0  0  0  0  0  0999 V2000
  -31.1350  -21.3850    2.8650 C   0  0  0  0  0  0  0  0  0  0  0  0
  -33.8980  -19.4500    2.9650 C   0  0  0  0  0  0  0  0  0  0  0  0
  -29.9900  -20.4380    2.4840 C   0  0  0  0  0  0  0  0  0  0  0  0
  -34.5210  -18.1040    2.6230 C   0  0  0  0  0  0  0  0  0  0  0  0
  -29.8120  -22.0140    5.0800 C   0  0  0  0  0  0  0  0  0  0  0  0
  -28.6730  -21.0650    4.6950 C   0  0  0  0  0  0  0  0  0  0  0  0
  -36.3390  -24.5160   -0.2400 C   0  0  0  0  0  0  0  0  0  0  0  0
  -34.9810  -16.1650    0.9500 C   0  0  0  0  0  0  0  0  0  0  0  0
  -27.6020  -20.9260    5.4960 F   0  0  0  0  0  0  0  0  0  0  0  0
  -31.9000  -21.8330    0.6480 O   0  0  0  0  0  0  0  0  0  0  0  0
  -34.9470  -24.0740   -0.5210 N   0  0  0  0  0  0  0  0  0  0  0  0
  -35.4720  -15.1350    0.7380 N   0  0  0  0  0  0  0  0  0  0  0  0
  -32.3350  -21.5380    1.9720 C   0  0  1  0  0  0  0  0  0  0  0  0
  -33.2560  -22.6480    2.5320 C   0  0  0  0  0  0  0  0  0  0  0  0
  -33.0700  -20.2200    1.9140 C   0  0  0  0  0  0  0  0  0  0  0  0
  -32.8670  -19.6410    0.5680 C   0  0  0  0  0  0  0  0  0  0  0  0
  -34.4450  -22.8990    1.5780 C   0  0  0  0  0  0  0  0  0  0  0  0
  -32.0630  -20.6060   -0.1910 C   0  0  0  0  0  0  0  0  0  0  0  0
  -34.1370  -24.0970    0.6780 C   0  0  0  0  0  0  0  0  0  0  0  0
  -33.5050  -18.2670    0.2200 C   0  0  0  0  0  0  0  0  0  0  0  0
  -31.0370  -22.1720    4.1610 C   0  0  0  0  0  0  0  0  0  0  0  0
  -34.3400  -17.5210    1.2580 C   0  0  0  0  0  0  0  0  0  0  0  0
  -28.7610  -20.2790    3.3990 C   0  0  0  0  0  0  0  0  0  0  0  0
  -34.9270  -22.7700   -1.1390 C   0  0  0  0  0  0  0  0  0  0  0  0
  -31.6366  -20.5640    3.3983 H   0  0  0  0  0  0  0  0  0  0  0  0
  -33.2349  -19.2806    3.8261 H   0  0  0  0  0  0  0  0  0  0  0  0
  -34.7746  -20.0980    3.1123 H   0  0  0  0  0  0  0  0  0  0  0  0
  -29.6129  -20.7782    1.5083 H   0  0  0  0  0  0  0  0  0  0  0  0
  -30.4644  -19.4470    2.5377 H   0  0  0  0  0  0  0  0  0  0  0  0
  -35.6044  -18.2057    2.7836 H   0  0  0  0  0  0  0  0  0  0  0  0
  -33.9770  -17.4017    3.2718 H   0  0  0  0  0  0  0  0  0  0  0  0
  -29.3670  -23.0142    5.1879 H   0  0  0  0  0  0  0  0  0  0  0  0
  -30.2348  -21.5434    5.9799 H   0  0  0  0  0  0  0  0  0  0  0  0
  -29.1770  -20.2444    5.2265 H   0  0  0  0  0  0  0  0  0  0  0  0
  -36.4954  -24.5657    0.8477 H   0  0  0  0  0  0  0  0  0  0  0  0
  -37.0474  -23.7986   -0.6799 H   0  0  0  0  0  0  0  0  0  0  0  0
  -36.5037  -25.5106   -0.6799 H   0  0  0  0  0  0  0  0  0  0  0  0
  -35.6212  -16.6338    0.1882 H   0  0  0  0  0  0  0  0  0  0  0  0
  -34.0164  -15.6680    1.1304 H   0  0  0  0  0  0  0  0  0  0  0  0
  -35.6936  -14.6702    1.6300 H   0  0  0  0  0  0  0  0  0  0  0  0
  -34.8199  -14.5485    0.1979 H   0  0  0  0  0  0  0  0  0  0  0  0
  -32.6774  -23.5772    2.6412 H   0  0  0  0  0  0  0  0  0  0  0  0
  -33.6462  -22.3264    3.5089 H   0  0  0  0  0  0  0  0  0  0  0  0
  -32.1610  -19.6984    2.2480 H   0  0  0  0  0  0  0  0  0  0  0  0
  -31.9471  -19.1499    0.9180 H   0  0  0  0  0  0  0  0  0  0  0  0
  -35.3499  -23.1073    2.1678 H   0  0  0  0  0  0  0  0  0  0  0  0
  -34.6084  -22.0070    0.9555 H   0  0  0  0  0  0  0  0  0  0  0  0
  -31.0767  -20.1744   -0.4167 H   0  0  0  0  0  0  0  0  0  0  0  0
  -32.5605  -20.8553   -1.1399 H   0  0  0  0  0  0  0  0  0  0  0  0
  -34.3433  -25.0244    1.2324 H   0  0  0  0  0  0  0  0  0  0  0  0
  -33.0783  -24.0478    0.3836 H   0  0  0  0  0  0  0  0  0  0  0  0
  -32.6792  -17.5973   -0.0622 H   0  0  0  0  0  0  0  0  0  0  0  0
  -34.2415  -18.5229   -0.5560 H   0  0  0  0  0  0  0  0  0  0  0  0
  -31.9183  -21.9018    4.7613 H   0  0  0  0  0  0  0  0  0  0  0  0
  -30.9530  -23.2122    3.8132 H   0  0  0  0  0  0  0  0  0  0  0  0
  -35.2543  -18.0302    0.9193 H   0  0  0  0  0  0  0  0  0  0  0  0
  -27.8810  -20.5552    2.7996 H   0  0  0  0  0  0  0  0  0  0  0  0
  -28.8330  -19.2358    3.7403 H   0  0  0  0  0  0  0  0  0  0  0  0
  -34.9151  -21.9946   -0.3588 H   0  0  0  0  0  0  0  0  0  0  0  0
  -34.0273  -22.6745   -1.7646 H   0  0  0  0  0  0  0  0  0  0  0  0
  -35.8234  -22.6469   -1.7646 H   0  0  0  0  0  0  0  0  0  0  0  0
  1  3  1  0
  2  4  1  0
  5  6  1  0
  6  9  1  0
  7 11  1  0
  8 12  1  0
  1 13  1  0
 10 13  1  0
 13 14  1  1
  2 15  1  0
 13 15  1  0
 15 16  1  0
 14 17  1  0
 10 18  1  0
 16 18  1  0
 11 19  1  0
 17 19  1  0
 16 20  1  0
  1 21  1  0
  5 21  1  0
  4 22  1  0
  8 22  1  0
 20 22  1  0
  3 23  1  0
  6 23  1  0
 11 24  1  0
  1 25  1  0
  2 26  1  0
  2 27  1  0
  3 28  1  0
  3 29  1  0
  4 30  1  0
  4 31  1  0
  5 32  1  0
  5 33  1  0
  6 34  1  0
  7 35  1  0
  7 36  1  0
  7 37  1  0
  8 38  1  0
  8 39  1  0
 12 40  1  0
 12 41  1  0
 14 42  1  0
 14 43  1  0
 15 44  1  0
 16 45  1  0
 17 46  1  0
 17 47  1  0
 18 48  1  0
 18 49  1  0
 19 50  1  0
 19 51  1  0
 20 52  1  0
 20 53  1  0
 21 54  1  0
 21 55  1  0
 22 56  1  0
 23 57  1  0
 23 58  1  0
 24 59  1  0
 24 60  1  0
 24 61  1  0
M  END
>  <PDBID>  (1) 
5I71

>  <PDB ID>  (1) 
5I71

>  <Generic Name>  (1) 
Citalopram

>  <Brand Name>  (1) 
Abbott-citalopram#Accel-citalopram Tablets#Act Citalopram#Ag-citalopram#Apo-citalopram#Auro-citalopram#Ava-citalopram#Bio-citalopram#Celexa#Celexa 10 mg#Celexa 20 mg#Celexa 40 mg#Citalopram#Citalopram Hydrobromide#Citalopram Tablets#Citalopram Tablets USP#Citalopram-10#Citalopram-20#Citalopram-40#Citalopram-odan#Ctp 30#Dom-citalopram#Ecl-citalopram#Ipg-citalopram#Jamp-citalopram#Manda-citalopram#Mar-citalopram#Mint-citalopram#Mylan-citalopram#Nat-citalopram#Nat-citalopram Tablets#Ng Citalopram#Novo-citalopram#Ntp-citalopram#Nu-citalopram#PHL-citalopram#PMS-citalopram#Pendo-citalopram#Perrigo Citalopram#Priva-citalopram#Q-citalopram#Ran-citalo#Ran-citalopram#Ratio-citalopram#Riva-citalopram#Sandoz Citalopram#Sentralopram Am-10#Septa-citalopram#Teva-citalopram#Van-citalopram#Akarin#Celapram#Ciazil#Cilift#Cipram#Cipramil#Ciprapine#Citabax#Citalec#Citol#Citopam#Citox#Citrol#Dalsan#Elopram#Humorup#Oropram#Pramcit#Recital#Seropram#Talam#Talohexal#Temperax#Vodelax#Zentius#Zetalo

>  <DrugBank ID>  (1) 
DB00215

>  <ATC Codes>  (1) 
N06AB04

>  <Ligand ID>  (1) 
68P

>  <Target Name>  (1) 
Sodium-dependent serotonin transporter

>  <UniProt ID>  (1) 
P31645

>  <PDB ID.1>  (1) 
5I71

>  <Seq. Identity>  (1) 
99%

$$$$
