PDB_DB01229_98
     RDKit          3D

113119  0  0  0  0  0  0  0  0999 V2000
   65.0160   85.8770   97.0810 O   0  0  0  0  0  0  0  0  0  0  0  0
   65.1570   85.2560   95.7970 C   0  0  1  0  0  0  0  0  0  0  0  0
   64.6410   83.7010   95.9910 C   0  0  1  0  0  0  0  0  0  0  0  0
   63.4530   83.8860   96.7950 O   0  0  0  0  0  0  0  0  0  0  0  0
   63.4280   83.3750   98.0380 C   0  0  0  0  0  0  0  0  0  0  0  0
   64.3600   82.8050   98.5450 O   0  0  0  0  0  0  0  0  0  0  0  0
   62.1120   83.5920   98.6930 C   0  0  0  0  0  0  0  0  0  0  0  0
   61.0900   84.2530   98.0180 C   0  0  0  0  0  0  0  0  0  0  0  0
   59.8580   84.4390   98.6220 C   0  0  0  0  0  0  0  0  0  0  0  0
   59.6320   83.9710   99.9000 C   0  0  0  0  0  0  0  0  0  0  0  0
   60.6390   83.3180  100.5800 C   0  0  0  0  0  0  0  0  0  0  0  0
   61.8740   83.1280   99.9830 C   0  0  0  0  0  0  0  0  0  0  0  0
   64.3880   82.7800   94.7040 C   0  0  2  0  0  0  0  0  0  0  0  0
   62.8860   82.1370   94.5790 C   0  0  2  0  0  0  0  0  0  0  0  0
   61.8810   83.2000   94.5300 O   0  0  0  0  0  0  0  0  0  0  0  0
   61.6890   84.0320   93.4740 C   0  0  0  0  0  0  0  0  0  0  0  0
   62.3510   84.0370   92.4760 O   0  0  0  0  0  0  0  0  0  0  0  0
   60.5370   84.9330   93.7530 C   0  0  0  0  0  0  0  0  0  0  0  0
   62.3280   81.1130   95.5970 C   0  0  0  0  0  0  0  0  0  0  0  0
   61.8080   80.2900   94.5470 O   0  0  0  0  0  0  0  0  0  0  0  0
   62.6570   80.9770   93.5850 C   0  0  2  0  0  0  0  0  0  0  0  0
   63.8520   80.1700   93.1420 C   0  0  0  0  0  0  0  0  0  0  0  0
   65.0900   81.0420   92.9740 C   0  0  2  0  0  0  0  0  0  0  0  0
   66.1500   80.2470   92.4360 O   0  0  0  0  0  0  0  0  0  0  0  0
   65.5550   81.7450   94.2800 C   0  0  2  0  0  0  0  0  0  0  0  0
   65.9440   80.7330   95.3680 C   0  0  0  0  0  0  0  0  0  0  0  0
   66.9580   82.2610   93.7950 C   0  0  0  0  0  0  0  0  0  0  0  0
   67.7960   81.4000   93.6670 O   0  0  0  0  0  0  0  0  0  0  0  0
   67.5250   83.8320   93.4010 C   0  0  2  0  0  0  0  0  0  0  0  0
   68.9630   83.8080   93.6550 O   0  0  0  0  0  0  0  0  0  0  0  0
   69.7610   84.6710   92.9950 C   0  0  0  0  0  0  0  0  0  0  0  0
   69.3570   85.4390   92.1710 O   0  0  0  0  0  0  0  0  0  0  0  0
   71.1780   84.5270   93.4310 C   0  0  0  0  0  0  0  0  0  0  0  0
   66.7980   85.1030   93.8760 C   0  0  0  0  0  0  0  0  0  0  0  0
   65.9430   85.7070   93.0220 C   0  0  0  0  0  0  0  0  0  0  0  0
   64.7880   86.5450   93.5390 C   0  0  1  0  0  0  0  0  0  0  0  0
   63.6650   86.7270   92.6290 O   0  0  0  0  0  0  0  0  0  0  0  0
   63.5100   87.9530   92.1040 C   0  0  0  0  0  0  0  0  0  0  0  0
   64.2740   88.8620   92.2670 O   0  0  0  0  0  0  0  0  0  0  0  0
   62.2340   88.0600   91.2940 C   0  0  2  0  0  0  0  0  0  0  0  0
   62.3420   89.1320   90.3750 O   0  0  0  0  0  0  0  0  0  0  0  0
   61.0680   88.3180   92.2280 C   0  0  1  0  0  0  0  0  0  0  0  0
   61.4230   89.3570   93.1860 N   0  0  0  0  0  0  0  0  0  0  0  0
   61.4630   89.1010   94.5000 C   0  0  0  0  0  0  0  0  0  0  0  0
   61.1200   88.0180   94.9660 O   0  0  0  0  0  0  0  0  0  0  0  0
   61.9640   90.1950   95.3860 C   0  0  0  0  0  0  0  0  0  0  0  0
   61.3150   91.4240   95.4370 C   0  0  0  0  0  0  0  0  0  0  0  0
   61.7630   92.4190   96.2880 C   0  0  0  0  0  0  0  0  0  0  0  0
   62.8660   92.2060   97.0880 C   0  0  0  0  0  0  0  0  0  0  0  0
   63.5240   90.9950   97.0390 C   0  0  0  0  0  0  0  0  0  0  0  0
   63.0790   89.9920   96.1950 C   0  0  0  0  0  0  0  0  0  0  0  0
   59.8010   88.6300   91.4600 C   0  0  0  0  0  0  0  0  0  0  0  0
   59.1200   87.6260   90.7840 C   0  0  0  0  0  0  0  0  0  0  0  0
   57.9630   87.9090   90.0790 C   0  0  0  0  0  0  0  0  0  0  0  0
   57.4720   89.1950   90.0410 C   0  0  0  0  0  0  0  0  0  0  0  0
   58.1380   90.2010   90.7070 C   0  0  0  0  0  0  0  0  0  0  0  0
   59.2950   89.9220   91.4130 C   0  0  0  0  0  0  0  0  0  0  0  0
   64.2160   86.0350   94.8570 C   0  0  0  0  0  0  0  0  0  0  0  0
   66.0480   85.5960   91.5300 C   0  0  0  0  0  0  0  0  0  0  0  0
   66.7260   85.3330   95.4330 C   0  0  0  0  0  0  0  0  0  0  0  0
   67.4740   86.5790   95.9310 C   0  0  0  0  0  0  0  0  0  0  0  0
   67.4400   84.4280   96.4450 C   0  0  0  0  0  0  0  0  0  0  0  0
   65.1687   85.2045   97.7913 H   0  0  0  0  0  0  0  0  0  0  0  0
   65.4491   83.0999   96.4333 H   0  0  0  0  0  0  0  0  0  0  0  0
   61.2620   84.6298   96.9989 H   0  0  0  0  0  0  0  0  0  0  0  0
   59.0560   84.9621   98.0806 H   0  0  0  0  0  0  0  0  0  0  0  0
   58.6511   84.1182  100.3756 H   0  0  0  0  0  0  0  0  0  0  0  0
   60.4604   82.9469  101.6000 H   0  0  0  0  0  0  0  0  0  0  0  0
   62.6720   82.6069  100.5322 H   0  0  0  0  0  0  0  0  0  0  0  0
   64.4500   83.5512   93.9221 H   0  0  0  0  0  0  0  0  0  0  0  0
   60.4064   85.0352   94.8404 H   0  0  0  0  0  0  0  0  0  0  0  0
   60.7301   85.9222   93.3124 H   0  0  0  0  0  0  0  0  0  0  0  0
   59.6234   84.5073   93.3124 H   0  0  0  0  0  0  0  0  0  0  0  0
   63.1047   80.6214   96.2012 H   0  0  0  0  0  0  0  0  0  0  0  0
   61.6578   81.4562   96.3989 H   0  0  0  0  0  0  0  0  0  0  0  0
   62.3006   81.2325   92.5762 H   0  0  0  0  0  0  0  0  0  0  0  0
   64.0600   79.3973   93.8968 H   0  0  0  0  0  0  0  0  0  0  0  0
   63.6173   79.7164   92.1677 H   0  0  0  0  0  0  0  0  0  0  0  0
   64.8164   81.8540   92.2842 H   0  0  0  0  0  0  0  0  0  0  0  0
   66.6755   79.8529   93.1767 H   0  0  0  0  0  0  0  0  0  0  0  0
   65.7733   81.1771   96.3598 H   0  0  0  0  0  0  0  0  0  0  0  0
   65.3303   79.8263   95.2617 H   0  0  0  0  0  0  0  0  0  0  0  0
   67.0070   80.4708   95.2617 H   0  0  0  0  0  0  0  0  0  0  0  0
   67.2555   83.9894   92.3462 H   0  0  0  0  0  0  0  0  0  0  0  0
   71.2248   84.5222   94.5300 H   0  0  0  0  0  0  0  0  0  0  0  0
   71.5870   83.5827   93.0425 H   0  0  0  0  0  0  0  0  0  0  0  0
   71.7686   85.3697   93.0425 H   0  0  0  0  0  0  0  0  0  0  0  0
   65.2808   87.5199   93.6680 H   0  0  0  0  0  0  0  0  0  0  0  0
   62.0704   87.1214   90.7442 H   0  0  0  0  0  0  0  0  0  0  0  0
   62.4279   89.9845   90.8710 H   0  0  0  0  0  0  0  0  0  0  0  0
   60.8528   87.4020   92.7978 H   0  0  0  0  0  0  0  0  0  0  0  0
   61.6468   90.3036   92.8472 H   0  0  0  0  0  0  0  0  0  0  0  0
   60.4395   91.6064   94.7965 H   0  0  0  0  0  0  0  0  0  0  0  0
   61.2369   93.3843   96.3266 H   0  0  0  0  0  0  0  0  0  0  0  0
   63.2197   92.9994   97.7629 H   0  0  0  0  0  0  0  0  0  0  0  0
   64.4064   90.8253   97.6734 H   0  0  0  0  0  0  0  0  0  0  0  0
   63.6094   89.0289   96.1632 H   0  0  0  0  0  0  0  0  0  0  0  0
   59.5040   86.5955   90.8091 H   0  0  0  0  0  0  0  0  0  0  0  0
   57.4341   87.1042   89.5474 H   0  0  0  0  0  0  0  0  0  0  0  0
   56.5518   89.4184   89.4812 H   0  0  0  0  0  0  0  0  0  0  0  0
   57.7486   91.2293   90.6773 H   0  0  0  0  0  0  0  0  0  0  0  0
   59.8189   90.7317   91.9421 H   0  0  0  0  0  0  0  0  0  0  0  0
   63.3730   85.3716   94.6136 H   0  0  0  0  0  0  0  0  0  0  0  0
   63.9579   86.9459   95.4171 H   0  0  0  0  0  0  0  0  0  0  0  0
   66.7827   84.8194   91.2709 H   0  0  0  0  0  0  0  0  0  0  0  0
   65.0667   85.3264   91.1124 H   0  0  0  0  0  0  0  0  0  0  0  0
   66.3717   86.5608   91.1124 H   0  0  0  0  0  0  0  0  0  0  0  0
   67.4795   86.5881   97.0309 H   0  0  0  0  0  0  0  0  0  0  0  0
   68.5091   86.5582   95.5593 H   0  0  0  0  0  0  0  0  0  0  0  0
   66.9690   87.4828   95.5593 H   0  0  0  0  0  0  0  0  0  0  0  0
   67.1869   84.7488   97.4663 H   0  0  0  0  0  0  0  0  0  0  0  0
   67.1175   83.3868   96.2972 H   0  0  0  0  0  0  0  0  0  0  0  0
   68.5277   84.4994   96.2972 H   0  0  0  0  0  0  0  0  0  0  0  0
  2  1  1  1
  2  3  1  0
  3  4  1  0
  4  5  1  0
  5  6  2  0
  5  7  1  0
  7  8  2  0
  8  9  1  0
  9 10  2  0
 10 11  1  0
  7 12  1  0
 11 12  2  0
  3 13  1  0
 13 14  1  0
 14 15  1  6
 15 16  1  0
 16 17  2  0
 16 18  1  0
 14 19  1  0
 19 20  1  0
 14 21  1  0
 20 21  1  0
 21 22  1  0
 22 23  1  0
 23 24  1  0
 13 25  1  0
 23 25  1  0
 25 26  1  1
 25 27  1  0
 27 28  2  0
 27 29  1  0
 29 30  1  0
 30 31  1  0
 31 32  2  0
 31 33  1  0
 29 34  1  0
 34 35  2  0
 35 36  1  0
 36 37  1  0
 37 38  1  0
 38 39  2  0
 38 40  1  0
 40 41  1  0
 40 42  1  0
 42 43  1  0
 43 44  1  0
 44 45  2  0
 44 46  1  0
 46 47  2  0
 47 48  1  0
 48 49  2  0
 49 50  1  0
 46 51  1  0
 50 51  2  0
 42 52  1  0
 52 53  2  0
 53 54  1  0
 54 55  2  0
 55 56  1  0
 52 57  1  0
 56 57  2  0
  2 58  1  0
 36 58  1  0
 35 59  1  0
  2 60  1  0
 34 60  1  0
 60 61  1  0
 60 62  1  0
  1 63  1  0
  3 64  1  1
  8 65  1  0
  9 66  1  0
 10 67  1  0
 11 68  1  0
 12 69  1  0
 13 70  1  6
 18 71  1  0
 18 72  1  0
 18 73  1  0
 19 74  1  0
 19 75  1  0
 21 76  1  6
 22 77  1  0
 22 78  1  0
 23 79  1  6
 24 80  1  0
 26 81  1  0
 26 82  1  0
 26 83  1  0
 29 84  1  6
 33 85  1  0
 33 86  1  0
 33 87  1  0
 36 88  1  1
 40 89  1  6
 41 90  1  0
 42 91  1  1
 43 92  1  0
 47 93  1  0
 48 94  1  0
 49 95  1  0
 50 96  1  0
 51 97  1  0
 53 98  1  0
 54 99  1  0
 55100  1  0
 56101  1  0
 57102  1  0
 58103  1  0
 58104  1  0
 59105  1  0
 59106  1  0
 59107  1  0
 61108  1  0
 61109  1  0
 61110  1  0
 62111  1  0
 62112  1  0
 62113  1  0
M  END
$$$$
