PDB_DB00674_97
     RDKit          3D

 50 53  0  0  0  0  0  0  0  0999 V2000
    2.4700   67.5340   63.2010 C   0  0  0  0  0  0  0  0  0  0  0  0
    2.5980   67.9070   61.9410 C   0  0  0  0  0  0  0  0  0  0  0  0
    3.9180   68.1530   61.2660 C   0  0  1  0  0  0  0  0  0  0  0  0
    5.1610   68.1640   62.2440 C   0  0  0  0  0  0  0  0  0  0  0  0
    5.0120   67.1520   63.4030 C   0  0  1  0  0  0  0  0  0  0  0  0
    3.6480   67.2060   64.1640 C   0  0  1  0  0  0  0  0  0  0  0  0
    5.1710   65.7760   62.8850 O   0  0  0  0  0  0  0  0  0  0  0  0
    4.5400   63.5580   63.7920 C   0  0  1  0  0  0  0  0  0  0  0  0
    3.6820   62.9140   64.7140 C   0  0  0  0  0  0  0  0  0  0  0  0
    2.8010   63.6430   65.5070 C   0  0  0  0  0  0  0  0  0  0  0  0
    1.7460   65.7880   66.3260 C   0  0  0  0  0  0  0  0  0  0  0  0
    2.3820   66.8880   67.1060 N   0  0  0  0  0  0  0  0  0  0  0  0
    2.5160   68.1600   66.3430 C   0  0  0  0  0  0  0  0  0  0  0  0
    3.7030   68.1500   65.3760 C   0  0  0  0  0  0  0  0  0  0  0  0
    4.4440   64.9750   63.7330 C   0  0  0  0  0  0  0  0  0  0  0  0
    3.5440   65.7100   64.5470 C   0  0  1  0  0  0  0  0  0  0  0  0
    2.7020   65.0540   65.4510 C   0  0  0  0  0  0  0  0  0  0  0  0
    5.4060   61.8070   62.3790 C   0  0  0  0  0  0  0  0  0  0  0  0
    5.6070   62.9560   63.1470 O   0  0  0  0  0  0  0  0  0  0  0  0
    4.1130   67.1290   60.3230 O   0  0  0  0  0  0  0  0  0  0  0  0
    1.6470   67.0900   68.4040 C   0  0  0  0  0  0  0  0  0  0  0  0
    1.9097   68.3444   63.6902 H   0  0  0  0  0  0  0  0  0  0  0  0
    2.0422   66.5297   63.0655 H   0  0  0  0  0  0  0  0  0  0  0  0
    2.1008   67.1259   61.3471 H   0  0  0  0  0  0  0  0  0  0  0  0
    2.1921   68.9285   61.9837 H   0  0  0  0  0  0  0  0  0  0  0  0
    3.8656   69.1557   60.8167 H   0  0  0  0  0  0  0  0  0  0  0  0
    6.0642   67.9114   61.6692 H   0  0  0  0  0  0  0  0  0  0  0  0
    5.2300   69.1693   62.6852 H   0  0  0  0  0  0  0  0  0  0  0  0
    5.7957   67.4347   64.1213 H   0  0  0  0  0  0  0  0  0  0  0  0
    4.0191   62.9820   63.0130 H   0  0  0  0  0  0  0  0  0  0  0  0
    3.0687   62.2111   64.1311 H   0  0  0  0  0  0  0  0  0  0  0  0
    4.3868   62.5036   65.4522 H   0  0  0  0  0  0  0  0  0  0  0  0
    1.7964   63.2591   65.2760 H   0  0  0  0  0  0  0  0  0  0  0  0
    3.2291   63.4915   66.5089 H   0  0  0  0  0  0  0  0  0  0  0  0
    1.2999   65.0724   67.0324 H   0  0  0  0  0  0  0  0  0  0  0  0
    0.9930   66.2486   65.6696 H   0  0  0  0  0  0  0  0  0  0  0  0
    1.5938   68.3223   65.7657 H   0  0  0  0  0  0  0  0  0  0  0  0
    2.6890   68.9661   67.0712 H   0  0  0  0  0  0  0  0  0  0  0  0
    4.5957   67.8797   65.9591 H   0  0  0  0  0  0  0  0  0  0  0  0
    3.7024   69.1578   64.9352 H   0  0  0  0  0  0  0  0  0  0  0  0
    3.6525   64.8898   62.9739 H   0  0  0  0  0  0  0  0  0  0  0  0
    2.7524   65.5727   63.7957 H   0  0  0  0  0  0  0  0  0  0  0  0
    1.9267   64.9688   64.6754 H   0  0  0  0  0  0  0  0  0  0  0  0
    5.2550   60.9436   63.0436 H   0  0  0  0  0  0  0  0  0  0  0  0
    4.5177   61.9410   61.7443 H   0  0  0  0  0  0  0  0  0  0  0  0
    6.2871   61.6315   61.7443 H   0  0  0  0  0  0  0  0  0  0  0  0
    4.2759   66.2735   60.7938 H   0  0  0  0  0  0  0  0  0  0  0  0
    2.3303   66.9022   69.2453 H   0  0  0  0  0  0  0  0  0  0  0  0
    1.2748   68.1237   68.4576 H   0  0  0  0  0  0  0  0  0  0  0  0
    0.7988   66.3917   68.4576 H   0  0  0  0  0  0  0  0  0  0  0  0
  1  2  1  0
  2  3  1  0
  3  4  1  0
  4  5  1  0
  6  1  1  6
  5  6  1  0
  5  7  1  0
  8  9  1  0
  9 10  1  0
 11 12  1  0
 12 13  1  0
  6 14  1  0
 13 14  1  0
  7 15  1  0
  8 15  1  0
  6 16  1  0
 15 16  1  0
 10 17  1  0
 11 17  1  0
 16 17  1  0
  8 19  1  0
 18 19  1  0
  3 20  1  0
 12 21  1  0
  1 22  1  0
  1 23  1  0
  2 24  1  0
  2 25  1  0
  3 26  1  6
  4 27  1  0
  4 28  1  0
  5 29  1  1
  8 30  1  6
  9 31  1  0
  9 32  1  0
 10 33  1  0
 10 34  1  0
 11 35  1  0
 11 36  1  0
 13 37  1  0
 13 38  1  0
 14 39  1  0
 14 40  1  0
 15 41  1  0
 16 42  1  1
 17 43  1  0
 18 44  1  0
 18 45  1  0
 18 46  1  0
 20 47  1  0
 21 48  1  0
 21 49  1  0
 21 50  1  0
M  END
>  <PDBID>  (1) 
1DX6

>  <PDB ID>  (1) 
1DX6

>  <Generic Name>  (1) 
Galantamine

>  <Brand Name>  (1) 
Apo-galantamine#Auro-galantamine ER#Galantamine#Galantamine ER#Galantamine Hydrobromide#Ipg-galantamine ER#Mar-galantamine ER#Mylan-galantamine ER#PMS-galantamine#PMS-galantamine ER#Pat-galantamine ER#Pendo-galantamine ER#Ratio-galantamine#Razadyne#Reminyl   -(12mg)#Reminyl   -(4mg)#Reminyl   -(8mg)#Reminyl ER#Sandoz Galantamine ER#Teva-galantamine ER#Lycoremine#Nivalin#Reminyl

>  <DrugBank ID>  (1) 
DB00674

>  <ATC Codes>  (1) 
N06DA04

>  <Ligand ID>  (1) 
GNT

>  <Target Name>  (1) 
Acetylcholinesterase

>  <UniProt ID>  (1) 
P22303

>  <PDB ID.1>  (1) 
1DX6

>  <Seq. Identity>  (1) 
57%

$$$$
