PDB_DB00907_99
     RDKit          3D

 43 45  0  0  0  0  0  0  0  0999 V2000
  203.9500  280.4220   26.1460 C   0  0  0  0  0  0  0  0  0  0  0  0
  203.8500  280.9500   27.4900 O   0  0  0  0  0  0  0  0  0  0  0  0
  202.5740  281.5850   27.7530 C   0  0  0  0  0  0  0  0  0  0  0  0
  201.6400  281.3850   26.9880 O   0  0  0  0  0  0  0  0  0  0  0  0
  202.4100  282.4810   28.9270 C   0  0  2  0  0  0  0  0  0  0  0  0
  201.1890  282.1150   29.6700 C   0  0  2  0  0  0  0  0  0  0  0  0
  200.0830  282.4250   29.0370 N   0  0  0  0  0  0  0  0  0  0  0  0
  198.9570  281.7420   29.6770 C   0  0  0  0  0  0  0  0  0  0  0  0
  201.1000  283.0280   30.9330 C   0  0  0  0  0  0  0  0  0  0  0  0
  200.2040  284.1060   30.5040 C   0  0  0  0  0  0  0  0  0  0  0  0
  199.8590  283.7220   29.0430 C   0  0  1  0  0  0  0  0  0  0  0  0
  200.7850  284.4920   28.1260 C   0  0  0  0  0  0  0  0  0  0  0  0
  202.3250  284.0570   28.3380 C   0  0  2  0  0  0  0  0  0  0  0  0
  202.9080  284.0900   27.2160 O   0  0  0  0  0  0  0  0  0  0  0  0
  204.3300  284.5130   27.2550 C   0  0  0  0  0  0  0  0  0  0  0  0
  204.9490  284.4890   28.2930 O   0  0  0  0  0  0  0  0  0  0  0  0
  204.9940  284.9680   25.9830 C   0  0  0  0  0  0  0  0  0  0  0  0
  206.3490  285.2200   25.9550 C   0  0  0  0  0  0  0  0  0  0  0  0
  206.9270  285.6290   24.7840 C   0  0  0  0  0  0  0  0  0  0  0  0
  206.1570  285.7870   23.6380 C   0  0  0  0  0  0  0  0  0  0  0  0
  204.8170  285.5310   23.6710 C   0  0  0  0  0  0  0  0  0  0  0  0
  204.2310  285.1190   24.8450 C   0  0  0  0  0  0  0  0  0  0  0  0
  204.1545  279.3421   26.1906 H   0  0  0  0  0  0  0  0  0  0  0  0
  203.0033  280.5942   25.6130 H   0  0  0  0  0  0  0  0  0  0  0  0
  204.7682  280.9285   25.6130 H   0  0  0  0  0  0  0  0  0  0  0  0
  203.2540  282.3881   29.6264 H   0  0  0  0  0  0  0  0  0  0  0  0
  201.2627  281.0322   29.8494 H   0  0  0  0  0  0  0  0  0  0  0  0
  199.0626  281.8061   30.7700 H   0  0  0  0  0  0  0  0  0  0  0  0
  198.0154  282.2213   29.3709 H   0  0  0  0  0  0  0  0  0  0  0  0
  198.9470  280.6855   29.3709 H   0  0  0  0  0  0  0  0  0  0  0  0
  200.6765  282.4795   31.7873 H   0  0  0  0  0  0  0  0  0  0  0  0
  202.0810  283.3917   31.2726 H   0  0  0  0  0  0  0  0  0  0  0  0
  199.2984  284.1374   31.1276 H   0  0  0  0  0  0  0  0  0  0  0  0
  200.6584  285.1039   30.5911 H   0  0  0  0  0  0  0  0  0  0  0  0
  198.8383  283.9546   28.7052 H   0  0  0  0  0  0  0  0  0  0  0  0
  200.4987  284.2956   27.0822 H   0  0  0  0  0  0  0  0  0  0  0  0
  200.6933  285.5623   28.3629 H   0  0  0  0  0  0  0  0  0  0  0  0
  202.7996  284.7431   29.0550 H   0  0  0  0  0  0  0  0  0  0  0  0
  206.9579  285.0939   26.8624 H   0  0  0  0  0  0  0  0  0  0  0  0
  208.0072  285.8339   24.7496 H   0  0  0  0  0  0  0  0  0  0  0  0
  206.6290  286.1194   22.7016 H   0  0  0  0  0  0  0  0  0  0  0  0
  204.2084  285.6536   22.7629 H   0  0  0  0  0  0  0  0  0  0  0  0
  203.1516  284.9096   24.8759 H   0  0  0  0  0  0  0  0  0  0  0  0
  1  2  1  0
  2  3  1  0
  3  4  2  0
  3  5  1  0
  5  6  1  0
  6  7  1  0
  7  8  1  0
  6  9  1  0
  9 10  1  0
  7 11  1  0
 10 11  1  0
 11 12  1  0
  5 13  1  0
 12 13  1  0
 13 14  1  0
 14 15  1  0
 15 16  2  0
 15 17  1  0
 17 18  2  0
 18 19  1  0
 19 20  2  0
 20 21  1  0
 17 22  1  0
 21 22  2  0
  1 23  1  0
  1 24  1  0
  1 25  1  0
  5 26  1  1
  6 27  1  1
  8 28  1  0
  8 29  1  0
  8 30  1  0
  9 31  1  0
  9 32  1  0
 10 33  1  0
 10 34  1  0
 11 35  1  6
 12 36  1  0
 12 37  1  0
 13 38  1  1
 18 39  1  0
 19 40  1  0
 20 41  1  0
 21 42  1  0
 22 43  1  0
M  END
>  <PDBID>  (1) 
4XP4

>  <PDB ID>  (1) 
4XP4

>  <Generic Name>  (1) 
Cocaine

>  <Brand Name>  (1) 
Cocaine Hydrochloride#Cocaine Hydrochloride Top Sol 40mg/ml#Cocaine Hydrochloride Topical Sol 10%#PMS-cocaine Hydrochloride  Topical Sol 4%#PMS-cocaine Hydrochloride Topical Sol 10%

>  <DrugBank ID>  (1) 
DB00907

>  <ATC Codes>  (1) 
S01HA01#N01BC01#R02AD03#S02DA02

>  <Ligand ID>  (1) 
COC

>  <Target Name>  (1) 
Sodium-dependent noradrenaline transporter

>  <UniProt ID>  (1) 
P23975

>  <PDB ID.1>  (1) 
4XP4

>  <Seq. Identity>  (1) 
58%

$$$$
