PDB_DB00540_99
     RDKit          3D

 55 57  0  0  0  0  0  0  0  0999 V2000
  -43.0980   -1.5900   52.1250 C   0  0  0  0  0  0  0  0  0  0  0  0
  -43.0980   -2.7380   53.0010 N   0  0  0  0  0  0  0  0  0  0  0  0
  -42.9720   -2.5550   54.4310 C   0  0  0  0  0  0  0  0  0  0  0  0
  -41.6120   -3.0090   54.9610 C   0  0  0  0  0  0  0  0  0  0  0  0
  -40.6070   -1.9090   54.7230 C   0  0  0  0  0  0  0  0  0  0  0  0
  -39.4070   -1.7540   55.3160 C   0  0  0  0  0  0  0  0  0  0  0  0
  -38.6270   -0.5640   54.8750 C   0  0  0  0  0  0  0  0  0  0  0  0
  -39.0420    0.7310   55.1650 C   0  0  0  0  0  0  0  0  0  0  0  0
  -38.2710    1.7950   54.7120 C   0  0  0  0  0  0  0  0  0  0  0  0
  -37.1110    1.5540   53.9750 C   0  0  0  0  0  0  0  0  0  0  0  0
  -38.7940   -2.6520   56.3600 C   0  0  0  0  0  0  0  0  0  0  0  0
  -39.5410   -2.9770   57.4890 C   0  0  0  0  0  0  0  0  0  0  0  0
  -39.0200   -3.7880   58.4920 C   0  0  0  0  0  0  0  0  0  0  0  0
  -37.7240   -4.2730   58.3930 C   0  0  0  0  0  0  0  0  0  0  0  0
  -36.9660   -3.9370   57.2800 C   0  0  0  0  0  0  0  0  0  0  0  0
  -37.4820   -3.1340   56.2650 C   0  0  0  0  0  0  0  0  0  0  0  0
  -36.5190   -2.8620   55.1240 C   0  0  0  0  0  0  0  0  0  0  0  0
  -37.1270   -2.2430   53.8760 C   0  0  0  0  0  0  0  0  0  0  0  0
  -37.4860   -0.8040   54.1470 C   0  0  0  0  0  0  0  0  0  0  0  0
  -36.7100    0.2520   53.6860 C   0  0  0  0  0  0  0  0  0  0  0  0
  -42.0609   -1.2985   51.9026 H   0  0  0  0  0  0  0  0  0  0  0  0
  -43.6165   -1.8433   51.1886 H   0  0  0  0  0  0  0  0  0  0  0  0
  -43.6165   -0.7537   52.6166 H   0  0  0  0  0  0  0  0  0  0  0  0
  -43.9865   -3.2341   52.8415 H   0  0  0  0  0  0  0  0  0  0  0  0
  -43.1028   -1.4877   54.6631 H   0  0  0  0  0  0  0  0  0  0  0  0
  -43.7429   -3.1715   54.9164 H   0  0  0  0  0  0  0  0  0  0  0  0
  -41.6854   -3.2162   56.0388 H   0  0  0  0  0  0  0  0  0  0  0  0
  -41.2945   -3.9250   54.4412 H   0  0  0  0  0  0  0  0  0  0  0  0
  -40.3846   -1.9591   53.6469 H   0  0  0  0  0  0  0  0  0  0  0  0
  -41.1447   -1.0778   55.2025 H   0  0  0  0  0  0  0  0  0  0  0  0
  -38.9377   -2.3553   54.5235 H   0  0  0  0  0  0  0  0  0  0  0  0
  -39.1991   -0.5370   53.9359 H   0  0  0  0  0  0  0  0  0  0  0  0
  -40.0471    0.8531   54.7351 H   0  0  0  0  0  0  0  0  0  0  0  0
  -38.9703    0.7960   56.2607 H   0  0  0  0  0  0  0  0  0  0  0  0
  -38.9250    2.4144   54.0806 H   0  0  0  0  0  0  0  0  0  0  0  0
  -37.8905    2.2441   55.6412 H   0  0  0  0  0  0  0  0  0  0  0  0
  -37.2405    2.0645   53.0093 H   0  0  0  0  0  0  0  0  0  0  0  0
  -36.3158    1.9125   54.6452 H   0  0  0  0  0  0  0  0  0  0  0  0
  -38.3903   -1.7711   56.8807 H   0  0  0  0  0  0  0  0  0  0  0  0
  -39.8113   -2.0244   57.9681 H   0  0  0  0  0  0  0  0  0  0  0  0
  -40.3449   -3.6010   57.0714 H   0  0  0  0  0  0  0  0  0  0  0  0
  -39.0712   -3.2092   59.4260 H   0  0  0  0  0  0  0  0  0  0  0  0
  -39.6346   -4.6978   58.4240 H   0  0  0  0  0  0  0  0  0  0  0  0
  -37.1765   -3.9141   59.2770 H   0  0  0  0  0  0  0  0  0  0  0  0
  -37.8542   -5.3618   58.3064 H   0  0  0  0  0  0  0  0  0  0  0  0
  -36.0702   -3.4226   57.6580 H   0  0  0  0  0  0  0  0  0  0  0  0
  -36.8425   -4.9067   56.7756 H   0  0  0  0  0  0  0  0  0  0  0  0
  -37.1151   -2.2381   56.7872 H   0  0  0  0  0  0  0  0  0  0  0  0
  -35.7414   -2.1781   55.4949 H   0  0  0  0  0  0  0  0  0  0  0  0
  -36.1394   -3.8466   54.8135 H   0  0  0  0  0  0  0  0  0  0  0  0
  -36.3990   -2.2896   53.0527 H   0  0  0  0  0  0  0  0  0  0  0  0
  -38.0344   -2.7992   53.5980 H   0  0  0  0  0  0  0  0  0  0  0  0
  -36.8988   -0.8326   55.0767 H   0  0  0  0  0  0  0  0  0  0  0  0
  -36.6617    0.1639   52.5906 H   0  0  0  0  0  0  0  0  0  0  0  0
  -35.7588    0.1398   54.2269 H   0  0  0  0  0  0  0  0  0  0  0  0
  1  2  1  0
  2  3  1  0
  3  4  1  0
  4  5  1  0
  5  6  1  0
  6  7  1  0
  7  8  1  0
  8  9  1  0
  9 10  1  0
  6 11  1  0
 11 12  1  0
 12 13  1  0
 13 14  1  0
 14 15  1  0
 11 16  1  0
 15 16  1  0
 16 17  1  0
 17 18  1  0
  7 19  1  0
 18 19  1  0
 10 20  1  0
 19 20  1  0
  1 21  1  0
  1 22  1  0
  1 23  1  0
  2 24  1  0
  3 25  1  0
  3 26  1  0
  4 27  1  0
  4 28  1  0
  5 29  1  0
  5 30  1  0
  6 31  1  0
  7 32  1  0
  8 33  1  0
  8 34  1  0
  9 35  1  0
  9 36  1  0
 10 37  1  0
 10 38  1  0
 11 39  1  0
 12 40  1  0
 12 41  1  0
 13 42  1  0
 13 43  1  0
 14 44  1  0
 14 45  1  0
 15 46  1  0
 15 47  1  0
 16 48  1  0
 17 49  1  0
 17 50  1  0
 18 51  1  0
 18 52  1  0
 19 53  1  0
 20 54  1  0
 20 55  1  0
M  END
>  <PDBID>  (1) 
4M48

>  <PDB ID>  (1) 
4M48

>  <Generic Name>  (1) 
Nortriptyline

>  <Brand Name>  (1) 
Apo-nortriptyline - Cap 10mg#Apo-nortriptyline - Cap 25mg#Ava-nortriptyline#Aventyl#Dom-nortriptyline 10mg Capsules#Dom-nortriptyline 25mg Capsules#Gen-nortriptyline Capsules 10mg#Gen-nortriptyline Capsules 25mg#Nortriptyline#Nortriptyline Hydrochloride#Nortriptyline-10#Nortriptyline-25#Norventyl#Nu-nortriptyline - Cap 10mg#Nu-nortriptyline - Cap 25mg#PMS-nortriptyline#Pamelor#Ratio-nortriptyline#Teva-nortriptyline#Allegron#Noritren#Norpress#Nortrilen#Sensoval

>  <DrugBank ID>  (1) 
DB00540

>  <ATC Codes>  (1) 
N06AA10

>  <Ligand ID>  (1) 
21B

>  <Target Name>  (1) 
Sodium-dependent noradrenaline transporter

>  <UniProt ID>  (1) 
P23975

>  <PDB ID.1>  (1) 
4M48

>  <Seq. Identity>  (1) 
57%

$$$$
