PDB_DB01137_97
     RDKit          3D

116122  0  0  0  0  0  0  0  0999 V2000
  -23.8480   49.4940  -32.9850 C   0  0  2  0  0  0  0  0  0  0  0  0
  -23.3820   48.8210  -40.1740 F   0  0  0  0  0  0  0  0  0  0  0  0
  -19.9060   52.4010  -41.9300 N   0  0  0  0  0  0  0  0  0  0  0  0
  -23.8470   50.2520  -32.0260 O   0  0  0  0  0  0  0  0  0  0  0  0
  -21.0730   50.3010  -41.2000 C   0  0  0  0  0  0  0  0  0  0  0  0
  -21.9740   51.2070  -40.4430 N   0  0  0  0  0  0  0  0  0  0  0  0
  -21.6730   52.5820  -38.0410 O   0  0  0  0  0  0  0  0  0  0  0  0
  -22.2750   52.5290  -41.0460 C   0  0  0  0  0  0  0  0  0  0  0  0
  -22.4490   51.6880  -35.5820 N   0  0  0  0  0  0  0  0  0  0  0  0
  -24.2930   48.1010  -35.3520 O   0  0  0  0  0  0  0  0  0  0  0  0
  -21.6250   52.8800  -35.6210 C   0  0  2  0  0  0  0  0  0  0  0  0
  -23.6530   48.3120  -32.6800 O   0  0  0  0  0  0  0  0  0  0  0  0
  -22.4740   50.7470  -39.1860 C   0  0  1  0  0  0  0  0  0  0  0  0
  -22.6710   50.9570  -36.7310 C   0  0  0  0  0  0  0  0  0  0  0  0
  -22.2340   51.4520  -37.9880 C   0  0  1  0  0  0  0  0  0  0  0  0
  -19.7180   50.9810  -41.5200 C   0  0  0  0  0  0  0  0  0  0  0  0
  -21.3340   52.7280  -42.2670 C   0  0  0  0  0  0  0  0  0  0  0  0
  -21.5990   53.4950  -37.0640 C   0  0  0  0  0  0  0  0  0  0  0  0
  -23.3280   49.7050  -36.6790 C   0  0  0  0  0  0  0  0  0  0  0  0
  -23.1250   49.5070  -39.1010 C   0  0  0  0  0  0  0  0  0  0  0  0
  -22.8530   51.2080  -34.3700 C   0  0  0  0  0  0  0  0  0  0  0  0
  -23.5060   48.9710  -37.8690 C   0  0  0  0  0  0  0  0  0  0  0  0
  -20.1720   52.5190  -35.1190 C   0  0  0  0  0  0  0  0  0  0  0  0
  -23.7360   49.2220  -35.4210 C   0  0  0  0  0  0  0  0  0  0  0  0
  -18.7870   53.0050  -42.7370 C   0  0  0  0  0  0  0  0  0  0  0  0
  -23.5060   49.9680  -34.2450 C   0  0  1  0  0  0  0  0  0  0  0  0
  -23.5890   47.6780  -33.2870 H   0  0  0  0  0  0  0  0  0  0  0  0
  -21.5480   50.0250  -42.1460 H   0  0  0  0  0  0  0  0  0  0  0  0
  -20.8830   49.3810  -40.6440 H   0  0  0  0  0  0  0  0  0  0  0  0
  -23.3130   52.5550  -41.3910 H   0  0  0  0  0  0  0  0  0  0  0  0
  -22.1290   53.3430  -40.3320 H   0  0  0  0  0  0  0  0  0  0  0  0
  -22.0470   53.6270  -34.9390 H   0  0  0  0  0  0  0  0  0  0  0  0
  -19.2340   50.4370  -42.3360 H   0  0  0  0  0  0  0  0  0  0  0  0
  -19.0530   50.9150  -40.6560 H   0  0  0  0  0  0  0  0  0  0  0  0
  -21.6660   52.0750  -43.0770 H   0  0  0  0  0  0  0  0  0  0  0  0
  -21.4140   53.7530  -42.6360 H   0  0  0  0  0  0  0  0  0  0  0  0
  -20.6910   54.0740  -37.2440 H   0  0  0  0  0  0  0  0  0  0  0  0
  -22.4470   54.1720  -37.1910 H   0  0  0  0  0  0  0  0  0  0  0  0
  -22.6560   51.7540  -33.5280 H   0  0  0  0  0  0  0  0  0  0  0  0
  -24.0240   48.0890  -37.8590 H   0  0  0  0  0  0  0  0  0  0  0  0
  -19.7020   51.8060  -35.8000 H   0  0  0  0  0  0  0  0  0  0  0  0
  -19.5380   53.4060  -35.0510 H   0  0  0  0  0  0  0  0  0  0  0  0
  -20.2200   52.0820  -34.1200 H   0  0  0  0  0  0  0  0  0  0  0  0
  -19.1030   53.9940  -43.0670 H   0  0  0  0  0  0  0  0  0  0  0  0
  -17.8680   53.1230  -42.1600 H   0  0  0  0  0  0  0  0  0  0  0  0
  -18.5430   52.4170  -43.6240 H   0  0  0  0  0  0  0  0  0  0  0  0
  -37.3720   56.4300  -33.0180 C   0  0  2  0  0  0  0  0  0  0  0  0
  -37.9480   57.0460  -40.1930 F   0  0  0  0  0  0  0  0  0  0  0  0
  -41.3450   53.5010  -41.9970 N   0  0  0  0  0  0  0  0  0  0  0  0
  -37.4620   55.7180  -32.0300 O   0  0  0  0  0  0  0  0  0  0  0  0
  -40.2730   55.6040  -41.1770 C   0  0  0  0  0  0  0  0  0  0  0  0
  -39.3600   54.6720  -40.4620 N   0  0  0  0  0  0  0  0  0  0  0  0
  -39.6080   53.2780  -38.0270 O   0  0  0  0  0  0  0  0  0  0  0  0
  -38.9560   53.4410  -41.1920 C   0  0  0  0  0  0  0  0  0  0  0  0
  -38.7930   54.1970  -35.5820 N   0  0  0  0  0  0  0  0  0  0  0  0
  -37.0030   57.7960  -35.3820 O   0  0  0  0  0  0  0  0  0  0  0  0
  -39.6260   53.0170  -35.5990 C   0  0  2  0  0  0  0  0  0  0  0  0
  -37.5220   57.6360  -32.7690 O   0  0  0  0  0  0  0  0  0  0  0  0
  -38.8310   55.1130  -39.2040 C   0  0  1  0  0  0  0  0  0  0  0  0
  -38.5980   54.9170  -36.7410 C   0  0  0  0  0  0  0  0  0  0  0  0
  -39.0490   54.4100  -37.9930 C   0  0  0  0  0  0  0  0  0  0  0  0
  -41.5940   54.9110  -41.5900 C   0  0  0  0  0  0  0  0  0  0  0  0
  -39.9210   53.2510  -42.4000 C   0  0  0  0  0  0  0  0  0  0  0  0
  -39.6970   52.3850  -37.0320 C   0  0  0  0  0  0  0  0  0  0  0  0
  -37.9490   56.1720  -36.7010 C   0  0  0  0  0  0  0  0  0  0  0  0
  -38.1870   56.3590  -39.1210 C   0  0  0  0  0  0  0  0  0  0  0  0
  -38.3700   54.6780  -34.3740 C   0  0  0  0  0  0  0  0  0  0  0  0
  -37.7930   56.9030  -37.8950 C   0  0  0  0  0  0  0  0  0  0  0  0
  -41.0550   53.4150  -35.0630 C   0  0  0  0  0  0  0  0  0  0  0  0
  -37.5240   56.6590  -35.4480 C   0  0  0  0  0  0  0  0  0  0  0  0
  -42.4500   52.8380  -42.7590 C   0  0  0  0  0  0  0  0  0  0  0  0
  -37.7230   55.9210  -34.2640 C   0  0  1  0  0  0  0  0  0  0  0  0
  -36.9170   58.2370  -32.9890 H   0  0  0  0  0  0  0  0  0  0  0  0
  -39.7810   55.9670  -42.0840 H   0  0  0  0  0  0  0  0  0  0  0  0
  -40.5090   56.4730  -40.5590 H   0  0  0  0  0  0  0  0  0  0  0  0
  -37.9340   53.5490  -41.5690 H   0  0  0  0  0  0  0  0  0  0  0  0
  -38.9940   52.5580  -40.5490 H   0  0  0  0  0  0  0  0  0  0  0  0
  -39.2010   52.2710  -34.9180 H   0  0  0  0  0  0  0  0  0  0  0  0
  -42.0320   55.4540  -42.4320 H   0  0  0  0  0  0  0  0  0  0  0  0
  -42.3150   54.9550  -40.7710 H   0  0  0  0  0  0  0  0  0  0  0  0
  -39.6440   53.9540  -43.1890 H   0  0  0  0  0  0  0  0  0  0  0  0
  -39.8100   52.2470  -42.8150 H   0  0  0  0  0  0  0  0  0  0  0  0
  -40.6270   51.8350  -37.1880 H   0  0  0  0  0  0  0  0  0  0  0  0
  -38.8750   51.6770  -37.1620 H   0  0  0  0  0  0  0  0  0  0  0  0
  -38.5550   54.1350  -33.5280 H   0  0  0  0  0  0  0  0  0  0  0  0
  -37.2800   57.7880  -37.8950 H   0  0  0  0  0  0  0  0  0  0  0  0
  -41.5040   54.1750  -35.7070 H   0  0  0  0  0  0  0  0  0  0  0  0
  -41.0080   53.8050  -34.0440 H   0  0  0  0  0  0  0  0  0  0  0  0
  -41.7030   52.5370  -35.0410 H   0  0  0  0  0  0  0  0  0  0  0  0
  -42.1110   51.8450  -43.0520 H   0  0  0  0  0  0  0  0  0  0  0  0
  -43.3580   52.7200  -42.1650 H   0  0  0  0  0  0  0  0  0  0  0  0
  -42.7210   53.3820  -43.6660 H   0  0  0  0  0  0  0  0  0  0  0  0
  -24.8996   49.4805  -33.3074 H   0  0  0  0  0  0  0  0  0  0  0  0
  -23.8477   49.7244  -31.1883 H   0  0  0  0  0  0  0  0  0  0  0  0
  -24.4168   47.8519  -34.4019 H   0  0  0  0  0  0  0  0  0  0  0  0
  -21.5513   50.1687  -39.0306 H   0  0  0  0  0  0  0  0  0  0  0  0
  -23.6374   51.4645  -36.8671 H   0  0  0  0  0  0  0  0  0  0  0  0
  -23.2177   51.9363  -38.0759 H   0  0  0  0  0  0  0  0  0  0  0  0
  -24.2939   50.2051  -36.8430 H   0  0  0  0  0  0  0  0  0  0  0  0
  -22.1518   49.0022  -39.0114 H   0  0  0  0  0  0  0  0  0  0  0  0
  -23.8250   51.7072  -34.4963 H   0  0  0  0  0  0  0  0  0  0  0  0
  -22.5119   48.5787  -37.6085 H   0  0  0  0  0  0  0  0  0  0  0  0
  -22.7550   48.7428  -35.2868 H   0  0  0  0  0  0  0  0  0  0  0  0
  -24.4801   50.4735  -34.3192 H   0  0  0  0  0  0  0  0  0  0  0  0
  -36.3075   56.3748  -33.2896 H   0  0  0  0  0  0  0  0  0  0  0  0
  -37.3916   56.2748  -31.2145 H   0  0  0  0  0  0  0  0  0  0  0  0
  -36.8862   58.0509  -34.4325 H   0  0  0  0  0  0  0  0  0  0  0  0
  -39.7433   55.7014  -39.0266 H   0  0  0  0  0  0  0  0  0  0  0  0
  -37.6288   54.4179  -36.8880 H   0  0  0  0  0  0  0  0  0  0  0  0
  -38.0658   53.9276  -38.0961 H   0  0  0  0  0  0  0  0  0  0  0  0
  -36.9823   55.6777  -36.8773 H   0  0  0  0  0  0  0  0  0  0  0  0
  -39.1628   56.8566  -39.0197 H   0  0  0  0  0  0  0  0  0  0  0  0
  -37.3975   54.1845  -34.5181 H   0  0  0  0  0  0  0  0  0  0  0  0
  -38.7856   57.2941  -37.6271 H   0  0  0  0  0  0  0  0  0  0  0  0
  -38.5165   57.1043  -35.2844 H   0  0  0  0  0  0  0  0  0  0  0  0
  -36.7467   55.4190  -34.3340 H   0  0  0  0  0  0  0  0  0  0  0  0
  1  4  1  0
  5  6  1  0
  6  8  1  0
  9 11  1  0
  1 12  1  0
  6 13  1  0
  9 14  1  0
  7 15  1  0
 13 15  1  0
 14 15  1  0
  3 16  1  0
  5 16  1  0
  3 17  1  0
  8 17  1  0
  7 18  1  0
 11 18  1  0
 14 19  1  0
  2 20  1  0
 13 20  1  0
  9 21  1  0
 19 22  1  0
 20 22  1  0
 11 23  1  0
 10 24  1  0
 19 24  1  0
  3 25  1  0
  1 26  1  0
 21 26  1  0
 24 26  1  0
 12 27  1  0
  5 28  1  0
  5 29  1  0
  8 30  1  0
  8 31  1  0
 11 32  1  1
 16 33  1  0
 16 34  1  0
 17 35  1  0
 17 36  1  0
 18 37  1  0
 18 38  1  0
 21 39  1  0
 22 40  1  0
 23 41  1  0
 23 42  1  0
 23 43  1  0
 25 44  1  0
 25 45  1  0
 25 46  1  0
 47 50  1  0
 51 52  1  0
 52 54  1  0
 55 57  1  0
 47 58  1  0
 52 59  1  0
 55 60  1  0
 53 61  1  0
 59 61  1  0
 60 61  1  0
 49 62  1  0
 51 62  1  0
 49 63  1  0
 54 63  1  0
 53 64  1  0
 57 64  1  0
 60 65  1  0
 48 66  1  0
 59 66  1  0
 55 67  1  0
 65 68  1  0
 66 68  1  0
 57 69  1  0
 56 70  1  0
 65 70  1  0
 49 71  1  0
 47 72  1  0
 67 72  1  0
 70 72  1  0
 58 73  1  0
 51 74  1  0
 51 75  1  0
 54 76  1  0
 54 77  1  0
 57 78  1  1
 62 79  1  0
 62 80  1  0
 63 81  1  0
 63 82  1  0
 64 83  1  0
 64 84  1  0
 67 85  1  0
 68 86  1  0
 69 87  1  0
 69 88  1  0
 69 89  1  0
 71 90  1  0
 71 91  1  0
 71 92  1  0
  1 93  1  6
  4 94  1  0
 10 95  1  0
 13 96  1  6
 14 97  1  0
 15 98  1  1
 19 99  1  0
 20100  1  0
 21101  1  0
 22102  1  0
 24103  1  0
 26104  1  6
 47105  1  6
 50106  1  0
 56107  1  0
 59108  1  6
 60109  1  0
 61110  1  0
 65111  1  0
 66112  1  0
 67113  1  0
 68114  1  0
 70115  1  0
 72116  1  6
M  END
>  <PDBID>  (1) 
3K9F

>  <PDB ID>  (1) 
3K9F

>  <Generic Name>  (1) 
Levofloxacin

>  <Brand Name>  (1) 
Act Levofloxacin#Apo-levofloxacin#Auro-levofloxacin#Ava-levofloxacin#Dom-levofloxacin#Iquix#Levaquin#Levaquin 25mg/ml#Levaquin 500mg#Levaquin 5mg/ml#Levaquin 750mg#Levofloxacin#Levofloxacin In 5% Dextrose Injection#Levofloxacin Injection#Mylan-levofloxacin#Ntp-levofloxacin#PHL-levofloxacin#PMS-levofloxacin#Quinsair#Quixin#Sandoz Levofloxacin#Teva-levofloxacin#Cravit#Elequine#Floxel#Leroxacin#Levokacin#Levox#Levoxacin#Mosardal#Nofaxin#Reskuin#Tavanic

>  <DrugBank ID>  (1) 
DB01137

>  <ATC Codes>  (1) 
A02BD10#J01RA05#S01AE05#J01MA12

>  <Ligand ID>  (1) 
LFX

>  <Target Name>  (1) 
DNA gyrase subunit A

>  <UniProt ID>  (1) 
P43700

>  <PDB ID.1>  (1) 
3K9F

>  <Seq. Identity>  (1) 
43%

$$$$
