PDB_DB04552_99
     RDKit          3D

 43 44  0  0  0  0  0  0  0  0999 V2000
    9.6370   10.8690    6.7250 F   0  0  0  0  0  0  0  0  0  0  0  0
   10.9360   11.0920    6.9260 C   0  0  2  0  0  0  0  0  0  0  0  0
   11.5690    9.9370    6.7290 F   0  0  0  0  0  0  0  0  0  0  0  0
   11.2370   11.4250    8.1800 F   0  0  0  0  0  0  0  0  0  0  0  0
   11.5150   11.9890    5.8520 C   0  0  1  0  0  0  0  0  0  0  0  0
   10.7960   12.5070    4.7430 C   0  0  0  0  0  0  0  0  0  0  0  0
   11.4490   13.2950    3.7630 C   0  0  0  0  0  0  0  0  0  0  0  0
   12.8150   13.5120    3.9320 C   0  0  0  0  0  0  0  0  0  0  0  0
   13.5200   12.9860    5.0110 C   0  0  0  0  0  0  0  0  0  0  0  0
   12.8760   12.2240    5.9670 C   0  0  0  0  0  0  0  0  0  0  0  0
   10.9080   13.8960    2.6330 N   0  0  0  0  0  0  0  0  0  0  0  0
    9.6240   13.9240    2.1130 C   0  0  0  0  0  0  0  0  0  0  0  0
    8.6180   13.2880    2.7560 N   0  0  0  0  0  0  0  0  0  0  0  0
    9.2600   14.6540    0.8300 C   0  0  0  0  0  0  0  0  0  0  0  0
   10.2270   15.4370   -0.0590 C   0  0  0  0  0  0  0  0  0  0  0  0
   11.4180   15.5370    0.2140 O   0  0  0  0  0  0  0  0  0  0  0  0
    9.8340   15.9900   -1.0890 O   0  0  0  0  0  0  0  0  0  0  0  0
    7.9280   14.6030    0.4020 C   0  0  0  0  0  0  0  0  0  0  0  0
    6.9800   13.9110    1.1450 C   0  0  0  0  0  0  0  0  0  0  0  0
    7.3530   13.2680    2.3120 C   0  0  0  0  0  0  0  0  0  0  0  0
   11.7896   11.1033    5.2603 H   0  0  0  0  0  0  0  0  0  0  0  0
   10.3656   11.6427    4.2159 H   0  0  0  0  0  0  0  0  0  0  0  0
   10.1034   13.2217    5.2114 H   0  0  0  0  0  0  0  0  0  0  0  0
   11.2327   14.2013    4.3476 H   0  0  0  0  0  0  0  0  0  0  0  0
   13.3026   13.1215    3.0266 H   0  0  0  0  0  0  0  0  0  0  0  0
   12.8523   14.5919    4.1378 H   0  0  0  0  0  0  0  0  0  0  0  0
   14.3162   12.3549    4.5893 H   0  0  0  0  0  0  0  0  0  0  0  0
   13.8188   13.8840    5.5716 H   0  0  0  0  0  0  0  0  0  0  0  0
   13.0332   12.7246    6.9338 H   0  0  0  0  0  0  0  0  0  0  0  0
   13.3209   11.2257    5.8429 H   0  0  0  0  0  0  0  0  0  0  0  0
   11.1379   14.8922    2.7579 H   0  0  0  0  0  0  0  0  0  0  0  0
    9.8361   13.0093    1.5400 H   0  0  0  0  0  0  0  0  0  0  0  0
    8.9075   12.3020    2.8263 H   0  0  0  0  0  0  0  0  0  0  0  0
    9.0525   15.5666    1.4081 H   0  0  0  0  0  0  0  0  0  0  0  0
   10.0181   16.3500    0.5179 H   0  0  0  0  0  0  0  0  0  0  0  0
   11.5315   15.5465    1.1974 H   0  0  0  0  0  0  0  0  0  0  0  0
    9.2773   16.7733   -0.8512 H   0  0  0  0  0  0  0  0  0  0  0  0
    7.5779   15.6435    0.3330 H   0  0  0  0  0  0  0  0  0  0  0  0
    7.9871   14.0226   -0.5305 H   0  0  0  0  0  0  0  0  0  0  0  0
    6.1984   14.6356    1.4171 H   0  0  0  0  0  0  0  0  0  0  0  0
    6.6913   13.0834    0.4804 H   0  0  0  0  0  0  0  0  0  0  0  0
    7.0890   12.2085    2.1789 H   0  0  0  0  0  0  0  0  0  0  0  0
    6.8269   13.8543    3.0798 H   0  0  0  0  0  0  0  0  0  0  0  0
  2  1  1  1
  2  3  1  0
  2  4  1  0
  2  5  1  0
  5  6  1  0
  6  7  1  0
  7  8  1  0
  8  9  1  0
  5 10  1  0
  9 10  1  0
  7 11  1  0
 11 12  1  0
 12 13  1  0
 12 14  1  0
 14 15  1  0
 15 16  1  0
 15 17  1  0
 14 18  1  0
 18 19  1  0
 13 20  1  0
 19 20  1  0
  5 21  1  1
  6 22  1  0
  6 23  1  0
  7 24  1  0
  8 25  1  0
  8 26  1  0
  9 27  1  0
  9 28  1  0
 10 29  1  0
 10 30  1  0
 11 31  1  0
 12 32  1  0
 13 33  1  0
 14 34  1  0
 15 35  1  0
 16 36  1  0
 17 37  1  0
 18 38  1  0
 18 39  1  0
 19 40  1  0
 19 41  1  0
 20 42  1  0
 20 43  1  0
M  END
>  <PDBID>  (1) 
1TD7

>  <PDB ID>  (1) 
1TD7

>  <Generic Name>  (1) 
Niflumic Acid

>  <Brand Name>  (1) 
Niflam#Niflugel#Nifluril

>  <DrugBank ID>  (1) 
DB04552

>  <ATC Codes>  (1) 
M02AA17#M01AX02

>  <Ligand ID>  (1) 
NFL

>  <Target Name>  (1) 
Phospholipase A2

>  <UniProt ID>  (1) 
P04054

>  <PDB ID.1>  (1) 
1TD7

>  <Seq. Identity>  (1) 
43%

$$$$
