PDB_DB00456_99
     RDKit          3D

 56 58  0  0  0  0  0  0  0  0999 V2000
   25.0920    8.5060   15.8600 S   0  0  0  0  0  0  0  0  0  0  0  0
   25.5930    9.4560   17.3100 C   0  0  0  0  0  0  0  0  0  0  0  0
   25.7630    8.5110   18.5390 C   0  0  0  0  0  0  0  0  0  0  0  0
   25.4080    9.2180   19.8600 C   0  0  0  0  0  0  0  0  0  0  0  0
   25.5340   10.6720   19.6910 O   0  0  0  0  0  0  0  0  0  0  0  0
   26.8310   11.2090   19.8600 C   0  0  0  0  0  0  0  0  0  0  0  0
   27.3860   11.0720   20.8900 O   0  0  0  0  0  0  0  0  0  0  0  0
   27.2890   11.9150   18.5920 C   0  0  0  0  0  0  0  0  0  0  0  0
   26.1910    7.2260   18.4740 C   0  0  0  0  0  0  0  0  0  0  0  0
   26.4080    6.2890   19.6840 C   0  0  0  0  0  0  0  0  0  0  0  0
   27.5680    6.0920   20.1240 O   0  0  0  0  0  0  0  0  0  0  0  0
   25.4170    5.7110   20.1550 O   0  0  0  0  0  0  0  0  0  0  0  0
   26.5520    6.5700   17.2580 N   0  0  0  0  0  0  0  0  0  0  0  0
   26.5050    7.3730   15.9360 C   0  0  1  0  0  0  0  0  0  0  0  0
   26.1860    5.9720   15.2400 C   0  0  1  0  0  0  0  0  0  0  0  0
   26.2520    5.3930   16.6540 C   0  0  0  0  0  0  0  0  0  0  0  0
   26.0530    4.2810   17.0690 O   0  0  0  0  0  0  0  0  0  0  0  0
   24.9420    5.8500   14.7180 N   0  0  0  0  0  0  0  0  0  0  0  0
   24.6620    6.2190   13.4670 C   0  0  1  0  0  0  0  0  0  0  0  0
   25.5510    6.6850   12.7270 O   0  0  0  0  0  0  0  0  0  0  0  0
   23.2670    6.0910   13.1440 C   0  0  0  0  0  0  0  0  0  0  0  0
   22.9900    6.0020   11.6150 C   0  0  0  0  0  0  0  0  0  0  0  0
   23.6450    6.7600   10.5640 C   0  0  0  0  0  0  0  0  0  0  0  0
   22.9280    6.4010    9.3440 C   0  0  0  0  0  0  0  0  0  0  0  0
   22.0000    5.5240    9.4660 C   0  0  0  0  0  0  0  0  0  0  0  0
   21.7770    4.9630   11.0720 S   0  0  0  0  0  0  0  0  0  0  0  0
   26.5493    9.9586   17.1028 H   0  0  0  0  0  0  0  0  0  0  0  0
   24.8179   10.2032   17.5356 H   0  0  0  0  0  0  0  0  0  0  0  0
   26.8081    8.8372   18.6453 H   0  0  0  0  0  0  0  0  0  0  0  0
   24.3737    8.9705   20.1411 H   0  0  0  0  0  0  0  0  0  0  0  0
   26.0952    8.8815   20.6502 H   0  0  0  0  0  0  0  0  0  0  0  0
   26.3937   12.1516   20.2210 H   0  0  0  0  0  0  0  0  0  0  0  0
   26.7491   11.2292   21.6315 H   0  0  0  0  0  0  0  0  0  0  0  0
   27.8696   12.8100   18.8600 H   0  0  0  0  0  0  0  0  0  0  0  0
   27.9177   11.2338   17.9997 H   0  0  0  0  0  0  0  0  0  0  0  0
   26.4107   12.2114   17.9997 H   0  0  0  0  0  0  0  0  0  0  0  0
   27.2331    7.5691   18.5528 H   0  0  0  0  0  0  0  0  0  0  0  0
   26.5217    5.4339   19.0014 H   0  0  0  0  0  0  0  0  0  0  0  0
   27.5504    6.0950   21.1138 H   0  0  0  0  0  0  0  0  0  0  0  0
   25.4595    5.7358   21.1438 H   0  0  0  0  0  0  0  0  0  0  0  0
   27.3208    8.0362   15.6124 H   0  0  0  0  0  0  0  0  0  0  0  0
   26.7781    5.6135   14.3851 H   0  0  0  0  0  0  0  0  0  0  0  0
   25.1795    5.5977   16.7879 H   0  0  0  0  0  0  0  0  0  0  0  0
   26.0551    4.2929   18.0589 H   0  0  0  0  0  0  0  0  0  0  0  0
   24.6972    4.8518   14.7860 H   0  0  0  0  0  0  0  0  0  0  0  0
   24.4237    7.2334   13.8195 H   0  0  0  0  0  0  0  0  0  0  0  0
   26.2768    7.0655   13.2825 H   0  0  0  0  0  0  0  0  0  0  0  0
   22.8813    5.1782   13.6215 H   0  0  0  0  0  0  0  0  0  0  0  0
   22.7649    6.9980   13.5118 H   0  0  0  0  0  0  0  0  0  0  0  0
   22.2272    6.7892   11.7074 H   0  0  0  0  0  0  0  0  0  0  0  0
   23.5647    7.8399   10.7573 H   0  0  0  0  0  0  0  0  0  0  0  0
   24.7194    6.5338   10.4964 H   0  0  0  0  0  0  0  0  0  0  0  0
   22.4718    7.3175    8.9417 H   0  0  0  0  0  0  0  0  0  0  0  0
   23.6807    5.9411    8.6868 H   0  0  0  0  0  0  0  0  0  0  0  0
   21.0554    5.9696    9.1209 H   0  0  0  0  0  0  0  0  0  0  0  0
   22.3027    4.6544    8.8642 H   0  0  0  0  0  0  0  0  0  0  0  0
  1  2  1  0
  2  3  1  0
  3  4  1  0
  4  5  1  0
  5  6  1  0
  6  7  1  0
  6  8  1  0
  3  9  1  0
  9 10  1  0
 10 11  1  0
 10 12  1  0
  9 13  1  0
  1 14  1  0
 13 14  1  0
 14 15  1  0
 13 16  1  0
 15 16  1  0
 16 17  1  0
 15 18  1  0
 18 19  1  0
 19 20  1  0
 19 21  1  0
 21 22  1  0
 22 23  1  0
 23 24  1  0
 24 25  1  0
 22 26  1  0
 25 26  1  0
  2 27  1  0
  2 28  1  0
  3 29  1  0
  4 30  1  0
  4 31  1  0
  6 32  1  0
  7 33  1  0
  8 34  1  0
  8 35  1  0
  8 36  1  0
  9 37  1  0
 10 38  1  0
 11 39  1  0
 12 40  1  0
 14 41  1  6
 15 42  1  6
 16 43  1  0
 17 44  1  0
 18 45  1  0
 19 46  1  6
 20 47  1  0
 21 48  1  0
 21 49  1  0
 22 50  1  0
 23 51  1  0
 23 52  1  0
 24 53  1  0
 24 54  1  0
 25 55  1  0
 25 56  1  0
M  END
>  <PDBID>  (1) 
1KVL

>  <PDB ID>  (1) 
1KVL

>  <Generic Name>  (1) 
Cefalotin

>  <Brand Name>  (1) 
Ceporacin#Keflin Add-vantage Inj 1gm/vial#Keflin Neutral Inj 1gm#Keflin Neutral Inj 2gm/vial#Coaxin#Keflin

>  <DrugBank ID>  (1) 
DB00456

>  <ATC Codes>  (1) 
J01DB03

>  <Ligand ID>  (1) 
CLS

>  <Target Name>  (1) 
Beta-lactamase

>  <UniProt ID>  (1) 
P00811

>  <PDB ID.1>  (1) 
1KVL

>  <Seq. Identity>  (1) 
100%

$$$$
