PDB_DB08865_94
     RDKit          3D

 52 55  0  0  0  0  0  0  0  0999 V2000
   33.0860   46.1050    6.5250 Cl  0  0  0  0  0  0  0  0  0  0  0  0
   33.5540   45.7790    8.1740 C   0  0  0  0  0  0  0  0  0  0  0  0
   34.3830   46.7560    8.7980 C   0  0  0  0  0  0  0  0  0  0  0  0
   34.8240   46.5970   10.1360 C   0  0  0  0  0  0  0  0  0  0  0  0
   34.4490   45.4550   10.8930 C   0  0  0  0  0  0  0  0  0  0  0  0
   34.8920   45.3500   12.1560 F   0  0  0  0  0  0  0  0  0  0  0  0
   33.1420   44.5860    8.9150 C   0  0  0  0  0  0  0  0  0  0  0  0
   33.6100   44.4390   10.3060 C   0  0  0  0  0  0  0  0  0  0  0  0
   33.1970   43.0630   11.3190 Cl  0  0  0  0  0  0  0  0  0  0  0  0
   32.2290   43.5170    8.2150 C   0  0  1  0  0  0  0  0  0  0  0  0
   32.9000   42.1330    8.1620 C   0  0  0  0  0  0  0  0  0  0  0  0
   30.9190   43.3120    8.8620 O   0  0  0  0  0  0  0  0  0  0  0  0
   29.9410   44.3060    9.0640 C   0  0  0  0  0  0  0  0  0  0  0  0
   29.8320   45.5310    8.3070 C   0  0  0  0  0  0  0  0  0  0  0  0
   28.9470   44.1100   10.0870 C   0  0  0  0  0  0  0  0  0  0  0  0
   28.9820   42.9360   10.8700 N   0  0  0  0  0  0  0  0  0  0  0  0
   27.9510   44.9920   10.3590 N   0  0  0  0  0  0  0  0  0  0  0  0
   27.8800   46.1390    9.6260 C   0  0  0  0  0  0  0  0  0  0  0  0
   28.7930   46.4750    8.5800 C   0  0  0  0  0  0  0  0  0  0  0  0
   28.6770   47.7680    7.7890 C   0  0  0  0  0  0  0  0  0  0  0  0
   29.7350   48.4750    7.0590 C   0  0  0  0  0  0  0  0  0  0  0  0
   27.5390   48.5450    7.5990 C   0  0  0  0  0  0  0  0  0  0  0  0
   27.9840   49.6170    6.7980 N   0  0  0  0  0  0  0  0  0  0  0  0
   29.2390   49.5320    6.5190 N   0  0  0  0  0  0  0  0  0  0  0  0
   27.1420   50.7360    6.3110 C   0  0  0  0  0  0  0  0  0  0  0  0
   26.8310   51.7150    7.4670 C   0  0  0  0  0  0  0  0  0  0  0  0
   25.9510   52.8720    6.9400 C   0  0  0  0  0  0  0  0  0  0  0  0
   24.7060   52.3810    6.2800 N   0  0  0  0  0  0  0  0  0  0  0  0
   24.9800   51.4030    5.1870 C   0  0  0  0  0  0  0  0  0  0  0  0
   25.8310   50.2090    5.6750 C   0  0  0  0  0  0  0  0  0  0  0  0
   34.6860   47.6490    8.2316 H   0  0  0  0  0  0  0  0  0  0  0  0
   35.4636   47.3665   10.5930 H   0  0  0  0  0  0  0  0  0  0  0  0
   32.0761   43.9394    7.2109 H   0  0  0  0  0  0  0  0  0  0  0  0
   33.0754   41.7711    9.1858 H   0  0  0  0  0  0  0  0  0  0  0  0
   32.2439   41.4275    7.6311 H   0  0  0  0  0  0  0  0  0  0  0  0
   33.8602   42.2112    7.6311 H   0  0  0  0  0  0  0  0  0  0  0  0
   30.5589   45.7411    7.5086 H   0  0  0  0  0  0  0  0  0  0  0  0
   28.2758   42.7856   11.6045 H   0  0  0  0  0  0  0  0  0  0  0  0
   29.7138   42.2297   10.7068 H   0  0  0  0  0  0  0  0  0  0  0  0
   27.0709   46.8486    9.8536 H   0  0  0  0  0  0  0  0  0  0  0  0
   30.7842   48.1529    6.9852 H   0  0  0  0  0  0  0  0  0  0  0  0
   26.5248   48.3647    7.9849 H   0  0  0  0  0  0  0  0  0  0  0  0
   27.7022   51.2757    5.5332 H   0  0  0  0  0  0  0  0  0  0  0  0
   26.2950   51.1810    8.2655 H   0  0  0  0  0  0  0  0  0  0  0  0
   27.7718   52.1222    7.8657 H   0  0  0  0  0  0  0  0  0  0  0  0
   25.6720   53.5178    7.7856 H   0  0  0  0  0  0  0  0  0  0  0  0
   26.5350   53.4239    6.1888 H   0  0  0  0  0  0  0  0  0  0  0  0
   24.1149   51.9249    6.9896 H   0  0  0  0  0  0  0  0  0  0  0  0
   24.0219   51.0224    4.8033 H   0  0  0  0  0  0  0  0  0  0  0  0
   25.5464   51.9237    4.4008 H   0  0  0  0  0  0  0  0  0  0  0  0
   26.0730   49.5580    4.8219 H   0  0  0  0  0  0  0  0  0  0  0  0
   25.2643   49.6361    6.4237 H   0  0  0  0  0  0  0  0  0  0  0  0
  1  2  1  0
  2  3  2  0
  3  4  1  0
  4  5  2  0
  5  6  1  0
  2  7  1  0
  5  8  1  0
  7  8  2  0
  8  9  1  0
  7 10  1  0
 10 11  1  0
 10 12  1  0
 12 13  1  0
 13 14  2  0
 13 15  1  0
 15 16  1  0
 15 17  2  0
 17 18  1  0
 14 19  1  0
 18 19  2  0
 19 20  1  0
 20 21  1  0
 20 22  2  0
 22 23  1  0
 21 24  2  0
 23 24  1  0
 23 25  1  0
 25 26  1  0
 26 27  1  0
 27 28  1  0
 28 29  1  0
 25 30  1  0
 29 30  1  0
  3 31  1  0
  4 32  1  0
 10 33  1  6
 11 34  1  0
 11 35  1  0
 11 36  1  0
 14 37  1  0
 16 38  1  0
 16 39  1  0
 18 40  1  0
 21 41  1  0
 22 42  1  0
 25 43  1  0
 26 44  1  0
 26 45  1  0
 27 46  1  0
 27 47  1  0
 28 48  1  0
 29 49  1  0
 29 50  1  0
 30 51  1  0
 30 52  1  0
M  END
>  <PDBID>  (1) 
5AAC

>  <PDB ID>  (1) 
5AAC

>  <Generic Name>  (1) 
Crizotinib

>  <Brand Name>  (1) 
Xalkori

>  <DrugBank ID>  (1) 
DB08865

>  <ATC Codes>  (1) 
L01XE16

>  <Ligand ID>  (1) 
VGH

>  <Target Name>  (1) 
Hepatocyte growth factor receptor

>  <UniProt ID>  (1) 
P08581

>  <PDB ID.1>  (1) 
5AAC

>  <Seq. Identity>  (1) 
38%

$$$$
