PDB_DB00558_90
     RDKit          3D

 43 43  0  0  0  0  0  0  0  0999 V2000
   58.1390    8.2740   86.1870 C   0  0  0  0  0  0  0  0  0  0  0  0
   57.2220    8.7870   85.5110 O   0  0  0  0  0  0  0  0  0  0  0  0
   59.3620    8.5420   86.0150 O   0  0  0  0  0  0  0  0  0  0  0  0
   57.8530    7.3020   87.2420 C   0  0  0  0  0  0  0  0  0  0  0  0
   56.6370    6.7020   87.4340 C   0  0  0  0  0  0  0  0  0  0  0  0
   56.3890    5.7260   88.5690 C   0  0  1  0  0  0  0  0  0  0  0  0
   57.4490    5.9600   89.6840 C   0  0  1  0  0  0  0  0  0  0  0  0
   57.4200    4.7590   90.5230 N   0  0  0  0  0  0  0  0  0  0  0  0
   56.7930    4.7430   91.6970 C   0  0  0  0  0  0  0  0  0  0  0  0
   56.2150    5.7520   92.0590 O   0  0  0  0  0  0  0  0  0  0  0  0
   56.8390    3.4590   92.5060 C   0  0  0  0  0  0  0  0  0  0  0  0
   58.8590    6.0400   89.0640 C   0  0  1  0  0  0  0  0  0  0  0  0
   59.0040    7.0420   88.0840 O   0  0  0  0  0  0  0  0  0  0  0  0
   59.9660    6.5050   89.9450 C   0  0  2  0  0  0  0  0  0  0  0  0
   59.7040    7.4010   90.7050 O   0  0  0  0  0  0  0  0  0  0  0  0
   61.2410    6.0290   89.7490 C   0  0  1  0  0  0  0  0  0  0  0  0
   61.4800    5.0380   88.8540 O   0  0  0  0  0  0  0  0  0  0  0  0
   62.4230    6.4520   90.6110 C   0  0  0  0  0  0  0  0  0  0  0  0
   62.6430    5.2500   91.4000 O   0  0  0  0  0  0  0  0  0  0  0  0
   55.0600    5.8440   89.2100 N   0  0  0  0  0  0  0  0  0  0  0  0
   54.3350    4.7380   89.4820 C   0  0  0  0  0  0  0  0  0  0  0  0
   53.1600    4.8600   90.1150 N   0  0  0  0  0  0  0  0  0  0  0  0
   54.7660    3.5240   89.0960 N   0  0  0  0  0  0  0  0  0  0  0  0
   56.2795    8.5411   85.6880 H   0  0  0  0  0  0  0  0  0  0  0  0
   55.8135    6.9352   86.7431 H   0  0  0  0  0  0  0  0  0  0  0  0
   56.4498    4.7281   88.1102 H   0  0  0  0  0  0  0  0  0  0  0  0
   57.2337    6.8872   90.2353 H   0  0  0  0  0  0  0  0  0  0  0  0
   57.8965    3.9063   90.1963 H   0  0  0  0  0  0  0  0  0  0  0  0
   56.8303    3.7012   93.5790 H   0  0  0  0  0  0  0  0  0  0  0  0
   55.9624    2.8406   92.2626 H   0  0  0  0  0  0  0  0  0  0  0  0
   57.7576    2.9050   92.2626 H   0  0  0  0  0  0  0  0  0  0  0  0
   58.9324    4.9907   88.7421 H   0  0  0  0  0  0  0  0  0  0  0  0
   60.2344    5.8209   90.7635 H   0  0  0  0  0  0  0  0  0  0  0  0
   59.7976    7.0810   91.6372 H   0  0  0  0  0  0  0  0  0  0  0  0
   61.0821    5.2786   90.5374 H   0  0  0  0  0  0  0  0  0  0  0  0
   61.6825    4.1983   89.3377 H   0  0  0  0  0  0  0  0  0  0  0  0
   63.3021    6.6975   89.9970 H   0  0  0  0  0  0  0  0  0  0  0  0
   62.2439    7.3577   91.2091 H   0  0  0  0  0  0  0  0  0  0  0  0
   62.6018    5.4753   92.3631 H   0  0  0  0  0  0  0  0  0  0  0  0
   52.5997    4.0221   90.3269 H   0  0  0  0  0  0  0  0  0  0  0  0
   52.8172    5.7917   90.3896 H   0  0  0  0  0  0  0  0  0  0  0  0
   54.2051    2.6867   89.3087 H   0  0  0  0  0  0  0  0  0  0  0  0
   55.6570    3.4315   88.5877 H   0  0  0  0  0  0  0  0  0  0  0  0
  1  2  1  0
  1  3  2  0
  1  4  1  0
  4  5  2  0
  5  6  1  0
  6  7  1  0
  7  8  1  0
  8  9  1  0
  9 10  2  0
  9 11  1  0
  7 12  1  0
  4 13  1  0
 12 13  1  0
 12 14  1  0
 14 15  1  0
 14 16  1  0
 16 17  1  0
 16 18  1  0
 18 19  1  0
  6 20  1  0
 20 21  2  3
 21 22  1  0
 21 23  1  0
  2 24  1  0
  5 25  1  0
  6 26  1  6
  7 27  1  1
  8 28  1  0
 11 29  1  0
 11 30  1  0
 11 31  1  0
 12 32  1  6
 14 33  1  1
 15 34  1  0
 16 35  1  6
 17 36  1  0
 18 37  1  0
 18 38  1  0
 19 39  1  0
 22 40  1  0
 22 41  1  0
 23 42  1  0
 23 43  1  0
M  END
$$$$
