PDB_DB00558_88
     RDKit          3D

 43 43  0  0  0  0  0  0  0  0999 V2000
   22.8720    2.2950  110.6380 C   0  0  0  0  0  0  0  0  0  0  0  0
   23.6480    2.9120  109.8820 O   0  0  0  0  0  0  0  0  0  0  0  0
   22.9480    2.3500  111.8980 O   0  0  0  0  0  0  0  0  0  0  0  0
   21.8050    1.4450  110.1170 C   0  0  0  0  0  0  0  0  0  0  0  0
   21.5930    1.1240  108.8290 C   0  0  0  0  0  0  0  0  0  0  0  0
   20.6040    0.0420  108.4610 C   0  0  1  0  0  0  0  0  0  0  0  0
   19.5010   -0.0550  109.5670 C   0  0  1  0  0  0  0  0  0  0  0  0
   18.6510   -1.2400  109.2890 N   0  0  0  0  0  0  0  0  0  0  0  0
   17.4240   -1.1260  108.7450 C   0  0  0  0  0  0  0  0  0  0  0  0
   16.9290   -0.0550  108.4560 O   0  0  0  0  0  0  0  0  0  0  0  0
   16.6840   -2.3950  108.4640 C   0  0  0  0  0  0  0  0  0  0  0  0
   20.1500   -0.1960  110.9700 C   0  0  1  0  0  0  0  0  0  0  0  0
   20.9590    0.9520  111.1730 O   0  0  0  0  0  0  0  0  0  0  0  0
   19.2370    0.0030  112.1650 C   0  0  1  0  0  0  0  0  0  0  0  0
   18.3510    0.8700  112.1030 O   0  0  0  0  0  0  0  0  0  0  0  0
   19.4620   -0.6370  113.3100 C   0  0  1  0  0  0  0  0  0  0  0  0
   20.4250   -1.5590  113.3970 O   0  0  0  0  0  0  0  0  0  0  0  0
   18.5320   -0.4080  114.4800 C   0  0  0  0  0  0  0  0  0  0  0  0
   17.5700   -1.4790  114.6690 O   0  0  0  0  0  0  0  0  0  0  0  0
   19.9600    0.3980  107.1830 N   0  0  0  0  0  0  0  0  0  0  0  0
   19.6140   -0.5420  106.2630 C   0  0  0  0  0  0  0  0  0  0  0  0
   18.9860   -0.2450  105.1420 N   0  0  0  0  0  0  0  0  0  0  0  0
   19.8400   -1.8360  106.4440 N   0  0  0  0  0  0  0  0  0  0  0  0
   23.5470    2.8361  108.9001 H   0  0  0  0  0  0  0  0  0  0  0  0
   22.1434    1.6528  108.0369 H   0  0  0  0  0  0  0  0  0  0  0  0
   21.1279   -0.9210  108.3711 H   0  0  0  0  0  0  0  0  0  0  0  0
   18.8916    0.8607  109.5561 H   0  0  0  0  0  0  0  0  0  0  0  0
   19.0103   -2.1775  109.5190 H   0  0  0  0  0  0  0  0  0  0  0  0
   16.4044   -2.8744  109.4137 H   0  0  0  0  0  0  0  0  0  0  0  0
   15.7758   -2.1695  107.8858 H   0  0  0  0  0  0  0  0  0  0  0  0
   17.3275   -3.0744  107.8858 H   0  0  0  0  0  0  0  0  0  0  0  0
   20.5898   -1.2039  110.9436 H   0  0  0  0  0  0  0  0  0  0  0  0
   19.9360    0.7467  112.5752 H   0  0  0  0  0  0  0  0  0  0  0  0
   18.0821    1.1331  113.0187 H   0  0  0  0  0  0  0  0  0  0  0  0
   18.7429   -1.4158  113.0160 H   0  0  0  0  0  0  0  0  0  0  0  0
   20.6190   -1.7447  114.3499 H   0  0  0  0  0  0  0  0  0  0  0  0
   19.1371   -0.3173  115.3941 H   0  0  0  0  0  0  0  0  0  0  0  0
   17.9612    0.5079  114.2672 H   0  0  0  0  0  0  0  0  0  0  0  0
   17.4325   -1.6320  115.6374 H   0  0  0  0  0  0  0  0  0  0  0  0
   18.7439   -0.9908  104.4741 H   0  0  0  0  0  0  0  0  0  0  0  0
   18.7376    0.7328  104.9343 H   0  0  0  0  0  0  0  0  0  0  0  0
   19.5612   -2.5137  105.7202 H   0  0  0  0  0  0  0  0  0  0  0  0
   20.2944   -2.1635  107.3084 H   0  0  0  0  0  0  0  0  0  0  0  0
  1  2  1  0
  1  3  2  0
  1  4  1  0
  4  5  2  0
  5  6  1  0
  6  7  1  0
  7  8  1  0
  8  9  1  0
  9 10  2  0
  9 11  1  0
  7 12  1  0
  4 13  1  0
 12 13  1  0
 12 14  1  0
 14 15  1  0
 14 16  1  0
 16 17  1  0
 16 18  1  0
 18 19  1  0
  6 20  1  0
 20 21  2  3
 21 22  1  0
 21 23  1  0
  2 24  1  0
  5 25  1  0
  6 26  1  6
  7 27  1  1
  8 28  1  0
 11 29  1  0
 11 30  1  0
 11 31  1  0
 12 32  1  1
 14 33  1  6
 15 34  1  0
 16 35  1  1
 17 36  1  0
 18 37  1  0
 18 38  1  0
 19 39  1  0
 22 40  1  0
 22 41  1  0
 23 42  1  0
 23 43  1  0
M  END
$$$$
