PDB_DB00205_99
     RDKit          3D

 84 86  0  0  0  0  0  0  0  0999 V2000
  -21.8540   24.6870    7.1500 N   0  0  0  0  0  0  0  0  0  0  0  0
  -22.6600   23.7000    7.7340 C   0  0  0  0  0  0  0  0  0  0  0  0
  -20.4650   24.6640    7.3240 C   0  0  0  0  0  0  0  0  0  0  0  0
  -19.7890   23.5690    8.1460 C   0  0  0  0  0  0  0  0  0  0  0  0
  -20.7980   22.5570    8.7340 C   0  0  0  0  0  0  0  0  0  0  0  0
  -22.1620   22.6550    8.5120 N   0  0  0  0  0  0  0  0  0  0  0  0
  -18.3540   23.4550    8.3640 C   0  0  0  0  0  0  0  0  0  0  0  0
  -17.6240   24.1240    9.4060 C   0  0  0  0  0  0  0  0  0  0  0  0
  -16.2020   23.9550    9.5710 C   0  0  0  0  0  0  0  0  0  0  0  0
  -15.4560   23.0660    8.6460 C   0  0  0  0  0  0  0  0  0  0  0  0
  -16.1250   22.3780    7.5920 C   0  0  0  0  0  0  0  0  0  0  0  0
  -17.5570   22.5690    7.4520 C   0  0  0  0  0  0  0  0  0  0  0  0
  -19.6990   25.6200    6.7570 N   0  0  0  0  0  0  0  0  0  0  0  0
  -24.0360   23.7490    7.5470 N   0  0  0  0  0  0  0  0  0  0  0  0
  -20.3160   21.4060    9.5830 C   0  0  0  0  0  0  0  0  0  0  0  0
  -20.4580   20.0020    9.0360 C   0  0  0  0  0  0  0  0  0  0  0  0
  -13.8440   22.9460    8.9410 Cl  0  0  0  0  0  0  0  0  0  0  0  0
   -4.4670    7.1990   27.5920 N   0  0  0  0  0  0  0  0  0  0  0  0
   -5.4530    6.3900   27.0070 C   0  0  0  0  0  0  0  0  0  0  0  0
   -4.4830    8.5840   27.4140 C   0  0  0  0  0  0  0  0  0  0  0  0
   -5.5730    9.2610   26.5810 C   0  0  0  0  0  0  0  0  0  0  0  0
   -6.5890    8.2580   25.9870 C   0  0  0  0  0  0  0  0  0  0  0  0
   -6.4960    6.8930   26.2170 N   0  0  0  0  0  0  0  0  0  0  0  0
   -5.6770   10.6910   26.3530 C   0  0  0  0  0  0  0  0  0  0  0  0
   -5.0250   11.3870   25.2870 C   0  0  0  0  0  0  0  0  0  0  0  0
   -5.1720   12.8080   25.0980 C   0  0  0  0  0  0  0  0  0  0  0  0
   -6.0220   13.5820   26.0270 C   0  0  0  0  0  0  0  0  0  0  0  0
   -6.6990   12.9460   27.1110 C   0  0  0  0  0  0  0  0  0  0  0  0
   -6.5300   11.5180   27.2720 C   0  0  0  0  0  0  0  0  0  0  0  0
   -3.5170    9.3440   27.9900 N   0  0  0  0  0  0  0  0  0  0  0  0
   -5.4040    5.0040   27.2080 N   0  0  0  0  0  0  0  0  0  0  0  0
   -7.7370    8.7480   25.1210 C   0  0  0  0  0  0  0  0  0  0  0  0
   -9.1370    8.8060   25.7060 C   0  0  0  0  0  0  0  0  0  0  0  0
   -6.1150   15.1840   25.7000 Cl  0  0  0  0  0  0  0  0  0  0  0  0
  -22.0251   24.6455    6.1352 H   0  0  0  0  0  0  0  0  0  0  0  0
  -22.5534   23.0793    6.8321 H   0  0  0  0  0  0  0  0  0  0  0  0
  -20.5682   25.2800    8.2295 H   0  0  0  0  0  0  0  0  0  0  0  0
  -19.8840   24.1888    9.0498 H   0  0  0  0  0  0  0  0  0  0  0  0
  -20.8996   23.1812    9.6340 H   0  0  0  0  0  0  0  0  0  0  0  0
  -22.6109   22.7298    9.4360 H   0  0  0  0  0  0  0  0  0  0  0  0
  -18.1843   24.3116    7.6951 H   0  0  0  0  0  0  0  0  0  0  0  0
  -17.7910   25.2009    9.2565 H   0  0  0  0  0  0  0  0  0  0  0  0
  -18.0208   23.6428   10.3121 H   0  0  0  0  0  0  0  0  0  0  0  0
  -15.7499   24.9543    9.4873 H   0  0  0  0  0  0  0  0  0  0  0  0
  -16.1151   23.4458   10.5422 H   0  0  0  0  0  0  0  0  0  0  0  0
  -15.6382   22.2142    9.3177 H   0  0  0  0  0  0  0  0  0  0  0  0
  -15.6592   22.6954    6.6474 H   0  0  0  0  0  0  0  0  0  0  0  0
  -16.0144   21.3136    7.8464 H   0  0  0  0  0  0  0  0  0  0  0  0
  -18.0061   21.5681    7.5325 H   0  0  0  0  0  0  0  0  0  0  0  0
  -17.6148   23.1204    6.5019 H   0  0  0  0  0  0  0  0  0  0  0  0
  -19.2491   26.1815    7.4941 H   0  0  0  0  0  0  0  0  0  0  0  0
  -18.9754   25.1781    6.1721 H   0  0  0  0  0  0  0  0  0  0  0  0
  -24.5066   23.7658    8.4631 H   0  0  0  0  0  0  0  0  0  0  0  0
  -24.2808   24.5992    7.0197 H   0  0  0  0  0  0  0  0  0  0  0  0
  -19.2466   21.5721    9.7800 H   0  0  0  0  0  0  0  0  0  0  0  0
  -20.9762   21.4226   10.4627 H   0  0  0  0  0  0  0  0  0  0  0  0
  -20.5301   19.2889    9.8705 H   0  0  0  0  0  0  0  0  0  0  0  0
  -21.3671   19.9387    8.4200 H   0  0  0  0  0  0  0  0  0  0  0  0
  -19.5800   19.7579    8.4200 H   0  0  0  0  0  0  0  0  0  0  0  0
   -4.5140    7.0323   28.6073 H   0  0  0  0  0  0  0  0  0  0  0  0
   -6.0785    6.5031   27.9048 H   0  0  0  0  0  0  0  0  0  0  0  0
   -3.8617    8.4754   26.5128 H   0  0  0  0  0  0  0  0  0  0  0  0
   -4.9479    9.1606   25.6814 H   0  0  0  0  0  0  0  0  0  0  0  0
   -5.9590    8.1501   25.0917 H   0  0  0  0  0  0  0  0  0  0  0  0
   -6.4176    6.4397   25.2954 H   0  0  0  0  0  0  0  0  0  0  0  0
   -4.8012   10.8574   26.9974 H   0  0  0  0  0  0  0  0  0  0  0  0
   -3.9478   11.2034   25.4133 H   0  0  0  0  0  0  0  0  0  0  0  0
   -5.5370   10.9829   24.4013 H   0  0  0  0  0  0  0  0  0  0  0  0
   -4.1632   13.2436   25.1492 H   0  0  0  0  0  0  0  0  0  0  0  0
   -5.7013   12.8872   24.1370 H   0  0  0  0  0  0  0  0  0  0  0  0
   -6.8927   13.4039   25.3787 H   0  0  0  0  0  0  0  0  0  0  0  0
   -6.3516   13.4234   28.0391 H   0  0  0  0  0  0  0  0  0  0  0  0
   -7.7671   13.0725   26.8805 H   0  0  0  0  0  0  0  0  0  0  0  0
   -7.5398   11.0847   27.2215 H   0  0  0  0  0  0  0  0  0  0  0  0
   -5.9597   11.4662   28.2112 H   0  0  0  0  0  0  0  0  0  0  0  0
   -3.5965    9.2814   29.0150 H   0  0  0  0  0  0  0  0  0  0  0  0
   -2.5907    9.0027   27.6960 H   0  0  0  0  0  0  0  0  0  0  0  0
   -5.3969    4.8036   28.2183 H   0  0  0  0  0  0  0  0  0  0  0  0
   -6.2300    4.5651   26.7767 H   0  0  0  0  0  0  0  0  0  0  0  0
   -7.4820    9.7679   24.7972 H   0  0  0  0  0  0  0  0  0  0  0  0
   -7.8149    7.9830   24.3344 H   0  0  0  0  0  0  0  0  0  0  0  0
   -9.0759    8.8035   26.8043 H   0  0  0  0  0  0  0  0  0  0  0  0
   -9.6375    9.7257   25.3688 H   0  0  0  0  0  0  0  0  0  0  0  0
   -9.7119    7.9309   25.3688 H   0  0  0  0  0  0  0  0  0  0  0  0
  1  2  1  0
  1  3  1  0
  3  4  1  0
  4  5  1  0
  2  6  1  0
  5  6  1  0
  4  7  1  0
  7  8  1  0
  8  9  1  0
  9 10  1  0
 10 11  1  0
  7 12  1  0
 11 12  1  0
  3 13  1  0
  2 14  1  0
  5 15  1  0
 15 16  1  0
 10 17  1  0
 18 19  1  0
 18 20  1  0
 20 21  1  0
 21 22  1  0
 19 23  1  0
 22 23  1  0
 21 24  1  0
 24 25  1  0
 25 26  1  0
 26 27  1  0
 27 28  1  0
 24 29  1  0
 28 29  1  0
 20 30  1  0
 19 31  1  0
 22 32  1  0
 32 33  1  0
 27 34  1  0
  1 35  1  0
  2 36  1  0
  3 37  1  0
  4 38  1  0
  5 39  1  0
  6 40  1  0
  7 41  1  0
  8 42  1  0
  8 43  1  0
  9 44  1  0
  9 45  1  0
 10 46  1  0
 11 47  1  0
 11 48  1  0
 12 49  1  0
 12 50  1  0
 13 51  1  0
 13 52  1  0
 14 53  1  0
 14 54  1  0
 15 55  1  0
 15 56  1  0
 16 57  1  0
 16 58  1  0
 16 59  1  0
 18 60  1  0
 19 61  1  0
 20 62  1  0
 21 63  1  0
 22 64  1  0
 23 65  1  0
 24 66  1  0
 25 67  1  0
 25 68  1  0
 26 69  1  0
 26 70  1  0
 27 71  1  0
 28 72  1  0
 28 73  1  0
 29 74  1  0
 29 75  1  0
 30 76  1  0
 30 77  1  0
 31 78  1  0
 31 79  1  0
 32 80  1  0
 32 81  1  0
 33 82  1  0
 33 83  1  0
 33 84  1  0
M  END
>  <PDBID>  (1) 
3QFX

>  <PDB ID>  (1) 
3QFX

>  <Generic Name>  (1) 
Pyrimethamine

>  <Brand Name>  (1) 
Daraprim#Fansidar Tablets#Pyrimethamine Leucovorin

>  <DrugBank ID>  (1) 
DB00205

>  <ATC Codes>  (1) 
P01BF04#P01BD01#P01BD51

>  <Ligand ID>  (1) 
CP6

>  <Target Name>  (1) 
Dihydrofolate reductase

>  <UniProt ID>  (1) 
P00374

>  <PDB ID.1>  (1) 
3QFX

>  <Seq. Identity>  (1) 
32%

$$$$
