PDB_DB01026_98
     RDKit          3D

 64 68  0  0  0  0  0  0  0  0999 V2000
   45.7910  -21.0070   45.9100 C   0  0  0  0  0  0  0  0  0  0  0  0
   46.5770  -20.1480   45.2400 N   0  0  0  0  0  0  0  0  0  0  0  0
   48.7410  -22.1670   43.3160 O   0  0  0  0  0  0  0  0  0  0  0  0
   50.4830  -22.0590   49.8960 Cl  0  0  0  0  0  0  0  0  0  0  0  0
   45.7460  -19.1310   46.9530 C   0  0  0  0  0  0  0  0  0  0  0  0
   45.3020  -20.3950   46.9410 N   0  0  0  0  0  0  0  0  0  0  0  0
   49.5900  -20.0610   43.5850 O   0  0  0  0  0  0  0  0  0  0  0  0
   49.6090  -18.5190   45.9560 Cl  0  0  0  0  0  0  0  0  0  0  0  0
   46.5440  -18.9480   45.8880 C   0  0  0  0  0  0  0  0  0  0  0  0
   49.8610  -18.5410   35.4400 N   0  0  0  0  0  0  0  0  0  0  0  0
   48.9140  -20.4020   40.6180 O   0  0  0  0  0  0  0  0  0  0  0  0
   47.2850  -20.4480   44.0060 C   0  0  0  0  0  0  0  0  0  0  0  0
   50.2470  -18.1730   32.7340 N   0  0  0  0  0  0  0  0  0  0  0  0
   49.3140  -18.2500   30.7100 O   0  0  0  0  0  0  0  0  0  0  0  0
   48.6920  -21.0090   44.1540 C   0  0  1  0  0  0  0  0  0  0  0  0
   49.7280  -21.9760   42.3010 C   0  0  2  0  0  0  0  0  0  0  0  0
   50.4680  -20.7050   42.6680 C   0  0  0  0  0  0  0  0  0  0  0  0
   49.1270  -21.2870   45.5790 C   0  0  0  0  0  0  0  0  0  0  0  0
   49.5490  -20.2510   46.4290 C   0  0  0  0  0  0  0  0  0  0  0  0
   49.9500  -20.5170   47.7290 C   0  0  0  0  0  0  0  0  0  0  0  0
   49.9540  -21.8140   48.2030 C   0  0  0  0  0  0  0  0  0  0  0  0
   49.5510  -22.8660   47.3790 C   0  0  0  0  0  0  0  0  0  0  0  0
   49.1380  -22.5990   46.0710 C   0  0  0  0  0  0  0  0  0  0  0  0
   49.0640  -21.7790   40.9460 C   0  0  0  0  0  0  0  0  0  0  0  0
   49.1380  -19.9630   39.3420 C   0  0  0  0  0  0  0  0  0  0  0  0
   50.3030  -19.2550   39.0510 C   0  0  0  0  0  0  0  0  0  0  0  0
   50.5280  -18.7980   37.7570 C   0  0  0  0  0  0  0  0  0  0  0  0
   49.6050  -19.0490   36.7420 C   0  0  0  0  0  0  0  0  0  0  0  0
   48.4360  -19.7470   37.0450 C   0  0  0  0  0  0  0  0  0  0  0  0
   48.2060  -20.2060   38.3370 C   0  0  0  0  0  0  0  0  0  0  0  0
   51.0960  -19.0610   34.8230 C   0  0  0  0  0  0  0  0  0  0  0  0
   51.4400  -18.2110   33.5990 C   0  0  0  0  0  0  0  0  0  0  0  0
   49.0030  -17.7050   33.3590 C   0  0  0  0  0  0  0  0  0  0  0  0
   48.7260  -18.6670   34.5070 C   0  0  0  0  0  0  0  0  0  0  0  0
   50.3070  -18.3490   31.4080 C   0  0  0  0  0  0  0  0  0  0  0  0
   51.6260  -18.7560   30.8160 C   0  0  0  0  0  0  0  0  0  0  0  0
   45.5959  -22.0528   45.6303 H   0  0  0  0  0  0  0  0  0  0  0  0
   45.4986  -18.3706   47.7083 H   0  0  0  0  0  0  0  0  0  0  0  0
   47.0632  -18.0225   45.5985 H   0  0  0  0  0  0  0  0  0  0  0  0
   46.6879  -21.1841   43.4477 H   0  0  0  0  0  0  0  0  0  0  0  0
   47.4074  -19.4810   43.4961 H   0  0  0  0  0  0  0  0  0  0  0  0
   50.3958  -22.8477   42.2360 H   0  0  0  0  0  0  0  0  0  0  0  0
   50.6372  -20.0784   41.7799 H   0  0  0  0  0  0  0  0  0  0  0  0
   51.4644  -20.8973   43.0926 H   0  0  0  0  0  0  0  0  0  0  0  0
   50.2660  -19.6925   48.3850 H   0  0  0  0  0  0  0  0  0  0  0  0
   49.5584  -23.8990   47.7569 H   0  0  0  0  0  0  0  0  0  0  0  0
   48.8184  -23.4270   45.4212 H   0  0  0  0  0  0  0  0  0  0  0  0
   48.0697  -22.2490   40.9667 H   0  0  0  0  0  0  0  0  0  0  0  0
   49.7081  -22.2406   40.1830 H   0  0  0  0  0  0  0  0  0  0  0  0
   51.0417  -19.0585   39.8421 H   0  0  0  0  0  0  0  0  0  0  0  0
   51.4441  -18.2323   37.5315 H   0  0  0  0  0  0  0  0  0  0  0  0
   47.6918  -19.9354   36.2572 H   0  0  0  0  0  0  0  0  0  0  0  0
   47.2852  -20.7626   38.5657 H   0  0  0  0  0  0  0  0  0  0  0  0
   51.9202  -19.0109   35.5497 H   0  0  0  0  0  0  0  0  0  0  0  0
   50.9457  -20.1070   34.5175 H   0  0  0  0  0  0  0  0  0  0  0  0
   52.2837  -18.6607   33.0550 H   0  0  0  0  0  0  0  0  0  0  0  0
   51.7294  -17.1943   33.9033 H   0  0  0  0  0  0  0  0  0  0  0  0
   49.1278  -16.6806   33.7397 H   0  0  0  0  0  0  0  0  0  0  0  0
   48.1716  -17.6848   32.6390 H   0  0  0  0  0  0  0  0  0  0  0  0
   48.6559  -19.6982   34.1305 H   0  0  0  0  0  0  0  0  0  0  0  0
   47.7736  -18.4305   35.0040 H   0  0  0  0  0  0  0  0  0  0  0  0
   52.3386  -18.9759   31.6246 H   0  0  0  0  0  0  0  0  0  0  0  0
   51.4879  -19.6533   30.1949 H   0  0  0  0  0  0  0  0  0  0  0  0
   52.0175  -17.9369   30.1949 H   0  0  0  0  0  0  0  0  0  0  0  0
  1  2  1  0
  1  6  2  0
  5  6  1  0
  2  9  1  0
  5  9  2  0
  2 12  1  0
  3 15  1  0
  7 15  1  0
 15 12  1  1
  3 16  1  0
  7 17  1  0
 16 17  1  0
 15 18  1  0
  8 19  1  0
 18 19  2  0
 19 20  1  0
  4 21  1  0
 20 21  2  0
 21 22  1  0
 18 23  1  0
 22 23  2  0
 11 24  1  0
 16 24  1  0
 11 25  1  0
 25 26  2  0
 26 27  1  0
 10 28  1  0
 27 28  2  0
 28 29  1  0
 25 30  1  0
 29 30  2  0
 10 31  1  0
 13 32  1  0
 31 32  1  0
 13 33  1  0
 10 34  1  0
 33 34  1  0
 13 35  1  0
 14 35  2  0
 35 36  1  0
  1 37  1  0
  5 38  1  0
  9 39  1  0
 12 40  1  0
 12 41  1  0
 16 42  1  6
 17 43  1  0
 17 44  1  0
 20 45  1  0
 22 46  1  0
 23 47  1  0
 24 48  1  0
 24 49  1  0
 26 50  1  0
 27 51  1  0
 29 52  1  0
 30 53  1  0
 31 54  1  0
 31 55  1  0
 32 56  1  0
 32 57  1  0
 33 58  1  0
 33 59  1  0
 34 60  1  0
 34 61  1  0
 36 62  1  0
 36 63  1  0
 36 64  1  0
M  END
$$$$
