PDB_DB00147_99
     RDKit          3D

 21 21  0  0  0  0  0  0  0  0999 V2000
   28.1110    3.9630   39.7420 O   0  0  0  0  0  0  0  0  0  0  0  0
   28.9840    4.8050   40.4600 C   0  0  0  0  0  0  0  0  0  0  0  0
   29.4290    5.9770   39.5890 C   0  0  0  0  0  0  0  0  0  0  0  0
   28.8690    7.2800   39.8150 C   0  0  0  0  0  0  0  0  0  0  0  0
   29.2840    8.3750   39.0030 N   0  0  0  0  0  0  0  0  0  0  0  0
   30.2480    8.2130   37.9620 C   0  0  0  0  0  0  0  0  0  0  0  0
   30.8310    6.9110   37.7080 C   0  0  0  0  0  0  0  0  0  0  0  0
   30.4170    5.7670   38.5340 C   0  0  0  0  0  0  0  0  0  0  0  0
   30.9940    4.3260   38.3290 C   0  0  0  0  0  0  0  0  0  0  0  0
   31.8450    4.1180   37.4270 O   0  0  0  0  0  0  0  0  0  0  0  0
   31.7740    6.7650   36.6870 O   0  0  0  0  0  0  0  0  0  0  0  0
   30.6510    9.4310   37.1260 C   0  0  0  0  0  0  0  0  0  0  0  0
   27.5644    3.4358   40.3771 H   0  0  0  0  0  0  0  0  0  0  0  0
   28.4650    5.1911   41.3497 H   0  0  0  0  0  0  0  0  0  0  0  0
   29.8704    4.2270   40.7606 H   0  0  0  0  0  0  0  0  0  0  0  0
   28.1242    7.4318   40.6101 H   0  0  0  0  0  0  0  0  0  0  0  0
   30.6564    3.4992   38.9712 H   0  0  0  0  0  0  0  0  0  0  0  0
   32.1764    5.8784   36.5079 H   0  0  0  0  0  0  0  0  0  0  0  0
   30.9254   10.2602   37.7947 H   0  0  0  0  0  0  0  0  0  0  0  0
   31.5113    9.1718   36.4914 H   0  0  0  0  0  0  0  0  0  0  0  0
   29.8059    9.7360   36.4914 H   0  0  0  0  0  0  0  0  0  0  0  0
  1  2  1  0
  2  3  1  0
  3  4  2  0
  4  5  1  0
  5  6  2  0
  6  7  1  0
  3  8  1  0
  7  8  2  0
  8  9  1  0
  9 10  2  0
  7 11  1  0
  6 12  1  0
  1 13  1  0
  2 14  1  0
  2 15  1  0
  4 16  1  0
  9 17  1  0
 11 18  1  0
 12 19  1  0
 12 20  1  0
 12 21  1  0
M  END
$$$$
