PDB_DB00755_96
     RDKit          3D

 50 50  0  0  0  0  0  0  0  0999 V2000
   83.9310   59.5170   14.1260 C   0  0  0  0  0  0  0  0  0  0  0  0
   84.9700   60.4970   14.6050 C   0  0  0  0  0  0  0  0  0  0  0  0
   85.2130   61.4710   13.4810 C   0  0  0  0  0  0  0  0  0  0  0  0
   85.9720   60.7540   12.3930 C   0  0  0  0  0  0  0  0  0  0  0  0
   85.2260   59.5370   11.9980 C   0  0  0  0  0  0  0  0  0  0  0  0
   84.2970   58.9830   12.7830 C   0  0  0  0  0  0  0  0  0  0  0  0
   83.5930   57.8070   12.3650 C   0  0  0  0  0  0  0  0  0  0  0  0
   82.9100   57.7240   11.2180 C   0  0  0  0  0  0  0  0  0  0  0  0
   82.2380   56.5070   10.8880 C   0  0  0  0  0  0  0  0  0  0  0  0
   81.4100   56.3890    9.8470 C   0  0  0  0  0  0  0  0  0  0  0  0
   81.0950   57.4390    8.9140 C   0  0  0  0  0  0  0  0  0  0  0  0
   80.2960   57.1960    7.8700 C   0  0  0  0  0  0  0  0  0  0  0  0
   79.9400   58.1610    6.8650 C   0  0  0  0  0  0  0  0  0  0  0  0
   79.3300   57.7550    5.7460 C   0  0  0  0  0  0  0  0  0  0  0  0
   79.0100   58.8200    4.7180 C   0  0  0  0  0  0  0  0  0  0  0  0
   82.6040   60.2320   14.0720 C   0  0  0  0  0  0  0  0  0  0  0  0
   83.8330   58.3690   15.0960 C   0  0  0  0  0  0  0  0  0  0  0  0
   85.5560   58.9680   10.6680 C   0  0  0  0  0  0  0  0  0  0  0  0
   82.5080   55.3670   11.8020 C   0  0  0  0  0  0  0  0  0  0  0  0
   80.3060   59.5720    7.1340 C   0  0  0  0  0  0  0  0  0  0  0  0
   78.9530   58.3800    3.5340 O   0  0  0  0  0  0  0  0  0  0  0  0
   78.8490   60.0000    5.1260 O   0  0  0  0  0  0  0  0  0  0  0  0
   84.6034   61.0309   15.4941 H   0  0  0  0  0  0  0  0  0  0  0  0
   85.8998   59.9779   14.8807 H   0  0  0  0  0  0  0  0  0  0  0  0
   84.2517   61.8334   13.0878 H   0  0  0  0  0  0  0  0  0  0  0  0
   85.7918   62.3333   13.8435 H   0  0  0  0  0  0  0  0  0  0  0  0
   86.0810   61.4173   11.5223 H   0  0  0  0  0  0  0  0  0  0  0  0
   86.9689   60.4721   12.7627 H   0  0  0  0  0  0  0  0  0  0  0  0
   83.6155   56.9254   13.0225 H   0  0  0  0  0  0  0  0  0  0  0  0
   82.8660   58.5850   10.5348 H   0  0  0  0  0  0  0  0  0  0  0  0
   80.9304   55.4116    9.6899 H   0  0  0  0  0  0  0  0  0  0  0  0
   81.5135   58.4456    9.0607 H   0  0  0  0  0  0  0  0  0  0  0  0
   79.8799   56.1824    7.7725 H   0  0  0  0  0  0  0  0  0  0  0  0
   79.0731   56.6983    5.5804 H   0  0  0  0  0  0  0  0  0  0  0  0
   82.2487   60.4234   15.0953 H   0  0  0  0  0  0  0  0  0  0  0  0
   82.7238   61.1877   13.5407 H   0  0  0  0  0  0  0  0  0  0  0  0
   81.8717   59.6063   13.5407 H   0  0  0  0  0  0  0  0  0  0  0  0
   83.8660   58.7550   16.1255 H   0  0  0  0  0  0  0  0  0  0  0  0
   82.8858   57.8332   14.9355 H   0  0  0  0  0  0  0  0  0  0  0  0
   84.6756   57.6804   14.9355 H   0  0  0  0  0  0  0  0  0  0  0  0
   86.1039   58.0232   10.7991 H   0  0  0  0  0  0  0  0  0  0  0  0
   84.6274   58.7789   10.1095 H   0  0  0  0  0  0  0  0  0  0  0  0
   86.1813   59.6801   10.1095 H   0  0  0  0  0  0  0  0  0  0  0  0
   82.4276   55.7065   12.8452 H   0  0  0  0  0  0  0  0  0  0  0  0
   81.7742   54.5683   11.6187 H   0  0  0  0  0  0  0  0  0  0  0  0
   83.5221   54.9823   11.6187 H   0  0  0  0  0  0  0  0  0  0  0  0
   80.3493   59.7388    8.2204 H   0  0  0  0  0  0  0  0  0  0  0  0
   81.2895   59.7866    6.6906 H   0  0  0  0  0  0  0  0  0  0  0  0
   79.5508   60.2376    6.6906 H   0  0  0  0  0  0  0  0  0  0  0  0
   78.6387   60.7220    4.4821 H   0  0  0  0  0  0  0  0  0  0  0  0
  1  2  1  0
  2  3  1  0
  3  4  1  0
  4  5  1  0
  1  6  1  0
  5  6  2  0
  6  7  1  0
  7  8  2  0
  8  9  1  0
  9 10  2  0
 10 11  1  0
 11 12  2  0
 12 13  1  0
 13 14  2  0
 14 15  1  0
  1 16  1  0
  1 17  1  0
  5 18  1  0
  9 19  1  0
 13 20  1  0
 15 21  2  0
 15 22  1  0
  2 23  1  0
  2 24  1  0
  3 25  1  0
  3 26  1  0
  4 27  1  0
  4 28  1  0
  7 29  1  0
  8 30  1  0
 10 31  1  0
 11 32  1  0
 12 33  1  0
 14 34  1  0
 16 35  1  0
 16 36  1  0
 16 37  1  0
 17 38  1  0
 17 39  1  0
 17 40  1  0
 18 41  1  0
 18 42  1  0
 18 43  1  0
 19 44  1  0
 19 45  1  0
 19 46  1  0
 20 47  1  0
 20 48  1  0
 20 49  1  0
 22 50  1  0
M  END
$$$$
