PDB_DB04865_97
     RDKit          3D

 78 82  0  0  0  0  0  0  0  0999 V2000
   62.1650  123.0530   97.1800 C   0  0  0  0  0  0  0  0  0  0  0  0
   63.5500  122.6970   97.1660 O   0  0  0  0  0  0  0  0  0  0  0  0
   63.7960  121.6990   98.0560 C   0  0  0  0  0  0  0  0  0  0  0  0
   63.1080  121.5310   99.1830 C   0  0  0  0  0  0  0  0  0  0  0  0
   63.4360  120.1500   99.7530 C   0  0  2  0  0  0  0  0  0  0  0  0
   62.2980  119.1860   99.4050 C   0  0  0  0  0  0  0  0  0  0  0  0
   62.0320  118.4820  100.7350 C   0  0  0  0  0  0  0  0  0  0  0  0
   62.2100  119.6680  101.6820 C   0  0  0  0  0  0  0  0  0  0  0  0
   63.5200  120.1530  101.2250 N   0  0  0  0  0  0  0  0  0  0  0  0
   63.8250  121.4560  101.8370 C   0  0  0  0  0  0  0  0  0  0  0  0
   65.1260  122.0330  101.2750 C   0  0  0  0  0  0  0  0  0  0  0  0
   66.1210  120.9080  100.9840 C   0  0  0  0  0  0  0  0  0  0  0  0
   67.2870  120.9850  101.7360 C   0  0  0  0  0  0  0  0  0  0  0  0
   68.2800  120.0300  101.5460 C   0  0  0  0  0  0  0  0  0  0  0  0
   69.4890  119.8460  102.1430 O   0  0  0  0  0  0  0  0  0  0  0  0
   69.7200  118.4420  101.9670 C   0  0  0  0  0  0  0  0  0  0  0  0
   69.2220  118.2350  100.6390 O   0  0  0  0  0  0  0  0  0  0  0  0
   68.1020  119.0080  100.6170 C   0  0  0  0  0  0  0  0  0  0  0  0
   66.9310  118.9310   99.8720 C   0  0  0  0  0  0  0  0  0  0  0  0
   65.9410  119.8920  100.0560 C   0  0  0  0  0  0  0  0  0  0  0  0
   64.7580  119.7340   99.0990 C   0  0  2  0  0  0  0  0  0  0  0  0
   64.9340  120.6850   97.9120 C   0  0  2  0  0  0  0  0  0  0  0  0
   66.1790  121.3800   98.0920 O   0  0  0  0  0  0  0  0  0  0  0  0
   66.5810  122.0280   96.9660 C   0  0  0  0  0  0  0  0  0  0  0  0
   65.9730  121.8640   95.9090 O   0  0  0  0  0  0  0  0  0  0  0  0
   67.8140  122.9340   97.0280 C   0  0  1  0  0  0  0  0  0  0  0  0
   68.7910  122.4480   98.1020 C   0  0  0  0  0  0  0  0  0  0  0  0
   69.5390  121.1830   97.6770 C   0  0  0  0  0  0  0  0  0  0  0  0
   69.5890  120.8490   96.4940 O   0  0  0  0  0  0  0  0  0  0  0  0
   70.1670  120.4240   98.6150 O   0  0  0  0  0  0  0  0  0  0  0  0
   70.8070  119.3070   97.9930 C   0  0  0  0  0  0  0  0  0  0  0  0
   68.4690  122.9370   95.7580 O   0  0  0  0  0  0  0  0  0  0  0  0
   67.3690  124.3570   97.3710 C   0  0  0  0  0  0  0  0  0  0  0  0
   66.4500  124.9230   96.2870 C   0  0  0  0  0  0  0  0  0  0  0  0
   65.9430  126.3140   96.6710 C   0  0  0  0  0  0  0  0  0  0  0  0
   65.0580  126.9070   95.5720 C   0  0  0  0  0  0  0  0  0  0  0  0
   63.8910  125.9620   95.2780 C   0  0  0  0  0  0  0  0  0  0  0  0
   65.8830  127.1160   94.3000 C   0  0  0  0  0  0  0  0  0  0  0  0
   64.5610  128.1650   96.0360 O   0  0  0  0  0  0  0  0  0  0  0  0
   61.8197  123.1417   98.2206 H   0  0  0  0  0  0  0  0  0  0  0  0
   62.0286  124.0154   96.6651 H   0  0  0  0  0  0  0  0  0  0  0  0
   61.5814  122.2757   96.6651 H   0  0  0  0  0  0  0  0  0  0  0  0
   62.4189  122.2628   99.6297 H   0  0  0  0  0  0  0  0  0  0  0  0
   61.4074  119.7322   99.0607 H   0  0  0  0  0  0  0  0  0  0  0  0
   62.5486  118.4933   98.5881 H   0  0  0  0  0  0  0  0  0  0  0  0
   61.0149  118.0659  100.7838 H   0  0  0  0  0  0  0  0  0  0  0  0
   62.6736  117.6132  100.9437 H   0  0  0  0  0  0  0  0  0  0  0  0
   61.4226  120.4237  101.5448 H   0  0  0  0  0  0  0  0  0  0  0  0
   62.1502  119.4236  102.7528 H   0  0  0  0  0  0  0  0  0  0  0  0
   63.0012  122.1541  101.6269 H   0  0  0  0  0  0  0  0  0  0  0  0
   63.9429  121.3155  102.9216 H   0  0  0  0  0  0  0  0  0  0  0  0
   64.9098  122.5767  100.3435 H   0  0  0  0  0  0  0  0  0  0  0  0
   65.5647  122.7172  102.0162 H   0  0  0  0  0  0  0  0  0  0  0  0
   67.4229  121.7910  102.4721 H   0  0  0  0  0  0  0  0  0  0  0  0
   70.7905  118.1990  102.0372 H   0  0  0  0  0  0  0  0  0  0  0  0
   69.2414  117.8096  102.7292 H   0  0  0  0  0  0  0  0  0  0  0  0
   66.7881  118.1186   99.1442 H   0  0  0  0  0  0  0  0  0  0  0  0
   64.7308  118.6746   98.8042 H   0  0  0  0  0  0  0  0  0  0  0  0
   64.9261  120.1717   96.9392 H   0  0  0  0  0  0  0  0  0  0  0  0
   69.5248  123.2435   98.2988 H   0  0  0  0  0  0  0  0  0  0  0  0
   68.2079  122.2073   99.0032 H   0  0  0  0  0  0  0  0  0  0  0  0
   71.1954  118.6291   98.7673 H   0  0  0  0  0  0  0  0  0  0  0  0
   70.0797  118.7698   97.3666 H   0  0  0  0  0  0  0  0  0  0  0  0
   71.6383  119.6628   97.3666 H   0  0  0  0  0  0  0  0  0  0  0  0
   69.4498  122.9415   95.8926 H   0  0  0  0  0  0  0  0  0  0  0  0
   66.8286  124.3433   98.3290 H   0  0  0  0  0  0  0  0  0  0  0  0
   68.2622  124.9953   97.4400 H   0  0  0  0  0  0  0  0  0  0  0  0
   67.0083  124.9917   95.3417 H   0  0  0  0  0  0  0  0  0  0  0  0
   65.5850  124.2527   96.1753 H   0  0  0  0  0  0  0  0  0  0  0  0
   65.3585  126.2384   97.5998 H   0  0  0  0  0  0  0  0  0  0  0  0
   66.8121  126.9738   96.8103 H   0  0  0  0  0  0  0  0  0  0  0  0
   63.4565  125.6102   96.2253 H   0  0  0  0  0  0  0  0  0  0  0  0
   63.1236  126.4962   94.6987 H   0  0  0  0  0  0  0  0  0  0  0  0
   64.2540  125.1003   94.6987 H   0  0  0  0  0  0  0  0  0  0  0  0
   66.9162  127.3777   94.5720 H   0  0  0  0  0  0  0  0  0  0  0  0
   65.8834  126.1896   93.7069 H   0  0  0  0  0  0  0  0  0  0  0  0
   65.4423  127.9309   93.7069 H   0  0  0  0  0  0  0  0  0  0  0  0
   64.5576  128.1736   97.0260 H   0  0  0  0  0  0  0  0  0  0  0  0
  1  2  1  0
  2  3  1  0
  3  4  2  0
  5  4  1  6
  5  6  1  0
  6  7  1  0
  7  8  1  0
  5  9  1  0
  8  9  1  0
  9 10  1  0
 10 11  1  0
 11 12  1  0
 12 13  1  0
 13 14  2  0
 14 15  1  0
 15 16  1  0
 16 17  1  0
 14 18  1  0
 17 18  1  0
 18 19  2  0
 12 20  2  0
 19 20  1  0
  5 21  1  0
 20 21  1  0
  3 22  1  0
 21 22  1  0
 22 23  1  0
 23 24  1  0
 24 25  2  0
 24 26  1  0
 26 27  1  0
 27 28  1  0
 28 29  2  0
 28 30  1  0
 30 31  1  0
 26 32  1  6
 26 33  1  0
 33 34  1  0
 34 35  1  0
 35 36  1  0
 36 37  1  0
 36 38  1  0
 36 39  1  0
  1 40  1  0
  1 41  1  0
  1 42  1  0
  4 43  1  0
  6 44  1  0
  6 45  1  0
  7 46  1  0
  7 47  1  0
  8 48  1  0
  8 49  1  0
 10 50  1  0
 10 51  1  0
 11 52  1  0
 11 53  1  0
 13 54  1  0
 16 55  1  0
 16 56  1  0
 19 57  1  0
 21 58  1  6
 22 59  1  6
 27 60  1  0
 27 61  1  0
 31 62  1  0
 31 63  1  0
 31 64  1  0
 32 65  1  0
 33 66  1  0
 33 67  1  0
 34 68  1  0
 34 69  1  0
 35 70  1  0
 35 71  1  0
 37 72  1  0
 37 73  1  0
 37 74  1  0
 38 75  1  0
 38 76  1  0
 38 77  1  0
 39 78  1  0
M  END
>  <PDBID>  (1) 
3G6E

>  <PDB ID>  (1) 
3G6E

>  <Generic Name>  (1) 
Omacetaxine mepesuccinate

>  <Brand Name>  (1) 
Synribo#Ceflatonin#Myelostat

>  <DrugBank ID>  (1) 
DB04865

>  <ATC Codes>  (1) 
L01XX40

>  <Ligand ID>  (1) 
HMT

>  <Target Name>  (1) 
60S ribosomal protein L3

>  <UniProt ID>  (1) 
P39023

>  <PDB ID.1>  (1) 
3G6E

>  <Seq. Identity>  (1) 
32%

$$$$
