PDB_DB00238_99
     RDKit          3D

 34 37  0  0  0  0  0  0  0  0999 V2000
    2.0550  -37.5580   21.2250 N   0  0  0  0  0  0  0  0  0  0  0  0
    2.6740  -38.7360   20.5530 C   0  0  0  0  0  0  0  0  0  0  0  0
    3.0180  -39.8890   21.4250 C   0  0  0  0  0  0  0  0  0  0  0  0
    1.8670  -39.9820   20.4860 C   0  0  0  0  0  0  0  0  0  0  0  0
    4.2720  -36.5990   21.4530 N   0  0  0  0  0  0  0  0  0  0  0  0
    5.1790  -35.8980   22.1850 C   0  0  0  0  0  0  0  0  0  0  0  0
    4.8290  -35.2590   23.3920 C   0  0  0  0  0  0  0  0  0  0  0  0
    3.5090  -35.3460   23.8440 C   0  0  0  0  0  0  0  0  0  0  0  0
    3.1150  -34.7240   25.1560 C   0  0  0  0  0  0  0  0  0  0  0  0
    2.9890  -36.6860   21.9030 C   0  0  0  0  0  0  0  0  0  0  0  0
    2.5640  -36.0420   23.0810 C   0  0  0  0  0  0  0  0  0  0  0  0
    1.1700  -35.9950   23.4490 N   0  0  0  0  0  0  0  0  0  0  0  0
    0.0130  -36.0160   22.7620 C   0  0  0  0  0  0  0  0  0  0  0  0
   -1.0680  -35.8990   23.3510 O   0  0  0  0  0  0  0  0  0  0  0  0
   -0.0110  -36.1490   21.2240 C   0  0  0  0  0  0  0  0  0  0  0  0
    0.9700  -36.8910   20.4950 C   0  0  0  0  0  0  0  0  0  0  0  0
   -1.1030  -35.6140   20.5150 C   0  0  0  0  0  0  0  0  0  0  0  0
   -1.2030  -35.8250   19.1310 C   0  0  0  0  0  0  0  0  0  0  0  0
   -0.1920  -36.5670   18.4840 C   0  0  0  0  0  0  0  0  0  0  0  0
    0.8690  -37.0840   19.1550 N   0  0  0  0  0  0  0  0  0  0  0  0
    3.2139  -38.1237   19.8157 H   0  0  0  0  0  0  0  0  0  0  0  0
    3.9323  -40.4699   21.2337 H   0  0  0  0  0  0  0  0  0  0  0  0
    3.1530  -40.0332   22.5071 H   0  0  0  0  0  0  0  0  0  0  0  0
    0.8385  -39.9929   20.8758 H   0  0  0  0  0  0  0  0  0  0  0  0
    1.5704  -40.6749   19.6848 H   0  0  0  0  0  0  0  0  0  0  0  0
    6.2159  -35.8276   21.8247 H   0  0  0  0  0  0  0  0  0  0  0  0
    5.5819  -34.7014   23.9684 H   0  0  0  0  0  0  0  0  0  0  0  0
    3.5029  -35.3364   25.9833 H   0  0  0  0  0  0  0  0  0  0  0  0
    3.5357  -33.7098   25.2220 H   0  0  0  0  0  0  0  0  0  0  0  0
    2.0183  -34.6710   25.2220 H   0  0  0  0  0  0  0  0  0  0  0  0
    1.0282  -35.9309   24.4672 H   0  0  0  0  0  0  0  0  0  0  0  0
   -1.8740  -35.0336   21.0429 H   0  0  0  0  0  0  0  0  0  0  0  0
   -2.0527  -35.4199   18.5619 H   0  0  0  0  0  0  0  0  0  0  0  0
   -0.2661  -36.7322   17.3990 H   0  0  0  0  0  0  0  0  0  0  0  0
  1  2  1  0
  2  3  1  0
  2  4  1  0
  3  4  1  0
  5  6  2  0
  6  7  1  0
  7  8  2  0
  8  9  1  0
  1 10  1  0
  5 10  1  0
  8 11  1  0
 10 11  2  0
 11 12  1  0
 12 13  1  0
 13 14  2  0
 13 15  1  0
  1 16  1  0
 15 16  2  0
 15 17  1  0
 17 18  2  0
 18 19  1  0
 16 20  1  0
 19 20  2  0
  2 21  1  0
  3 22  1  0
  3 23  1  0
  4 24  1  0
  4 25  1  0
  6 26  1  0
  7 27  1  0
  9 28  1  0
  9 29  1  0
  9 30  1  0
 12 31  1  0
 17 32  1  0
 18 33  1  0
 19 34  1  0
M  END
>  <PDBID>  (1) 
2HND

>  <PDB ID>  (1) 
2HND

>  <Generic Name>  (1) 
Nevirapine

>  <Brand Name>  (1) 
Apo-nevirapine#Apo-nevirapine XR#Apo-zidovudine-lamivudine-nevirapine#Auro-nevirapine#Mylan-nevirapine#Nevirapine#Nevirapine Extended Release#PMS-nevirapine#Teva-nevirapine#Viramune#Viramune XR

>  <DrugBank ID>  (1) 
DB00238

>  <ATC Codes>  (1) 
J05AR05#J05AG01#J05AR07

>  <Ligand ID>  (1) 
NVP

>  <Target Name>  (1) 
Reverse transcriptase/RNaseH

>  <UniProt ID>  (1) 
Q72547

>  <PDB ID.1>  (1) 
2HND

>  <Seq. Identity>  (1) 
96%

$$$$
