PDB_DB01261_98
     RDKit          3D

 43 45  0  0  0  0  0  0  0  0999 V2000
   -0.2730   62.7180   37.4540 C   0  0  0  0  0  0  0  0  0  0  0  0
   -1.4480   62.5910   36.6450 C   0  0  0  0  0  0  0  0  0  0  0  0
   -2.6350   63.3910   36.8730 C   0  0  0  0  0  0  0  0  0  0  0  0
   -2.6280   64.3550   37.9530 C   0  0  0  0  0  0  0  0  0  0  0  0
   -1.4600   64.4770   38.7500 C   0  0  0  0  0  0  0  0  0  0  0  0
   -0.3130   63.6740   38.5050 C   0  0  0  0  0  0  0  0  0  0  0  0
   -1.4550   65.3510   39.7200 F   0  0  0  0  0  0  0  0  0  0  0  0
   -1.4300   61.7000   35.6430 F   0  0  0  0  0  0  0  0  0  0  0  0
   -3.8100   63.2010   35.9720 C   0  0  0  0  0  0  0  0  0  0  0  0
   -4.0680   64.4360   35.0690 C   0  0  2  0  0  0  0  0  0  0  0  0
   -5.2030   64.0880   34.1360 C   0  0  0  0  0  0  0  0  0  0  0  0
   -6.6640   64.0260   34.7260 C   0  0  0  0  0  0  0  0  0  0  0  0
   -7.7320   63.6340   33.8360 N   0  0  0  0  0  0  0  0  0  0  0  0
   -2.8740   64.7380   34.2840 N   0  0  0  0  0  0  0  0  0  0  0  0
   -6.8170   64.2760   35.9200 O   0  0  0  0  0  0  0  0  0  0  0  0
   -7.4840   64.2720   32.5300 C   0  0  0  0  0  0  0  0  0  0  0  0
   -8.4230   65.4030   32.1300 C   0  0  0  0  0  0  0  0  0  0  0  0
   -9.8390   65.1130   32.4970 N   0  0  0  0  0  0  0  0  0  0  0  0
  -10.2440   64.4100   33.5870 C   0  0  0  0  0  0  0  0  0  0  0  0
   -9.1200   63.8780   34.5180 C   0  0  0  0  0  0  0  0  0  0  0  0
  -11.0060   65.4430   31.9110 C   0  0  0  0  0  0  0  0  0  0  0  0
  -12.0280   64.9510   32.6330 N   0  0  0  0  0  0  0  0  0  0  0  0
  -11.5720   64.3360   33.6290 N   0  0  0  0  0  0  0  0  0  0  0  0
  -11.1870   66.2620   30.6360 C   0  0  0  0  0  0  0  0  0  0  0  0
  -12.4740   66.3860   30.4140 F   0  0  0  0  0  0  0  0  0  0  0  0
  -10.6020   65.6030   29.6420 F   0  0  0  0  0  0  0  0  0  0  0  0
  -10.6260   67.4500   30.8230 F   0  0  0  0  0  0  0  0  0  0  0  0
    0.7230   63.7990   39.2390 F   0  0  0  0  0  0  0  0  0  0  0  0
    0.6204   62.1032   37.2702 H   0  0  0  0  0  0  0  0  0  0  0  0
   -3.5106   64.9806   38.1520 H   0  0  0  0  0  0  0  0  0  0  0  0
   -3.6257   62.3266   35.3306 H   0  0  0  0  0  0  0  0  0  0  0  0
   -4.6982   63.0564   36.6047 H   0  0  0  0  0  0  0  0  0  0  0  0
   -4.3166   65.3140   35.6832 H   0  0  0  0  0  0  0  0  0  0  0  0
   -5.2075   64.8406   33.3338 H   0  0  0  0  0  0  0  0  0  0  0  0
   -4.9917   63.0541   33.8256 H   0  0  0  0  0  0  0  0  0  0  0  0
   -2.0873   64.9370   34.9184 H   0  0  0  0  0  0  0  0  0  0  0  0
   -2.6401   63.9297   33.6900 H   0  0  0  0  0  0  0  0  0  0  0  0
   -6.4618   64.6779   32.5464 H   0  0  0  0  0  0  0  0  0  0  0  0
   -7.6529   63.4801   31.7855 H   0  0  0  0  0  0  0  0  0  0  0  0
   -8.1059   66.3244   32.6403 H   0  0  0  0  0  0  0  0  0  0  0  0
   -8.3725   65.5145   31.0368 H   0  0  0  0  0  0  0  0  0  0  0  0
   -9.4591   62.9228   34.9454 H   0  0  0  0  0  0  0  0  0  0  0  0
   -8.9519   64.6669   35.2660 H   0  0  0  0  0  0  0  0  0  0  0  0
  1  2  2  0
  2  3  1  0
  3  4  2  0
  4  5  1  0
  1  6  1  0
  5  6  2  0
  5  7  1  0
  2  8  1  0
  3  9  1  0
  9 10  1  0
 10 11  1  0
 11 12  1  0
 12 13  1  0
 10 14  1  0
 12 15  2  0
 13 16  1  0
 16 17  1  0
 17 18  1  0
 18 19  1  0
 13 20  1  0
 19 20  1  0
 18 21  1  0
 21 22  2  0
 19 23  2  0
 22 23  1  0
 21 24  1  0
 24 25  1  0
 24 26  1  0
 24 27  1  0
  6 28  1  0
  1 29  1  0
  4 30  1  0
  9 31  1  0
  9 32  1  0
 10 33  1  1
 11 34  1  0
 11 35  1  0
 14 36  1  0
 14 37  1  0
 16 38  1  0
 16 39  1  0
 17 40  1  0
 17 41  1  0
 20 42  1  0
 20 43  1  0
M  END
$$$$
