PDB_DB00328_97
     RDKit          3D

 41 43  0  0  0  0  0  0  0  0999 V2000
   60.2140   43.7050   74.0330 C   0  0  0  0  0  0  0  0  0  0  0  0
   60.1670   44.6920   75.0510 C   0  0  0  0  0  0  0  0  0  0  0  0
   61.3700   45.2000   75.6110 C   0  0  0  0  0  0  0  0  0  0  0  0
   62.6420   44.7310   75.1520 C   0  0  0  0  0  0  0  0  0  0  0  0
   62.7040   43.7190   74.1140 C   0  0  0  0  0  0  0  0  0  0  0  0
   61.4840   43.2130   73.5560 C   0  0  0  0  0  0  0  0  0  0  0  0
   65.0980   44.7120   75.3300 C   0  0  0  0  0  0  0  0  0  0  0  0
   58.7050   44.9600   75.2820 C   0  0  0  0  0  0  0  0  0  0  0  0
   58.0200   44.1700   74.4480 C   0  0  0  0  0  0  0  0  0  0  0  0
   58.4350   42.4510   72.8570 C   0  0  0  0  0  0  0  0  0  0  0  0
   58.8480   42.3890   71.3820 C   0  0  0  0  0  0  0  0  0  0  0  0
   58.6730   41.1820   70.6610 C   0  0  0  0  0  0  0  0  0  0  0  0
   59.0390   41.0880   69.2950 C   0  0  0  0  0  0  0  0  0  0  0  0
   59.5640   42.1620   68.6540 C   0  0  0  0  0  0  0  0  0  0  0  0
   59.7510   43.3480   69.3370 C   0  0  0  0  0  0  0  0  0  0  0  0
   59.3900   43.4760   70.7210 C   0  0  0  0  0  0  0  0  0  0  0  0
   56.5090   44.1310   74.3680 C   0  0  0  0  0  0  0  0  0  0  0  0
   58.0560   45.9410   76.3100 C   0  0  0  0  0  0  0  0  0  0  0  0
   58.8010   47.2700   76.4220 C   0  0  0  0  0  0  0  0  0  0  0  0
   58.8550   43.4040   73.6940 N   0  0  0  0  0  0  0  0  0  0  0  0
   63.8050   45.2710   75.6990 O   0  0  0  0  0  0  0  0  0  0  0  0
   57.6790   41.5880   73.3140 O   0  0  0  0  0  0  0  0  0  0  0  0
   59.6970   47.5620   75.6470 O   0  0  0  0  0  0  0  0  0  0  0  0
   58.4740   48.1170   77.3540 O   0  0  0  0  0  0  0  0  0  0  0  0
   59.9240   42.0530   66.9970 Cl  0  0  0  0  0  0  0  0  0  0  0  0
   61.3233   45.9605   76.4044 H   0  0  0  0  0  0  0  0  0  0  0  0
   63.6756   43.3444   73.7594 H   0  0  0  0  0  0  0  0  0  0  0  0
   61.5161   42.4499   72.7644 H   0  0  0  0  0  0  0  0  0  0  0  0
   65.6648   44.4670   76.2403 H   0  0  0  0  0  0  0  0  0  0  0  0
   64.9466   43.7990   74.7355 H   0  0  0  0  0  0  0  0  0  0  0  0
   65.6594   45.4478   74.7355 H   0  0  0  0  0  0  0  0  0  0  0  0
   58.2466   40.3045   71.1691 H   0  0  0  0  0  0  0  0  0  0  0  0
   58.8969   40.1414   68.7531 H   0  0  0  0  0  0  0  0  0  0  0  0
   60.1848   44.2110   68.8106 H   0  0  0  0  0  0  0  0  0  0  0  0
   59.5430   44.4284   71.2496 H   0  0  0  0  0  0  0  0  0  0  0  0
   56.0882   44.1201   75.3843 H   0  0  0  0  0  0  0  0  0  0  0  0
   56.1472   45.0201   73.8308 H   0  0  0  0  0  0  0  0  0  0  0  0
   56.1935   43.2244   73.8308 H   0  0  0  0  0  0  0  0  0  0  0  0
   57.0220   46.1447   75.9949 H   0  0  0  0  0  0  0  0  0  0  0  0
   58.0978   45.4571   77.2970 H   0  0  0  0  0  0  0  0  0  0  0  0
   58.9544   48.9793   77.4299 H   0  0  0  0  0  0  0  0  0  0  0  0
  1  2  1  0
  2  3  2  0
  3  4  1  0
  4  5  2  0
  1  6  2  0
  5  6  1  0
  2  8  1  0
  8  9  2  0
 10 11  1  0
 11 12  2  0
 12 13  1  0
 13 14  2  0
 14 15  1  0
 11 16  1  0
 15 16  2  0
  9 17  1  0
  8 18  1  0
 18 19  1  0
  1 20  1  0
  9 20  1  0
 10 20  1  0
  4 21  1  0
  7 21  1  0
 10 22  2  0
 19 23  2  0
 19 24  1  0
 14 25  1  0
  3 26  1  0
  5 27  1  0
  6 28  1  0
  7 29  1  0
  7 30  1  0
  7 31  1  0
 12 32  1  0
 13 33  1  0
 15 34  1  0
 16 35  1  0
 17 36  1  0
 17 37  1  0
 17 38  1  0
 18 39  1  0
 18 40  1  0
 24 41  1  0
M  END
$$$$
