PDB_DB01254_87
     RDKit          3D

 59 62  0  0  0  0  0  0  0  0999 V2000
   28.5980   59.6340   29.1920 C   0  0  0  0  0  0  0  0  0  0  0  0
   27.9200   58.4180   29.4700 C   0  0  0  0  0  0  0  0  0  0  0  0
   28.6530   57.1530   29.8850 C   0  0  0  0  0  0  0  0  0  0  0  0
   18.2390   63.2470   27.4410 N   0  0  0  0  0  0  0  0  0  0  0  0
   32.2170   53.9380   31.5060 C   0  0  0  0  0  0  0  0  0  0  0  0
   31.7810   54.8640   32.4390 C   0  0  0  0  0  0  0  0  0  0  0  0
   31.0380   56.0050   32.0290 C   0  0  0  0  0  0  0  0  0  0  0  0
   30.5580   57.0020   33.0500 C   0  0  0  0  0  0  0  0  0  0  0  0
   23.8980   60.5310   28.6150 C   0  0  0  0  0  0  0  0  0  0  0  0
   22.8620   61.4570   28.3310 C   0  0  0  0  0  0  0  0  0  0  0  0
   21.6020   60.9780   28.4370 C   0  0  0  0  0  0  0  0  0  0  0  0
   22.3800   58.8440   29.0790 C   0  0  0  0  0  0  0  0  0  0  0  0
   22.1160   57.4350   29.4840 C   0  0  0  0  0  0  0  0  0  0  0  0
   20.6520   63.1770   27.7640 C   0  0  0  0  0  0  0  0  0  0  0  0
   19.2720   61.5060   28.7710 C   0  0  0  0  0  0  0  0  0  0  0  0
   17.4940   64.3100   28.1770 C   0  0  0  0  0  0  0  0  0  0  0  0
   18.2110   65.0140   29.2570 C   0  0  0  0  0  0  0  0  0  0  0  0
   25.2550   60.9790   28.5130 N   0  0  0  0  0  0  0  0  0  0  0  0
   26.3400   60.0980   28.8670 C   0  0  0  0  0  0  0  0  0  0  0  0
   27.6330   60.6390   28.8200 N   0  0  0  0  0  0  0  0  0  0  0  0
   26.3270   58.5240   29.3040 S   0  0  0  0  0  0  0  0  0  0  0  0
   30.0310   57.2950   30.2710 N   0  0  0  0  0  0  0  0  0  0  0  0
   30.7760   56.1520   30.6800 C   0  0  0  0  0  0  0  0  0  0  0  0
   31.2090   55.2350   29.7440 C   0  0  0  0  0  0  0  0  0  0  0  0
   31.9490   54.0960   30.1630 C   0  0  0  0  0  0  0  0  0  0  0  0
   30.8580   55.4570   28.1030 Cl  0  0  0  0  0  0  0  0  0  0  0  0
   28.0650   56.0890   29.8730 O   0  0  0  0  0  0  0  0  0  0  0  0
   21.3630   59.6580   28.8170 N   0  0  0  0  0  0  0  0  0  0  0  0
   23.6380   59.2600   28.9740 N   0  0  0  0  0  0  0  0  0  0  0  0
   20.5290   61.8190   28.1720 N   0  0  0  0  0  0  0  0  0  0  0  0
   19.5220   63.5800   26.8800 C   0  0  0  0  0  0  0  0  0  0  0  0
   18.1430   61.8760   27.8750 C   0  0  0  0  0  0  0  0  0  0  0  0
   17.7250   65.0940   30.3650 O   0  0  0  0  0  0  0  0  0  0  0  0
   29.6859   59.7854   29.2510 H   0  0  0  0  0  0  0  0  0  0  0  0
   32.7878   53.0601   31.8429 H   0  0  0  0  0  0  0  0  0  0  0  0
   32.0110   54.7158   33.5044 H   0  0  0  0  0  0  0  0  0  0  0  0
   30.7462   56.6111   34.0608 H   0  0  0  0  0  0  0  0  0  0  0  0
   31.0978   57.9512   32.9175 H   0  0  0  0  0  0  0  0  0  0  0  0
   29.4793   57.1720   32.9175 H   0  0  0  0  0  0  0  0  0  0  0  0
   23.0701   62.4980   28.0430 H   0  0  0  0  0  0  0  0  0  0  0  0
   22.1029   57.3653   30.5817 H   0  0  0  0  0  0  0  0  0  0  0  0
   21.1423   57.1150   29.0847 H   0  0  0  0  0  0  0  0  0  0  0  0
   22.9078   56.7842   29.0847 H   0  0  0  0  0  0  0  0  0  0  0  0
   20.6564   63.8204   28.6562 H   0  0  0  0  0  0  0  0  0  0  0  0
   21.5904   63.2872   27.2008 H   0  0  0  0  0  0  0  0  0  0  0  0
   19.2301   60.4257   28.9739 H   0  0  0  0  0  0  0  0  0  0  0  0
   19.1783   62.0795   29.7050 H   0  0  0  0  0  0  0  0  0  0  0  0
   17.1819   65.0651   27.4405 H   0  0  0  0  0  0  0  0  0  0  0  0
   16.6719   63.7812   28.6815 H   0  0  0  0  0  0  0  0  0  0  0  0
   19.1812   64.5088   29.3735 H   0  0  0  0  0  0  0  0  0  0  0  0
   18.2169   66.0585   28.9120 H   0  0  0  0  0  0  0  0  0  0  0  0
   25.4563   61.9345   28.1854 H   0  0  0  0  0  0  0  0  0  0  0  0
   30.4788   58.2224   30.2517 H   0  0  0  0  0  0  0  0  0  0  0  0
   32.3009   53.3552   29.4300 H   0  0  0  0  0  0  0  0  0  0  0  0
   19.6290   63.0655   25.9136 H   0  0  0  0  0  0  0  0  0  0  0  0
   19.5624   64.6729   26.7623 H   0  0  0  0  0  0  0  0  0  0  0  0
   17.1963   61.7387   28.4180 H   0  0  0  0  0  0  0  0  0  0  0  0
   18.1826   61.2295   26.9859 H   0  0  0  0  0  0  0  0  0  0  0  0
   18.4343   64.9772   31.0457 H   0  0  0  0  0  0  0  0  0  0  0  0
  1  2  2  0
  2  3  1  0
  5  6  2  0
  6  7  1  0
  7  8  1  0
  9 10  2  0
 10 11  1  0
 12 13  1  0
  4 16  1  0
 16 17  1  0
  9 18  1  0
 18 19  1  0
  1 20  1  0
 19 20  2  0
  2 21  1  0
 19 21  1  0
  3 22  1  0
  7 23  2  0
 22 23  1  0
 23 24  1  0
  5 25  1  0
 24 25  2  0
 24 26  1  0
  3 27  2  0
 11 28  2  0
 12 28  1  0
  9 29  1  0
 12 29  2  0
 11 30  1  0
 14 30  1  0
 15 30  1  0
  4 31  1  0
 14 31  1  0
  4 32  1  0
 15 32  1  0
 17 33  1  0
  1 34  1  0
  5 35  1  0
  6 36  1  0
  8 37  1  0
  8 38  1  0
  8 39  1  0
 10 40  1  0
 13 41  1  0
 13 42  1  0
 13 43  1  0
 14 44  1  0
 14 45  1  0
 15 46  1  0
 15 47  1  0
 16 48  1  0
 16 49  1  0
 17 50  1  0
 17 51  1  0
 18 52  1  0
 22 53  1  0
 25 54  1  0
 31 55  1  0
 31 56  1  0
 32 57  1  0
 32 58  1  0
 33 59  1  0
M  END
>  <PDBID>  (1) 
2Y6O

>  <PDB ID>  (1) 
2Y6O

>  <Generic Name>  (1) 
Dasatinib

>  <Brand Name>  (1) 
Sprycel

>  <DrugBank ID>  (1) 
DB01254

>  <ATC Codes>  (1) 
L01XE06

>  <Ligand ID>  (1) 
1N1

>  <Target Name>  (1) 
Ephrin type-A receptor 2

>  <UniProt ID>  (1) 
P29317

>  <PDB ID.1>  (1) 
2Y6O

>  <Seq. Identity>  (1) 
75%

$$$$
