PDB_DB12332_98
     RDKit          3D

 42 45  0  0  0  0  0  0  0  0999 V2000
   53.0580    1.3200  122.4740 O   0  0  0  0  0  0  0  0  0  0  0  0
   53.8410    2.1710  122.0730 C   0  0  0  0  0  0  0  0  0  0  0  0
   53.9760    3.2180  122.9240 N   0  0  0  0  0  0  0  0  0  0  0  0
   54.7400    4.4430  122.7770 C   0  0  0  0  0  0  0  0  0  0  0  0
   56.1860    4.2160  122.4760 C   0  0  0  0  0  0  0  0  0  0  0  0
   56.3700    3.6310  121.2610 C   0  0  0  0  0  0  0  0  0  0  0  0
   55.6880    2.6940  120.6190 C   0  0  0  0  0  0  0  0  0  0  0  0
   54.5880    2.0360  120.9260 C   0  0  0  0  0  0  0  0  0  0  0  0
   54.1220    1.1080  120.0220 C   0  0  0  0  0  0  0  0  0  0  0  0
   54.7860    0.8940  118.8650 C   0  0  0  0  0  0  0  0  0  0  0  0
   54.4390    0.2390  118.2200 F   0  0  0  0  0  0  0  0  0  0  0  0
   55.9100    1.5960  118.6010 C   0  0  0  0  0  0  0  0  0  0  0  0
   56.3210    2.4670  119.4790 C   0  0  0  0  0  0  0  0  0  0  0  0
   57.3780    3.2320  119.4140 N   0  0  0  0  0  0  0  0  0  0  0  0
   57.4010    3.9550  120.4980 C   0  0  0  0  0  0  0  0  0  0  0  0
   58.4150    4.7880  120.6800 C   0  0  0  0  0  0  0  0  0  0  0  0
   58.7090    5.4110  121.8790 C   0  0  0  0  0  0  0  0  0  0  0  0
   59.8240    6.2220  121.9840 C   0  0  0  0  0  0  0  0  0  0  0  0
   59.2650    4.9410  119.6040 C   0  0  0  0  0  0  0  0  0  0  0  0
   60.3660    5.7530  119.7080 C   0  0  0  0  0  0  0  0  0  0  0  0
   60.6490    6.3910  120.8940 C   0  0  0  0  0  0  0  0  0  0  0  0
   61.7790    7.1920  120.9350 C   0  0  0  0  0  0  0  0  0  0  0  0
   61.9620    7.9030  122.2000 N   0  0  0  0  0  0  0  0  0  0  0  0
   62.9710    8.9460  121.9920 C   0  0  0  0  0  0  0  0  0  0  0  0
   53.4573    3.1305  123.8096 H   0  0  0  0  0  0  0  0  0  0  0  0
   54.3020    5.0291  121.9556 H   0  0  0  0  0  0  0  0  0  0  0  0
   54.6910    4.9704  123.7411 H   0  0  0  0  0  0  0  0  0  0  0  0
   56.7067    5.1849  122.4858 H   0  0  0  0  0  0  0  0  0  0  0  0
   56.5895    3.5385  123.2429 H   0  0  0  0  0  0  0  0  0  0  0  0
   53.2066    0.5393  120.2423 H   0  0  0  0  0  0  0  0  0  0  0  0
   56.4660    1.4358  117.6655 H   0  0  0  0  0  0  0  0  0  0  0  0
   58.0659    3.2588  118.6478 H   0  0  0  0  0  0  0  0  0  0  0  0
   58.0549    5.2612  122.7506 H   0  0  0  0  0  0  0  0  0  0  0  0
   60.0510    6.7296  122.9331 H   0  0  0  0  0  0  0  0  0  0  0  0
   59.0597    4.4115  118.6619 H   0  0  0  0  0  0  0  0  0  0  0  0
   61.0257    5.8947  118.8392 H   0  0  0  0  0  0  0  0  0  0  0  0
   62.6600    6.5553  120.7661 H   0  0  0  0  0  0  0  0  0  0  0  0
   61.6527    7.9583  120.1560 H   0  0  0  0  0  0  0  0  0  0  0  0
   61.0719    8.3311  122.4922 H   0  0  0  0  0  0  0  0  0  0  0  0
   63.3257    9.3126  122.9666 H   0  0  0  0  0  0  0  0  0  0  0  0
   63.8177    8.5295  121.4267 H   0  0  0  0  0  0  0  0  0  0  0  0
   62.5267    9.7785  121.4267 H   0  0  0  0  0  0  0  0  0  0  0  0
  1  2  2  0
  2  3  1  0
  3  4  1  0
  4  5  1  0
  5  6  1  0
  6  7  1  0
  2  8  1  0
  7  8  2  0
  8  9  1  0
  9 10  2  0
 10 11  1  0
 10 12  1  0
  7 13  1  0
 12 13  2  0
 13 14  1  0
  6 15  2  0
 14 15  1  0
 15 16  1  0
 16 17  2  0
 17 18  1  0
 16 19  1  0
 19 20  2  0
 18 21  2  0
 20 21  1  0
 21 22  1  0
 22 23  1  0
 23 24  1  0
  3 25  1  0
  4 26  1  0
  4 27  1  0
  5 28  1  0
  5 29  1  0
  9 30  1  0
 12 31  1  0
 14 32  1  0
 17 33  1  0
 18 34  1  0
 19 35  1  0
 20 36  1  0
 22 37  1  0
 22 38  1  0
 23 39  1  0
 24 40  1  0
 24 41  1  0
 24 42  1  0
M  END
$$$$
