PDB_DB01263_97
     RDKit          3D

 93 99  0  0  0  0  0  0  0  0999 V2000
  -10.0560   13.4060   98.3280 C   0  0  0  0  0  0  0  0  0  0  0  0
   -9.6920   16.8210  101.9660 C   0  0  0  0  0  0  0  0  0  0  0  0
   -6.6800   15.2340   99.9000 O   0  0  0  0  0  0  0  0  0  0  0  0
   -9.8860   14.5620  102.7170 O   0  0  0  0  0  0  0  0  0  0  0  0
    9.6960   12.9200   93.9310 F   0  0  0  0  0  0  0  0  0  0  0  0
   13.7770   11.7080   92.0130 F   0  0  0  0  0  0  0  0  0  0  0  0
   11.7470   12.3750   92.9810 C   0  0  0  0  0  0  0  0  0  0  0  0
    4.4500    9.5330   98.4740 C   0  0  0  0  0  0  0  0  0  0  0  0
    4.8050   11.8620   98.0590 C   0  0  0  0  0  0  0  0  0  0  0  0
    3.2790    9.8350   99.1490 C   0  0  0  0  0  0  0  0  0  0  0  0
    3.6300   12.1570   98.7270 C   0  0  0  0  0  0  0  0  0  0  0  0
   -3.2120   11.5040  101.3690 C   0  0  0  0  0  0  0  0  0  0  0  0
   -2.9030   13.5740  100.2090 C   0  0  0  0  0  0  0  0  0  0  0  0
   -4.5760   11.7360  101.4180 C   0  0  0  0  0  0  0  0  0  0  0  0
   -4.2650   13.8080  100.2630 C   0  0  0  0  0  0  0  0  0  0  0  0
   12.8150   11.5160   92.9540 C   0  0  0  0  0  0  0  0  0  0  0  0
   12.7780   13.6370   97.4100 C   0  0  0  0  0  0  0  0  0  0  0  0
   10.8320   11.0730   94.8190 C   0  0  0  0  0  0  0  0  0  0  0  0
   11.9310   11.8740   98.0920 C   0  0  0  0  0  0  0  0  0  0  0  0
   -7.4780   12.2200  101.3390 C   0  0  0  0  0  0  0  0  0  0  0  0
  -10.6430   14.1980   99.4670 C   0  0  0  0  0  0  0  0  0  0  0  0
    8.4190   10.4580   95.3890 C   0  0  0  0  0  0  0  0  0  0  0  0
    0.6360   10.4250   99.9930 C   0  0  0  0  0  0  0  0  0  0  0  0
    1.1490   12.8160   99.7150 C   0  0  0  0  0  0  0  0  0  0  0  0
   -0.4800   10.8100  100.9420 C   0  0  0  0  0  0  0  0  0  0  0  0
    0.0150   13.1400  100.6660 C   0  0  0  0  0  0  0  0  0  0  0  0
    6.6760    9.0920   96.7080 C   0  0  0  0  0  0  0  0  0  0  0  0
    9.7330   12.0530   96.8740 C   0  0  0  0  0  0  0  0  0  0  0  0
   13.0410   12.5600   98.1890 N   0  0  0  0  0  0  0  0  0  0  0  0
   11.5910   13.6490   96.8480 N   0  0  0  0  0  0  0  0  0  0  0  0
   -8.7110   12.7610  101.2280 N   0  0  0  0  0  0  0  0  0  0  0  0
    6.3240   10.4030   97.1390 O   0  0  0  0  0  0  0  0  0  0  0  0
   10.2740    9.7060   96.6540 O   0  0  0  0  0  0  0  0  0  0  0  0
   10.7750   12.1170   93.9090 C   0  0  0  0  0  0  0  0  0  0  0  0
   11.9440   10.2440   94.7410 C   0  0  0  0  0  0  0  0  0  0  0  0
    5.2110   10.5500   97.9280 C   0  0  0  0  0  0  0  0  0  0  0  0
    2.8540   11.1530   99.2770 C   0  0  0  0  0  0  0  0  0  0  0  0
   -2.3620   12.4110  100.7430 C   0  0  0  0  0  0  0  0  0  0  0  0
   -5.1110   12.8860  100.8580 C   0  0  0  0  0  0  0  0  0  0  0  0
   12.9450   10.4580   93.8090 C   0  0  0  0  0  0  0  0  0  0  0  0
   -7.1750   14.2410  100.4010 C   0  0  0  0  0  0  0  0  0  0  0  0
  -10.1960   15.4330  101.6360 C   0  0  2  0  0  0  0  0  0  0  0  0
   -9.5960   14.8870  100.3460 C   0  0  1  0  0  0  0  0  0  0  0  0
    1.6710   11.4630   99.9430 N   0  0  0  0  0  0  0  0  0  0  0  0
   -1.0200   12.1120  100.5550 N   0  0  0  0  0  0  0  0  0  0  0  0
   11.0540   12.4900   97.3010 N   0  0  0  0  0  0  0  0  0  0  0  0
   -6.5400   13.0940  100.8540 N   0  0  0  0  0  0  0  0  0  0  0  0
   -8.4840   13.9810  100.6510 N   0  0  0  0  0  0  0  0  0  0  0  0
    9.8010   10.8550   95.9090 C   0  0  2  0  0  0  0  0  0  0  0  0
    9.1440    9.0570   97.1850 C   0  0  0  0  0  0  0  0  0  0  0  0
    8.0660    9.1540   96.1190 C   0  0  2  0  0  0  0  0  0  0  0  0
   -9.4462   12.5832   98.7295 H   0  0  0  0  0  0  0  0  0  0  0  0
  -10.8681   12.9934   97.7114 H   0  0  0  0  0  0  0  0  0  0  0  0
   -9.4250   14.0630   97.7114 H   0  0  0  0  0  0  0  0  0  0  0  0
   -9.6471   16.9447  103.0581 H   0  0  0  0  0  0  0  0  0  0  0  0
   -8.6871   16.9571  101.5399 H   0  0  0  0  0  0  0  0  0  0  0  0
  -10.3755   17.5702  101.5399 H   0  0  0  0  0  0  0  0  0  0  0  0
  -10.0519   15.0282  103.5744 H   0  0  0  0  0  0  0  0  0  0  0  0
   11.6750   13.2289   92.2913 H   0  0  0  0  0  0  0  0  0  0  0  0
    4.7738    8.4866   98.3725 H   0  0  0  0  0  0  0  0  0  0  0  0
    5.4147   12.6724   97.6329 H   0  0  0  0  0  0  0  0  0  0  0  0
    2.6791    9.0243   99.5883 H   0  0  0  0  0  0  0  0  0  0  0  0
    3.3085   13.2047   98.8220 H   0  0  0  0  0  0  0  0  0  0  0  0
   -2.7965   10.5951  101.8287 H   0  0  0  0  0  0  0  0  0  0  0  0
   -2.2413   14.3162   99.7385 H   0  0  0  0  0  0  0  0  0  0  0  0
   -5.2385   11.0044  101.9036 H   0  0  0  0  0  0  0  0  0  0  0  0
   -4.6789   14.7312   99.8312 H   0  0  0  0  0  0  0  0  0  0  0  0
   13.5083   14.4456   97.2587 H   0  0  0  0  0  0  0  0  0  0  0  0
   11.7463   10.9146   98.5973 H   0  0  0  0  0  0  0  0  0  0  0  0
   -7.2594   11.2261  101.7565 H   0  0  0  0  0  0  0  0  0  0  0  0
  -11.3054   14.9696   99.0475 H   0  0  0  0  0  0  0  0  0  0  0  0
  -11.1804   13.4847  100.1091 H   0  0  0  0  0  0  0  0  0  0  0  0
    7.6814   11.2404   95.6210 H   0  0  0  0  0  0  0  0  0  0  0  0
    8.4153   10.3285   94.2967 H   0  0  0  0  0  0  0  0  0  0  0  0
    1.0889    9.4828  100.3351 H   0  0  0  0  0  0  0  0  0  0  0  0
    0.2113   10.3075   98.9851 H   0  0  0  0  0  0  0  0  0  0  0  0
    0.7802   12.8875   98.6811 H   0  0  0  0  0  0  0  0  0  0  0  0
    1.9631   13.5346   99.8904 H   0  0  0  0  0  0  0  0  0  0  0  0
   -1.2776   10.0538  100.8964 H   0  0  0  0  0  0  0  0  0  0  0  0
   -0.0866   10.8659  101.9677 H   0  0  0  0  0  0  0  0  0  0  0  0
    0.3969   13.1666  101.6972 H   0  0  0  0  0  0  0  0  0  0  0  0
   -0.4117   14.1207  100.4089 H   0  0  0  0  0  0  0  0  0  0  0  0
    6.6633    8.4012   97.5640 H   0  0  0  0  0  0  0  0  0  0  0  0
    5.9578    8.7297   95.9576 H   0  0  0  0  0  0  0  0  0  0  0  0
    9.1524   11.7607   97.7614 H   0  0  0  0  0  0  0  0  0  0  0  0
    9.2562   12.8892   96.3416 H   0  0  0  0  0  0  0  0  0  0  0  0
   12.0313    9.3966   95.4370 H   0  0  0  0  0  0  0  0  0  0  0  0
   13.8210    9.7946   93.7581 H   0  0  0  0  0  0  0  0  0  0  0  0
  -11.2838   15.4944  101.4845 H   0  0  0  0  0  0  0  0  0  0  0  0
   -9.2119   15.7406   99.7682 H   0  0  0  0  0  0  0  0  0  0  0  0
    9.3746    8.0033   97.4006 H   0  0  0  0  0  0  0  0  0  0  0  0
    8.8201    9.5197   98.1289 H   0  0  0  0  0  0  0  0  0  0  0  0
    8.0438    8.3068   95.4177 H   0  0  0  0  0  0  0  0  0  0  0  0
  8 10  2  0
  9 11  1  0
 12 14  2  0
 13 15  1  0
  6 16  1  0
  7 16  2  0
  1 21  1  0
 23 25  1  0
 24 26  1  0
 17 29  1  0
 19 29  2  0
 17 30  2  0
 20 31  2  0
 27 32  1  0
  5 34  1  0
  7 34  1  0
 18 34  2  0
 18 35  1  0
  8 36  1  0
  9 36  2  0
 32 36  1  0
 10 37  1  0
 11 37  2  0
 12 38  1  0
 13 38  2  0
 14 39  1  0
 15 39  2  0
 16 40  1  0
 35 40  2  0
  3 41  2  0
  2 42  1  0
  4 42  1  0
 21 43  1  0
 42 43  1  0
 23 44  1  0
 24 44  1  0
 37 44  1  0
 25 45  1  0
 26 45  1  0
 38 45  1  0
 19 46  1  0
 28 46  1  0
 30 46  1  0
 20 47  1  0
 39 47  1  0
 41 47  1  0
 31 48  1  0
 41 48  1  0
 43 48  1  0
 18 49  1  0
 22 49  1  0
 49 28  1  1
 33 49  1  0
 33 50  1  0
 22 51  1  0
 27 51  1  0
 50 51  1  0
  1 52  1  0
  1 53  1  0
  1 54  1  0
  2 55  1  0
  2 56  1  0
  2 57  1  0
  4 58  1  0
  7 59  1  0
  8 60  1  0
  9 61  1  0
 10 62  1  0
 11 63  1  0
 12 64  1  0
 13 65  1  0
 14 66  1  0
 15 67  1  0
 17 68  1  0
 19 69  1  0
 20 70  1  0
 21 71  1  0
 21 72  1  0
 22 73  1  0
 22 74  1  0
 23 75  1  0
 23 76  1  0
 24 77  1  0
 24 78  1  0
 25 79  1  0
 25 80  1  0
 26 81  1  0
 26 82  1  0
 27 83  1  0
 27 84  1  0
 28 85  1  0
 28 86  1  0
 35 87  1  0
 40 88  1  0
 42 89  1  6
 43 90  1  6
 50 91  1  0
 50 92  1  0
 51 93  1  6
M  END
>  <PDBID>  (1) 
4ZE1

>  <PDB ID>  (1) 
4ZE1

>  <Generic Name>  (1) 
Posaconazole

>  <Brand Name>  (1) 
Noxafil#Posanol

>  <DrugBank ID>  (1) 
DB01263

>  <ATC Codes>  (1) 
J02AC04

>  <Ligand ID>  (1) 
X2N

>  <Target Name>  (1) 
Lanosterol 14-alpha demethylase

>  <UniProt ID>  (1) 
P10613

>  <PDB ID.1>  (1) 
4ZE1

>  <Seq. Identity>  (1) 
65%

$$$$
