PDB_DB13139_99
     RDKit          3D

 88 88  0  0  0  0  0  0  0  0999 V2000
  -20.5720  -13.3880   28.7190 O   0  0  0  0  0  0  0  0  0  0  0  0
  -19.9640  -12.8280   27.5540 C   0  0  0  0  0  0  0  0  0  0  0  0
  -20.9390  -12.4700   26.4450 C   0  0  0  0  0  0  0  0  0  0  0  0
  -20.3920  -11.6740   25.3160 C   0  0  0  0  0  0  0  0  0  0  0  0
  -19.0790  -11.3060   25.2970 O   0  0  0  0  0  0  0  0  0  0  0  0
  -21.2240  -11.3120   24.2620 C   0  0  0  0  0  0  0  0  0  0  0  0
  -22.5580  -11.7040   24.2740 C   0  0  0  0  0  0  0  0  0  0  0  0
  -22.3020  -12.8380   26.4090 C   0  0  0  0  0  0  0  0  0  0  0  0
  -23.1070  -12.4500   25.3170 C   0  0  0  0  0  0  0  0  0  0  0  0
  -24.5500  -12.7900   25.2030 C   0  0  1  0  0  0  0  0  0  0  0  0
  -25.1390  -12.1870   24.0370 O   0  0  0  0  0  0  0  0  0  0  0  0
  -24.7830  -14.2960   25.0910 C   0  0  0  0  0  0  0  0  0  0  0  0
  -26.2080  -14.5420   25.3150 N   0  0  0  0  0  0  0  0  0  0  0  0
  -26.8180  -15.8520   25.3900 C   0  0  1  0  0  0  0  0  0  0  0  0
  -26.0070  -16.8520   24.5670 C   0  0  0  0  0  0  0  0  0  0  0  0
  -26.8620  -16.2730   26.8560 C   0  0  0  0  0  0  0  0  0  0  0  0
  -28.2240  -15.7730   24.8080 C   0  0  0  0  0  0  0  0  0  0  0  0
    4.9560   -9.3200   17.1750 O   0  0  0  0  0  0  0  0  0  0  0  0
    4.8740   -8.7800   18.4940 C   0  0  0  0  0  0  0  0  0  0  0  0
    5.7790   -9.5000   19.4830 C   0  0  0  0  0  0  0  0  0  0  0  0
    5.1980   -9.9410   20.7750 C   0  0  0  0  0  0  0  0  0  0  0  0
    3.8800   -9.7070   21.0230 O   0  0  0  0  0  0  0  0  0  0  0  0
    6.0010  -10.5800   21.7210 C   0  0  0  0  0  0  0  0  0  0  0  0
    7.3510  -10.8030   21.4480 C   0  0  0  0  0  0  0  0  0  0  0  0
    7.1440   -9.7390   19.2640 C   0  0  0  0  0  0  0  0  0  0  0  0
    7.9270  -10.3870   20.2360 C   0  0  0  0  0  0  0  0  0  0  0  0
    9.3800  -10.6400   19.9950 C   0  0  1  0  0  0  0  0  0  0  0  0
   10.0500  -11.1230   21.1790 O   0  0  0  0  0  0  0  0  0  0  0  0
    9.5620  -11.6290   18.8460 C   0  0  0  0  0  0  0  0  0  0  0  0
   10.9100  -12.1860   18.7940 N   0  0  0  0  0  0  0  0  0  0  0  0
   11.4060  -12.8520   17.5990 C   0  0  1  0  0  0  0  0  0  0  0  0
   10.5300  -14.0600   17.2860 C   0  0  0  0  0  0  0  0  0  0  0  0
   11.3730  -11.8540   16.4370 C   0  0  0  0  0  0  0  0  0  0  0  0
   12.8190  -13.3650   17.8670 C   0  0  0  0  0  0  0  0  0  0  0  0
  -20.1525  -13.0017   29.5282 H   0  0  0  0  0  0  0  0  0  0  0  0
  -19.4303  -11.9131   27.8510 H   0  0  0  0  0  0  0  0  0  0  0  0
  -19.2969  -13.6018   27.1465 H   0  0  0  0  0  0  0  0  0  0  0  0
  -21.1993  -11.5412   26.9737 H   0  0  0  0  0  0  0  0  0  0  0  0
  -20.6446  -10.7452   25.8485 H   0  0  0  0  0  0  0  0  0  0  0  0
  -18.7488  -11.2134   26.2257 H   0  0  0  0  0  0  0  0  0  0  0  0
  -21.2144  -10.2133   24.2103 H   0  0  0  0  0  0  0  0  0  0  0  0
  -20.8036  -11.8567   23.4038 H   0  0  0  0  0  0  0  0  0  0  0  0
  -23.1497  -10.7786   24.2148 H   0  0  0  0  0  0  0  0  0  0  0  0
  -22.5920  -12.4202   23.4398 H   0  0  0  0  0  0  0  0  0  0  0  0
  -22.3361  -13.9365   26.4547 H   0  0  0  0  0  0  0  0  0  0  0  0
  -22.7368  -12.2843   27.2542 H   0  0  0  0  0  0  0  0  0  0  0  0
  -22.8422  -13.3794   24.7916 H   0  0  0  0  0  0  0  0  0  0  0  0
  -25.0155  -12.4052   26.1224 H   0  0  0  0  0  0  0  0  0  0  0  0
  -25.8026  -11.5076   24.3164 H   0  0  0  0  0  0  0  0  0  0  0  0
  -24.4950  -14.6464   24.0889 H   0  0  0  0  0  0  0  0  0  0  0  0
  -24.1768  -14.8365   25.8328 H   0  0  0  0  0  0  0  0  0  0  0  0
  -26.4294  -14.0833   26.2103 H   0  0  0  0  0  0  0  0  0  0  0  0
  -25.4606  -17.5258   25.2433 H   0  0  0  0  0  0  0  0  0  0  0  0
  -26.6859  -17.4408   23.9326 H   0  0  0  0  0  0  0  0  0  0  0  0
  -25.2907  -16.3093   23.9326 H   0  0  0  0  0  0  0  0  0  0  0  0
  -26.7690  -15.3832   27.4960 H   0  0  0  0  0  0  0  0  0  0  0  0
  -27.8176  -16.7763   27.0644 H   0  0  0  0  0  0  0  0  0  0  0  0
  -26.0311  -16.9630   27.0644 H   0  0  0  0  0  0  0  0  0  0  0  0
  -28.9578  -15.7318   25.6264 H   0  0  0  0  0  0  0  0  0  0  0  0
  -28.3142  -14.8684   24.1887 H   0  0  0  0  0  0  0  0  0  0  0  0
  -28.4150  -16.6618   24.1887 H   0  0  0  0  0  0  0  0  0  0  0  0
    5.1044  -10.2974   17.2272 H   0  0  0  0  0  0  0  0  0  0  0  0
    5.1652   -7.7198   18.4585 H   0  0  0  0  0  0  0  0  0  0  0  0
    3.8376   -8.9070   18.8401 H   0  0  0  0  0  0  0  0  0  0  0  0
    6.0523   -8.5352   19.9352 H   0  0  0  0  0  0  0  0  0  0  0  0
    5.4546   -8.9693   21.2221 H   0  0  0  0  0  0  0  0  0  0  0  0
    3.7279   -9.6800   22.0009 H   0  0  0  0  0  0  0  0  0  0  0  0
    5.9575   -9.9733   22.6375 H   0  0  0  0  0  0  0  0  0  0  0  0
    5.5797  -11.5950   21.7691 H   0  0  0  0  0  0  0  0  0  0  0  0
    7.9173  -10.3057   22.2492 H   0  0  0  0  0  0  0  0  0  0  0  0
    7.4026  -11.8993   21.3740 H   0  0  0  0  0  0  0  0  0  0  0  0
    7.2133  -10.3464   18.3495 H   0  0  0  0  0  0  0  0  0  0  0  0
    7.5692   -8.7247   19.2448 H   0  0  0  0  0  0  0  0  0  0  0  0
    7.6813  -11.3599   19.7853 H   0  0  0  0  0  0  0  0  0  0  0  0
    9.8401   -9.6783   19.7242 H   0  0  0  0  0  0  0  0  0  0  0  0
    9.5822  -10.7857   21.9837 H   0  0  0  0  0  0  0  0  0  0  0  0
    8.8448  -12.4532   18.9735 H   0  0  0  0  0  0  0  0  0  0  0  0
    9.3900  -11.0837   17.9063 H   0  0  0  0  0  0  0  0  0  0  0  0
   11.5555  -11.4058   18.9823 H   0  0  0  0  0  0  0  0  0  0  0  0
   10.1943  -14.5229   18.2257 H   0  0  0  0  0  0  0  0  0  0  0  0
    9.6547  -13.7371   16.7032 H   0  0  0  0  0  0  0  0  0  0  0  0
   11.1089  -14.7916   16.7032 H   0  0  0  0  0  0  0  0  0  0  0  0
   11.3391  -10.8290   16.8348 H   0  0  0  0  0  0  0  0  0  0  0  0
   12.2758  -11.9785   15.8209 H   0  0  0  0  0  0  0  0  0  0  0  0
   10.4804  -12.0379   15.8209 H   0  0  0  0  0  0  0  0  0  0  0  0
   12.9872  -13.4261   18.9523 H   0  0  0  0  0  0  0  0  0  0  0  0
   12.9374  -14.3635   17.4209 H   0  0  0  0  0  0  0  0  0  0  0  0
   13.5504  -12.6750   17.4209 H   0  0  0  0  0  0  0  0  0  0  0  0
  1  2  1  0
  2  3  1  0
  3  4  1  0
  4  5  1  0
  4  6  1  0
  6  7  1  0
  3  8  1  0
  7  9  1  0
  8  9  1  0
  9 10  1  0
 10 11  1  0
 10 12  1  0
 12 13  1  0
 14 13  1  1
 14 15  1  0
 14 16  1  0
 14 17  1  0
 18 19  1  0
 19 20  1  0
 20 21  1  0
 21 22  1  0
 21 23  1  0
 23 24  1  0
 20 25  1  0
 24 26  1  0
 25 26  1  0
 26 27  1  0
 27 28  1  0
 27 29  1  0
 29 30  1  0
 31 30  1  1
 31 32  1  0
 31 33  1  0
 31 34  1  0
  1 35  1  0
  2 36  1  0
  2 37  1  0
  3 38  1  0
  4 39  1  0
  5 40  1  0
  6 41  1  0
  6 42  1  0
  7 43  1  0
  7 44  1  0
  8 45  1  0
  8 46  1  0
  9 47  1  0
 10 48  1  1
 11 49  1  0
 12 50  1  0
 12 51  1  0
 13 52  1  0
 15 53  1  0
 15 54  1  0
 15 55  1  0
 16 56  1  0
 16 57  1  0
 16 58  1  0
 17 59  1  0
 17 60  1  0
 17 61  1  0
 18 62  1  0
 19 63  1  0
 19 64  1  0
 20 65  1  0
 21 66  1  0
 22 67  1  0
 23 68  1  0
 23 69  1  0
 24 70  1  0
 24 71  1  0
 25 72  1  0
 25 73  1  0
 26 74  1  0
 27 75  1  6
 28 76  1  0
 29 77  1  0
 29 78  1  0
 30 79  1  0
 32 80  1  0
 32 81  1  0
 32 82  1  0
 33 83  1  0
 33 84  1  0
 33 85  1  0
 34 86  1  0
 34 87  1  0
 34 88  1  0
M  END
>  <PDBID>  (1) 
2Y04

>  <PDB ID>  (1) 
2Y04

>  <Generic Name>  (1) 
Levosalbutamol

>  <Brand Name>  (1) 
Levalbuterol#Levalbuterol Hydrochloride#Xopenex

>  <DrugBank ID>  (1) 
DB13139

>  <ATC Codes>  (1) 
nan

>  <Ligand ID>  (1) 
68H

>  <Target Name>  (1) 
Beta-2 adrenergic receptor

>  <UniProt ID>  (1) 
P07550

>  <PDB ID.1>  (1) 
2Y04

>  <Seq. Identity>  (1) 
58%

$$$$
