PDB_DB00755_97
     RDKit          3D

 50 50  0  0  0  0  0  0  0  0999 V2000
   85.0760   60.0410   32.4650 C   0  0  0  0  0  0  0  0  0  0  0  0
   84.4570   61.3230   31.9650 C   0  0  0  0  0  0  0  0  0  0  0  0
   84.4000   62.3540   33.0680 C   0  0  0  0  0  0  0  0  0  0  0  0
   83.4520   61.8650   34.1340 C   0  0  0  0  0  0  0  0  0  0  0  0
   83.9180   60.5400   34.6140 C   0  0  0  0  0  0  0  0  0  0  0  0
   84.6520   59.7210   33.8540 C   0  0  0  0  0  0  0  0  0  0  0  0
   85.0870   58.4560   34.3620 C   0  0  0  0  0  0  0  0  0  0  0  0
   85.7620   58.3500   35.5100 C   0  0  0  0  0  0  0  0  0  0  0  0
   86.1950   57.0780   35.9980 C   0  0  0  0  0  0  0  0  0  0  0  0
   86.9300   56.8990   37.1000 C   0  0  0  0  0  0  0  0  0  0  0  0
   87.4250   57.8920   38.0070 C   0  0  0  0  0  0  0  0  0  0  0  0
   88.0450   57.4520   39.1080 C   0  0  0  0  0  0  0  0  0  0  0  0
   88.6170   58.2490   40.1570 C   0  0  0  0  0  0  0  0  0  0  0  0
   88.9650   57.6430   41.3000 C   0  0  0  0  0  0  0  0  0  0  0  0
   89.5550   58.5090   42.3950 C   0  0  0  0  0  0  0  0  0  0  0  0
   86.5750   60.1710   32.4300 C   0  0  0  0  0  0  0  0  0  0  0  0
   84.6480   58.9270   31.5500 C   0  0  0  0  0  0  0  0  0  0  0  0
   83.5300   60.1600   35.9960 C   0  0  0  0  0  0  0  0  0  0  0  0
   85.7820   55.9050   35.1980 C   0  0  0  0  0  0  0  0  0  0  0  0
   88.7880   59.6980   39.8870 C   0  0  0  0  0  0  0  0  0  0  0  0
   89.5470   57.9770   43.5450 O   0  0  0  0  0  0  0  0  0  0  0  0
   89.9790   59.6440   42.0480 O   0  0  0  0  0  0  0  0  0  0  0  0
   85.0616   61.7159   31.1343 H   0  0  0  0  0  0  0  0  0  0  0  0
   83.4324   61.1119   31.6248 H   0  0  0  0  0  0  0  0  0  0  0  0
   85.4028   62.4920   33.4986 H   0  0  0  0  0  0  0  0  0  0  0  0
   84.0498   63.3161   32.6658 H   0  0  0  0  0  0  0  0  0  0  0  0
   83.4373   62.5779   34.9716 H   0  0  0  0  0  0  0  0  0  0  0  0
   82.4363   61.7779   33.7209 H   0  0  0  0  0  0  0  0  0  0  0  0
   84.8589   57.5442   33.7906 H   0  0  0  0  0  0  0  0  0  0  0  0
   85.9885   59.2570   36.0897 H   0  0  0  0  0  0  0  0  0  0  0  0
   87.1876   55.8572   37.3413 H   0  0  0  0  0  0  0  0  0  0  0  0
   87.3009   58.9666   37.8072 H   0  0  0  0  0  0  0  0  0  0  0  0
   88.1254   56.3609   39.2222 H   0  0  0  0  0  0  0  0  0  0  0  0
   88.8280   56.5603   41.4382 H   0  0  0  0  0  0  0  0  0  0  0  0
   86.9642   60.2048   33.4583 H   0  0  0  0  0  0  0  0  0  0  0  0
   87.0058   59.3068   31.9031 H   0  0  0  0  0  0  0  0  0  0  0  0
   86.8506   61.0964   31.9031 H   0  0  0  0  0  0  0  0  0  0  0  0
   84.3173   58.0663   32.1499 H   0  0  0  0  0  0  0  0  0  0  0  0
   83.8184   59.2720   30.9154 H   0  0  0  0  0  0  0  0  0  0  0  0
   85.4952   58.6278   30.9154 H   0  0  0  0  0  0  0  0  0  0  0  0
   84.1238   60.7415   36.7166 H   0  0  0  0  0  0  0  0  0  0  0  0
   82.4610   60.3701   36.1476 H   0  0  0  0  0  0  0  0  0  0  0  0
   83.7178   59.0868   36.1476 H   0  0  0  0  0  0  0  0  0  0  0  0
   85.4932   55.0849   35.8718 H   0  0  0  0  0  0  0  0  0  0  0  0
   84.9256   56.1770   34.5635 H   0  0  0  0  0  0  0  0  0  0  0  0
   86.6199   55.5805   34.5635 H   0  0  0  0  0  0  0  0  0  0  0  0
   88.8524   60.2435   40.8401 H   0  0  0  0  0  0  0  0  0  0  0  0
   89.7112   59.8571   39.3104 H   0  0  0  0  0  0  0  0  0  0  0  0
   87.9272   60.0676   39.3104 H   0  0  0  0  0  0  0  0  0  0  0  0
   90.3746   60.2519   42.7219 H   0  0  0  0  0  0  0  0  0  0  0  0
  1  2  1  0
  2  3  1  0
  3  4  1  0
  4  5  1  0
  1  6  1  0
  5  6  2  0
  6  7  1  0
  7  8  2  0
  8  9  1  0
  9 10  2  0
 10 11  1  0
 11 12  2  0
 12 13  1  0
 13 14  2  0
 14 15  1  0
  1 16  1  0
  1 17  1  0
  5 18  1  0
  9 19  1  0
 13 20  1  0
 15 21  2  0
 15 22  1  0
  2 23  1  0
  2 24  1  0
  3 25  1  0
  3 26  1  0
  4 27  1  0
  4 28  1  0
  7 29  1  0
  8 30  1  0
 10 31  1  0
 11 32  1  0
 12 33  1  0
 14 34  1  0
 16 35  1  0
 16 36  1  0
 16 37  1  0
 17 38  1  0
 17 39  1  0
 17 40  1  0
 18 41  1  0
 18 42  1  0
 18 43  1  0
 19 44  1  0
 19 45  1  0
 19 46  1  0
 20 47  1  0
 20 48  1  0
 20 49  1  0
 22 50  1  0
M  END
$$$$
