PDB_DB00741_94
     RDKit          3D

 56 59  0  0  0  0  0  0  0  0999 V2000
  -23.7160  105.0780  -14.9700 C   0  0  0  0  0  0  0  0  0  0  0  0
  -23.9000  104.5540  -16.3900 C   0  0  0  0  0  0  0  0  0  0  0  0
  -24.2070  103.0720  -16.3930 C   0  0  0  0  0  0  0  0  0  0  0  0
  -24.7660  102.4130  -15.2060 C   0  0  0  0  0  0  0  0  0  0  0  0
  -24.9950  103.0780  -14.0670 C   0  0  0  0  0  0  0  0  0  0  0  0
  -25.6820  102.3280  -12.9600 C   0  0  0  0  0  0  0  0  0  0  0  0
  -24.9840  102.5280  -11.6340 C   0  0  0  0  0  0  0  0  0  0  0  0
  -24.5890  103.9810  -11.3820 C   0  0  2  0  0  0  0  0  0  0  0  0
  -23.8580  104.6430  -12.5560 C   0  0  1  0  0  0  0  0  0  0  0  0
  -24.6420  104.5530  -13.8900 C   0  0  1  0  0  0  0  0  0  0  0  0
  -22.5020  106.0500  -10.8910 C   0  0  0  0  0  0  0  0  0  0  0  0
  -23.2660  106.0450  -12.2270 C   0  0  2  0  0  0  0  0  0  0  0  0
  -23.2240  105.3660   -9.7290 C   0  0  1  0  0  0  0  0  0  0  0  0
  -23.6640  103.9780  -10.1800 C   0  0  1  0  0  0  0  0  0  0  0  0
  -24.1970  103.3570   -8.9170 C   0  0  0  0  0  0  0  0  0  0  0  0
  -23.3580  103.9540   -7.7940 C   0  0  0  0  0  0  0  0  0  0  0  0
  -22.4620  104.9790   -8.4350 C   0  0  2  0  0  0  0  0  0  0  0  0
  -24.4250  106.2230   -9.3260 C   0  0  0  0  0  0  0  0  0  0  0  0
  -25.9730  105.3120  -13.8780 C   0  0  0  0  0  0  0  0  0  0  0  0
  -22.1550  106.0940   -7.4530 C   0  0  0  0  0  0  0  0  0  0  0  0
  -21.1270  107.1070   -7.8430 C   0  0  0  0  0  0  0  0  0  0  0  0
  -23.9990  102.4010  -17.3870 O   0  0  0  0  0  0  0  0  0  0  0  0
  -24.2200  107.1250  -12.2370 O   0  0  0  0  0  0  0  0  0  0  0  0
  -21.2250  104.3010   -8.7220 O   0  0  0  0  0  0  0  0  0  0  0  0
  -22.7400  106.1920   -6.3810 O   0  0  0  0  0  0  0  0  0  0  0  0
  -21.0240  108.1270   -6.8530 O   0  0  0  0  0  0  0  0  0  0  0  0
  -22.6873  104.8374  -14.6637 H   0  0  0  0  0  0  0  0  0  0  0  0
  -23.9564  106.1491  -15.0400 H   0  0  0  0  0  0  0  0  0  0  0  0
  -24.7321  105.0934  -16.8661 H   0  0  0  0  0  0  0  0  0  0  0  0
  -22.9638  104.7161  -16.9443 H   0  0  0  0  0  0  0  0  0  0  0  0
  -25.0039  101.3401  -15.2541 H   0  0  0  0  0  0  0  0  0  0  0  0
  -26.7183  102.6871  -12.8754 H   0  0  0  0  0  0  0  0  0  0  0  0
  -25.6558  101.2557  -13.2037 H   0  0  0  0  0  0  0  0  0  0  0  0
  -25.6603  102.2038  -10.8293 H   0  0  0  0  0  0  0  0  0  0  0  0
  -24.0584  101.9341  -11.6561 H   0  0  0  0  0  0  0  0  0  0  0  0
  -25.5104  104.5619  -11.2281 H   0  0  0  0  0  0  0  0  0  0  0  0
  -22.9604  104.0312  -12.7293 H   0  0  0  0  0  0  0  0  0  0  0  0
  -21.5417  105.5362  -11.0455 H   0  0  0  0  0  0  0  0  0  0  0  0
  -22.3921  107.1063  -10.6045 H   0  0  0  0  0  0  0  0  0  0  0  0
  -22.5690  106.2337  -13.0568 H   0  0  0  0  0  0  0  0  0  0  0  0
  -22.8453  103.3720  -10.5953 H   0  0  0  0  0  0  0  0  0  0  0  0
  -25.2590  103.6095   -8.7813 H   0  0  0  0  0  0  0  0  0  0  0  0
  -24.1326  102.2591   -8.9395 H   0  0  0  0  0  0  0  0  0  0  0  0
  -24.0077  104.4310   -7.0455 H   0  0  0  0  0  0  0  0  0  0  0  0
  -22.7730  103.1792   -7.2769 H   0  0  0  0  0  0  0  0  0  0  0  0
  -24.4905  106.2697   -8.2289 H   0  0  0  0  0  0  0  0  0  0  0  0
  -24.3025  107.2389   -9.7296 H   0  0  0  0  0  0  0  0  0  0  0  0
  -25.3458  105.7767   -9.7296 H   0  0  0  0  0  0  0  0  0  0  0  0
  -26.2844  105.4896  -12.8381 H   0  0  0  0  0  0  0  0  0  0  0  0
  -25.8501  106.2758  -14.3937 H   0  0  0  0  0  0  0  0  0  0  0  0
  -26.7399  104.7154  -14.3937 H   0  0  0  0  0  0  0  0  0  0  0  0
  -20.1522  106.6090   -7.9512 H   0  0  0  0  0  0  0  0  0  0  0  0
  -21.4280  107.5677   -8.7955 H   0  0  0  0  0  0  0  0  0  0  0  0
  -24.4428  107.3772  -11.3059 H   0  0  0  0  0  0  0  0  0  0  0  0
  -20.7782  104.0561   -7.8731 H   0  0  0  0  0  0  0  0  0  0  0  0
  -21.0653  107.7181   -5.9523 H   0  0  0  0  0  0  0  0  0  0  0  0
  1  2  1  0
  2  3  1  0
  3  4  1  0
  4  5  2  0
  5  6  1  0
  6  7  1  0
  7  8  1  0
  8  9  1  0
  1 10  1  0
  5 10  1  0
  9 10  1  0
  9 12  1  0
 11 12  1  0
 11 13  1  0
  8 14  1  0
 13 14  1  0
 14 15  1  0
 15 16  1  0
 13 17  1  0
 16 17  1  0
 13 18  1  1
 10 19  1  1
 17 20  1  0
 20 21  1  0
  3 22  2  0
 12 23  1  0
 17 24  1  6
 20 25  2  0
 21 26  1  0
  1 27  1  0
  1 28  1  0
  2 29  1  0
  2 30  1  0
  4 31  1  0
  6 32  1  0
  6 33  1  0
  7 34  1  0
  7 35  1  0
  8 36  1  1
  9 37  1  6
 11 38  1  0
 11 39  1  0
 12 40  1  6
 14 41  1  6
 15 42  1  0
 15 43  1  0
 16 44  1  0
 16 45  1  0
 18 46  1  0
 18 47  1  0
 18 48  1  0
 19 49  1  0
 19 50  1  0
 19 51  1  0
 21 52  1  0
 21 53  1  0
 23 54  1  0
 24 55  1  0
 26 56  1  0
M  END
$$$$
