PDB_DB01229_93
     RDKit          3D

113119  0  0  0  0  0  0  0  0999 V2000
   17.4810  -29.2790 -102.5720 O   0  0  0  0  0  0  0  0  0  0  0  0
   17.7920  -29.1240 -101.1760 C   0  0  1  0  0  0  0  0  0  0  0  0
   19.0910  -28.1400 -101.1090 C   0  0  1  0  0  0  0  0  0  0  0  0
   18.5800  -26.9150 -101.7650 O   0  0  0  0  0  0  0  0  0  0  0  0
   19.0540  -26.5990 -103.0590 C   0  0  0  0  0  0  0  0  0  0  0  0
   19.8810  -27.2530 -103.6490 O   0  0  0  0  0  0  0  0  0  0  0  0
   18.4670  -25.3950 -103.5870 C   0  0  0  0  0  0  0  0  0  0  0  0
   18.3080  -24.1550 -102.9560 C   0  0  0  0  0  0  0  0  0  0  0  0
   17.6970  -23.1040 -103.6910 C   0  0  0  0  0  0  0  0  0  0  0  0
   17.2740  -23.1450 -104.8700 C   0  0  0  0  0  0  0  0  0  0  0  0
   17.3940  -24.3700 -105.5870 C   0  0  0  0  0  0  0  0  0  0  0  0
   18.0120  -25.5810 -104.9650 C   0  0  0  0  0  0  0  0  0  0  0  0
   19.6760  -27.7110  -99.6580 C   0  0  2  0  0  0  0  0  0  0  0  0
   20.0270  -26.1450  -99.5180 C   0  0  2  0  0  0  0  0  0  0  0  0
   18.8220  -25.2840  -99.6530 O   0  0  0  0  0  0  0  0  0  0  0  0
   17.8190  -25.2730  -98.7120 C   0  0  0  0  0  0  0  0  0  0  0  0
   17.7970  -25.9310  -97.7150 O   0  0  0  0  0  0  0  0  0  0  0  0
   16.7510  -24.2880  -99.1340 C   0  0  0  0  0  0  0  0  0  0  0  0
   21.0070  -25.4800 -100.5180 C   0  0  0  0  0  0  0  0  0  0  0  0
   21.9020  -25.0420  -99.4690 O   0  0  0  0  0  0  0  0  0  0  0  0
   21.0480  -25.6280  -98.4640 C   0  0  2  0  0  0  0  0  0  0  0  0
   21.8060  -26.6780  -97.5850 C   0  0  0  0  0  0  0  0  0  0  0  0
   21.2020  -28.0750  -97.6290 C   0  0  2  0  0  0  0  0  0  0  0  0
   22.0070  -28.9710  -96.8200 O   0  0  0  0  0  0  0  0  0  0  0  0
   20.9870  -28.6260  -99.1200 C   0  0  2  0  0  0  0  0  0  0  0  0
   22.2930  -28.4080  -99.9410 C   0  0  0  0  0  0  0  0  0  0  0  0
   20.8360  -30.2410  -99.0930 C   0  0  0  0  0  0  0  0  0  0  0  0
   21.6940  -30.9210  -99.6320 O   0  0  0  0  0  0  0  0  0  0  0  0
   19.6440  -30.9430  -98.4290 C   0  0  2  0  0  0  0  0  0  0  0  0
   19.8210  -32.4110  -98.6150 O   0  0  0  0  0  0  0  0  0  0  0  0
   20.0760  -33.2210  -97.5260 C   0  0  0  0  0  0  0  0  0  0  0  0
   20.1720  -32.8480  -96.3980 O   0  0  0  0  0  0  0  0  0  0  0  0
   20.2240  -34.6530  -97.9600 C   0  0  0  0  0  0  0  0  0  0  0  0
   18.3290  -30.4500  -99.0380 C   0  0  0  0  0  0  0  0  0  0  0  0
   17.4220  -29.7550  -98.2420 C   0  0  0  0  0  0  0  0  0  0  0  0
   16.1870  -29.1480  -98.9750 C   0  0  1  0  0  0  0  0  0  0  0  0
   15.4630  -28.1320  -98.1960 O   0  0  0  0  0  0  0  0  0  0  0  0
   14.4290  -28.5310  -97.4690 C   0  0  0  0  0  0  0  0  0  0  0  0
   14.0040  -29.6400  -97.3570 O   0  0  0  0  0  0  0  0  0  0  0  0
   13.7810  -27.3190  -96.7500 C   0  0  2  0  0  0  0  0  0  0  0  0
   12.6600  -27.7900  -96.0250 O   0  0  0  0  0  0  0  0  0  0  0  0
   13.4080  -26.2620  -97.8190 C   0  0  1  0  0  0  0  0  0  0  0  0
   12.6140  -26.9460  -98.8340 N   0  0  0  0  0  0  0  0  0  0  0  0
   12.5480  -26.5350 -100.1220 C   0  0  0  0  0  0  0  0  0  0  0  0
   13.1360  -25.5420 -100.5390 O   0  0  0  0  0  0  0  0  0  0  0  0
   11.7230  -27.4110 -100.9970 C   0  0  0  0  0  0  0  0  0  0  0  0
   10.3640  -27.6520 -100.7960 C   0  0  0  0  0  0  0  0  0  0  0  0
    9.6350  -28.5080 -101.6630 C   0  0  0  0  0  0  0  0  0  0  0  0
   10.3010  -29.1340 -102.7530 C   0  0  0  0  0  0  0  0  0  0  0  0
   11.6500  -28.9020 -102.9600 C   0  0  0  0  0  0  0  0  0  0  0  0
   12.3770  -28.0600 -102.1120 C   0  0  0  0  0  0  0  0  0  0  0  0
   12.7080  -25.0420  -97.1840 C   0  0  0  0  0  0  0  0  0  0  0  0
   13.5080  -23.9520  -96.7980 C   0  0  0  0  0  0  0  0  0  0  0  0
   12.9270  -22.8020  -96.2020 C   0  0  0  0  0  0  0  0  0  0  0  0
   11.5380  -22.7490  -95.9990 C   0  0  0  0  0  0  0  0  0  0  0  0
   10.7460  -23.8180  -96.3780 C   0  0  0  0  0  0  0  0  0  0  0  0
   11.3210  -24.9770  -96.9760 C   0  0  0  0  0  0  0  0  0  0  0  0
   16.6050  -28.4540 -100.3290 C   0  0  0  0  0  0  0  0  0  0  0  0
   17.5740  -29.4540  -96.7570 C   0  0  0  0  0  0  0  0  0  0  0  0
   18.0430  -30.6610 -100.6050 C   0  0  0  0  0  0  0  0  0  0  0  0
   16.7630  -31.6020 -100.7720 C   0  0  0  0  0  0  0  0  0  0  0  0
   19.1050  -31.3830 -101.4630 C   0  0  0  0  0  0  0  0  0  0  0  0
   16.5990  -29.7186 -102.6668 H   0  0  0  0  0  0  0  0  0  0  0  0
   19.9429  -28.6729 -101.5566 H   0  0  0  0  0  0  0  0  0  0  0  0
   18.6465  -23.9993 -101.9210 H   0  0  0  0  0  0  0  0  0  0  0  0
   17.5820  -22.1446 -103.1652 H   0  0  0  0  0  0  0  0  0  0  0  0
   16.8220  -22.2585 -105.3388 H   0  0  0  0  0  0  0  0  0  0  0  0
   17.0238  -24.4262 -106.6213 H   0  0  0  0  0  0  0  0  0  0  0  0
   18.1163  -26.5360 -105.5009 H   0  0  0  0  0  0  0  0  0  0  0  0
   18.8224  -27.9333  -99.0007 H   0  0  0  0  0  0  0  0  0  0  0  0
   16.2795  -23.8532  -98.2403 H   0  0  0  0  0  0  0  0  0  0  0  0
   17.2074  -23.4871  -99.7342 H   0  0  0  0  0  0  0  0  0  0  0  0
   15.9896  -24.8076  -99.7342 H   0  0  0  0  0  0  0  0  0  0  0  0
   21.4687  -26.1930 -101.2169 H   0  0  0  0  0  0  0  0  0  0  0  0
   20.6159  -24.7342 -101.2257 H   0  0  0  0  0  0  0  0  0  0  0  0
   20.6251  -25.0265  -97.6458 H   0  0  0  0  0  0  0  0  0  0  0  0
   22.8456  -26.7395  -97.9392 H   0  0  0  0  0  0  0  0  0  0  0  0
   21.7328  -26.3326  -96.5432 H   0  0  0  0  0  0  0  0  0  0  0  0
   20.1889  -28.0211  -97.2038 H   0  0  0  0  0  0  0  0  0  0  0  0
   21.8423  -28.7877  -95.8612 H   0  0  0  0  0  0  0  0  0  0  0  0
   23.1394  -28.2667  -99.2528 H   0  0  0  0  0  0  0  0  0  0  0  0
   22.4787  -29.2876 -100.5749 H   0  0  0  0  0  0  0  0  0  0  0  0
   22.1830  -27.5158 -100.5749 H   0  0  0  0  0  0  0  0  0  0  0  0
   19.6029  -30.7119  -97.3543 H   0  0  0  0  0  0  0  0  0  0  0  0
   20.2909  -35.3000  -97.0729 H   0  0  0  0  0  0  0  0  0  0  0  0
   19.3513  -34.9457  -98.5623 H   0  0  0  0  0  0  0  0  0  0  0  0
   21.1381  -34.7610  -98.5623 H   0  0  0  0  0  0  0  0  0  0  0  0
   15.5279  -30.0131  -99.1403 H   0  0  0  0  0  0  0  0  0  0  0  0
   14.4656  -26.8384  -96.0357 H   0  0  0  0  0  0  0  0  0  0  0  0
   12.8394  -27.7146  -95.0543 H   0  0  0  0  0  0  0  0  0  0  0  0
   14.3018  -25.8361  -98.2983 H   0  0  0  0  0  0  0  0  0  0  0  0
   12.0783  -27.7811  -98.5574 H   0  0  0  0  0  0  0  0  0  0  0  0
    9.8484  -27.1709  -99.9518 H   0  0  0  0  0  0  0  0  0  0  0  0
    8.5629  -28.6858 -101.4930 H   0  0  0  0  0  0  0  0  0  0  0  0
    9.7457  -29.8005 -103.4294 H   0  0  0  0  0  0  0  0  0  0  0  0
   12.1587  -29.3880 -103.8056 H   0  0  0  0  0  0  0  0  0  0  0  0
   13.4487  -27.8910 -102.2935 H   0  0  0  0  0  0  0  0  0  0  0  0
   14.5954  -23.9908  -96.9595 H   0  0  0  0  0  0  0  0  0  0  0  0
   13.5619  -21.9559  -95.9004 H   0  0  0  0  0  0  0  0  0  0  0  0
   11.0813  -21.8598  -95.5399 H   0  0  0  0  0  0  0  0  0  0  0  0
    9.6589  -23.7730  -96.2158 H   0  0  0  0  0  0  0  0  0  0  0  0
   10.6792  -25.8191  -97.2741 H   0  0  0  0  0  0  0  0  0  0  0  0
   16.9125  -27.4254 -100.0895 H   0  0  0  0  0  0  0  0  0  0  0  0
   15.7181  -28.5455 -100.9733 H   0  0  0  0  0  0  0  0  0  0  0  0
   17.1547  -30.2843  -96.1698 H   0  0  0  0  0  0  0  0  0  0  0  0
   18.6403  -29.3350  -96.5143 H   0  0  0  0  0  0  0  0  0  0  0  0
   17.0368  -28.5253  -96.5143 H   0  0  0  0  0  0  0  0  0  0  0  0
   16.3818  -31.8822  -99.7789 H   0  0  0  0  0  0  0  0  0  0  0  0
   15.9809  -31.0622 -101.3260 H   0  0  0  0  0  0  0  0  0  0  0  0
   17.0449  -32.5095 -101.3260 H   0  0  0  0  0  0  0  0  0  0  0  0
   19.8336  -31.8783 -100.8044 H   0  0  0  0  0  0  0  0  0  0  0  0
   18.6139  -32.1352 -102.0979 H   0  0  0  0  0  0  0  0  0  0  0  0
   19.6239  -30.6497 -102.0979 H   0  0  0  0  0  0  0  0  0  0  0  0
  2  1  1  6
  2  3  1  0
  3  4  1  0
  4  5  1  0
  5  6  2  0
  5  7  1  0
  7  8  2  0
  8  9  1  0
  9 10  2  0
 10 11  1  0
  7 12  1  0
 11 12  2  0
  3 13  1  0
 13 14  1  0
 14 15  1  1
 15 16  1  0
 16 17  2  0
 16 18  1  0
 14 19  1  0
 19 20  1  0
 14 21  1  0
 20 21  1  0
 21 22  1  0
 22 23  1  0
 23 24  1  0
 13 25  1  0
 23 25  1  0
 25 26  1  6
 25 27  1  0
 27 28  2  0
 27 29  1  0
 29 30  1  0
 30 31  1  0
 31 32  2  0
 31 33  1  0
 29 34  1  0
 34 35  2  0
 35 36  1  0
 36 37  1  0
 37 38  1  0
 38 39  2  0
 38 40  1  0
 40 41  1  0
 40 42  1  0
 42 43  1  0
 43 44  1  0
 44 45  2  0
 44 46  1  0
 46 47  2  0
 47 48  1  0
 48 49  2  0
 49 50  1  0
 46 51  1  0
 50 51  2  0
 42 52  1  0
 52 53  2  0
 53 54  1  0
 54 55  2  0
 55 56  1  0
 52 57  1  0
 56 57  2  0
  2 58  1  0
 36 58  1  0
 35 59  1  0
  2 60  1  0
 34 60  1  0
 60 61  1  0
 60 62  1  0
  1 63  1  0
  3 64  1  6
  8 65  1  0
  9 66  1  0
 10 67  1  0
 11 68  1  0
 12 69  1  0
 13 70  1  1
 18 71  1  0
 18 72  1  0
 18 73  1  0
 19 74  1  0
 19 75  1  0
 21 76  1  1
 22 77  1  0
 22 78  1  0
 23 79  1  1
 24 80  1  0
 26 81  1  0
 26 82  1  0
 26 83  1  0
 29 84  1  1
 33 85  1  0
 33 86  1  0
 33 87  1  0
 36 88  1  6
 40 89  1  1
 41 90  1  0
 42 91  1  6
 43 92  1  0
 47 93  1  0
 48 94  1  0
 49 95  1  0
 50 96  1  0
 51 97  1  0
 53 98  1  0
 54 99  1  0
 55100  1  0
 56101  1  0
 57102  1  0
 58103  1  0
 58104  1  0
 59105  1  0
 59106  1  0
 59107  1  0
 61108  1  0
 61109  1  0
 61110  1  0
 62111  1  0
 62112  1  0
 62113  1  0
M  END
$$$$
