PDB_DB00551_98
     RDKit          3D

 10  9  0  0  0  0  0  0  0  0999 V2000
   28.7920   70.4290   75.7530 C   0  0  0  0  0  0  0  0  0  0  0  0
   29.3160   71.3430   74.6690 C   0  0  0  0  0  0  0  0  0  0  0  0
   30.0940   70.8880   73.8170 O   0  0  0  0  0  0  0  0  0  0  0  0
   28.9430   72.6160   74.6960 N   0  0  0  0  0  0  0  0  0  0  0  0
   29.3460   73.3980   73.6140 O   0  0  0  0  0  0  0  0  0  0  0  0
   29.0348   70.8525   76.7388 H   0  0  0  0  0  0  0  0  0  0  0  0
   27.7008   70.3314   75.6545 H   0  0  0  0  0  0  0  0  0  0  0  0
   29.2591   69.4380   75.6545 H   0  0  0  0  0  0  0  0  0  0  0  0
   28.3876   73.0044   75.4717 H   0  0  0  0  0  0  0  0  0  0  0  0
   29.7731   74.2268   73.9468 H   0  0  0  0  0  0  0  0  0  0  0  0
  1  2  1  0
  2  3  2  0
  2  4  1  0
  5  4  1  0
  1  6  1  0
  1  7  1  0
  1  8  1  0
  4  9  1  0
  5 10  1  0
M  END
>  <PDBID>  (1) 
4UBP

>  <PDB ID>  (1) 
4UBP

>  <Generic Name>  (1) 
Acetohydroxamic Acid

>  <Brand Name>  (1) 
Lithostat

>  <DrugBank ID>  (1) 
DB00551

>  <ATC Codes>  (1) 
G04BX03

>  <Ligand ID>  (1) 
HAE

>  <Target Name>  (1) 
Urease subunit alpha

>  <UniProt ID>  (1) 
P18314

>  <PDB ID.1>  (1) 
4UBP

>  <Seq. Identity>  (1) 
61%

$$$$
