PDB_DB08895_98
     RDKit          3D

 43 45  0  0  0  0  0  0  0  0999 V2000
  -22.8160   54.0240  -12.5550 C   0  0  1  0  0  0  0  0  0  0  0  0
  -22.4030   53.3850  -13.8510 C   0  0  0  0  0  0  0  0  0  0  0  0
  -24.4130   51.8140  -13.5880 C   0  0  0  0  0  0  0  0  0  0  0  0
  -24.7600   52.5080  -12.2690 C   0  0  0  0  0  0  0  0  0  0  0  0
  -23.4860   52.9800  -11.6130 C   0  0  1  0  0  0  0  0  0  0  0  0
  -23.5610   52.6810  -14.4010 N   0  0  0  0  0  0  0  0  0  0  0  0
  -22.9470   53.5950  -16.2670 O   0  0  0  0  0  0  0  0  0  0  0  0
  -23.7400   52.8640  -15.6890 C   0  0  0  0  0  0  0  0  0  0  0  0
  -24.8650   52.2280  -16.4000 C   0  0  0  0  0  0  0  0  0  0  0  0
  -25.0660   52.5810  -17.6310 C   0  0  0  0  0  0  0  0  0  0  0  0
  -25.5520   53.2850  -18.4830 N   0  0  0  0  0  0  0  0  0  0  0  0
  -22.6950   51.7180  -11.2160 C   0  0  0  0  0  0  0  0  0  0  0  0
  -21.6060   54.5760  -11.9100 N   0  0  0  0  0  0  0  0  0  0  0  0
  -20.2450   54.0310  -12.1760 C   0  0  0  0  0  0  0  0  0  0  0  0
  -21.6820   55.6640  -11.0470 C   0  0  0  0  0  0  0  0  0  0  0  0
  -22.8920   56.2750  -10.6740 C   0  0  0  0  0  0  0  0  0  0  0  0
  -24.2680   56.0660  -11.0160 C   0  0  0  0  0  0  0  0  0  0  0  0
  -24.9380   57.0380  -10.2810 C   0  0  0  0  0  0  0  0  0  0  0  0
  -24.0800   57.7980   -9.5370 N   0  0  0  0  0  0  0  0  0  0  0  0
  -22.8240   57.3820   -9.7170 C   0  0  0  0  0  0  0  0  0  0  0  0
  -21.6420   57.7580   -9.2360 N   0  0  0  0  0  0  0  0  0  0  0  0
  -20.5250   57.1470   -9.6410 C   0  0  0  0  0  0  0  0  0  0  0  0
  -20.5270   56.1340  -10.4920 N   0  0  0  0  0  0  0  0  0  0  0  0
  -23.5481   54.8209  -12.7523 H   0  0  0  0  0  0  0  0  0  0  0  0
  -22.0670   54.1584  -14.5574 H   0  0  0  0  0  0  0  0  0  0  0  0
  -21.5749   52.6811  -13.6814 H   0  0  0  0  0  0  0  0  0  0  0  0
  -23.8806   50.8750  -13.3764 H   0  0  0  0  0  0  0  0  0  0  0  0
  -25.3411   51.6010  -14.1387 H   0  0  0  0  0  0  0  0  0  0  0  0
  -25.4144   53.3698  -12.4666 H   0  0  0  0  0  0  0  0  0  0  0  0
  -25.2818   51.8038  -11.6043 H   0  0  0  0  0  0  0  0  0  0  0  0
  -23.6051   53.5356  -10.6711 H   0  0  0  0  0  0  0  0  0  0  0  0
  -24.6893   51.1421  -16.3921 H   0  0  0  0  0  0  0  0  0  0  0  0
  -25.7641   52.5604  -15.8605 H   0  0  0  0  0  0  0  0  0  0  0  0
  -22.6487   51.6441  -10.1195 H   0  0  0  0  0  0  0  0  0  0  0  0
  -23.1969   50.8276  -11.6226 H   0  0  0  0  0  0  0  0  0  0  0  0
  -21.6749   51.7816  -11.6226 H   0  0  0  0  0  0  0  0  0  0  0  0
  -19.7382   53.8281  -11.2210 H   0  0  0  0  0  0  0  0  0  0  0  0
  -20.3299   53.0975  -12.7517 H   0  0  0  0  0  0  0  0  0  0  0  0
  -19.6621   54.7651  -12.7517 H   0  0  0  0  0  0  0  0  0  0  0  0
  -24.6932   55.3150  -11.6980 H   0  0  0  0  0  0  0  0  0  0  0  0
  -26.0289   57.1784  -10.2967 H   0  0  0  0  0  0  0  0  0  0  0  0
  -24.3612   58.5782   -8.9262 H   0  0  0  0  0  0  0  0  0  0  0  0
  -19.5604   57.5021   -9.2493 H   0  0  0  0  0  0  0  0  0  0  0  0
  1  2  1  0
  3  4  1  0
  1  5  1  0
  4  5  1  0
  2  6  1  0
  3  6  1  0
  6  8  1  0
  7  8  2  0
  8  9  1  0
  9 10  1  0
 10 11  3  0
  5 12  1  0
  1 13  1  0
 13 14  1  0
 13 15  1  0
 15 16  2  0
 16 17  1  0
 17 18  2  0
 18 19  1  0
 16 20  1  0
 19 20  1  0
 20 21  2  0
 21 22  1  0
 15 23  1  0
 22 23  2  0
  1 24  1  6
  2 25  1  0
  2 26  1  0
  3 27  1  0
  3 28  1  0
  4 29  1  0
  4 30  1  0
  5 31  1  1
  9 32  1  0
  9 33  1  0
 12 34  1  0
 12 35  1  0
 12 36  1  0
 14 37  1  0
 14 38  1  0
 14 39  1  0
 17 40  1  0
 18 41  1  0
 19 42  1  0
 22 43  1  0
M  END
$$$$
