PDB_DB00624_99
     RDKit          3D

 49 52  0  0  0  0  0  0  0  0999 V2000
   26.9610    5.2750    4.7480 C   0  0  0  0  0  0  0  0  0  0  0  0
   26.0870    6.5150    5.0500 C   0  0  0  0  0  0  0  0  0  0  0  0
   24.7140    6.3800    4.4550 C   0  0  0  0  0  0  0  0  0  0  0  0
   24.0440    7.4060    3.9390 O   0  0  0  0  0  0  0  0  0  0  0  0
   24.1250    5.0470    4.4570 C   0  0  0  0  0  0  0  0  0  0  0  0
   24.8080    3.9090    4.8030 C   0  0  0  0  0  0  0  0  0  0  0  0
   24.0890    2.5690    4.7900 C   0  0  0  0  0  0  0  0  0  0  0  0
   24.8770    1.4740    4.0590 C   0  0  0  0  0  0  0  0  0  0  0  0
   26.3060    1.3630    4.6670 C   0  0  2  0  0  0  0  0  0  0  0  0
   27.0680    2.7200    4.5650 C   0  0  1  0  0  0  0  0  0  0  0  0
   26.3230    3.9250    5.2440 C   0  0  1  0  0  0  0  0  0  0  0  0
   28.5550    2.7000    5.0980 C   0  0  0  0  0  0  0  0  0  0  0  0
   29.3370    1.5340    4.4490 C   0  0  0  0  0  0  0  0  0  0  0  0
   28.6170    0.1640    4.6020 C   0  0  1  0  0  0  0  0  0  0  0  0
   27.1900    0.2970    3.9730 C   0  0  1  0  0  0  0  0  0  0  0  0
   26.6680   -1.1630    3.8940 C   0  0  0  0  0  0  0  0  0  0  0  0
   27.9500   -1.9990    3.6690 C   0  0  0  0  0  0  0  0  0  0  0  0
   29.1270   -0.9850    3.6840 C   0  0  2  0  0  0  0  0  0  0  0  0
   30.3270   -1.5900    4.2060 O   0  0  0  0  0  0  0  0  0  0  0  0
   28.5870   -0.2730    6.1200 C   0  0  0  0  0  0  0  0  0  0  0  0
   26.3440    3.8460    6.7980 C   0  0  0  0  0  0  0  0  0  0  0  0
   27.1111    5.2108    3.6602 H   0  0  0  0  0  0  0  0  0  0  0  0
   27.9084    5.4054    5.2915 H   0  0  0  0  0  0  0  0  0  0  0  0
   25.9943    6.6299    6.1400 H   0  0  0  0  0  0  0  0  0  0  0  0
   26.5715    7.3955    4.6028 H   0  0  0  0  0  0  0  0  0  0  0  0
   23.0696    4.9476    4.1635 H   0  0  0  0  0  0  0  0  0  0  0  0
   23.9253    2.2487    5.8295 H   0  0  0  0  0  0  0  0  0  0  0  0
   23.1410    2.7090    4.2499 H   0  0  0  0  0  0  0  0  0  0  0  0
   24.3560    0.5117    4.1709 H   0  0  0  0  0  0  0  0  0  0  0  0
   24.9534    1.7301    2.9920 H   0  0  0  0  0  0  0  0  0  0  0  0
   26.1421    1.0696    5.7144 H   0  0  0  0  0  0  0  0  0  0  0  0
   27.0961    2.8709    3.4758 H   0  0  0  0  0  0  0  0  0  0  0  0
   29.0449    3.6519    4.8451 H   0  0  0  0  0  0  0  0  0  0  0  0
   28.5443    2.5627    6.1894 H   0  0  0  0  0  0  0  0  0  0  0  0
   29.4607    1.7478    3.3771 H   0  0  0  0  0  0  0  0  0  0  0  0
   30.3053    1.4578    4.9653 H   0  0  0  0  0  0  0  0  0  0  0  0
   27.1839    0.7247    2.9596 H   0  0  0  0  0  0  0  0  0  0  0  0
   26.1701   -1.4528    4.8311 H   0  0  0  0  0  0  0  0  0  0  0  0
   25.9208   -1.3062    3.0996 H   0  0  0  0  0  0  0  0  0  0  0  0
   28.0713   -2.7381    4.4747 H   0  0  0  0  0  0  0  0  0  0  0  0
   27.9083   -2.5556    2.7212 H   0  0  0  0  0  0  0  0  0  0  0  0
   29.3968   -0.6285    2.6789 H   0  0  0  0  0  0  0  0  0  0  0  0
   30.2999   -1.5763    5.1955 H   0  0  0  0  0  0  0  0  0  0  0  0
   28.6483    0.6197    6.7598 H   0  0  0  0  0  0  0  0  0  0  0  0
   27.6499   -0.8100    6.3285 H   0  0  0  0  0  0  0  0  0  0  0  0
   29.4420   -0.9330    6.3285 H   0  0  0  0  0  0  0  0  0  0  0  0
   26.0829    4.8283    7.2186 H   0  0  0  0  0  0  0  0  0  0  0  0
   25.6140    3.0962    7.1369 H   0  0  0  0  0  0  0  0  0  0  0  0
   27.3500    3.5577    7.1369 H   0  0  0  0  0  0  0  0  0  0  0  0
  1  2  1  0
  2  3  1  0
  3  4  2  0
  3  5  1  0
  5  6  2  0
  6  7  1  0
  7  8  1  0
  8  9  1  0
  9 10  1  0
  1 11  1  0
  6 11  1  0
 10 11  1  0
 10 12  1  0
 12 13  1  0
 13 14  1  0
  9 15  1  0
 14 15  1  0
 15 16  1  0
 16 17  1  0
 14 18  1  0
 17 18  1  0
 18 19  1  0
 14 20  1  1
 11 21  1  1
  1 22  1  0
  1 23  1  0
  2 24  1  0
  2 25  1  0
  5 26  1  0
  7 27  1  0
  7 28  1  0
  8 29  1  0
  8 30  1  0
  9 31  1  1
 10 32  1  6
 12 33  1  0
 12 34  1  0
 13 35  1  0
 13 36  1  0
 15 37  1  6
 16 38  1  0
 16 39  1  0
 17 40  1  0
 17 41  1  0
 18 42  1  6
 19 43  1  0
 20 44  1  0
 20 45  1  0
 20 46  1  0
 21 47  1  0
 21 48  1  0
 21 49  1  0
M  END
>  <PDBID>  (1) 
2AM9

>  <PDB ID>  (1) 
2AM9

>  <Generic Name>  (1) 
Testosterone

>  <Brand Name>  (1) 
Andriol#Androderm#Androgel#Aveed#Axiron#Delatestryl#Depo-testosterone#Depo-testosterone Inj 100mg/ml#Fortesta#Malogen Aqueous 100 Sus 100mg/ml#Malogex La200 Liq 200mg/ml#Natesto#Neo Pause Injection#PMS-testosterone#PMS-testosterone Enanthate Inj 200mg/ml USP#Scheinpharm Testone-cyp Inject.- Im 100mg/ml#Striant#Taro-testosterone#Testim#Testim 1%#Testopel#Testosterone#Testosterone Cypionate#Testosterone Cypionate Injection USP#Testosterone Cypionate Injection, USP#Testosterone Enanthate#Testosterone Enanthate Inj 200mg/ml#Vogelxo#Andronate 100#Andronate 200#Andropatch#Andropository 200#Andryl 200#Bio-T-Gel#Fortigel#Intrinsa#Livensa#Nebido#Sustanon#Testamone 100#Testaqua IM#Testoderm#Testoderm TTS#Testogel#Testolin#Testopatch#Testopel Pellets#Testrin-P.A#Testro AQ#Tostrelle#Tostrex#Virormone

>  <DrugBank ID>  (1) 
DB00624

>  <ATC Codes>  (1) 
G03EA02#G03BA03

>  <Ligand ID>  (1) 
TES

>  <Target Name>  (1) 
Androgen receptor

>  <UniProt ID>  (1) 
P10275

>  <PDB ID.1>  (1) 
2AM9

>  <Seq. Identity>  (1) 
100%

$$$$
