PDB_DB00367_99
     RDKit          3D

 51 54  0  0  0  0  0  0  0  0999 V2000
   -4.8860   -8.5980   28.5720 C   0  0  0  0  0  0  0  0  0  0  0  0
   -4.9260   -8.9990   30.0690 C   0  0  0  0  0  0  0  0  0  0  0  0
   -4.0160  -10.3760   30.2770 C   0  0  0  0  0  0  0  0  0  0  0  0
   -2.7840  -10.6380   29.5590 C   0  0  0  0  0  0  0  0  0  0  0  0
   -2.4500   -9.7140   28.5190 C   0  0  0  0  0  0  0  0  0  0  0  0
   -1.0260   -9.9850   27.8390 C   0  0  0  0  0  0  0  0  0  0  0  0
   -0.8420   -9.7060   26.3640 C   0  0  0  0  0  0  0  0  0  0  0  0
   -1.6680   -8.4450   25.8010 C   0  0  2  0  0  0  0  0  0  0  0  0
   -3.2140   -8.2700   26.4670 C   0  0  1  0  0  0  0  0  0  0  0  0
   -3.3630   -8.5230   27.9640 C   0  0  1  0  0  0  0  0  0  0  0  0
   -4.1750   -7.2030   25.8290 C   0  0  0  0  0  0  0  0  0  0  0  0
   -3.9600   -6.9480   24.3700 C   0  0  0  0  0  0  0  0  0  0  0  0
   -2.3660   -6.8230   23.7430 C   0  0  1  0  0  0  0  0  0  0  0  0
   -1.5160   -8.1230   24.2630 C   0  0  1  0  0  0  0  0  0  0  0  0
   -0.2280   -8.2240   23.3660 C   0  0  0  0  0  0  0  0  0  0  0  0
   -0.5750   -7.4420   22.0260 C   0  0  0  0  0  0  0  0  0  0  0  0
   -2.1420   -6.9290   22.1320 C   0  0  1  0  0  0  0  0  0  0  0  0
   -1.6770   -5.4790   24.3900 C   0  0  0  0  0  0  0  0  0  0  0  0
   -2.5540   -4.1300   24.2380 C   0  0  0  0  0  0  0  0  0  0  0  0
   -3.2530   -7.8930   21.5730 C   0  0  0  0  0  0  0  0  0  0  0  0
   -4.3420   -8.8920   21.1950 C   0  0  0  0  0  0  0  0  0  0  0  0
   -4.2840  -11.2270   31.1220 O   0  0  0  0  0  0  0  0  0  0  0  0
   -2.3750   -5.8520   21.4050 O   0  0  0  0  0  0  0  0  0  0  0  0
   -5.4565   -9.3411   27.9955 H   0  0  0  0  0  0  0  0  0  0  0  0
   -5.3205   -7.5907   28.4913 H   0  0  0  0  0  0  0  0  0  0  0  0
   -4.5109   -8.1850   30.6814 H   0  0  0  0  0  0  0  0  0  0  0  0
   -5.9647   -9.1858   30.3793 H   0  0  0  0  0  0  0  0  0  0  0  0
   -2.1425  -11.4984   29.8002 H   0  0  0  0  0  0  0  0  0  0  0  0
   -0.2917   -9.3666   28.3760 H   0  0  0  0  0  0  0  0  0  0  0  0
   -0.9067  -11.0760   27.9133 H   0  0  0  0  0  0  0  0  0  0  0  0
    0.2272   -9.5218   26.1825 H   0  0  0  0  0  0  0  0  0  0  0  0
   -1.2299  -10.5884   25.8340 H   0  0  0  0  0  0  0  0  0  0  0  0
   -1.1203   -7.5866   26.2171 H   0  0  0  0  0  0  0  0  0  0  0  0
   -3.6700   -9.1851   26.0611 H   0  0  0  0  0  0  0  0  0  0  0  0
   -2.9697   -7.5769   28.3642 H   0  0  0  0  0  0  0  0  0  0  0  0
   -5.2095   -7.5511   25.9654 H   0  0  0  0  0  0  0  0  0  0  0  0
   -3.9618   -6.2531   26.3411 H   0  0  0  0  0  0  0  0  0  0  0  0
   -4.4499   -7.7708   23.8288 H   0  0  0  0  0  0  0  0  0  0  0  0
   -4.3660   -5.9354   24.2290 H   0  0  0  0  0  0  0  0  0  0  0  0
   -1.9090   -9.1368   24.0962 H   0  0  0  0  0  0  0  0  0  0  0  0
    0.6295   -7.7563   23.8720 H   0  0  0  0  0  0  0  0  0  0  0  0
    0.0467   -9.2702   23.1661 H   0  0  0  0  0  0  0  0  0  0  0  0
    0.0951   -6.5770   21.9133 H   0  0  0  0  0  0  0  0  0  0  0  0
   -0.4438   -8.0984   21.1531 H   0  0  0  0  0  0  0  0  0  0  0  0
   -1.5117   -5.6611   25.4622 H   0  0  0  0  0  0  0  0  0  0  0  0
   -0.7451   -5.3081   23.8311 H   0  0  0  0  0  0  0  0  0  0  0  0
   -2.8061   -3.7422   25.2360 H   0  0  0  0  0  0  0  0  0  0  0  0
   -1.9734   -3.3753   23.6873 H   0  0  0  0  0  0  0  0  0  0  0  0
   -3.4794   -4.3544   23.6873 H   0  0  0  0  0  0  0  0  0  0  0  0
   -5.1273   -9.6124   20.9224 H   0  0  0  0  0  0  0  0  0  0  0  0
   -2.5419   -5.0804   22.0024 H   0  0  0  0  0  0  0  0  0  0  0  0
  1  2  1  0
  2  3  1  0
  3  4  1  0
  4  5  2  0
  5  6  1  0
  6  7  1  0
  7  8  1  0
  8  9  1  0
  1 10  1  0
  5 10  1  0
  9 10  1  0
  9 11  1  0
 11 12  1  0
 12 13  1  0
  8 14  1  0
 13 14  1  0
 14 15  1  0
 15 16  1  0
 13 17  1  0
 16 17  1  0
 13 18  1  1
 18 19  1  0
 17 20  1  6
 20 21  3  0
  3 22  2  0
 17 23  1  0
  1 24  1  0
  1 25  1  0
  2 26  1  0
  2 27  1  0
  4 28  1  0
  6 29  1  0
  6 30  1  0
  7 31  1  0
  7 32  1  0
  8 33  1  1
  9 34  1  6
 10 35  1  1
 11 36  1  0
 11 37  1  0
 12 38  1  0
 12 39  1  0
 14 40  1  6
 15 41  1  0
 15 42  1  0
 16 43  1  0
 16 44  1  0
 18 45  1  0
 18 46  1  0
 19 47  1  0
 19 48  1  0
 19 49  1  0
 21 50  1  0
 23 51  1  0
M  END
$$$$
