PDB_DB08877_99
     RDKit          3D

114120  0  0  0  0  0  0  0  0999 V2000
   -9.9220   26.9370    7.9160 C   0  0  0  0  0  0  0  0  0  0  0  0
  -10.2330   28.5000    7.8030 C   0  0  0  0  0  0  0  0  0  0  0  0
  -11.2460   28.6150    6.9090 C   0  0  0  0  0  0  0  0  0  0  0  0
  -11.9880   27.1340    6.7970 C   0  0  0  0  0  0  0  0  0  0  0  0
  -11.0620   26.1780    7.1160 C   0  0  1  0  0  0  0  0  0  0  0  0
  -10.4760   25.4700    5.8710 C   0  0  1  0  0  0  0  0  0  0  0  0
  -11.5650   24.6940    5.1580 C   0  0  0  0  0  0  0  0  0  0  0  0
  -11.4280   23.2100    5.4960 C   0  0  0  0  0  0  0  0  0  0  0  0
  -12.5950   22.7910    6.1840 N   0  0  0  0  0  0  0  0  0  0  0  0
   -9.8050   26.3380    4.9580 N   0  0  0  0  0  0  0  0  0  0  0  0
   -8.4850   26.5440    4.9920 C   0  0  0  0  0  0  0  0  0  0  0  0
  -10.3460   27.0060    3.9620 N   0  0  0  0  0  0  0  0  0  0  0  0
   -9.4100   27.7040    3.3000 C   0  0  0  0  0  0  0  0  0  0  0  0
   -8.1570   27.4300    3.9270 C   0  0  0  0  0  0  0  0  0  0  0  0
   -6.7910   27.9610    3.6250 C   0  0  0  0  0  0  0  0  0  0  0  0
   -6.6240   29.0140    2.8050 N   0  0  0  0  0  0  0  0  0  0  0  0
   -5.4140   29.5000    2.5700 C   0  0  0  0  0  0  0  0  0  0  0  0
   -4.3250   28.9760    3.1280 N   0  0  0  0  0  0  0  0  0  0  0  0
   -4.4000   27.8950    3.9890 C   0  0  0  0  0  0  0  0  0  0  0  0
   -5.6420   27.3540    4.2710 C   0  0  0  0  0  0  0  0  0  0  0  0
   -5.4050   26.2520    5.1970 C   0  0  0  0  0  0  0  0  0  0  0  0
   -4.0180   26.2290    5.3960 C   0  0  0  0  0  0  0  0  0  0  0  0
   -3.4550   27.1960    4.6820 N   0  0  0  0  0  0  0  0  0  0  0  0
   -4.9310   57.5950   39.0090 C   0  0  0  0  0  0  0  0  0  0  0  0
   -5.8510   58.1690   37.8310 C   0  0  0  0  0  0  0  0  0  0  0  0
   -6.2780   59.4080   38.2280 C   0  0  0  0  0  0  0  0  0  0  0  0
   -5.2870   59.9020   39.4640 C   0  0  0  0  0  0  0  0  0  0  0  0
   -4.8190   58.7660   40.0860 C   0  0  1  0  0  0  0  0  0  0  0  0
   -5.5770   58.4410   41.4050 C   0  0  1  0  0  0  0  0  0  0  0  0
   -5.2750   59.5250   42.4400 C   0  0  0  0  0  0  0  0  0  0  0  0
   -4.2870   59.0560   43.5160 C   0  0  0  0  0  0  0  0  0  0  0  0
   -3.5970   57.9010   43.0650 N   0  0  0  0  0  0  0  0  0  0  0  0
   -6.9830   58.3310   41.2230 N   0  0  0  0  0  0  0  0  0  0  0  0
   -7.8800   59.2120   41.6770 C   0  0  0  0  0  0  0  0  0  0  0  0
   -7.5800   57.3530   40.6000 N   0  0  0  0  0  0  0  0  0  0  0  0
   -8.9030   57.5310   40.5920 C   0  0  0  0  0  0  0  0  0  0  0  0
   -9.1710   58.7310   41.2960 C   0  0  0  0  0  0  0  0  0  0  0  0
  -10.5050   59.3690   41.5270 C   0  0  1  0  0  0  0  0  0  0  0  0
  -10.6440   60.4800   42.2820 N   0  0  0  0  0  0  0  0  0  0  0  0
  -11.8320   61.0530   42.4530 C   0  0  0  0  0  0  0  0  0  0  0  0
  -12.9300   60.5670   41.8800 N   0  0  0  0  0  0  0  0  0  0  0  0
  -12.8790   59.4400   41.0790 C   0  0  0  0  0  0  0  0  0  0  0  0
  -11.6670   58.8100   40.8680 C   0  0  0  0  0  0  0  0  0  0  0  0
  -11.9320   57.6850   39.9880 C   0  0  0  0  0  0  0  0  0  0  0  0
  -13.3020   57.7300   39.7340 C   0  0  0  0  0  0  0  0  0  0  0  0
  -13.8340   58.7580   40.3850 N   0  0  0  0  0  0  0  0  0  0  0  0
   -8.9391   26.7146    7.4751 H   0  0  0  0  0  0  0  0  0  0  0  0
   -9.9006   26.6162    8.9680 H   0  0  0  0  0  0  0  0  0  0  0  0
  -10.5386   28.9007    8.7808 H   0  0  0  0  0  0  0  0  0  0  0  0
   -9.3458   29.0655    7.4821 H   0  0  0  0  0  0  0  0  0  0  0  0
  -11.9670   29.3705    7.2544 H   0  0  0  0  0  0  0  0  0  0  0  0
  -10.8611   28.9292    5.9276 H   0  0  0  0  0  0  0  0  0  0  0  0
  -12.8337   27.0849    7.4987 H   0  0  0  0  0  0  0  0  0  0  0  0
  -12.3727   26.9725    5.7792 H   0  0  0  0  0  0  0  0  0  0  0  0
  -11.5298   25.3781    7.7088 H   0  0  0  0  0  0  0  0  0  0  0  0
   -9.7014   24.7863    6.2485 H   0  0  0  0  0  0  0  0  0  0  0  0
  -12.5503   25.0567    5.4862 H   0  0  0  0  0  0  0  0  0  0  0  0
  -11.4690   24.8360    4.0714 H   0  0  0  0  0  0  0  0  0  0  0  0
  -11.3156   22.6281    4.5693 H   0  0  0  0  0  0  0  0  0  0  0  0
  -10.5422   23.0497    6.1282 H   0  0  0  0  0  0  0  0  0  0  0  0
  -12.4341   22.8488    7.1997 H   0  0  0  0  0  0  0  0  0  0  0  0
  -13.3835   23.4015    5.9260 H   0  0  0  0  0  0  0  0  0  0  0  0
   -8.2009   26.9941    5.9546 H   0  0  0  0  0  0  0  0  0  0  0  0
   -7.9439   25.5926    4.8818 H   0  0  0  0  0  0  0  0  0  0  0  0
  -10.7958   26.3434    3.3143 H   0  0  0  0  0  0  0  0  0  0  0  0
   -9.3807   27.3900    2.2462 H   0  0  0  0  0  0  0  0  0  0  0  0
   -9.6334   28.7807    3.3277 H   0  0  0  0  0  0  0  0  0  0  0  0
   -8.0098   26.5701    3.2570 H   0  0  0  0  0  0  0  0  0  0  0  0
   -6.7162   27.2794    2.7649 H   0  0  0  0  0  0  0  0  0  0  0  0
   -7.0146   28.7413    1.8918 H   0  0  0  0  0  0  0  0  0  0  0  0
   -5.2630   29.4388    1.4821 H   0  0  0  0  0  0  0  0  0  0  0  0
   -5.4652   30.4903    3.0462 H   0  0  0  0  0  0  0  0  0  0  0  0
   -3.7119   28.6872    2.3524 H   0  0  0  0  0  0  0  0  0  0  0  0
   -4.5054   28.5816    4.8419 H   0  0  0  0  0  0  0  0  0  0  0  0
   -5.5322   26.6606    3.4242 H   0  0  0  0  0  0  0  0  0  0  0  0
   -5.9280   26.4288    6.1484 H   0  0  0  0  0  0  0  0  0  0  0  0
   -5.7788   25.2960    4.8016 H   0  0  0  0  0  0  0  0  0  0  0  0
   -3.7974   26.3840    6.4625 H   0  0  0  0  0  0  0  0  0  0  0  0
   -3.6168   25.2555    5.0778 H   0  0  0  0  0  0  0  0  0  0  0  0
   -2.7865   26.7806    4.0176 H   0  0  0  0  0  0  0  0  0  0  0  0
   -5.3957   56.7050   39.4584 H   0  0  0  0  0  0  0  0  0  0  0  0
   -3.9410   57.2921   38.6373 H   0  0  0  0  0  0  0  0  0  0  0  0
   -5.2687   58.2495   36.9012 H   0  0  0  0  0  0  0  0  0  0  0  0
   -6.7039   57.5020   37.6367 H   0  0  0  0  0  0  0  0  0  0  0  0
   -6.2125   60.1152   37.3880 H   0  0  0  0  0  0  0  0  0  0  0  0
   -7.3254   59.3693   38.5618 H   0  0  0  0  0  0  0  0  0  0  0  0
   -4.4458   60.4863   39.0627 H   0  0  0  0  0  0  0  0  0  0  0  0
   -5.8342   60.5399   40.1737 H   0  0  0  0  0  0  0  0  0  0  0  0
   -3.7768   58.9033   40.4101 H   0  0  0  0  0  0  0  0  0  0  0  0
   -5.2222   57.4600   41.7539 H   0  0  0  0  0  0  0  0  0  0  0  0
   -4.8453   60.3956   41.9229 H   0  0  0  0  0  0  0  0  0  0  0  0
   -6.2201   59.7770   42.9433 H   0  0  0  0  0  0  0  0  0  0  0  0
   -3.5621   59.8577   43.7205 H   0  0  0  0  0  0  0  0  0  0  0  0
   -4.8400   58.8127   44.4353 H   0  0  0  0  0  0  0  0  0  0  0  0
   -3.2718   57.3566   43.8766 H   0  0  0  0  0  0  0  0  0  0  0  0
   -4.2312   57.3227   42.4955 H   0  0  0  0  0  0  0  0  0  0  0  0
   -7.8136   59.2877   42.7724 H   0  0  0  0  0  0  0  0  0  0  0  0
   -7.6947   60.2115   41.2568 H   0  0  0  0  0  0  0  0  0  0  0  0
   -7.2391   57.3137   39.6289 H   0  0  0  0  0  0  0  0  0  0  0  0
   -9.2655   57.6130   39.5567 H   0  0  0  0  0  0  0  0  0  0  0  0
   -9.4134   56.6794   41.0656 H   0  0  0  0  0  0  0  0  0  0  0  0
   -9.1045   59.2976   40.3555 H   0  0  0  0  0  0  0  0  0  0  0  0
  -10.6493   58.7438   42.4205 H   0  0  0  0  0  0  0  0  0  0  0  0
  -10.2980   60.2393   43.2218 H   0  0  0  0  0  0  0  0  0  0  0  0
  -12.0224   61.0537   43.5364 H   0  0  0  0  0  0  0  0  0  0  0  0
  -11.7046   62.0164   41.9375 H   0  0  0  0  0  0  0  0  0  0  0  0
  -13.5882   60.3539   42.6431 H   0  0  0  0  0  0  0  0  0  0  0  0
  -12.7027   60.0743   40.1978 H   0  0  0  0  0  0  0  0  0  0  0  0
  -11.8508   58.1645   41.7396 H   0  0  0  0  0  0  0  0  0  0  0  0
  -11.3633   57.7860   39.0519 H   0  0  0  0  0  0  0  0  0  0  0  0
  -11.6308   56.7296   40.4425 H   0  0  0  0  0  0  0  0  0  0  0  0
  -13.4720   57.8509   38.6540 H   0  0  0  0  0  0  0  0  0  0  0  0
  -13.7714   56.7950   40.0737 H   0  0  0  0  0  0  0  0  0  0  0  0
  -14.5449   58.4090   41.0435 H   0  0  0  0  0  0  0  0  0  0  0  0
  1  2  1  0
  2  3  1  0
  3  4  1  0
  1  5  1  0
  4  5  1  0
  5  6  1  0
  6  7  1  0
  7  8  1  0
  8  9  1  0
  6 10  1  0
 10 11  1  0
 10 12  1  0
 12 13  1  0
 11 14  1  0
 13 14  1  0
 14 15  1  0
 15 16  1  0
 16 17  1  0
 17 18  1  0
 18 19  1  0
 15 20  1  0
 19 20  1  0
 20 21  1  0
 21 22  1  0
 19 23  1  0
 22 23  1  0
 24 25  1  0
 25 26  1  0
 26 27  1  0
 24 28  1  0
 27 28  1  0
 28 29  1  0
 29 30  1  0
 30 31  1  0
 31 32  1  0
 29 33  1  0
 33 34  1  0
 33 35  1  0
 35 36  1  0
 34 37  1  0
 36 37  1  0
 37 38  1  0
 38 39  1  0
 39 40  1  0
 40 41  1  0
 41 42  1  0
 38 43  1  0
 42 43  1  0
 43 44  1  0
 44 45  1  0
 42 46  1  0
 45 46  1  0
  1 47  1  0
  1 48  1  0
  2 49  1  0
  2 50  1  0
  3 51  1  0
  3 52  1  0
  4 53  1  0
  4 54  1  0
  5 55  1  1
  6 56  1  1
  7 57  1  0
  7 58  1  0
  8 59  1  0
  8 60  1  0
  9 61  1  0
  9 62  1  0
 11 63  1  0
 11 64  1  0
 12 65  1  0
 13 66  1  0
 13 67  1  0
 14 68  1  0
 15 69  1  0
 16 70  1  0
 17 71  1  0
 17 72  1  0
 18 73  1  0
 19 74  1  0
 20 75  1  0
 21 76  1  0
 21 77  1  0
 22 78  1  0
 22 79  1  0
 23 80  1  0
 24 81  1  0
 24 82  1  0
 25 83  1  0
 25 84  1  0
 26 85  1  0
 26 86  1  0
 27 87  1  0
 27 88  1  0
 28 89  1  1
 29 90  1  1
 30 91  1  0
 30 92  1  0
 31 93  1  0
 31 94  1  0
 32 95  1  0
 32 96  1  0
 34 97  1  0
 34 98  1  0
 35 99  1  0
 36100  1  0
 36101  1  0
 37102  1  0
 38103  1  1
 39104  1  0
 40105  1  0
 40106  1  0
 41107  1  0
 42108  1  0
 43109  1  0
 44110  1  0
 44111  1  0
 45112  1  0
 45113  1  0
 46114  1  0
M  END
>  <PDBID>  (1) 
4U5J

>  <PDB ID>  (1) 
4U5J

>  <Generic Name>  (1) 
Ruxolitinib

>  <Brand Name>  (1) 
Jakafi#Jakavi

>  <DrugBank ID>  (1) 
DB08877

>  <ATC Codes>  (1) 
L01XE18

>  <Ligand ID>  (1) 
RXT

>  <Target Name>  (1) 
Tyrosine-protein kinase JAK2

>  <UniProt ID>  (1) 
O60674

>  <PDB ID.1>  (1) 
4U5J

>  <Seq. Identity>  (1) 
30%

$$$$
