PDB_DB00278_98
     RDKit          3D

 71 73  0  0  0  0  0  0  0  0999 V2000
   53.5530  -34.1490   -8.5130 S   0  0  0  0  0  0  0  0  0  0  0  0
   52.5920  -35.1250   -8.9620 O   0  0  0  0  0  0  0  0  0  0  0  0
   54.7040  -34.1940   -9.3820 O   0  0  0  0  0  0  0  0  0  0  0  0
   50.6570  -35.0070   -5.2080 C   0  0  0  0  0  0  0  0  0  0  0  0
   51.1630  -34.5920   -3.8200 C   0  0  2  0  0  0  0  0  0  0  0  0
   52.4640  -35.3210   -3.4900 C   0  0  0  0  0  0  0  0  0  0  0  0
   53.4600  -35.0340   -4.5920 C   0  0  0  0  0  0  0  0  0  0  0  0
   54.8300  -35.0270   -4.3370 C   0  0  0  0  0  0  0  0  0  0  0  0
   55.7480  -34.7630   -5.3550 C   0  0  0  0  0  0  0  0  0  0  0  0
   55.3490  -34.4860   -6.6650 C   0  0  0  0  0  0  0  0  0  0  0  0
   53.9970  -34.4700   -7.0160 C   0  0  0  0  0  0  0  0  0  0  0  0
   52.9740  -34.7510   -5.9720 C   0  0  0  0  0  0  0  0  0  0  0  0
   50.1210  -34.8360   -2.7350 C   0  0  0  0  0  0  0  0  0  0  0  0
   51.6450  -34.7430   -6.2510 N   0  0  0  0  0  0  0  0  0  0  0  0
   52.9000  -32.6790   -8.5490 N   0  0  0  0  0  0  0  0  0  0  0  0
   53.6650  -31.4970   -8.1680 C   0  0  2  0  0  0  0  0  0  0  0  0
   53.4520  -31.0890   -6.7210 C   0  0  0  0  0  0  0  0  0  0  0  0
   52.3380  -31.2200   -6.2320 O   0  0  0  0  0  0  0  0  0  0  0  0
   53.3690  -30.3670   -9.1600 C   0  0  0  0  0  0  0  0  0  0  0  0
   52.0070  -29.7030   -8.9830 C   0  0  0  0  0  0  0  0  0  0  0  0
   52.1960  -28.2260   -8.6670 C   0  0  0  0  0  0  0  0  0  0  0  0
   51.0270  -27.4190   -8.9760 N   0  0  0  0  0  0  0  0  0  0  0  0
   50.3520  -26.7460   -8.0400 C   0  0  0  0  0  0  0  0  0  0  0  0
   49.0970  -26.3610   -8.2830 N   0  0  0  0  0  0  0  0  0  0  0  0
   50.8850  -26.4700   -6.9290 N   0  0  0  0  0  0  0  0  0  0  0  0
   54.4700  -30.6040   -5.9850 N   0  0  0  0  0  0  0  0  0  0  0  0
   55.8830  -30.6490   -6.4290 C   0  0  2  0  0  0  0  0  0  0  0  0
   56.6920  -31.4280   -5.3820 C   0  0  0  0  0  0  0  0  0  0  0  0
   56.4750  -30.9670   -3.9410 C   0  0  1  0  0  0  0  0  0  0  0  0
   54.9830  -30.8730   -3.6320 C   0  0  0  0  0  0  0  0  0  0  0  0
   54.2850  -29.9910   -4.6630 C   0  0  0  0  0  0  0  0  0  0  0  0
   56.5530  -29.3170   -6.6860 C   0  0  0  0  0  0  0  0  0  0  0  0
   56.2770  -28.3330   -5.9630 O   0  0  0  0  0  0  0  0  0  0  0  0
   57.3860  -29.2410   -7.6190 O   0  0  0  0  0  0  0  0  0  0  0  0
   57.1850  -31.8900   -2.9610 C   0  0  0  0  0  0  0  0  0  0  0  0
   50.4313  -36.0835   -5.1967 H   0  0  0  0  0  0  0  0  0  0  0  0
   49.7578  -34.4148   -5.4334 H   0  0  0  0  0  0  0  0  0  0  0  0
   51.3558  -33.5094   -3.8480 H   0  0  0  0  0  0  0  0  0  0  0  0
   52.8588  -34.9611   -2.5284 H   0  0  0  0  0  0  0  0  0  0  0  0
   52.2838  -36.4034   -3.4135 H   0  0  0  0  0  0  0  0  0  0  0  0
   55.1932  -35.2324   -3.3192 H   0  0  0  0  0  0  0  0  0  0  0  0
   56.8220  -34.7734   -5.1177 H   0  0  0  0  0  0  0  0  0  0  0  0
   56.1104  -34.2775   -7.4310 H   0  0  0  0  0  0  0  0  0  0  0  0
   50.5892  -34.7264   -1.7457 H   0  0  0  0  0  0  0  0  0  0  0  0
   49.3061  -34.1044   -2.8381 H   0  0  0  0  0  0  0  0  0  0  0  0
   49.7156  -35.8534   -2.8381 H   0  0  0  0  0  0  0  0  0  0  0  0
   51.3292  -34.5480   -7.2118 H   0  0  0  0  0  0  0  0  0  0  0  0
   52.5875  -32.5233   -9.5180 H   0  0  0  0  0  0  0  0  0  0  0  0
   54.7361  -31.7413   -8.2235 H   0  0  0  0  0  0  0  0  0  0  0  0
   54.1441  -29.5955   -9.0416 H   0  0  0  0  0  0  0  0  0  0  0  0
   53.3632  -30.8254  -10.1599 H   0  0  0  0  0  0  0  0  0  0  0  0
   51.4255  -29.8073   -9.9109 H   0  0  0  0  0  0  0  0  0  0  0  0
   51.4692  -30.1878   -8.1549 H   0  0  0  0  0  0  0  0  0  0  0  0
   52.4176  -28.1237   -7.5944 H   0  0  0  0  0  0  0  0  0  0  0  0
   53.0206  -27.8605   -9.2966 H   0  0  0  0  0  0  0  0  0  0  0  0
   50.7071  -27.3640   -9.9535 H   0  0  0  0  0  0  0  0  0  0  0  0
   48.5697  -25.8417   -7.5666 H   0  0  0  0  0  0  0  0  0  0  0  0
   50.3520  -25.9504   -6.2170 H   0  0  0  0  0  0  0  0  0  0  0  0
   51.8527  -26.7644   -6.7348 H   0  0  0  0  0  0  0  0  0  0  0  0
   55.8634  -31.1385   -7.4139 H   0  0  0  0  0  0  0  0  0  0  0  0
   56.4095  -32.4890   -5.4494 H   0  0  0  0  0  0  0  0  0  0  0  0
   57.7531  -31.2497   -5.6108 H   0  0  0  0  0  0  0  0  0  0  0  0
   56.9121  -29.9641   -3.8267 H   0  0  0  0  0  0  0  0  0  0  0  0
   54.5425  -31.8806   -3.6583 H   0  0  0  0  0  0  0  0  0  0  0  0
   54.8508  -30.4307   -2.6335 H   0  0  0  0  0  0  0  0  0  0  0  0
   54.7274  -28.9839   -4.6534 H   0  0  0  0  0  0  0  0  0  0  0  0
   53.2137  -29.9042   -4.4288 H   0  0  0  0  0  0  0  0  0  0  0  0
   57.8393  -28.3816   -7.8091 H   0  0  0  0  0  0  0  0  0  0  0  0
   56.9489  -31.5831   -1.9314 H   0  0  0  0  0  0  0  0  0  0  0  0
   56.8477  -32.9246   -3.1216 H   0  0  0  0  0  0  0  0  0  0  0  0
   58.2715  -31.8294   -3.1216 H   0  0  0  0  0  0  0  0  0  0  0  0
  1  2  2  0
  1  3  2  0
  4  5  1  0
  5  6  1  0
  6  7  1  0
  7  8  1  0
  8  9  2  0
  9 10  1  0
  1 11  1  0
 10 11  2  0
  7 12  2  0
 11 12  1  0
  5 13  1  0
  4 14  1  0
 12 14  1  0
  1 15  1  0
 15 16  1  0
 16 17  1  0
 17 18  2  0
 16 19  1  0
 19 20  1  0
 20 21  1  0
 21 22  1  0
 22 23  1  0
 23 24  2  0
 23 25  1  0
 17 26  1  0
 26 27  1  0
 27 28  1  0
 28 29  1  0
 29 30  1  0
 26 31  1  0
 30 31  1  0
 27 32  1  0
 32 33  2  0
 32 34  1  0
 29 35  1  0
  4 36  1  0
  4 37  1  0
  5 38  1  6
  6 39  1  0
  6 40  1  0
  8 41  1  0
  9 42  1  0
 10 43  1  0
 13 44  1  0
 13 45  1  0
 13 46  1  0
 14 47  1  0
 15 48  1  0
 16 49  1  1
 19 50  1  0
 19 51  1  0
 20 52  1  0
 20 53  1  0
 21 54  1  0
 21 55  1  0
 22 56  1  0
 24 57  1  0
 25 58  1  0
 25 59  1  0
 27 60  1  6
 28 61  1  0
 28 62  1  0
 29 63  1  6
 30 64  1  0
 30 65  1  0
 31 66  1  0
 31 67  1  0
 34 68  1  0
 35 69  1  0
 35 70  1  0
 35 71  1  0
M  END
$$$$
