PDB_DB01041_92
     RDKit          3D

 29 31  0  0  0  0  0  0  0  0999 V2000
   22.9070  -15.2280    0.3420 O   0  0  0  0  0  0  0  0  0  0  0  0
   23.8810  -14.9340   -0.5270 C   0  0  0  0  0  0  0  0  0  0  0  0
   23.8030  -15.2710   -1.7640 N   0  0  0  0  0  0  0  0  0  0  0  0
   24.5500  -14.9420   -2.7490 C   0  0  0  0  0  0  0  0  0  0  0  0
   24.2520  -15.3850   -3.9860 O   0  0  0  0  0  0  0  0  0  0  0  0
   25.7740  -14.0750   -2.4650 C   0  0  0  0  0  0  0  0  0  0  0  0
   26.2560  -14.3870   -1.0380 C   0  0  0  0  0  0  0  0  0  0  0  0
   25.0780  -14.1480   -0.0800 C   0  0  2  0  0  0  0  0  0  0  0  0
   25.4820  -14.3040    1.3570 N   0  0  0  0  0  0  0  0  0  0  0  0
   26.5270  -13.8470    5.8670 C   0  0  0  0  0  0  0  0  0  0  0  0
   26.0240  -13.1040    4.7910 C   0  0  0  0  0  0  0  0  0  0  0  0
   25.8830  -13.7690    3.5700 C   0  0  0  0  0  0  0  0  0  0  0  0
   26.2130  -15.1130    3.3940 C   0  0  0  0  0  0  0  0  0  0  0  0
   24.9810  -12.0030    2.0620 O   0  0  0  0  0  0  0  0  0  0  0  0
   26.1230  -16.6740    1.3590 O   0  0  0  0  0  0  0  0  0  0  0  0
   26.7200  -15.8370    4.4420 C   0  0  0  0  0  0  0  0  0  0  0  0
   26.8550  -15.2000    5.6860 C   0  0  0  0  0  0  0  0  0  0  0  0
   25.9580  -15.3700    2.0410 C   0  0  0  0  0  0  0  0  0  0  0  0
   25.4500  -13.3620    2.3090 C   0  0  0  0  0  0  0  0  0  0  0  0
   23.0220  -15.9004   -1.9979 H   0  0  0  0  0  0  0  0  0  0  0  0
   26.5709  -14.3060   -3.1872 H   0  0  0  0  0  0  0  0  0  0  0  0
   25.5175  -13.0093   -2.5575 H   0  0  0  0  0  0  0  0  0  0  0  0
   26.5829  -15.4354   -0.9745 H   0  0  0  0  0  0  0  0  0  0  0  0
   27.1054  -13.7414   -0.7702 H   0  0  0  0  0  0  0  0  0  0  0  0
   24.7590  -13.0964   -0.1286 H   0  0  0  0  0  0  0  0  0  0  0  0
   26.6644  -13.3722    6.8497 H   0  0  0  0  0  0  0  0  0  0  0  0
   25.7521  -12.0440    4.9024 H   0  0  0  0  0  0  0  0  0  0  0  0
   27.0133  -16.8891    4.3117 H   0  0  0  0  0  0  0  0  0  0  0  0
   27.2288  -15.7781    6.5440 H   0  0  0  0  0  0  0  0  0  0  0  0
  1  2  2  0
  2  3  1  0
  3  4  1  0
  4  5  2  0
  4  6  1  0
  6  7  1  0
  2  8  1  0
  7  8  1  0
  8  9  1  0
 10 11  2  0
 11 12  1  0
 12 13  2  0
 13 16  1  0
 10 17  1  0
 16 17  2  0
  9 18  1  0
 13 18  1  0
 15 18  2  0
  9 19  1  0
 12 19  1  0
 14 19  2  0
  3 20  1  0
  6 21  1  0
  6 22  1  0
  7 23  1  0
  7 24  1  0
  8 25  1  1
 10 26  1  0
 11 27  1  0
 16 28  1  0
 17 29  1  0
M  END
$$$$
