PDB_DB09034_98
     RDKit          3D

 55 59  0  0  0  0  0  0  0  0999 V2000
   51.0650    6.8730   55.0610 C   0  0  0  0  0  0  0  0  0  0  0  0
   51.9280    5.8730   54.8550 N   0  0  0  0  0  0  0  0  0  0  0  0
   50.2740    7.3110   54.1180 O   0  0  0  0  0  0  0  0  0  0  0  0
   47.5860   11.3940   57.0730 Cl  0  0  0  0  0  0  0  0  0  0  0  0
   50.8680    7.5530   56.1830 N   0  0  0  0  0  0  0  0  0  0  0  0
   55.5420    8.0300   54.0170 O   0  0  0  0  0  0  0  0  0  0  0  0
   49.9140    8.4460   55.9060 C   0  0  0  0  0  0  0  0  0  0  0  0
   54.0680    6.4410   53.4330 N   0  0  0  0  0  0  0  0  0  0  0  0
   49.3320    9.3780   56.6600 C   0  0  0  0  0  0  0  0  0  0  0  0
   54.7270    8.0960   50.4640 N   0  0  0  0  0  0  0  0  0  0  0  0
   48.3450   10.1920   56.1210 C   0  0  0  0  0  0  0  0  0  0  0  0
   54.4370    7.8450   49.3030 N   0  0  0  0  0  0  0  0  0  0  0  0
   47.9730   10.0280   54.7960 C   0  0  0  0  0  0  0  0  0  0  0  0
   55.8070    7.5870   50.7530 N   0  0  0  0  0  0  0  0  0  0  0  0
   48.6110    9.0440   54.0610 C   0  0  0  0  0  0  0  0  0  0  0  0
   49.5520    8.2890   54.6260 C   0  0  0  0  0  0  0  0  0  0  0  0
   51.8950    5.2840   53.5120 C   0  0  0  0  0  0  0  0  0  0  0  0
   52.8420    6.1110   52.6610 C   0  0  0  0  0  0  0  0  0  0  0  0
   54.8480    5.5280   54.3130 C   0  0  1  0  0  0  0  0  0  0  0  0
   53.9780    4.6240   55.1930 C   0  0  0  0  0  0  0  0  0  0  0  0
   52.8810    5.4380   55.8900 C   0  0  0  0  0  0  0  0  0  0  0  0
   54.5500    7.6950   53.3690 C   0  0  0  0  0  0  0  0  0  0  0  0
   53.8630    8.6680   52.6420 C   0  0  0  0  0  0  0  0  0  0  0  0
   53.9590    8.8480   51.2540 C   0  0  0  0  0  0  0  0  0  0  0  0
   53.2130    9.8570   50.6480 C   0  0  0  0  0  0  0  0  0  0  0  0
   52.3860   10.6920   51.3930 C   0  0  0  0  0  0  0  0  0  0  0  0
   52.2970   10.5140   52.7660 C   0  0  0  0  0  0  0  0  0  0  0  0
   53.0340    9.5110   53.3790 C   0  0  0  0  0  0  0  0  0  0  0  0
   55.3820    7.0900   48.7570 C   0  0  0  0  0  0  0  0  0  0  0  0
   56.2810    6.9220   49.7070 C   0  0  0  0  0  0  0  0  0  0  0  0
   51.4760   11.3360   53.5290 C   0  0  0  0  0  0  0  0  0  0  0  0
   55.8150    4.6700   53.4950 C   0  0  0  0  0  0  0  0  0  0  0  0
   49.6339    9.5024   57.7104 H   0  0  0  0  0  0  0  0  0  0  0  0
   47.1951   10.6601   54.3428 H   0  0  0  0  0  0  0  0  0  0  0  0
   48.3402    8.8848   53.0068 H   0  0  0  0  0  0  0  0  0  0  0  0
   52.2301    4.2369   53.5469 H   0  0  0  0  0  0  0  0  0  0  0  0
   50.8761    5.2901   53.0975 H   0  0  0  0  0  0  0  0  0  0  0  0
   52.3405    7.0424   52.3594 H   0  0  0  0  0  0  0  0  0  0  0  0
   53.1236    5.5313   51.7696 H   0  0  0  0  0  0  0  0  0  0  0  0
   55.4117    6.1872   54.9895 H   0  0  0  0  0  0  0  0  0  0  0  0
   53.5103    3.8512   54.5653 H   0  0  0  0  0  0  0  0  0  0  0  0
   54.6146    4.1593   55.9603 H   0  0  0  0  0  0  0  0  0  0  0  0
   53.3221    6.3147   56.3868 H   0  0  0  0  0  0  0  0  0  0  0  0
   52.3733    4.8303   56.6535 H   0  0  0  0  0  0  0  0  0  0  0  0
   53.2792    9.9962   49.5589 H   0  0  0  0  0  0  0  0  0  0  0  0
   51.8080   11.4861   50.8978 H   0  0  0  0  0  0  0  0  0  0  0  0
   52.9624    9.3787   54.4687 H   0  0  0  0  0  0  0  0  0  0  0  0
   55.4095    6.6904   47.7325 H   0  0  0  0  0  0  0  0  0  0  0  0
   57.2207    6.3535   49.6457 H   0  0  0  0  0  0  0  0  0  0  0  0
   51.6617   11.1500   54.5971 H   0  0  0  0  0  0  0  0  0  0  0  0
   51.6937   12.3889   53.2969 H   0  0  0  0  0  0  0  0  0  0  0  0
   50.4228   11.1196   53.2969 H   0  0  0  0  0  0  0  0  0  0  0  0
   56.4616    4.0963   54.1753 H   0  0  0  0  0  0  0  0  0  0  0  0
   55.2433    3.9766   52.8607 H   0  0  0  0  0  0  0  0  0  0  0  0
   56.4355    5.3202   52.8607 H   0  0  0  0  0  0  0  0  0  0  0  0
  1  2  1  0
  1  3  1  0
  1  5  2  0
  5  7  1  0
  7  9  2  0
  4 11  1  0
  9 11  1  0
 10 12  1  0
 11 13  2  0
 10 14  1  0
 13 15  1  0
  3 16  1  0
  7 16  1  0
 15 16  2  0
  2 17  1  0
  8 18  1  0
 17 18  1  0
  8 19  1  0
 19 20  1  0
  2 21  1  0
 20 21  1  0
  6 22  2  0
  8 22  1  0
 22 23  1  0
 10 24  1  0
 23 24  1  0
 24 25  2  0
 25 26  1  0
 26 27  2  0
 23 28  2  0
 27 28  1  0
 12 29  2  0
 14 30  2  0
 29 30  1  0
 27 31  1  0
 19 32  1  0
  9 33  1  0
 13 34  1  0
 15 35  1  0
 17 36  1  0
 17 37  1  0
 18 38  1  0
 18 39  1  0
 19 40  1  1
 20 41  1  0
 20 42  1  0
 21 43  1  0
 21 44  1  0
 25 45  1  0
 26 46  1  0
 28 47  1  0
 29 48  1  0
 30 49  1  0
 31 50  1  0
 31 51  1  0
 31 52  1  0
 32 53  1  0
 32 54  1  0
 32 55  1  0
M  END
>  <PDBID>  (1) 
4S0V

>  <PDB ID>  (1) 
4S0V

>  <Generic Name>  (1) 
Suvorexant

>  <Brand Name>  (1) 
Belsomra

>  <DrugBank ID>  (1) 
DB09034

>  <ATC Codes>  (1) 
nan

>  <Ligand ID>  (1) 
SUV

>  <Target Name>  (1) 
Orexin receptor type 1

>  <UniProt ID>  (1) 
O43613

>  <PDB ID.1>  (1) 
4S0V

>  <Seq. Identity>  (1) 
69%

$$$$
