PDB_DB01259_99
     RDKit          3D

 94 98  0  0  0  0  0  0  0  0999 V2000
   22.6040   34.4870   31.1410 C   0  0  0  0  0  0  0  0  0  0  0  0
   24.0360   33.4650   31.3500 S   0  0  2  0  0  4  0  0  0  0  0  0
   25.0530   34.2040   32.0670 O   0  0  0  0  0  0  0  0  0  0  0  0
   24.5430   33.0770   30.0530 O   0  0  0  0  0  0  0  0  0  0  0  0
   23.5870   31.9800   32.2910 C   0  0  0  0  0  0  0  0  0  0  0  0
   22.0610   31.8360   32.3240 C   0  0  0  0  0  0  0  0  0  0  0  0
   21.5690   32.1840   33.6650 N   0  0  0  0  0  0  0  0  0  0  0  0
   20.9140   31.0190   34.2650 C   0  0  0  0  0  0  0  0  0  0  0  0
   19.4160   31.2080   34.2230 C   0  0  0  0  0  0  0  0  0  0  0  0
   18.6740   30.9770   33.1210 C   0  0  0  0  0  0  0  0  0  0  0  0
   17.4450   31.2370   33.4210 C   0  0  0  0  0  0  0  0  0  0  0  0
   17.4090   31.6450   34.7310 C   0  0  0  0  0  0  0  0  0  0  0  0
   18.6550   31.6530   35.3630 O   0  0  0  0  0  0  0  0  0  0  0  0
   16.1760   32.0580   35.4070 C   0  0  0  0  0  0  0  0  0  0  0  0
   14.9580   31.9860   34.7350 C   0  0  0  0  0  0  0  0  0  0  0  0
   13.8070   32.4020   35.3590 C   0  0  0  0  0  0  0  0  0  0  0  0
   13.8490   32.8900   36.6640 C   0  0  0  0  0  0  0  0  0  0  0  0
   12.6830   33.3050   37.2760 N   0  0  0  0  0  0  0  0  0  0  0  0
   12.7080   33.7900   38.5680 C   0  0  0  0  0  0  0  0  0  0  0  0
   13.8990   33.8630   39.2600 N   0  0  0  0  0  0  0  0  0  0  0  0
   15.0770   33.4520   38.6680 C   0  0  0  0  0  0  0  0  0  0  0  0
   16.2820   33.5270   39.3660 N   0  0  0  0  0  0  0  0  0  0  0  0
   16.3320   33.8430   40.7350 C   0  0  0  0  0  0  0  0  0  0  0  0
   17.1180   34.9090   41.1780 C   0  0  0  0  0  0  0  0  0  0  0  0
   17.1640   35.2150   42.5350 C   0  0  0  0  0  0  0  0  0  0  0  0
   16.4280   34.4570   43.4380 C   0  0  0  0  0  0  0  0  0  0  0  0
   16.4460   34.7470   44.8280 O   0  0  0  0  0  0  0  0  0  0  0  0
   17.0650   36.0020   45.1430 C   0  0  0  0  0  0  0  0  0  0  0  0
   16.0850   37.1810   44.9840 C   0  0  0  0  0  0  0  0  0  0  0  0
   16.5190   38.4620   45.2460 C   0  0  0  0  0  0  0  0  0  0  0  0
   15.6530   39.5270   45.1020 C   0  0  0  0  0  0  0  0  0  0  0  0
   14.3540   39.3120   44.6930 C   0  0  0  0  0  0  0  0  0  0  0  0
   13.9160   38.0360   44.4290 C   0  0  0  0  0  0  0  0  0  0  0  0
   12.6790   37.8370   44.0350 F   0  0  0  0  0  0  0  0  0  0  0  0
   14.7720   36.9660   44.5730 C   0  0  0  0  0  0  0  0  0  0  0  0
   15.6650   33.4150   42.9990 C   0  0  0  0  0  0  0  0  0  0  0  0
   14.7840   32.5140   44.1280 Cl  0  0  0  0  0  0  0  0  0  0  0  0
   15.6070   33.0980   41.6600 C   0  0  0  0  0  0  0  0  0  0  0  0
   15.0530   32.9590   37.3490 C   0  0  0  0  0  0  0  0  0  0  0  0
   16.2200   32.5450   36.7310 C   0  0  0  0  0  0  0  0  0  0  0  0
   22.2081   34.7696   32.1276 H   0  0  0  0  0  0  0  0  0  0  0  0
   22.8792   35.3940   30.5828 H   0  0  0  0  0  0  0  0  0  0  0  0
   21.8357   33.9319   30.5828 H   0  0  0  0  0  0  0  0  0  0  0  0
   24.9108   34.1007   33.0413 H   0  0  0  0  0  0  0  0  0  0  0  0
   25.3238   32.4795   30.1691 H   0  0  0  0  0  0  0  0  0  0  0  0
   24.0283   31.0944   31.8104 H   0  0  0  0  0  0  0  0  0  0  0  0
   23.9686   32.0687   33.3189 H   0  0  0  0  0  0  0  0  0  0  0  0
   21.6120   32.5116   31.5811 H   0  0  0  0  0  0  0  0  0  0  0  0
   21.7836   30.7981   32.0876 H   0  0  0  0  0  0  0  0  0  0  0  0
   22.3609   32.4744   34.2561 H   0  0  0  0  0  0  0  0  0  0  0  0
   21.1856   30.1145   33.7011 H   0  0  0  0  0  0  0  0  0  0  0  0
   21.2414   30.9112   35.3096 H   0  0  0  0  0  0  0  0  0  0  0  0
   19.5566   32.2529   33.9093 H   0  0  0  0  0  0  0  0  0  0  0  0
   19.0067   31.6294   32.3002 H   0  0  0  0  0  0  0  0  0  0  0  0
   18.7809   29.9325   32.7929 H   0  0  0  0  0  0  0  0  0  0  0  0
   17.0621   32.0365   32.7697 H   0  0  0  0  0  0  0  0  0  0  0  0
   16.8184   30.3440   33.2799 H   0  0  0  0  0  0  0  0  0  0  0  0
   17.2534   30.6041   35.0509 H   0  0  0  0  0  0  0  0  0  0  0  0
   16.3183   33.0849   35.0391 H   0  0  0  0  0  0  0  0  0  0  0  0
   15.0618   32.5912   33.8224 H   0  0  0  0  0  0  0  0  0  0  0  0
   14.8015   30.9047   34.6071 H   0  0  0  0  0  0  0  0  0  0  0  0
   13.3820   33.2029   34.7361 H   0  0  0  0  0  0  0  0  0  0  0  0
   13.2290   31.4716   35.4602 H   0  0  0  0  0  0  0  0  0  0  0  0
   14.0088   33.9077   36.2783 H   0  0  0  0  0  0  0  0  0  0  0  0
   12.2897   34.0528   36.6869 H   0  0  0  0  0  0  0  0  0  0  0  0
   12.3009   34.8112   38.5305 H   0  0  0  0  0  0  0  0  0  0  0  0
   12.1384   33.0349   39.1296 H   0  0  0  0  0  0  0  0  0  0  0  0
   14.0287   34.8507   39.5219 H   0  0  0  0  0  0  0  0  0  0  0  0
   15.2376   34.4692   38.2814 H   0  0  0  0  0  0  0  0  0  0  0  0
   16.7306   32.6052   39.2664 H   0  0  0  0  0  0  0  0  0  0  0  0
   17.1858   33.1610   40.8612 H   0  0  0  0  0  0  0  0  0  0  0  0
   18.1505   34.6960   40.8639 H   0  0  0  0  0  0  0  0  0  0  0  0
   16.6299   35.7889   40.7336 H   0  0  0  0  0  0  0  0  0  0  0  0
   18.2177   35.1428   42.8425 H   0  0  0  0  0  0  0  0  0  0  0  0
   16.6920   36.2071   42.5895 H   0  0  0  0  0  0  0  0  0  0  0  0
   17.2851   33.7799   43.5682 H   0  0  0  0  0  0  0  0  0  0  0  0
   17.4201   35.9723   46.1837 H   0  0  0  0  0  0  0  0  0  0  0  0
   17.9002   36.1557   44.4438 H   0  0  0  0  0  0  0  0  0  0  0  0
   15.7801   37.0693   46.0350 H   0  0  0  0  0  0  0  0  0  0  0  0
   16.8647   38.4728   46.2902 H   0  0  0  0  0  0  0  0  0  0  0  0
   17.2705   38.6395   44.4626 H   0  0  0  0  0  0  0  0  0  0  0  0
   15.5987   40.0259   46.0808 H   0  0  0  0  0  0  0  0  0  0  0  0
   16.0890   40.0946   44.2667 H   0  0  0  0  0  0  0  0  0  0  0  0
   13.7024   39.7137   45.4830 H   0  0  0  0  0  0  0  0  0  0  0  0
   14.3167   39.7996   43.7077 H   0  0  0  0  0  0  0  0  0  0  0  0
   13.5996   37.9278   45.4769 H   0  0  0  0  0  0  0  0  0  0  0  0
   14.8223   36.4644   43.5953 H   0  0  0  0  0  0  0  0  0  0  0  0
   14.3332   36.3986   45.4070 H   0  0  0  0  0  0  0  0  0  0  0  0
   16.5208   32.7354   43.1245 H   0  0  0  0  0  0  0  0  0  0  0  0
   14.5499   33.1660   41.3634 H   0  0  0  0  0  0  0  0  0  0  0  0
   16.0833   32.1075   41.6146 H   0  0  0  0  0  0  0  0  0  0  0  0
   15.2129   33.9775   36.9654 H   0  0  0  0  0  0  0  0  0  0  0  0
   16.6422   31.7415   37.3524 H   0  0  0  0  0  0  0  0  0  0  0  0
   16.8058   33.4719   36.6433 H   0  0  0  0  0  0  0  0  0  0  0  0
  1  2  1  0
  2  3  1  1
  2  4  1  0
  2  5  1  0
  5  6  1  0
  6  7  1  0
  7  8  1  0
  8  9  1  0
  9 10  1  0
 10 11  1  0
 11 12  1  0
  9 13  1  0
 12 13  1  0
 12 14  1  0
 14 15  1  0
 15 16  1  0
 16 17  1  0
 17 18  1  0
 18 19  1  0
 19 20  1  0
 20 21  1  0
 21 22  1  0
 22 23  1  0
 23 24  1  0
 24 25  1  0
 25 26  1  0
 26 27  1  0
 27 28  1  0
 28 29  1  0
 29 30  1  0
 30 31  1  0
 31 32  1  0
 32 33  1  0
 33 34  1  0
 29 35  1  0
 33 35  1  0
 26 36  1  0
 36 37  1  0
 23 38  1  0
 36 38  1  0
 17 39  1  0
 21 39  1  0
 14 40  1  0
 39 40  1  0
  1 41  1  0
  1 42  1  0
  1 43  1  0
  3 44  1  0
  4 45  1  0
  5 46  1  0
  5 47  1  0
  6 48  1  0
  6 49  1  0
  7 50  1  0
  8 51  1  0
  8 52  1  0
  9 53  1  0
 10 54  1  0
 10 55  1  0
 11 56  1  0
 11 57  1  0
 12 58  1  0
 14 59  1  0
 15 60  1  0
 15 61  1  0
 16 62  1  0
 16 63  1  0
 17 64  1  0
 18 65  1  0
 19 66  1  0
 19 67  1  0
 20 68  1  0
 21 69  1  0
 22 70  1  0
 23 71  1  0
 24 72  1  0
 24 73  1  0
 25 74  1  0
 25 75  1  0
 26 76  1  0
 28 77  1  0
 28 78  1  0
 29 79  1  0
 30 80  1  0
 30 81  1  0
 31 82  1  0
 31 83  1  0
 32 84  1  0
 32 85  1  0
 33 86  1  0
 35 87  1  0
 35 88  1  0
 36 89  1  0
 38 90  1  0
 38 91  1  0
 39 92  1  0
 40 93  1  0
 40 94  1  0
M  END
>  <PDBID>  (1) 
1XKK

>  <PDB ID>  (1) 
1XKK

>  <Generic Name>  (1) 
Lapatinib

>  <Brand Name>  (1) 
Tykerb#Tycerb

>  <DrugBank ID>  (1) 
DB01259

>  <ATC Codes>  (1) 
L01XE07

>  <Ligand ID>  (1) 
FMM

>  <Target Name>  (1) 
Receptor tyrosine-protein kinase erbB-2

>  <UniProt ID>  (1) 
P04626

>  <PDB ID.1>  (1) 
1XKK

>  <Seq. Identity>  (1) 
78%

$$$$
