PDB_DB01024_98
     RDKit          3D

 43 44  0  0  0  0  0  0  0  0999 V2000
   79.6930   50.1780   33.3450 C   0  0  0  0  0  0  0  0  0  0  0  0
   83.1590   47.1080   29.9350 C   0  0  0  0  0  0  0  0  0  0  0  0
   84.2930   46.4910   29.5750 C   0  0  0  0  0  0  0  0  0  0  0  0
   84.5320   45.0670   30.0030 C   0  0  0  0  0  0  0  0  0  0  0  0
   85.4840   45.0430   31.1920 C   0  0  0  0  0  0  0  0  0  0  0  0
   84.8260   45.4920   32.4820 C   0  0  0  0  0  0  0  0  0  0  0  0
   84.0750   52.2380   32.9060 C   0  0  0  0  0  0  0  0  0  0  0  0
   85.7290   49.6090   31.5030 C   0  0  0  0  0  0  0  0  0  0  0  0
   85.3870   47.1480   28.7600 C   0  0  0  0  0  0  0  0  0  0  0  0
   81.2520   51.8090   34.0930 C   0  0  0  0  0  0  0  0  0  0  0  0
   81.8740   51.0610   32.9280 C   0  0  0  0  0  0  0  0  0  0  0  0
   83.1420   51.2170   32.3550 C   0  0  0  0  0  0  0  0  0  0  0  0
   83.4890   50.3440   31.3040 C   0  0  0  0  0  0  0  0  0  0  0  0
   82.5740   49.3630   30.8500 C   0  0  0  0  0  0  0  0  0  0  0  0
   81.2940   49.2010   31.4610 C   0  0  0  0  0  0  0  0  0  0  0  0
   80.9670   50.0930   32.5130 C   0  0  0  0  0  0  0  0  0  0  0  0
   82.9210   48.5530   29.6180 C   0  0  0  0  0  0  0  0  0  0  0  0
   78.6560   49.6070   33.2460 O   0  0  0  0  0  0  0  0  0  0  0  0
   79.9270   51.1460   34.2380 O   0  0  0  0  0  0  0  0  0  0  0  0
   84.7660   50.3580   30.7460 O   0  0  0  0  0  0  0  0  0  0  0  0
   80.4860   48.0950   31.1230 O   0  0  0  0  0  0  0  0  0  0  0  0
   83.9320   44.7640   32.9750 O   0  0  0  0  0  0  0  0  0  0  0  0
   85.1950   46.5760   33.0010 O   0  0  0  0  0  0  0  0  0  0  0  0
   82.3862   46.5413   30.4749 H   0  0  0  0  0  0  0  0  0  0  0  0
   83.5756   44.6059   30.2906 H   0  0  0  0  0  0  0  0  0  0  0  0
   84.9761   44.5046   29.1684 H   0  0  0  0  0  0  0  0  0  0  0  0
   85.8536   44.0156   31.3253 H   0  0  0  0  0  0  0  0  0  0  0  0
   86.3014   45.7465   30.9754 H   0  0  0  0  0  0  0  0  0  0  0  0
   84.0459   52.2061   34.0052 H   0  0  0  0  0  0  0  0  0  0  0  0
   85.0973   52.0253   32.5600 H   0  0  0  0  0  0  0  0  0  0  0  0
   83.7712   53.2370   32.5600 H   0  0  0  0  0  0  0  0  0  0  0  0
   85.5433   49.7534   32.5776 H   0  0  0  0  0  0  0  0  0  0  0  0
   85.6393   48.5409   31.2557 H   0  0  0  0  0  0  0  0  0  0  0  0
   86.7422   49.9588   31.2557 H   0  0  0  0  0  0  0  0  0  0  0  0
   86.1305   47.5945   29.4367 H   0  0  0  0  0  0  0  0  0  0  0  0
   85.8750   46.3934   28.1256 H   0  0  0  0  0  0  0  0  0  0  0  0
   84.9502   47.9334   28.1256 H   0  0  0  0  0  0  0  0  0  0  0  0
   81.8551   51.6938   35.0057 H   0  0  0  0  0  0  0  0  0  0  0  0
   81.1812   52.8941   33.9270 H   0  0  0  0  0  0  0  0  0  0  0  0
   83.8325   48.9705   29.1655 H   0  0  0  0  0  0  0  0  0  0  0  0
   82.0669   48.6094   28.9271 H   0  0  0  0  0  0  0  0  0  0  0  0
   79.5983   47.9826   31.5467 H   0  0  0  0  0  0  0  0  0  0  0  0
   83.4843   45.0311   33.8166 H   0  0  0  0  0  0  0  0  0  0  0  0
  2  3  2  0
  3  4  1  0
  4  5  1  0
  5  6  1  0
  3  9  1  0
 10 11  1  0
  7 12  1  0
 11 12  1  0
 12 13  2  0
 13 14  1  0
 14 15  2  0
  1 16  1  0
 11 16  2  0
 15 16  1  0
  2 17  1  0
 14 17  1  0
  1 18  2  0
  1 19  1  0
 10 19  1  0
  8 20  1  0
 13 20  1  0
 15 21  1  0
  6 22  1  0
  6 23  2  0
  2 24  1  0
  4 25  1  0
  4 26  1  0
  5 27  1  0
  5 28  1  0
  7 29  1  0
  7 30  1  0
  7 31  1  0
  8 32  1  0
  8 33  1  0
  8 34  1  0
  9 35  1  0
  9 36  1  0
  9 37  1  0
 10 38  1  0
 10 39  1  0
 17 40  1  0
 17 41  1  0
 21 42  1  0
 22 43  1  0
M  END
$$$$
