PDB_DB01127_98
     RDKit          3D

 39 41  0  0  0  0  0  0  0  0999 V2000
   49.5970  -22.9210  102.5920 C   0  0  0  0  0  0  0  0  0  0  0  0
   50.5870  -23.9000  102.6150 C   0  0  0  0  0  0  0  0  0  0  0  0
   48.7610  -22.6080   97.7670 Cl  0  0  0  0  0  0  0  0  0  0  0  0
   46.0690  -19.6310  102.4930 C   0  0  0  0  0  0  0  0  0  0  0  0
   46.9720  -19.2320  101.5660 C   0  0  0  0  0  0  0  0  0  0  0  0
   50.2350  -22.1940  104.7940 C   0  0  0  0  0  0  0  0  0  0  0  0
   49.4230  -22.0710  103.6780 C   0  0  0  0  0  0  0  0  0  0  0  0
   51.2220  -23.1690  104.8150 C   0  0  0  0  0  0  0  0  0  0  0  0
   52.2660  -23.3160  106.2630 Cl  0  0  0  0  0  0  0  0  0  0  0  0
   50.1420  -21.4660   97.7860 C   0  0  0  0  0  0  0  0  0  0  0  0
   50.9160  -21.3150   96.6550 C   0  0  0  0  0  0  0  0  0  0  0  0
   51.9730  -20.4260   96.6850 C   0  0  0  0  0  0  0  0  0  0  0  0
   52.2610  -19.6910   97.8310 C   0  0  0  0  0  0  0  0  0  0  0  0
   52.9700  -20.2460   95.2150 Cl  0  0  0  0  0  0  0  0  0  0  0  0
   45.8470  -20.9260  102.2870 N   0  0  0  0  0  0  0  0  0  0  0  0
   48.1990  -20.4050   99.6710 C   0  0  0  0  0  0  0  0  0  0  0  0
   49.5560  -20.9550  100.0930 C   0  0  1  0  0  0  0  0  0  0  0  0
   49.4850  -22.3830  100.2710 O   0  0  0  0  0  0  0  0  0  0  0  0
   50.4230  -20.7400   98.9280 C   0  0  0  0  0  0  0  0  0  0  0  0
   47.2880  -20.3470  100.7950 N   0  0  0  0  0  0  0  0  0  0  0  0
   46.5730  -21.3550  101.2760 C   0  0  0  0  0  0  0  0  0  0  0  0
   48.6980  -22.7700  101.3880 C   0  0  0  0  0  0  0  0  0  0  0  0
   51.4020  -24.0250  103.7330 C   0  0  0  0  0  0  0  0  0  0  0  0
   51.4800  -19.8450   98.9670 C   0  0  0  0  0  0  0  0  0  0  0  0
   50.7228  -24.5701  101.7533 H   0  0  0  0  0  0  0  0  0  0  0  0
   45.6069  -19.0032  103.2691 H   0  0  0  0  0  0  0  0  0  0  0  0
   47.3793  -18.2174  101.4450 H   0  0  0  0  0  0  0  0  0  0  0  0
   50.0983  -21.5244  105.6560 H   0  0  0  0  0  0  0  0  0  0  0  0
   48.6394  -21.2995  103.6514 H   0  0  0  0  0  0  0  0  0  0  0  0
   50.6958  -21.8922   95.7449 H   0  0  0  0  0  0  0  0  0  0  0  0
   53.1074  -18.9884   97.8360 H   0  0  0  0  0  0  0  0  0  0  0  0
   48.3327  -19.3918   99.2642 H   0  0  0  0  0  0  0  0  0  0  0  0
   47.7722  -21.0741   98.9093 H   0  0  0  0  0  0  0  0  0  0  0  0
   49.8992  -20.4796  101.0237 H   0  0  0  0  0  0  0  0  0  0  0  0
   46.5847  -22.3855  100.8915 H   0  0  0  0  0  0  0  0  0  0  0  0
   48.2016  -23.7283  101.1755 H   0  0  0  0  0  0  0  0  0  0  0  0
   47.9334  -22.0048  101.5878 H   0  0  0  0  0  0  0  0  0  0  0  0
   52.1854  -24.7966  103.7627 H   0  0  0  0  0  0  0  0  0  0  0  0
   51.6952  -19.2690   99.8791 H   0  0  0  0  0  0  0  0  0  0  0  0
  1  2  2  0
  4  5  2  0
  1  7  1  0
  6  7  2  0
  6  8  1  0
  8  9  1  0
  3 10  1  0
 10 11  2  0
 11 12  1  0
 12 13  2  0
 12 14  1  0
  4 15  1  0
 16 17  1  0
 17 18  1  0
 10 19  1  0
 17 19  1  0
  5 20  1  0
 16 20  1  0
 20 21  1  0
 21 15  2  0
  1 22  1  0
 18 22  1  0
  2 23  1  0
  8 23  2  0
 13 24  1  0
 19 24  2  0
  2 25  1  0
  4 26  1  0
  5 27  1  0
  6 28  1  0
  7 29  1  0
 11 30  1  0
 13 31  1  0
 16 32  1  0
 16 33  1  0
 17 34  1  1
 21 35  1  0
 22 36  1  0
 22 37  1  0
 23 38  1  0
 24 39  1  0
M  END
$$$$
