PDB_DB00919_97
     RDKit          3D

 47 49  0  0  0  0  0  0  0  0999 V2000
  197.7620  126.4360   -3.6950 O   0  0  0  0  0  0  0  0  0  0  0  0
  196.7140  125.7590   -2.9810 C   0  0  2  0  0  0  0  0  0  0  0  0
  196.8140  124.2580   -3.2330 C   0  0  0  0  0  0  0  0  0  0  0  0
  195.2990  126.2230   -3.3950 C   0  0  0  0  0  0  0  0  0  0  0  0
  195.1960  127.6430   -3.9320 C   0  0  0  0  0  0  0  0  0  0  0  0
  194.1290  128.1120   -4.2450 O   0  0  0  0  0  0  0  0  0  0  0  0
  196.4640  128.4260   -4.1490 C   0  0  1  0  0  0  0  0  0  0  0  0
  196.2810  129.7900   -3.7970 O   0  0  0  0  0  0  0  0  0  0  0  0
  197.6180  127.7840   -3.3620 C   0  0  2  0  0  0  0  0  0  0  0  0
  196.7920  128.4990   -5.5540 O   0  0  0  0  0  0  0  0  0  0  0  0
  198.8710  128.4350   -3.6080 O   0  0  0  0  0  0  0  0  0  0  0  0
  198.0230  129.2100   -5.7540 C   0  0  2  0  0  0  0  0  0  0  0  0
  198.3000  129.2780   -7.2510 C   0  0  1  0  0  0  0  0  0  0  0  0
  197.1600  130.0100   -7.8830 N   0  0  0  0  0  0  0  0  0  0  0  0
  197.3770  130.2720   -9.3040 C   0  0  0  0  0  0  0  0  0  0  0  0
  199.6630  129.9900   -7.4830 C   0  0  1  0  0  0  0  0  0  0  0  0
  199.6120  131.2870   -6.9730 O   0  0  0  0  0  0  0  0  0  0  0  0
  200.7870  129.2330   -6.7640 C   0  0  1  0  0  0  0  0  0  0  0  0
  202.0340  129.9110   -6.9720 N   0  0  0  0  0  0  0  0  0  0  0  0
  202.9650  128.9400   -7.4800 C   0  0  0  0  0  0  0  0  0  0  0  0
  200.4890  129.1950   -5.2600 C   0  0  2  0  0  0  0  0  0  0  0  0
  201.5300  128.4910   -4.6100 O   0  0  0  0  0  0  0  0  0  0  0  0
  199.1580  128.4700   -5.0280 C   0  0  1  0  0  0  0  0  0  0  0  0
  196.8523  126.0026   -1.9173 H   0  0  0  0  0  0  0  0  0  0  0  0
  196.8494  123.7262   -2.2707 H   0  0  0  0  0  0  0  0  0  0  0  0
  195.9362  123.9229   -3.8050 H   0  0  0  0  0  0  0  0  0  0  0  0
  197.7285  124.0424   -3.8050 H   0  0  0  0  0  0  0  0  0  0  0  0
  194.9355  125.5398   -4.1768 H   0  0  0  0  0  0  0  0  0  0  0  0
  194.6994  126.2092   -2.4729 H   0  0  0  0  0  0  0  0  0  0  0  0
  196.2692  129.8776   -2.8110 H   0  0  0  0  0  0  0  0  0  0  0  0
  197.3567  127.8922   -2.2990 H   0  0  0  0  0  0  0  0  0  0  0  0
  197.9544  130.2301   -5.3483 H   0  0  0  0  0  0  0  0  0  0  0  0
  198.3751  128.2789   -7.7051 H   0  0  0  0  0  0  0  0  0  0  0  0
  196.3062  129.4433   -7.7790 H   0  0  0  0  0  0  0  0  0  0  0  0
  198.0748  131.1145   -9.4191 H   0  0  0  0  0  0  0  0  0  0  0  0
  197.8015  129.3765   -9.7813 H   0  0  0  0  0  0  0  0  0  0  0  0
  196.4181  130.5223   -9.7813 H   0  0  0  0  0  0  0  0  0  0  0  0
  199.8613  130.0134   -8.5647 H   0  0  0  0  0  0  0  0  0  0  0  0
  199.6133  131.2528   -5.9836 H   0  0  0  0  0  0  0  0  0  0  0  0
  200.8498  128.2098   -7.1629 H   0  0  0  0  0  0  0  0  0  0  0  0
  201.9119  130.6735   -7.6536 H   0  0  0  0  0  0  0  0  0  0  0  0
  203.4560  128.4279   -6.6393 H   0  0  0  0  0  0  0  0  0  0  0  0
  202.4273  128.2030   -8.0946 H   0  0  0  0  0  0  0  0  0  0  0  0
  203.7239  129.4462   -8.0946 H   0  0  0  0  0  0  0  0  0  0  0  0
  200.4220  130.2175   -4.8600 H   0  0  0  0  0  0  0  0  0  0  0  0
  201.4176  128.5670   -3.6293 H   0  0  0  0  0  0  0  0  0  0  0  0
  199.2333  127.4452   -5.4206 H   0  0  0  0  0  0  0  0  0  0  0  0
  1  2  1  0
  2  3  1  0
  2  4  1  0
  4  5  1  0
  5  6  2  0
  5  7  1  0
  7  8  1  1
  1  9  1  0
  7  9  1  0
  7 10  1  0
  9 11  1  0
 10 12  1  0
 12 13  1  0
 13 14  1  0
 14 15  1  0
 13 16  1  0
 16 17  1  0
 16 18  1  0
 18 19  1  0
 19 20  1  0
 18 21  1  0
 21 22  1  0
 11 23  1  0
 12 23  1  0
 21 23  1  0
  2 24  1  1
  3 25  1  0
  3 26  1  0
  3 27  1  0
  4 28  1  0
  4 29  1  0
  8 30  1  0
  9 31  1  1
 12 32  1  1
 13 33  1  6
 14 34  1  0
 15 35  1  0
 15 36  1  0
 15 37  1  0
 16 38  1  6
 17 39  1  0
 18 40  1  6
 19 41  1  0
 20 42  1  0
 20 43  1  0
 20 44  1  0
 21 45  1  1
 22 46  1  0
 23 47  1  6
M  END
>  <PDBID>  (1) 
1FJG

>  <PDB ID>  (1) 
1FJG

>  <Generic Name>  (1) 
Spectinomycin

>  <Brand Name>  (1) 
Trobicin Inj 400mg/ml#Actinospectacin#Spectam#Togamycin#Trobicin

>  <DrugBank ID>  (1) 
DB00919

>  <ATC Codes>  (1) 
J01XX04

>  <Ligand ID>  (1) 
SCM

>  <Target Name>  (1) 
30S ribosomal protein S12

>  <UniProt ID>  (1) 
P0A7S3

>  <PDB ID.1>  (1) 
1FJG

>  <Seq. Identity>  (1) 
73%

$$$$
