PDB_DB00421_96
     RDKit          3D

 61 65  0  0  0  0  0  0  0  0999 V2000
  -22.9650   57.7830    2.8810 C   0  0  0  0  0  0  0  0  0  0  0  0
  -21.4410   61.4310    3.2340 C   0  0  0  0  0  0  0  0  0  0  0  0
  -21.6420   59.8600    2.6070 C   0  0  1  0  0  0  0  0  0  0  0  0
  -17.6790   61.0790    4.5750 C   0  0  1  0  0  0  0  0  0  0  0  0
  -20.9950   58.8580    3.7220 C   0  0  1  0  0  0  0  0  0  0  0  0
  -17.4540   62.6040    5.2360 C   0  0  0  0  0  0  0  0  0  0  0  0
  -19.9980   61.7840    3.4890 C   0  0  0  0  0  0  0  0  0  0  0  0
  -21.6150   57.4500    3.4530 C   0  0  0  0  0  0  0  0  0  0  0  0
  -23.0980   59.2720    2.6430 C   0  0  2  0  0  0  0  0  0  0  0  0
  -20.9800   59.7650    1.1200 C   0  0  0  0  0  0  0  0  0  0  0  0
  -16.9460   61.0680    3.1490 C   0  0  0  0  0  0  0  0  0  0  0  0
  -16.0080   62.8740    5.8000 C   0  0  0  0  0  0  0  0  0  0  0  0
  -24.1290   59.8570    3.6860 C   0  0  0  0  0  0  0  0  0  0  0  0
  -25.1470   60.7050    2.8760 C   0  0  0  0  0  0  0  0  0  0  0  0
  -24.7400   60.4840    1.4500 C   0  0  0  0  0  0  0  0  0  0  0  0
  -19.2940   56.7540    7.6120 C   0  0  0  0  0  0  0  0  0  0  0  0
  -20.0030   56.3580    8.8990 C   0  0  0  0  0  0  0  0  0  0  0  0
  -15.4820   61.6250    6.6540 C   0  0  0  0  0  0  0  0  0  0  0  0
  -15.9490   60.2380    6.4010 C   0  0  0  0  0  0  0  0  0  0  0  0
  -16.8790   59.9450    5.4040 C   0  0  0  0  0  0  0  0  0  0  0  0
  -17.2780   58.4070    5.1350 C   0  0  0  0  0  0  0  0  0  0  0  0
  -18.8120   58.1540    4.9830 C   0  0  2  0  0  0  0  0  0  0  0  0
  -19.4910   59.0960    3.9690 C   0  0  2  0  0  0  0  0  0  0  0  0
  -19.2250   60.7120    4.4060 C   0  0  1  0  0  0  0  0  0  0  0  0
  -25.1350   61.1620    0.4900 O   0  0  0  0  0  0  0  0  0  0  0  0
  -23.8210   59.4220    1.3580 O   0  0  0  0  0  0  0  0  0  0  0  0
  -18.3930   56.0320    7.2050 O   0  0  0  0  0  0  0  0  0  0  0  0
  -14.7040   61.8230    7.5500 O   0  0  0  0  0  0  0  0  0  0  0  0
  -19.7160   58.3000    6.7080 S   0  0  0  0  0  0  0  0  0  0  0  0
  -23.0922   57.2527    1.9257 H   0  0  0  0  0  0  0  0  0  0  0  0
  -23.7378   57.4713    3.5991 H   0  0  0  0  0  0  0  0  0  0  0  0
  -21.8560   62.1515    2.5138 H   0  0  0  0  0  0  0  0  0  0  0  0
  -21.9644   61.4685    4.2008 H   0  0  0  0  0  0  0  0  0  0  0  0
  -21.2686   59.0590    4.7683 H   0  0  0  0  0  0  0  0  0  0  0  0
  -17.6608   63.3496    4.4541 H   0  0  0  0  0  0  0  0  0  0  0  0
  -18.1385   62.6730    6.0943 H   0  0  0  0  0  0  0  0  0  0  0  0
  -19.4801   61.8511    2.5209 H   0  0  0  0  0  0  0  0  0  0  0  0
  -19.9912   62.7393    4.0343 H   0  0  0  0  0  0  0  0  0  0  0  0
  -21.7110   56.8748    4.3857 H   0  0  0  0  0  0  0  0  0  0  0  0
  -21.0023   56.8250    2.7867 H   0  0  0  0  0  0  0  0  0  0  0  0
  -19.8949   59.6093    1.2110 H   0  0  0  0  0  0  0  0  0  0  0  0
  -21.4268   58.9218    0.5729 H   0  0  0  0  0  0  0  0  0  0  0  0
  -21.1717   60.6999    0.5729 H   0  0  0  0  0  0  0  0  0  0  0  0
  -15.8561   61.0516    3.2971 H   0  0  0  0  0  0  0  0  0  0  0  0
  -17.2530   60.1744    2.5858 H   0  0  0  0  0  0  0  0  0  0  0  0
  -17.2260   61.9704    2.5858 H   0  0  0  0  0  0  0  0  0  0  0  0
  -15.3210   63.0496    4.9591 H   0  0  0  0  0  0  0  0  0  0  0  0
  -16.0471   63.7557    6.4566 H   0  0  0  0  0  0  0  0  0  0  0  0
  -24.6468   59.0386    4.2076 H   0  0  0  0  0  0  0  0  0  0  0  0
  -23.6205   60.4677    4.4466 H   0  0  0  0  0  0  0  0  0  0  0  0
  -26.1751   60.3543    3.0492 H   0  0  0  0  0  0  0  0  0  0  0  0
  -25.1390   61.7673    3.1615 H   0  0  0  0  0  0  0  0  0  0  0  0
  -19.4081   56.6903    9.7625 H   0  0  0  0  0  0  0  0  0  0  0  0
  -20.9947   56.8329    8.9324 H   0  0  0  0  0  0  0  0  0  0  0  0
  -20.1187   55.2646    8.9324 H   0  0  0  0  0  0  0  0  0  0  0  0
  -15.5501   59.4189    7.0173 H   0  0  0  0  0  0  0  0  0  0  0  0
  -16.7822   58.0801    4.2091 H   0  0  0  0  0  0  0  0  0  0  0  0
  -16.9530   57.8396    6.0196 H   0  0  0  0  0  0  0  0  0  0  0  0
  -18.9070   57.1299    4.5930 H   0  0  0  0  0  0  0  0  0  0  0  0
  -19.0110   58.8569    3.0086 H   0  0  0  0  0  0  0  0  0  0  0  0
  -19.6811   60.7911    5.4039 H   0  0  0  0  0  0  0  0  0  0  0  0
  2  3  1  0
  3  5  1  0
  4  6  1  0
  2  7  1  0
  1  8  1  0
  5  8  1  0
  1  9  1  0
  3  9  1  0
  3 10  1  6
  4 11  1  6
  6 12  1  0
  9 13  1  0
 13 14  1  0
 14 15  1  0
 16 17  1  0
 12 18  1  0
 18 19  1  0
  4 20  1  0
 19 20  2  0
 20 21  1  0
 21 22  1  0
  5 23  1  0
 22 23  1  0
  4 24  1  0
  7 24  1  0
 23 24  1  0
 15 25  2  0
  9 26  1  6
 15 26  1  0
 16 27  2  0
 18 28  2  0
 16 29  1  0
 22 29  1  0
  1 30  1  0
  1 31  1  0
  2 32  1  0
  2 33  1  0
  5 34  1  1
  6 35  1  0
  6 36  1  0
  7 37  1  0
  7 38  1  0
  8 39  1  0
  8 40  1  0
 10 41  1  0
 10 42  1  0
 10 43  1  0
 11 44  1  0
 11 45  1  0
 11 46  1  0
 12 47  1  0
 12 48  1  0
 13 49  1  0
 13 50  1  0
 14 51  1  0
 14 52  1  0
 17 53  1  0
 17 54  1  0
 17 55  1  0
 19 56  1  0
 21 57  1  0
 21 58  1  0
 22 59  1  6
 23 60  1  6
 24 61  1  1
M  END
$$$$
