PDB_DB02546_96
     RDKit          3D

 98 98  0  0  0  0  0  0  0  0999 V2000
    3.5580   -8.7140    1.6040 O   0  0  0  0  0  0  0  0  0  0  0  0
    5.0390   -7.0310    2.8860 O   0  0  0  0  0  0  0  0  0  0  0  0
    4.4390   -7.8860    0.9540 N   0  0  0  0  0  0  0  0  0  0  0  0
    5.1450   -7.0400    1.6670 C   0  0  0  0  0  0  0  0  0  0  0  0
    6.0770   -6.1070    0.9290 C   0  0  0  0  0  0  0  0  0  0  0  0
    5.5460   -5.7040   -0.4290 C   0  0  0  0  0  0  0  0  0  0  0  0
    6.4250   -4.6400   -1.0500 C   0  0  0  0  0  0  0  0  0  0  0  0
    5.9100   -3.2480   -0.7060 C   0  0  0  0  0  0  0  0  0  0  0  0
    6.3920   -2.2720   -1.7590 C   0  0  0  0  0  0  0  0  0  0  0  0
    5.7660   -0.9010   -1.5470 C   0  0  0  0  0  0  0  0  0  0  0  0
    6.2230   -0.3080   -0.2340 C   0  0  0  0  0  0  0  0  0  0  0  0
    5.4330   -0.1540    0.6850 O   0  0  0  0  0  0  0  0  0  0  0  0
    7.5170   -0.0110   -0.1990 N   0  0  0  0  0  0  0  0  0  0  0  0
    8.2540    0.5420    0.8680 C   0  0  0  0  0  0  0  0  0  0  0  0
    9.6320    0.4080    0.8200 C   0  0  0  0  0  0  0  0  0  0  0  0
   10.4350    0.9430    1.8220 C   0  0  0  0  0  0  0  0  0  0  0  0
    9.8590    1.6490    2.8680 C   0  0  0  0  0  0  0  0  0  0  0  0
    8.4860    1.7870    2.9330 C   0  0  0  0  0  0  0  0  0  0  0  0
    7.6880    1.2500    1.9350 C   0  0  0  0  0  0  0  0  0  0  0  0
    3.0550   -9.2230    0.9550 H   0  0  0  0  0  0  0  0  0  0  0  0
    6.2350   -5.2100    1.5310 H   0  0  0  0  0  0  0  0  0  0  0  0
    7.0450   -6.5950    0.8040 H   0  0  0  0  0  0  0  0  0  0  0  0
    5.5140   -6.5780   -1.0830 H   0  0  0  0  0  0  0  0  0  0  0  0
    4.5280   -5.3230   -0.3250 H   0  0  0  0  0  0  0  0  0  0  0  0
    6.4400   -4.7660   -2.1340 H   0  0  0  0  0  0  0  0  0  0  0  0
    7.4470   -4.7510   -0.6830 H   0  0  0  0  0  0  0  0  0  0  0  0
    4.8180   -3.2520   -0.6760 H   0  0  0  0  0  0  0  0  0  0  0  0
    6.2800   -2.9470    0.2760 H   0  0  0  0  0  0  0  0  0  0  0  0
    7.4800   -2.1890   -1.7090 H   0  0  0  0  0  0  0  0  0  0  0  0
    6.1280   -2.6450   -2.7510 H   0  0  0  0  0  0  0  0  0  0  0  0
    4.6780   -0.9910   -1.5490 H   0  0  0  0  0  0  0  0  0  0  0  0
    6.0520   -0.2380   -2.3660 H   0  0  0  0  0  0  0  0  0  0  0  0
   10.0890   -0.1280   -0.0030 H   0  0  0  0  0  0  0  0  0  0  0  0
   11.5110    0.8270    1.7740 H   0  0  0  0  0  0  0  0  0  0  0  0
   10.4820    2.0560    3.6550 H   0  0  0  0  0  0  0  0  0  0  0  0
    8.0340    2.3280    3.7550 H   0  0  0  0  0  0  0  0  0  0  0  0
    6.6130    1.3750    1.9830 H   0  0  0  0  0  0  0  0  0  0  0  0
   22.1070   -3.7990   39.3180 O   0  0  0  0  0  0  0  0  0  0  0  0
   22.0560   -5.4300   37.3690 O   0  0  0  0  0  0  0  0  0  0  0  0
   23.1940   -4.6020   39.0790 N   0  0  0  0  0  0  0  0  0  0  0  0
   23.0800   -5.4200   38.0520 C   0  0  0  0  0  0  0  0  0  0  0  0
   24.2680   -6.3160   37.7800 C   0  0  0  0  0  0  0  0  0  0  0  0
   24.8090   -6.9080   39.0490 C   0  0  0  0  0  0  0  0  0  0  0  0
   25.8750   -7.9390   38.7440 C   0  0  0  0  0  0  0  0  0  0  0  0
   25.3340   -9.3230   39.0490 C   0  0  0  0  0  0  0  0  0  0  0  0
   26.4960  -10.2680   39.2520 C   0  0  0  0  0  0  0  0  0  0  0  0
   25.9470  -11.6310   39.6150 C   0  0  0  0  0  0  0  0  0  0  0  0
   25.2190  -12.2040   38.4210 C   0  0  0  0  0  0  0  0  0  0  0  0
   24.0070  -12.3460   38.4530 O   0  0  0  0  0  0  0  0  0  0  0  0
   26.0160  -12.4870   37.3910 N   0  0  0  0  0  0  0  0  0  0  0  0
   25.6560  -13.0430   36.1530 C   0  0  1  0  0  0  0  0  0  0  0  0
   26.5940  -12.9620   35.1300 C   0  0  0  0  0  0  0  0  0  0  0  0
   26.3340  -13.5170   33.8890 C   0  0  0  0  0  0  0  0  0  0  0  0
   25.1350  -14.1930   33.6640 C   0  0  0  0  0  0  0  0  0  0  0  0
   24.1930  -14.2830   34.6750 C   0  0  0  0  0  0  0  0  0  0  0  0
   24.4560  -13.7230   35.9170 C   0  0  0  0  0  0  0  0  0  0  0  0
   22.2510   -3.2950   40.1310 H   0  0  0  0  0  0  0  0  0  0  0  0
   25.0520   -5.7380   37.2860 H   0  0  0  0  0  0  0  0  0  0  0  0
   23.9700   -7.1190   37.1030 H   0  0  0  0  0  0  0  0  0  0  0  0
   23.9970   -7.3760   39.6090 H   0  0  0  0  0  0  0  0  0  0  0  0
   25.2340   -6.1160   39.6700 H   0  0  0  0  0  0  0  0  0  0  0  0
   26.1610   -7.8760   37.6920 H   0  0  0  0  0  0  0  0  0  0  0  0
   26.7620   -7.7460   39.3520 H   0  0  0  0  0  0  0  0  0  0  0  0
   24.7180   -9.2920   39.9500 H   0  0  0  0  0  0  0  0  0  0  0  0
   24.7130   -9.6700   38.2200 H   0  0  0  0  0  0  0  0  0  0  0  0
   27.1410   -9.9000   40.0530 H   0  0  0  0  0  0  0  0  0  0  0  0
   27.0870  -10.3350   38.3360 H   0  0  0  0  0  0  0  0  0  0  0  0
   25.2620  -11.5420   40.4600 H   0  0  0  0  0  0  0  0  0  0  0  0
   26.7650  -12.2950   39.9050 H   0  0  0  0  0  0  0  0  0  0  0  0
   27.5330  -12.4530   35.3030 H   0  0  0  0  0  0  0  0  0  0  0  0
   27.0670  -13.4390   33.0960 H   0  0  0  0  0  0  0  0  0  0  0  0
   24.9250  -14.6140   32.6890 H   0  0  0  0  0  0  0  0  0  0  0  0
   23.2560  -14.7970   34.4990 H   0  0  0  0  0  0  0  0  0  0  0  0
   23.7240  -13.8090   36.7110 H   0  0  0  0  0  0  0  0  0  0  0  0
    5.9369   -7.1072    3.2959 H   0  0  0  0  0  0  0  0  0  0  0  0
    5.1050   -8.4874    0.4483 H   0  0  0  0  0  0  0  0  0  0  0  0
    4.3348   -6.2999    1.5911 H   0  0  0  0  0  0  0  0  0  0  0  0
    5.9860    0.6995   -0.6065 H   0  0  0  0  0  0  0  0  0  0  0  0
    5.9088   -0.2467    1.5482 H   0  0  0  0  0  0  0  0  0  0  0  0
    7.9936   -0.8989   -0.4119 H   0  0  0  0  0  0  0  0  0  0  0  0
    8.1803   -0.4108    1.4127 H   0  0  0  0  0  0  0  0  0  0  0  0
    9.7042    1.3512    0.2586 H   0  0  0  0  0  0  0  0  0  0  0  0
   10.5322    1.8753    1.2463 H   0  0  0  0  0  0  0  0  0  0  0  0
    9.9242    2.5755    2.2786 H   0  0  0  0  0  0  0  0  0  0  0  0
    8.5542    2.7301    2.3710 H   0  0  0  0  0  0  0  0  0  0  0  0
    7.5998    0.3154    2.5084 H   0  0  0  0  0  0  0  0  0  0  0  0
   21.2636   -5.4377   37.9624 H   0  0  0  0  0  0  0  0  0  0  0  0
   24.0076   -3.9931   38.9110 H   0  0  0  0  0  0  0  0  0  0  0  0
   23.5121   -4.6527   37.3929 H   0  0  0  0  0  0  0  0  0  0  0  0
   25.3485  -13.2175   38.8284 H   0  0  0  0  0  0  0  0  0  0  0  0
   23.7037  -12.3815   39.3947 H   0  0  0  0  0  0  0  0  0  0  0  0
   26.4666  -11.5914   37.1547 H   0  0  0  0  0  0  0  0  0  0  0  0
   25.2332  -12.0764   35.8418 H   0  0  0  0  0  0  0  0  0  0  0  0
   27.0380  -13.9121   35.4619 H   0  0  0  0  0  0  0  0  0  0  0  0
   26.8040  -14.4579   34.2113 H   0  0  0  0  0  0  0  0  0  0  0  0
   25.5973  -15.1287   34.0115 H   0  0  0  0  0  0  0  0  0  0  0  0
   24.6407  -15.2311   35.0077 H   0  0  0  0  0  0  0  0  0  0  0  0
   23.9869  -12.7825   35.5923 H   0  0  0  0  0  0  0  0  0  0  0  0
  3  1  1  0
  3  4  1  0
  4  2  1  0
  4  5  1  0
  5  6  1  0
  6  7  1  0
  7  8  1  0
  8  9  1  0
  9 10  1  0
 10 11  1  0
 11 12  1  0
 11 13  1  0
 13 14  1  0
 14 15  1  0
 15 16  1  0
 16 17  1  0
 17 18  1  0
 14 19  1  0
 18 19  1  0
 20  1  1  0
  5 21  1  0
  5 22  1  0
  6 23  1  0
  6 24  1  0
  7 25  1  0
  7 26  1  0
  8 27  1  0
  8 28  1  0
  9 29  1  0
  9 30  1  0
 10 31  1  0
 10 32  1  0
 15 33  1  0
 16 34  1  0
 17 35  1  0
 18 36  1  0
 19 37  1  0
 38 40  1  0
 39 41  1  0
 40 41  1  0
 41 42  1  0
 42 43  1  0
 43 44  1  0
 44 45  1  0
 45 46  1  0
 46 47  1  0
 47 48  1  0
 48 49  1  0
 48 50  1  0
 50 51  1  0
 51 52  1  0
 52 53  1  0
 53 54  1  0
 54 55  1  0
 51 56  1  0
 55 56  1  0
 38 57  1  0
 42 58  1  0
 42 59  1  0
 43 60  1  0
 43 61  1  0
 44 62  1  0
 44 63  1  0
 45 64  1  0
 45 65  1  0
 46 66  1  0
 46 67  1  0
 47 68  1  0
 47 69  1  0
 52 70  1  0
 53 71  1  0
 54 72  1  0
 55 73  1  0
 56 74  1  0
  2 75  1  0
  3 76  1  0
  4 77  1  0
 11 78  1  0
 12 79  1  0
 13 80  1  0
 14 81  1  0
 15 82  1  0
 16 83  1  0
 17 84  1  0
 18 85  1  0
 19 86  1  0
 39 87  1  0
 40 88  1  0
 41 89  1  0
 48 90  1  0
 49 91  1  0
 50 92  1  0
 51 93  1  6
 52 94  1  0
 53 95  1  0
 54 96  1  0
 55 97  1  0
 56 98  1  0
M  END
>  <PDBID>  (1) 
5EEI

>  <PDB ID>  (1) 
5EEI

>  <Generic Name>  (1) 
Vorinostat

>  <Brand Name>  (1) 
Zolinza

>  <DrugBank ID>  (1) 
DB02546

>  <ATC Codes>  (1) 
L01XX38

>  <Ligand ID>  (1) 
SHH

>  <Target Name>  (1) 
Histone deacetylase 6

>  <UniProt ID>  (1) 
Q9UBN7

>  <PDB ID.1>  (1) 
5EEI

>  <Seq. Identity>  (1) 
57%

$$$$
