PDB_DB00382_98
     RDKit          3D

 29 31  0  0  0  0  0  0  0  0999 V2000
   22.9510  -28.7130   25.7730 C   0  0  0  0  0  0  0  0  0  0  0  0
   23.2920  -29.5050   26.8960 C   0  0  0  0  0  0  0  0  0  0  0  0
   22.2970  -29.8660   27.8410 C   0  0  0  0  0  0  0  0  0  0  0  0
   20.8940  -29.4120   27.6510 C   0  0  0  0  0  0  0  0  0  0  0  0
   20.6030  -28.6090   26.4930 C   0  0  0  0  0  0  0  0  0  0  0  0
   21.6220  -28.2690   25.5710 C   0  0  0  0  0  0  0  0  0  0  0  0
   22.6380  -30.6140   28.8950 N   0  0  0  0  0  0  0  0  0  0  0  0
   21.7640  -30.9990   29.8330 C   0  0  0  0  0  0  0  0  0  0  0  0
   20.3600  -30.6200   29.7640 C   0  0  0  0  0  0  0  0  0  0  0  0
   19.9270  -29.8130   28.6510 C   0  0  0  0  0  0  0  0  0  0  0  0
   22.3190  -31.8720   31.0080 C   0  0  0  0  0  0  0  0  0  0  0  0
   21.2510  -32.5540   31.9190 C   0  0  0  0  0  0  0  0  0  0  0  0
   20.0870  -31.5770   32.2290 C   0  0  0  0  0  0  0  0  0  0  0  0
   19.3940  -31.1150   30.9150 C   0  0  0  0  0  0  0  0  0  0  0  0
   18.6270  -29.4480   28.5650 N   0  0  0  0  0  0  0  0  0  0  0  0
   23.5779  -27.8106   25.8247 H   0  0  0  0  0  0  0  0  0  0  0  0
   23.1053  -29.4056   24.9324 H   0  0  0  0  0  0  0  0  0  0  0  0
   23.7140  -30.4430   26.5060 H   0  0  0  0  0  0  0  0  0  0  0  0
   23.9607  -28.8491   27.4728 H   0  0  0  0  0  0  0  0  0  0  0  0
   19.8319  -29.1483   25.9233 H   0  0  0  0  0  0  0  0  0  0  0  0
   20.3369  -27.6360   26.9318 H   0  0  0  0  0  0  0  0  0  0  0  0
   21.6591  -27.1703   25.5333 H   0  0  0  0  0  0  0  0  0  0  0  0
   21.3186  -28.8035   24.6587 H   0  0  0  0  0  0  0  0  0  0  0  0
   23.3980  -31.9973   31.1813 H   0  0  0  0  0  0  0  0  0  0  0  0
   21.3151  -33.5873   32.2908 H   0  0  0  0  0  0  0  0  0  0  0  0
   19.7921  -31.2551   33.2387 H   0  0  0  0  0  0  0  0  0  0  0  0
   18.3008  -31.1315   30.7938 H   0  0  0  0  0  0  0  0  0  0  0  0
   17.9592  -29.7467   29.2900 H   0  0  0  0  0  0  0  0  0  0  0  0
   18.3052  -28.8714   27.7745 H   0  0  0  0  0  0  0  0  0  0  0  0
  1  2  1  0
  2  3  1  0
  3  4  2  0
  4  5  1  0
  1  6  1  0
  5  6  1  0
  3  7  1  0
  7  8  2  0
  8  9  1  0
  4 10  1  0
  9 10  2  0
  8 11  1  0
 11 12  2  0
 12 13  1  0
  9 14  1  0
 13 14  2  0
 10 15  1  0
  1 16  1  0
  1 17  1  0
  2 18  1  0
  2 19  1  0
  5 20  1  0
  5 21  1  0
  6 22  1  0
  6 23  1  0
 11 24  1  0
 12 25  1  0
 13 26  1  0
 14 27  1  0
 15 28  1  0
 15 29  1  0
M  END
$$$$
