PDB_DB00696_98
     RDKit          3D

100107  0  0  0  0  0  0  0  0999 V2000
  -23.2070  -14.7790    5.2580 C   0  0  0  0  0  0  0  0  0  0  0  0
  -23.9810  -13.8410    5.8530 N   0  0  0  0  0  0  0  0  0  0  0  0
  -21.3450  -19.5250   11.7810 O   0  0  0  0  0  0  0  0  0  0  0  0
  -23.4170  -14.9360    9.7720 C   0  0  0  0  0  0  0  0  0  0  0  0
  -24.2630  -13.8290    9.5910 C   0  0  0  0  0  0  0  0  0  0  0  0
  -24.5310  -13.3600    8.2740 C   0  0  0  0  0  0  0  0  0  0  0  0
  -23.9560  -14.0040    7.2410 C   0  0  0  0  0  0  0  0  0  0  0  0
  -23.1200  -15.1040    7.4280 C   0  0  0  0  0  0  0  0  0  0  0  0
  -21.1080  -19.7220    6.4790 C   0  0  0  0  0  0  0  0  0  0  0  0
  -20.3360  -19.0660   11.3010 C   0  0  0  0  0  0  0  0  0  0  0  0
  -19.0790  -19.8010   13.2770 C   0  0  2  0  0  0  0  0  0  0  0  0
  -20.0480  -19.1950   14.2620 C   0  0  0  0  0  0  0  0  0  0  0  0
  -21.9890  -19.9950   15.4700 C   0  0  2  0  0  0  0  0  0  0  0  0
  -20.8980  -18.7020    7.5410 N   0  0  0  0  0  0  0  0  0  0  0  0
  -22.6480  -15.5960    6.1970 C   0  0  0  0  0  0  0  0  0  0  0  0
  -19.4920  -21.1690   13.2130 O   0  0  0  0  0  0  0  0  0  0  0  0
  -22.3480  -21.3160   16.1310 C   0  0  0  0  0  0  0  0  0  0  0  0
  -21.9330  -23.7370   16.4000 C   0  0  0  0  0  0  0  0  0  0  0  0
  -21.7230  -24.6740   15.2350 C   0  0  0  0  0  0  0  0  0  0  0  0
  -20.6390  -23.9870   14.3530 C   0  0  0  0  0  0  0  0  0  0  0  0
  -20.5780  -22.5680   14.9420 C   0  0  1  0  0  0  0  0  0  0  0  0
  -20.7050  -21.4560   13.9160 C   0  0  1  0  0  0  0  0  0  0  0  0
  -17.6400  -19.6240   13.7240 C   0  0  0  0  0  0  0  0  0  0  0  0
  -23.1780  -19.4320   14.7490 C   0  0  0  0  0  0  0  0  0  0  0  0
  -24.0120  -18.5620   15.6640 C   0  0  0  0  0  0  0  0  0  0  0  0
  -23.4510  -17.4390   16.2750 C   0  0  0  0  0  0  0  0  0  0  0  0
  -21.7290  -16.7780    6.1570 C   0  0  0  0  0  0  0  0  0  0  0  0
  -19.1590  -19.1500   11.9620 N   0  0  0  0  0  0  0  0  0  0  0  0
  -20.0430  -18.0610   14.6920 O   0  0  0  0  0  0  0  0  0  0  0  0
  -24.2280  -16.6400   17.1130 C   0  0  0  0  0  0  0  0  0  0  0  0
  -25.5680  -16.9620   17.3380 C   0  0  0  0  0  0  0  0  0  0  0  0
  -26.1280  -18.0820   16.7260 C   0  0  0  0  0  0  0  0  0  0  0  0
  -25.3510  -18.8810   15.8870 C   0  0  0  0  0  0  0  0  0  0  0  0
  -21.9260  -17.6070    7.4780 C   0  0  2  0  0  0  0  0  0  0  0  0
  -20.8990  -20.1750   14.5620 N   0  0  0  0  0  0  0  0  0  0  0  0
  -23.2830  -21.3590   16.9380 O   0  0  0  0  0  0  0  0  0  0  0  0
  -20.8490  -19.4000    8.8670 C   0  0  0  0  0  0  0  0  0  0  0  0
  -21.6880  -22.4170   15.8500 N   0  0  0  0  0  0  0  0  0  0  0  0
  -21.7470  -21.7120   13.0350 O   0  0  0  0  0  0  0  0  0  0  0  0
  -20.4100  -18.3910    9.8960 C   0  0  1  0  0  0  0  0  0  0  0  0
  -21.2870  -17.1700    9.8640 C   0  0  0  0  0  0  0  0  0  0  0  0
  -21.9030  -16.7870    8.7510 C   0  0  2  0  0  0  0  0  0  0  0  0
  -22.8260  -15.5980    8.7070 C   0  0  0  0  0  0  0  0  0  0  0  0
  -23.8255  -15.3804    4.5755 H   0  0  0  0  0  0  0  0  0  0  0  0
  -22.4050  -14.2778    4.6963 H   0  0  0  0  0  0  0  0  0  0  0  0
  -23.6250  -12.9045    5.6140 H   0  0  0  0  0  0  0  0  0  0  0  0
  -21.2830  -19.4968   12.7687 H   0  0  0  0  0  0  0  0  0  0  0  0
  -22.5930  -14.5904   10.4135 H   0  0  0  0  0  0  0  0  0  0  0  0
  -24.1146  -15.6959   10.1539 H   0  0  0  0  0  0  0  0  0  0  0  0
  -25.2322  -14.0899   10.0412 H   0  0  0  0  0  0  0  0  0  0  0  0
  -23.7063  -13.0000   10.0523 H   0  0  0  0  0  0  0  0  0  0  0  0
  -25.6197  -13.4105    8.1248 H   0  0  0  0  0  0  0  0  0  0  0  0
  -24.0894  -12.3529    8.2477 H   0  0  0  0  0  0  0  0  0  0  0  0
  -23.0883  -13.3309    7.3044 H   0  0  0  0  0  0  0  0  0  0  0  0
  -23.9889  -15.7754    7.3632 H   0  0  0  0  0  0  0  0  0  0  0  0
  -21.3091  -20.6987    6.9433 H   0  0  0  0  0  0  0  0  0  0  0  0
  -21.9648  -19.4297    5.8541 H   0  0  0  0  0  0  0  0  0  0  0  0
  -20.2054  -19.7919    5.8541 H   0  0  0  0  0  0  0  0  0  0  0  0
  -20.5418  -18.1023   11.7899 H   0  0  0  0  0  0  0  0  0  0  0  0
  -19.4018  -19.5131   15.0934 H   0  0  0  0  0  0  0  0  0  0  0  0
  -21.6831  -19.2838   16.2514 H   0  0  0  0  0  0  0  0  0  0  0  0
  -21.7783  -14.9256    6.2625 H   0  0  0  0  0  0  0  0  0  0  0  0
  -21.6498  -21.0951   16.9518 H   0  0  0  0  0  0  0  0  0  0  0  0
  -22.9617  -23.8149   16.7816 H   0  0  0  0  0  0  0  0  0  0  0  0
  -21.2713  -23.9674   17.2480 H   0  0  0  0  0  0  0  0  0  0  0  0
  -21.3702  -25.6547   15.5868 H   0  0  0  0  0  0  0  0  0  0  0  0
  -22.6542  -24.8546   14.6780 H   0  0  0  0  0  0  0  0  0  0  0  0
  -19.6692  -24.4977   14.4460 H   0  0  0  0  0  0  0  0  0  0  0  0
  -20.8731  -24.0052   13.2784 H   0  0  0  0  0  0  0  0  0  0  0  0
  -19.5902  -22.4731   15.4166 H   0  0  0  0  0  0  0  0  0  0  0  0
  -17.5955  -19.6185   14.8231 H   0  0  0  0  0  0  0  0  0  0  0  0
  -17.0309  -20.4540   13.3365 H   0  0  0  0  0  0  0  0  0  0  0  0
  -17.2502  -18.6711   13.3365 H   0  0  0  0  0  0  0  0  0  0  0  0
  -22.8288  -18.8273   13.8991 H   0  0  0  0  0  0  0  0  0  0  0  0
  -23.8016  -20.2683   14.4001 H   0  0  0  0  0  0  0  0  0  0  0  0
  -23.7127  -19.1793   16.5238 H   0  0  0  0  0  0  0  0  0  0  0  0
  -22.6007  -17.7954   16.8749 H   0  0  0  0  0  0  0  0  0  0  0  0
  -23.2285  -16.7745   15.4271 H   0  0  0  0  0  0  0  0  0  0  0  0
  -21.9689  -17.4053    5.2858 H   0  0  0  0  0  0  0  0  0  0  0  0
  -20.6850  -16.4414    6.0751 H   0  0  0  0  0  0  0  0  0  0  0  0
  -18.5102  -19.6572   11.3433 H   0  0  0  0  0  0  0  0  0  0  0  0
  -20.0431  -18.0834   15.6817 H   0  0  0  0  0  0  0  0  0  0  0  0
  -23.7332  -16.6347   18.0954 H   0  0  0  0  0  0  0  0  0  0  0  0
  -24.2847  -15.6846   16.5708 H   0  0  0  0  0  0  0  0  0  0  0  0
  -25.6830  -17.1022   18.4229 H   0  0  0  0  0  0  0  0  0  0  0  0
  -26.1104  -16.1239   16.8761 H   0  0  0  0  0  0  0  0  0  0  0  0
  -26.4968  -18.7331   17.5323 H   0  0  0  0  0  0  0  0  0  0  0  0
  -26.8742  -17.6498   16.0431 H   0  0  0  0  0  0  0  0  0  0  0  0
  -25.8448  -18.8835   14.9041 H   0  0  0  0  0  0  0  0  0  0  0  0
  -25.2964  -19.8373   16.4279 H   0  0  0  0  0  0  0  0  0  0  0  0
  -22.9416  -18.0264    7.4261 H   0  0  0  0  0  0  0  0  0  0  0  0
  -22.9238  -21.3425   17.8604 H   0  0  0  0  0  0  0  0  0  0  0  0
  -21.8456  -19.7884    9.1237 H   0  0  0  0  0  0  0  0  0  0  0  0
  -20.1480  -20.2470    8.8324 H   0  0  0  0  0  0  0  0  0  0  0  0
  -22.5699  -21.9142   13.5470 H   0  0  0  0  0  0  0  0  0  0  0  0
  -19.3971  -18.0355    9.6559 H   0  0  0  0  0  0  0  0  0  0  0  0
  -22.0748  -17.3340   10.6140 H   0  0  0  0  0  0  0  0  0  0  0  0
  -20.5652  -16.3561   10.0269 H   0  0  0  0  0  0  0  0  0  0  0  0
  -20.8530  -16.5305    8.9554 H   0  0  0  0  0  0  0  0  0  0  0  0
  -23.6925  -16.2728    8.6456 H   0  0  0  0  0  0  0  0  0  0  0  0
  1  2  1  0
  4  5  1  0
  5  6  1  0
  2  7  1  0
  6  7  1  0
  7  8  1  0
  3 10  1  0
 11 12  1  0
  9 14  1  0
  1 15  1  0
  8 15  1  0
 11 16  1  0
 13 17  1  0
 18 19  1  0
 19 20  1  0
 20 21  1  0
 16 22  1  0
 21 22  1  0
 11 23  1  0
 13 24  1  0
 24 25  1  0
 25 26  1  0
 15 27  1  0
 10 28  1  0
 11 28  1  6
 12 29  1  0
 26 30  1  0
 30 31  1  0
 31 32  1  0
 25 33  1  0
 32 33  1  0
 14 34  1  0
 27 34  1  0
 12 35  1  0
 13 35  1  0
 22 35  1  0
 17 36  1  0
 14 37  1  0
 17 38  1  0
 18 38  1  0
 21 38  1  0
 22 39  1  6
 10 40  1  0
 37 40  1  0
 40 41  1  0
 34 42  1  0
 41 42  1  0
  4 43  1  0
  8 43  1  0
 42 43  1  0
  1 44  1  0
  1 45  1  0
  2 46  1  0
  3 47  1  0
  4 48  1  0
  4 49  1  0
  5 50  1  0
  5 51  1  0
  6 52  1  0
  6 53  1  0
  7 54  1  0
  8 55  1  0
  9 56  1  0
  9 57  1  0
  9 58  1  0
 10 59  1  0
 12 60  1  0
 13 61  1  1
 15 62  1  0
 17 63  1  0
 18 64  1  0
 18 65  1  0
 19 66  1  0
 19 67  1  0
 20 68  1  0
 20 69  1  0
 21 70  1  1
 23 71  1  0
 23 72  1  0
 23 73  1  0
 24 74  1  0
 24 75  1  0
 25 76  1  0
 26 77  1  0
 26 78  1  0
 27 79  1  0
 27 80  1  0
 28 81  1  0
 29 82  1  0
 30 83  1  0
 30 84  1  0
 31 85  1  0
 31 86  1  0
 32 87  1  0
 32 88  1  0
 33 89  1  0
 33 90  1  0
 34 91  1  6
 36 92  1  0
 37 93  1  0
 37 94  1  0
 39 95  1  0
 40 96  1  6
 41 97  1  0
 41 98  1  0
 42 99  1  6
 43100  1  0
M  END
>  <PDBID>  (1) 
4NC3

>  <PDB ID>  (1) 
4NC3

>  <Generic Name>  (1) 
Ergotamine

>  <Brand Name>  (1) 
Cafergot#Cafergot Sup#Cafergot Tab#Ergodryl Cap#Ergomar#Ergomar Slt 2mg#Ergomar Sublingual#Ergotamine#Ergotamine Tartrate and Caffeine#Gravergol Capsules#Megral Tabs#Migergot#Anervan#Antimigraine#Enxak#Ergam#Ergo-Kranit#Gynaemine#Wigrettes

>  <DrugBank ID>  (1) 
DB00696

>  <ATC Codes>  (1) 
N02CA52#N02CA72#N02CA02

>  <Ligand ID>  (1) 
ERM

>  <Target Name>  (1) 
5-hydroxytryptamine receptor 2A

>  <UniProt ID>  (1) 
P28223

>  <PDB ID.1>  (1) 
4NC3

>  <Seq. Identity>  (1) 
58%

$$$$
