PDB_DB00537_94
     RDKit          3D

 42 45  0  0  0  0  0  0  0  0999 V2000
   33.2210   21.4760   22.1870 O   0  0  0  0  0  0  0  0  0  0  0  0
   32.6880   21.3130   21.0550 C   0  0  0  0  0  0  0  0  0  0  0  0
   31.4490   21.0910   20.9600 O   0  0  0  0  0  0  0  0  0  0  0  0
   33.5390   21.3810   19.7990 C   0  0  0  0  0  0  0  0  0  0  0  0
   32.8890   21.5240   18.4810 C   0  0  0  0  0  0  0  0  0  0  0  0
   33.6960   21.5820   17.2800 N   0  0  0  0  0  0  0  0  0  0  0  0
   35.2040   21.5110   17.3710 C   0  0  0  0  0  0  0  0  0  0  0  0
   35.9830   21.5730   16.2030 C   0  0  0  0  0  0  0  0  0  0  0  0
   37.3860   21.5110   16.2610 C   0  0  0  0  0  0  0  0  0  0  0  0
   38.1100   21.5710   14.9910 N   0  0  0  0  0  0  0  0  0  0  0  0
   37.9610   22.7990   14.2840 C   0  0  0  0  0  0  0  0  0  0  0  0
   38.5820   22.7480   12.8950 C   0  0  0  0  0  0  0  0  0  0  0  0
   39.9290   22.2740   12.9280 N   0  0  0  0  0  0  0  0  0  0  0  0
   40.0290   21.0130   13.5860 C   0  0  0  0  0  0  0  0  0  0  0  0
   39.4550   21.0870   14.9920 C   0  0  0  0  0  0  0  0  0  0  0  0
   38.0020   21.3720   17.5360 C   0  0  0  0  0  0  0  0  0  0  0  0
   39.3310   21.3020   17.6940 F   0  0  0  0  0  0  0  0  0  0  0  0
   37.2200   21.3100   18.6990 C   0  0  0  0  0  0  0  0  0  0  0  0
   35.8230   21.3780   18.6260 C   0  0  0  0  0  0  0  0  0  0  0  0
   34.9880   21.3110   19.8850 C   0  0  0  0  0  0  0  0  0  0  0  0
   35.5230   21.1960   20.9730 O   0  0  0  0  0  0  0  0  0  0  0  0
   33.0540   21.7320   16.0050 C   0  0  0  0  0  0  0  0  0  0  0  0
   33.1140   22.9180   15.0560 C   0  0  0  0  0  0  0  0  0  0  0  0
   31.7840   22.4790   15.6320 C   0  0  0  0  0  0  0  0  0  0  0  0
   34.1932   21.6498   22.2560 H   0  0  0  0  0  0  0  0  0  0  0  0
   31.7930   21.5864   18.4115 H   0  0  0  0  0  0  0  0  0  0  0  0
   35.4862   21.6718   15.2266 H   0  0  0  0  0  0  0  0  0  0  0  0
   36.8883   23.0208   14.1834 H   0  0  0  0  0  0  0  0  0  0  0  0
   38.4824   23.5807   14.8560 H   0  0  0  0  0  0  0  0  0  0  0  0
   37.9840   22.0748   12.2632 H   0  0  0  0  0  0  0  0  0  0  0  0
   38.5915   23.7705   12.4894 H   0  0  0  0  0  0  0  0  0  0  0  0
   40.2714   22.1742   11.9617 H   0  0  0  0  0  0  0  0  0  0  0  0
   39.4718   20.2605   13.0088 H   0  0  0  0  0  0  0  0  0  0  0  0
   41.0913   20.7359   13.6545 H   0  0  0  0  0  0  0  0  0  0  0  0
   40.0769   21.7646   15.5954 H   0  0  0  0  0  0  0  0  0  0  0  0
   39.4528   20.0714   15.4145 H   0  0  0  0  0  0  0  0  0  0  0  0
   37.7093   21.2069   19.6788 H   0  0  0  0  0  0  0  0  0  0  0  0
   33.3690   20.6782   15.9882 H   0  0  0  0  0  0  0  0  0  0  0  0
   33.5706   23.8630   15.3854 H   0  0  0  0  0  0  0  0  0  0  0  0
   33.5052   23.0822   14.0411 H   0  0  0  0  0  0  0  0  0  0  0  0
   31.0352   22.0006   14.9836 H   0  0  0  0  0  0  0  0  0  0  0  0
   30.9799   22.9744   16.1958 H   0  0  0  0  0  0  0  0  0  0  0  0
  2  1  1  0
  2  3  2  0
  2  4  1  0
  4  5  2  0
  5  6  1  0
  6  7  1  0
  7  8  1  0
  8  9  2  0
  9 10  1  0
 10 11  1  0
 11 12  1  0
 12 13  1  0
 13 14  1  0
 10 15  1  0
 14 15  1  0
  9 16  1  0
 16 17  1  0
 16 18  2  0
  7 19  2  0
 18 19  1  0
  4 20  1  0
 19 20  1  0
 20 21  2  0
  6 22  1  0
 22 23  1  0
 22 24  1  0
 23 24  1  0
  1 25  1  0
  5 26  1  0
  8 27  1  0
 11 28  1  0
 11 29  1  0
 12 30  1  0
 12 31  1  0
 13 32  1  0
 14 33  1  0
 14 34  1  0
 15 35  1  0
 15 36  1  0
 18 37  1  0
 22 38  1  0
 23 39  1  0
 23 40  1  0
 24 41  1  0
 24 42  1  0
M  END
$$$$
