PDB_DB01336_99
     RDKit          3D

  0  0  0  0  0  0  0  0  0  0999 V3000
M  V30 BEGIN CTAB
M  V30 COUNTS 960 1008 0 0 0
M  V30 BEGIN ATOM
M  V30 1 N -40.881 -42.054 10.616 0 CFG=1 CHG=1 VAL=4
M  V30 2 C -41.812 -42.773 11.542 0
M  V30 3 C -42.708 -41.959 12.474 0
M  V30 4 C -42.535 -40.461 12.31 0
M  V30 5 C -41.879 -39.885 11.21 0
M  V30 6 C -41.328 -40.731 10.1 0 CFG=2
M  V30 7 C -43.058 -39.688 13.341 0
M  V30 8 C -42.966 -38.301 13.292 0
M  V30 9 C -42.337 -37.722 12.2 0
M  V30 10 C -41.781 -38.472 11.161 0
M  V30 11 O -42.265 -36.371 12.25 0
M  V30 12 C -41.714 -35.559 11.293 0
M  V30 13 C -40.507 -35.062 11.655 0
M  V30 14 C -39.791 -34.207 10.817 0
M  V30 15 C -40.352 -33.899 9.597 0
M  V30 16 C -41.613 -34.417 9.216 0
M  V30 17 C -42.314 -35.269 10.064 0
M  V30 18 C -42.182 -34.053 7.885 0
M  V30 19 C -43.571 -33.41 7.807 0 CFG=1
M  V30 20 N -43.46 -31.928 7.711 0 CFG=1 CHG=1 VAL=4
M  V30 21 C -42.846 -31.5 6.429 0
M  V30 22 C -43.677 -31.88 5.19 0
M  V30 23 C -44.272 -33.283 5.367 0 CFG=1
M  V30 24 C -44.247 -33.981 6.6 0
M  V30 25 C -44.925 -33.853 4.281 0
M  V30 26 C -45.51 -35.123 4.35 0
M  V30 27 C -45.471 -35.812 5.541 0
M  V30 28 C -44.869 -35.245 6.665 0
M  V30 29 O -44.86 -35.977 7.846 0
M  V30 30 C -44.258 -37.174 8.068 0
M  V30 31 C -44.809 -38.027 9.035 0
M  V30 32 C -44.193 -39.258 9.309 0
M  V30 33 C -43.047 -39.629 8.628 0
M  V30 34 C -42.485 -38.755 7.669 0
M  V30 35 C -43.1 -37.536 7.358 0
M  V30 36 C -42.348 -40.94 8.921 0
M  V30 37 O -43.482 -37.487 14.322 0
M  V30 38 C -44.21 -38.084 15.432 0
M  V30 39 O -40.124 -35.448 12.907 0
M  V30 40 O -46.152 -35.733 3.271 0
M  V30 41 C -46.272 -35.129 1.958 0
M  V30 42 O -46.07 -37.065 5.552 0
M  V30 43 C -39.654 -41.949 11.395 0
M  V30 44 C -44.816 -31.371 7.974 0
M  V30 45 C -42.663 -31.384 8.818 0
M  V30 46 C -47.141 -37.459 6.399 0
M  V30 47 C -40.586 -42.937 9.452 0
M  V30 48 C -38.796 -35.208 13.356 0
M  V30 49 N -15.632 -45.538 6.202 0 CFG=1 CHG=1 VAL=4
M  V30 50 C -15.142 -44.128 6.337 0
M  V30 51 C -13.611 -44.017 6.161 0
M  V30 52 C -13.152 -44.82 4.994 0 CFG=1
M  V30 53 C -14.003 -45.711 4.355 0 CFG=1
M  V30 54 C -15.462 -45.918 4.768 0 CFG=2
M  V30 55 C -11.84 -44.563 4.519 0
M  V30 56 C -11.311 -45.232 3.434 0 CFG=1
M  V30 57 C -12.162 -46.135 2.798 0
M  V30 58 C -13.476 -46.338 3.224 0
M  V30 59 O -11.689 -46.827 1.715 0
M  V30 60 C -12.116 -48.13 1.612 0
M  V30 61 C -11.559 -49.098 2.42 0
M  V30 62 C -12.004 -50.426 2.319 0
M  V30 63 C -13.023 -50.74 1.41 0
M  V30 64 C -13.588 -49.746 0.584 0 CFG=1
M  V30 65 C -13.135 -48.442 0.722 0
M  V30 66 C -14.747 -50.116 -0.36 0
M  V30 67 C -14.663 -49.615 -1.792 0 CFG=1
M  V30 68 N -13.934 -50.569 -2.684 0 CFG=1 CHG=1 VAL=4
M  V30 69 C -14.746 -51.805 -2.88 0
M  V30 70 C -16.141 -51.519 -3.483 0
M  V30 71 C -16.726 -50.148 -3.127 0 CFG=1
M  V30 72 C -15.999 -49.259 -2.326 0 CFG=1
M  V30 73 C -17.979 -49.741 -3.714 0
M  V30 74 C -18.507 -48.463 -3.443 0 CFG=1
M  V30 75 C -17.787 -47.617 -2.623 0
M  V30 76 C -16.549 -47.986 -2.09 0 CFG=1
M  V30 77 O -15.855 -47.02 -1.393 0
M  V30 78 C -16.045 -46.596 -0.078 0
M  V30 79 C -15.52 -45.365 0.242 0
M  V30 80 C -15.701 -44.866 1.5 0
M  V30 81 C -16.383 -45.606 2.467 0 CFG=1
M  V30 82 C -16.95 -46.878 2.145 0
M  V30 83 C -16.753 -47.335 0.818 0
M  V30 84 C -16.405 -45.049 3.874 0
M  V30 85 O -10.024 -44.985 2.937 0
M  V30 86 C -9.004 -44.827 3.93 0
M  V30 87 O -10.58 -48.701 3.268 0
M  V30 88 O -19.702 -47.992 -4.016 0
M  V30 89 C -20.173 -48.779 -5.113 0
M  V30 90 O -18.337 -46.375 -2.365 0
M  V30 91 C -14.875 -46.541 7.074 0
M  V30 92 C -13.711 -49.938 -3.989 0
M  V30 93 C -12.676 -50.905 -1.931 0
M  V30 94 C -17.643 -45.197 -2.678 0
M  V30 95 C -17.037 -45.501 6.66 0
M  V30 96 C -9.808 -49.562 4.111 0
M  V30 97 N -8.528 2.699 8.333 0 CFG=1 CHG=1 VAL=4
M  V30 98 C -9.775 1.881 8.548 0
M  V30 99 C -11.106 2.65 8.514 0
M  V30 100 C -11.078 3.803 7.523 0
M  V30 101 C -9.889 4.124 6.853 0
M  V30 102 C -8.568 3.367 7.045 0 CFG=2
M  V30 103 C -12.263 4.536 7.266 0
M  V30 104 C -12.282 5.607 6.369 0
M  V30 105 C -11.084 5.957 5.698 0
M  V30 106 C -9.911 5.219 5.958 0
M  V30 107 O -10.999 7.001 4.779 0
M  V30 108 C -9.817 7.707 4.682 0
M  V30 109 C -9.432 8.597 5.704 0
M  V30 110 C -8.185 9.285 5.567 0
M  V30 111 C -7.394 9.045 4.396 0
M  V30 112 C -7.776 8.134 3.393 0
M  V30 113 C -9.011 7.462 3.551 0
M  V30 114 C -6.883 7.853 2.139 0
M  V30 115 C -7.593 7.83 0.736 0 CFG=1
M  V30 116 N -7.632 9.173 0.066 0 CFG=1 CHG=1 VAL=4
M  V30 117 C -6.297 9.671 -0.376 0
M  V30 118 C -5.534 8.685 -1.293 0
M  V30 119 C -5.856 7.2 -1.054 0
M  V30 120 C -6.841 6.791 -0.12 0 CFG=1
M  V30 121 C -5.174 6.188 -1.794 0
M  V30 122 C -5.44 4.792 -1.616 0
M  V30 123 C -6.409 4.395 -0.693 0
M  V30 124 C -7.069 5.401 0.048 0 CFG=1
M  V30 125 O -8.049 5 0.901 0
M  V30 126 C -8.006 4.364 2.092 0
M  V30 127 C -9.155 3.618 2.428 0
M  V30 128 C -9.208 2.947 3.661 0
M  V30 129 C -8.126 3.049 4.55 0
M  V30 130 C -7.013 3.816 4.188 0
M  V30 131 C -6.922 4.468 2.951 0
M  V30 132 C -8.206 2.364 5.899 0
M  V30 133 O -13.43 6.312 6.126 0
M  V30 134 C -14.604 6.337 6.981 0
M  V30 135 O -10.317 8.743 6.775 0
M  V30 136 O -4.768 3.802 -2.302 0
M  V30 137 C -4.05 4.048 -3.528 0
M  V30 138 O -6.667 3.028 -0.483 0
M  V30 139 C -8.332 3.676 9.401 0
M  V30 140 C -8.406 9.026 -1.177 0
M  V30 141 C -8.231 10.194 0.97 0
M  V30 142 C -7.858 2.397 -0.955 0
M  V30 143 C -7.377 1.783 8.406 0
M  V30 144 C -10.386 9.741 7.803 0
M  V30 145 N -38.331 -1.939 9.911 0 CFG=1 CHG=1 VAL=4
M  V30 146 C -38.508 -3.161 10.733 0
M  V30 147 C -39.08 -4.476 10.199 0
M  V30 148 C -40.11 -4.192 9.142 0
M  V30 149 C -40.112 -2.977 8.454 0
M  V30 150 C -39.116 -1.857 8.674 0 CFG=2
M  V30 151 C -41.076 -5.171 8.849 0
M  V30 152 C -42.059 -4.979 7.863 0
M  V30 153 C -42.075 -3.773 7.156 0
M  V30 154 C -41.099 -2.799 7.471 0
M  V30 155 O -43.015 -3.482 6.165 0
M  V30 156 C -43.506 -2.18 6.14 0 CFG=1
M  V30 157 C -44.507 -1.756 7.063 0 CFG=1
M  V30 158 C -44.923 -0.425 6.999 0
M  V30 159 C -44.345 0.447 6.065 0
M  V30 160 C -43.342 0.048 5.18 0
M  V30 161 C -42.92 -1.282 5.225 0
M  V30 162 C -42.773 1.091 4.231 0
M  V30 163 C -42.845 0.762 2.726 0 CFG=1
M  V30 164 N -44.07 1.306 2.036 0 CFG=1 CHG=1 VAL=4
M  V30 165 C -44.083 2.794 2.109 0
M  V30 166 C -42.847 3.473 1.468 0
M  V30 167 C -41.627 2.552 1.413 0
M  V30 168 C -41.601 1.266 2.014 0
M  V30 169 C -40.495 3.023 0.734 0
M  V30 170 C -39.329 2.235 0.638 0
M  V30 171 C -39.267 0.955 1.215 0
M  V30 172 C -40.418 0.465 1.889 0
M  V30 173 O -40.391 -0.793 2.452 0
M  V30 174 C -39.849 -0.967 3.713 0
M  V30 175 C -39.36 -2.24 4.017 0
M  V30 176 C -38.791 -2.465 5.264 0
M  V30 177 C -38.693 -1.446 6.205 0
M  V30 178 C -39.178 -0.156 5.922 0
M  V30 179 C -39.765 0.085 4.667 0
M  V30 180 C -38.088 -1.819 7.536 0
M  V30 181 O -43.008 -5.953 7.605 0
M  V30 182 C -43.693 -6.686 8.65 0
M  V30 183 O -45.119 -2.628 7.971 0
M  V30 184 O -38.248 2.736 -0.051 0
M  V30 185 C -38.188 2.527 -1.464 0
M  V30 186 O -38.064 0.278 1.017 0
M  V30 187 C -38.605 -0.718 10.694 0
M  V30 188 C -44.105 0.904 0.614 0
M  V30 189 C -45.324 0.788 2.623 0
M  V30 190 C -37.38 -0.701 1.79 0
M  V30 191 C -36.916 -1.821 9.626 0
M  V30 192 C -45.648 -2.341 9.277 0
M  V30 193 N -37.089 -28.266 68.201 0 CFG=1 CHG=1 VAL=4
M  V30 194 C -36.63 -29.675 67.953 0
M  V30 195 C -35.123 -29.845 68.233 0
M  V30 196 C -34.653 -29.036 69.422 0 CFG=1
M  V30 197 C -35.52 -28.175 70.114 0
M  V30 198 C -36.95 -27.987 69.647 0 CFG=2
M  V30 199 C -33.33 -29.207 69.869 0
M  V30 200 C -32.837 -28.517 70.991 0
M  V30 201 C -33.671 -27.656 71.681 0
M  V30 202 C -34.998 -27.469 71.252 0
M  V30 203 O -33.153 -27.002 72.75 0
M  V30 204 C -33.593 -25.696 72.852 0 CFG=1
M  V30 205 C -33.029 -24.72 72.023 0
M  V30 206 C -33.539 -23.416 72.084 0
M  V30 207 C -34.565 -23.12 72.999 0
M  V30 208 C -35.129 -24.089 73.843 0 CFG=1
M  V30 209 C -34.663 -25.408 73.726 0
M  V30 210 C -36.308 -23.749 74.758 0
M  V30 211 C -36.114 -24.171 76.241 0 CFG=1
M  V30 212 N -35.435 -23.202 77.094 0 CFG=1 CHG=1 VAL=4
M  V30 213 C -36.306 -22.019 77.315 0
M  V30 214 C -37.656 -22.315 78.008 0
M  V30 215 C -38.224 -23.673 77.601 0 CFG=1
M  V30 216 C -37.479 -24.553 76.803 0
M  V30 217 C -39.494 -24.046 78.105 0
M  V30 218 C -40.021 -25.299 77.737 0 CFG=1
M  V30 219 C -39.295 -26.172 76.974 0
M  V30 220 C -38.055 -25.818 76.493 0 CFG=1
M  V30 221 O -37.398 -26.784 75.785 0
M  V30 222 C -37.612 -27.216 74.502 0
M  V30 223 C -37.124 -28.504 74.165 0
M  V30 224 C -37.276 -28.99 72.88 0
M  V30 225 C -37.93 -28.205 71.914 0 CFG=1
M  V30 226 C -38.419 -26.908 72.249 0
M  V30 227 C -38.279 -26.447 73.577 0
M  V30 228 C -37.995 -28.742 70.493 0
M  V30 229 O -31.559 -28.683 71.436 0
M  V30 230 C -30.561 -29.307 70.575 0
M  V30 231 O -32.012 -25.09 71.172 0
M  V30 232 O -41.215 -25.748 78.232 0
M  V30 233 C -41.674 -25.163 79.492 0
M  V30 234 O -39.83 -27.384 76.645 0
M  V30 235 C -36.323 -27.268 67.345 0
M  V30 236 C -35.135 -23.848 78.406 0
M  V30 237 C -34.146 -22.626 76.585 0
M  V30 238 C -39.371 -28.505 77.378 0
M  V30 239 C -38.535 -28.097 67.803 0
M  V30 240 C -31.327 -24.197 70.269 0
M  V30 241 N -62.382 -31.792 63.722 0 CFG=1 CHG=1 VAL=4
M  V30 242 C -63.401 -31.076 62.887 0
M  V30 243 C -63.995 -31.855 61.713 0
M  V30 244 C -63.943 -33.376 61.909 0 CFG=1
M  V30 245 C -63.387 -33.981 63.062 0
M  V30 246 C -62.864 -33.14 64.191 0 CFG=2
M  V30 247 C -64.418 -34.166 60.843 0
M  V30 248 C -64.403 -35.568 60.931 0
M  V30 249 C -63.869 -36.186 62.055 0
M  V30 250 C -63.353 -35.395 63.111 0
M  V30 251 O -63.896 -37.573 62.057 0
M  V30 252 C -63.269 -38.339 63.027 0
M  V30 253 C -62.034 -38.782 62.658 0 CFG=1
M  V30 254 C -61.259 -39.609 63.499 0
M  V30 255 C -61.783 -39.847 64.773 0
M  V30 256 C -63.009 -39.367 65.169 0 CFG=1
M  V30 257 C -63.799 -38.63 64.307 0
M  V30 258 C -63.516 -39.773 66.54 0
M  V30 259 C -64.97 -40.352 66.559 0 CFG=1
M  V30 260 N -64.901 -41.838 66.554 0 CFG=1 CHG=1 VAL=4
M  V30 261 C -64.187 -42.287 67.799 0
M  V30 262 C -65.119 -42.018 68.989 0
M  V30 263 C -65.747 -40.595 68.955 0 CFG=1
M  V30 264 C -65.702 -39.818 67.786 0
M  V30 265 C -66.434 -40.117 70.087 0
M  V30 266 C -67.035 -38.828 70.056 0
M  V30 267 C -66.99 -38.081 68.896 0
M  V30 268 C -66.352 -38.567 67.763 0
M  V30 269 O -66.371 -37.802 66.585 0
M  V30 270 C -65.79 -36.608 66.281 0
M  V30 271 C -66.436 -35.8 65.326 0
M  V30 272 C -65.866 -34.586 64.961 0
M  V30 273 C -64.665 -34.225 65.551 0
M  V30 274 C -64.027 -35.042 66.517 0
M  V30 275 C -64.574 -36.248 66.899 0
M  V30 276 C -63.995 -32.919 65.201 0
M  V30 277 O -64.874 -36.411 59.927 0
M  V30 278 C -65.746 -36.015 58.869 0
M  V30 279 O -61.676 -38.45 61.383 0
M  V30 280 O -67.726 -38.268 71.142 0
M  V30 281 C -67.752 -38.869 72.448 0
M  V30 282 O -67.595 -36.851 68.931 0
M  V30 283 C -61.113 -31.814 62.951 0
M  V30 284 C -66.272 -42.4 66.483 0
M  V30 285 C -64.295 -42.414 65.338 0
M  V30 286 C -68.566 -36.351 68.006 0
M  V30 287 C -62.137 -30.908 64.881 0
M  V30 288 C -60.308 -38.321 60.975 0
M  V30 289 N -30.042 -76.534 66.089 0 CFG=1 CHG=1 VAL=4
M  V30 290 C -31.288 -75.754 66.001 0
M  V30 291 C -32.607 -76.513 65.976 0
M  V30 292 C -32.525 -77.646 66.955 0
M  V30 293 C -31.335 -77.937 67.603 0
M  V30 294 C -30.031 -77.158 67.411 0 CFG=2
M  V30 295 C -33.695 -78.357 67.177 0
M  V30 296 C -33.723 -79.425 68.05 0
M  V30 297 C -32.534 -79.765 68.713 0
M  V30 298 C -31.363 -79.036 68.467 0
M  V30 299 O -32.503 -80.82 69.586 0
M  V30 300 C -31.33 -81.473 69.76 0 CFG=1
M  V30 301 C -30.894 -82.336 68.76 0
M  V30 302 C -29.644 -82.98 68.898 0
M  V30 303 C -28.908 -82.75 70.057 0
M  V30 304 C -29.371 -81.869 71.053 0 CFG=1
M  V30 305 C -30.586 -81.19 70.888 0
M  V30 306 C -28.48 -81.595 72.275 0
M  V30 307 C -29.131 -81.556 73.667 0 CFG=1
M  V30 308 N -29.128 -82.931 74.23 0 CFG=1 CHG=1 VAL=4
M  V30 309 C -27.723 -83.379 74.503 0
M  V30 310 C -27.055 -82.472 75.583 0
M  V30 311 C -27.37 -80.979 75.404 0
M  V30 312 C -28.357 -80.567 74.509 0
M  V30 313 C -26.674 -79.998 76.145 0
M  V30 314 C -26.979 -78.605 76.008 0
M  V30 315 C -27.986 -78.226 75.133 0 CFG=1
M  V30 316 C -28.61 -79.199 74.386 0 CFG=1
M  V30 317 O -29.585 -78.774 73.555 0
M  V30 318 C -29.474 -78.159 72.354 0
M  V30 319 C -30.629 -77.479 71.959 0
M  V30 320 C -30.682 -76.825 70.744 0
M  V30 321 C -29.569 -76.858 69.903 0
M  V30 322 C -28.405 -77.528 70.323 0
M  V30 323 C -28.328 -78.179 71.563 0
M  V30 324 C -29.675 -76.16 68.561 0
M  V30 325 O -34.867 -80.145 68.269 0
M  V30 326 C -36.041 -80.255 67.403 0
M  V30 327 O -31.726 -82.47 67.658 0
M  V30 328 O -26.326 -77.596 76.711 0
M  V30 329 C -25.469 -77.892 77.833 0
M  V30 330 O -28.262 -76.891 74.925 0
M  V30 331 C -30.014 -77.528 64.985 0
M  V30 332 C -29.889 -82.949 75.501 0
M  V30 333 C -29.719 -83.938 73.311 0
M  V30 334 C -29.455 -76.172 75.164 0
M  V30 335 C -28.863 -75.646 65.908 0
M  V30 336 C -31.727 -83.533 66.692 0
M  V30 337 N -59.936 -71.514 64.172 0 CFG=1 CHG=1 VAL=4
M  V30 338 C -59.584 -70.083 64.021 0
M  V30 339 C -60.786 -69.153 63.852 0
M  V30 340 C -61.673 -69.509 65.013 0
M  V30 341 C -61.546 -70.689 65.771 0
M  V30 342 C -60.523 -71.783 65.489 0 CFG=2
M  V30 343 C -62.63 -68.559 65.301 0
M  V30 344 C -63.511 -68.755 66.354 0
M  V30 345 C -63.42 -69.909 67.111 0
M  V30 346 C -62.441 -70.878 66.81 0
M  V30 347 O -64.303 -70.145 68.145 0
M  V30 348 C -64.8 -71.432 68.151 0 CFG=1
M  V30 349 C -65.787 -71.866 67.211 0 CFG=1
M  V30 350 C -66.198 -73.194 67.264 0
M  V30 351 C -65.625 -74.064 68.19 0
M  V30 352 C -64.639 -73.662 69.097 0 CFG=1
M  V30 353 C -64.206 -72.328 69.064 0
M  V30 354 C -64.048 -74.737 70.029 0
M  V30 355 C -64.212 -74.477 71.519 0 CFG=1
M  V30 356 N -65.48 -75.099 72.067 0 CFG=1 CHG=1 VAL=4
M  V30 357 C -65.378 -76.589 72.187 0
M  V30 358 C -64.252 -77.054 73.13 0
M  V30 359 C -63.058 -76.12 73.089 0
M  V30 360 C -63.013 -74.914 72.333 0
M  V30 361 C -61.967 -76.498 73.865 0
M  V30 362 C -60.794 -75.71 73.901 0
M  V30 363 C -60.725 -74.525 73.155 0
M  V30 364 C -61.824 -74.141 72.397 0
M  V30 365 O -61.652 -72.971 71.711 0
M  V30 366 C -61.092 -72.836 70.434 0 CFG=1
M  V30 367 C -60.496 -71.609 70.142 0
M  V30 368 C -59.961 -71.385 68.879 0
M  V30 369 C -60.012 -72.341 67.878 0
M  V30 370 C -60.623 -73.573 68.144 0
M  V30 371 C -61.156 -73.824 69.418 0
M  V30 372 C -59.42 -71.981 66.536 0
M  V30 373 O -64.476 -67.811 66.621 0
M  V30 374 C -64.922 -66.833 65.646 0
M  V30 375 O -66.425 -71.027 66.291 0
M  V30 376 O -59.775 -76.159 74.723 0
M  V30 377 C -60.068 -76.172 76.132 0
M  V30 378 O -59.586 -73.715 73.168 0
M  V30 379 C -60.886 -71.892 63.097 0
M  V30 380 C -65.799 -74.565 73.402 0
M  V30 381 C -66.67 -74.794 71.23 0
M  V30 382 C -59.338 -72.579 72.307 0
M  V30 383 C -58.74 -72.351 64.001 0
M  V30 384 C -66.46 -71.162 64.847 0
M  V30 385 H -42.474 -43.3906 10.9173 0
M  V30 386 H -41.139 -43.3096 12.2269 0
M  V30 387 H -43.7567 -42.2152 12.2629 0
M  V30 388 H -42.4213 -42.2105 13.5058 0
M  V30 389 H -41.5797 -40.5119 12.853 0
M  V30 390 H -40.9197 -39.9596 11.743 0
M  V30 391 H -40.4667 -40.1799 9.6945 0
M  V30 392 H -44.1285 -39.932 13.4078 0
M  V30 393 H -42.4217 -39.9511 14.1988 0
M  V30 394 H -42.0034 -38.3461 13.8225 0
M  V30 395 H -41.3771 -37.7533 12.7363 0
M  V30 396 H -40.7102 -38.2235 11.1202 0
M  V30 397 H -42.3813 -38.1943 10.2821 0
M  V30 398 H -42.2089 -34.6879 11.7472 0
M  V30 399 H -40.0116 -35.929 11.1936 0
M  V30 400 H -39.6417 -33.2619 11.3596 0
M  V30 401 H -38.8708 -34.758 10.5726 0
M  V30 402 H -40.4426 -32.8032 9.56369 0
M  V30 403 H -39.6683 -34.3902 8.88899 0
M  V30 404 H -41.1175 -35.2839 8.75461 0
M  V30 405 H -42.4638 -36.2204 9.53257 0
M  V30 406 H -43.242 -34.7332 10.3126 0
M  V30 407 H -41.4773 -33.3494 7.41765 0
M  V30 408 H -42.3198 -35.0251 7.389 0
M  V30 409 H -44.156 -33.6245 8.71353 0
M  V30 410 H -42.7294 -30.4064 6.44737 0
M  V30 411 H -41.8818 -32.0224 6.34309 0
M  V30 412 H -44.4919 -31.1524 5.06083 0
M  V30 413 H -43.0264 -31.8731 4.30304 0
M  V30 414 H -43.3034 -33.728 5.09543 0
M  V30 415 H -45.1873 -33.4926 6.89556 0
M  V30 416 H -45.7315 -33.157 4.00673 0
M  V30 417 H -44.0979 -34.0178 3.57479 0
M  V30 418 H -44.5538 -35.5795 4.0546 0
M  V30 419 H -44.5086 -36.2589 5.25097 0
M  V30 420 H -45.821 -34.7628 6.93165 0
M  V30 421 H -43.6227 -36.7117 8.83782 0
M  V30 422 H -44.8324 -37.4647 9.98014 0
M  V30 423 H -45.7767 -38.3164 8.59944 0
M  V30 424 H -43.9381 -39.2534 10.379 0
M  V30 425 H -44.937 -39.9926 8.9671 0
M  V30 426 H -43.6632 -40.0931 7.84388 0
M  V30 427 H -41.4715 -38.5133 8.0217 0
M  V30 428 H -42.5871 -39.3239 6.73309 0
M  V30 429 H -43.3687 -37.5693 6.29183 0
M  V30 430 H -42.3575 -36.7764 7.64384 0
M  V30 431 H -41.8088 -41.2778 8.02373 0
M  V30 432 H -43.0913 -41.6991 9.20603 0
M  V30 433 H -43.7818 -37.7329 16.3825 0
M  V30 434 H -45.2687 -37.7907 15.3762 0
M  V30 435 H -44.1297 -39.1796 15.3762 0
M  V30 436 H -46.4853 -34.0553 2.06641 0
M  V30 437 H -45.3299 -35.2617 1.40584 0
M  V30 438 H -47.0918 -35.6118 1.40584 0
M  V30 439 H -39.8977 -41.9699 12.4675 0
M  V30 440 H -38.9925 -42.7938 11.1528 0
M  V30 441 H -39.1456 -41.0041 11.1528 0
M  V30 442 H -44.9804 -31.3035 9.05954 0
M  V30 443 H -44.8933 -30.3683 7.52835 0
M  V30 444 H -45.5758 -32.0299 7.52835 0
M  V30 445 H -43.1097 -31.6889 9.77586 0
M  V30 446 H -41.6348 -31.7696 8.75367 0
M  V30 447 H -42.6475 -30.286 8.75367 0
M  V30 448 H -46.8372 -37.3472 7.4503 0
M  V30 449 H -48.0175 -36.8244 6.20115 0
M  V30 450 H -47.3973 -38.5103 6.20115 0
M  V30 451 H -40.2568 -43.9224 9.81343 0
M  V30 452 H -41.4936 -43.0547 8.84177 0
M  V30 453 H -39.7899 -42.4855 8.84177 0
M  V30 454 H -38.7758 -35.2044 14.4558 0
M  V30 455 H -38.1328 -36.0008 12.9797 0
M  V30 456 H -38.4523 -34.2332 12.9797 0
M  V30 457 H -15.6315 -43.509 5.57063 0
M  V30 458 H -15.3888 -43.7829 7.35191 0
M  V30 459 H -13.3422 -42.9624 6.00096 0
M  V30 460 H -13.1234 -44.4037 7.06804 0
M  V30 461 H -12.8243 -45.6204 5.67365 0
M  V30 462 H -13.6935 -46.5052 5.05027 0
M  V30 463 H -15.7267 -46.9774 4.63515 0
M  V30 464 H -11.8081 -43.4929 4.26639 0
M  V30 465 H -11.2178 -44.9357 5.346 0
M  V30 466 H -10.9584 -46.0333 4.1 0
M  V30 467 H -11.8198 -46.9331 3.47324 0
M  V30 468 H -13.5768 -47.4193 3.39918 0
M  V30 469 H -14.0513 -45.8645 2.41479 0
M  V30 470 H -11.3457 -48.3223 0.850653 0
M  V30 471 H -12.3242 -48.8998 3.18497 0
M  V30 472 H -11.131 -51.0372 2.04631 0
M  V30 473 H -12.46 -50.6235 3.30034 0
M  V30 474 H -12.6175 -51.5116 0.739056 0
M  V30 475 H -13.8605 -51.0138 2.06857 0
M  V30 476 H -14.3629 -49.557 1.34151 0
M  V30 477 H -14.0053 -47.8382 1.01868 0
M  V30 478 H -12.6725 -48.2416 -0.255688 0
M  V30 479 H -14.8066 -51.2138 -0.396416 0
M  V30 480 H -15.6295 -49.6149 0.0644522 0
M  V30 481 H -14.0667 -48.6908 -1.77397 0
M  V30 482 H -14.2018 -52.4786 -3.55828 0
M  V30 483 H -14.9009 -52.2587 -1.88998 0
M  V30 484 H -16.06 -51.5826 -4.57817 0
M  V30 485 H -16.8233 -52.2677 -3.05412 0
M  V30 486 H -17.1896 -50.5794 -2.22753 0
M  V30 487 H -15.5269 -48.8353 -3.22469 0
M  V30 488 H -17.8537 -49.8069 -4.80485 0
M  V30 489 H -18.7075 -50.4179 -3.2438 0
M  V30 490 H -19.0328 -48.8664 -2.56508 0
M  V30 491 H -18.2923 -48.0404 -1.74245 0
M  V30 492 H -16.047 -47.6022 -2.99036 0
M  V30 493 H -15.0987 -47.0753 0.213263 0
M  V30 494 H -14.4345 -45.4261 0.0745632 0
M  V30 495 H -16.0829 -44.6687 -0.396962 0
M  V30 496 H -14.6986 -44.6658 1.90622 0
M  V30 497 H -16.3684 -44.0081 1.33072 0
M  V30 498 H -17.324 -45.1139 2.17995 0
M  V30 499 H -16.5104 -47.6228 2.82478 0
M  V30 500 H -18.0372 -46.7506 2.25319 0
M  V30 501 H -17.7537 -47.4783 0.384391 0
M  V30 502 H -16.1166 -48.2211 0.958457 0
M  V30 503 H -17.4301 -45.0857 4.2713 0
M  V30 504 H -16.062 -44.0038 3.8703 0
M  V30 505 H -9.45342 -44.8966 4.93158 0
M  V30 506 H -8.25012 -45.6191 3.81052 0
M  V30 507 H -8.52509 -43.844 3.81052 0
M  V30 508 H -20.7024 -49.6635 -4.72908 0
M  V30 509 H -20.8602 -48.1782 -5.72691 0
M  V30 510 H -19.3188 -49.1007 -5.72691 0
M  V30 511 H -15.0497 -46.3095 8.13508 0
M  V30 512 H -15.2323 -47.5585 6.85702 0
M  V30 513 H -13.7986 -46.4764 6.85702 0
M  V30 514 H -13.3478 -48.9102 -3.84201 0
M  V30 515 H -12.9622 -50.5146 -4.55189 0
M  V30 516 H -14.6558 -49.916 -4.55189 0
M  V30 517 H -12.8709 -50.8529 -0.849664 0
M  V30 518 H -12.3503 -51.9216 -2.19633 0
M  V30 519 H -11.8868 -50.1862 -2.19633 0
M  V30 520 H -17.3441 -44.6896 -1.74888 0
M  V30 521 H -16.7465 -45.4446 -3.26529 0
M  V30 522 H -18.2941 -44.5329 -3.26529 0
M  V30 523 H -17.0643 -45.5003 7.75966 0
M  V30 524 H -17.5225 -44.5898 6.28058 0
M  V30 525 H -17.5698 -46.3854 6.28058 0
M  V30 526 H -10.018 -49.3277 5.16504 0
M  V30 527 H -10.075 -50.6096 3.90797 0
M  V30 528 H -8.73757 -49.4105 3.90797 0
M  V30 529 H -9.81155 1.11212 7.76219 0
M  V30 530 H -9.69217 1.48127 9.56945 0
M  V30 531 H -11.9092 1.95544 8.22679 0
M  V30 532 H -11.2791 3.0699 9.51585 0
M  V30 533 H -10.8072 4.49414 8.33477 0
M  V30 534 H -9.61465 4.80955 7.66832 0
M  V30 535 H -7.79432 4.14797 7.00624 0
M  V30 536 H -13.0024 3.80993 6.89713 0
M  V30 537 H -12.4453 5.03354 8.22996 0
M  V30 538 H -12.0254 6.29648 7.18679 0
M  V30 539 H -10.8293 6.64935 6.51394 0
M  V30 540 H -9.1732 5.94061 6.33869 0
M  V30 541 H -9.73374 4.72573 4.99091 0
M  V30 542 H -10.3469 8.52388 4.17025 0
M  V30 543 H -8.92113 7.77523 6.22718 0
M  V30 544 H -8.40442 10.3625 5.59483 0
M  V30 545 H -7.57045 8.89286 6.39075 0
M  V30 546 H -7.28561 10.0193 3.89698 0
M  V30 547 H -6.50934 8.54932 4.82224 0
M  V30 548 H -7.26586 7.3238 3.93459 0
M  V30 549 H -8.78671 6.38511 3.55052 0
M  V30 550 H -9.6173 7.85835 2.72317 0
M  V30 551 H -6.10824 8.63308 2.10406 0
M  V30 552 H -6.51036 6.82807 2.28275 0
M  V30 553 H -8.65112 7.5573 0.862563 0
M  V30 554 H -6.44276 10.613 -0.925034 0
M  V30 555 H -5.68788 9.80159 0.530599 0
M  V30 556 H -5.78393 8.92551 -2.33688 0
M  V30 557 H -4.46595 8.81103 -1.06194 0
M  V30 558 H -5.09116 7.16124 -0.264369 0
M  V30 559 H -7.61357 6.87337 -0.898685 0
M  V30 560 H -5.36796 6.40281 -2.85524 0
M  V30 561 H -4.15001 6.27376 -1.40145 0
M  V30 562 H -4.67215 4.74595 -0.829689 0
M  V30 563 H -5.63717 4.32629 0.087742 0
M  V30 564 H -7.86345 5.43948 -0.711845 0
M  V30 565 H -8.43819 5.24972 2.58058 0
M  V30 566 H -10.0063 4.31427 2.40581 0
M  V30 567 H -9.15851 2.80251 1.68978 0
M  V30 568 H -10.0951 3.3227 4.192 0
M  V30 569 H -9.21028 1.88424 3.37722 0
M  V30 570 H -7.66467 2.16256 4.09022 0
M  V30 571 H -6.91838 4.59916 4.95462 0
M  V30 572 H -6.22846 3.05008 4.09931 0
M  V30 573 H -6.04552 4.05948 2.4267 0
M  V30 574 H -6.86371 5.5376 3.20112 0
M  V30 575 H -7.2315 1.90552 6.12291 0
M  V30 576 H -9.00041 1.60484 5.84817 0
M  V30 577 H -14.29 6.33031 8.03522 0
M  V30 578 H -15.1864 7.24775 6.77763 0
M  V30 579 H -15.2246 5.45187 6.77763 0
M  V30 580 H -3.03323 4.39636 -3.29387 0
M  V30 581 H -3.99341 3.11799 -4.11271 0
M  V30 582 H -4.57562 4.81731 -4.11271 0
M  V30 583 H -8.43195 3.17777 10.3766 0
M  V30 584 H -7.32762 4.11633 9.31535 0
M  V30 585 H -9.08882 4.46965 9.31535 0
M  V30 586 H -9.45942 8.82593 -0.931495 0
M  V30 587 H -8.33614 9.95347 -1.7643 0
M  V30 588 H -8.00097 8.18872 -1.7643 0
M  V30 589 H -8.05994 9.90243 2.01677 0
M  V30 590 H -7.76305 11.1713 0.78043 0
M  V30 591 H -9.31239 10.2623 0.78043 0
M  V30 592 H -8.46668 2.07452 -0.0973782 0
M  V30 593 H -8.43283 3.10886 -1.56559 0
M  V30 594 H -7.59188 1.52158 -1.56559 0
M  V30 595 H -7.13068 1.58697 9.45999 0
M  V30 596 H -7.62962 0.83619 7.90627 0
M  V30 597 H -6.51106 2.24171 7.90627 0
M  V30 598 H -10.3524 9.25463 8.78906 0
M  V30 599 H -9.53326 10.4288 7.70414 0
M  V30 600 H -11.3253 10.3049 7.70414 0
M  V30 601 H -37.5085 -3.40648 11.1213 0
M  V30 602 H -39.3138 -2.84232 11.4106 0
M  V30 603 H -38.2679 -5.0778 9.76501 0
M  V30 604 H -39.5508 -5.02898 11.0252 0
M  V30 605 H -40.7744 -3.76087 9.90531 0
M  V30 606 H -40.7694 -2.54324 9.22192 0
M  V30 607 H -39.7526 -0.96138 8.7252 0
M  V30 608 H -40.5198 -6.07389 8.55677 0
M  V30 609 H -41.6754 -5.18558 9.77123 0
M  V30 610 H -42.7315 -4.5454 8.61785 0
M  V30 611 H -42.7499 -3.34037 7.90926 0
M  V30 612 H -41.6579 -1.89883 7.76652 0
M  V30 613 H -40.4905 -2.80262 6.55463 0
M  V30 614 H -44.2894 -2.48902 5.43234 0
M  V30 615 H -43.7242 -1.4767 7.78361 0
M  V30 616 H -46.0035 -0.439737 6.79314 0
M  V30 617 H -44.5974 -0.0120139 7.96513 0
M  V30 618 H -45.1722 0.816452 5.44104 0
M  V30 619 H -43.8011 1.14498 6.71844 0
M  V30 620 H -42.5782 0.315553 5.92501 0
M  V30 621 H -41.8421 -1.26518 5.4437 0
M  V30 622 H -43.2337 -1.67834 4.24802 0
M  V30 623 H -43.3242 2.02868 4.39514 0
M  V30 624 H -41.6999 1.14547 4.46674 0
M  V30 625 H -42.909 -0.334499 2.66603 0
M  V30 626 H -44.983 3.15676 1.59099 0
M  V30 627 H -44.0697 3.05778 3.17682 0
M  V30 628 H -43.1049 3.77637 0.442596 0
M  V30 629 H -42.5816 4.33729 2.09457 0
M  V30 630 H -41.2499 2.99576 2.34622 0
M  V30 631 H -41.958 0.819573 1.07419 0
M  V30 632 H -40.8143 3.2372 -0.296625 0
M  V30 633 H -40.1683 3.86586 1.36078 0
M  V30 634 H -38.9545 2.67507 1.57401 0
M  V30 635 H -38.9044 1.39633 2.15508 0
M  V30 636 H -40.797 0.0529512 0.942141 0
M  V30 637 H -40.8382 -1.25494 4.09845 0
M  V30 638 H -40.2019 -2.94074 3.9162 0
M  V30 639 H -38.5214 -2.37322 3.31768 0
M  V30 640 H -39.3774 -3.26823 5.73404 0
M  V30 641 H -37.7381 -2.6637 5.01499 0
M  V30 642 H -37.71 -1.1655 5.79887 0
M  V30 643 H -39.9354 0.0794415 6.68416 0
M  V30 644 H -38.2761 0.473711 5.92009 0
M  V30 645 H -39.1901 0.896451 4.19682 0
M  V30 646 H -40.8171 0.291803 4.91255 0
M  V30 647 H -37.3135 -1.07966 7.78819 0
M  V30 648 H -37.6722 -2.83239 7.4352 0
M  V30 649 H -43.3556 -6.32493 9.63274 0
M  V30 650 H -44.778 -6.5316 8.55538 0
M  V30 651 H -43.4656 -7.75807 8.55538 0
M  V30 652 H -37.8898 1.48817 -1.66866 0
M  V30 653 H -39.1773 2.71818 -1.90527 0
M  V30 654 H -37.4508 3.21384 -1.90527 0
M  V30 655 H -38.5526 -0.951474 11.7677 0
M  V30 656 H -37.8569 0.0503304 10.4489 0
M  V30 657 H -39.6096 -0.342987 10.4489 0
M  V30 658 H -44.2002 -0.189657 0.544381 0
M  V30 659 H -44.9652 1.37915 0.1197 0
M  V30 660 H -43.1757 1.22335 0.1197 0
M  V30 661 H -45.2544 0.816743 3.72042 0
M  V30 662 H -46.1682 1.41102 2.29268 0
M  V30 663 H -45.4824 -0.249202 2.29268 0
M  V30 664 H -37.5265 -0.491384 2.85987 0
M  V30 665 H -37.7786 -1.6987 1.55392 0
M  V30 666 H -36.3061 -0.669906 1.55392 0
M  V30 667 H -36.3544 -1.77416 10.5707 0
M  V30 668 H -36.5848 -2.69464 9.04544 0
M  V30 669 H -36.7341 -0.904566 9.04544 0
M  V30 670 H -44.955 -2.71698 10.0441 0
M  V30 671 H -45.7685 -1.25379 9.39299 0
M  V30 672 H -46.6251 -2.83268 9.39299 0
M  V30 673 H -37.193 -30.3537 68.6107 0
M  V30 674 H -36.8093 -29.9112 66.8937 0
M  V30 675 H -34.9196 -30.9082 68.4287 0
M  V30 676 H -34.5787 -29.4815 67.3489 0
M  V30 677 H -34.3711 -28.212 68.75 0
M  V30 678 H -35.2011 -27.3393 69.4738 0
M  V30 679 H -37.1776 -26.9228 69.8073 0
M  V30 680 H -33.2128 -30.2786 70.0879 0
M  V30 681 H -32.745 -28.7688 69.047 0
M  V30 682 H -32.5188 -27.6882 70.3415 0
M  V30 683 H -33.3459 -26.8253 71.0374 0
M  V30 684 H -35.1055 -26.397 71.0298 0
M  V30 685 H -35.5803 -27.8922 72.0838 0
M  V30 686 H -32.8229 -25.4959 73.6115 0
M  V30 687 H -33.7567 -24.9678 71.2362 0
M  V30 688 H -32.6949 -22.7522 72.3227 0
M  V30 689 H -34.017 -23.2773 71.1031 0
M  V30 690 H -34.1676 -22.3349 73.6591 0
M  V30 691 H -35.4054 -22.8916 72.3271 0
M  V30 692 H -35.9028 -24.2955 73.0889 0
M  V30 693 H -35.5163 -26.02 73.3983 0
M  V30 694 H -34.2459 -25.6218 74.7211 0
M  V30 695 H -36.4638 -22.6605 74.7279 0
M  V30 696 H -37.1712 -24.3171 74.3809 0
M  V30 697 H -35.4221 -25.0261 76.2422 0
M  V30 698 H -35.7533 -21.3015 77.9392 0
M  V30 699 H -36.5545 -21.6323 76.3157 0
M  V30 700 H -37.5052 -22.3055 79.0976 0
M  V30 701 H -38.3733 -21.5407 77.6981 0
M  V30 702 H -38.6579 -23.2206 76.6971 0
M  V30 703 H -36.9947 -24.9593 77.7032 0
M  V30 704 H -39.4245 -24.0326 79.2027 0
M  V30 705 H -40.1865 -23.3196 77.6547 0
M  V30 706 H -40.4438 -24.8532 76.8246 0
M  V30 707 H -39.7633 -25.7669 76.0649 0
M  V30 708 H -37.5842 -26.2516 77.3876 0
M  V30 709 H -36.6542 -26.7722 74.1928 0
M  V30 710 H -36.0445 -28.4989 74.3761 0
M  V30 711 H -37.7556 -29.1764 74.7641 0
M  V30 712 H -36.2665 -29.1956 72.4946 0
M  V30 713 H -37.947 -29.8522 73.0085 0
M  V30 714 H -38.8941 -28.6448 72.2093 0
M  V30 715 H -37.8966 -26.1889 71.601 0
M  V30 716 H -39.5071 -26.9917 72.1113 0
M  V30 717 H -39.295 -26.289 73.9678 0
M  V30 718 H -37.6362 -25.5605 73.4722 0
M  V30 719 H -39.0002 -28.5773 70.0778 0
M  V30 720 H -37.7846 -29.8217 70.4837 0
M  V30 721 H -29.7909 -29.7885 71.1956 0
M  V30 722 H -31.0458 -30.0631 69.94 0
M  V30 723 H -30.0935 -28.54 69.94 0
M  V30 724 H -41.2377 -25.7191 80.3349 0
M  V30 725 H -41.3581 -24.1106 79.5442 0
M  V30 726 H -42.7713 -25.2195 79.5442 0
M  V30 727 H -35.7832 -26.5647 67.9962 0
M  V30 728 H -35.6036 -27.8058 66.71 0
M  V30 729 H -37.0285 -26.7121 66.71 0
M  V30 730 H -35.4452 -23.18 79.223 0
M  V30 731 H -35.684 -24.7983 78.4808 0
M  V30 732 H -34.0548 -24.0417 78.4808 0
M  V30 733 H -33.51 -22.3418 77.4363 0
M  V30 734 H -33.6252 -23.377 75.9728 0
M  V30 735 H -34.3581 -21.737 75.9728 0
M  V30 736 H -39.4556 -28.2984 78.4551 0
M  V30 737 H -39.9816 -29.3841 77.1242 0
M  V30 738 H -38.3192 -28.7034 77.1242 0
M  V30 739 H -39.1579 -28.0242 68.7067 0
M  V30 740 H -38.6462 -27.1797 67.2061 0
M  V30 741 H -38.8547 -28.9639 67.2061 0
M  V30 742 H -30.7579 -23.4551 70.8485 0
M  V30 743 H -30.6378 -24.7742 69.6351 0
M  V30 744 H -32.0631 -23.6809 69.6351 0
M  V30 745 H -64.2305 -30.7862 63.5488 0
M  V30 746 H -62.8613 -30.2326 62.4315 0
M  V30 747 H -65.0458 -31.5541 61.5896 0
M  V30 748 H -63.3907 -31.6189 60.8247 0
M  V30 749 H -62.9587 -33.4055 61.4189 0
M  V30 750 H -62.3932 -33.9661 62.5906 0
M  V30 751 H -62.0124 -33.6723 64.6399 0
M  V30 752 H -65.4647 -33.8722 60.6755 0
M  V30 753 H -63.6925 -33.9613 60.0419 0
M  V30 754 H -63.4138 -35.5876 60.4503 0
M  V30 755 H -62.8777 -36.1963 61.5784 0
M  V30 756 H -62.2952 -35.6761 63.2207 0
M  V30 757 H -64.047 -35.6192 63.9344 0
M  V30 758 H -63.7216 -39.2472 62.6024 0
M  V30 759 H -61.5781 -37.8909 63.1141 0
M  V30 760 H -61.1379 -40.5805 62.9975 0
M  V30 761 H -60.3156 -39.0672 63.6618 0
M  V30 762 H -61.8328 -40.9403 64.8835 0
M  V30 763 H -61.0979 -39.2686 65.4103 0
M  V30 764 H -62.5321 -38.4413 65.5234 0
M  V30 765 H -64.0189 -37.6711 64.7991 0
M  V30 766 H -64.6736 -39.2678 64.1115 0
M  V30 767 H -62.8374 -40.5397 66.9422 0
M  V30 768 H -63.5414 -38.8543 67.1445 0
M  V30 769 H -65.5304 -40.0365 65.6666 0
M  V30 770 H -63.9604 -43.3615 67.735 0
M  V30 771 H -63.2388 -41.7424 67.9191 0
M  V30 772 H -65.9305 -42.7605 68.9744 0
M  V30 773 H -64.5147 -42.0909 69.9053 0
M  V30 774 H -64.788 -40.164 69.2784 0
M  V30 775 H -66.6321 -40.2899 67.4365 0
M  V30 776 H -67.2369 -40.838 70.3005 0
M  V30 777 H -65.6406 -40.0109 70.8415 0
M  V30 778 H -66.0861 -38.3777 70.3828 0
M  V30 779 H -66.0481 -37.6207 69.229 0
M  V30 780 H -67.2849 -39.0575 67.4481 0
M  V30 781 H -65.2125 -37.0929 65.4801 0
M  V30 782 H -66.5276 -36.3996 64.4084 0
M  V30 783 H -67.3719 -35.5074 65.8245 0
M  V30 784 H -65.6996 -34.617 63.8741 0
M  V30 785 H -66.5826 -33.83 65.3145 0
M  V30 786 H -65.2138 -33.7072 66.3514 0
M  V30 787 H -63.0233 -35.2638 66.1253 0
M  V30 788 H -64.1057 -34.4393 67.4338 0
M  V30 789 H -64.749 -36.2076 67.9842 0
M  V30 790 H -63.848 -37.0117 66.5834 0
M  V30 791 H -63.5792 -32.4708 66.1154 0
M  V30 792 H -64.7427 -32.249 64.7514 0
M  V30 793 H -66.6701 -35.5953 59.2932 0
M  V30 794 H -65.2486 -35.2544 58.2492 0
M  V30 795 H -65.9914 -36.89 58.2492 0
M  V30 796 H -67.7179 -38.0812 73.2149 0
M  V30 797 H -68.6763 -39.454 72.5641 0
M  V30 798 H -66.8817 -39.5316 72.5641 0
M  V30 799 H -60.2613 -31.8288 63.647 0
M  V30 800 H -61.0844 -32.7128 62.3174 0
M  V30 801 H -61.0533 -30.9168 62.3174 0
M  V30 802 H -66.6568 -42.5577 67.5014 0
M  V30 803 H -66.9286 -41.6985 65.9475 0
M  V30 804 H -66.2473 -43.3605 65.9475 0
M  V30 805 H -63.525 -43.1459 65.6234 0
M  V30 806 H -65.0729 -42.9137 64.7421 0
M  V30 807 H -63.8354 -41.6117 64.7421 0
M  V30 808 H -69.4107 -35.9161 68.5604 0
M  V30 809 H -68.1056 -35.5778 67.3733 0
M  V30 810 H -68.928 -37.1748 67.3733 0
M  V30 811 H -62.2934 -31.4724 65.8121 0
M  V30 812 H -61.1021 -30.5368 64.8467 0
M  V30 813 H -62.8331 -30.057 64.8467 0
M  V30 814 H -59.6642 -38.2603 61.8648 0
M  V30 815 H -60.0207 -39.196 60.3735 0
M  V30 816 H -60.1893 -37.4077 60.3735 0
M  V30 817 H -31.3145 -75.081 66.8707 0
M  V30 818 H -31.2354 -75.263 65.0181 0
M  V30 819 H -33.4285 -75.838 66.2581 0
M  V30 820 H -32.7976 -76.9026 64.9651 0
M  V30 821 H -32.2484 -78.3305 66.1396 0
M  V30 822 H -31.0527 -78.6119 66.7816 0
M  V30 823 H -29.2066 -77.8841 67.4677 0
M  V30 824 H -34.4361 -77.6324 67.5455 0
M  V30 825 H -33.8753 -78.8359 66.2033 0
M  V30 826 H -33.4584 -80.1049 67.2268 0
M  V30 827 H -32.2759 -80.4552 67.8963 0
M  V30 828 H -30.6313 -79.7557 68.0712 0
M  V30 829 H -31.1798 -78.5631 69.4431 0
M  V30 830 H -31.8643 -82.3038 70.244 0
M  V30 831 H -30.4041 -81.4949 68.2477 0
M  V30 832 H -29.8271 -84.063 68.8379 0
M  V30 833 H -29.0271 -82.5508 68.0948 0
M  V30 834 H -28.7775 -83.7284 70.5425 0
M  V30 835 H -28.0158 -82.2321 69.6752 0
M  V30 836 H -28.8404 -81.0382 70.5648 0
M  V30 837 H -30.3614 -80.1133 70.8721 0
M  V30 838 H -31.2113 -81.53 71.7267 0
M  V30 839 H -27.7113 -82.3815 72.2986 0
M  V30 840 H -28.1196 -80.5675 72.1189 0
M  V30 841 H -30.1792 -81.2242 73.6332 0
M  V30 842 H -27.7389 -84.4181 74.8637 0
M  V30 843 H -27.1416 -83.3071 73.572 0
M  V30 844 H -27.4133 -82.7878 76.5739 0
M  V30 845 H -25.9663 -82.5895 75.4782 0
M  V30 846 H -26.618 -80.9163 74.6036 0
M  V30 847 H -29.1129 -80.6519 75.3036 0
M  V30 848 H -26.8228 -80.2461 77.2063 0
M  V30 849 H -25.6579 -80.0614 75.7285 0
M  V30 850 H -26.2422 -78.5236 75.1953 0
M  V30 851 H -27.2414 -78.0906 74.3347 0
M  V30 852 H -29.4002 -79.2767 75.1473 0
M  V30 853 H -29.8387 -79.0686 71.8545 0
M  V30 854 H -31.4427 -78.2192 71.953 0
M  V30 855 H -30.6874 -76.6538 72.684 0
M  V30 856 H -31.5222 -77.259 70.182 0
M  V30 857 H -30.7679 -75.7642 71.022 0
M  V30 858 H -29.1977 -75.9278 70.3579 0
M  V30 859 H -28.1981 -78.2932 69.5603 0
M  V30 860 H -27.6954 -76.6977 70.4539 0
M  V30 861 H -27.5184 -77.7057 72.1378 0
M  V30 862 H -28.1626 -79.2395 71.322 0
M  V30 863 H -28.7111 -75.6823 68.3315 0
M  V30 864 H -30.4813 -75.4147 68.6272 0
M  V30 865 H -36.9465 -80.3398 68.0218 0
M  V30 866 H -36.1134 -79.3597 66.768 0
M  V30 867 H -35.9458 -81.1482 66.768 0
M  V30 868 H -26.0136 -77.7039 78.77 0
M  V30 869 H -25.1632 -78.9478 77.7923 0
M  V30 870 H -24.5767 -77.25 77.7923 0
M  V30 871 H -29.9854 -78.5436 65.4066 0
M  V30 872 H -30.9157 -77.4134 64.3655 0
M  V30 873 H -29.1202 -77.3629 64.3655 0
M  V30 874 H -29.1879 -82.9324 76.3484 0
M  V30 875 H -30.5433 -82.0661 75.5491 0
M  V30 876 H -30.5008 -83.8619 75.5491 0
M  V30 877 H -30.1895 -84.7397 73.8992 0
M  V30 878 H -30.4771 -83.4553 72.6767 0
M  V30 879 H -28.9279 -84.3645 72.6767 0
M  V30 880 H -29.6143 -76.076 76.2482 0
M  V30 881 H -29.376 -75.171 74.7149 0
M  V30 882 H -30.3032 -76.7094 74.7149 0
M  V30 883 H -28.4715 -75.3511 66.8928 0
M  V30 884 H -28.0824 -76.1824 65.3487 0
M  V30 885 H -29.1631 -74.7476 65.3487 0
M  V30 886 H -31.7279 -84.5018 67.2129 0
M  V30 887 H -32.6251 -83.4548 66.0616 0
M  V30 888 H -30.8288 -83.4565 66.0616 0
M  V30 889 H -59.0286 -69.7686 64.9169 0
M  V30 890 H -58.9903 -70.0006 63.0987 0
M  V30 891 H -60.4771 -68.0985 63.9024 0
M  V30 892 H -61.2858 -69.2722 62.8794 0
M  V30 893 H -62.3632 -70.0233 64.328 0
M  V30 894 H -62.2663 -71.1918 65.1089 0
M  V30 895 H -61.0749 -72.7338 65.5262 0
M  V30 896 H -62.0935 -67.6211 65.5071 0
M  V30 897 H -63.2846 -68.5858 64.4174 0
M  V30 898 H -64.2135 -69.2573 65.6727 0
M  V30 899 H -64.1251 -70.4103 66.4316 0
M  V30 900 H -62.9813 -71.8109 66.5914 0
M  V30 901 H -61.7912 -70.8487 67.6971 0
M  V30 902 H -65.5962 -71.1213 68.8435 0
M  V30 903 H -64.9916 -72.1405 66.5025 0
M  V30 904 H -67.2795 -73.184 67.4645 0
M  V30 905 H -65.867 -73.6001 66.2968 0
M  V30 906 H -66.4561 -74.4529 68.7967 0
M  V30 907 H -65.0612 -74.7454 67.5359 0
M  V30 908 H -63.8595 -73.933 68.3697 0
M  V30 909 H -63.1289 -72.3456 68.8416 0
M  V30 910 H -64.5028 -71.9333 70.0469 0
M  V30 911 H -64.5387 -75.6936 69.7963 0
M  V30 912 H -62.9642 -74.7359 69.8407 0
M  V30 913 H -64.291 -73.3844 71.6193 0
M  V30 914 H -66.3345 -76.9737 72.5706 0
M  V30 915 H -65.143 -76.9789 71.1856 0
M  V30 916 H -64.6411 -77.0888 74.1583 0
M  V30 917 H -63.9185 -78.0483 72.7982 0
M  V30 918 H -62.654 -76.6742 72.229 0
M  V30 919 H -63.3981 -74.3564 73.1995 0
M  V30 920 H -62.3291 -76.5683 74.9013 0
M  V30 921 H -61.6254 -77.4198 73.3714 0
M  V30 922 H -60.3903 -76.2719 73.0458 0
M  V30 923 H -60.3299 -75.0883 72.2968 0
M  V30 924 H -62.2276 -73.5917 73.2604 0
M  V30 925 H -62.0528 -72.4601 70.0524 0
M  V30 926 H -61.2613 -70.836 70.3056 0
M  V30 927 H -59.6145 -71.5903 70.7998 0
M  V30 928 H -60.4728 -70.4961 68.4816 0
M  V30 929 H -58.8831 -71.3324 69.0919 0
M  V30 930 H -59.047 -72.7466 68.2162 0
M  V30 931 H -61.449 -73.6812 67.4256 0
M  V30 932 H -59.7941 -74.292 68.0668 0
M  V30 933 H -60.6352 -74.7109 69.808 0
M  V30 934 H -62.2352 -73.9069 69.222 0
M  V30 935 H -58.7523 -72.7911 66.2075 0
M  V30 936 H -58.8592 -71.0403 66.6392 0
M  V30 937 H -65.3238 -65.9519 66.1678 0
M  V30 938 H -64.073 -66.5302 65.0156 0
M  V30 939 H -65.7073 -67.2755 65.0156 0
M  V30 940 H -59.1283 -76.1303 76.7023 0
M  V30 941 H -60.6896 -75.3006 76.3853 0
M  V30 942 H -60.61 -77.0951 76.3853 0
M  V30 943 H -61.819 -72.2632 63.5461 0
M  V30 944 H -61.1037 -71.012 62.4739 0
M  V30 945 H -60.4396 -72.681 62.4739 0
M  V30 946 H -65.3963 -75.2391 74.1724 0
M  V30 947 H -65.3484 -73.5679 73.5154 0
M  V30 948 H -66.8905 -74.4891 73.5154 0
M  V30 949 H -67.5292 -74.5738 71.8806 0
M  V30 950 H -66.4577 -73.9212 70.595 0
M  V30 951 H -66.9037 -75.6613 70.595 0
M  V30 952 H -59.1435 -71.6881 72.9223 0
M  V30 953 H -58.4635 -72.7841 71.6721 0
M  V30 954 H -60.2184 -72.401 71.6721 0
M  V30 955 H -58.3428 -72.629 64.9884 0
M  V30 956 H -59.006 -73.2611 63.4433 0
M  V30 957 H -57.9761 -71.7894 63.4433 0
M  V30 958 H -66.7279 -72.1954 64.5817 0
M  V30 959 H -67.2087 -70.4711 64.4322 0
M  V30 960 H -65.4699 -70.9219 64.4322 0
M  V30 END ATOM
M  V30 BEGIN BOND
M  V30 1 1 1 2
M  V30 2 1 2 3
M  V30 3 1 3 4
M  V30 4 1 4 5
M  V30 5 1 1 6
M  V30 6 1 5 6
M  V30 7 1 4 7
M  V30 8 1 7 8
M  V30 9 1 8 9
M  V30 10 1 5 10
M  V30 11 1 9 10
M  V30 12 1 9 11
M  V30 13 1 11 12
M  V30 14 1 12 13
M  V30 15 1 13 14
M  V30 16 1 14 15
M  V30 17 1 15 16
M  V30 18 1 12 17
M  V30 19 1 16 17
M  V30 20 1 16 18
M  V30 21 1 18 19
M  V30 22 1 19 20
M  V30 23 1 20 21
M  V30 24 1 21 22
M  V30 25 1 22 23
M  V30 26 1 19 24
M  V30 27 1 23 24
M  V30 28 1 23 25
M  V30 29 1 25 26
M  V30 30 1 26 27
M  V30 31 1 24 28
M  V30 32 1 27 28
M  V30 33 1 28 29
M  V30 34 1 29 30
M  V30 35 1 30 31
M  V30 36 1 31 32
M  V30 37 1 32 33
M  V30 38 1 33 34
M  V30 39 1 30 35
M  V30 40 1 34 35
M  V30 41 1 6 36
M  V30 42 1 33 36
M  V30 43 1 8 37
M  V30 44 1 37 38
M  V30 45 1 13 39
M  V30 46 1 26 40
M  V30 47 1 40 41
M  V30 48 1 27 42
M  V30 49 1 1 43 CFG=1
M  V30 50 1 20 44 CFG=1
M  V30 51 1 20 45
M  V30 52 1 42 46
M  V30 53 1 1 47
M  V30 54 1 39 48
M  V30 55 1 49 50
M  V30 56 1 50 51
M  V30 57 1 51 52
M  V30 58 1 52 53
M  V30 59 1 49 54
M  V30 60 1 53 54
M  V30 61 1 52 55
M  V30 62 1 55 56
M  V30 63 1 56 57
M  V30 64 1 53 58
M  V30 65 1 57 58
M  V30 66 1 57 59
M  V30 67 1 59 60
M  V30 68 1 60 61
M  V30 69 1 61 62
M  V30 70 1 62 63
M  V30 71 1 63 64
M  V30 72 1 60 65
M  V30 73 1 64 65
M  V30 74 1 64 66
M  V30 75 1 66 67
M  V30 76 1 67 68
M  V30 77 1 68 69
M  V30 78 1 69 70
M  V30 79 1 70 71
M  V30 80 1 67 72
M  V30 81 1 71 72
M  V30 82 1 71 73
M  V30 83 1 73 74
M  V30 84 1 74 75
M  V30 85 1 72 76
M  V30 86 1 75 76
M  V30 87 1 76 77
M  V30 88 1 77 78
M  V30 89 1 78 79
M  V30 90 1 79 80
M  V30 91 1 80 81
M  V30 92 1 81 82
M  V30 93 1 78 83
M  V30 94 1 82 83
M  V30 95 1 54 84
M  V30 96 1 81 84
M  V30 97 1 56 85
M  V30 98 1 85 86
M  V30 99 1 61 87
M  V30 100 1 74 88
M  V30 101 1 88 89
M  V30 102 1 75 90
M  V30 103 1 49 91 CFG=1
M  V30 104 1 68 92 CFG=3
M  V30 105 1 68 93
M  V30 106 1 90 94
M  V30 107 1 49 95
M  V30 108 1 87 96
M  V30 109 1 97 98
M  V30 110 1 98 99
M  V30 111 1 99 100
M  V30 112 1 100 101
M  V30 113 1 97 102
M  V30 114 1 101 102
M  V30 115 1 100 103
M  V30 116 1 103 104
M  V30 117 1 104 105
M  V30 118 1 101 106
M  V30 119 1 105 106
M  V30 120 1 105 107
M  V30 121 1 107 108
M  V30 122 1 108 109
M  V30 123 1 109 110
M  V30 124 1 110 111
M  V30 125 1 111 112
M  V30 126 1 108 113
M  V30 127 1 112 113
M  V30 128 1 112 114
M  V30 129 1 114 115
M  V30 130 1 115 116
M  V30 131 1 116 117
M  V30 132 1 117 118
M  V30 133 1 118 119
M  V30 134 1 115 120
M  V30 135 1 119 120
M  V30 136 1 119 121
M  V30 137 1 121 122
M  V30 138 1 122 123
M  V30 139 1 120 124
M  V30 140 1 123 124
M  V30 141 1 124 125
M  V30 142 1 125 126
M  V30 143 1 126 127
M  V30 144 1 127 128
M  V30 145 1 128 129
M  V30 146 1 129 130
M  V30 147 1 126 131
M  V30 148 1 130 131
M  V30 149 1 102 132
M  V30 150 1 129 132
M  V30 151 1 104 133
M  V30 152 1 133 134
M  V30 153 1 109 135
M  V30 154 1 122 136
M  V30 155 1 136 137
M  V30 156 1 123 138
M  V30 157 1 97 139 CFG=1
M  V30 158 1 116 140 CFG=3
M  V30 159 1 116 141
M  V30 160 1 138 142
M  V30 161 1 97 143
M  V30 162 1 135 144
M  V30 163 1 145 146
M  V30 164 1 146 147
M  V30 165 1 147 148
M  V30 166 1 148 149
M  V30 167 1 145 150
M  V30 168 1 149 150
M  V30 169 1 148 151
M  V30 170 1 151 152
M  V30 171 1 152 153
M  V30 172 1 149 154
M  V30 173 1 153 154
M  V30 174 1 153 155
M  V30 175 1 155 156
M  V30 176 1 156 157
M  V30 177 1 157 158
M  V30 178 1 158 159
M  V30 179 1 159 160
M  V30 180 1 156 161
M  V30 181 1 160 161
M  V30 182 1 160 162
M  V30 183 1 162 163
M  V30 184 1 163 164
M  V30 185 1 164 165
M  V30 186 1 165 166
M  V30 187 1 166 167
M  V30 188 1 163 168
M  V30 189 1 167 168
M  V30 190 1 167 169
M  V30 191 1 169 170
M  V30 192 1 170 171
M  V30 193 1 168 172
M  V30 194 1 171 172
M  V30 195 1 172 173
M  V30 196 1 173 174
M  V30 197 1 174 175
M  V30 198 1 175 176
M  V30 199 1 176 177
M  V30 200 1 177 178
M  V30 201 1 174 179
M  V30 202 1 178 179
M  V30 203 1 150 180
M  V30 204 1 177 180
M  V30 205 1 152 181
M  V30 206 1 181 182
M  V30 207 1 157 183
M  V30 208 1 170 184
M  V30 209 1 184 185
M  V30 210 1 171 186
M  V30 211 1 145 187 CFG=1
M  V30 212 1 164 188 CFG=3
M  V30 213 1 164 189
M  V30 214 1 186 190
M  V30 215 1 145 191
M  V30 216 1 183 192
M  V30 217 1 193 194
M  V30 218 1 194 195
M  V30 219 1 195 196
M  V30 220 1 196 197
M  V30 221 1 193 198
M  V30 222 1 197 198
M  V30 223 1 196 199
M  V30 224 1 199 200
M  V30 225 1 200 201
M  V30 226 1 197 202
M  V30 227 1 201 202
M  V30 228 1 201 203
M  V30 229 1 203 204
M  V30 230 1 204 205
M  V30 231 1 205 206
M  V30 232 1 206 207
M  V30 233 1 207 208
M  V30 234 1 204 209
M  V30 235 1 208 209
M  V30 236 1 208 210
M  V30 237 1 210 211
M  V30 238 1 211 212
M  V30 239 1 212 213
M  V30 240 1 213 214
M  V30 241 1 214 215
M  V30 242 1 211 216
M  V30 243 1 215 216
M  V30 244 1 215 217
M  V30 245 1 217 218
M  V30 246 1 218 219
M  V30 247 1 216 220
M  V30 248 1 219 220
M  V30 249 1 220 221
M  V30 250 1 221 222
M  V30 251 1 222 223
M  V30 252 1 223 224
M  V30 253 1 224 225
M  V30 254 1 225 226
M  V30 255 1 222 227
M  V30 256 1 226 227
M  V30 257 1 198 228
M  V30 258 1 225 228
M  V30 259 1 200 229
M  V30 260 1 229 230
M  V30 261 1 205 231
M  V30 262 1 218 232
M  V30 263 1 232 233
M  V30 264 1 219 234
M  V30 265 1 193 235 CFG=3
M  V30 266 1 212 236 CFG=1
M  V30 267 1 212 237
M  V30 268 1 234 238
M  V30 269 1 193 239
M  V30 270 1 231 240
M  V30 271 1 241 242
M  V30 272 1 242 243
M  V30 273 1 243 244
M  V30 274 1 244 245
M  V30 275 1 241 246
M  V30 276 1 245 246
M  V30 277 1 244 247
M  V30 278 1 247 248
M  V30 279 1 248 249
M  V30 280 1 245 250
M  V30 281 1 249 250
M  V30 282 1 249 251
M  V30 283 1 251 252
M  V30 284 1 252 253
M  V30 285 1 253 254
M  V30 286 1 254 255
M  V30 287 1 255 256
M  V30 288 1 252 257
M  V30 289 1 256 257
M  V30 290 1 256 258
M  V30 291 1 258 259
M  V30 292 1 259 260
M  V30 293 1 260 261
M  V30 294 1 261 262
M  V30 295 1 262 263
M  V30 296 1 259 264
M  V30 297 1 263 264
M  V30 298 1 263 265
M  V30 299 1 265 266
M  V30 300 1 266 267
M  V30 301 1 264 268
M  V30 302 1 267 268
M  V30 303 1 268 269
M  V30 304 1 269 270
M  V30 305 1 270 271
M  V30 306 1 271 272
M  V30 307 1 272 273
M  V30 308 1 273 274
M  V30 309 1 270 275
M  V30 310 1 274 275
M  V30 311 1 246 276
M  V30 312 1 273 276
M  V30 313 1 248 277
M  V30 314 1 277 278
M  V30 315 1 253 279
M  V30 316 1 266 280
M  V30 317 1 280 281
M  V30 318 1 267 282
M  V30 319 1 241 283 CFG=3
M  V30 320 1 260 284 CFG=1
M  V30 321 1 260 285
M  V30 322 1 282 286
M  V30 323 1 241 287
M  V30 324 1 279 288
M  V30 325 1 289 290
M  V30 326 1 290 291
M  V30 327 1 291 292
M  V30 328 1 292 293
M  V30 329 1 289 294
M  V30 330 1 293 294
M  V30 331 1 292 295
M  V30 332 1 295 296
M  V30 333 1 296 297
M  V30 334 1 293 298
M  V30 335 1 297 298
M  V30 336 1 297 299
M  V30 337 1 299 300
M  V30 338 1 300 301
M  V30 339 1 301 302
M  V30 340 1 302 303
M  V30 341 1 303 304
M  V30 342 1 300 305
M  V30 343 1 304 305
M  V30 344 1 304 306
M  V30 345 1 306 307
M  V30 346 1 307 308
M  V30 347 1 308 309
M  V30 348 1 309 310
M  V30 349 1 310 311
M  V30 350 1 307 312
M  V30 351 1 311 312
M  V30 352 1 311 313
M  V30 353 1 313 314
M  V30 354 1 314 315
M  V30 355 1 312 316
M  V30 356 1 315 316
M  V30 357 1 316 317
M  V30 358 1 317 318
M  V30 359 1 318 319
M  V30 360 1 319 320
M  V30 361 1 320 321
M  V30 362 1 321 322
M  V30 363 1 318 323
M  V30 364 1 322 323
M  V30 365 1 294 324
M  V30 366 1 321 324
M  V30 367 1 296 325
M  V30 368 1 325 326
M  V30 369 1 301 327
M  V30 370 1 314 328
M  V30 371 1 328 329
M  V30 372 1 315 330
M  V30 373 1 289 331 CFG=3
M  V30 374 1 308 332 CFG=1
M  V30 375 1 308 333
M  V30 376 1 330 334
M  V30 377 1 289 335
M  V30 378 1 327 336
M  V30 379 1 337 338
M  V30 380 1 338 339
M  V30 381 1 339 340
M  V30 382 1 340 341
M  V30 383 1 337 342
M  V30 384 1 341 342
M  V30 385 1 340 343
M  V30 386 1 343 344
M  V30 387 1 344 345
M  V30 388 1 341 346
M  V30 389 1 345 346
M  V30 390 1 345 347
M  V30 391 1 347 348
M  V30 392 1 348 349
M  V30 393 1 349 350
M  V30 394 1 350 351
M  V30 395 1 351 352
M  V30 396 1 348 353
M  V30 397 1 352 353
M  V30 398 1 352 354
M  V30 399 1 354 355
M  V30 400 1 355 356
M  V30 401 1 356 357
M  V30 402 1 357 358
M  V30 403 1 358 359
M  V30 404 1 355 360
M  V30 405 1 359 360
M  V30 406 1 359 361
M  V30 407 1 361 362
M  V30 408 1 362 363
M  V30 409 1 360 364
M  V30 410 1 363 364
M  V30 411 1 364 365
M  V30 412 1 365 366
M  V30 413 1 366 367
M  V30 414 1 367 368
M  V30 415 1 368 369
M  V30 416 1 369 370
M  V30 417 1 366 371
M  V30 418 1 370 371
M  V30 419 1 342 372
M  V30 420 1 369 372
M  V30 421 1 344 373
M  V30 422 1 373 374
M  V30 423 1 349 375
M  V30 424 1 362 376
M  V30 425 1 376 377
M  V30 426 1 363 378
M  V30 427 1 337 379 CFG=3
M  V30 428 1 356 380 CFG=1
M  V30 429 1 356 381
M  V30 430 1 378 382
M  V30 431 1 337 383
M  V30 432 1 375 384
M  V30 433 1 2 385
M  V30 434 1 2 386
M  V30 435 1 3 387
M  V30 436 1 3 388
M  V30 437 1 4 389
M  V30 438 1 5 390
M  V30 439 1 6 391 CFG=3
M  V30 440 1 7 392
M  V30 441 1 7 393
M  V30 442 1 8 394
M  V30 443 1 9 395
M  V30 444 1 10 396
M  V30 445 1 10 397
M  V30 446 1 12 398
M  V30 447 1 13 399
M  V30 448 1 14 400
M  V30 449 1 14 401
M  V30 450 1 15 402
M  V30 451 1 15 403
M  V30 452 1 16 404
M  V30 453 1 17 405
M  V30 454 1 17 406
M  V30 455 1 18 407
M  V30 456 1 18 408
M  V30 457 1 19 409 CFG=1
M  V30 458 1 21 410
M  V30 459 1 21 411
M  V30 460 1 22 412
M  V30 461 1 22 413
M  V30 462 1 23 414 CFG=3
M  V30 463 1 24 415
M  V30 464 1 25 416
M  V30 465 1 25 417
M  V30 466 1 26 418
M  V30 467 1 27 419
M  V30 468 1 28 420
M  V30 469 1 30 421
M  V30 470 1 31 422
M  V30 471 1 31 423
M  V30 472 1 32 424
M  V30 473 1 32 425
M  V30 474 1 33 426
M  V30 475 1 34 427
M  V30 476 1 34 428
M  V30 477 1 35 429
M  V30 478 1 35 430
M  V30 479 1 36 431
M  V30 480 1 36 432
M  V30 481 1 38 433
M  V30 482 1 38 434
M  V30 483 1 38 435
M  V30 484 1 41 436
M  V30 485 1 41 437
M  V30 486 1 41 438
M  V30 487 1 43 439
M  V30 488 1 43 440
M  V30 489 1 43 441
M  V30 490 1 44 442
M  V30 491 1 44 443
M  V30 492 1 44 444
M  V30 493 1 45 445
M  V30 494 1 45 446
M  V30 495 1 45 447
M  V30 496 1 46 448
M  V30 497 1 46 449
M  V30 498 1 46 450
M  V30 499 1 47 451
M  V30 500 1 47 452
M  V30 501 1 47 453
M  V30 502 1 48 454
M  V30 503 1 48 455
M  V30 504 1 48 456
M  V30 505 1 50 457
M  V30 506 1 50 458
M  V30 507 1 51 459
M  V30 508 1 51 460
M  V30 509 1 52 461 CFG=1
M  V30 510 1 53 462 CFG=1
M  V30 511 1 54 463 CFG=1
M  V30 512 1 55 464
M  V30 513 1 55 465
M  V30 514 1 56 466 CFG=1
M  V30 515 1 57 467
M  V30 516 1 58 468
M  V30 517 1 58 469
M  V30 518 1 60 470
M  V30 519 1 61 471
M  V30 520 1 62 472
M  V30 521 1 62 473
M  V30 522 1 63 474
M  V30 523 1 63 475
M  V30 524 1 64 476 CFG=3
M  V30 525 1 65 477
M  V30 526 1 65 478
M  V30 527 1 66 479
M  V30 528 1 66 480
M  V30 529 1 67 481 CFG=1
M  V30 530 1 69 482
M  V30 531 1 69 483
M  V30 532 1 70 484
M  V30 533 1 70 485
M  V30 534 1 71 486 CFG=1
M  V30 535 1 72 487 CFG=1
M  V30 536 1 73 488
M  V30 537 1 73 489
M  V30 538 1 74 490 CFG=1
M  V30 539 1 75 491
M  V30 540 1 76 492 CFG=1
M  V30 541 1 78 493
M  V30 542 1 79 494
M  V30 543 1 79 495
M  V30 544 1 80 496
M  V30 545 1 80 497
M  V30 546 1 81 498 CFG=3
M  V30 547 1 82 499
M  V30 548 1 82 500
M  V30 549 1 83 501
M  V30 550 1 83 502
M  V30 551 1 84 503
M  V30 552 1 84 504
M  V30 553 1 86 505
M  V30 554 1 86 506
M  V30 555 1 86 507
M  V30 556 1 89 508
M  V30 557 1 89 509
M  V30 558 1 89 510
M  V30 559 1 91 511
M  V30 560 1 91 512
M  V30 561 1 91 513
M  V30 562 1 92 514
M  V30 563 1 92 515
M  V30 564 1 92 516
M  V30 565 1 93 517
M  V30 566 1 93 518
M  V30 567 1 93 519
M  V30 568 1 94 520
M  V30 569 1 94 521
M  V30 570 1 94 522
M  V30 571 1 95 523
M  V30 572 1 95 524
M  V30 573 1 95 525
M  V30 574 1 96 526
M  V30 575 1 96 527
M  V30 576 1 96 528
M  V30 577 1 98 529
M  V30 578 1 98 530
M  V30 579 1 99 531
M  V30 580 1 99 532
M  V30 581 1 100 533
M  V30 582 1 101 534
M  V30 583 1 102 535 CFG=1
M  V30 584 1 103 536
M  V30 585 1 103 537
M  V30 586 1 104 538
M  V30 587 1 105 539
M  V30 588 1 106 540
M  V30 589 1 106 541
M  V30 590 1 108 542
M  V30 591 1 109 543
M  V30 592 1 110 544
M  V30 593 1 110 545
M  V30 594 1 111 546
M  V30 595 1 111 547
M  V30 596 1 112 548
M  V30 597 1 113 549
M  V30 598 1 113 550
M  V30 599 1 114 551
M  V30 600 1 114 552
M  V30 601 1 115 553 CFG=1
M  V30 602 1 117 554
M  V30 603 1 117 555
M  V30 604 1 118 556
M  V30 605 1 118 557
M  V30 606 1 119 558
M  V30 607 1 120 559 CFG=3
M  V30 608 1 121 560
M  V30 609 1 121 561
M  V30 610 1 122 562
M  V30 611 1 123 563
M  V30 612 1 124 564 CFG=1
M  V30 613 1 126 565
M  V30 614 1 127 566
M  V30 615 1 127 567
M  V30 616 1 128 568
M  V30 617 1 128 569
M  V30 618 1 129 570
M  V30 619 1 130 571
M  V30 620 1 130 572
M  V30 621 1 131 573
M  V30 622 1 131 574
M  V30 623 1 132 575
M  V30 624 1 132 576
M  V30 625 1 134 577
M  V30 626 1 134 578
M  V30 627 1 134 579
M  V30 628 1 137 580
M  V30 629 1 137 581
M  V30 630 1 137 582
M  V30 631 1 139 583
M  V30 632 1 139 584
M  V30 633 1 139 585
M  V30 634 1 140 586
M  V30 635 1 140 587
M  V30 636 1 140 588
M  V30 637 1 141 589
M  V30 638 1 141 590
M  V30 639 1 141 591
M  V30 640 1 142 592
M  V30 641 1 142 593
M  V30 642 1 142 594
M  V30 643 1 143 595
M  V30 644 1 143 596
M  V30 645 1 143 597
M  V30 646 1 144 598
M  V30 647 1 144 599
M  V30 648 1 144 600
M  V30 649 1 146 601
M  V30 650 1 146 602
M  V30 651 1 147 603
M  V30 652 1 147 604
M  V30 653 1 148 605
M  V30 654 1 149 606
M  V30 655 1 150 607 CFG=1
M  V30 656 1 151 608
M  V30 657 1 151 609
M  V30 658 1 152 610
M  V30 659 1 153 611
M  V30 660 1 154 612
M  V30 661 1 154 613
M  V30 662 1 156 614 CFG=3
M  V30 663 1 157 615 CFG=1
M  V30 664 1 158 616
M  V30 665 1 158 617
M  V30 666 1 159 618
M  V30 667 1 159 619
M  V30 668 1 160 620
M  V30 669 1 161 621
M  V30 670 1 161 622
M  V30 671 1 162 623
M  V30 672 1 162 624
M  V30 673 1 163 625 CFG=1
M  V30 674 1 165 626
M  V30 675 1 165 627
M  V30 676 1 166 628
M  V30 677 1 166 629
M  V30 678 1 167 630
M  V30 679 1 168 631
M  V30 680 1 169 632
M  V30 681 1 169 633
M  V30 682 1 170 634
M  V30 683 1 171 635
M  V30 684 1 172 636
M  V30 685 1 174 637
M  V30 686 1 175 638
M  V30 687 1 175 639
M  V30 688 1 176 640
M  V30 689 1 176 641
M  V30 690 1 177 642
M  V30 691 1 178 643
M  V30 692 1 178 644
M  V30 693 1 179 645
M  V30 694 1 179 646
M  V30 695 1 180 647
M  V30 696 1 180 648
M  V30 697 1 182 649
M  V30 698 1 182 650
M  V30 699 1 182 651
M  V30 700 1 185 652
M  V30 701 1 185 653
M  V30 702 1 185 654
M  V30 703 1 187 655
M  V30 704 1 187 656
M  V30 705 1 187 657
M  V30 706 1 188 658
M  V30 707 1 188 659
M  V30 708 1 188 660
M  V30 709 1 189 661
M  V30 710 1 189 662
M  V30 711 1 189 663
M  V30 712 1 190 664
M  V30 713 1 190 665
M  V30 714 1 190 666
M  V30 715 1 191 667
M  V30 716 1 191 668
M  V30 717 1 191 669
M  V30 718 1 192 670
M  V30 719 1 192 671
M  V30 720 1 192 672
M  V30 721 1 194 673
M  V30 722 1 194 674
M  V30 723 1 195 675
M  V30 724 1 195 676
M  V30 725 1 196 677 CFG=3
M  V30 726 1 197 678
M  V30 727 1 198 679 CFG=3
M  V30 728 1 199 680
M  V30 729 1 199 681
M  V30 730 1 200 682
M  V30 731 1 201 683
M  V30 732 1 202 684
M  V30 733 1 202 685
M  V30 734 1 204 686 CFG=1
M  V30 735 1 205 687
M  V30 736 1 206 688
M  V30 737 1 206 689
M  V30 738 1 207 690
M  V30 739 1 207 691
M  V30 740 1 208 692 CFG=1
M  V30 741 1 209 693
M  V30 742 1 209 694
M  V30 743 1 210 695
M  V30 744 1 210 696
M  V30 745 1 211 697 CFG=3
M  V30 746 1 213 698
M  V30 747 1 213 699
M  V30 748 1 214 700
M  V30 749 1 214 701
M  V30 750 1 215 702 CFG=3
M  V30 751 1 216 703
M  V30 752 1 217 704
M  V30 753 1 217 705
M  V30 754 1 218 706 CFG=3
M  V30 755 1 219 707
M  V30 756 1 220 708 CFG=3
M  V30 757 1 222 709
M  V30 758 1 223 710
M  V30 759 1 223 711
M  V30 760 1 224 712
M  V30 761 1 224 713
M  V30 762 1 225 714 CFG=1
M  V30 763 1 226 715
M  V30 764 1 226 716
M  V30 765 1 227 717
M  V30 766 1 227 718
M  V30 767 1 228 719
M  V30 768 1 228 720
M  V30 769 1 230 721
M  V30 770 1 230 722
M  V30 771 1 230 723
M  V30 772 1 233 724
M  V30 773 1 233 725
M  V30 774 1 233 726
M  V30 775 1 235 727
M  V30 776 1 235 728
M  V30 777 1 235 729
M  V30 778 1 236 730
M  V30 779 1 236 731
M  V30 780 1 236 732
M  V30 781 1 237 733
M  V30 782 1 237 734
M  V30 783 1 237 735
M  V30 784 1 238 736
M  V30 785 1 238 737
M  V30 786 1 238 738
M  V30 787 1 239 739
M  V30 788 1 239 740
M  V30 789 1 239 741
M  V30 790 1 240 742
M  V30 791 1 240 743
M  V30 792 1 240 744
M  V30 793 1 242 745
M  V30 794 1 242 746
M  V30 795 1 243 747
M  V30 796 1 243 748
M  V30 797 1 244 749 CFG=1
M  V30 798 1 245 750
M  V30 799 1 246 751 CFG=1
M  V30 800 1 247 752
M  V30 801 1 247 753
M  V30 802 1 248 754
M  V30 803 1 249 755
M  V30 804 1 250 756
M  V30 805 1 250 757
M  V30 806 1 252 758
M  V30 807 1 253 759 CFG=1
M  V30 808 1 254 760
M  V30 809 1 254 761
M  V30 810 1 255 762
M  V30 811 1 255 763
M  V30 812 1 256 764 CFG=1
M  V30 813 1 257 765
M  V30 814 1 257 766
M  V30 815 1 258 767
M  V30 816 1 258 768
M  V30 817 1 259 769 CFG=3
M  V30 818 1 261 770
M  V30 819 1 261 771
M  V30 820 1 262 772
M  V30 821 1 262 773
M  V30 822 1 263 774 CFG=1
M  V30 823 1 264 775
M  V30 824 1 265 776
M  V30 825 1 265 777
M  V30 826 1 266 778
M  V30 827 1 267 779
M  V30 828 1 268 780
M  V30 829 1 270 781
M  V30 830 1 271 782
M  V30 831 1 271 783
M  V30 832 1 272 784
M  V30 833 1 272 785
M  V30 834 1 273 786
M  V30 835 1 274 787
M  V30 836 1 274 788
M  V30 837 1 275 789
M  V30 838 1 275 790
M  V30 839 1 276 791
M  V30 840 1 276 792
M  V30 841 1 278 793
M  V30 842 1 278 794
M  V30 843 1 278 795
M  V30 844 1 281 796
M  V30 845 1 281 797
M  V30 846 1 281 798
M  V30 847 1 283 799
M  V30 848 1 283 800
M  V30 849 1 283 801
M  V30 850 1 284 802
M  V30 851 1 284 803
M  V30 852 1 284 804
M  V30 853 1 285 805
M  V30 854 1 285 806
M  V30 855 1 285 807
M  V30 856 1 286 808
M  V30 857 1 286 809
M  V30 858 1 286 810
M  V30 859 1 287 811
M  V30 860 1 287 812
M  V30 861 1 287 813
M  V30 862 1 288 814
M  V30 863 1 288 815
M  V30 864 1 288 816
M  V30 865 1 290 817
M  V30 866 1 290 818
M  V30 867 1 291 819
M  V30 868 1 291 820
M  V30 869 1 292 821
M  V30 870 1 293 822
M  V30 871 1 294 823 CFG=3
M  V30 872 1 295 824
M  V30 873 1 295 825
M  V30 874 1 296 826
M  V30 875 1 297 827
M  V30 876 1 298 828
M  V30 877 1 298 829
M  V30 878 1 300 830 CFG=1
M  V30 879 1 301 831
M  V30 880 1 302 832
M  V30 881 1 302 833
M  V30 882 1 303 834
M  V30 883 1 303 835
M  V30 884 1 304 836 CFG=1
M  V30 885 1 305 837
M  V30 886 1 305 838
M  V30 887 1 306 839
M  V30 888 1 306 840
M  V30 889 1 307 841 CFG=3
M  V30 890 1 309 842
M  V30 891 1 309 843
M  V30 892 1 310 844
M  V30 893 1 310 845
M  V30 894 1 311 846
M  V30 895 1 312 847
M  V30 896 1 313 848
M  V30 897 1 313 849
M  V30 898 1 314 850
M  V30 899 1 315 851 CFG=1
M  V30 900 1 316 852 CFG=3
M  V30 901 1 318 853
M  V30 902 1 319 854
M  V30 903 1 319 855
M  V30 904 1 320 856
M  V30 905 1 320 857
M  V30 906 1 321 858
M  V30 907 1 322 859
M  V30 908 1 322 860
M  V30 909 1 323 861
M  V30 910 1 323 862
M  V30 911 1 324 863
M  V30 912 1 324 864
M  V30 913 1 326 865
M  V30 914 1 326 866
M  V30 915 1 326 867
M  V30 916 1 329 868
M  V30 917 1 329 869
M  V30 918 1 329 870
M  V30 919 1 331 871
M  V30 920 1 331 872
M  V30 921 1 331 873
M  V30 922 1 332 874
M  V30 923 1 332 875
M  V30 924 1 332 876
M  V30 925 1 333 877
M  V30 926 1 333 878
M  V30 927 1 333 879
M  V30 928 1 334 880
M  V30 929 1 334 881
M  V30 930 1 334 882
M  V30 931 1 335 883
M  V30 932 1 335 884
M  V30 933 1 335 885
M  V30 934 1 336 886
M  V30 935 1 336 887
M  V30 936 1 336 888
M  V30 937 1 338 889
M  V30 938 1 338 890
M  V30 939 1 339 891
M  V30 940 1 339 892
M  V30 941 1 340 893
M  V30 942 1 341 894
M  V30 943 1 342 895 CFG=3
M  V30 944 1 343 896
M  V30 945 1 343 897
M  V30 946 1 344 898
M  V30 947 1 345 899
M  V30 948 1 346 900
M  V30 949 1 346 901
M  V30 950 1 348 902 CFG=1
M  V30 951 1 349 903 CFG=3
M  V30 952 1 350 904
M  V30 953 1 350 905
M  V30 954 1 351 906
M  V30 955 1 351 907
M  V30 956 1 352 908 CFG=1
M  V30 957 1 353 909
M  V30 958 1 353 910
M  V30 959 1 354 911
M  V30 960 1 354 912
M  V30 961 1 355 913 CFG=3
M  V30 962 1 357 914
M  V30 963 1 357 915
M  V30 964 1 358 916
M  V30 965 1 358 917
M  V30 966 1 359 918
M  V30 967 1 360 919
M  V30 968 1 361 920
M  V30 969 1 361 921
M  V30 970 1 362 922
M  V30 971 1 363 923
M  V30 972 1 364 924
M  V30 973 1 366 925 CFG=1
M  V30 974 1 367 926
M  V30 975 1 367 927
M  V30 976 1 368 928
M  V30 977 1 368 929
M  V30 978 1 369 930
M  V30 979 1 370 931
M  V30 980 1 370 932
M  V30 981 1 371 933
M  V30 982 1 371 934
M  V30 983 1 372 935
M  V30 984 1 372 936
M  V30 985 1 374 937
M  V30 986 1 374 938
M  V30 987 1 374 939
M  V30 988 1 377 940
M  V30 989 1 377 941
M  V30 990 1 377 942
M  V30 991 1 379 943
M  V30 992 1 379 944
M  V30 993 1 379 945
M  V30 994 1 380 946
M  V30 995 1 380 947
M  V30 996 1 380 948
M  V30 997 1 381 949
M  V30 998 1 381 950
M  V30 999 1 381 951
M  V30 1000 1 382 952
M  V30 1001 1 382 953
M  V30 1002 1 382 954
M  V30 1003 1 383 955
M  V30 1004 1 383 956
M  V30 1005 1 383 957
M  V30 1006 1 384 958
M  V30 1007 1 384 959
M  V30 1008 1 384 960
M  V30 END BOND
M  V30 END CTAB
M  END
>  <PDBID>  (1) 
3PEO

>  <PDB ID>  (1) 
3PEO

>  <Generic Name>  (1) 
Metocurine

>  <Brand Name>  (1) 
nan

>  <DrugBank ID>  (1) 
DB01336

>  <ATC Codes>  (1) 
M03AA04

>  <Ligand ID>  (1) 
CU9

>  <Target Name>  (1) 
Neuronal acetylcholine receptor subunit alpha-2

>  <UniProt ID>  (1) 
Q15822

>  <PDB ID.1>  (1) 
3PEO

>  <Seq. Identity>  (1) 
30%

$$$$
