PDB_DB00482_94
     RDKit          3D

 40 42  0  0  0  0  0  0  0  0999 V2000
   13.7720  -53.4720   53.0780 S   0  0  0  0  0  0  0  0  0  0  0  0
   15.5430  -53.5040   53.2780 C   0  0  0  0  0  0  0  0  0  0  0  0
   16.1280  -52.8520   54.3380 C   0  0  0  0  0  0  0  0  0  0  0  0
   17.4950  -52.8730   54.4850 C   0  0  0  0  0  0  0  0  0  0  0  0
   18.2490  -53.5450   53.5580 C   0  0  0  0  0  0  0  0  0  0  0  0
   17.6660  -54.2030   52.5020 C   0  0  0  0  0  0  0  0  0  0  0  0
   16.2980  -54.1830   52.3580 C   0  0  0  0  0  0  0  0  0  0  0  0
   19.6380  -53.6040   53.6330 N   0  0  0  0  0  0  0  0  0  0  0  0
   20.5200  -52.7130   54.1750 C   0  0  0  0  0  0  0  0  0  0  0  0
   20.2490  -51.3940   54.7150 C   0  0  0  0  0  0  0  0  0  0  0  0
   19.4390  -50.5100   54.0290 C   0  0  0  0  0  0  0  0  0  0  0  0
   19.2550  -49.2200   54.4800 C   0  0  0  0  0  0  0  0  0  0  0  0
   19.8940  -48.8110   55.6270 C   0  0  0  0  0  0  0  0  0  0  0  0
   19.7190  -47.4390   56.1330 C   0  0  0  0  0  0  0  0  0  0  0  0
   20.6930  -49.6880   56.3220 C   0  0  0  0  0  0  0  0  0  0  0  0
   20.8810  -50.9720   55.8600 C   0  0  0  0  0  0  0  0  0  0  0  0
   21.7500  -53.2940   53.9900 C   0  0  0  0  0  0  0  0  0  0  0  0
   21.5160  -54.5170   53.3400 C   0  0  0  0  0  0  0  0  0  0  0  0
   22.4770  -55.5200   52.8520 C   0  0  0  0  0  0  0  0  0  0  0  0
   23.7580  -55.2670   53.2070 F   0  0  0  0  0  0  0  0  0  0  0  0
   22.1940  -56.8120   53.1510 F   0  0  0  0  0  0  0  0  0  0  0  0
   22.4890  -55.4850   51.4960 F   0  0  0  0  0  0  0  0  0  0  0  0
   20.2230  -54.6850   53.1010 N   0  0  0  0  0  0  0  0  0  0  0  0
   13.2270  -54.8460   53.9530 N   0  0  0  0  0  0  0  0  0  0  0  0
   13.4740  -53.6910   51.6790 O   0  0  0  0  0  0  0  0  0  0  0  0
   13.3180  -52.2780   53.7780 O   0  0  0  0  0  0  0  0  0  0  0  0
   15.5036  -52.3147   55.0670 H   0  0  0  0  0  0  0  0  0  0  0  0
   17.9750  -52.3598   55.3313 H   0  0  0  0  0  0  0  0  0  0  0  0
   18.2903  -54.7433   51.7751 H   0  0  0  0  0  0  0  0  0  0  0  0
   15.8175  -54.7043   51.5169 H   0  0  0  0  0  0  0  0  0  0  0  0
   18.9334  -50.8400   53.1095 H   0  0  0  0  0  0  0  0  0  0  0  0
   18.6042  -48.5256   53.9283 H   0  0  0  0  0  0  0  0  0  0  0  0
   19.7205  -47.4509   57.2329 H   0  0  0  0  0  0  0  0  0  0  0  0
   20.5438  -46.8071   55.7720 H   0  0  0  0  0  0  0  0  0  0  0  0
   18.7620  -47.0343   55.7720 H   0  0  0  0  0  0  0  0  0  0  0  0
   21.1842  -49.3629   57.2510 H   0  0  0  0  0  0  0  0  0  0  0  0
   21.5389  -51.6616   56.4092 H   0  0  0  0  0  0  0  0  0  0  0  0
   22.7251  -52.8834   54.2910 H   0  0  0  0  0  0  0  0  0  0  0  0
   13.3005  -54.6608   54.9635 H   0  0  0  0  0  0  0  0  0  0  0  0
   12.2451  -55.0405   53.7101 H   0  0  0  0  0  0  0  0  0  0  0  0
  1  2  1  0
  2  3  2  0
  3  4  1  0
  4  5  2  0
  5  6  1  0
  2  7  1  0
  6  7  2  0
  5  8  1  0
  8  9  1  0
  9 10  1  0
 10 11  2  0
 11 12  1  0
 12 13  2  0
 13 14  1  0
 13 15  1  0
 10 16  1  0
 15 16  2  0
  9 17  2  0
 17 18  1  0
 18 19  1  0
 19 20  1  0
 19 21  1  0
 19 22  1  0
  8 23  1  0
 18 23  2  0
  1 24  1  0
  1 25  2  0
  1 26  2  0
  3 27  1  0
  4 28  1  0
  6 29  1  0
  7 30  1  0
 11 31  1  0
 12 32  1  0
 14 33  1  0
 14 34  1  0
 14 35  1  0
 15 36  1  0
 16 37  1  0
 17 38  1  0
 24 39  1  0
 24 40  1  0
M  END
$$$$
