PDB_DB01204_99
     RDKit          3D

 60 62  0  0  0  0  0  0  0  0999 V2000
   29.0390   97.1640   54.4380 O   0  0  0  0  0  0  0  0  0  0  0  0
   29.0300   96.2030   53.3650 C   0  0  0  0  0  0  0  0  0  0  0  0
   27.9130   95.1650   53.5210 C   0  0  0  0  0  0  0  0  0  0  0  0
   27.9200   94.2250   52.4090 N   0  0  0  0  0  0  0  0  0  0  0  0
   27.9470   94.7210   51.0430 C   0  0  0  0  0  0  0  0  0  0  0  0
   29.1780   94.2760   50.2470 C   0  0  0  0  0  0  0  0  0  0  0  0
   30.4040   94.9800   50.5970 N   0  0  0  0  0  0  0  0  0  0  0  0
   31.5890   94.3040   50.4970 C   0  0  0  0  0  0  0  0  0  0  0  0
   31.5950   93.0400   49.9050 C   0  0  0  0  0  0  0  0  0  0  0  0
   32.7640   92.3080   49.7730 C   0  0  0  0  0  0  0  0  0  0  0  0
   32.7910   94.8320   50.9800 C   0  0  0  0  0  0  0  0  0  0  0  0
   32.8310   96.0930   51.5840 C   0  0  0  0  0  0  0  0  0  0  0  0
   31.7870   96.7620   51.7060 O   0  0  0  0  0  0  0  0  0  0  0  0
   34.0270   96.6230   52.0580 C   0  0  0  0  0  0  0  0  0  0  0  0
   34.0520   97.8810   52.6650 C   0  0  0  0  0  0  0  0  0  0  0  0
   32.9130   98.6050   52.7590 O   0  0  0  0  0  0  0  0  0  0  0  0
   35.2380   98.4110   53.1520 C   0  0  0  0  0  0  0  0  0  0  0  0
   36.4190   97.6790   53.0250 C   0  0  0  0  0  0  0  0  0  0  0  0
   36.3910   96.4220   52.4180 C   0  0  0  0  0  0  0  0  0  0  0  0
   37.5400   95.7030   52.3010 O   0  0  0  0  0  0  0  0  0  0  0  0
   35.1980   95.8910   51.9300 C   0  0  0  0  0  0  0  0  0  0  0  0
   35.1690   94.6290   51.3280 C   0  0  0  0  0  0  0  0  0  0  0  0
   36.2220   93.9580   51.2110 O   0  0  0  0  0  0  0  0  0  0  0  0
   33.9690   94.0960   50.8510 C   0  0  0  0  0  0  0  0  0  0  0  0
   33.9600   92.8320   50.2460 C   0  0  0  0  0  0  0  0  0  0  0  0
   35.1050   92.1050   50.1190 N   0  0  0  0  0  0  0  0  0  0  0  0
   35.0770   90.7670   49.5420 C   0  0  0  0  0  0  0  0  0  0  0  0
   36.0840   89.8370   50.2130 C   0  0  0  0  0  0  0  0  0  0  0  0
   35.4710   88.9520   51.1900 N   0  0  0  0  0  0  0  0  0  0  0  0
   36.2350   88.4750   52.3260 C   0  0  0  0  0  0  0  0  0  0  0  0
   36.0430   86.9720   52.5570 C   0  0  0  0  0  0  0  0  0  0  0  0
   37.3060   86.2640   52.5500 O   0  0  0  0  0  0  0  0  0  0  0  0
   29.0346   96.6889   55.3065 H   0  0  0  0  0  0  0  0  0  0  0  0
   28.8864   96.7366   52.4138 H   0  0  0  0  0  0  0  0  0  0  0  0
   29.9909   95.6680   53.3853 H   0  0  0  0  0  0  0  0  0  0  0  0
   28.0627   94.6129   54.4606 H   0  0  0  0  0  0  0  0  0  0  0  0
   26.9455   95.6882   53.5336 H   0  0  0  0  0  0  0  0  0  0  0  0
   28.7527   93.6303   52.5267 H   0  0  0  0  0  0  0  0  0  0  0  0
   27.0482   94.3565   50.5240 H   0  0  0  0  0  0  0  0  0  0  0  0
   27.9836   95.8188   51.1018 H   0  0  0  0  0  0  0  0  0  0  0  0
   29.3343   93.2020   50.4259 H   0  0  0  0  0  0  0  0  0  0  0  0
   28.9717   94.5077   49.1917 H   0  0  0  0  0  0  0  0  0  0  0  0
   30.3794   95.9605   50.9114 H   0  0  0  0  0  0  0  0  0  0  0  0
   30.6502   92.6153   49.5348 H   0  0  0  0  0  0  0  0  0  0  0  0
   32.7449   91.3170   49.2960 H   0  0  0  0  0  0  0  0  0  0  0  0
   32.9274   99.4968   53.1886 H   0  0  0  0  0  0  0  0  0  0  0  0
   35.2472   99.3997   53.6341 H   0  0  0  0  0  0  0  0  0  0  0  0
   37.3674   98.0902   53.4012 H   0  0  0  0  0  0  0  0  0  0  0  0
   37.5243   94.8113   51.8712 H   0  0  0  0  0  0  0  0  0  0  0  0
   36.0002   92.5053   50.4342 H   0  0  0  0  0  0  0  0  0  0  0  0
   34.0678   90.3473   49.6659 H   0  0  0  0  0  0  0  0  0  0  0  0
   35.3445   90.8487   48.4782 H   0  0  0  0  0  0  0  0  0  0  0  0
   36.5667   89.2238   49.4377 H   0  0  0  0  0  0  0  0  0  0  0  0
   36.8108   90.4666   50.7472 H   0  0  0  0  0  0  0  0  0  0  0  0
   34.6549   89.4517   51.5710 H   0  0  0  0  0  0  0  0  0  0  0  0
   37.3018   88.6730   52.1449 H   0  0  0  0  0  0  0  0  0  0  0  0
   35.8784   89.0046   53.2217 H   0  0  0  0  0  0  0  0  0  0  0  0
   35.5546   86.8204   53.5309 H   0  0  0  0  0  0  0  0  0  0  0  0
   35.4229   86.5756   51.7395 H   0  0  0  0  0  0  0  0  0  0  0  0
   37.5978   86.1004   53.4818 H   0  0  0  0  0  0  0  0  0  0  0  0
  1  2  1  0
  2  3  1  0
  3  4  1  0
  4  5  1  0
  5  6  1  0
  6  7  1  0
  7  8  1  0
  8  9  2  0
  9 10  1  0
  8 11  1  0
 11 12  1  0
 12 13  2  0
 12 14  1  0
 14 15  2  0
 15 16  1  0
 15 17  1  0
 17 18  2  0
 18 19  1  0
 19 20  1  0
 14 21  1  0
 19 21  2  0
 21 22  1  0
 22 23  2  0
 11 24  2  0
 22 24  1  0
 10 25  2  0
 24 25  1  0
 25 26  1  0
 26 27  1  0
 27 28  1  0
 28 29  1  0
 29 30  1  0
 30 31  1  0
 31 32  1  0
  1 33  1  0
  2 34  1  0
  2 35  1  0
  3 36  1  0
  3 37  1  0
  4 38  1  0
  5 39  1  0
  5 40  1  0
  6 41  1  0
  6 42  1  0
  7 43  1  0
  9 44  1  0
 10 45  1  0
 16 46  1  0
 17 47  1  0
 18 48  1  0
 20 49  1  0
 26 50  1  0
 27 51  1  0
 27 52  1  0
 28 53  1  0
 28 54  1  0
 29 55  1  0
 30 56  1  0
 30 57  1  0
 31 58  1  0
 31 59  1  0
 32 60  1  0
M  END
$$$$
