PDB_DB04743_99
     RDKit          3D

 33 34  0  0  0  0  0  0  0  0999 V2000
  -19.6820  -50.4130   -2.5820 O   0  0  0  0  0  0  0  0  0  0  0  0
  -19.3270  -49.3020   -1.7690 N   0  0  0  0  0  0  0  0  0  0  0  0
  -18.7010  -48.1830   -2.4240 O   0  0  0  0  0  0  0  0  0  0  0  0
  -19.5230  -49.3110   -0.4360 C   0  0  0  0  0  0  0  0  0  0  0  0
  -19.3040  -48.1430    0.2870 C   0  0  0  0  0  0  0  0  0  0  0  0
  -19.4860  -48.1350    1.6650 C   0  0  0  0  0  0  0  0  0  0  0  0
  -19.8740  -49.2850    2.3490 C   0  0  0  0  0  0  0  0  0  0  0  0
  -20.0550  -49.2900    3.6660 N   0  0  0  0  0  0  0  0  0  0  0  0
  -19.4460  -48.1520    4.6650 S   0  0  0  0  0  0  0  0  0  0  0  0
  -20.0980  -46.8380    4.3600 O   0  0  0  0  0  0  0  0  0  0  0  0
  -19.7850  -48.4830    6.0820 O   0  0  0  0  0  0  0  0  0  0  0  0
  -17.6800  -48.0840    4.4920 C   0  0  0  0  0  0  0  0  0  0  0  0
  -19.9180  -50.4730    0.2490 C   0  0  0  0  0  0  0  0  0  0  0  0
  -20.1130  -50.4570    1.6410 C   0  0  0  0  0  0  0  0  0  0  0  0
  -20.4810  -51.5800    2.3460 O   0  0  0  0  0  0  0  0  0  0  0  0
  -21.7580  -52.0580    2.4260 C   0  0  0  0  0  0  0  0  0  0  0  0
  -21.9900  -53.1480    3.2670 C   0  0  0  0  0  0  0  0  0  0  0  0
  -23.2750  -53.6880    3.3920 C   0  0  0  0  0  0  0  0  0  0  0  0
  -24.3410  -53.1370    2.6830 C   0  0  0  0  0  0  0  0  0  0  0  0
  -24.1180  -52.0520    1.8390 C   0  0  0  0  0  0  0  0  0  0  0  0
  -22.8290  -51.5170    1.7100 C   0  0  0  0  0  0  0  0  0  0  0  0
  -18.9869  -47.2261   -0.2315 H   0  0  0  0  0  0  0  0  0  0  0  0
  -19.3206  -47.2033    2.2259 H   0  0  0  0  0  0  0  0  0  0  0  0
  -20.6098  -50.0536    4.0784 H   0  0  0  0  0  0  0  0  0  0  0  0
  -17.2144  -48.0661    5.4884 H   0  0  0  0  0  0  0  0  0  0  0  0
  -17.3313  -48.9694    3.9402 H   0  0  0  0  0  0  0  0  0  0  0  0
  -17.4004  -47.1744    3.9402 H   0  0  0  0  0  0  0  0  0  0  0  0
  -20.0765  -51.4064   -0.3111 H   0  0  0  0  0  0  0  0  0  0  0  0
  -21.1564  -53.5857    3.8357 H   0  0  0  0  0  0  0  0  0  0  0  0
  -23.4445  -54.5510    4.0527 H   0  0  0  0  0  0  0  0  0  0  0  0
  -25.3522  -53.5566    2.7895 H   0  0  0  0  0  0  0  0  0  0  0  0
  -24.9539  -51.6146    1.2733 H   0  0  0  0  0  0  0  0  0  0  0  0
  -22.6588  -50.6626    1.0384 H   0  0  0  0  0  0  0  0  0  0  0  0
  1  2  1  0
  2  3  2  0
  2  4  1  0
  4  5  2  0
  5  6  1  0
  6  7  2  0
  7  8  1  0
  8  9  1  0
  9 10  2  0
  9 11  2  0
  9 12  1  0
  4 13  1  0
  7 14  1  0
 13 14  2  0
 14 15  1  0
 15 16  1  0
 16 17  2  0
 17 18  1  0
 18 19  2  0
 19 20  1  0
 16 21  1  0
 20 21  2  0
  5 22  1  0
  6 23  1  0
  8 24  1  0
 12 25  1  0
 12 26  1  0
 12 27  1  0
 13 28  1  0
 17 29  1  0
 18 30  1  0
 19 31  1  0
 20 32  1  0
 21 33  1  0
M  CHG  2   1  -1   2   1
M  END
$$$$
