PDB_DB00360_93
     RDKit          3D

 32 33  0  0  0  0  0  0  0  0999 V2000
   28.8030  224.8340   16.3430 N   0  0  0  0  0  0  0  0  0  0  0  0
   29.3280  224.1730   15.2940 C   0  0  0  0  0  0  0  0  0  0  0  0
   28.6000  224.0010   14.1590 N   0  0  0  0  0  0  0  0  0  0  0  0
   30.5850  223.6860   15.3620 N   0  0  0  0  0  0  0  0  0  0  0  0
   31.3370  223.8450   16.4730 C   0  0  0  0  0  0  0  0  0  0  0  0
   32.4960  223.3800   16.4860 O   0  0  0  0  0  0  0  0  0  0  0  0
   30.8110  224.5040   17.5700 C   0  0  0  0  0  0  0  0  0  0  0  0
   29.5130  225.0010   17.4780 C   0  0  0  0  0  0  0  0  0  0  0  0
   31.5280  224.6760   18.7110 N   0  0  0  0  0  0  0  0  0  0  0  0
   28.9350  225.6580   18.5070 N   0  0  0  0  0  0  0  0  0  0  0  0
   30.7520  224.8560   19.9380 C   0  0  2  0  0  0  0  0  0  0  0  0
   29.6540  225.9090   19.7600 C   0  0  0  0  0  0  0  0  0  0  0  0
   31.6380  225.1940   21.1450 C   0  0  1  0  0  0  0  0  0  0  0  0
   32.4600  226.3290   20.8680 O   0  0  0  0  0  0  0  0  0  0  0  0
   30.7840  225.4980   22.3770 C   0  0  2  0  0  0  0  0  0  0  0  0
   31.6700  225.5920   23.6250 C   0  0  0  0  0  0  0  0  0  0  0  0
   29.8530  224.4120   22.5430 O   0  0  0  0  0  0  0  0  0  0  0  0
   29.0054  223.4947   13.3589 H   0  0  0  0  0  0  0  0  0  0  0  0
   27.6429  224.3769   14.0991 H   0  0  0  0  0  0  0  0  0  0  0  0
   30.9778  223.1844   14.5527 H   0  0  0  0  0  0  0  0  0  0  0  0
   32.5580  224.6795   18.7121 H   0  0  0  0  0  0  0  0  0  0  0  0
   27.9652  225.9909   18.4090 H   0  0  0  0  0  0  0  0  0  0  0  0
   30.2704  223.8891   20.1458 H   0  0  0  0  0  0  0  0  0  0  0  0
   30.1080  226.9104   19.7280 H   0  0  0  0  0  0  0  0  0  0  0  0
   28.9509  225.8521   20.6041 H   0  0  0  0  0  0  0  0  0  0  0  0
   32.2728  224.3178   21.3431 H   0  0  0  0  0  0  0  0  0  0  0  0
   32.7560  226.7378   21.7197 H   0  0  0  0  0  0  0  0  0  0  0  0
   30.2584  226.4551   22.2442 H   0  0  0  0  0  0  0  0  0  0  0  0
   31.0425  225.5254   24.5260 H   0  0  0  0  0  0  0  0  0  0  0  0
   32.3963  224.7659   23.6221 H   0  0  0  0  0  0  0  0  0  0  0  0
   32.2068  226.5521   23.6221 H   0  0  0  0  0  0  0  0  0  0  0  0
   29.7097  224.2448   23.5082 H   0  0  0  0  0  0  0  0  0  0  0  0
  1  2  2  0
  2  3  1  0
  2  4  1  0
  4  5  1  0
  5  6  2  0
  5  7  1  0
  1  8  1  0
  7  8  2  0
  7  9  1  0
  8 10  1  0
  9 11  1  0
 10 12  1  0
 11 12  1  0
 11 13  1  0
 13 14  1  0
 13 15  1  0
 15 16  1  0
 15 17  1  0
  3 18  1  0
  3 19  1  0
  4 20  1  0
  9 21  1  0
 10 22  1  0
 11 23  1  1
 12 24  1  0
 12 25  1  0
 13 26  1  1
 14 27  1  0
 15 28  1  6
 16 29  1  0
 16 30  1  0
 16 31  1  0
 17 32  1  0
M  END
$$$$
