PDB_DB08910_99
     RDKit          3D

180188  0  0  0  0  0  0  0  0999 V2000
  -29.9130  -70.0830  -21.8950 C   0  0  0  0  0  0  0  0  0  0  0  0
  -29.6550  -69.6620  -23.2030 C   0  0  0  0  0  0  0  0  0  0  0  0
  -30.6800  -69.1150  -23.9800 C   0  0  0  0  0  0  0  0  0  0  0  0
  -31.9620  -69.0000  -23.4440 C   0  0  0  0  0  0  0  0  0  0  0  0
  -32.2160  -69.4190  -22.1420 C   0  0  0  0  0  0  0  0  0  0  0  0
  -31.1970  -69.9630  -21.3620 C   0  0  0  0  0  0  0  0  0  0  0  0
  -33.1790  -68.5190  -23.9380 C   0  0  0  0  0  0  0  0  0  0  0  0
  -34.1120  -68.6310  -22.9960 N   0  0  0  0  0  0  0  0  0  0  0  0
  -33.5720  -69.1710  -21.9180 C   0  0  0  0  0  0  0  0  0  0  0  0
  -31.4550  -70.3700  -20.1130 N   0  0  0  0  0  0  0  0  0  0  0  0
  -34.1960  -69.4060  -20.8880 O   0  0  0  0  0  0  0  0  0  0  0  0
  -35.5380  -68.2800  -23.1010 C   0  0  1  0  0  0  0  0  0  0  0  0
  -33.3590  -68.0580  -25.0620 O   0  0  0  0  0  0  0  0  0  0  0  0
  -35.8170  -66.7730  -23.0830 C   0  0  0  0  0  0  0  0  0  0  0  0
  -36.1500  -68.9450  -24.3430 C   0  0  0  0  0  0  0  0  0  0  0  0
  -37.3080  -68.4190  -24.9150 N   0  0  0  0  0  0  0  0  0  0  0  0
  -37.9420  -67.2880  -24.3730 C   0  0  0  0  0  0  0  0  0  0  0  0
  -37.3490  -66.5700  -23.1450 C   0  0  0  0  0  0  0  0  0  0  0  0
  -35.6340  -69.9540  -24.8370 O   0  0  0  0  0  0  0  0  0  0  0  0
  -38.9590  -66.8620  -24.9180 O   0  0  0  0  0  0  0  0  0  0  0  0
  -71.1260  -50.6950  -40.7190 C   0  0  0  0  0  0  0  0  0  0  0  0
  -70.6790  -49.4100  -41.0220 C   0  0  0  0  0  0  0  0  0  0  0  0
  -70.1050  -48.6120  -40.0340 C   0  0  0  0  0  0  0  0  0  0  0  0
  -69.9790  -49.1110  -38.7440 C   0  0  0  0  0  0  0  0  0  0  0  0
  -70.4220  -50.3950  -38.4390 C   0  0  0  0  0  0  0  0  0  0  0  0
  -70.9990  -51.1910  -39.4230 C   0  0  0  0  0  0  0  0  0  0  0  0
  -69.4630  -48.5860  -37.5610 C   0  0  0  0  0  0  0  0  0  0  0  0
  -69.5770  -49.4910  -36.5890 N   0  0  0  0  0  0  0  0  0  0  0  0
  -70.1520  -50.5850  -37.0850 C   0  0  0  0  0  0  0  0  0  0  0  0
  -71.4220  -52.4170  -39.1290 N   0  0  0  0  0  0  0  0  0  0  0  0
  -70.4130  -51.6010  -36.4400 O   0  0  0  0  0  0  0  0  0  0  0  0
  -69.1860  -49.3330  -35.1810 C   0  0  1  0  0  0  0  0  0  0  0  0
  -68.9820  -47.4620  -37.4450 O   0  0  0  0  0  0  0  0  0  0  0  0
  -67.6770  -49.2350  -34.9780 C   0  0  0  0  0  0  0  0  0  0  0  0
  -69.8970  -48.1190  -34.5680 C   0  0  0  0  0  0  0  0  0  0  0  0
  -69.3650  -47.4800  -33.4510 N   0  0  0  0  0  0  0  0  0  0  0  0
  -68.1710  -47.9250  -32.8650 C   0  0  0  0  0  0  0  0  0  0  0  0
  -67.3890  -49.1160  -33.4740 C   0  0  0  0  0  0  0  0  0  0  0  0
  -70.9540  -47.7060  -35.0470 O   0  0  0  0  0  0  0  0  0  0  0  0
  -67.7450  -47.3320  -31.8790 O   0  0  0  0  0  0  0  0  0  0  0  0
  -74.3250  -49.7500  -28.5280 C   0  0  0  0  0  0  0  0  0  0  0  0
  -73.8540  -51.0110  -28.9050 C   0  0  0  0  0  0  0  0  0  0  0  0
  -73.9710  -51.4390  -30.2260 C   0  0  0  0  0  0  0  0  0  0  0  0
  -74.5640  -50.5910  -31.1640 C   0  0  0  0  0  0  0  0  0  0  0  0
  -75.0300  -49.3300  -30.7910 C   0  0  0  0  0  0  0  0  0  0  0  0
  -74.9120  -48.9070  -29.4710 C   0  0  0  0  0  0  0  0  0  0  0  0
  -74.8260  -50.7060  -32.5240 C   0  0  0  0  0  0  0  0  0  0  0  0
  -75.4310  -49.6070  -32.9540 N   0  0  0  0  0  0  0  0  0  0  0  0
  -75.5510  -48.7480  -31.9470 C   0  0  0  0  0  0  0  0  0  0  0  0
  -75.3570  -47.7070  -29.1130 N   0  0  0  0  0  0  0  0  0  0  0  0
  -76.0600  -47.6260  -32.0240 O   0  0  0  0  0  0  0  0  0  0  0  0
  -75.7990  -49.3710  -34.3530 C   0  0  1  0  0  0  0  0  0  0  0  0
  -74.5560  -51.6780  -33.2240 O   0  0  0  0  0  0  0  0  0  0  0  0
  -77.2870  -49.3250  -34.6490 C   0  0  0  0  0  0  0  0  0  0  0  0
  -75.1240  -48.0980  -34.8330 C   0  0  0  0  0  0  0  0  0  0  0  0
  -75.6090  -47.4230  -35.9550 N   0  0  0  0  0  0  0  0  0  0  0  0
  -76.7290  -47.8920  -36.6500 C   0  0  0  0  0  0  0  0  0  0  0  0
  -77.4630  -49.1440  -36.1740 C   0  0  0  0  0  0  0  0  0  0  0  0
  -74.1410  -47.6640  -34.2330 O   0  0  0  0  0  0  0  0  0  0  0  0
  -77.1240  -47.2670  -37.6320 O   0  0  0  0  0  0  0  0  0  0  0  0
  -50.2740  -29.6300   -1.2060 C   0  0  0  0  0  0  0  0  0  0  0  0
  -49.0210  -29.3300   -1.7430 C   0  0  0  0  0  0  0  0  0  0  0  0
  -48.2510  -30.3360   -2.3250 C   0  0  0  0  0  0  0  0  0  0  0  0
  -48.7420  -31.6390   -2.3610 C   0  0  0  0  0  0  0  0  0  0  0  0
  -49.9940  -31.9420   -1.8320 C   0  0  0  0  0  0  0  0  0  0  0  0
  -50.7640  -30.9330   -1.2480 C   0  0  0  0  0  0  0  0  0  0  0  0
  -48.2330  -32.8350   -2.8610 C   0  0  0  0  0  0  0  0  0  0  0  0
  -49.1100  -33.8120   -2.6610 N   0  0  0  0  0  0  0  0  0  0  0  0
  -50.1740  -33.3140   -2.0360 C   0  0  0  0  0  0  0  0  0  0  0  0
  -51.9610  -31.2020   -0.7320 N   0  0  0  0  0  0  0  0  0  0  0  0
  -51.1540  -33.9820   -1.7050 O   0  0  0  0  0  0  0  0  0  0  0  0
  -48.9290  -35.2300   -3.0100 C   0  0  1  0  0  0  0  0  0  0  0  0
  -47.1460  -32.9640   -3.4080 O   0  0  0  0  0  0  0  0  0  0  0  0
  -48.9780  -35.4790   -4.5210 C   0  0  0  0  0  0  0  0  0  0  0  0
  -47.5910  -35.7300   -2.4390 C   0  0  0  0  0  0  0  0  0  0  0  0
  -46.9160  -36.7770   -3.0520 N   0  0  0  0  0  0  0  0  0  0  0  0
  -47.4420  -37.4330   -4.1610 C   0  0  0  0  0  0  0  0  0  0  0  0
  -48.7800  -36.9810   -4.7680 C   0  0  0  0  0  0  0  0  0  0  0  0
  -47.0720  -35.1860   -1.4610 O   0  0  0  0  0  0  0  0  0  0  0  0
  -46.8070  -38.3750   -4.6320 O   0  0  0  0  0  0  0  0  0  0  0  0
  -29.6481  -71.1496  -21.8471 H   0  0  0  0  0  0  0  0  0  0  0  0
  -29.3206  -69.3857  -21.2844 H   0  0  0  0  0  0  0  0  0  0  0  0
  -28.8641  -68.9001  -23.1403 H   0  0  0  0  0  0  0  0  0  0  0  0
  -29.4168  -70.5999  -23.7261 H   0  0  0  0  0  0  0  0  0  0  0  0
  -30.3600  -68.1016  -24.2640 H   0  0  0  0  0  0  0  0  0  0  0  0
  -30.8049  -69.8451  -24.7933 H   0  0  0  0  0  0  0  0  0  0  0  0
  -32.2076  -70.0058  -23.8156 H   0  0  0  0  0  0  0  0  0  0  0  0
  -32.4672  -70.4232  -22.5142 H   0  0  0  0  0  0  0  0  0  0  0  0
  -30.9477  -68.9592  -20.9875 H   0  0  0  0  0  0  0  0  0  0  0  0
  -33.4282  -69.5258  -24.3045 H   0  0  0  0  0  0  0  0  0  0  0  0
  -33.3260  -68.1681  -21.5389 H   0  0  0  0  0  0  0  0  0  0  0  0
  -31.0361  -69.7092  -19.4431 H   0  0  0  0  0  0  0  0  0  0  0  0
  -32.4740  -70.4067  -19.9675 H   0  0  0  0  0  0  0  0  0  0  0  0
  -33.6306  -69.1931  -20.1038 H   0  0  0  0  0  0  0  0  0  0  0  0
  -36.0231  -68.6699  -22.1940 H   0  0  0  0  0  0  0  0  0  0  0  0
  -33.7181  -67.1384  -24.9879 H   0  0  0  0  0  0  0  0  0  0  0  0
  -35.4189  -66.3307  -22.1579 H   0  0  0  0  0  0  0  0  0  0  0  0
  -35.3317  -66.2842  -23.9406 H   0  0  0  0  0  0  0  0  0  0  0  0
  -36.7626  -69.5899  -23.6958 H   0  0  0  0  0  0  0  0  0  0  0  0
  -37.0699  -68.1810  -25.8884 H   0  0  0  0  0  0  0  0  0  0  0  0
  -38.5317  -67.9369  -23.7088 H   0  0  0  0  0  0  0  0  0  0  0  0
  -37.8052  -66.9794  -22.2316 H   0  0  0  0  0  0  0  0  0  0  0  0
  -37.5611  -65.4937  -23.2268 H   0  0  0  0  0  0  0  0  0  0  0  0
  -35.3264  -70.5554  -24.1132 H   0  0  0  0  0  0  0  0  0  0  0  0
  -39.6133  -66.5879  -24.2275 H   0  0  0  0  0  0  0  0  0  0  0  0
  -72.1974  -50.7247  -40.9664 H   0  0  0  0  0  0  0  0  0  0  0  0
  -70.4530  -51.3402  -41.3029 H   0  0  0  0  0  0  0  0  0  0  0  0
  -69.9272  -49.5168  -41.8179 H   0  0  0  0  0  0  0  0  0  0  0  0
  -71.6085  -48.8744  -41.2653 H   0  0  0  0  0  0  0  0  0  0  0  0
  -69.0927  -48.3539  -40.3783 H   0  0  0  0  0  0  0  0  0  0  0  0
  -70.8183  -47.7820  -39.9232 H   0  0  0  0  0  0  0  0  0  0  0  0
  -70.9712  -48.7087  -38.4915 H   0  0  0  0  0  0  0  0  0  0  0  0
  -71.4132  -49.9923  -38.1835 H   0  0  0  0  0  0  0  0  0  0  0  0
  -70.0083  -51.5970  -39.6755 H   0  0  0  0  0  0  0  0  0  0  0  0
  -70.4555  -48.1865  -37.3054 H   0  0  0  0  0  0  0  0  0  0  0  0
  -69.1615  -50.9903  -37.3394 H   0  0  0  0  0  0  0  0  0  0  0  0
  -71.4612  -52.5306  -38.1060 H   0  0  0  0  0  0  0  0  0  0  0  0
  -72.3612  -52.5607  -39.5266 H   0  0  0  0  0  0  0  0  0  0  0  0
  -70.3613  -51.3998  -35.4721 H   0  0  0  0  0  0  0  0  0  0  0  0
  -69.5039  -50.2483  -34.6602 H   0  0  0  0  0  0  0  0  0  0  0  0
  -68.8874  -47.2410  -36.4846 H   0  0  0  0  0  0  0  0  0  0  0  0
  -67.1904  -50.1369  -35.3778 H   0  0  0  0  0  0  0  0  0  0  0  0
  -67.2844  -48.3533  -35.5056 H   0  0  0  0  0  0  0  0  0  0  0  0
  -70.4727  -48.7878  -33.9112 H   0  0  0  0  0  0  0  0  0  0  0  0
  -69.2105  -46.4981  -33.7211 H   0  0  0  0  0  0  0  0  0  0  0  0
  -68.7409  -48.6222  -32.2333 H   0  0  0  0  0  0  0  0  0  0  0  0
  -67.6959  -50.0454  -32.9719 H   0  0  0  0  0  0  0  0  0  0  0  0
  -66.3119  -48.9455  -33.3301 H   0  0  0  0  0  0  0  0  0  0  0  0
  -71.5752  -47.4633  -34.3154 H   0  0  0  0  0  0  0  0  0  0  0  0
  -68.0681  -47.7817  -31.0583 H   0  0  0  0  0  0  0  0  0  0  0  0
  -75.0757  -49.9153  -27.7412 H   0  0  0  0  0  0  0  0  0  0  0  0
  -73.4057  -49.2129  -28.2514 H   0  0  0  0  0  0  0  0  0  0  0  0
  -72.7822  -51.0347  -28.6587 H   0  0  0  0  0  0  0  0  0  0  0  0
  -74.5177  -51.6985  -28.3601 H   0  0  0  0  0  0  0  0  0  0  0  0
  -72.9543  -51.6560  -30.5854 H   0  0  0  0  0  0  0  0  0  0  0  0
  -74.6644  -52.2909  -30.1661 H   0  0  0  0  0  0  0  0  0  0  0  0
  -75.5486  -51.0234  -30.9324 H   0  0  0  0  0  0  0  0  0  0  0  0
  -76.0162  -49.7614  -30.5646 H   0  0  0  0  0  0  0  0  0  0  0  0
  -73.9264  -48.4744  -29.6977 H   0  0  0  0  0  0  0  0  0  0  0  0
  -75.8040  -51.1558  -32.2976 H   0  0  0  0  0  0  0  0  0  0  0  0
  -74.5606  -48.3320  -32.1839 H   0  0  0  0  0  0  0  0  0  0  0  0
  -75.3810  -47.6423  -28.0853 H   0  0  0  0  0  0  0  0  0  0  0  0
  -74.7289  -46.9819  -29.4881 H   0  0  0  0  0  0  0  0  0  0  0  0
  -76.2201  -47.2730  -31.1130 H   0  0  0  0  0  0  0  0  0  0  0  0
  -75.4439  -50.2532  -34.9059 H   0  0  0  0  0  0  0  0  0  0  0  0
  -74.3410  -52.4519  -32.6453 H   0  0  0  0  0  0  0  0  0  0  0  0
  -77.7613  -50.2638  -34.3269 H   0  0  0  0  0  0  0  0  0  0  0  0
  -77.7597  -48.4924  -34.1074 H   0  0  0  0  0  0  0  0  0  0  0  0
  -74.4604  -48.6930  -35.4778 H   0  0  0  0  0  0  0  0  0  0  0  0
  -75.8352  -46.4668  -35.6463 H   0  0  0  0  0  0  0  0  0  0  0  0
  -76.0770  -48.5141  -37.2809 H   0  0  0  0  0  0  0  0  0  0  0  0
  -77.0538  -50.0233  -36.6929 H   0  0  0  0  0  0  0  0  0  0  0  0
  -78.5343  -49.0367  -36.3992 H   0  0  0  0  0  0  0  0  0  0  0  0
  -74.2937  -47.7314  -33.2572 H   0  0  0  0  0  0  0  0  0  0  0  0
  -77.6284  -46.4689  -37.3342 H   0  0  0  0  0  0  0  0  0  0  0  0
  -50.2411  -29.3389   -0.1457 H   0  0  0  0  0  0  0  0  0  0  0  0
  -50.9646  -29.0829   -1.8646 H   0  0  0  0  0  0  0  0  0  0  0  0
  -49.1827  -28.5660   -2.5177 H   0  0  0  0  0  0  0  0  0  0  0  0
  -48.4316  -29.0403   -0.8606 H   0  0  0  0  0  0  0  0  0  0  0  0
  -48.0648  -30.0349   -3.3665 H   0  0  0  0  0  0  0  0  0  0  0  0
  -47.3749  -30.4073   -1.6637 H   0  0  0  0  0  0  0  0  0  0  0  0
  -48.2802  -31.8401   -1.3831 H   0  0  0  0  0  0  0  0  0  0  0  0
  -49.5309  -32.1530   -0.8568 H   0  0  0  0  0  0  0  0  0  0  0  0
  -51.2313  -30.7259   -2.2220 H   0  0  0  0  0  0  0  0  0  0  0  0
  -47.7734  -33.0476   -1.8845 H   0  0  0  0  0  0  0  0  0  0  0  0
  -50.6477  -33.1075   -3.0070 H   0  0  0  0  0  0  0  0  0  0  0  0
  -51.9025  -31.1888    0.2963 H   0  0  0  0  0  0  0  0  0  0  0  0
  -52.6378  -30.4921   -1.0465 H   0  0  0  0  0  0  0  0  0  0  0  0
  -51.2093  -34.0197   -0.7173 H   0  0  0  0  0  0  0  0  0  0  0  0
  -49.7670  -35.7881   -2.5671 H   0  0  0  0  0  0  0  0  0  0  0  0
  -46.4385  -33.0480   -2.7206 H   0  0  0  0  0  0  0  0  0  0  0  0
  -49.9533  -35.1619   -4.9189 H   0  0  0  0  0  0  0  0  0  0  0  0
  -48.1876  -34.9042   -5.0259 H   0  0  0  0  0  0  0  0  0  0  0  0
  -48.1303  -36.4490   -1.8048 H   0  0  0  0  0  0  0  0  0  0  0  0
  -46.0019  -36.4021   -3.3431 H   0  0  0  0  0  0  0  0  0  0  0  0
  -47.9778  -38.1268   -3.4965 H   0  0  0  0  0  0  0  0  0  0  0  0
  -49.6024  -37.5405   -4.2983 H   0  0  0  0  0  0  0  0  0  0  0  0
  -48.7732  -37.1747   -5.8508 H   0  0  0  0  0  0  0  0  0  0  0  0
  -47.4440  -35.5759   -0.6305 H   0  0  0  0  0  0  0  0  0  0  0  0
  -46.4368  -38.9242   -3.8962 H   0  0  0  0  0  0  0  0  0  0  0  0
  1  2  1  0
  2  3  1  0
  3  4  1  0
  4  5  1  0
  1  6  1  0
  5  6  1  0
  4  7  1  0
  7  8  1  0
  5  9  1  0
  8  9  1  0
  6 10  1  0
  9 11  1  0
  8 12  1  0
  7 13  1  0
 12 14  1  0
 12 15  1  0
 15 16  1  0
 16 17  1  0
 14 18  1  0
 17 18  1  0
 15 19  1  0
 17 20  1  0
 21 22  1  0
 22 23  1  0
 23 24  1  0
 24 25  1  0
 21 26  1  0
 25 26  1  0
 24 27  1  0
 27 28  1  0
 25 29  1  0
 28 29  1  0
 26 30  1  0
 29 31  1  0
 28 32  1  0
 27 33  1  0
 32 34  1  0
 32 35  1  0
 35 36  1  0
 36 37  1  0
 34 38  1  0
 37 38  1  0
 35 39  1  0
 37 40  1  0
 41 42  1  0
 42 43  1  0
 43 44  1  0
 44 45  1  0
 41 46  1  0
 45 46  1  0
 44 47  1  0
 47 48  1  0
 45 49  1  0
 48 49  1  0
 46 50  1  0
 49 51  1  0
 48 52  1  0
 47 53  1  0
 52 54  1  0
 52 55  1  0
 55 56  1  0
 56 57  1  0
 54 58  1  0
 57 58  1  0
 55 59  1  0
 57 60  1  0
 61 62  1  0
 62 63  1  0
 63 64  1  0
 64 65  1  0
 61 66  1  0
 65 66  1  0
 64 67  1  0
 67 68  1  0
 65 69  1  0
 68 69  1  0
 66 70  1  0
 69 71  1  0
 68 72  1  0
 67 73  1  0
 72 74  1  0
 72 75  1  0
 75 76  1  0
 76 77  1  0
 74 78  1  0
 77 78  1  0
 75 79  1  0
 77 80  1  0
  1 81  1  0
  1 82  1  0
  2 83  1  0
  2 84  1  0
  3 85  1  0
  3 86  1  0
  4 87  1  0
  5 88  1  0
  6 89  1  0
  7 90  1  0
  9 91  1  0
 10 92  1  0
 10 93  1  0
 11 94  1  0
 12 95  1  1
 13 96  1  0
 14 97  1  0
 14 98  1  0
 15 99  1  0
 16100  1  0
 17101  1  0
 18102  1  0
 18103  1  0
 19104  1  0
 20105  1  0
 21106  1  0
 21107  1  0
 22108  1  0
 22109  1  0
 23110  1  0
 23111  1  0
 24112  1  0
 25113  1  0
 26114  1  0
 27115  1  0
 29116  1  0
 30117  1  0
 30118  1  0
 31119  1  0
 32120  1  1
 33121  1  0
 34122  1  0
 34123  1  0
 35124  1  0
 36125  1  0
 37126  1  0
 38127  1  0
 38128  1  0
 39129  1  0
 40130  1  0
 41131  1  0
 41132  1  0
 42133  1  0
 42134  1  0
 43135  1  0
 43136  1  0
 44137  1  0
 45138  1  0
 46139  1  0
 47140  1  0
 49141  1  0
 50142  1  0
 50143  1  0
 51144  1  0
 52145  1  6
 53146  1  0
 54147  1  0
 54148  1  0
 55149  1  0
 56150  1  0
 57151  1  0
 58152  1  0
 58153  1  0
 59154  1  0
 60155  1  0
 61156  1  0
 61157  1  0
 62158  1  0
 62159  1  0
 63160  1  0
 63161  1  0
 64162  1  0
 65163  1  0
 66164  1  0
 67165  1  0
 69166  1  0
 70167  1  0
 70168  1  0
 71169  1  0
 72170  1  1
 73171  1  0
 74172  1  0
 74173  1  0
 75174  1  0
 76175  1  0
 77176  1  0
 78177  1  0
 78178  1  0
 79179  1  0
 80180  1  0
M  END
>  <PDBID>  (1) 
4TZU

>  <PDB ID>  (1) 
4TZU

>  <Generic Name>  (1) 
Pomalidomide

>  <Brand Name>  (1) 
Pomalyst#Imnovid

>  <DrugBank ID>  (1) 
DB08910

>  <ATC Codes>  (1) 
L04AX06

>  <Ligand ID>  (1) 
Y70

>  <Target Name>  (1) 
Protein cereblon

>  <UniProt ID>  (1) 
Q96SW2

>  <PDB ID.1>  (1) 
4TZU

>  <Seq. Identity>  (1) 
97%

$$$$
