PDB_DB00586_98
     RDKit          3D

 30 31  0  0  0  0  0  0  0  0999 V2000
   26.3130   21.4050   17.7120 C   0  0  0  0  0  0  0  0  0  0  0  0
   26.0650   22.5110   16.8680 C   0  0  0  0  0  0  0  0  0  0  0  0
   24.4170   22.7030   16.4320 Cl  0  0  0  0  0  0  0  0  0  0  0  0
   27.1280   23.2650   16.3120 C   0  0  0  0  0  0  0  0  0  0  0  0
   28.4560   22.8360   16.6490 C   0  0  0  0  0  0  0  0  0  0  0  0
   29.8440   23.6630   16.0410 Cl  0  0  0  0  0  0  0  0  0  0  0  0
   28.6920   21.7250   17.4800 C   0  0  0  0  0  0  0  0  0  0  0  0
   27.6180   21.0160   18.0140 C   0  0  0  0  0  0  0  0  0  0  0  0
   27.0580   24.4310   15.4370 N   0  0  0  0  0  0  0  0  0  0  0  0
   26.4170   25.6220   13.3530 C   0  0  0  0  0  0  0  0  0  0  0  0
   26.5330   24.4420   14.1270 C   0  0  0  0  0  0  0  0  0  0  0  0
   26.2130   23.2070   13.5520 C   0  0  0  0  0  0  0  0  0  0  0  0
   25.7520   23.1340   12.2350 C   0  0  0  0  0  0  0  0  0  0  0  0
   25.6000   24.2930   11.4810 C   0  0  0  0  0  0  0  0  0  0  0  0
   25.9280   25.5250   12.0390 C   0  0  0  0  0  0  0  0  0  0  0  0
   26.8840   26.9640   13.8140 C   0  0  0  0  0  0  0  0  0  0  0  0
   28.3600   27.0230   13.9800 C   0  0  0  0  0  0  0  0  0  0  0  0
   29.1070   27.6800   13.2600 O   0  0  0  0  0  0  0  0  0  0  0  0
   28.8090   26.2650   14.9980 O   0  0  0  0  0  0  0  0  0  0  0  0
   25.4669   20.8442   18.1358 H   0  0  0  0  0  0  0  0  0  0  0  0
   29.7231   21.4167   17.7077 H   0  0  0  0  0  0  0  0  0  0  0  0
   27.7986   20.1527   18.6713 H   0  0  0  0  0  0  0  0  0  0  0  0
   27.4224   25.3207   15.8066 H   0  0  0  0  0  0  0  0  0  0  0  0
   26.3254   22.2855   14.1421 H   0  0  0  0  0  0  0  0  0  0  0  0
   25.5084   22.1566   11.7929 H   0  0  0  0  0  0  0  0  0  0  0  0
   25.2226   24.2361   10.4493 H   0  0  0  0  0  0  0  0  0  0  0  0
   25.8022   26.4395   11.4407 H   0  0  0  0  0  0  0  0  0  0  0  0
   26.5814   27.7176   13.0721 H   0  0  0  0  0  0  0  0  0  0  0  0
   26.4276   27.1595   14.7956 H   0  0  0  0  0  0  0  0  0  0  0  0
   30.0832   27.6760   13.4249 H   0  0  0  0  0  0  0  0  0  0  0  0
  1  2  2  0
  2  3  1  0
  2  4  1  0
  4  5  2  0
  5  6  1  0
  5  7  1  0
  1  8  1  0
  7  8  2  0
  4  9  1  0
  9 11  1  0
 10 11  2  0
 11 12  1  0
 12 13  2  0
 13 14  1  0
 10 15  1  0
 14 15  2  0
 10 16  1  0
 16 17  1  0
 17 18  1  0
 17 19  2  0
  1 20  1  0
  7 21  1  0
  8 22  1  0
  9 23  1  0
 12 24  1  0
 13 25  1  0
 14 26  1  0
 15 27  1  0
 16 28  1  0
 16 29  1  0
 18 30  1  0
M  END
$$$$
