PDB_DB00275_99
     RDKit          3D

 59 62  0  0  0  0  0  0  0  0999 V2000
  -38.4570   63.3650   29.0820 C   0  0  0  0  0  0  0  0  0  0  0  0
  -39.0900   64.3770   28.3620 C   0  0  0  0  0  0  0  0  0  0  0  0
  -46.8370   65.3030   26.1570 O   0  0  0  0  0  0  0  0  0  0  0  0
  -40.4800   64.4120   28.2230 C   0  0  0  0  0  0  0  0  0  0  0  0
  -42.6610   63.0380   25.2580 O   0  0  0  0  0  0  0  0  0  0  0  0
  -40.9920   65.5010   27.4820 C   0  0  0  0  0  0  0  0  0  0  0  0
  -41.9440   64.9190   24.4600 O   0  0  0  0  0  0  0  0  0  0  0  0
  -42.7580   66.6540   31.8240 C   0  0  0  0  0  0  0  0  0  0  0  0
  -42.3660   66.1020   30.4710 C   0  0  0  0  0  0  0  0  0  0  0  0
  -43.2480   66.8470   29.4970 C   0  0  0  0  0  0  0  0  0  0  0  0
  -43.3980   66.0510   28.1730 C   0  0  0  0  0  0  0  0  0  0  0  0
  -44.6070   65.8230   27.6670 N   0  0  0  0  0  0  0  0  0  0  0  0
  -44.4460   65.1360   26.5460 C   0  0  0  0  0  0  0  0  0  0  0  0
  -45.6370   64.6760   25.6680 C   0  0  0  0  0  0  0  0  0  0  0  0
  -45.4410   65.1380   24.2150 C   0  0  0  0  0  0  0  0  0  0  0  0
  -45.8010   63.1380   25.7490 C   0  0  0  0  0  0  0  0  0  0  0  0
  -43.1360   64.9400   26.3590 C   0  0  0  0  0  0  0  0  0  0  0  0
  -42.5710   64.2840   25.3370 C   0  0  0  0  0  0  0  0  0  0  0  0
  -42.4610   65.5010   27.3760 N   0  0  0  0  0  0  0  0  0  0  0  0
  -41.2350   63.3860   28.8130 C   0  0  0  0  0  0  0  0  0  0  0  0
  -40.5980   62.3670   29.5340 C   0  0  0  0  0  0  0  0  0  0  0  0
  -39.2040   62.3440   29.6720 C   0  0  0  0  0  0  0  0  0  0  0  0
  -38.5690   61.3280   30.4050 C   0  0  0  0  0  0  0  0  0  0  0  0
  -38.9780   61.1340   31.7330 C   0  0  0  0  0  0  0  0  0  0  0  0
  -38.3950   60.1510   32.5300 C   0  0  0  0  0  0  0  0  0  0  0  0
  -37.3840   59.3490   32.0080 C   0  0  0  0  0  0  0  0  0  0  0  0
  -36.9590   59.5300   30.6910 C   0  0  0  0  0  0  0  0  0  0  0  0
  -37.5430   60.5100   29.8810 C   0  0  0  0  0  0  0  0  0  0  0  0
  -37.0930   60.6460   28.6320 C   0  0  0  0  0  0  0  0  0  0  0  0
  -37.7520   60.3670   27.5210 N   0  0  0  0  0  0  0  0  0  0  0  0
  -37.0020   60.6510   26.6350 N   0  0  0  0  0  0  0  0  0  0  0  0
  -35.8720   61.1150   27.1220 N   0  0  0  0  0  0  0  0  0  0  0  0
  -35.9080   61.1250   28.2970 N   0  0  0  0  0  0  0  0  0  0  0  0
  -37.3619   63.3710   29.1859 H   0  0  0  0  0  0  0  0  0  0  0  0
  -38.4822   65.1649   27.8932 H   0  0  0  0  0  0  0  0  0  0  0  0
  -46.8311   65.2999   27.1470 H   0  0  0  0  0  0  0  0  0  0  0  0
  -40.6784   66.4342   27.9728 H   0  0  0  0  0  0  0  0  0  0  0  0
  -40.5940   65.4126   26.4603 H   0  0  0  0  0  0  0  0  0  0  0  0
  -41.8710   65.9045   24.5196 H   0  0  0  0  0  0  0  0  0  0  0  0
  -42.3160   66.0316   32.6160 H   0  0  0  0  0  0  0  0  0  0  0  0
  -42.3892   67.6859   31.9199 H   0  0  0  0  0  0  0  0  0  0  0  0
  -43.8538   66.6458   31.9199 H   0  0  0  0  0  0  0  0  0  0  0  0
  -41.3036   66.2970   30.2630 H   0  0  0  0  0  0  0  0  0  0  0  0
  -42.4954   65.0115   30.4074 H   0  0  0  0  0  0  0  0  0  0  0  0
  -44.2416   66.9905   29.9466 H   0  0  0  0  0  0  0  0  0  0  0  0
  -42.7857   67.8200   29.2742 H   0  0  0  0  0  0  0  0  0  0  0  0
  -45.0114   66.1506   24.2070 H   0  0  0  0  0  0  0  0  0  0  0  0
  -44.7589   64.4462   23.6991 H   0  0  0  0  0  0  0  0  0  0  0  0
  -46.4125   65.1478   23.6991 H   0  0  0  0  0  0  0  0  0  0  0  0
  -45.8341   62.8278   26.8038 H   0  0  0  0  0  0  0  0  0  0  0  0
  -46.7358   62.8422   25.2503 H   0  0  0  0  0  0  0  0  0  0  0  0
  -44.9496   62.6517   25.2503 H   0  0  0  0  0  0  0  0  0  0  0  0
  -42.3301   63.3819   28.7090 H   0  0  0  0  0  0  0  0  0  0  0  0
  -41.2016   61.5733   29.9985 H   0  0  0  0  0  0  0  0  0  0  0  0
  -39.7725   61.7688   32.1521 H   0  0  0  0  0  0  0  0  0  0  0  0
  -38.7322   60.0093   33.5674 H   0  0  0  0  0  0  0  0  0  0  0  0
  -36.9199   58.5724   32.6337 H   0  0  0  0  0  0  0  0  0  0  0  0
  -36.1568   58.8958   30.2857 H   0  0  0  0  0  0  0  0  0  0  0  0
  -38.7056   59.9870   27.4369 H   0  0  0  0  0  0  0  0  0  0  0  0
  1  2  2  0
  2  4  1  0
  4  6  1  0
  8  9  1  0
  9 10  1  0
 10 11  1  0
 11 12  2  0
 12 13  1  0
  3 14  1  0
 13 14  1  0
 14 15  1  0
 14 16  1  0
 13 17  2  0
  5 18  2  0
  7 18  1  0
 17 18  1  0
  6 19  1  0
 11 19  1  0
 17 19  1  0
  4 20  2  0
 20 21  1  0
  1 22  1  0
 21 22  2  0
 22 23  1  0
 23 24  2  0
 24 25  1  0
 25 26  2  0
 26 27  1  0
 23 28  1  0
 27 28  2  0
 28 29  1  0
 29 30  1  0
 30 31  1  0
 31 32  2  0
 29 33  2  0
 32 33  1  0
  1 34  1  0
  2 35  1  0
  3 36  1  0
  6 37  1  0
  6 38  1  0
  7 39  1  0
  8 40  1  0
  8 41  1  0
  8 42  1  0
  9 43  1  0
  9 44  1  0
 10 45  1  0
 10 46  1  0
 15 47  1  0
 15 48  1  0
 15 49  1  0
 16 50  1  0
 16 51  1  0
 16 52  1  0
 20 53  1  0
 21 54  1  0
 24 55  1  0
 25 56  1  0
 26 57  1  0
 27 58  1  0
 30 59  1  0
M  END
>  <PDBID>  (1) 
4ZUD

>  <PDB ID>  (1) 
4ZUD

>  <Generic Name>  (1) 
Olmesartan

>  <Brand Name>  (1) 
Amlodipine Besylate and Olmesartan Medoxomil#Amlodipine and Olmesartan Medoxomil#Azor#Benicar#Benicar Hct#Olmesartan Medoxmil and Hydrochlorothiazide#Olmesartan Medoxomil#Olmesartan Medoxomil / Amlodipine Besylate / Hydrochlorothiazide#Olmesartan Medoxomil and Hydrochlorothiazide#Olmesartan Medoxomil, Amlodipine and Hydrochlorothiazide#Olmesartan Medoxomil, Amlodipine and Hydrochlorothiazide 20/5/12.5 mg#Olmesartan Medoxomil, Amlodipine and Hydrochlorothiazide 40/10/12.5 mg#Olmesartan Medoxomil, Amlodipine and Hydrochlorothiazide 40/10/25 mg#Olmesartan Medoxomil, Amlodipine and Hydrochlorothiazide 40/5/12.5 mg#Olmesartan Medoxomil, Amlodipine and Hydrochlorothiazide 40/5/25 mg#Olmetec#Olmetec Plus#Tribenzor#Erastapex#Golme#Olmetec#WinBP

>  <DrugBank ID>  (1) 
DB00275

>  <ATC Codes>  (1) 
C09DA08#C09CA08#C09DX03#C09DB02

>  <Ligand ID>  (1) 
OLM

>  <Target Name>  (1) 
Type-1 angiotensin II receptor

>  <UniProt ID>  (1) 
P30556

>  <PDB ID.1>  (1) 
4ZUD

>  <Seq. Identity>  (1) 
87%

$$$$
