PDB_DB00834_95
     RDKit          3D

 83 87  0  0  0  0  0  0  0  0999 V2000
   -4.5830   18.2170    3.5200 O   0  0  0  0  0  0  0  0  0  0  0  0
   -3.9930   17.1990    3.7130 C   0  0  1  0  0  0  0  0  0  0  0  0
   -4.7010   15.8380    4.0870 C   0  0  0  0  0  0  0  0  0  0  0  0
   -2.5020   17.0820    3.5340 C   0  0  0  0  0  0  0  0  0  0  0  0
   -1.9970   15.8560    3.2290 C   0  0  1  0  0  0  0  0  0  0  0  0
   -0.4390   15.7460    3.1050 C   0  0  0  0  0  0  0  0  0  0  0  0
   -2.9360   14.7010    3.1750 C   0  0  1  0  0  0  0  0  0  0  0  0
   -4.4750   15.0660    2.8400 C   0  0  0  0  0  0  0  0  0  0  0  0
   -2.4120   13.4380    3.4880 C   0  0  0  0  0  0  0  0  0  0  0  0
   -3.2390   12.0070    3.5310 C   0  0  1  0  0  0  0  0  0  0  0  0
   -3.1910   11.4060    2.0710 C   0  0  1  0  0  0  0  0  0  0  0  0
   -2.3340   12.0250    1.0580 C   0  0  0  0  0  0  0  0  0  0  0  0
   -2.1730   11.5110   -0.2110 C   0  0  0  0  0  0  0  0  0  0  0  0
   -2.8350   10.2880   -0.5950 C   0  0  1  0  0  0  0  0  0  0  0  0
   -2.7790    9.7150   -1.9260 N   0  0  0  0  0  0  0  0  0  0  0  0
   -3.5420    8.4900   -2.1770 C   0  0  0  0  0  0  0  0  0  0  0  0
   -2.3710   10.5100   -3.1140 C   0  0  0  0  0  0  0  0  0  0  0  0
   -3.7120    9.6570    0.4180 C   0  0  0  0  0  0  0  0  0  0  0  0
   -3.8620   10.1890    1.7210 C   0  0  0  0  0  0  0  0  0  0  0  0
   -2.6460   11.0540    4.5960 C   0  0  0  0  0  0  0  0  0  0  0  0
   -1.1360   11.0380    5.0070 C   0  0  2  0  0  0  0  0  0  0  0  0
   -0.4170   10.1100    3.8580 C   0  0  0  0  0  0  0  0  0  0  0  0
   -0.8530   10.3480    6.3800 C   0  0  1  0  0  0  0  0  0  0  0  0
   -1.5870   10.8820    7.5980 C   0  0  0  0  0  0  0  0  0  0  0  0
   -2.4850   11.0420    8.3910 C   0  0  0  0  0  0  0  0  0  0  0  0
   -3.1640   11.4480    9.6560 C   0  0  0  0  0  0  0  0  0  0  0  0
   -0.9200    8.8980    6.3080 O   0  0  0  0  0  0  0  0  0  0  0  0
    0.6230   10.8610    6.4670 C   0  0  0  0  0  0  0  0  0  0  0  0
    0.6840   12.2590    5.7760 C   0  0  0  0  0  0  0  0  0  0  0  0
   -0.7620   12.5550    5.1970 C   0  0  1  0  0  0  0  0  0  0  0  0
   -0.8190   13.3590    3.8950 C   0  0  2  0  0  0  0  0  0  0  0  0
   -0.0450   14.7230    4.1340 C   0  0  0  0  0  0  0  0  0  0  0  0
   -4.8220   18.6295    4.3877 H   0  0  0  0  0  0  0  0  0  0  0  0
   -3.9103   17.4494    4.7809 H   0  0  0  0  0  0  0  0  0  0  0  0
   -4.2251   15.3573    4.9544 H   0  0  0  0  0  0  0  0  0  0  0  0
   -5.7563   15.9354    4.3817 H   0  0  0  0  0  0  0  0  0  0  0  0
   -2.2134   17.7674    2.7235 H   0  0  0  0  0  0  0  0  0  0  0  0
   -2.0833   17.3174    4.5236 H   0  0  0  0  0  0  0  0  0  0  0  0
   -2.0655   16.0944    2.1573 H   0  0  0  0  0  0  0  0  0  0  0  0
   -0.1528   15.4121    2.0967 H   0  0  0  0  0  0  0  0  0  0  0  0
    0.0605   16.7126    3.2669 H   0  0  0  0  0  0  0  0  0  0  0  0
   -3.1420   14.8183    4.2492 H   0  0  0  0  0  0  0  0  0  0  0  0
   -5.1193   14.1778    2.7628 H   0  0  0  0  0  0  0  0  0  0  0  0
   -4.6842   15.5679    1.8838 H   0  0  0  0  0  0  0  0  0  0  0  0
   -2.6450   13.6045    4.5501 H   0  0  0  0  0  0  0  0  0  0  0  0
   -4.2865   12.1570    3.8313 H   0  0  0  0  0  0  0  0  0  0  0  0
   -4.0197   12.0649    1.7725 H   0  0  0  0  0  0  0  0  0  0  0  0
   -2.7158   13.0478    0.9234 H   0  0  0  0  0  0  0  0  0  0  0  0
   -1.3349   11.8606    1.4879 H   0  0  0  0  0  0  0  0  0  0  0  0
   -2.5146   12.2875   -0.9112 H   0  0  0  0  0  0  0  0  0  0  0  0
   -1.1088   11.2335   -0.2323 H   0  0  0  0  0  0  0  0  0  0  0  0
   -3.7295   10.8615   -0.8795 H   0  0  0  0  0  0  0  0  0  0  0  0
   -3.8269    8.0325   -1.2181 H   0  0  0  0  0  0  0  0  0  0  0  0
   -4.4484    8.7336   -2.7507 H   0  0  0  0  0  0  0  0  0  0  0  0
   -2.9237    7.7839   -2.7507 H   0  0  0  0  0  0  0  0  0  0  0  0
   -1.8919   11.4435   -2.7836 H   0  0  0  0  0  0  0  0  0  0  0  0
   -1.6605    9.9273   -3.7187 H   0  0  0  0  0  0  0  0  0  0  0  0
   -3.2586   10.7475   -3.7187 H   0  0  0  0  0  0  0  0  0  0  0  0
   -4.7201    9.6319   -0.0214 H   0  0  0  0  0  0  0  0  0  0  0  0
   -3.1889    8.7098    0.6160 H   0  0  0  0  0  0  0  0  0  0  0  0
   -3.5117    9.4180    2.4230 H   0  0  0  0  0  0  0  0  0  0  0  0
   -4.9270   10.4606    1.7666 H   0  0  0  0  0  0  0  0  0  0  0  0
   -3.2056   11.2547    5.5215 H   0  0  0  0  0  0  0  0  0  0  0  0
   -2.7356   10.0843    4.0845 H   0  0  0  0  0  0  0  0  0  0  0  0
    0.1878    9.3294    4.3427 H   0  0  0  0  0  0  0  0  0  0  0  0
   -1.1886    9.6395    3.2309 H   0  0  0  0  0  0  0  0  0  0  0  0
    0.2313   10.7397    3.2309 H   0  0  0  0  0  0  0  0  0  0  0  0
   -0.8332   10.5696    8.3357 H   0  0  0  0  0  0  0  0  0  0  0  0
   -2.1426   11.5390    6.9127 H   0  0  0  0  0  0  0  0  0  0  0  0
   -3.1376   11.6161    7.7168 H   0  0  0  0  0  0  0  0  0  0  0  0
   -2.0859   10.1773    8.9415 H   0  0  0  0  0  0  0  0  0  0  0  0
   -2.5762   11.0965   10.5168 H   0  0  0  0  0  0  0  0  0  0  0  0
   -3.2473   12.5443    9.6919 H   0  0  0  0  0  0  0  0  0  0  0  0
   -4.1691   11.0025    9.6919 H   0  0  0  0  0  0  0  0  0  0  0  0
   -0.9373    8.5226    7.2239 H   0  0  0  0  0  0  0  0  0  0  0  0
    0.9264   10.9508    7.5205 H   0  0  0  0  0  0  0  0  0  0  0  0
    1.3047   10.1561    5.9685 H   0  0  0  0  0  0  0  0  0  0  0  0
    0.9624   13.0306    6.5089 H   0  0  0  0  0  0  0  0  0  0  0  0
    1.4367   12.2673    4.9739 H   0  0  0  0  0  0  0  0  0  0  0  0
   -1.4116   13.1927    5.8146 H   0  0  0  0  0  0  0  0  0  0  0  0
   -0.3087   12.9177    3.0262 H   0  0  0  0  0  0  0  0  0  0  0  0
    1.0376   14.5405    4.0654 H   0  0  0  0  0  0  0  0  0  0  0  0
   -0.3053   15.1068    5.1314 H   0  0  0  0  0  0  0  0  0  0  0  0
  1  2  1  0
  2  3  1  0
  2  4  1  0
  4  5  1  0
  5  6  1  0
  5  7  1  0
  3  8  1  0
  7  8  1  0
  7  9  1  0
  9 10  1  0
 10 11  1  0
 11 12  1  0
 12 13  1  0
 13 14  1  0
 14 15  1  0
 15 16  1  0
 15 17  1  0
 14 18  1  0
 11 19  1  0
 18 19  1  0
 10 20  1  0
 20 21  1  0
 21 22  1  6
 21 23  1  0
 23 24  1  0
 24 25  1  0
 25 26  1  0
 23 27  1  6
 23 28  1  0
 28 29  1  0
 21 30  1  0
 29 30  1  0
  9 31  1  0
 30 31  1  0
  6 32  1  0
 31 32  1  0
  1 33  1  0
  2 34  1  1
  3 35  1  0
  3 36  1  0
  4 37  1  0
  4 38  1  0
  5 39  1  6
  6 40  1  0
  6 41  1  0
  7 42  1  6
  8 43  1  0
  8 44  1  0
  9 45  1  0
 10 46  1  1
 11 47  1  6
 12 48  1  0
 12 49  1  0
 13 50  1  0
 13 51  1  0
 14 52  1  1
 16 53  1  0
 16 54  1  0
 16 55  1  0
 17 56  1  0
 17 57  1  0
 17 58  1  0
 18 59  1  0
 18 60  1  0
 19 61  1  0
 19 62  1  0
 20 63  1  0
 20 64  1  0
 22 65  1  0
 22 66  1  0
 22 67  1  0
 24 68  1  0
 24 69  1  0
 25 70  1  0
 25 71  1  0
 26 72  1  0
 26 73  1  0
 26 74  1  0
 27 75  1  0
 28 76  1  0
 28 77  1  0
 29 78  1  0
 29 79  1  0
 30 80  1  1
 31 81  1  6
 32 82  1  0
 32 83  1  0
M  END
>  <PDBID>  (1) 
1NHZ

>  <PDB ID>  (1) 
1NHZ

>  <Generic Name>  (1) 
Mifepristone

>  <Brand Name>  (1) 
Korlym#Mifegymiso#Corlux#Mefipil#Mifegyne#Mifeprex

>  <DrugBank ID>  (1) 
DB00834

>  <ATC Codes>  (1) 
G03XB01#G03XB51

>  <Ligand ID>  (1) 
486

>  <Target Name>  (1) 
Glucocorticoid receptor

>  <UniProt ID>  (1) 
P04150

>  <PDB ID.1>  (1) 
1NHZ

>  <Seq. Identity>  (1) 
99%

$$$$
