PDB_DB00443_95
     RDKit          3D

 57 60  0  0  0  0  0  0  0  0999 V2000
   53.8020    7.0210   35.4740 C   0  0  0  0  0  0  0  0  0  0  0  0
   54.2920    6.3130   34.3590 C   0  0  0  0  0  0  0  0  0  0  0  0
   54.4340    4.8120   34.4580 C   0  0  0  0  0  0  0  0  0  0  0  0
   54.0240    4.1390   35.7810 C   0  0  0  0  0  0  0  0  0  0  0  0
   53.5430    4.8190   36.8790 C   0  0  0  0  0  0  0  0  0  0  0  0
   53.1230    4.0510   38.2550 C   0  0  0  0  0  0  0  0  0  0  0  0
   53.7830    4.7500   39.4780 C   0  0  0  0  0  0  0  0  0  0  0  0
   53.5610    6.3660   39.5420 C   0  0  2  0  0  0  0  0  0  0  0  0
   54.0510    7.1080   38.2020 C   0  0  1  0  0  0  0  0  0  0  0  0
   53.3540    6.4140   36.8930 C   0  0  1  0  0  0  0  0  0  0  0  0
   53.8920    8.6910   38.2630 C   0  0  2  0  0  0  0  0  0  0  0  0
   54.5340    9.2710   39.5560 C   0  0  0  0  0  0  0  0  0  0  0  0
   54.1330    8.5880   40.9670 C   0  0  1  0  0  0  0  0  0  0  0  0
   54.2940    7.0280   40.8200 C   0  0  1  0  0  0  0  0  0  0  0  0
   53.9300    6.5000   42.2760 C   0  0  0  0  0  0  0  0  0  0  0  0
   54.8200    7.3790   43.1320 C   0  0  2  0  0  0  0  0  0  0  0  0
   55.0010    8.7370   42.3070 C   0  0  2  0  0  0  0  0  0  0  0  0
   52.6050    9.0880   41.2770 C   0  0  0  0  0  0  0  0  0  0  0  0
   51.7680    6.6260   36.9730 C   0  0  0  0  0  0  0  0  0  0  0  0
   54.8640   10.0630   43.1200 C   0  0  0  0  0  0  0  0  0  0  0  0
   55.0270   11.3830   42.3890 C   0  0  0  0  0  0  0  0  0  0  0  0
   56.1920    6.6600   43.4480 C   0  0  0  0  0  0  0  0  0  0  0  0
   55.3690    6.8730   38.0370 F   0  0  0  0  0  0  0  0  0  0  0  0
   54.8640    4.0780   33.5200 O   0  0  0  0  0  0  0  0  0  0  0  0
   52.6500    9.1890   38.1500 O   0  0  0  0  0  0  0  0  0  0  0  0
   56.3520    8.9790   42.0560 O   0  0  0  0  0  0  0  0  0  0  0  0
   54.6180    9.9870   44.3680 O   0  0  0  0  0  0  0  0  0  0  0  0
   54.8740   12.4290   43.2600 O   0  0  0  0  0  0  0  0  0  0  0  0
   53.7164    8.1118   35.3606 H   0  0  0  0  0  0  0  0  0  0  0  0
   54.5658    6.8425   33.4345 H   0  0  0  0  0  0  0  0  0  0  0  0
   54.1212    3.0458   35.8544 H   0  0  0  0  0  0  0  0  0  0  0  0
   52.0291    4.0771   38.3673 H   0  0  0  0  0  0  0  0  0  0  0  0
   53.4685    3.0078   38.2058 H   0  0  0  0  0  0  0  0  0  0  0  0
   53.3608    4.3097   40.3933 H   0  0  0  0  0  0  0  0  0  0  0  0
   54.8668    4.5890   39.3803 H   0  0  0  0  0  0  0  0  0  0  0  0
   52.4749    6.5101   39.6406 H   0  0  0  0  0  0  0  0  0  0  0  0
   54.4211    9.0126   37.3538 H   0  0  0  0  0  0  0  0  0  0  0  0
   55.6253    9.1850   39.4479 H   0  0  0  0  0  0  0  0  0  0  0  0
   54.1442   10.2974   39.6234 H   0  0  0  0  0  0  0  0  0  0  0  0
   55.3079    6.7068   40.5393 H   0  0  0  0  0  0  0  0  0  0  0  0
   52.8659    6.6548   42.5077 H   0  0  0  0  0  0  0  0  0  0  0  0
   54.0853    5.4205   42.4193 H   0  0  0  0  0  0  0  0  0  0  0  0
   54.3790    7.5868   44.1181 H   0  0  0  0  0  0  0  0  0  0  0  0
   52.4494    9.1389   42.3648 H   0  0  0  0  0  0  0  0  0  0  0  0
   52.4488   10.0841   40.8373 H   0  0  0  0  0  0  0  0  0  0  0  0
   51.8902    8.3769   40.8373 H   0  0  0  0  0  0  0  0  0  0  0  0
   51.4564    6.6677   38.0271 H   0  0  0  0  0  0  0  0  0  0  0  0
   51.4983    7.5682   36.4734 H   0  0  0  0  0  0  0  0  0  0  0  0
   51.2604    5.7877   36.4734 H   0  0  0  0  0  0  0  0  0  0  0  0
   56.0302   11.4280   41.9400 H   0  0  0  0  0  0  0  0  0  0  0  0
   54.2600   11.4551   41.6038 H   0  0  0  0  0  0  0  0  0  0  0  0
   56.3266    6.5895   44.5375 H   0  0  0  0  0  0  0  0  0  0  0  0
   56.1851    5.6496   43.0132 H   0  0  0  0  0  0  0  0  0  0  0  0
   57.0189    7.2406   43.0132 H   0  0  0  0  0  0  0  0  0  0  0  0
   52.2719    9.3406   39.0523 H   0  0  0  0  0  0  0  0  0  0  0  0
   56.8368    9.0658   42.9148 H   0  0  0  0  0  0  0  0  0  0  0  0
   54.9230   12.0937   44.1902 H   0  0  0  0  0  0  0  0  0  0  0  0
  1  2  2  0
  2  3  1  0
  3  4  1  0
  4  5  2  0
  5  6  1  0
  6  7  1  0
  7  8  1  0
  8  9  1  0
  1 10  1  0
  5 10  1  0
  9 10  1  0
  9 11  1  0
 11 12  1  0
 12 13  1  0
  8 14  1  0
 13 14  1  0
 14 15  1  0
 15 16  1  0
 13 17  1  0
 16 17  1  0
 13 18  1  1
 10 19  1  1
 17 20  1  0
 20 21  1  0
 16 22  1  0
  9 23  1  6
  3 24  2  0
 11 25  1  0
 17 26  1  6
 20 27  2  0
 21 28  1  0
  1 29  1  0
  2 30  1  0
  4 31  1  0
  6 32  1  0
  6 33  1  0
  7 34  1  0
  7 35  1  0
  8 36  1  1
 11 37  1  6
 12 38  1  0
 12 39  1  0
 14 40  1  6
 15 41  1  0
 15 42  1  0
 16 43  1  1
 18 44  1  0
 18 45  1  0
 18 46  1  0
 19 47  1  0
 19 48  1  0
 19 49  1  0
 21 50  1  0
 21 51  1  0
 22 52  1  0
 22 53  1  0
 22 54  1  0
 25 55  1  0
 26 56  1  0
 28 57  1  0
M  END
$$$$
