PDB_DB00619_93
     RDKit          3D

 68 72  0  0  0  0  0  0  0  0999 V2000
   25.7540   63.5930   46.9850 C   0  0  0  0  0  0  0  0  0  0  0  0
   25.0030   63.2180   45.8300 C   0  0  0  0  0  0  0  0  0  0  0  0
   23.6940   63.7260   45.6670 C   0  0  0  0  0  0  0  0  0  0  0  0
   23.1570   64.5960   46.6450 C   0  0  0  0  0  0  0  0  0  0  0  0
   23.8470   64.9730   47.7760 N   0  0  0  0  0  0  0  0  0  0  0  0
   25.1010   64.4620   47.8940 C   0  0  0  0  0  0  0  0  0  0  0  0
   22.8490   63.3700   44.4490 C   0  0  0  0  0  0  0  0  0  0  0  0
   23.3040   62.6940   43.3790 C   0  0  0  0  0  0  0  0  0  0  0  0
   22.4210   62.4410   42.3330 C   0  0  0  0  0  0  0  0  0  0  0  0
   21.1820   62.8410   42.4050 N   0  0  0  0  0  0  0  0  0  0  0  0
   20.7760   63.5350   43.4870 C   0  0  0  0  0  0  0  0  0  0  0  0
   21.5970   63.8370   44.4970 N   0  0  0  0  0  0  0  0  0  0  0  0
   19.4890   64.0310   43.7060 N   0  0  0  0  0  0  0  0  0  0  0  0
   18.5380   63.8450   42.7120 C   0  0  0  0  0  0  0  0  0  0  0  0
   18.3700   64.8080   41.7120 C   0  0  0  0  0  0  0  0  0  0  0  0
   17.3530   64.6170   40.7810 C   0  0  0  0  0  0  0  0  0  0  0  0
   16.4840   63.5060   40.7630 C   0  0  0  0  0  0  0  0  0  0  0  0
   16.6150   62.5740   41.8020 C   0  0  0  0  0  0  0  0  0  0  0  0
   17.6350   62.7350   42.7720 C   0  0  0  0  0  0  0  0  0  0  0  0
   15.6520   61.5420   41.7390 N   0  0  0  0  0  0  0  0  0  0  0  0
   15.4300   60.7370   42.7700 C   0  0  0  0  0  0  0  0  0  0  0  0
   14.1720   60.0050   42.7730 C   0  0  0  0  0  0  0  0  0  0  0  0
   13.7500   59.3560   43.9740 C   0  0  0  0  0  0  0  0  0  0  0  0
   12.5550   58.5650   43.9500 C   0  0  0  0  0  0  0  0  0  0  0  0
   11.7750   58.4620   42.7750 C   0  0  0  0  0  0  0  0  0  0  0  0
   12.2160   59.0960   41.6070 C   0  0  0  0  0  0  0  0  0  0  0  0
   13.4320   59.8720   41.5880 C   0  0  0  0  0  0  0  0  0  0  0  0
   10.5420   57.6220   42.8210 C   0  0  0  0  0  0  0  0  0  0  0  0
   10.4130   56.7750   41.6520 N   0  0  0  0  0  0  0  0  0  0  0  0
   11.5700   55.9080   41.4660 C   0  0  0  0  0  0  0  0  0  0  0  0
   11.4280   54.9250   40.2100 C   0  0  0  0  0  0  0  0  0  0  0  0
   10.0440   54.3590   40.2790 N   0  0  0  0  0  0  0  0  0  0  0  0
    9.8340   53.5540   39.0770 C   0  0  0  0  0  0  0  0  0  0  0  0
    8.9820   55.3270   40.3300 C   0  0  0  0  0  0  0  0  0  0  0  0
    9.0930   56.0860   41.6540 C   0  0  0  0  0  0  0  0  0  0  0  0
   16.2110   60.4770   43.6620 O   0  0  0  0  0  0  0  0  0  0  0  0
   19.2890   66.0280   41.5800 C   0  0  0  0  0  0  0  0  0  0  0  0
   26.7775   63.2293   47.1587 H   0  0  0  0  0  0  0  0  0  0  0  0
   25.4370   62.5432   45.0775 H   0  0  0  0  0  0  0  0  0  0  0  0
   22.1409   64.9898   46.4952 H   0  0  0  0  0  0  0  0  0  0  0  0
   25.6689   64.7539   48.7897 H   0  0  0  0  0  0  0  0  0  0  0  0
   24.3477   62.3497   43.3316 H   0  0  0  0  0  0  0  0  0  0  0  0
   22.7704   61.9007   41.4408 H   0  0  0  0  0  0  0  0  0  0  0  0
   19.2521   64.5210   44.5804 H   0  0  0  0  0  0  0  0  0  0  0  0
   17.2176   65.3855   40.0057 H   0  0  0  0  0  0  0  0  0  0  0  0
   15.7354   63.3764   39.9675 H   0  0  0  0  0  0  0  0  0  0  0  0
   17.7347   61.9976   43.5821 H   0  0  0  0  0  0  0  0  0  0  0  0
   15.1100   61.4117   40.8729 H   0  0  0  0  0  0  0  0  0  0  0  0
   14.3323   59.4616   44.9012 H   0  0  0  0  0  0  0  0  0  0  0  0
   12.2402   58.0305   44.8584 H   0  0  0  0  0  0  0  0  0  0  0  0
   11.6233   59.0004   40.6853 H   0  0  0  0  0  0  0  0  0  0  0  0
   13.7738   60.3520   40.6592 H   0  0  0  0  0  0  0  0  0  0  0  0
   10.5802   56.9854   43.7173 H   0  0  0  0  0  0  0  0  0  0  0  0
    9.6740   58.2972   42.8464 H   0  0  0  0  0  0  0  0  0  0  0  0
   12.4589   56.5387   41.3173 H   0  0  0  0  0  0  0  0  0  0  0  0
   11.6543   55.2792   42.3646 H   0  0  0  0  0  0  0  0  0  0  0  0
   11.5660   55.4823   39.2717 H   0  0  0  0  0  0  0  0  0  0  0  0
   12.1883   54.1305   40.2341 H   0  0  0  0  0  0  0  0  0  0  0  0
    9.5661   52.5269   39.3657 H   0  0  0  0  0  0  0  0  0  0  0  0
    9.0199   53.9914   38.4804 H   0  0  0  0  0  0  0  0  0  0  0  0
   10.7580   53.5379   38.4804 H   0  0  0  0  0  0  0  0  0  0  0  0
    9.0770   56.0292   39.4887 H   0  0  0  0  0  0  0  0  0  0  0  0
    8.0056   54.8253   40.2593 H   0  0  0  0  0  0  0  0  0  0  0  0
    9.0351   55.3832   42.4982 H   0  0  0  0  0  0  0  0  0  0  0  0
    8.2723   56.8106   41.7609 H   0  0  0  0  0  0  0  0  0  0  0  0
   19.5625   66.3911   42.5817 H   0  0  0  0  0  0  0  0  0  0  0  0
   20.1993   65.7437   41.0318 H   0  0  0  0  0  0  0  0  0  0  0  0
   18.7645   66.8245   41.0318 H   0  0  0  0  0  0  0  0  0  0  0  0
  1  2  2  0
  2  3  1  0
  3  4  2  0
  4  5  1  0
  1  6  1  0
  5  6  2  0
  3  7  1  0
  7  8  2  0
  8  9  1  0
  9 10  2  0
 10 11  1  0
  7 12  1  0
 11 12  2  0
 11 13  1  0
 13 14  1  0
 14 15  2  0
 15 16  1  0
 16 17  2  0
 17 18  1  0
 14 19  1  0
 18 19  2  0
 18 20  1  0
 20 21  1  0
 21 22  1  0
 22 23  2  0
 23 24  1  0
 24 25  2  0
 25 26  1  0
 22 27  1  0
 26 27  2  0
 25 28  1  0
 28 29  1  0
 29 30  1  0
 30 31  1  0
 31 32  1  0
 32 33  1  0
 32 34  1  0
 29 35  1  0
 34 35  1  0
 21 36  2  0
 15 37  1  0
  1 38  1  0
  2 39  1  0
  4 40  1  0
  6 41  1  0
  8 42  1  0
  9 43  1  0
 13 44  1  0
 16 45  1  0
 17 46  1  0
 19 47  1  0
 20 48  1  0
 23 49  1  0
 24 50  1  0
 26 51  1  0
 27 52  1  0
 28 53  1  0
 28 54  1  0
 30 55  1  0
 30 56  1  0
 31 57  1  0
 31 58  1  0
 33 59  1  0
 33 60  1  0
 33 61  1  0
 34 62  1  0
 34 63  1  0
 35 64  1  0
 35 65  1  0
 37 66  1  0
 37 67  1  0
 37 68  1  0
M  END
$$$$
