PDB_DB00127_95
     RDKit          3D

 40 39  0  0  0  0  0  0  0  0999 V2000
   65.0740  -49.8620    1.3500 N   0  0  0  0  0  0  0  0  0  0  0  0
   63.8820  -50.5210    0.8320 C   0  0  0  0  0  0  0  0  0  0  0  0
   63.0800  -49.5100    0.0080 C   0  0  0  0  0  0  0  0  0  0  0  0
   61.8780  -50.1760   -0.6220 C   0  0  0  0  0  0  0  0  0  0  0  0
   61.4540  -49.5910   -1.8880 N   0  0  0  0  0  0  0  0  0  0  0  0
   60.1130  -49.9960   -2.2920 C   0  0  0  0  0  0  0  0  0  0  0  0
   59.6710  -49.4600   -3.6390 C   0  0  0  0  0  0  0  0  0  0  0  0
   58.3070  -50.0010   -4.0190 C   0  0  0  0  0  0  0  0  0  0  0  0
   58.5030  -51.2440   -4.8820 C   0  0  0  0  0  0  0  0  0  0  0  0
   57.2710  -51.9060   -5.2780 N   0  0  0  0  0  0  0  0  0  0  0  0
   57.3510  -53.0740   -6.1330 C   0  0  0  0  0  0  0  0  0  0  0  0
   58.0830  -54.2760   -5.5390 C   0  0  0  0  0  0  0  0  0  0  0  0
   57.3250  -54.9730   -4.4230 C   0  0  0  0  0  0  0  0  0  0  0  0
   56.4350  -56.0030   -4.9290 N   0  0  0  0  0  0  0  0  0  0  0  0
   65.0527  -49.8738    2.3797 H   0  0  0  0  0  0  0  0  0  0  0  0
   65.9128  -50.3592    1.0182 H   0  0  0  0  0  0  0  0  0  0  0  0
   64.1751  -51.3683    0.1947 H   0  0  0  0  0  0  0  0  0  0  0  0
   63.2690  -50.8952    1.6652 H   0  0  0  0  0  0  0  0  0  0  0  0
   62.7400  -48.6959    0.6650 H   0  0  0  0  0  0  0  0  0  0  0  0
   63.7238  -49.1098   -0.7891 H   0  0  0  0  0  0  0  0  0  0  0  0
   62.1248  -51.2334   -0.7983 H   0  0  0  0  0  0  0  0  0  0  0  0
   61.0423  -50.0391    0.0800 H   0  0  0  0  0  0  0  0  0  0  0  0
   61.4716  -48.5653   -1.7959 H   0  0  0  0  0  0  0  0  0  0  0  0
   60.0845  -51.0948   -2.3338 H   0  0  0  0  0  0  0  0  0  0  0  0
   59.4223  -49.5745   -1.5469 H   0  0  0  0  0  0  0  0  0  0  0  0
   59.6216  -48.3622   -3.5905 H   0  0  0  0  0  0  0  0  0  0  0  0
   60.3988  -49.7803   -4.3991 H   0  0  0  0  0  0  0  0  0  0  0  0
   57.7460  -50.2648   -3.1103 H   0  0  0  0  0  0  0  0  0  0  0  0
   57.7415  -49.2400   -4.5767 H   0  0  0  0  0  0  0  0  0  0  0  0
   59.0414  -50.9470   -5.7941 H   0  0  0  0  0  0  0  0  0  0  0  0
   59.0610  -51.9656   -4.2672 H   0  0  0  0  0  0  0  0  0  0  0  0
   56.7913  -52.1955   -4.4137 H   0  0  0  0  0  0  0  0  0  0  0  0
   56.3248  -53.3879   -6.3746 H   0  0  0  0  0  0  0  0  0  0  0  0
   57.9391  -52.7660   -7.0101 H   0  0  0  0  0  0  0  0  0  0  0  0
   58.2606  -55.0047   -6.3437 H   0  0  0  0  0  0  0  0  0  0  0  0
   59.0159  -53.8939   -5.0988 H   0  0  0  0  0  0  0  0  0  0  0  0
   58.0497  -55.4358   -3.7369 H   0  0  0  0  0  0  0  0  0  0  0  0
   56.7126  -54.2192   -3.9066 H   0  0  0  0  0  0  0  0  0  0  0  0
   56.0034  -56.5025   -4.1384 H   0  0  0  0  0  0  0  0  0  0  0  0
   55.6989  -55.5687   -5.5037 H   0  0  0  0  0  0  0  0  0  0  0  0
  1  2  1  0
  2  3  1  0
  3  4  1  0
  4  5  1  0
  5  6  1  0
  6  7  1  0
  7  8  1  0
  8  9  1  0
  9 10  1  0
 10 11  1  0
 11 12  1  0
 12 13  1  0
 13 14  1  0
  1 15  1  0
  1 16  1  0
  2 17  1  0
  2 18  1  0
  3 19  1  0
  3 20  1  0
  4 21  1  0
  4 22  1  0
  5 23  1  0
  6 24  1  0
  6 25  1  0
  7 26  1  0
  7 27  1  0
  8 28  1  0
  8 29  1  0
  9 30  1  0
  9 31  1  0
 10 32  1  0
 11 33  1  0
 11 34  1  0
 12 35  1  0
 12 36  1  0
 13 37  1  0
 13 38  1  0
 14 39  1  0
 14 40  1  0
M  END
$$$$
