PDB_DB00834_94
     RDKit          3D

 67 71  0  0  0  0  0  0  0  0999 V2000
  109.1470   14.2630   72.0640 O   0  0  0  0  0  0  0  0  0  0  0  0
  109.4050   13.1840   71.5590 C   0  0  0  0  0  0  0  0  0  0  0  0
  109.2620   12.9340   70.0660 C   0  0  0  0  0  0  0  0  0  0  0  0
  109.7780   12.0290   72.3670 C   0  0  0  0  0  0  0  0  0  0  0  0
  109.7520   10.7560   71.9220 C   0  0  0  0  0  0  0  0  0  0  0  0
  110.1050    9.6140   72.8380 C   0  0  0  0  0  0  0  0  0  0  0  0
  109.3260   10.4270   70.5510 C   0  0  0  0  0  0  0  0  0  0  0  0
  108.6880   11.5570   69.7640 C   0  0  0  0  0  0  0  0  0  0  0  0
  109.4160    9.1830   70.0640 C   0  0  0  0  0  0  0  0  0  0  0  0
  108.8360    8.8340   68.6960 C   0  0  1  0  0  0  0  0  0  0  0  0
  109.9240    8.6780   67.6330 C   0  0  0  0  0  0  0  0  0  0  0  0
  109.6200    8.1300   66.3760 C   0  0  0  0  0  0  0  0  0  0  0  0
  110.5990    7.9800   65.3980 C   0  0  0  0  0  0  0  0  0  0  0  0
  111.9360    8.3880   65.6260 C   0  0  0  0  0  0  0  0  0  0  0  0
  112.9480    8.2540   64.6720 N   0  0  0  0  0  0  0  0  0  0  0  0
  113.1190    6.9500   64.0430 C   0  0  0  0  0  0  0  0  0  0  0  0
  114.1750    9.0180   64.8850 C   0  0  0  0  0  0  0  0  0  0  0  0
  112.2270    8.9330   66.8920 C   0  0  0  0  0  0  0  0  0  0  0  0
  111.2400    9.0690   67.8620 C   0  0  0  0  0  0  0  0  0  0  0  0
  107.8310    7.6420   68.8310 C   0  0  0  0  0  0  0  0  0  0  0  0
  108.3540    6.5090   69.7370 C   0  0  2  0  0  0  0  0  0  0  0  0
  109.4210    5.6730   69.0020 C   0  0  0  0  0  0  0  0  0  0  0  0
  107.2890    5.5050   70.2750 C   0  0  1  0  0  0  0  0  0  0  0  0
  106.0420    6.1550   70.6990 C   0  0  0  0  0  0  0  0  0  0  0  0
  105.0020    6.6460   71.0580 C   0  0  0  0  0  0  0  0  0  0  0  0
  103.7280    7.2040   71.5100 C   0  0  0  0  0  0  0  0  0  0  0  0
  106.9870    4.5610   69.2330 O   0  0  0  0  0  0  0  0  0  0  0  0
  108.0230    4.8460   71.5020 C   0  0  0  0  0  0  0  0  0  0  0  0
  109.0500    5.8880   72.0120 C   0  0  0  0  0  0  0  0  0  0  0  0
  108.8490    7.0970   71.0760 C   0  0  1  0  0  0  0  0  0  0  0  0
  110.0330    8.0320   70.8410 C   0  0  2  0  0  0  0  0  0  0  0  0
  110.7760    8.4550   72.1150 C   0  0  0  0  0  0  0  0  0  0  0  0
  108.5928   13.6971   69.6419 H   0  0  0  0  0  0  0  0  0  0  0  0
  110.2653   12.9863   69.6181 H   0  0  0  0  0  0  0  0  0  0  0  0
  110.1005   12.2068   73.4035 H   0  0  0  0  0  0  0  0  0  0  0  0
  110.7900    9.9864   73.6140 H   0  0  0  0  0  0  0  0  0  0  0  0
  109.1656    9.2341   73.2661 H   0  0  0  0  0  0  0  0  0  0  0  0
  107.6128   11.5738   69.9957 H   0  0  0  0  0  0  0  0  0  0  0  0
  108.8940   11.3563   68.7023 H   0  0  0  0  0  0  0  0  0  0  0  0
  108.2400    9.6763   68.3149 H   0  0  0  0  0  0  0  0  0  0  0  0
  108.5888    7.8134   66.1604 H   0  0  0  0  0  0  0  0  0  0  0  0
  110.3289    7.5357   64.4286 H   0  0  0  0  0  0  0  0  0  0  0  0
  113.2202    6.1784   64.8204 H   0  0  0  0  0  0  0  0  0  0  0  0
  112.2424    6.7271   63.4170 H   0  0  0  0  0  0  0  0  0  0  0  0
  114.0234    6.9606   63.4170 H   0  0  0  0  0  0  0  0  0  0  0  0
  114.3546    9.1298   65.9645 H   0  0  0  0  0  0  0  0  0  0  0  0
  115.0218    8.4873   64.4255 H   0  0  0  0  0  0  0  0  0  0  0  0
  114.0724   10.0121   64.4255 H   0  0  0  0  0  0  0  0  0  0  0  0
  113.2538    9.2569   67.1174 H   0  0  0  0  0  0  0  0  0  0  0  0
  111.5071    9.4982   68.8390 H   0  0  0  0  0  0  0  0  0  0  0  0
  106.8905    8.0235   69.2552 H   0  0  0  0  0  0  0  0  0  0  0  0
  107.6878    7.2185   67.8260 H   0  0  0  0  0  0  0  0  0  0  0  0
  110.0639    5.1693   69.7389 H   0  0  0  0  0  0  0  0  0  0  0  0
  108.9262    4.9197   68.3714 H   0  0  0  0  0  0  0  0  0  0  0  0
  110.0341    6.3336   68.3714 H   0  0  0  0  0  0  0  0  0  0  0  0
  103.7022    7.2153   72.6096 H   0  0  0  0  0  0  0  0  0  0  0  0
  103.6221    8.2309   71.1302 H   0  0  0  0  0  0  0  0  0  0  0  0
  102.9014    6.5855   71.1302 H   0  0  0  0  0  0  0  0  0  0  0  0
  106.7116    3.7002   69.6372 H   0  0  0  0  0  0  0  0  0  0  0  0
  107.2986    4.6071   72.2946 H   0  0  0  0  0  0  0  0  0  0  0  0
  108.5188    3.9079   71.2119 H   0  0  0  0  0  0  0  0  0  0  0  0
  108.8423    6.1632   73.0566 H   0  0  0  0  0  0  0  0  0  0  0  0
  110.0822    5.5079   71.9978 H   0  0  0  0  0  0  0  0  0  0  0  0
  108.1378    7.7684   71.5794 H   0  0  0  0  0  0  0  0  0  0  0  0
  110.8474    7.5405   70.2886 H   0  0  0  0  0  0  0  0  0  0  0  0
  111.7976    8.7572   71.8410 H   0  0  0  0  0  0  0  0  0  0  0  0
  110.7720    7.5938   72.7994 H   0  0  0  0  0  0  0  0  0  0  0  0
  1  2  2  0
  2  3  1  0
  2  4  1  0
  4  5  2  0
  5  6  1  0
  5  7  1  0
  3  8  1  0
  7  8  1  0
  7  9  2  0
  9 10  1  0
 10 11  1  0
 11 12  2  0
 12 13  1  0
 13 14  2  0
 14 15  1  0
 15 16  1  0
 15 17  1  0
 14 18  1  0
 11 19  1  0
 18 19  2  0
 10 20  1  0
 20 21  1  0
 21 22  1  6
 21 23  1  0
 23 24  1  1
 24 25  3  0
 25 26  1  0
 23 27  1  0
 23 28  1  0
 28 29  1  0
 21 30  1  0
 29 30  1  0
  9 31  1  0
 30 31  1  0
  6 32  1  0
 31 32  1  0
  3 33  1  0
  3 34  1  0
  4 35  1  0
  6 36  1  0
  6 37  1  0
  8 38  1  0
  8 39  1  0
 10 40  1  6
 12 41  1  0
 13 42  1  0
 16 43  1  0
 16 44  1  0
 16 45  1  0
 17 46  1  0
 17 47  1  0
 17 48  1  0
 18 49  1  0
 19 50  1  0
 20 51  1  0
 20 52  1  0
 22 53  1  0
 22 54  1  0
 22 55  1  0
 26 56  1  0
 26 57  1  0
 26 58  1  0
 27 59  1  0
 28 60  1  0
 28 61  1  0
 29 62  1  0
 29 63  1  0
 30 64  1  1
 31 65  1  6
 32 66  1  0
 32 67  1  0
M  END
$$$$
