PDB_DB00806_99
     RDKit          3D

 96 98  0  0  0  0  0  0  0  0999 V2000
   39.9500   15.7000  -28.6970 C   0  0  0  0  0  0  0  0  0  0  0  0
   39.9740   15.3860  -27.2170 C   0  0  0  0  0  0  0  0  0  0  0  0
   40.0460   14.2180  -26.8610 O   0  0  0  0  0  0  0  0  0  0  0  0
   39.9090   16.5140  -26.2080 C   0  0  0  0  0  0  0  0  0  0  0  0
   39.7630   16.0360  -24.7610 C   0  0  0  0  0  0  0  0  0  0  0  0
   41.1300   15.8710  -24.0980 C   0  0  0  0  0  0  0  0  0  0  0  0
   41.7740   17.2370  -23.8400 C   0  0  0  0  0  0  0  0  0  0  0  0
   43.2350   17.1890  -24.0050 N   0  0  0  0  0  0  0  0  0  0  0  0
   43.9830   16.9800  -22.8900 C   0  0  0  0  0  0  0  0  0  0  0  0
   43.4590   16.8300  -21.7970 O   0  0  0  0  0  0  0  0  0  0  0  0
   45.3720   16.9450  -23.0650 C   0  0  0  0  0  0  0  0  0  0  0  0
   46.4020   16.7550  -22.1950 N   0  0  0  0  0  0  0  0  0  0  0  0
   46.3660   16.5280  -20.7480 C   0  0  0  0  0  0  0  0  0  0  0  0
   47.5530   16.8080  -22.9050 C   0  0  0  0  0  0  0  0  0  0  0  0
   47.2690   17.0230  -24.2070 N   0  0  0  0  0  0  0  0  0  0  0  0
   45.9260   17.1190  -24.3400 C   0  0  0  0  0  0  0  0  0  0  0  0
   45.1490   17.3300  -25.4320 N   0  0  0  0  0  0  0  0  0  0  0  0
   45.7430   17.5140  -26.7580 C   0  0  0  0  0  0  0  0  0  0  0  0
   43.8030   17.3600  -25.2340 C   0  0  0  0  0  0  0  0  0  0  0  0
   43.0930   17.5460  -26.2150 O   0  0  0  0  0  0  0  0  0  0  0  0
   13.0590   45.9280  -24.7540 C   0  0  0  0  0  0  0  0  0  0  0  0
   13.3740   46.0760  -23.2830 C   0  0  0  0  0  0  0  0  0  0  0  0
   13.2820   47.1780  -22.7640 O   0  0  0  0  0  0  0  0  0  0  0  0
   13.8040   44.8750  -22.4710 C   0  0  0  0  0  0  0  0  0  0  0  0
   13.8420   45.1300  -20.9580 C   0  0  0  0  0  0  0  0  0  0  0  0
   12.4410   45.1050  -20.3360 C   0  0  0  0  0  0  0  0  0  0  0  0
   11.8010   43.7210  -20.4820 C   0  0  0  0  0  0  0  0  0  0  0  0
   10.3530   43.8330  -20.6760 N   0  0  0  0  0  0  0  0  0  0  0  0
    9.5690   43.7770  -19.5610 C   0  0  0  0  0  0  0  0  0  0  0  0
   10.0540   43.6450  -18.4480 O   0  0  0  0  0  0  0  0  0  0  0  0
    8.1830   43.8810  -19.7570 C   0  0  0  0  0  0  0  0  0  0  0  0
    7.1250   43.8730  -18.8950 N   0  0  0  0  0  0  0  0  0  0  0  0
    7.1070   43.7440  -17.4350 C   0  0  0  0  0  0  0  0  0  0  0  0
    6.0000   44.0100  -19.6330 C   0  0  0  0  0  0  0  0  0  0  0  0
    6.3290   44.1060  -20.9380 N   0  0  0  0  0  0  0  0  0  0  0  0
    7.6740   44.0270  -21.0550 C   0  0  0  0  0  0  0  0  0  0  0  0
    8.4920   44.0740  -22.1430 N   0  0  0  0  0  0  0  0  0  0  0  0
    7.9540   44.2250  -23.4940 C   0  0  0  0  0  0  0  0  0  0  0  0
    9.8280   43.9740  -21.9250 C   0  0  0  0  0  0  0  0  0  0  0  0
   10.5580   44.0200  -22.9070 O   0  0  0  0  0  0  0  0  0  0  0  0
   39.8669   16.7875  -28.8398 H   0  0  0  0  0  0  0  0  0  0  0  0
   40.8784   15.3388  -29.1636 H   0  0  0  0  0  0  0  0  0  0  0  0
   39.0873   15.2019  -29.1636 H   0  0  0  0  0  0  0  0  0  0  0  0
   38.8760   15.3194  -27.2133 H   0  0  0  0  0  0  0  0  0  0  0  0
   40.0487   14.1740  -25.8720 H   0  0  0  0  0  0  0  0  0  0  0  0
   40.8335   17.1048  -26.2872 H   0  0  0  0  0  0  0  0  0  0  0  0
   39.0121   17.1056  -26.4437 H   0  0  0  0  0  0  0  0  0  0  0  0
   39.1759   16.7747  -24.1957 H   0  0  0  0  0  0  0  0  0  0  0  0
   39.2549   15.0604  -24.7639 H   0  0  0  0  0  0  0  0  0  0  0  0
   41.0059   15.3435  -23.1407 H   0  0  0  0  0  0  0  0  0  0  0  0
   41.7820   15.2934  -24.7698 H   0  0  0  0  0  0  0  0  0  0  0  0
   41.3587   17.9669  -24.5505 H   0  0  0  0  0  0  0  0  0  0  0  0
   41.5553   17.5290  -22.8023 H   0  0  0  0  0  0  0  0  0  0  0  0
   44.0304   18.0655  -22.7183 H   0  0  0  0  0  0  0  0  0  0  0  0
   44.1205   17.0193  -21.0852 H   0  0  0  0  0  0  0  0  0  0  0  0
   45.4217   18.0294  -22.8871 H   0  0  0  0  0  0  0  0  0  0  0  0
   46.5174   17.4828  -20.2232 H   0  0  0  0  0  0  0  0  0  0  0  0
   45.3897   16.1061  -20.4672 H   0  0  0  0  0  0  0  0  0  0  0  0
   47.1638   15.8247  -20.4672 H   0  0  0  0  0  0  0  0  0  0  0  0
   48.1801   17.6285  -22.5261 H   0  0  0  0  0  0  0  0  0  0  0  0
   48.0928   15.8554  -22.7999 H   0  0  0  0  0  0  0  0  0  0  0  0
   47.7132   17.8979  -24.5202 H   0  0  0  0  0  0  0  0  0  0  0  0
   45.9863   18.2034  -24.1658 H   0  0  0  0  0  0  0  0  0  0  0  0
   46.7886   17.8379  -26.6496 H   0  0  0  0  0  0  0  0  0  0  0  0
   45.7090   16.5632  -27.3101 H   0  0  0  0  0  0  0  0  0  0  0  0
   45.1775   18.2791  -27.3101 H   0  0  0  0  0  0  0  0  0  0  0  0
   43.8528   18.4450  -25.0600 H   0  0  0  0  0  0  0  0  0  0  0  0
   42.1788   17.7855  -25.9201 H   0  0  0  0  0  0  0  0  0  0  0  0
   12.0692   45.4629  -24.8720 H   0  0  0  0  0  0  0  0  0  0  0  0
   13.0574   46.9196  -25.2302 H   0  0  0  0  0  0  0  0  0  0  0  0
   13.8212   45.2938  -25.2302 H   0  0  0  0  0  0  0  0  0  0  0  0
   14.4266   46.2797  -23.5289 H   0  0  0  0  0  0  0  0  0  0  0  0
   13.2901   47.0805  -21.7788 H   0  0  0  0  0  0  0  0  0  0  0  0
   13.0986   44.0539  -22.6665 H   0  0  0  0  0  0  0  0  0  0  0  0
   14.8311   44.6311  -22.7801 H   0  0  0  0  0  0  0  0  0  0  0  0
   14.4559   44.3512  -20.4819 H   0  0  0  0  0  0  0  0  0  0  0  0
   14.2694   46.1300  -20.7926 H   0  0  0  0  0  0  0  0  0  0  0  0
   12.5171   45.3554  -19.2676 H   0  0  0  0  0  0  0  0  0  0  0  0
   11.8116   45.8395  -20.8597 H   0  0  0  0  0  0  0  0  0  0  0  0
   12.2423   43.2098  -21.3503 H   0  0  0  0  0  0  0  0  0  0  0  0
   11.9893   43.1476  -19.5623 H   0  0  0  0  0  0  0  0  0  0  0  0
    9.5034   42.6836  -19.6621 H   0  0  0  0  0  0  0  0  0  0  0  0
    9.3643   43.8327  -17.7631 H   0  0  0  0  0  0  0  0  0  0  0  0
    8.1143   42.7872  -19.8515 H   0  0  0  0  0  0  0  0  0  0  0  0
    7.2453   44.7348  -16.9776 H   0  0  0  0  0  0  0  0  0  0  0  0
    6.1416   43.3243  -17.1159 H   0  0  0  0  0  0  0  0  0  0  0  0
    7.9206   43.0761  -17.1159 H   0  0  0  0  0  0  0  0  0  0  0  0
    5.3526   43.1338  -19.4812 H   0  0  0  0  0  0  0  0  0  0  0  0
    5.4645   44.9189  -19.3213 H   0  0  0  0  0  0  0  0  0  0  0  0
    5.8900   43.3364  -21.4633 H   0  0  0  0  0  0  0  0  0  0  0  0
    7.6015   42.9335  -21.1496 H   0  0  0  0  0  0  0  0  0  0  0  0
    6.8964   44.5218  -23.4364 H   0  0  0  0  0  0  0  0  0  0  0  0
    8.5231   44.9981  -24.0310 H   0  0  0  0  0  0  0  0  0  0  0  0
    8.0377   43.2687  -24.0310 H   0  0  0  0  0  0  0  0  0  0  0  0
    9.7617   42.8802  -22.0206 H   0  0  0  0  0  0  0  0  0  0  0  0
   11.5018   44.0795  -22.6141 H   0  0  0  0  0  0  0  0  0  0  0  0
  1  2  1  0
  2  3  1  0
  2  4  1  0
  4  5  1  0
  5  6  1  0
  6  7  1  0
  7  8  1  0
  8  9  1  0
  9 10  1  0
  9 11  1  0
 11 12  1  0
 12 13  1  0
 12 14  1  0
 14 15  1  0
 11 16  1  0
 15 16  1  0
 16 17  1  0
 17 18  1  0
  8 19  1  0
 17 19  1  0
 19 20  1  0
 21 22  1  0
 22 23  1  0
 22 24  1  0
 24 25  1  0
 25 26  1  0
 26 27  1  0
 27 28  1  0
 28 29  1  0
 29 30  1  0
 29 31  1  0
 31 32  1  0
 32 33  1  0
 32 34  1  0
 34 35  1  0
 31 36  1  0
 35 36  1  0
 36 37  1  0
 37 38  1  0
 28 39  1  0
 37 39  1  0
 39 40  1  0
  1 41  1  0
  1 42  1  0
  1 43  1  0
  2 44  1  0
  3 45  1  0
  4 46  1  0
  4 47  1  0
  5 48  1  0
  5 49  1  0
  6 50  1  0
  6 51  1  0
  7 52  1  0
  7 53  1  0
  9 54  1  0
 10 55  1  0
 11 56  1  0
 13 57  1  0
 13 58  1  0
 13 59  1  0
 14 60  1  0
 14 61  1  0
 15 62  1  0
 16 63  1  0
 18 64  1  0
 18 65  1  0
 18 66  1  0
 19 67  1  0
 20 68  1  0
 21 69  1  0
 21 70  1  0
 21 71  1  0
 22 72  1  0
 23 73  1  0
 24 74  1  0
 24 75  1  0
 25 76  1  0
 25 77  1  0
 26 78  1  0
 26 79  1  0
 27 80  1  0
 27 81  1  0
 29 82  1  0
 30 83  1  0
 31 84  1  0
 33 85  1  0
 33 86  1  0
 33 87  1  0
 34 88  1  0
 34 89  1  0
 35 90  1  0
 36 91  1  0
 38 92  1  0
 38 93  1  0
 38 94  1  0
 39 95  1  0
 40 96  1  0
M  END
>  <PDBID>  (1) 
3TVX

>  <PDB ID>  (1) 
3TVX

>  <Generic Name>  (1) 
Pentoxifylline

>  <Brand Name>  (1) 
Gapeam Budibac#Nu-pentoxifylline-SR 400 mg#Pentoxifylline#Pentoxifylline SR#Ratio-pentoxifylline#Trental#Trental Srt 400mg#Trental Tab 400mg#Agapurin#Agapurin SR#An Ruo Ning#Angiopent#Ao Le Ni#Ao Nuo Hong#Aotong#Azupentat#Behrifil#Bo Shu Te#Claudicat#Durapental#Elorgan#Endopentoksas#Pentilin#Pentilin Retard#Pentoflux#Pentofyllin#Pentoksifilin#Pentolab#Pentomer#Pentoxil#Rentylin#Torental#Trentilin Retard

>  <DrugBank ID>  (1) 
DB00806

>  <ATC Codes>  (1) 
C04AD03

>  <Ligand ID>  (1) 
PNX

>  <Target Name>  (1) 
cAMP-specific 3',5'-cyclic phosphodiesterase 4B

>  <UniProt ID>  (1) 
Q07343

>  <PDB ID.1>  (1) 
3TVX

>  <Seq. Identity>  (1) 
84%

$$$$
