PDB_DB00862_97
     RDKit          3D

 82 85  0  0  0  0  0  0  0  0999 V2000
  -17.3110   28.7690   59.4250 C   0  0  0  0  0  0  0  0  0  0  0  0
  -18.4240   27.7500   59.5520 C   0  0  0  0  0  0  0  0  0  0  0  0
  -19.4990   28.3170   60.2890 O   0  0  0  0  0  0  0  0  0  0  0  0
  -20.6790   27.6470   60.5320 C   0  0  0  0  0  0  0  0  0  0  0  0
  -20.8720   26.3220   60.1320 C   0  0  0  0  0  0  0  0  0  0  0  0
  -22.0880   25.7000   60.4070 C   0  0  0  0  0  0  0  0  0  0  0  0
  -23.1120   26.3870   61.0750 C   0  0  0  0  0  0  0  0  0  0  0  0
  -22.9030   27.7070   61.4740 C   0  0  0  0  0  0  0  0  0  0  0  0
  -21.7100   28.3360   61.1660 C   0  0  1  0  0  0  0  0  0  0  0  0
  -24.5130   25.6830   61.4210 S   0  0  1  0  0  4  0  0  0  0  0  0
  -25.6280   26.5010   61.0510 O   0  0  0  0  0  0  0  0  0  0  0  0
  -24.5590   24.4480   60.7000 O   0  0  0  0  0  0  0  0  0  0  0  0
  -23.9260   24.9690   67.8530 C   0  0  0  0  0  0  0  0  0  0  0  0
  -24.6520   25.3890   62.9190 N   0  0  0  0  0  0  0  0  0  0  0  0
  -23.5890   24.5300   63.4650 C   0  0  0  0  0  0  0  0  0  0  0  0
  -23.7010   24.3520   64.9680 C   0  0  0  0  0  0  0  0  0  0  0  0
  -23.9540   25.6730   65.5070 N   0  0  0  0  0  0  0  0  0  0  0  0
  -25.3030   26.1390   65.2360 C   0  0  0  0  0  0  0  0  0  0  0  0
  -25.4770   26.3040   63.7200 C   0  0  0  0  0  0  0  0  0  0  0  0
  -23.3800   25.9480   66.8200 C   0  0  0  0  0  0  0  0  0  0  0  0
  -21.3890   29.7160   61.6140 C   0  0  1  0  0  0  0  0  0  0  0  0
  -21.0380   30.7260   60.6430 N   0  0  0  0  0  0  0  0  0  0  0  0
  -20.9950   32.0290   60.9210 C   0  0  0  0  0  0  0  0  0  0  0  0
  -21.5360   32.3970   62.2430 C   0  0  0  0  0  0  0  0  0  0  0  0
  -21.9910   31.5330   63.1240 N   0  0  0  0  0  0  0  0  0  0  0  0
  -22.0380   30.1810   62.8070 N   0  0  0  0  0  0  0  0  0  0  0  0
  -20.5730   32.8270   60.0980 O   0  0  0  0  0  0  0  0  0  0  0  0
  -21.7100   33.6360   62.8500 C   0  0  0  0  0  0  0  0  0  0  0  0
  -22.2670   33.3890   64.0670 N   0  0  0  0  0  0  0  0  0  0  0  0
  -22.4610   32.0570   64.2250 C   0  0  1  0  0  0  0  0  0  0  0  0
  -21.3840   35.0070   62.3250 C   0  0  0  0  0  0  0  0  0  0  0  0
  -23.0180   31.3240   65.4100 C   0  0  0  0  0  0  0  0  0  0  0  0
  -21.8600   30.6260   66.1240 C   0  0  0  0  0  0  0  0  0  0  0  0
  -22.4100   29.8920   67.3240 C   0  0  0  0  0  0  0  0  0  0  0  0
  -16.9774   29.0745   60.4277 H   0  0  0  0  0  0  0  0  0  0  0  0
  -16.4671   28.3239   58.8775 H   0  0  0  0  0  0  0  0  0  0  0  0
  -17.6801   29.6488   58.8775 H   0  0  0  0  0  0  0  0  0  0  0  0
  -18.7762   27.4639   58.5499 H   0  0  0  0  0  0  0  0  0  0  0  0
  -18.0488   26.8582   60.0753 H   0  0  0  0  0  0  0  0  0  0  0  0
  -21.0759   27.9960   59.5673 H   0  0  0  0  0  0  0  0  0  0  0  0
  -20.7351   26.2923   59.0410 H   0  0  0  0  0  0  0  0  0  0  0  0
  -20.1465   25.7576   60.7362 H   0  0  0  0  0  0  0  0  0  0  0  0
  -22.5033   25.3818   59.4394 H   0  0  0  0  0  0  0  0  0  0  0  0
  -21.8051   24.9210   61.1302 H   0  0  0  0  0  0  0  0  0  0  0  0
  -22.7199   26.0332   62.0399 H   0  0  0  0  0  0  0  0  0  0  0  0
  -23.7061   28.3077   61.0221 H   0  0  0  0  0  0  0  0  0  0  0  0
  -22.8820   27.6421   62.5719 H   0  0  0  0  0  0  0  0  0  0  0  0
  -22.1169   28.6282   60.1867 H   0  0  0  0  0  0  0  0  0  0  0  0
  -26.0795   26.8323   61.8674 H   0  0  0  0  0  0  0  0  0  0  0  0
  -24.5871   23.6931   61.3399 H   0  0  0  0  0  0  0  0  0  0  0  0
  -23.7150   25.3473   68.8641 H   0  0  0  0  0  0  0  0  0  0  0  0
  -25.0129   24.8641   67.7202 H   0  0  0  0  0  0  0  0  0  0  0  0
  -23.4441   23.9891   67.7202 H   0  0  0  0  0  0  0  0  0  0  0  0
  -23.6536   23.5415   62.9868 H   0  0  0  0  0  0  0  0  0  0  0  0
  -22.6251   25.0174   63.2568 H   0  0  0  0  0  0  0  0  0  0  0  0
  -24.5319   23.6737   65.2120 H   0  0  0  0  0  0  0  0  0  0  0  0
  -22.7864   23.9115   65.3916 H   0  0  0  0  0  0  0  0  0  0  0  0
  -26.0300   25.4048   65.6134 H   0  0  0  0  0  0  0  0  0  0  0  0
  -25.4719   27.1033   65.7376 H   0  0  0  0  0  0  0  0  0  0  0  0
  -25.2082   27.3363   63.4516 H   0  0  0  0  0  0  0  0  0  0  0  0
  -26.5267   26.0661   63.4931 H   0  0  0  0  0  0  0  0  0  0  0  0
  -23.6380   26.9741   67.1209 H   0  0  0  0  0  0  0  0  0  0  0  0
  -22.2873   25.8349   66.7631 H   0  0  0  0  0  0  0  0  0  0  0  0
  -20.3686   29.4891   61.9565 H   0  0  0  0  0  0  0  0  0  0  0  0
  -20.0964   30.4784   60.3068 H   0  0  0  0  0  0  0  0  0  0  0  0
  -21.9933   32.1567   60.4769 H   0  0  0  0  0  0  0  0  0  0  0  0
  -22.5424   32.4827   61.8073 H   0  0  0  0  0  0  0  0  0  0  0  0
  -23.0326   29.9256   62.7270 H   0  0  0  0  0  0  0  0  0  0  0  0
  -20.1650   33.5985   60.5654 H   0  0  0  0  0  0  0  0  0  0  0  0
  -22.7136   33.7125   62.4062 H   0  0  0  0  0  0  0  0  0  0  0  0
  -21.6375   33.7323   64.8065 H   0  0  0  0  0  0  0  0  0  0  0  0
  -21.4686   31.9678   64.6911 H   0  0  0  0  0  0  0  0  0  0  0  0
  -21.2208   35.6935   63.1688 H   0  0  0  0  0  0  0  0  0  0  0  0
  -20.4726   34.9574   61.7111 H   0  0  0  0  0  0  0  0  0  0  0  0
  -22.2202   35.3729   61.7111 H   0  0  0  0  0  0  0  0  0  0  0  0
  -23.5033   32.0356   66.0942 H   0  0  0  0  0  0  0  0  0  0  0  0
  -23.7656   30.5856   65.0845 H   0  0  0  0  0  0  0  0  0  0  0  0
  -21.3791   29.9112   65.4401 H   0  0  0  0  0  0  0  0  0  0  0  0
  -21.1133   31.3672   66.4450 H   0  0  0  0  0  0  0  0  0  0  0  0
  -22.0494   30.3732   68.2451 H   0  0  0  0  0  0  0  0  0  0  0  0
  -23.5093   29.9227   67.3004 H   0  0  0  0  0  0  0  0  0  0  0  0
  -22.0718   28.8455   67.3004 H   0  0  0  0  0  0  0  0  0  0  0  0
  1  2  1  0
  2  3  1  0
  3  4  1  0
  4  5  1  0
  5  6  1  0
  6  7  1  0
  7  8  1  0
  4  9  1  0
  8  9  1  0
  7 10  1  0
 10 11  1  6
 10 12  1  0
 10 14  1  0
 14 15  1  0
 15 16  1  0
 16 17  1  0
 17 18  1  0
 14 19  1  0
 18 19  1  0
 13 20  1  0
 17 20  1  0
  9 21  1  0
 21 22  1  0
 22 23  1  0
 23 24  1  0
 24 25  1  0
 21 26  1  0
 25 26  1  0
 23 27  1  0
 24 28  1  0
 28 29  1  0
 25 30  1  0
 29 30  1  0
 28 31  1  0
 30 32  1  0
 32 33  1  0
 33 34  1  0
  1 35  1  0
  1 36  1  0
  1 37  1  0
  2 38  1  0
  2 39  1  0
  4 40  1  0
  5 41  1  0
  5 42  1  0
  6 43  1  0
  6 44  1  0
  7 45  1  0
  8 46  1  0
  8 47  1  0
  9 48  1  6
 11 49  1  0
 12 50  1  0
 13 51  1  0
 13 52  1  0
 13 53  1  0
 15 54  1  0
 15 55  1  0
 16 56  1  0
 16 57  1  0
 18 58  1  0
 18 59  1  0
 19 60  1  0
 19 61  1  0
 20 62  1  0
 20 63  1  0
 21 64  1  1
 22 65  1  0
 23 66  1  0
 24 67  1  0
 26 68  1  0
 27 69  1  0
 28 70  1  0
 29 71  1  0
 30 72  1  6
 31 73  1  0
 31 74  1  0
 31 75  1  0
 32 76  1  0
 32 77  1  0
 33 78  1  0
 33 79  1  0
 34 80  1  0
 34 81  1  0
 34 82  1  0
M  END
>  <PDBID>  (1) 
1XP0

>  <PDB ID>  (1) 
1XP0

>  <Generic Name>  (1) 
Vardenafil

>  <Brand Name>  (1) 
Levitra#Staxyn#Vivanza

>  <DrugBank ID>  (1) 
DB00862

>  <ATC Codes>  (1) 
G04BE09

>  <Ligand ID>  (1) 
VDN

>  <Target Name>  (1) 
cGMP-specific 3',5'-cyclic phosphodiesterase

>  <UniProt ID>  (1) 
O76074

>  <PDB ID.1>  (1) 
1XP0

>  <Seq. Identity>  (1) 
88%

$$$$
