PDB_DB00550_97
     RDKit          3D

 21 21  0  0  0  0  0  0  0  0999 V2000
   16.3440   62.1850   42.0100 C   0  0  0  0  0  0  0  0  0  0  0  0
   15.1610   62.4500   42.9180 C   0  0  0  0  0  0  0  0  0  0  0  0
   14.3520   63.5370   42.2730 C   0  0  0  0  0  0  0  0  0  0  0  0
   13.2980   63.8510   43.0650 C   0  0  0  0  0  0  0  0  0  0  0  0
   12.0290   63.5710   42.6230 C   0  0  0  0  0  0  0  0  0  0  0  0
   13.4550   64.4500   44.2370 N   0  0  0  0  0  0  0  0  0  0  0  0
   12.3950   64.7720   44.9760 C   0  0  0  0  0  0  0  0  0  0  0  0
   12.6420   65.4770   46.4010 S   0  0  0  0  0  0  0  0  0  0  0  0
   11.1560   64.5050   44.5780 N   0  0  0  0  0  0  0  0  0  0  0  0
   10.9480   63.9040   43.4140 C   0  0  0  0  0  0  0  0  0  0  0  0
    9.7110   63.6000   42.9690 O   0  0  0  0  0  0  0  0  0  0  0  0
   17.2371   61.9849   42.6203 H   0  0  0  0  0  0  0  0  0  0  0  0
   16.1307   61.3124   41.3752 H   0  0  0  0  0  0  0  0  0  0  0  0
   16.5234   63.0652   41.3752 H   0  0  0  0  0  0  0  0  0  0  0  0
   14.5539   61.5388   43.0242 H   0  0  0  0  0  0  0  0  0  0  0  0
   15.4947   62.7503   43.9222 H   0  0  0  0  0  0  0  0  0  0  0  0
   14.9821   64.4276   42.1322 H   0  0  0  0  0  0  0  0  0  0  0  0
   13.9839   63.1879   41.2970 H   0  0  0  0  0  0  0  0  0  0  0  0
   11.8750   63.0859   41.6478 H   0  0  0  0  0  0  0  0  0  0  0  0
   14.4022   64.6676   44.5780 H   0  0  0  0  0  0  0  0  0  0  0  0
   10.3567   64.7647   45.1734 H   0  0  0  0  0  0  0  0  0  0  0  0
  1  2  1  0
  2  3  1  0
  3  4  1  0
  4  5  2  0
  4  6  1  0
  6  7  1  0
  7  8  2  0
  7  9  1  0
  5 10  1  0
  9 10  1  0
 10 11  2  0
  1 12  1  0
  1 13  1  0
  1 14  1  0
  2 15  1  0
  2 16  1  0
  3 17  1  0
  3 18  1  0
  5 19  1  0
  6 20  1  0
  9 21  1  0
M  END
$$$$
