PDB_DB06616_95
     RDKit          3D

 65 68  0  0  0  0  0  0  0  0999 V2000
   10.9590  -40.4850   -5.0740 C   0  0  0  0  0  0  0  0  0  0  0  0
    6.1670  -35.0660  -11.0910 O   0  0  0  0  0  0  0  0  0  0  0  0
   16.5580  -39.7590   -3.6310 C   0  0  0  0  0  0  0  0  0  0  0  0
    8.6790  -33.0220   -8.9500 N   0  0  0  0  0  0  0  0  0  0  0  0
    3.8810  -33.6760   -9.3940 Cl  0  0  0  0  0  0  0  0  0  0  0  0
    6.8270  -35.2340   -5.0320 Cl  0  0  0  0  0  0  0  0  0  0  0  0
    9.4950  -33.7530   -8.6480 C   0  0  0  0  0  0  0  0  0  0  0  0
   11.9990  -34.2900   -8.4650 C   0  0  0  0  0  0  0  0  0  0  0  0
    5.4970  -34.5420   -7.3350 C   0  0  0  0  0  0  0  0  0  0  0  0
    7.5170  -35.7880   -9.1720 C   0  0  0  0  0  0  0  0  0  0  0  0
   14.0860  -37.0120   -6.6610 C   0  0  0  0  0  0  0  0  0  0  0  0
   11.2790  -38.0170   -6.1460 C   0  0  0  0  0  0  0  0  0  0  0  0
   17.2150  -38.7720   -4.5870 C   0  0  0  0  0  0  0  0  0  0  0  0
   16.2580  -38.4840   -5.7420 C   0  0  0  0  0  0  0  0  0  0  0  0
   20.5500  -40.8800    0.4190 C   0  0  0  0  0  0  0  0  0  0  0  0
   17.2040  -39.9490   -1.1030 C   0  0  0  0  0  0  0  0  0  0  0  0
   18.9100  -39.7610   -2.7710 C   0  0  0  0  0  0  0  0  0  0  0  0
   18.1740  -40.7830   -0.2370 C   0  0  0  0  0  0  0  0  0  0  0  0
   19.8010  -40.6730   -1.9810 C   0  0  0  0  0  0  0  0  0  0  0  0
   13.1050  -35.0320   -7.9540 N   0  0  0  0  0  0  0  0  0  0  0  0
    8.9140  -36.5110   -7.1880 N   0  0  0  0  0  0  0  0  0  0  0  0
   12.2150  -39.9120   -4.9170 O   0  0  0  0  0  0  0  0  0  0  0  0
   14.9810  -38.9540   -5.3970 O   0  0  0  0  0  0  0  0  0  0  0  0
    6.3100  -35.1030   -9.7260 C   0  0  0  0  0  0  0  0  0  0  0  0
    5.2960  -34.4780   -8.8040 C   0  0  0  0  0  0  0  0  0  0  0  0
    6.6960  -35.2160   -6.7650 C   0  0  0  0  0  0  0  0  0  0  0  0
   10.5750  -34.7170   -8.2600 C   0  0  0  0  0  0  0  0  0  0  0  0
    7.7200  -35.8440   -7.6830 C   0  0  0  0  0  0  0  0  0  0  0  0
   12.4690  -38.7630   -5.6250 C   0  0  0  0  0  0  0  0  0  0  0  0
   13.8580  -38.2700   -5.8810 C   0  0  0  0  0  0  0  0  0  0  0  0
   10.2720  -35.9900   -7.4730 C   0  0  0  0  0  0  0  0  0  0  0  0
   12.8970  -36.2380   -7.2000 C   0  0  0  0  0  0  0  0  0  0  0  0
   11.4900  -36.7550   -6.9360 C   0  0  0  0  0  0  0  0  0  0  0  0
   17.5250  -40.1050   -2.5300 N   0  0  0  0  0  0  0  0  0  0  0  0
   19.5520  -40.4990   -0.5760 N   0  0  0  0  0  0  0  0  0  0  0  0
    7.3100  -34.9370  -11.8780 C   0  0  0  0  0  0  0  0  0  0  0  0
   10.5209  -40.6849   -4.0850 H   0  0  0  0  0  0  0  0  0  0  0  0
   10.3081  -39.7948   -5.6307 H   0  0  0  0  0  0  0  0  0  0  0  0
   11.0536  -41.4290   -5.6307 H   0  0  0  0  0  0  0  0  0  0  0  0
   15.6549  -39.3047   -3.1974 H   0  0  0  0  0  0  0  0  0  0  0  0
   16.2805  -40.6722   -4.1778 H   0  0  0  0  0  0  0  0  0  0  0  0
   12.1978  -33.3684   -9.0317 H   0  0  0  0  0  0  0  0  0  0  0  0
    4.7545  -34.0880   -6.6622 H   0  0  0  0  0  0  0  0  0  0  0  0
    8.2520  -36.2482   -9.8488 H   0  0  0  0  0  0  0  0  0  0  0  0
   15.1092  -36.6511   -6.8422 H   0  0  0  0  0  0  0  0  0  0  0  0
   10.2618  -38.3884   -5.9528 H   0  0  0  0  0  0  0  0  0  0  0  0
   17.4407  -37.8369   -4.0535 H   0  0  0  0  0  0  0  0  0  0  0  0
   18.1498  -39.2003   -4.9778 H   0  0  0  0  0  0  0  0  0  0  0  0
   16.2161  -37.4004   -5.9264 H   0  0  0  0  0  0  0  0  0  0  0  0
   16.6091  -38.9888   -6.6541 H   0  0  0  0  0  0  0  0  0  0  0  0
   20.1403  -40.7236    1.4278 H   0  0  0  0  0  0  0  0  0  0  0  0
   20.8105  -41.9408    0.2895 H   0  0  0  0  0  0  0  0  0  0  0  0
   21.4512  -40.2627    0.2895 H   0  0  0  0  0  0  0  0  0  0  0  0
   16.1738  -40.2906   -0.9241 H   0  0  0  0  0  0  0  0  0  0  0  0
   17.3043  -38.8883   -0.8292 H   0  0  0  0  0  0  0  0  0  0  0  0
   19.0872  -38.7198   -2.4635 H   0  0  0  0  0  0  0  0  0  0  0  0
   19.1323  -39.8720   -3.8426 H   0  0  0  0  0  0  0  0  0  0  0  0
   18.0077  -40.5408    0.8230 H   0  0  0  0  0  0  0  0  0  0  0  0
   17.9810  -41.8494   -0.4253 H   0  0  0  0  0  0  0  0  0  0  0  0
   19.5965  -41.7167   -2.2617 H   0  0  0  0  0  0  0  0  0  0  0  0
   20.8521  -40.4307   -2.1966 H   0  0  0  0  0  0  0  0  0  0  0  0
    8.8132  -37.3675   -6.6249 H   0  0  0  0  0  0  0  0  0  0  0  0
    8.1926  -34.8374  -11.2291 H   0  0  0  0  0  0  0  0  0  0  0  0
    7.4205  -35.8284  -12.5130 H   0  0  0  0  0  0  0  0  0  0  0  0
    7.2190  -34.0434  -12.5130 H   0  0  0  0  0  0  0  0  0  0  0  0
  4  7  3  0
  3 13  1  0
 13 14  1  0
 16 18  1  0
 17 19  1  0
  8 20  2  0
  1 22  1  0
 14 23  1  0
  2 24  1  0
 10 24  2  0
  5 25  1  0
  9 25  2  0
 24 25  1  0
  6 26  1  0
  9 26  1  0
  7 27  1  0
  8 27  1  0
 10 28  1  0
 21 28  1  0
 26 28  2  0
 12 29  1  0
 22 29  1  0
 11 30  1  0
 23 30  1  0
 29 30  2  0
 21 31  1  0
 27 31  2  0
 11 32  2  0
 20 32  1  0
 12 33  2  0
 31 33  1  0
 32 33  1  0
  3 34  1  0
 16 34  1  0
 17 34  1  0
 15 35  1  0
 18 35  1  0
 19 35  1  0
  2 36  1  0
  1 37  1  0
  1 38  1  0
  1 39  1  0
  3 40  1  0
  3 41  1  0
  8 42  1  0
  9 43  1  0
 10 44  1  0
 11 45  1  0
 12 46  1  0
 13 47  1  0
 13 48  1  0
 14 49  1  0
 14 50  1  0
 15 51  1  0
 15 52  1  0
 15 53  1  0
 16 54  1  0
 16 55  1  0
 17 56  1  0
 17 57  1  0
 18 58  1  0
 18 59  1  0
 19 60  1  0
 19 61  1  0
 21 62  1  0
 36 63  1  0
 36 64  1  0
 36 65  1  0
M  END
$$$$
