PDB_DB00696_98
     RDKit          3D

 78 85  0  0  0  0  0  0  0  0999 V2000
  -23.2070  -14.7790    5.2580 C   0  0  0  0  0  0  0  0  0  0  0  0
  -23.9810  -13.8410    5.8530 N   0  0  0  0  0  0  0  0  0  0  0  0
  -21.3450  -19.5250   11.7810 O   0  0  0  0  0  0  0  0  0  0  0  0
  -23.4170  -14.9360    9.7720 C   0  0  0  0  0  0  0  0  0  0  0  0
  -24.2630  -13.8290    9.5910 C   0  0  0  0  0  0  0  0  0  0  0  0
  -24.5310  -13.3600    8.2740 C   0  0  0  0  0  0  0  0  0  0  0  0
  -23.9560  -14.0040    7.2410 C   0  0  0  0  0  0  0  0  0  0  0  0
  -23.1200  -15.1040    7.4280 C   0  0  0  0  0  0  0  0  0  0  0  0
  -21.1080  -19.7220    6.4790 C   0  0  0  0  0  0  0  0  0  0  0  0
  -20.3360  -19.0660   11.3010 C   0  0  0  0  0  0  0  0  0  0  0  0
  -19.0790  -19.8010   13.2770 C   0  0  2  0  0  0  0  0  0  0  0  0
  -20.0480  -19.1950   14.2620 C   0  0  0  0  0  0  0  0  0  0  0  0
  -21.9890  -19.9950   15.4700 C   0  0  2  0  0  0  0  0  0  0  0  0
  -20.8980  -18.7020    7.5410 N   0  0  0  0  0  0  0  0  0  0  0  0
  -22.6480  -15.5960    6.1970 C   0  0  0  0  0  0  0  0  0  0  0  0
  -19.4920  -21.1690   13.2130 O   0  0  0  0  0  0  0  0  0  0  0  0
  -22.3480  -21.3160   16.1310 C   0  0  0  0  0  0  0  0  0  0  0  0
  -21.9330  -23.7370   16.4000 C   0  0  0  0  0  0  0  0  0  0  0  0
  -21.7230  -24.6740   15.2350 C   0  0  0  0  0  0  0  0  0  0  0  0
  -20.6390  -23.9870   14.3530 C   0  0  0  0  0  0  0  0  0  0  0  0
  -20.5780  -22.5680   14.9420 C   0  0  1  0  0  0  0  0  0  0  0  0
  -20.7050  -21.4560   13.9160 C   0  0  1  0  0  0  0  0  0  0  0  0
  -17.6400  -19.6240   13.7240 C   0  0  0  0  0  0  0  0  0  0  0  0
  -23.1780  -19.4320   14.7490 C   0  0  0  0  0  0  0  0  0  0  0  0
  -24.0120  -18.5620   15.6640 C   0  0  0  0  0  0  0  0  0  0  0  0
  -23.4510  -17.4390   16.2750 C   0  0  0  0  0  0  0  0  0  0  0  0
  -21.7290  -16.7780    6.1570 C   0  0  0  0  0  0  0  0  0  0  0  0
  -19.1590  -19.1500   11.9620 N   0  0  0  0  0  0  0  0  0  0  0  0
  -20.0430  -18.0610   14.6920 O   0  0  0  0  0  0  0  0  0  0  0  0
  -24.2280  -16.6400   17.1130 C   0  0  0  0  0  0  0  0  0  0  0  0
  -25.5680  -16.9620   17.3380 C   0  0  0  0  0  0  0  0  0  0  0  0
  -26.1280  -18.0820   16.7260 C   0  0  0  0  0  0  0  0  0  0  0  0
  -25.3510  -18.8810   15.8870 C   0  0  0  0  0  0  0  0  0  0  0  0
  -21.9260  -17.6070    7.4780 C   0  0  2  0  0  0  0  0  0  0  0  0
  -20.8990  -20.1750   14.5620 N   0  0  0  0  0  0  0  0  0  0  0  0
  -23.2830  -21.3590   16.9380 O   0  0  0  0  0  0  0  0  0  0  0  0
  -20.8490  -19.4000    8.8670 C   0  0  0  0  0  0  0  0  0  0  0  0
  -21.6880  -22.4170   15.8500 N   0  0  0  0  0  0  0  0  0  0  0  0
  -21.7470  -21.7120   13.0350 O   0  0  0  0  0  0  0  0  0  0  0  0
  -20.4100  -18.3910    9.8960 C   0  0  1  0  0  0  0  0  0  0  0  0
  -21.2870  -17.1700    9.8640 C   0  0  0  0  0  0  0  0  0  0  0  0
  -21.9030  -16.7870    8.7510 C   0  0  0  0  0  0  0  0  0  0  0  0
  -22.8260  -15.5980    8.7070 C   0  0  0  0  0  0  0  0  0  0  0  0
  -23.0511  -14.8695    4.1729 H   0  0  0  0  0  0  0  0  0  0  0  0
  -24.5117  -13.1123    5.3547 H   0  0  0  0  0  0  0  0  0  0  0  0
  -23.2167  -15.2897   10.7942 H   0  0  0  0  0  0  0  0  0  0  0  0
  -24.7147  -13.3286   10.4602 H   0  0  0  0  0  0  0  0  0  0  0  0
  -25.1897  -12.4954    8.1050 H   0  0  0  0  0  0  0  0  0  0  0  0
  -21.3091  -20.6987    6.9433 H   0  0  0  0  0  0  0  0  0  0  0  0
  -21.9648  -19.4297    5.8541 H   0  0  0  0  0  0  0  0  0  0  0  0
  -20.2054  -19.7919    5.8541 H   0  0  0  0  0  0  0  0  0  0  0  0
  -21.6831  -19.2838   16.2514 H   0  0  0  0  0  0  0  0  0  0  0  0
  -22.9617  -23.8149   16.7816 H   0  0  0  0  0  0  0  0  0  0  0  0
  -21.2713  -23.9674   17.2480 H   0  0  0  0  0  0  0  0  0  0  0  0
  -21.3702  -25.6547   15.5868 H   0  0  0  0  0  0  0  0  0  0  0  0
  -22.6542  -24.8546   14.6780 H   0  0  0  0  0  0  0  0  0  0  0  0
  -19.6692  -24.4977   14.4460 H   0  0  0  0  0  0  0  0  0  0  0  0
  -20.8731  -24.0052   13.2784 H   0  0  0  0  0  0  0  0  0  0  0  0
  -19.5902  -22.4731   15.4166 H   0  0  0  0  0  0  0  0  0  0  0  0
  -17.5955  -19.6185   14.8231 H   0  0  0  0  0  0  0  0  0  0  0  0
  -17.0309  -20.4540   13.3365 H   0  0  0  0  0  0  0  0  0  0  0  0
  -17.2502  -18.6711   13.3365 H   0  0  0  0  0  0  0  0  0  0  0  0
  -22.8288  -18.8273   13.8991 H   0  0  0  0  0  0  0  0  0  0  0  0
  -23.8016  -20.2683   14.4001 H   0  0  0  0  0  0  0  0  0  0  0  0
  -22.3960  -17.1845   16.0953 H   0  0  0  0  0  0  0  0  0  0  0  0
  -21.9689  -17.4053    5.2858 H   0  0  0  0  0  0  0  0  0  0  0  0
  -20.6850  -16.4414    6.0751 H   0  0  0  0  0  0  0  0  0  0  0  0
  -18.3083  -18.7528   11.5385 H   0  0  0  0  0  0  0  0  0  0  0  0
  -23.7856  -15.7565   17.5965 H   0  0  0  0  0  0  0  0  0  0  0  0
  -26.1817  -16.3316   17.9983 H   0  0  0  0  0  0  0  0  0  0  0  0
  -27.1832  -18.3361   16.9047 H   0  0  0  0  0  0  0  0  0  0  0  0
  -25.7946  -19.7627   15.4013 H   0  0  0  0  0  0  0  0  0  0  0  0
  -22.9416  -18.0264    7.4261 H   0  0  0  0  0  0  0  0  0  0  0  0
  -21.8456  -19.7884    9.1237 H   0  0  0  0  0  0  0  0  0  0  0  0
  -20.1480  -20.2470    8.8324 H   0  0  0  0  0  0  0  0  0  0  0  0
  -22.5699  -21.9142   13.5470 H   0  0  0  0  0  0  0  0  0  0  0  0
  -19.3971  -18.0355    9.6559 H   0  0  0  0  0  0  0  0  0  0  0  0
  -21.4216  -16.5806   10.7829 H   0  0  0  0  0  0  0  0  0  0  0  0
  1  2  1  0
  4  5  2  0
  5  6  1  0
  2  7  1  0
  6  7  2  0
  7  8  1  0
  3 10  2  0
 11 12  1  0
  9 14  1  0
  1 15  2  0
  8 15  1  0
 11 16  1  0
 13 17  1  0
 18 19  1  0
 19 20  1  0
 20 21  1  0
 16 22  1  0
 21 22  1  0
 11 23  1  0
 13 24  1  0
 24 25  1  0
 25 26  2  0
 15 27  1  0
 10 28  1  0
 11 28  1  6
 12 29  2  0
 26 30  1  0
 30 31  2  0
 31 32  1  0
 25 33  1  0
 32 33  2  0
 14 34  1  0
 27 34  1  0
 12 35  1  0
 13 35  1  0
 22 35  1  0
 17 36  2  0
 14 37  1  0
 17 38  1  0
 18 38  1  0
 21 38  1  0
 22 39  1  6
 10 40  1  0
 37 40  1  0
 40 41  1  0
 34 42  1  0
 41 42  2  0
  4 43  1  0
  8 43  2  0
 42 43  1  0
  1 44  1  0
  2 45  1  0
  4 46  1  0
  5 47  1  0
  6 48  1  0
  9 49  1  0
  9 50  1  0
  9 51  1  0
 13 52  1  1
 18 53  1  0
 18 54  1  0
 19 55  1  0
 19 56  1  0
 20 57  1  0
 20 58  1  0
 21 59  1  1
 23 60  1  0
 23 61  1  0
 23 62  1  0
 24 63  1  0
 24 64  1  0
 26 65  1  0
 27 66  1  0
 27 67  1  0
 28 68  1  0
 30 69  1  0
 31 70  1  0
 32 71  1  0
 33 72  1  0
 34 73  1  6
 37 74  1  0
 37 75  1  0
 39 76  1  0
 40 77  1  6
 41 78  1  0
M  END
>  <PDBID>  (1) 
4NC3

>  <PDB ID>  (1) 
4NC3

>  <Generic Name>  (1) 
Ergotamine

>  <Brand Name>  (1) 
Cafergot#Cafergot Sup#Cafergot Tab#Ergodryl Cap#Ergomar#Ergomar Slt 2mg#Ergomar Sublingual#Ergotamine#Ergotamine Tartrate and Caffeine#Gravergol Capsules#Megral Tabs#Migergot#Anervan#Antimigraine#Enxak#Ergam#Ergo-Kranit#Gynaemine#Wigrettes

>  <DrugBank ID>  (1) 
DB00696

>  <ATC Codes>  (1) 
N02CA52#N02CA72#N02CA02

>  <Ligand ID>  (1) 
ERM

>  <Target Name>  (1) 
5-hydroxytryptamine receptor 2A

>  <UniProt ID>  (1) 
P28223

>  <PDB ID.1>  (1) 
4NC3

>  <Seq. Identity>  (1) 
58%

$$$$
