PDB_DB01263_98
     RDKit          3D

119125  0  0  0  0  0  0  0  0999 V2000
    4.0900   22.0030   37.6010 C   0  0  0  0  0  0  0  0  0  0  0  0
    0.5750   21.9990   35.1200 C   0  0  0  0  0  0  0  0  0  0  0  0
    1.6060   19.3450   39.6790 O   0  0  0  0  0  0  0  0  0  0  0  0
   -0.7380   20.9900   36.8950 O   0  0  0  0  0  0  0  0  0  0  0  0
   13.6370   19.3460   51.9230 F   0  0  0  0  0  0  0  0  0  0  0  0
   16.0290   17.3110   55.2880 F   0  0  0  0  0  0  0  0  0  0  0  0
   14.8630   18.3370   53.6110 C   0  0  0  0  0  0  0  0  0  0  0  0
    5.8150   17.7360   50.1450 C   0  0  0  0  0  0  0  0  0  0  0  0
    6.4740   20.0630   49.7920 C   0  0  0  0  0  0  0  0  0  0  0  0
    4.7530   17.8710   49.2740 C   0  0  0  0  0  0  0  0  0  0  0  0
    5.3660   20.1980   48.9250 C   0  0  0  0  0  0  0  0  0  0  0  0
    0.9600   18.9330   43.8590 C   0  0  0  0  0  0  0  0  0  0  0  0
    0.8670   21.2010   44.5150 C   0  0  0  0  0  0  0  0  0  0  0  0
    0.8570   19.3380   42.5120 C   0  0  0  0  0  0  0  0  0  0  0  0
    0.7820   21.5810   43.1760 C   0  0  0  0  0  0  0  0  0  0  0  0
   14.8830   17.7590   54.8750 C   0  0  1  0  0  0  0  0  0  0  0  0
   13.0410   23.4560   54.8050 C   0  0  0  0  0  0  0  0  0  0  0  0
   12.4620   18.8700   53.9860 C   0  0  0  0  0  0  0  0  0  0  0  0
   11.6580   21.8100   55.3530 C   0  0  0  0  0  0  0  0  0  0  0  0
    0.4800   22.4970   40.5580 C   0  0  0  0  0  0  0  0  0  0  0  0
    3.0310   21.0110   37.1540 C   0  0  0  0  0  0  0  0  0  0  0  0
   10.8030   18.5470   52.2770 C   0  0  0  0  0  0  0  0  0  0  0  0
    2.3410   20.0210   48.3670 C   0  0  0  0  0  0  0  0  0  0  0  0
    2.9830   18.0730   47.0960 C   0  0  0  0  0  0  0  0  0  0  0  0
    1.6670   20.6420   47.1640 C   0  0  0  0  0  0  0  0  0  0  0  0
    1.5040   18.1890   46.7140 C   0  0  0  0  0  0  0  0  0  0  0  0
    8.8400   18.7930   51.3080 C   0  0  0  0  0  0  0  0  0  0  0  0
   11.3370   20.9190   52.9790 C   0  0  0  0  0  0  0  0  0  0  0  0
   12.3280   22.8560   55.7650 N   0  0  0  0  0  0  0  0  0  0  0  0
   12.7390   22.8160   53.6370 N   0  0  0  0  0  0  0  0  0  0  0  0
    0.7640   22.7060   39.2380 N   0  0  0  0  0  0  0  0  0  0  0  0
    7.5710   18.4450   51.2870 O   0  0  0  0  0  0  0  0  0  0  0  0
   10.1710   19.3470   54.4230 O   0  0  0  0  0  0  0  0  0  0  0  0
   13.6610   18.8640   53.1560 C   0  0  0  0  0  0  0  0  0  0  0  0
   12.5670   18.2900   55.2920 C   0  0  0  0  0  0  0  0  0  0  0  0
    6.6400   18.8060   50.4020 C   0  0  0  0  0  0  0  0  0  0  0  0
    4.5170   19.1190   48.6890 C   0  0  1  0  0  0  0  0  0  0  0  0
    0.9810   19.8670   44.9140 C   0  0  1  0  0  0  0  0  0  0  0  0
    0.7090   20.6790   42.0970 C   0  0  1  0  0  0  0  0  0  0  0  0
   13.8120   17.7440   55.7090 C   0  0  0  0  0  0  0  0  0  0  0  0
    1.2540   20.5860   39.7600 C   0  0  1  0  0  0  0  0  0  0  0  0
    0.5850   21.0640   36.3240 C   0  0  2  0  0  0  0  0  0  0  0  0
    1.6170   21.5930   37.3150 C   0  0  1  0  0  0  0  0  0  0  0  0
    3.4500   19.3020   47.7760 N   0  0  0  0  0  0  0  0  0  0  0  0
    1.0510   19.5610   46.3440 N   0  0  0  0  0  0  0  0  0  0  0  0
   11.8810   21.8080   53.9880 N   0  0  0  0  0  0  0  0  0  0  0  0
    0.7140   21.1750   40.8450 N   0  0  0  0  0  0  0  0  0  0  0  0
    1.2250   21.4750   38.7400 N   0  0  0  0  0  0  0  0  0  0  0  0
   11.2150   19.4730   53.4290 C   0  0  2  0  0  0  0  0  0  0  0  0
    9.0510   18.5760   53.9370 C   0  0  0  0  0  0  0  0  0  0  0  0
    9.4230   18.0780   52.5440 C   0  0  2  0  0  0  0  0  0  0  0  0
    4.1229   22.0338   38.7001 H   0  0  0  0  0  0  0  0  0  0  0  0
    5.0712   21.6914   37.2134 H   0  0  0  0  0  0  0  0  0  0  0  0
    3.8431   23.0024   37.2134 H   0  0  0  0  0  0  0  0  0  0  0  0
    0.5638   23.0429   35.4665 H   0  0  0  0  0  0  0  0  0  0  0  0
    1.4751   21.8240   34.5123 H   0  0  0  0  0  0  0  0  0  0  0  0
   -0.3211   21.8048   34.5123 H   0  0  0  0  0  0  0  0  0  0  0  0
    1.7118   18.9719   40.5899 H   0  0  0  0  0  0  0  0  0  0  0  0
   -0.6718   20.9937   37.8828 H   0  0  0  0  0  0  0  0  0  0  0  0
   15.5991   19.1544   53.6129 H   0  0  0  0  0  0  0  0  0  0  0  0
   15.0769   17.5050   52.9240 H   0  0  0  0  0  0  0  0  0  0  0  0
    5.3937   17.4219   51.1114 H   0  0  0  0  0  0  0  0  0  0  0  0
    6.4773   17.0286   49.6245 H   0  0  0  0  0  0  0  0  0  0  0  0
    7.3828   20.2753   49.2097 H   0  0  0  0  0  0  0  0  0  0  0  0
    6.2877   20.7664   50.6169 H   0  0  0  0  0  0  0  0  0  0  0  0
    4.9136   17.1549   48.4546 H   0  0  0  0  0  0  0  0  0  0  0  0
    3.8680   17.7008   49.9047 H   0  0  0  0  0  0  0  0  0  0  0  0
    4.7421   21.0061   49.3345 H   0  0  0  0  0  0  0  0  0  0  0  0
    5.8376   20.3606   47.9446 H   0  0  0  0  0  0  0  0  0  0  0  0
    0.1025   18.2708   44.0493 H   0  0  0  0  0  0  0  0  0  0  0  0
    1.9752   18.5113   43.8996 H   0  0  0  0  0  0  0  0  0  0  0  0
    1.7483   21.7175   44.9230 H   0  0  0  0  0  0  0  0  0  0  0  0
   -0.1357   21.4606   44.8855 H   0  0  0  0  0  0  0  0  0  0  0  0
    1.7716   18.9740   42.0212 H   0  0  0  0  0  0  0  0  0  0  0  0
   -0.1290   18.9287   42.2470 H   0  0  0  0  0  0  0  0  0  0  0  0
   -0.1205   22.2055   43.1018 H   0  0  0  0  0  0  0  0  0  0  0  0
    1.7839   22.0074   43.0197 H   0  0  0  0  0  0  0  0  0  0  0  0
   15.1061   18.7399   55.3200 H   0  0  0  0  0  0  0  0  0  0  0  0
   12.7670   24.5192   54.7371 H   0  0  0  0  0  0  0  0  0  0  0  0
   14.1186   23.4029   55.0193 H   0  0  0  0  0  0  0  0  0  0  0  0
   12.1725   17.8917   53.5748 H   0  0  0  0  0  0  0  0  0  0  0  0
   12.0411   20.8888   55.8164 H   0  0  0  0  0  0  0  0  0  0  0  0
   10.5905   21.8514   55.6152 H   0  0  0  0  0  0  0  0  0  0  0  0
    1.1247   23.1330   41.1824 H   0  0  0  0  0  0  0  0  0  0  0  0
   -0.5706   22.7495   40.7643 H   0  0  0  0  0  0  0  0  0  0  0  0
    3.1975   20.7617   36.0956 H   0  0  0  0  0  0  0  0  0  0  0  0
    3.1101   20.1118   37.7827 H   0  0  0  0  0  0  0  0  0  0  0  0
   10.8335   19.0976   51.3252 H   0  0  0  0  0  0  0  0  0  0  0  0
   11.4921   17.6925   52.2057 H   0  0  0  0  0  0  0  0  0  0  0  0
    2.6962   20.7933   49.0651 H   0  0  0  0  0  0  0  0  0  0  0  0
    1.6716   19.3798   48.9592 H   0  0  0  0  0  0  0  0  0  0  0  0
    3.1143   17.2152   47.7719 H   0  0  0  0  0  0  0  0  0  0  0  0
    3.5734   17.9326   46.1785 H   0  0  0  0  0  0  0  0  0  0  0  0
    0.8870   21.3419   47.4982 H   0  0  0  0  0  0  0  0  0  0  0  0
    2.4081   21.1892   46.5629 H   0  0  0  0  0  0  0  0  0  0  0  0
    1.3211   17.5267   45.8550 H   0  0  0  0  0  0  0  0  0  0  0  0
    0.9333   17.9101   47.6121 H   0  0  0  0  0  0  0  0  0  0  0  0
    9.3487   18.4596   50.3914 H   0  0  0  0  0  0  0  0  0  0  0  0
    8.9711   19.8840   51.3586 H   0  0  0  0  0  0  0  0  0  0  0  0
   10.3355   21.2809   52.7031 H   0  0  0  0  0  0  0  0  0  0  0  0
   12.0400   20.9304   52.1330 H   0  0  0  0  0  0  0  0  0  0  0  0
   12.9740   22.5550   56.5086 H   0  0  0  0  0  0  0  0  0  0  0  0
   12.2841   23.4638   52.9780 H   0  0  0  0  0  0  0  0  0  0  0  0
   -0.0832   23.0017   38.7323 H   0  0  0  0  0  0  0  0  0  0  0  0
   13.3712   17.8738   52.7745 H   0  0  0  0  0  0  0  0  0  0  0  0
   12.3019   19.0754   56.0151 H   0  0  0  0  0  0  0  0  0  0  0  0
   11.8999   17.4166   55.2455 H   0  0  0  0  0  0  0  0  0  0  0  0
    7.3006   18.4942   49.5796 H   0  0  0  0  0  0  0  0  0  0  0  0
    3.9061   19.4100   49.5562 H   0  0  0  0  0  0  0  0  0  0  0  0
    2.0757   19.9358   44.8313 H   0  0  0  0  0  0  0  0  0  0  0  0
   -0.1117   20.3782   41.4292 H   0  0  0  0  0  0  0  0  0  0  0  0
   13.6250   16.6903   55.9635 H   0  0  0  0  0  0  0  0  0  0  0  0
   14.1199   18.4196   56.5206 H   0  0  0  0  0  0  0  0  0  0  0  0
    0.2477   20.3240   39.4014 H   0  0  0  0  0  0  0  0  0  0  0  0
    0.8634   20.0396   36.0359 H   0  0  0  0  0  0  0  0  0  0  0  0
    1.6452   22.6581   37.0414 H   0  0  0  0  0  0  0  0  0  0  0  0
    8.8614   17.7229   54.6050 H   0  0  0  0  0  0  0  0  0  0  0  0
    8.1378   19.1884   53.9040 H   0  0  0  0  0  0  0  0  0  0  0  0
    9.1273   17.0205   52.6093 H   0  0  0  0  0  0  0  0  0  0  0  0
  8 10  1  0
  9 11  1  0
 12 14  1  0
 13 15  1  0
  6 16  1  0
  7 16  1  0
  1 21  1  0
 23 25  1  0
 24 26  1  0
 17 29  1  0
 19 29  1  0
 17 30  1  0
 20 31  1  0
 27 32  1  0
  5 34  1  0
  7 34  1  0
 18 34  1  0
 18 35  1  0
  8 36  1  0
  9 36  1  0
 32 36  1  0
 10 37  1  0
 11 37  1  0
 12 38  1  0
 13 38  1  0
 14 39  1  0
 15 39  1  0
 16 40  1  0
 35 40  1  0
  3 41  1  0
  2 42  1  0
  4 42  1  0
 21 43  1  0
 42 43  1  0
 23 44  1  0
 24 44  1  0
 37 44  1  0
 25 45  1  0
 26 45  1  0
 38 45  1  0
 19 46  1  0
 28 46  1  0
 30 46  1  0
 20 47  1  0
 39 47  1  0
 41 47  1  0
 31 48  1  0
 41 48  1  0
 43 48  1  0
 18 49  1  0
 22 49  1  0
 49 28  1  6
 33 49  1  0
 33 50  1  0
 22 51  1  0
 27 51  1  0
 50 51  1  0
  1 52  1  0
  1 53  1  0
  1 54  1  0
  2 55  1  0
  2 56  1  0
  2 57  1  0
  3 58  1  0
  4 59  1  0
  7 60  1  0
  7 61  1  0
  8 62  1  0
  8 63  1  0
  9 64  1  0
  9 65  1  0
 10 66  1  0
 10 67  1  0
 11 68  1  0
 11 69  1  0
 12 70  1  0
 12 71  1  0
 13 72  1  0
 13 73  1  0
 14 74  1  0
 14 75  1  0
 15 76  1  0
 15 77  1  0
 16 78  1  6
 17 79  1  0
 17 80  1  0
 18 81  1  0
 19 82  1  0
 19 83  1  0
 20 84  1  0
 20 85  1  0
 21 86  1  0
 21 87  1  0
 22 88  1  0
 22 89  1  0
 23 90  1  0
 23 91  1  0
 24 92  1  0
 24 93  1  0
 25 94  1  0
 25 95  1  0
 26 96  1  0
 26 97  1  0
 27 98  1  0
 27 99  1  0
 28100  1  0
 28101  1  0
 29102  1  1
 30103  1  0
 31104  1  0
 34105  1  0
 35106  1  0
 35107  1  0
 36108  1  0
 37109  1  1
 38110  1  6
 39111  1  1
 40112  1  0
 40113  1  0
 41114  1  1
 42115  1  6
 43116  1  6
 50117  1  0
 50118  1  0
 51119  1  1
M  END
>  <PDBID>  (1) 
5TL8

>  <PDB ID>  (1) 
5TL8

>  <Generic Name>  (1) 
Posaconazole

>  <Brand Name>  (1) 
Noxafil#Posanol

>  <DrugBank ID>  (1) 
DB01263

>  <ATC Codes>  (1) 
J02AC04

>  <Ligand ID>  (1) 
X2N

>  <Target Name>  (1) 
Lanosterol 14-alpha demethylase

>  <UniProt ID>  (1) 
P10613

>  <PDB ID.1>  (1) 
5TL8

>  <Seq. Identity>  (1) 
34%

$$$$
