PDB_DB00619_94
     RDKit          3D

188196  0  0  0  0  0  0  0  0999 V2000
   26.1890   19.7940   59.0330 C   0  0  0  0  0  0  0  0  0  0  0  0
   25.0280   19.0110   59.1320 C   0  0  0  0  0  0  0  0  0  0  0  0
   24.6620   18.1880   58.0500 C   0  0  0  0  0  0  0  0  0  0  0  0
   25.4500   18.1820   56.8820 C   0  0  0  0  0  0  0  0  0  0  0  0
   26.5600   18.9590   56.8070 N   0  0  0  0  0  0  0  0  0  0  0  0
   26.9360   19.7370   57.8520 C   0  0  0  0  0  0  0  0  0  0  0  0
   23.4400   17.3620   58.1540 C   0  0  0  0  0  0  0  0  0  0  0  0
   22.6960   17.2530   59.3270 C   0  0  0  0  0  0  0  0  0  0  0  0
   21.5440   16.4500   59.3200 C   0  0  0  0  0  0  0  0  0  0  0  0
   21.2200   15.7820   58.2000 N   0  0  0  0  0  0  0  0  0  0  0  0
   21.9570   15.8840   57.0720 C   0  0  0  0  0  0  0  0  0  0  0  0
   23.0700   16.6510   57.0650 N   0  0  0  0  0  0  0  0  0  0  0  0
   21.6160   15.2020   55.9510 N   0  0  0  0  0  0  0  0  0  0  0  0
   20.5770   14.3150   55.8650 C   0  0  0  0  0  0  0  0  0  0  0  0
   20.7090   12.9750   56.2700 C   0  0  0  0  0  0  0  0  0  0  0  0
   19.6170   12.0950   56.1500 C   0  0  0  0  0  0  0  0  0  0  0  0
   18.3950   12.5370   55.6060 C   0  0  0  0  0  0  0  0  0  0  0  0
   18.2460   13.8870   55.2350 C   0  0  1  0  0  0  0  0  0  0  0  0
   19.3440   14.7450   55.3330 C   0  0  0  0  0  0  0  0  0  0  0  0
   17.0170   14.2970   54.6170 N   0  0  0  0  0  0  0  0  0  0  0  0
   16.6790   15.5240   54.1690 C   0  0  1  0  0  0  0  0  0  0  0  0
   15.3690   15.6700   53.4180 C   0  0  1  0  0  0  0  0  0  0  0  0
   15.2050   16.7830   52.5970 C   0  0  0  0  0  0  0  0  0  0  0  0
   14.0260   16.9550   51.8580 C   0  0  0  0  0  0  0  0  0  0  0  0
   13.0340   15.9750   51.9310 C   0  0  0  0  0  0  0  0  0  0  0  0
   13.2040   14.8450   52.7330 C   0  0  0  0  0  0  0  0  0  0  0  0
   14.3830   14.6780   53.4700 C   0  0  0  0  0  0  0  0  0  0  0  0
   11.7370   16.1660   51.1190 C   0  0  0  0  0  0  0  0  0  0  0  0
   10.5380   16.0050   51.9680 N   0  0  0  0  0  0  0  0  0  0  0  0
   10.4590   16.9200   53.1340 C   0  0  0  0  0  0  0  0  0  0  0  0
    9.2430   16.5420   53.9990 C   0  0  0  0  0  0  0  0  0  0  0  0
    8.0140   16.6060   53.1580 N   0  0  0  0  0  0  0  0  0  0  0  0
    6.8060   16.3060   53.9750 C   0  0  0  0  0  0  0  0  0  0  0  0
    8.0770   15.7080   51.9750 C   0  0  0  0  0  0  0  0  0  0  0  0
    9.3140   16.0470   51.1090 C   0  0  0  0  0  0  0  0  0  0  0  0
   17.3270   16.5300   54.3770 O   0  0  0  0  0  0  0  0  0  0  0  0
   22.0460   12.4840   56.8480 C   0  0  0  0  0  0  0  0  0  0  0  0
   41.2760   43.2520   30.0070 C   0  0  0  0  0  0  0  0  0  0  0  0
   40.9140   44.2120   29.0520 C   0  0  0  0  0  0  0  0  0  0  0  0
   40.0200   45.2320   29.4160 C   0  0  0  0  0  0  0  0  0  0  0  0
   39.5150   45.2640   30.7300 C   0  0  0  0  0  0  0  0  0  0  0  0
   39.8790   44.3260   31.6360 N   0  0  0  0  0  0  0  0  0  0  0  0
   40.7450   43.3360   31.3010 C   0  0  0  0  0  0  0  0  0  0  0  0
   39.6140   46.2680   28.4290 C   0  0  0  0  0  0  0  0  0  0  0  0
   40.1660   46.3960   27.1490 C   0  0  0  0  0  0  0  0  0  0  0  0
   39.6880   47.4260   26.3270 C   0  0  0  0  0  0  0  0  0  0  0  0
   38.7120   48.2530   26.7720 N   0  0  0  0  0  0  0  0  0  0  0  0
   38.1960   48.1060   28.0100 C   0  0  0  0  0  0  0  0  0  0  0  0
   38.6470   47.1290   28.8160 N   0  0  0  0  0  0  0  0  0  0  0  0
   37.2270   48.9280   28.4720 N   0  0  0  0  0  0  0  0  0  0  0  0
   36.7820   50.0170   27.7980 C   0  0  0  0  0  0  0  0  0  0  0  0
   37.4760   51.2420   27.7600 C   0  0  0  0  0  0  0  0  0  0  0  0
   36.9310   52.3170   27.0510 C   0  0  0  0  0  0  0  0  0  0  0  0
   35.7000   52.1920   26.3960 C   0  0  0  0  0  0  0  0  0  0  0  0
   35.0190   50.9640   26.4080 C   0  0  1  0  0  0  0  0  0  0  0  0
   35.5560   49.8950   27.1330 C   0  0  0  0  0  0  0  0  0  0  0  0
   33.7530   50.8680   25.7770 N   0  0  0  0  0  0  0  0  0  0  0  0
   32.9490   49.7810   25.6160 C   0  0  0  0  0  0  0  0  0  0  0  0
   31.5790   49.9960   25.0030 C   0  0  1  0  0  0  0  0  0  0  0  0
   30.5480   49.1200   25.3730 C   0  0  0  0  0  0  0  0  0  0  0  0
   29.2590   49.3000   24.8630 C   0  0  0  0  0  0  0  0  0  0  0  0
   28.9800   50.3520   23.9930 C   0  0  0  0  0  0  0  0  0  0  0  0
   30.0050   51.2510   23.6380 C   0  0  0  0  0  0  0  0  0  0  0  0
   31.3020   51.0690   24.1510 C   0  0  0  0  0  0  0  0  0  0  0  0
   27.5420   50.5050   23.4580 C   0  0  0  0  0  0  0  0  0  0  0  0
   27.4670   50.7680   22.0020 N   0  0  0  0  0  0  0  0  0  0  0  0
   28.1030   49.7230   21.1600 C   0  0  0  0  0  0  0  0  0  0  0  0
   28.1400   50.1830   19.6780 C   0  0  0  0  0  0  0  0  0  0  0  0
   26.7520   50.4720   19.2300 N   0  0  0  0  0  0  0  0  0  0  0  0
   26.6750   50.7490   17.7770 C   0  0  0  0  0  0  0  0  0  0  0  0
   26.1270   51.5360   20.0590 C   0  0  0  0  0  0  0  0  0  0  0  0
   26.0800   51.0850   21.5460 C   0  0  0  0  0  0  0  0  0  0  0  0
   33.2570   48.6470   25.9520 O   0  0  0  0  0  0  0  0  0  0  0  0
   38.8270   51.4480   28.4660 C   0  0  0  0  0  0  0  0  0  0  0  0
   25.8865   20.8420   59.1751 H   0  0  0  0  0  0  0  0  0  0  0  0
   26.8612   19.3748   59.7961 H   0  0  0  0  0  0  0  0  0  0  0  0
   25.1557   18.3554   60.0060 H   0  0  0  0  0  0  0  0  0  0  0  0
   24.2161   19.7513   59.1849 H   0  0  0  0  0  0  0  0  0  0  0  0
   24.0530   19.0046   57.6349 H   0  0  0  0  0  0  0  0  0  0  0  0
   25.7783   17.1438   56.7261 H   0  0  0  0  0  0  0  0  0  0  0  0
   24.7831   18.6213   56.1255 H   0  0  0  0  0  0  0  0  0  0  0  0
   27.3490   18.3258   56.6137 H   0  0  0  0  0  0  0  0  0  0  0  0
   26.9868   20.7667   57.4683 H   0  0  0  0  0  0  0  0  0  0  0  0
   27.8635   19.2485   58.1854 H   0  0  0  0  0  0  0  0  0  0  0  0
   24.0494   16.4990   58.4603 H   0  0  0  0  0  0  0  0  0  0  0  0
   23.3669   16.8508   60.1004 H   0  0  0  0  0  0  0  0  0  0  0  0
   22.3130   18.2700   59.4972 H   0  0  0  0  0  0  0  0  0  0  0  0
   21.6684   15.7016   60.1165 H   0  0  0  0  0  0  0  0  0  0  0  0
   20.7213   17.1696   59.4440 H   0  0  0  0  0  0  0  0  0  0  0  0
   21.2121   14.7831   58.4510 H   0  0  0  0  0  0  0  0  0  0  0  0
   21.3573   16.7513   56.7586 H   0  0  0  0  0  0  0  0  0  0  0  0
   22.9510   17.3303   56.3000 H   0  0  0  0  0  0  0  0  0  0  0  0
   21.4254   15.9204   55.2379 H   0  0  0  0  0  0  0  0  0  0  0  0
   20.8964   14.0394   54.8491 H   0  0  0  0  0  0  0  0  0  0  0  0
   20.3774   13.2484   57.2826 H   0  0  0  0  0  0  0  0  0  0  0  0
   19.9557   11.2573   55.5227 H   0  0  0  0  0  0  0  0  0  0  0  0
   19.3570   11.8818   57.1973 H   0  0  0  0  0  0  0  0  0  0  0  0
   18.2112   11.9356   54.7035 H   0  0  0  0  0  0  0  0  0  0  0  0
   17.6857   12.4196   56.4386 H   0  0  0  0  0  0  0  0  0  0  0  0
   17.9574   14.1385   56.2662 H   0  0  0  0  0  0  0  0  0  0  0  0
   19.0189   15.5933   55.9532 H   0  0  0  0  0  0  0  0  0  0  0  0
   19.5951   14.9244   54.2772 H   0  0  0  0  0  0  0  0  0  0  0  0
   16.9225   13.6845   53.7943 H   0  0  0  0  0  0  0  0  0  0  0  0
   17.1997   15.3214   53.2214 H   0  0  0  0  0  0  0  0  0  0  0  0
   14.9466   16.2319   54.2641 H   0  0  0  0  0  0  0  0  0  0  0  0
   15.3041   17.6681   53.2426 H   0  0  0  0  0  0  0  0  0  0  0  0
   15.9653   16.6291   51.8171 H   0  0  0  0  0  0  0  0  0  0  0  0
   13.5714   17.8997   52.1910 H   0  0  0  0  0  0  0  0  0  0  0  0
   14.3616   16.9143   50.8112 H   0  0  0  0  0  0  0  0  0  0  0  0
   13.4960   15.4444   51.0854 H   0  0  0  0  0  0  0  0  0  0  0  0
   12.3749   14.8416   53.4560 H   0  0  0  0  0  0  0  0  0  0  0  0
   13.2442   14.0224   52.0038 H   0  0  0  0  0  0  0  0  0  0  0  0
   14.8489   13.7439   53.1231 H   0  0  0  0  0  0  0  0  0  0  0  0
   14.0426   14.7032   54.5157 H   0  0  0  0  0  0  0  0  0  0  0  0
   11.7335   17.1760   50.6833 H   0  0  0  0  0  0  0  0  0  0  0  0
   11.7072   15.3994   50.3306 H   0  0  0  0  0  0  0  0  0  0  0  0
   11.3773   16.8313   53.7330 H   0  0  0  0  0  0  0  0  0  0  0  0
   10.3511   17.9563   52.7812 H   0  0  0  0  0  0  0  0  0  0  0  0
    9.3705   15.5216   54.3896 H   0  0  0  0  0  0  0  0  0  0  0  0
    9.1540   17.2417   54.8431 H   0  0  0  0  0  0  0  0  0  0  0  0
    7.0608   16.3693   55.0432 H   0  0  0  0  0  0  0  0  0  0  0  0
    6.0159   17.0352   53.7427 H   0  0  0  0  0  0  0  0  0  0  0  0
    6.4488   15.2919   53.7427 H   0  0  0  0  0  0  0  0  0  0  0  0
    8.1470   14.6642   52.3150 H   0  0  0  0  0  0  0  0  0  0  0  0
    7.1682   15.8473   51.3711 H   0  0  0  0  0  0  0  0  0  0  0  0
    9.1991   17.0534   50.6802 H   0  0  0  0  0  0  0  0  0  0  0  0
    9.4078   15.3149   50.2934 H   0  0  0  0  0  0  0  0  0  0  0  0
   17.4165   16.6689   55.3531 H   0  0  0  0  0  0  0  0  0  0  0  0
   21.9989   12.5013   57.9469 H   0  0  0  0  0  0  0  0  0  0  0  0
   22.2384   11.4566   56.5054 H   0  0  0  0  0  0  0  0  0  0  0  0
   22.8576   13.1427   56.5054 H   0  0  0  0  0  0  0  0  0  0  0  0
   40.9829   42.2717   29.6032 H   0  0  0  0  0  0  0  0  0  0  0  0
   42.3519   43.4263   30.1558 H   0  0  0  0  0  0  0  0  0  0  0  0
   41.8415   44.7004   28.7185 H   0  0  0  0  0  0  0  0  0  0  0  0
   40.3619   43.6355   28.2951 H   0  0  0  0  0  0  0  0  0  0  0  0
   39.1739   44.6010   29.1062 H   0  0  0  0  0  0  0  0  0  0  0  0
   39.8035   46.2375   31.1532 H   0  0  0  0  0  0  0  0  0  0  0  0
   38.4439   45.0600   30.5847 H   0  0  0  0  0  0  0  0  0  0  0  0
   40.3020   44.8309   32.4279 H   0  0  0  0  0  0  0  0  0  0  0  0
   40.2223   42.3862   31.4874 H   0  0  0  0  0  0  0  0  0  0  0  0
   41.6294   43.5696   31.9119 H   0  0  0  0  0  0  0  0  0  0  0  0
   40.3808   46.9484   28.8277 H   0  0  0  0  0  0  0  0  0  0  0  0
   41.2478   46.5518   27.2732 H   0  0  0  0  0  0  0  0  0  0  0  0
   39.8737   45.4714   26.6296 H   0  0  0  0  0  0  0  0  0  0  0  0
   40.5519   48.0600   26.0785 H   0  0  0  0  0  0  0  0  0  0  0  0
   39.2022   46.8845   25.5019 H   0  0  0  0  0  0  0  0  0  0  0  0
   39.0917   49.2092   26.7232 H   0  0  0  0  0  0  0  0  0  0  0  0
   37.4316   47.4234   27.6103 H   0  0  0  0  0  0  0  0  0  0  0  0
   37.8277   46.5528   29.0561 H   0  0  0  0  0  0  0  0  0  0  0  0
   36.4001   48.3320   28.6201 H   0  0  0  0  0  0  0  0  0  0  0  0
   36.2409   50.3514   28.6955 H   0  0  0  0  0  0  0  0  0  0  0  0
   38.0064   50.9134   26.8541 H   0  0  0  0  0  0  0  0  0  0  0  0
   36.8223   53.1435   27.7686 H   0  0  0  0  0  0  0  0  0  0  0  0
   37.6389   52.4453   26.2189 H   0  0  0  0  0  0  0  0  0  0  0  0
   35.0242   52.9341   26.8461 H   0  0  0  0  0  0  0  0  0  0  0  0
   35.9633   52.3243   25.3362 H   0  0  0  0  0  0  0  0  0  0  0  0
   35.5814   50.6434   25.5187 H   0  0  0  0  0  0  0  0  0  0  0  0
   35.6665   49.0610   26.4243 H   0  0  0  0  0  0  0  0  0  0  0  0
   34.8418   49.7827   27.9621 H   0  0  0  0  0  0  0  0  0  0  0  0
   33.1651   51.5468   26.2816 H   0  0  0  0  0  0  0  0  0  0  0  0
   32.5263   49.9452   26.6182 H   0  0  0  0  0  0  0  0  0  0  0  0
   31.8469   49.3290   24.1703 H   0  0  0  0  0  0  0  0  0  0  0  0
   30.8682   48.1102   25.0767 H   0  0  0  0  0  0  0  0  0  0  0  0
   30.4235   49.3171   26.4480 H   0  0  0  0  0  0  0  0  0  0  0  0
   28.9997   48.3736   24.3296 H   0  0  0  0  0  0  0  0  0  0  0  0
   28.6746   49.5596   25.7580 H   0  0  0  0  0  0  0  0  0  0  0  0
   28.7167   50.9903   24.8493 H   0  0  0  0  0  0  0  0  0  0  0  0
   30.0889   51.2218   22.5416 H   0  0  0  0  0  0  0  0  0  0  0  0
   29.6815   52.1993   24.0919 H   0  0  0  0  0  0  0  0  0  0  0  0
   31.5546   51.9855   24.7044 H   0  0  0  0  0  0  0  0  0  0  0  0
   31.8947   50.8352   23.2543 H   0  0  0  0  0  0  0  0  0  0  0  0
   26.9929   49.5759   23.6707 H   0  0  0  0  0  0  0  0  0  0  0  0
   27.1053   51.3793   23.9629 H   0  0  0  0  0  0  0  0  0  0  0  0
   29.1301   49.5470   21.5122 H   0  0  0  0  0  0  0  0  0  0  0  0
   27.5179   48.7945   21.2347 H   0  0  0  0  0  0  0  0  0  0  0  0
   28.7539   51.0913   19.5883 H   0  0  0  0  0  0  0  0  0  0  0  0
   28.5769   49.3909   19.0521 H   0  0  0  0  0  0  0  0  0  0  0  0
   26.3835   51.7978   17.6186 H   0  0  0  0  0  0  0  0  0  0  0  0
   27.6575   50.5680   17.3167 H   0  0  0  0  0  0  0  0  0  0  0  0
   25.9268   50.0869   17.3167 H   0  0  0  0  0  0  0  0  0  0  0  0
   26.7194   52.4591   19.9758 H   0  0  0  0  0  0  0  0  0  0  0  0
   25.1027   51.7198   19.7025 H   0  0  0  0  0  0  0  0  0  0  0  0
   25.4472   50.1902   21.6402 H   0  0  0  0  0  0  0  0  0  0  0  0
   25.6600   51.8909   22.1658 H   0  0  0  0  0  0  0  0  0  0  0  0
   33.2729   48.5884   26.9401 H   0  0  0  0  0  0  0  0  0  0  0  0
   38.6785   51.4254   29.5557 H   0  0  0  0  0  0  0  0  0  0  0  0
   39.5197   50.6451   28.1736 H   0  0  0  0  0  0  0  0  0  0  0  0
   39.2489   52.4209   28.1736 H   0  0  0  0  0  0  0  0  0  0  0  0
  1  2  1  0
  2  3  1  0
  3  4  1  0
  4  5  1  0
  1  6  1  0
  5  6  1  0
  3  7  1  0
  7  8  1  0
  8  9  1  0
  9 10  1  0
 10 11  1  0
  7 12  1  0
 11 12  1  0
 11 13  1  0
 13 14  1  0
 14 15  1  0
 15 16  1  0
 16 17  1  0
 17 18  1  0
 14 19  1  0
 18 19  1  0
 18 20  1  0
 20 21  1  0
 21 22  1  0
 22 23  1  0
 23 24  1  0
 24 25  1  0
 25 26  1  0
 22 27  1  0
 26 27  1  0
 25 28  1  0
 28 29  1  0
 29 30  1  0
 30 31  1  0
 31 32  1  0
 32 33  1  0
 32 34  1  0
 29 35  1  0
 34 35  1  0
 21 36  1  0
 15 37  1  0
 38 39  1  0
 39 40  1  0
 40 41  1  0
 41 42  1  0
 38 43  1  0
 42 43  1  0
 40 44  1  0
 44 45  1  0
 45 46  1  0
 46 47  1  0
 47 48  1  0
 44 49  1  0
 48 49  1  0
 48 50  1  0
 50 51  1  0
 51 52  1  0
 52 53  1  0
 53 54  1  0
 54 55  1  0
 51 56  1  0
 55 56  1  0
 55 57  1  0
 57 58  1  0
 58 59  1  0
 59 60  1  0
 60 61  1  0
 61 62  1  0
 62 63  1  0
 59 64  1  0
 63 64  1  0
 62 65  1  0
 65 66  1  0
 66 67  1  0
 67 68  1  0
 68 69  1  0
 69 70  1  0
 69 71  1  0
 66 72  1  0
 71 72  1  0
 58 73  1  0
 52 74  1  0
  1 75  1  0
  1 76  1  0
  2 77  1  0
  2 78  1  0
  3 79  1  0
  4 80  1  0
  4 81  1  0
  5 82  1  0
  6 83  1  0
  6 84  1  0
  7 85  1  0
  8 86  1  0
  8 87  1  0
  9 88  1  0
  9 89  1  0
 10 90  1  0
 11 91  1  0
 12 92  1  0
 13 93  1  0
 14 94  1  0
 15 95  1  0
 16 96  1  0
 16 97  1  0
 17 98  1  0
 17 99  1  0
 18100  1  1
 19101  1  0
 19102  1  0
 20103  1  0
 21104  1  6
 22105  1  1
 23106  1  0
 23107  1  0
 24108  1  0
 24109  1  0
 25110  1  0
 26111  1  0
 26112  1  0
 27113  1  0
 27114  1  0
 28115  1  0
 28116  1  0
 30117  1  0
 30118  1  0
 31119  1  0
 31120  1  0
 33121  1  0
 33122  1  0
 33123  1  0
 34124  1  0
 34125  1  0
 35126  1  0
 35127  1  0
 36128  1  0
 37129  1  0
 37130  1  0
 37131  1  0
 38132  1  0
 38133  1  0
 39134  1  0
 39135  1  0
 40136  1  0
 41137  1  0
 41138  1  0
 42139  1  0
 43140  1  0
 43141  1  0
 44142  1  0
 45143  1  0
 45144  1  0
 46145  1  0
 46146  1  0
 47147  1  0
 48148  1  0
 49149  1  0
 50150  1  0
 51151  1  0
 52152  1  0
 53153  1  0
 53154  1  0
 54155  1  0
 54156  1  0
 55157  1  6
 56158  1  0
 56159  1  0
 57160  1  0
 58161  1  0
 59162  1  6
 60163  1  0
 60164  1  0
 61165  1  0
 61166  1  0
 62167  1  0
 63168  1  0
 63169  1  0
 64170  1  0
 64171  1  0
 65172  1  0
 65173  1  0
 67174  1  0
 67175  1  0
 68176  1  0
 68177  1  0
 70178  1  0
 70179  1  0
 70180  1  0
 71181  1  0
 71182  1  0
 72183  1  0
 72184  1  0
 73185  1  0
 74186  1  0
 74187  1  0
 74188  1  0
M  END
>  <PDBID>  (1) 
3K5V

>  <PDB ID>  (1) 
3K5V

>  <Generic Name>  (1) 
Imatinib

>  <Brand Name>  (1) 
Apo-imatinib#Gleevec#Imatinib Mesylate#Mylan-imatinib#Nat-imatinib#PMS-imatinib#Ran-imatinib#Teva-imatinib#Celonib#Enliven#Glivec#Imatib#Mesylonib#Mitinab#Plivatinib#Shantinib

>  <DrugBank ID>  (1) 
DB00619

>  <ATC Codes>  (1) 
L01XE01

>  <Ligand ID>  (1) 
STI

>  <Target Name>  (1) 
BCR/ABL fusion protein isoform X9

>  <UniProt ID>  (1) 
A9UF02

>  <PDB ID.1>  (1) 
3K5V

>  <Seq. Identity>  (1) 
95%

$$$$
