PDB_DB00642_97
     RDKit          3D

 52 54  0  0  0  0  0  0  0  0999 V2000
   49.6130   35.1230   22.7780 C   0  0  0  0  0  0  0  0  0  0  0  0
   48.2040   35.0410   22.6220 C   0  0  0  0  0  0  0  0  0  0  0  0
   47.6500   34.6440   21.3680 C   0  0  0  0  0  0  0  0  0  0  0  0
   48.4990   34.3210   20.2470 C   0  0  0  0  0  0  0  0  0  0  0  0
   49.9070   34.4220   20.4420 C   0  0  0  0  0  0  0  0  0  0  0  0
   50.4520   34.8120   21.6800 C   0  0  0  0  0  0  0  0  0  0  0  0
   50.2370   35.5310   24.1260 C   0  0  0  0  0  0  0  0  0  0  0  0
   50.6270   37.0240   24.2530 C   0  0  0  0  0  0  0  0  0  0  0  0
   51.8650   37.4380   23.4560 C   0  0  0  0  0  0  0  0  0  0  0  0
   53.1460   36.8770   23.5410 C   0  0  0  0  0  0  0  0  0  0  0  0
   54.0370   37.5170   22.6500 N   0  0  0  0  0  0  0  0  0  0  0  0
   53.3020   38.4860   22.0030 C   0  0  0  0  0  0  0  0  0  0  0  0
   51.9660   38.4290   22.5090 C   0  0  0  0  0  0  0  0  0  0  0  0
   50.9110   39.4250   21.9510 C   0  0  0  0  0  0  0  0  0  0  0  0
   49.7380   39.4740   22.3060 O   0  0  0  0  0  0  0  0  0  0  0  0
   51.3610   40.2920   20.9980 N   0  0  0  0  0  0  0  0  0  0  0  0
   52.7460   40.2980   20.5190 C   0  0  0  0  0  0  0  0  0  0  0  0
   53.6270   39.4660   20.9880 N   0  0  0  0  0  0  0  0  0  0  0  0
   53.1180   41.2050   19.5550 N   0  0  0  0  0  0  0  0  0  0  0  0
   48.0120   33.8700   18.8730 C   0  0  0  0  0  0  0  0  0  0  0  0
   48.8340   33.6130   17.9840 O   0  0  0  0  0  0  0  0  0  0  0  0
   46.6780   33.7470   18.6600 N   0  0  0  0  0  0  0  0  0  0  0  0
   46.0300   33.2970   17.3800 C   0  0  1  0  0  0  0  0  0  0  0  0
   46.5020   31.8920   16.8630 C   0  0  0  0  0  0  0  0  0  0  0  0
   46.3930   30.7330   17.9030 C   0  0  0  0  0  0  0  0  0  0  0  0
   46.8610   29.3350   17.4750 C   0  0  0  0  0  0  0  0  0  0  0  0
   48.0140   28.9620   17.8060 O   0  0  0  0  0  0  0  0  0  0  0  0
   46.0870   28.5960   16.8140 O   0  0  0  0  0  0  0  0  0  0  0  0
   44.4770   33.4250   17.5460 C   0  0  0  0  0  0  0  0  0  0  0  0
   43.6910   32.9610   16.6860 O   0  0  0  0  0  0  0  0  0  0  0  0
   44.0410   34.0050   18.5770 O   0  0  0  0  0  0  0  0  0  0  0  0
   47.5410   35.2829   23.4657 H   0  0  0  0  0  0  0  0  0  0  0  0
   46.5576   34.5833   21.2543 H   0  0  0  0  0  0  0  0  0  0  0  0
   50.5834   34.1899   19.6062 H   0  0  0  0  0  0  0  0  0  0  0  0
   51.5440   34.8761   21.7962 H   0  0  0  0  0  0  0  0  0  0  0  0
   49.5106   35.3014   24.9195 H   0  0  0  0  0  0  0  0  0  0  0  0
   51.1763   34.9645   24.2088 H   0  0  0  0  0  0  0  0  0  0  0  0
   49.7778   37.6296   23.9035 H   0  0  0  0  0  0  0  0  0  0  0  0
   50.8737   37.1886   25.3123 H   0  0  0  0  0  0  0  0  0  0  0  0
   53.4213   36.0494   24.2113 H   0  0  0  0  0  0  0  0  0  0  0  0
   55.0349   37.3022   22.5122 H   0  0  0  0  0  0  0  0  0  0  0  0
   54.5901   39.5050   20.6250 H   0  0  0  0  0  0  0  0  0  0  0  0
   54.0881   41.2203   19.2092 H   0  0  0  0  0  0  0  0  0  0  0  0
   52.4266   41.8692   19.1786 H   0  0  0  0  0  0  0  0  0  0  0  0
   46.0537   33.9827   19.4446 H   0  0  0  0  0  0  0  0  0  0  0  0
   46.3649   33.9608   16.5693 H   0  0  0  0  0  0  0  0  0  0  0  0
   45.8873   31.6258   15.9904 H   0  0  0  0  0  0  0  0  0  0  0  0
   47.5721   31.9949   16.6300 H   0  0  0  0  0  0  0  0  0  0  0  0
   46.9896   31.0234   18.7803 H   0  0  0  0  0  0  0  0  0  0  0  0
   45.3127   30.6201   18.0767 H   0  0  0  0  0  0  0  0  0  0  0  0
   48.3389   28.0649   17.5420 H   0  0  0  0  0  0  0  0  0  0  0  0
   42.7129   33.0520   16.8090 H   0  0  0  0  0  0  0  0  0  0  0  0
  1  2  2  0
  2  3  1  0
  3  4  2  0
  4  5  1  0
  1  6  1  0
  5  6  2  0
  1  7  1  0
  7  8  1  0
  8  9  1  0
  9 10  2  0
 10 11  1  0
 11 12  1  0
  9 13  1  0
 12 13  2  0
 13 14  1  0
 14 15  2  0
 14 16  1  0
 16 17  2  0
 12 18  1  0
 17 18  1  0
 17 19  1  0
  4 20  1  0
 20 21  2  0
 20 22  1  0
 22 23  1  0
 23 24  1  0
 24 25  1  0
 25 26  1  0
 26 27  1  0
 26 28  2  0
 23 29  1  0
 29 30  1  0
 29 31  2  0
  2 32  1  0
  3 33  1  0
  5 34  1  0
  6 35  1  0
  7 36  1  0
  7 37  1  0
  8 38  1  0
  8 39  1  0
 10 40  1  0
 11 41  1  0
 18 42  1  0
 19 43  1  0
 19 44  1  0
 22 45  1  0
 23 46  1  6
 24 47  1  0
 24 48  1  0
 25 49  1  0
 25 50  1  0
 27 51  1  0
 30 52  1  0
M  END
$$$$
