PDB_DB00755_92
     RDKit          3D

 50 50  0  0  0  0  0  0  0  0999 V2000
   -8.7800   13.0870   43.2700 C   0  0  0  0  0  0  0  0  0  0  0  0
   -8.9360   14.6460   43.0530 C   0  0  0  0  0  0  0  0  0  0  0  0
   -9.3030   15.4870   44.2660 C   0  0  0  0  0  0  0  0  0  0  0  0
   -8.4110   15.2430   45.4570 C   0  0  0  0  0  0  0  0  0  0  0  0
   -8.2100   13.7470   45.7800 C   0  0  0  0  0  0  0  0  0  0  0  0
   -8.3710   12.7340   44.8100 C   0  0  0  0  0  0  0  0  0  0  0  0
   -8.1880   11.2500   45.0590 C   0  0  0  0  0  0  0  0  0  0  0  0
   -8.5030   10.4400   46.1150 C   0  0  0  0  0  0  0  0  0  0  0  0
   -8.2290    9.0080   46.1790 C   0  0  0  0  0  0  0  0  0  0  0  0
   -8.5620    8.2620   47.2610 C   0  0  0  0  0  0  0  0  0  0  0  0
   -9.2200    8.6260   48.5000 C   0  0  0  0  0  0  0  0  0  0  0  0
   -9.3700    7.5910   49.3590 C   0  0  0  0  0  0  0  0  0  0  0  0
  -10.0390    7.6010   50.6510 C   0  0  0  0  0  0  0  0  0  0  0  0
  -10.0540    6.4150   51.3270 C   0  0  0  0  0  0  0  0  0  0  0  0
  -10.6430    5.9820   52.6210 C   0  0  0  0  0  0  0  0  0  0  0  0
   -7.6990   12.5940   42.2840 C   0  0  0  0  0  0  0  0  0  0  0  0
  -10.1570   12.4190   42.9160 C   0  0  0  0  0  0  0  0  0  0  0  0
   -7.8290   13.6120   47.2620 C   0  0  0  0  0  0  0  0  0  0  0  0
   -7.5410    8.3190   44.9950 C   0  0  0  0  0  0  0  0  0  0  0  0
  -10.6950    8.8940   51.1620 C   0  0  0  0  0  0  0  0  0  0  0  0
  -10.4640    4.8140   52.9710 O   0  0  0  0  0  0  0  0  0  0  0  0
  -11.3120    6.7510   53.3460 O   0  0  0  0  0  0  0  0  0  0  0  0
   -7.9773   15.0233   42.6675 H   0  0  0  0  0  0  0  0  0  0  0  0
   -9.7904   14.7512   42.3682 H   0  0  0  0  0  0  0  0  0  0  0  0
   -9.2311   16.5490   43.9885 H   0  0  0  0  0  0  0  0  0  0  0  0
  -10.3236   15.2022   44.5614 H   0  0  0  0  0  0  0  0  0  0  0  0
   -7.4271   15.6902   45.2524 H   0  0  0  0  0  0  0  0  0  0  0  0
   -8.9035   15.6987   46.3286 H   0  0  0  0  0  0  0  0  0  0  0  0
   -7.7062   10.7192   44.2247 H   0  0  0  0  0  0  0  0  0  0  0  0
   -8.9999   10.9023   46.9806 H   0  0  0  0  0  0  0  0  0  0  0  0
   -8.2858    7.1999   47.1857 H   0  0  0  0  0  0  0  0  0  0  0  0
   -9.5648    9.6469   48.7212 H   0  0  0  0  0  0  0  0  0  0  0  0
   -8.9357    6.6308   49.0438 H   0  0  0  0  0  0  0  0  0  0  0  0
   -9.5169    5.6102   50.8036 H   0  0  0  0  0  0  0  0  0  0  0  0
   -6.8397   12.2021   42.8479 H   0  0  0  0  0  0  0  0  0  0  0  0
   -8.1163   11.7972   41.6508 H   0  0  0  0  0  0  0  0  0  0  0  0
   -7.3709   13.4315   41.6508 H   0  0  0  0  0  0  0  0  0  0  0  0
  -10.6887   12.1611   43.8438 H   0  0  0  0  0  0  0  0  0  0  0  0
  -10.7653   13.1222   42.3282 H   0  0  0  0  0  0  0  0  0  0  0  0
   -9.9813   11.5060   42.3282 H   0  0  0  0  0  0  0  0  0  0  0  0
   -8.6811   13.9139   47.8886 H   0  0  0  0  0  0  0  0  0  0  0  0
   -7.5665   12.5661   47.4793 H   0  0  0  0  0  0  0  0  0  0  0  0
   -6.9665   14.2593   47.4793 H   0  0  0  0  0  0  0  0  0  0  0  0
   -6.8104    7.5874   45.3705 H   0  0  0  0  0  0  0  0  0  0  0  0
   -8.2950    7.8030   44.3824 H   0  0  0  0  0  0  0  0  0  0  0  0
   -7.0239    9.0722   44.3824 H   0  0  0  0  0  0  0  0  0  0  0  0
  -10.6955    8.8950   52.2620 H   0  0  0  0  0  0  0  0  0  0  0  0
  -10.1285    9.7625   50.7948 H   0  0  0  0  0  0  0  0  0  0  0  0
  -11.7304    8.9497   50.7948 H   0  0  0  0  0  0  0  0  0  0  0  0
  -11.6874    6.4231   54.2014 H   0  0  0  0  0  0  0  0  0  0  0  0
  1  2  1  0
  2  3  1  0
  3  4  1  0
  4  5  1  0
  1  6  1  0
  5  6  2  0
  6  7  1  0
  7  8  2  0
  8  9  1  0
  9 10  2  0
 10 11  1  0
 11 12  2  0
 12 13  1  0
 13 14  2  0
 14 15  1  0
  1 16  1  0
  1 17  1  0
  5 18  1  0
  9 19  1  0
 13 20  1  0
 15 21  2  0
 15 22  1  0
  2 23  1  0
  2 24  1  0
  3 25  1  0
  3 26  1  0
  4 27  1  0
  4 28  1  0
  7 29  1  0
  8 30  1  0
 10 31  1  0
 11 32  1  0
 12 33  1  0
 14 34  1  0
 16 35  1  0
 16 36  1  0
 16 37  1  0
 17 38  1  0
 17 39  1  0
 17 40  1  0
 18 41  1  0
 18 42  1  0
 18 43  1  0
 19 44  1  0
 19 45  1  0
 19 46  1  0
 20 47  1  0
 20 48  1  0
 20 49  1  0
 22 50  1  0
M  END
$$$$
