PDB_DB00783_95
     RDKit          3D

 44 47  0  0  0  0  0  0  0  0999 V2000
   29.9220   -3.2190  -25.5000 C   0  0  0  0  0  0  0  0  0  0  0  0
   29.2910   -2.6740  -26.5880 C   0  0  0  0  0  0  0  0  0  0  0  0
   27.9660   -2.3320  -26.5190 C   0  0  0  0  0  0  0  0  0  0  0  0
   27.2900   -1.8050  -27.5310 O   0  0  0  0  0  0  0  0  0  0  0  0
   27.2880   -2.6050  -25.3580 C   0  0  0  0  0  0  0  0  0  0  0  0
   27.9160   -3.1580  -24.2830 C   0  0  0  0  0  0  0  0  0  0  0  0
   27.0860   -3.4000  -23.0470 C   0  0  0  0  0  0  0  0  0  0  0  0
   27.7890   -4.3230  -22.0700 C   0  0  0  0  0  0  0  0  0  0  0  0
   29.2180   -3.9810  -21.8170 C   0  0  2  0  0  0  0  0  0  0  0  0
   29.9810   -4.1170  -23.1360 C   0  0  1  0  0  0  0  0  0  0  0  0
   29.2340   -3.4710  -24.3370 C   0  0  0  0  0  0  0  0  0  0  0  0
   31.4230   -3.6610  -22.9910 C   0  0  0  0  0  0  0  0  0  0  0  0
   32.1150   -4.4710  -21.8840 C   0  0  0  0  0  0  0  0  0  0  0  0
   31.3150   -4.4300  -20.5650 C   0  0  1  0  0  0  0  0  0  0  0  0
   29.9150   -4.8760  -20.7990 C   0  0  1  0  0  0  0  0  0  0  0  0
   29.3390   -4.8750  -19.3840 C   0  0  0  0  0  0  0  0  0  0  0  0
   30.4870   -5.4730  -18.6130 C   0  0  0  0  0  0  0  0  0  0  0  0
   31.7330   -5.4620  -19.5160 C   0  0  2  0  0  0  0  0  0  0  0  0
   32.8400   -5.0950  -18.8140 O   0  0  0  0  0  0  0  0  0  0  0  0
   31.4280   -3.0350  -19.9850 C   0  0  0  0  0  0  0  0  0  0  0  0
   30.9941   -3.4581  -25.5584 H   0  0  0  0  0  0  0  0  0  0  0  0
   29.8509   -2.5105  -27.5206 H   0  0  0  0  0  0  0  0  0  0  0  0
   26.3326   -1.5778  -27.4219 H   0  0  0  0  0  0  0  0  0  0  0  0
   26.2148   -2.3725  -25.2938 H   0  0  0  0  0  0  0  0  0  0  0  0
   26.8945   -2.4365  -22.5521 H   0  0  0  0  0  0  0  0  0  0  0  0
   26.1450   -3.8795  -23.3547 H   0  0  0  0  0  0  0  0  0  0  0  0
   27.2510   -4.2830  -21.1114 H   0  0  0  0  0  0  0  0  0  0  0  0
   27.7823   -5.3245  -22.5248 H   0  0  0  0  0  0  0  0  0  0  0  0
   29.2207   -2.9604  -21.4067 H   0  0  0  0  0  0  0  0  0  0  0  0
   30.0210   -5.1882  -23.3826 H   0  0  0  0  0  0  0  0  0  0  0  0
   31.9526   -3.8159  -23.9426 H   0  0  0  0  0  0  0  0  0  0  0  0
   31.4420   -2.5935  -22.7264 H   0  0  0  0  0  0  0  0  0  0  0  0
   32.2086   -5.5167  -22.2123 H   0  0  0  0  0  0  0  0  0  0  0  0
   33.1043   -4.0267  -21.7001 H   0  0  0  0  0  0  0  0  0  0  0  0
   29.7960   -5.8664  -21.2627 H   0  0  0  0  0  0  0  0  0  0  0  0
   29.1083   -3.8555  -19.0413 H   0  0  0  0  0  0  0  0  0  0  0  0
   28.3875   -5.4169  -19.2786 H   0  0  0  0  0  0  0  0  0  0  0  0
   30.6780   -4.8772  -17.7083 H   0  0  0  0  0  0  0  0  0  0  0  0
   30.2459   -6.5032  -18.3123 H   0  0  0  0  0  0  0  0  0  0  0  0
   32.0128   -6.4340  -19.9483 H   0  0  0  0  0  0  0  0  0  0  0  0
   32.6515   -5.1575  -17.8441 H   0  0  0  0  0  0  0  0  0  0  0  0
   31.4233   -3.0931  -18.8865 H   0  0  0  0  0  0  0  0  0  0  0  0
   32.3666   -2.5720  -20.3237 H   0  0  0  0  0  0  0  0  0  0  0  0
   30.5762   -2.4270  -20.3237 H   0  0  0  0  0  0  0  0  0  0  0  0
  1  2  2  0
  2  3  1  0
  3  4  1  0
  3  5  2  0
  5  6  1  0
  6  7  1  0
  7  8  1  0
  8  9  1  0
  9 10  1  0
  1 11  1  0
  6 11  2  0
 10 11  1  0
 10 12  1  0
 12 13  1  0
 13 14  1  0
  9 15  1  0
 14 15  1  0
 15 16  1  0
 16 17  1  0
 14 18  1  0
 17 18  1  0
 18 19  1  0
 14 20  1  1
  1 21  1  0
  2 22  1  0
  4 23  1  0
  5 24  1  0
  7 25  1  0
  7 26  1  0
  8 27  1  0
  8 28  1  0
  9 29  1  1
 10 30  1  6
 12 31  1  0
 12 32  1  0
 13 33  1  0
 13 34  1  0
 15 35  1  6
 16 36  1  0
 16 37  1  0
 17 38  1  0
 17 39  1  0
 18 40  1  6
 19 41  1  0
 20 42  1  0
 20 43  1  0
 20 44  1  0
M  END
$$$$
