PDB_DB00398_97
     RDKit          3D

140144  0  0  0  0  0  0  0  0999 V2000
   77.6250   47.8530   68.5610 C   0  0  0  0  0  0  0  0  0  0  0  0
   77.1990   48.8230   67.6770 C   0  0  0  0  0  0  0  0  0  0  0  0
   77.0410   50.1520   68.0650 C   0  0  0  0  0  0  0  0  0  0  0  0
   77.3070   50.5060   69.3560 C   0  0  0  0  0  0  0  0  0  0  0  0
   76.1690   47.3550   65.5280 C   0  0  1  0  0  0  0  0  0  0  0  0
   75.3080   46.2050   63.3490 C   0  0  1  0  0  0  0  0  0  0  0  0
   75.7030   45.8670   61.9800 C   0  0  0  0  0  0  0  0  0  0  0  0
   74.9730   44.9030   61.2950 C   0  0  0  0  0  0  0  0  0  0  0  0
   73.8960   44.2580   61.8870 C   0  0  0  0  0  0  0  0  0  0  0  0
   73.5170   44.5670   63.2070 C   0  0  0  0  0  0  0  0  0  0  0  0
   74.2130   45.5420   63.9430 C   0  0  0  0  0  0  0  0  0  0  0  0
   73.2130   43.3320   61.1480 O   0  0  0  0  0  0  0  0  0  0  0  0
   74.6220   41.3330   61.8990 C   0  0  0  0  0  0  0  0  0  0  0  0
   74.6010   39.9590   62.0580 C   0  0  0  0  0  0  0  0  0  0  0  0
   72.2730   39.9270   61.2150 C   0  0  0  0  0  0  0  0  0  0  0  0
   72.3300   41.2550   61.0770 C   0  0  0  0  0  0  0  0  0  0  0  0
   70.5070   37.9140   61.3520 N   0  0  0  0  0  0  0  0  0  0  0  0
   70.0640   37.0280   60.3220 C   0  0  0  0  0  0  0  0  0  0  0  0
   77.7370   49.5450   70.2650 C   0  0  0  0  0  0  0  0  0  0  0  0
   77.9050   48.1580   69.8670 C   0  0  0  0  0  0  0  0  0  0  0  0
   78.3340   47.1480   70.7270 C   0  0  1  0  0  0  0  0  0  0  0  0
   79.5630   47.3940   71.1380 F   0  0  0  0  0  0  0  0  0  0  0  0
   77.5040   47.0700   71.7710 F   0  0  0  0  0  0  0  0  0  0  0  0
   78.3720   45.9370   70.1830 F   0  0  0  0  0  0  0  0  0  0  0  0
   78.0460   50.1400   71.9170 Cl  0  0  0  0  0  0  0  0  0  0  0  0
   76.9190   48.4000   66.3580 N   0  0  0  0  0  0  0  0  0  0  0  0
   76.0650   47.3550   64.1450 N   0  0  0  0  0  0  0  0  0  0  0  0
   76.2500   46.2990   66.0550 O   0  0  0  0  0  0  0  0  0  0  0  0
   73.4160   41.9760   61.3840 C   0  0  0  0  0  0  0  0  0  0  0  0
   73.3930   39.2430   61.7070 N   0  0  0  0  0  0  0  0  0  0  0  0
   70.9260   39.2220   60.8210 C   0  0  1  0  0  0  0  0  0  0  0  0
   69.9160   39.9770   60.5670 O   0  0  0  0  0  0  0  0  0  0  0  0
   97.4390   32.6310   64.4430 C   0  0  0  0  0  0  0  0  0  0  0  0
   98.5430   32.6540   65.2530 C   0  0  0  0  0  0  0  0  0  0  0  0
   99.8240   32.8580   64.7400 C   0  0  0  0  0  0  0  0  0  0  0  0
   99.9800   33.0320   63.3840 C   0  0  0  0  0  0  0  0  0  0  0  0
   97.6190   31.4940   67.6390 C   0  0  1  0  0  0  0  0  0  0  0  0
   96.9410   30.6670   70.0600 C   0  0  0  0  0  0  0  0  0  0  0  0
   96.7630   31.0330   71.4700 C   0  0  0  0  0  0  0  0  0  0  0  0
   96.1330   30.1310   72.3250 C   0  0  0  0  0  0  0  0  0  0  0  0
   95.6740   28.9120   71.8440 C   0  0  0  0  0  0  0  0  0  0  0  0
   95.8410   28.5680   70.5010 C   0  0  0  0  0  0  0  0  0  0  0  0
   96.4710   29.4310   69.6120 C   0  0  0  0  0  0  0  0  0  0  0  0
   95.0620   28.0390   72.7080 O   0  0  0  0  0  0  0  0  0  0  0  0
   92.6430   28.7190   72.0820 C   0  0  0  0  0  0  0  0  0  0  0  0
   91.3230   28.2700   72.0590 C   0  0  0  0  0  0  0  0  0  0  0  0
   92.0960   26.0980   73.0070 C   0  0  0  0  0  0  0  0  0  0  0  0
   93.3500   26.5660   73.0110 C   0  0  0  0  0  0  0  0  0  0  0  0
   90.8040   23.7300   73.1400 N   0  0  0  0  0  0  0  0  0  0  0  0
   89.8590   23.5480   74.2000 C   0  0  0  0  0  0  0  0  0  0  0  0
   98.8590   33.0100   62.5450 C   0  0  0  0  0  0  0  0  0  0  0  0
   97.5340   32.7970   63.0920 C   0  0  0  0  0  0  0  0  0  0  0  0
   96.3730   32.7550   62.3340 C   0  0  1  0  0  0  0  0  0  0  0  0
   96.1820   33.9020   61.6910 F   0  0  0  0  0  0  0  0  0  0  0  0
   96.4840   31.7570   61.4570 F   0  0  0  0  0  0  0  0  0  0  0  0
   95.2670   32.5160   63.0470 F   0  0  0  0  0  0  0  0  0  0  0  0
   99.1700   33.2420   60.7940 Cl  0  0  0  0  0  0  0  0  0  0  0  0
   98.2940   32.4470   66.6210 N   0  0  0  0  0  0  0  0  0  0  0  0
   97.6960   31.6230   69.0510 N   0  0  0  0  0  0  0  0  0  0  0  0
   96.6860   30.9070   67.1450 O   0  0  0  0  0  0  0  0  0  0  0  0
   93.6740   27.7950   72.5920 C   0  0  0  0  0  0  0  0  0  0  0  0
   91.0430   26.9170   72.5320 N   0  0  0  0  0  0  0  0  0  0  0  0
   91.9130   24.6340   73.5250 C   0  0  1  0  0  0  0  0  0  0  0  0
   92.9960   23.9820   73.7350 O   0  0  0  0  0  0  0  0  0  0  0  0
   76.8395   47.0832   68.5819 H   0  0  0  0  0  0  0  0  0  0  0  0
   78.6127   47.5805   68.1609 H   0  0  0  0  0  0  0  0  0  0  0  0
   76.1547   48.6177   67.9550 H   0  0  0  0  0  0  0  0  0  0  0  0
   77.7017   50.7543   67.4242 H   0  0  0  0  0  0  0  0  0  0  0  0
   75.9597   50.3266   67.9640 H   0  0  0  0  0  0  0  0  0  0  0  0
   78.0876   51.2801   69.3189 H   0  0  0  0  0  0  0  0  0  0  0  0
   76.3217   50.8008   69.7461 H   0  0  0  0  0  0  0  0  0  0  0  0
   75.1603   47.7933   65.5478 H   0  0  0  0  0  0  0  0  0  0  0  0
   74.6292   46.9793   62.9620 H   0  0  0  0  0  0  0  0  0  0  0  0
   75.6506   46.7936   61.3894 H   0  0  0  0  0  0  0  0  0  0  0  0
   76.7007   45.4177   62.0924 H   0  0  0  0  0  0  0  0  0  0  0  0
   74.5836   45.3923   60.3900 H   0  0  0  0  0  0  0  0  0  0  0  0
   75.7036   44.0890   61.1782 H   0  0  0  0  0  0  0  0  0  0  0  0
   74.5716   43.4760   62.2640 H   0  0  0  0  0  0  0  0  0  0  0  0
   72.4678   44.8948   63.1643 H   0  0  0  0  0  0  0  0  0  0  0  0
   73.7449   43.6389   63.7517 H   0  0  0  0  0  0  0  0  0  0  0  0
   74.5904   45.0496   64.8513 H   0  0  0  0  0  0  0  0  0  0  0  0
   73.4703   46.3410   64.0842 H   0  0  0  0  0  0  0  0  0  0  0  0
   74.8344   41.7743   62.8839 H   0  0  0  0  0  0  0  0  0  0  0  0
   75.3837   41.5115   61.1257 H   0  0  0  0  0  0  0  0  0  0  0  0
   75.4135   39.5479   61.4408 H   0  0  0  0  0  0  0  0  0  0  0  0
   74.6965   39.8114   63.1439 H   0  0  0  0  0  0  0  0  0  0  0  0
   72.6489   39.8042   60.1885 H   0  0  0  0  0  0  0  0  0  0  0  0
   72.1218   41.4582   60.0162 H   0  0  0  0  0  0  0  0  0  0  0  0
   71.6213   41.5862   61.8504 H   0  0  0  0  0  0  0  0  0  0  0  0
   69.7356   38.0588   62.0189 H   0  0  0  0  0  0  0  0  0  0  0  0
   69.6160   36.1321   60.7766 H   0  0  0  0  0  0  0  0  0  0  0  0
   69.3142   37.5366   59.6983 H   0  0  0  0  0  0  0  0  0  0  0  0
   70.9208   36.7333   59.6983 H   0  0  0  0  0  0  0  0  0  0  0  0
   76.6924   49.3391   70.5415 H   0  0  0  0  0  0  0  0  0  0  0  0
   78.9510   48.3628   69.5949 H   0  0  0  0  0  0  0  0  0  0  0  0
   76.5217   49.2661   65.9669 H   0  0  0  0  0  0  0  0  0  0  0  0
   75.5945   48.2359   63.8928 H   0  0  0  0  0  0  0  0  0  0  0  0
   76.2408   46.4190   67.0377 H   0  0  0  0  0  0  0  0  0  0  0  0
   73.7892   41.8531   60.3566 H   0  0  0  0  0  0  0  0  0  0  0  0
   73.6573   38.5553   60.9872 H   0  0  0  0  0  0  0  0  0  0  0  0
   71.4040   38.8894   59.8878 H   0  0  0  0  0  0  0  0  0  0  0  0
   69.5093   40.2810   61.4168 H   0  0  0  0  0  0  0  0  0  0  0  0
   96.9605   31.6532   64.6010 H   0  0  0  0  0  0  0  0  0  0  0  0
   96.9044   33.5412   64.7523 H   0  0  0  0  0  0  0  0  0  0  0  0
   98.6628   31.5686   65.1205 H   0  0  0  0  0  0  0  0  0  0  0  0
  100.2275   33.7570   65.2288 H   0  0  0  0  0  0  0  0  0  0  0  0
  100.3443   31.9110   64.9458 H   0  0  0  0  0  0  0  0  0  0  0  0
  100.4646   34.0093   63.2422 H   0  0  0  0  0  0  0  0  0  0  0  0
  100.5457   32.1402   63.0764 H   0  0  0  0  0  0  0  0  0  0  0  0
   98.4699   30.8312   67.8549 H   0  0  0  0  0  0  0  0  0  0  0  0
   97.9122   30.2103   70.3012 H   0  0  0  0  0  0  0  0  0  0  0  0
   97.7645   31.2238   71.8830 H   0  0  0  0  0  0  0  0  0  0  0  0
   96.0754   31.8910   71.4364 H   0  0  0  0  0  0  0  0  0  0  0  0
   96.8494   29.9041   73.1283 H   0  0  0  0  0  0  0  0  0  0  0  0
   95.2059   30.6550   72.6006 H   0  0  0  0  0  0  0  0  0  0  0  0
   94.7034   29.3715   71.6056 H   0  0  0  0  0  0  0  0  0  0  0  0
   96.4171   27.6310   70.4879 H   0  0  0  0  0  0  0  0  0  0  0  0
   94.8068   28.5494   70.1267 H   0  0  0  0  0  0  0  0  0  0  0  0
   95.7526   29.6370   68.8049 H   0  0  0  0  0  0  0  0  0  0  0  0
   97.3905   28.8915   69.3412 H   0  0  0  0  0  0  0  0  0  0  0  0
   92.9187   28.9811   71.0499 H   0  0  0  0  0  0  0  0  0  0  0  0
   92.6397   29.5538   72.7983 H   0  0  0  0  0  0  0  0  0  0  0  0
   90.7334   28.9605   72.6800 H   0  0  0  0  0  0  0  0  0  0  0  0
   91.0645   28.2425   70.9902 H   0  0  0  0  0  0  0  0  0  0  0  0
   91.9453   26.4932   74.0224 H   0  0  0  0  0  0  0  0  0  0  0  0
   93.6932   26.5020   74.0541 H   0  0  0  0  0  0  0  0  0  0  0  0
   93.8188   25.9408   72.2368 H   0  0  0  0  0  0  0  0  0  0  0  0
   91.1974   22.8127   72.8857 H   0  0  0  0  0  0  0  0  0  0  0  0
   90.3710   23.6466   75.1686 H   0  0  0  0  0  0  0  0  0  0  0  0
   89.0701   24.3107   74.1229 H   0  0  0  0  0  0  0  0  0  0  0  0
   89.4098   22.5468   74.1229 H   0  0  0  0  0  0  0  0  0  0  0  0
   98.9790   31.9246   62.4131 H   0  0  0  0  0  0  0  0  0  0  0  0
   97.4109   33.8829   63.2168 H   0  0  0  0  0  0  0  0  0  0  0  0
   99.2566   32.4568   66.9874 H   0  0  0  0  0  0  0  0  0  0  0  0
   98.6959   31.5463   69.2860 H   0  0  0  0  0  0  0  0  0  0  0  0
   96.1080   30.5434   67.8618 H   0  0  0  0  0  0  0  0  0  0  0  0
   93.5204   28.1850   73.6090 H   0  0  0  0  0  0  0  0  0  0  0  0
   90.3657   27.0063   73.3028 H   0  0  0  0  0  0  0  0  0  0  0  0
   91.4534   25.0269   74.4439 H   0  0  0  0  0  0  0  0  0  0  0  0
   93.1438   23.8930   74.7098 H   0  0  0  0  0  0  0  0  0  0  0  0
  1  2  1  0
  2  3  1  0
  3  4  1  0
  6  7  1  0
  7  8  1  0
  8  9  1  0
  9 10  1  0
  6 11  1  0
 10 11  1  0
  9 12  1  0
 13 14  1  0
 15 16  1  0
 17 18  1  0
  4 19  1  0
  1 20  1  0
 19 20  1  0
 20 21  1  0
 21 22  1  1
 21 23  1  0
 21 24  1  0
 19 25  1  0
  2 26  1  0
  5 26  1  0
  5 27  1  0
  6 27  1  0
  5 28  1  0
 12 29  1  0
 13 29  1  0
 16 29  1  0
 14 30  1  0
 15 30  1  0
 15 31  1  0
 17 31  1  0
 31 32  1  0
 33 34  1  0
 34 35  1  0
 35 36  1  0
 38 39  1  0
 39 40  1  0
 40 41  1  0
 41 42  1  0
 38 43  1  0
 42 43  1  0
 41 44  1  0
 45 46  1  0
 47 48  1  0
 49 50  1  0
 36 51  1  0
 33 52  1  0
 51 52  1  0
 52 53  1  0
 53 54  1  6
 53 55  1  0
 53 56  1  0
 51 57  1  0
 34 58  1  0
 37 58  1  0
 37 59  1  0
 38 59  1  0
 37 60  1  0
 44 61  1  0
 45 61  1  0
 48 61  1  0
 46 62  1  0
 47 62  1  0
 47 63  1  0
 49 63  1  0
 63 64  1  0
  1 65  1  0
  1 66  1  0
  2 67  1  0
  3 68  1  0
  3 69  1  0
  4 70  1  0
  4 71  1  0
  5 72  1  1
  6 73  1  1
  7 74  1  0
  7 75  1  0
  8 76  1  0
  8 77  1  0
  9 78  1  0
 10 79  1  0
 10 80  1  0
 11 81  1  0
 11 82  1  0
 13 83  1  0
 13 84  1  0
 14 85  1  0
 14 86  1  0
 15 87  1  0
 16 88  1  0
 16 89  1  0
 17 90  1  0
 18 91  1  0
 18 92  1  0
 18 93  1  0
 19 94  1  0
 20 95  1  0
 26 96  1  0
 27 97  1  0
 28 98  1  0
 29 99  1  0
 30100  1  0
 31101  1  6
 32102  1  0
 33103  1  0
 33104  1  0
 34105  1  0
 35106  1  0
 35107  1  0
 36108  1  0
 36109  1  0
 37110  1  1
 38111  1  0
 39112  1  0
 39113  1  0
 40114  1  0
 40115  1  0
 41116  1  0
 42117  1  0
 42118  1  0
 43119  1  0
 43120  1  0
 45121  1  0
 45122  1  0
 46123  1  0
 46124  1  0
 47125  1  0
 48126  1  0
 48127  1  0
 49128  1  0
 50129  1  0
 50130  1  0
 50131  1  0
 51132  1  0
 52133  1  0
 58134  1  0
 59135  1  0
 60136  1  0
 61137  1  0
 62138  1  0
 63139  1  1
 64140  1  0
M  END
>  <PDBID>  (1) 
1UWH

>  <PDB ID>  (1) 
1UWH

>  <Generic Name>  (1) 
Sorafenib

>  <Brand Name>  (1) 
Nexavar

>  <DrugBank ID>  (1) 
DB00398

>  <ATC Codes>  (1) 
L01XE05

>  <Ligand ID>  (1) 
BAX

>  <Target Name>  (1) 
Vascular endothelial growth factor receptor 3

>  <UniProt ID>  (1) 
P35916

>  <PDB ID.1>  (1) 
1UWH

>  <Seq. Identity>  (1) 
32%

$$$$
