PDB_DB00939_99
     RDKit          3D

 88 90  0  0  0  0  0  0  0  0999 V2000
   24.4690   51.2050   19.4480 O   0  0  0  0  0  0  0  0  0  0  0  0
   24.6620   50.2090   18.7060 C   0  0  0  0  0  0  0  0  0  0  0  0
   25.7640   49.6090   18.7460 O   0  0  0  0  0  0  0  0  0  0  0  0
   23.5580   49.7270   17.7890 C   0  0  0  0  0  0  0  0  0  0  0  0
   23.5870   48.4180   17.3250 C   0  0  0  0  0  0  0  0  0  0  0  0
   22.5810   47.9590   16.4950 C   0  0  0  0  0  0  0  0  0  0  0  0
   21.5460   48.8070   16.1330 C   0  0  0  0  0  0  0  0  0  0  0  0
   21.5110   50.1100   16.6080 C   0  0  0  0  0  0  0  0  0  0  0  0
   22.5200   50.5840   17.4320 C   0  0  0  0  0  0  0  0  0  0  0  0
   22.5320   51.9220   17.9300 N   0  0  0  0  0  0  0  0  0  0  0  0
   21.5270   52.8970   17.6430 C   0  0  0  0  0  0  0  0  0  0  0  0
   20.9090   53.4980   18.7310 C   0  0  0  0  0  0  0  0  0  0  0  0
   21.3570   53.0340   20.3470 Cl  0  0  0  0  0  0  0  0  0  0  0  0
   19.9340   54.4630   18.5550 C   0  0  0  0  0  0  0  0  0  0  0  0
   19.2710   55.0890   19.7640 C   0  0  0  0  0  0  0  0  0  0  0  0
   19.5690   54.8470   17.2770 C   0  0  0  0  0  0  0  0  0  0  0  0
   20.1840   54.2640   16.1820 C   0  0  0  0  0  0  0  0  0  0  0  0
   21.1640   53.2990   16.3540 C   0  0  0  0  0  0  0  0  0  0  0  0
   21.8940   52.6170   14.9230 Cl  0  0  0  0  0  0  0  0  0  0  0  0
   24.3160   47.8240   17.5840 H   0  0  0  0  0  0  0  0  0  0  0  0
   22.5980   47.0400   16.1670 H   0  0  0  0  0  0  0  0  0  0  0  0
   20.8350   48.4840   15.5480 H   0  0  0  0  0  0  0  0  0  0  0  0
   20.7840   50.7040   16.3400 H   0  0  0  0  0  0  0  0  0  0  0  0
   23.0550   52.0810   18.6600 H   0  0  0  0  0  0  0  0  0  0  0  0
   18.7450   54.4130   20.2390 H   0  0  0  0  0  0  0  0  0  0  0  0
   18.6910   55.8250   19.4760 H   0  0  0  0  0  0  0  0  0  0  0  0
   19.9620   55.4400   20.3640 H   0  0  0  0  0  0  0  0  0  0  0  0
   18.8800   55.5260   17.1480 H   0  0  0  0  0  0  0  0  0  0  0  0
   19.9260   54.5370   15.2810 H   0  0  0  0  0  0  0  0  0  0  0  0
   17.8950   39.8930   59.9840 O   0  0  0  0  0  0  0  0  0  0  0  0
   17.3070   40.9640   60.0030 C   0  0  0  0  0  0  0  0  0  0  0  0
   16.3650   41.0770   59.2490 O   0  0  0  0  0  0  0  0  0  0  0  0
   17.7490   42.0920   60.8880 C   0  0  0  0  0  0  0  0  0  0  0  0
   19.0240   42.0740   61.3510 C   0  0  0  0  0  0  0  0  0  0  0  0
   19.5050   43.0520   62.1430 C   0  0  0  0  0  0  0  0  0  0  0  0
   18.7040   44.0750   62.4980 C   0  0  0  0  0  0  0  0  0  0  0  0
   17.4280   44.1130   62.0480 C   0  0  0  0  0  0  0  0  0  0  0  0
   16.9350   43.1350   61.2490 C   0  0  0  0  0  0  0  0  0  0  0  0
   15.6110   43.2180   60.8290 N   0  0  0  0  0  0  0  0  0  0  0  0
   14.7560   44.2670   61.1940 C   0  0  0  0  0  0  0  0  0  0  0  0
   14.1390   44.9730   60.1950 C   0  0  0  0  0  0  0  0  0  0  0  0
   14.3730   44.6440   58.5400 Cl  0  0  0  0  0  0  0  0  0  0  0  0
   13.2920   45.9920   60.5010 C   0  0  0  0  0  0  0  0  0  0  0  0
   12.6180   46.7650   59.4450 C   0  0  0  0  0  0  0  0  0  0  0  0
   13.0280   46.3320   61.7710 C   0  0  0  0  0  0  0  0  0  0  0  0
   13.6200   45.6490   62.7630 C   0  0  0  0  0  0  0  0  0  0  0  0
   14.4590   44.6240   62.4970 C   0  0  0  0  0  0  0  0  0  0  0  0
   15.0960   43.8700   63.9110 Cl  0  0  0  0  0  0  0  0  0  0  0  0
   19.6100   41.3470   61.1000 H   0  0  0  0  0  0  0  0  0  0  0  0
   20.4220   43.0190   62.4590 H   0  0  0  0  0  0  0  0  0  0  0  0
   19.0390   44.7810   63.0680 H   0  0  0  0  0  0  0  0  0  0  0  0
   16.8730   44.8550   62.3150 H   0  0  0  0  0  0  0  0  0  0  0  0
   15.3150   42.6040   60.2320 H   0  0  0  0  0  0  0  0  0  0  0  0
   13.2010   46.8230   58.6680 H   0  0  0  0  0  0  0  0  0  0  0  0
   11.7890   46.3150   59.2000 H   0  0  0  0  0  0  0  0  0  0  0  0
   12.4200   47.6560   59.7820 H   0  0  0  0  0  0  0  0  0  0  0  0
   12.4220   47.0620   61.9690 H   0  0  0  0  0  0  0  0  0  0  0  0
   13.4310   45.8820   63.6840 H   0  0  0  0  0  0  0  0  0  0  0  0
   24.5232   50.9255   20.3962 H   0  0  0  0  0  0  0  0  0  0  0  0
   25.0511   50.8711   17.9184 H   0  0  0  0  0  0  0  0  0  0  0  0
   26.0276   49.4655   19.6894 H   0  0  0  0  0  0  0  0  0  0  0  0
   24.1430   50.0497   16.9151 H   0  0  0  0  0  0  0  0  0  0  0  0
   23.0100   48.0938   18.2036 H   0  0  0  0  0  0  0  0  0  0  0  0
   22.0056   47.6317   17.3735 H   0  0  0  0  0  0  0  0  0  0  0  0
   20.9668   48.4730   17.0065 H   0  0  0  0  0  0  0  0  0  0  0  0
   20.9482   49.7730   17.4910 H   0  0  0  0  0  0  0  0  0  0  0  0
   23.0902   50.9065   16.5483 H   0  0  0  0  0  0  0  0  0  0  0  0
   20.7609   52.1076   17.6439 H   0  0  0  0  0  0  0  0  0  0  0  0
   20.1339   52.7176   18.7218 H   0  0  0  0  0  0  0  0  0  0  0  0
   19.1619   53.6797   18.5372 H   0  0  0  0  0  0  0  0  0  0  0  0
   20.3401   55.6314   17.2925 H   0  0  0  0  0  0  0  0  0  0  0  0
   20.9544   55.0490   16.1967 H   0  0  0  0  0  0  0  0  0  0  0  0
   20.3950   52.5130   16.3254 H   0  0  0  0  0  0  0  0  0  0  0  0
   18.0608   39.5910   60.9121 H   0  0  0  0  0  0  0  0  0  0  0  0
   17.9790   41.3468   59.2208 H   0  0  0  0  0  0  0  0  0  0  0  0
   15.5319   41.1769   59.7744 H   0  0  0  0  0  0  0  0  0  0  0  0
   17.4198   41.5270   61.7725 H   0  0  0  0  0  0  0  0  0  0  0  0
   19.3547   42.6312   60.4621 H   0  0  0  0  0  0  0  0  0  0  0  0
   19.8278   43.6133   61.2538 H   0  0  0  0  0  0  0  0  0  0  0  0
   19.0329   44.6396   61.6131 H   0  0  0  0  0  0  0  0  0  0  0  0
   17.7578   44.6722   61.1600 H   0  0  0  0  0  0  0  0  0  0  0  0
   16.6094   42.5735   62.1371 H   0  0  0  0  0  0  0  0  0  0  0  0
   15.6035   44.9676   61.1657 H   0  0  0  0  0  0  0  0  0  0  0  0
   14.9819   45.6795   60.1737 H   0  0  0  0  0  0  0  0  0  0  0  0
   14.1347   46.6987   60.4804 H   0  0  0  0  0  0  0  0  0  0  0  0
   12.1864   45.6238   61.7856 H   0  0  0  0  0  0  0  0  0  0  0  0
   12.7720   44.9487   62.7869 H   0  0  0  0  0  0  0  0  0  0  0  0
   15.3106   45.3202   62.5004 H   0  0  0  0  0  0  0  0  0  0  0  0
  1  2  1  0
  2  3  1  0
  2  4  1  0
  4  5  1  0
  5  6  1  0
  6  7  1  0
  7  8  1  0
  4  9  1  0
  8  9  1  0
  9 10  1  0
 10 11  1  0
 11 12  1  0
 12 13  1  0
 12 14  1  0
 14 15  1  0
 14 16  1  0
 16 17  1  0
 11 18  1  0
 17 18  1  0
 18 19  1  0
  5 20  1  0
  6 21  1  0
  7 22  1  0
  8 23  1  0
 10 24  1  0
 15 25  1  0
 15 26  1  0
 15 27  1  0
 16 28  1  0
 17 29  1  0
 30 31  1  0
 31 32  1  0
 31 33  1  0
 33 34  1  0
 34 35  1  0
 35 36  1  0
 36 37  1  0
 33 38  1  0
 37 38  1  0
 38 39  1  0
 39 40  1  0
 40 41  1  0
 41 42  1  0
 41 43  1  0
 43 44  1  0
 43 45  1  0
 45 46  1  0
 40 47  1  0
 46 47  1  0
 47 48  1  0
 34 49  1  0
 35 50  1  0
 36 51  1  0
 37 52  1  0
 39 53  1  0
 44 54  1  0
 44 55  1  0
 44 56  1  0
 45 57  1  0
 46 58  1  0
  1 59  1  0
  2 60  1  0
  3 61  1  0
  4 62  1  0
  5 63  1  0
  6 64  1  0
  7 65  1  0
  8 66  1  0
  9 67  1  0
 11 68  1  0
 12 69  1  0
 14 70  1  0
 16 71  1  0
 17 72  1  0
 18 73  1  0
 30 74  1  0
 31 75  1  0
 32 76  1  0
 33 77  1  0
 34 78  1  0
 35 79  1  0
 36 80  1  0
 37 81  1  0
 38 82  1  0
 40 83  1  0
 41 84  1  0
 43 85  1  0
 45 86  1  0
 46 87  1  0
 47 88  1  0
M  END
>  <PDBID>  (1) 
5IKQ

>  <PDB ID>  (1) 
5IKQ

>  <Generic Name>  (1) 
Meclofenamic acid

>  <Brand Name>  (1) 
Meclofenamate Sodium#Ethos#Eucome#Meclomen

>  <DrugBank ID>  (1) 
DB00939

>  <ATC Codes>  (1) 
M01AG04#M02AA18

>  <Ligand ID>  (1) 
JMS

>  <Target Name>  (1) 
Prostaglandin G/H synthase 1

>  <UniProt ID>  (1) 
P23219

>  <PDB ID.1>  (1) 
5IKQ

>  <Seq. Identity>  (1) 
61%

$$$$
