PDB_DB00685_99
     RDKit          3D

124132  0  0  0  0  0  0  0  0999 V2000
  108.1830    6.2370   42.5050 C   0  0  0  0  0  0  0  0  0  0  0  0
  108.6980    5.3810   43.4660 C   0  0  0  0  0  0  0  0  0  0  0  0
  109.9180    4.7620   43.2630 C   0  0  0  0  0  0  0  0  0  0  0  0
  110.3990    3.9560   44.1650 F   0  0  0  0  0  0  0  0  0  0  0  0
  110.6280    5.0040   42.0950 C   0  0  0  0  0  0  0  0  0  0  0  0
  110.1120    5.8620   41.1380 C   0  0  0  0  0  0  0  0  0  0  0  0
  110.8030    6.0980   39.9980 F   0  0  0  0  0  0  0  0  0  0  0  0
  108.8840    6.4870   41.3410 C   0  0  0  0  0  0  0  0  0  0  0  0
  108.3760    7.3280   40.4030 N   0  0  0  0  0  0  0  0  0  0  0  0
  108.1830    8.6050   40.7800 C   0  0  0  0  0  0  0  0  0  0  0  0
  108.4870    9.0090   42.0270 N   0  0  0  0  0  0  0  0  0  0  0  0
  108.3060   10.2690   42.4690 C   0  0  0  0  0  0  0  0  0  0  0  0
  108.7160   10.5170   43.8520 N   0  0  0  0  0  0  0  0  0  0  0  0
  109.4340    9.5120   44.5880 C   0  0  0  0  0  0  0  0  0  0  0  0
  109.2720    9.9480   46.0100 C   0  0  1  0  0  0  0  0  0  0  0  0
  110.0900   11.1140   46.4490 C   0  0  2  0  0  0  0  0  0  0  0  0
  110.3820   11.2570   47.9050 N   0  0  0  0  0  0  0  0  0  0  0  0
  108.6700   11.3200   46.0220 C   0  0  1  0  0  0  0  0  0  0  0  0
  108.3990   11.7130   44.6010 C   0  0  0  0  0  0  0  0  0  0  0  0
  107.7970   11.2170   41.5910 C   0  0  0  0  0  0  0  0  0  0  0  0
  107.4690   10.8330   40.2870 C   0  0  0  0  0  0  0  0  0  0  0  0
  107.6640    9.5190   39.8770 C   0  0  0  0  0  0  0  0  0  0  0  0
  107.3450    9.1100   38.5870 C   0  0  0  0  0  0  0  0  0  0  0  0
  107.5610    7.7750   38.2220 C   0  0  0  0  0  0  0  0  0  0  0  0
  108.0800    6.8980   39.1710 C   0  0  0  0  0  0  0  0  0  0  0  0
  107.2470    7.2250   36.8500 C   0  0  0  0  0  0  0  0  0  0  0  0
  107.4720    6.0190   36.5850 O   0  0  0  0  0  0  0  0  0  0  0  0
  106.7920    7.9710   35.9710 O   0  0  0  0  0  1  0  0  0  0  0  0
  106.8890    9.9530   37.8290 O   0  0  0  0  0  0  0  0  0  0  0  0
  107.5970   12.4850   41.9480 F   0  0  0  0  0  0  0  0  0  0  0  0
  107.3160    6.6760   42.6540 H   0  0  0  0  0  0  0  0  0  0  0  0
  108.1940    5.2100   44.2920 H   0  0  0  0  0  0  0  0  0  0  0  0
  111.4730    4.5770   41.9520 H   0  0  0  0  0  0  0  0  0  0  0  0
  110.3970    9.5310   44.3430 H   0  0  0  0  0  0  0  0  0  0  0  0
  109.0630    8.6320   44.4460 H   0  0  0  0  0  0  0  0  0  0  0  0
  108.8600    9.3540   46.6950 H   0  0  0  0  0  0  0  0  0  0  0  0
  110.7580   11.3950   45.8160 H   0  0  0  0  0  0  0  0  0  0  0  0
  111.2690   11.0620   48.0620 H   0  0  0  0  0  0  0  0  0  0  0  0
  109.8510   10.6750   48.3840 H   0  0  0  0  0  0  0  0  0  0  0  0
  108.0250   11.5310   46.7520 H   0  0  0  0  0  0  0  0  0  0  0  0
  109.0090   12.4400   44.3520 H   0  0  0  0  0  0  0  0  0  0  0  0
  107.4500   11.9860   44.4670 H   0  0  0  0  0  0  0  0  0  0  0  0
  107.1010   11.4980   39.6600 H   0  0  0  0  0  0  0  0  0  0  0  0
  108.2370    5.9570   38.9310 H   0  0  0  0  0  0  0  0  0  0  0  0
   91.7900   10.2680   39.8600 C   0  0  0  0  0  0  0  0  0  0  0  0
   91.1760   11.3990   39.3430 C   0  0  0  0  0  0  0  0  0  0  0  0
   89.9090   11.3120   38.7940 C   0  0  0  0  0  0  0  0  0  0  0  0
   89.3390   12.3770   38.3060 F   0  0  0  0  0  0  0  0  0  0  0  0
   89.2500   10.0900   38.7670 C   0  0  0  0  0  0  0  0  0  0  0  0
   89.8650    8.9640   39.2880 C   0  0  0  0  0  0  0  0  0  0  0  0
   89.2260    7.7710   39.2600 F   0  0  0  0  0  0  0  0  0  0  0  0
   91.1410    9.0480   39.8380 C   0  0  0  0  0  0  0  0  0  0  0  0
   91.7340    7.9380   40.3500 N   0  0  0  0  0  0  0  0  0  0  0  0
   92.0050    7.9730   41.6660 C   0  0  0  0  0  0  0  0  0  0  0  0
   91.6990    9.0560   42.4020 N   0  0  0  0  0  0  0  0  0  0  0  0
   91.9540    9.1730   43.7190 C   0  0  0  0  0  0  0  0  0  0  0  0
   91.5250   10.4470   44.3060 N   0  0  0  0  0  0  0  0  0  0  0  0
   91.2570   11.5510   43.4180 C   0  0  0  0  0  0  0  0  0  0  0  0
   91.6810   12.7590   44.1900 C   0  0  1  0  0  0  0  0  0  0  0  0
   90.7990   13.1850   45.3110 C   0  0  2  0  0  0  0  0  0  0  0  0
   90.8730   14.6050   45.7600 N   0  0  0  0  0  0  0  0  0  0  0  0
   91.9980   12.3370   45.5910 C   0  0  1  0  0  0  0  0  0  0  0  0
   91.8340   10.8490   45.6660 C   0  0  0  0  0  0  0  0  0  0  0  0
   92.5510    8.1000   44.3710 C   0  0  0  0  0  0  0  0  0  0  0  0
   92.8800    6.9540   43.6380 C   0  0  0  0  0  0  0  0  0  0  0  0
   92.6070    6.8880   42.2760 C   0  0  0  0  0  0  0  0  0  0  0  0
   92.9250    5.7630   41.5220 C   0  0  0  0  0  0  0  0  0  0  0  0
   92.6220    5.7530   40.1530 C   0  0  0  0  0  0  0  0  0  0  0  0
   92.0210    6.8770   39.5900 C   0  0  0  0  0  0  0  0  0  0  0  0
   92.9270    4.5880   39.2390 C   0  0  0  0  0  0  0  0  0  0  0  0
   93.4520    3.5610   39.6920 O   0  0  0  0  0  1  0  0  0  0  0  0
   92.6230    4.6450   38.0210 O   0  0  0  0  0  0  0  0  0  0  0  0
   93.4560    4.8270   42.1030 O   0  0  0  0  0  0  0  0  0  0  0  0
   92.8340    8.1070   45.6710 F   0  0  0  0  0  0  0  0  0  0  0  0
   92.6890   10.3330   40.2510 H   0  0  0  0  0  0  0  0  0  0  0  0
   91.6430   12.2630   39.3620 H   0  0  0  0  0  0  0  0  0  0  0  0
   88.3740   10.0270   38.3880 H   0  0  0  0  0  0  0  0  0  0  0  0
   90.2830   11.6050   43.2280 H   0  0  0  0  0  0  0  0  0  0  0  0
   91.7580   11.4730   42.5960 H   0  0  0  0  0  0  0  0  0  0  0  0
   92.3570   13.3970   43.8320 H   0  0  0  0  0  0  0  0  0  0  0  0
   89.9510   12.7320   45.3490 H   0  0  0  0  0  0  0  0  0  0  0  0
   90.1120   14.8180   46.2340 H   0  0  0  0  0  0  0  0  0  0  0  0
   90.9410   15.1570   45.0250 H   0  0  0  0  0  0  0  0  0  0  0  0
   92.7550   12.7980   46.0470 H   0  0  0  0  0  0  0  0  0  0  0  0
   91.0770   10.6450   46.2560 H   0  0  0  0  0  0  0  0  0  0  0  0
   92.6640   10.4050   45.9940 H   0  0  0  0  0  0  0  0  0  0  0  0
   93.3080    6.1920   44.0930 H   0  0  0  0  0  0  0  0  0  0  0  0
   91.8030    6.8870   38.6310 H   0  0  0  0  0  0  0  0  0  0  0  0
  108.6870    7.0856   42.9908 H   0  0  0  0  0  0  0  0  0  0  0  0
  108.1879    4.5336   42.9845 H   0  0  0  0  0  0  0  0  0  0  0  0
  110.4278    5.6080   43.7471 H   0  0  0  0  0  0  0  0  0  0  0  0
  110.1193    4.1576   41.6104 H   0  0  0  0  0  0  0  0  0  0  0  0
  110.6215    6.7083   41.6220 H   0  0  0  0  0  0  0  0  0  0  0  0
  109.3940    7.3305   41.8293 H   0  0  0  0  0  0  0  0  0  0  0  0
  107.1642    8.3536   41.1098 H   0  0  0  0  0  0  0  0  0  0  0  0
  107.9378    8.4084   42.6584 H   0  0  0  0  0  0  0  0  0  0  0  0
  107.2968   10.0023   42.8160 H   0  0  0  0  0  0  0  0  0  0  0  0
  108.8180   11.4609   41.2624 H   0  0  0  0  0  0  0  0  0  0  0  0
  108.4868   11.0873   39.9561 H   0  0  0  0  0  0  0  0  0  0  0  0
  106.6454    9.2653   40.2057 H   0  0  0  0  0  0  0  0  0  0  0  0
  108.3620    9.3654   38.2545 H   0  0  0  0  0  0  0  0  0  0  0  0
  108.5813    8.0286   37.8984 H   0  0  0  0  0  0  0  0  0  0  0  0
  107.0601    6.6524   39.5018 H   0  0  0  0  0  0  0  0  0  0  0  0
  108.2603    7.4882   36.5126 H   0  0  0  0  0  0  0  0  0  0  0  0
  107.5673    5.5082   37.4277 H   0  0  0  0  0  0  0  0  0  0  0  0
  106.4904   10.6899   38.3564 H   0  0  0  0  0  0  0  0  0  0  0  0
   91.3538   10.4823   40.8468 H   0  0  0  0  0  0  0  0  0  0  0  0
   91.6174   11.1882   38.3577 H   0  0  0  0  0  0  0  0  0  0  0  0
   89.4677   11.5269   39.7784 H   0  0  0  0  0  0  0  0  0  0  0  0
   89.6899    9.8745   37.7821 H   0  0  0  0  0  0  0  0  0  0  0  0
   89.4227    9.1778   40.2722 H   0  0  0  0  0  0  0  0  0  0  0  0
   90.7021    9.2637   40.8233 H   0  0  0  0  0  0  0  0  0  0  0  0
   92.9959    8.3993   41.4506 H   0  0  0  0  0  0  0  0  0  0  0  0
   92.1867    9.8444   41.9531 H   0  0  0  0  0  0  0  0  0  0  0  0
   92.9373    9.6097   43.4898 H   0  0  0  0  0  0  0  0  0  0  0  0
   91.5581    7.6778   44.5854 H   0  0  0  0  0  0  0  0  0  0  0  0
   91.8892    6.5294   43.8572 H   0  0  0  0  0  0  0  0  0  0  0  0
   93.5971    7.3142   42.0569 H   0  0  0  0  0  0  0  0  0  0  0  0
   91.9364    5.3348   41.7439 H   0  0  0  0  0  0  0  0  0  0  0  0
   91.6296    5.3339   40.3757 H   0  0  0  0  0  0  0  0  0  0  0  0
   93.0134    7.2997   39.3746 H   0  0  0  0  0  0  0  0  0  0  0  0
   93.9233    5.0079   39.0363 H   0  0  0  0  0  0  0  0  0  0  0  0
   91.6540    4.8267   37.9309 H   0  0  0  0  0  0  0  0  0  0  0  0
   93.3805    4.9601   43.0811 H   0  0  0  0  0  0  0  0  0  0  0  0
  1  2  1  0
  2  3  1  0
  3  4  1  0
  3  5  1  0
  5  6  1  0
  6  7  1  0
  1  8  1  0
  6  8  1  0
  8  9  1  0
  9 10  1  0
 10 11  1  0
 11 12  1  0
 12 13  1  0
 13 14  1  0
 14 15  1  0
 15 16  1  0
 16 17  1  0
 15 18  1  0
 16 18  1  0
 13 19  1  0
 18 19  1  0
 12 20  1  0
 20 21  1  0
 10 22  1  0
 21 22  1  0
 22 23  1  0
 23 24  1  0
  9 25  1  0
 24 25  1  0
 24 26  1  0
 26 27  1  0
 26 28  1  0
 23 29  1  0
 20 30  1  0
  1 31  1  0
  2 32  1  0
  5 33  1  0
 14 34  1  0
 14 35  1  0
 15 36  1  1
 16 37  1  6
 17 38  1  0
 17 39  1  0
 18 40  1  1
 19 41  1  0
 19 42  1  0
 21 43  1  0
 25 44  1  0
 45 46  1  0
 46 47  1  0
 47 48  1  0
 47 49  1  0
 49 50  1  0
 50 51  1  0
 45 52  1  0
 50 52  1  0
 52 53  1  0
 53 54  1  0
 54 55  1  0
 55 56  1  0
 56 57  1  0
 57 58  1  0
 58 59  1  0
 59 60  1  0
 60 61  1  0
 59 62  1  0
 60 62  1  0
 57 63  1  0
 62 63  1  0
 56 64  1  0
 64 65  1  0
 54 66  1  0
 65 66  1  0
 66 67  1  0
 67 68  1  0
 53 69  1  0
 68 69  1  0
 68 70  1  0
 70 71  1  0
 70 72  1  0
 67 73  1  0
 64 74  1  0
 45 75  1  0
 46 76  1  0
 49 77  1  0
 58 78  1  0
 58 79  1  0
 59 80  1  6
 60 81  1  6
 61 82  1  0
 61 83  1  0
 62 84  1  1
 63 85  1  0
 63 86  1  0
 65 87  1  0
 69 88  1  0
  1 89  1  0
  2 90  1  0
  3 91  1  0
  5 92  1  0
  6 93  1  0
  8 94  1  0
 10 95  1  0
 11 96  1  0
 12 97  1  0
 20 98  1  0
 21 99  1  0
 22100  1  0
 23101  1  0
 24102  1  0
 25103  1  0
 26104  1  0
 27105  1  0
 29106  1  0
 45107  1  0
 46108  1  0
 47109  1  0
 49110  1  0
 50111  1  0
 52112  1  0
 54113  1  0
 55114  1  0
 56115  1  0
 64116  1  0
 65117  1  0
 66118  1  0
 67119  1  0
 68120  1  0
 69121  1  0
 70122  1  0
 72123  1  0
 73124  1  0
M  CHG  2  28  -1  71  -1
M  END
>  <PDBID>  (1) 
4Z2E

>  <PDB ID>  (1) 
4Z2E

>  <Generic Name>  (1) 
Trovafloxacin

>  <Brand Name>  (1) 
Trovan I.V.#Trovan Tablets 100mg#Trovan Tablets 200mg#Trovan

>  <DrugBank ID>  (1) 
DB00685

>  <ATC Codes>  (1) 
J01MA13

>  <Ligand ID>  (1) 
TR6

>  <Target Name>  (1) 
DNA gyrase subunit A

>  <UniProt ID>  (1) 
P43700

>  <PDB ID.1>  (1) 
4Z2E

>  <Seq. Identity>  (1) 
50%

$$$$
