PDB_DB01044_96
     RDKit          3D

 49 52  0  0  0  0  0  0  0  0999 V2000
    2.6730    1.1920  145.9920 C   0  0  0  0  0  0  0  0  0  0  0  0
    1.7230    1.3400  144.7950 C   0  0  1  0  0  0  0  0  0  0  0  0
    0.3290    1.6200  145.3420 C   0  0  0  0  0  0  0  0  0  0  0  0
   -0.3550    2.5880  144.5420 N   0  0  0  0  0  0  0  0  0  0  0  0
    0.3050    3.8480  144.5280 C   0  0  0  0  0  0  0  0  0  0  0  0
    1.7870    3.7110  144.1870 C   0  0  0  0  0  0  0  0  0  0  0  0
    2.2440    2.3720  143.9440 N   0  0  0  0  0  0  0  0  0  0  0  0
   -1.8150    2.6810  144.7040 C   0  0  0  0  0  0  0  0  0  0  0  0
   -2.5650    2.7970  143.5370 C   0  0  0  0  0  0  0  0  0  0  0  0
   -3.9510    2.8920  143.5950 C   0  0  0  0  0  0  0  0  0  0  0  0
   -4.6200    2.8680  144.8380 C   0  0  0  0  0  0  0  0  0  0  0  0
   -3.9040    2.7540  146.0190 C   0  0  0  0  0  0  0  0  0  0  0  0
   -2.4740    2.6570  145.9450 C   0  0  0  0  0  0  0  0  0  0  0  0
   -1.6860    2.5470  147.1150 O   0  0  0  0  0  0  0  0  0  0  0  0
   -1.3850    3.8170  147.7020 C   0  0  0  0  0  0  0  0  0  0  0  0
   -4.6390    2.7390  147.2050 N   0  0  0  0  0  0  0  0  0  0  0  0
   -5.9860    2.8300  147.2090 C   0  0  0  0  0  0  0  0  0  0  0  0
   -6.7150    2.9490  146.0310 C   0  0  0  0  0  0  0  0  0  0  0  0
   -6.0330    2.9660  144.8210 C   0  0  0  0  0  0  0  0  0  0  0  0
   -6.6530    3.0650  143.7750 O   0  0  0  0  0  0  0  0  0  0  0  0
   -8.2280    3.0500  146.0660 C   0  0  0  0  0  0  0  0  0  0  0  0
   -8.8980    2.6660  145.0670 O   0  0  0  0  0  0  0  0  0  0  0  0
   -8.8000    3.5110  147.0940 O   0  0  0  0  0  0  0  0  0  0  0  0
   -4.0400    2.6070  148.5120 C   0  0  0  0  0  0  0  0  0  0  0  0
   -3.2740    1.5510  149.2990 C   0  0  0  0  0  0  0  0  0  0  0  0
   -4.7560    1.7240  149.5270 C   0  0  0  0  0  0  0  0  0  0  0  0
   -1.9390    2.8190  142.3510 F   0  0  0  0  0  0  0  0  0  0  0  0
    2.1010    1.2811  146.9273 H   0  0  0  0  0  0  0  0  0  0  0  0
    3.1611    0.2070  145.9531 H   0  0  0  0  0  0  0  0  0  0  0  0
    3.4376    1.9819  145.9531 H   0  0  0  0  0  0  0  0  0  0  0  0
    1.6479    0.4312  144.1798 H   0  0  0  0  0  0  0  0  0  0  0  0
   -0.2495    0.6844  145.3462 H   0  0  0  0  0  0  0  0  0  0  0  0
    0.4285    2.0187  146.3624 H   0  0  0  0  0  0  0  0  0  0  0  0
   -0.1747    4.4923  143.7765 H   0  0  0  0  0  0  0  0  0  0  0  0
    0.2258    4.2854  145.5342 H   0  0  0  0  0  0  0  0  0  0  0  0
    1.9830    4.3054  143.2824 H   0  0  0  0  0  0  0  0  0  0  0  0
    2.3347    4.0606  145.0746 H   0  0  0  0  0  0  0  0  0  0  0  0
    3.2690    2.3704  144.0458 H   0  0  0  0  0  0  0  0  0  0  0  0
   -4.5308    2.9866  142.6650 H   0  0  0  0  0  0  0  0  0  0  0  0
   -1.4060    3.7285  148.7982 H   0  0  0  0  0  0  0  0  0  0  0  0
   -0.3849    4.1422  147.3795 H   0  0  0  0  0  0  0  0  0  0  0  0
   -2.1328    4.5565  147.3795 H   0  0  0  0  0  0  0  0  0  0  0  0
   -6.5211    2.8095  148.1699 H   0  0  0  0  0  0  0  0  0  0  0  0
   -9.8860    2.7279  145.0802 H   0  0  0  0  0  0  0  0  0  0  0  0
   -3.7097    3.6285  148.2722 H   0  0  0  0  0  0  0  0  0  0  0  0
   -2.8982    0.6516  148.7893 H   0  0  0  0  0  0  0  0  0  0  0  0
   -2.3835    1.5587  149.9447 H   0  0  0  0  0  0  0  0  0  0  0  0
   -5.1197    2.1561  150.4709 H   0  0  0  0  0  0  0  0  0  0  0  0
   -5.6293    1.0559  149.4950 H   0  0  0  0  0  0  0  0  0  0  0  0
  1  2  1  0
  2  3  1  0
  3  4  1  0
  4  5  1  0
  5  6  1  0
  2  7  1  0
  6  7  1  0
  4  8  1  0
  8  9  2  0
  9 10  1  0
 10 11  2  0
 11 12  1  0
  8 13  1  0
 12 13  2  0
 13 14  1  0
 14 15  1  0
 12 16  1  0
 16 17  1  0
 17 18  2  0
 11 19  1  0
 18 19  1  0
 19 20  2  0
 18 21  1  0
 21 22  1  0
 21 23  2  0
 16 24  1  0
 24 25  1  0
 24 26  1  0
 25 26  1  0
  9 27  1  0
  1 28  1  0
  1 29  1  0
  1 30  1  0
  2 31  1  6
  3 32  1  0
  3 33  1  0
  5 34  1  0
  5 35  1  0
  6 36  1  0
  6 37  1  0
  7 38  1  0
 10 39  1  0
 15 40  1  0
 15 41  1  0
 15 42  1  0
 17 43  1  0
 22 44  1  0
 24 45  1  0
 25 46  1  0
 25 47  1  0
 26 48  1  0
 26 49  1  0
M  END
$$$$
