PDB_DB00696_97
     RDKit          3D

 78 85  0  0  0  0  0  0  0  0999 V2000
   15.6540  -25.1520   80.3150 C   0  0  0  0  0  0  0  0  0  0  0  0
   14.3700  -25.2050   80.7960 N   0  0  0  0  0  0  0  0  0  0  0  0
   19.7310  -26.6690   87.2410 O   0  0  0  0  0  0  0  0  0  0  0  0
   15.1850  -25.1640   84.8260 C   0  0  0  0  0  0  0  0  0  0  0  0
   13.8350  -25.2330   84.4780 C   0  0  0  0  0  0  0  0  0  0  0  0
   13.4320  -25.2710   83.1470 C   0  0  0  0  0  0  0  0  0  0  0  0
   14.4130  -25.2250   82.1640 C   0  0  0  0  0  0  0  0  0  0  0  0
   15.7580  -25.1710   82.5190 C   0  0  0  0  0  0  0  0  0  0  0  0
   20.7080  -26.3480   82.0890 C   0  0  0  0  0  0  0  0  0  0  0  0
   20.0490  -25.5370   86.8960 C   0  0  0  0  0  0  0  0  0  0  0  0
   21.0870  -25.0390   89.0570 C   0  0  2  0  0  0  0  0  0  0  0  0
   19.9170  -25.5780   89.8400 C   0  0  0  0  0  0  0  0  0  0  0  0
   19.3290  -27.6170   90.9700 C   0  0  2  0  0  0  0  0  0  0  0  0
   19.9340  -25.5650   83.0540 N   0  0  0  0  0  0  0  0  0  0  0  0
   16.5410  -25.1300   81.3520 C   0  0  0  0  0  0  0  0  0  0  0  0
   22.0320  -26.1260   89.0770 O   0  0  0  0  0  0  0  0  0  0  0  0
   20.0490  -28.7150   91.7200 C   0  0  0  0  0  0  0  0  0  0  0  0
   22.1990  -29.8030   92.2580 C   0  0  0  0  0  0  0  0  0  0  0  0
   23.2290  -30.1040   91.2110 C   0  0  0  0  0  0  0  0  0  0  0  0
   23.5020  -28.7760   90.5580 C   0  0  0  0  0  0  0  0  0  0  0  0
   22.2740  -27.8850   90.8350 C   0  0  1  0  0  0  0  0  0  0  0  0
   21.5040  -27.3360   89.6520 C   0  0  1  0  0  0  0  0  0  0  0  0
   21.5970  -23.8680   89.8720 C   0  0  0  0  0  0  0  0  0  0  0  0
   18.1020  -28.0840   90.1660 C   0  0  0  0  0  0  0  0  0  0  0  0
   16.9390  -28.4070   91.0620 C   0  0  0  0  0  0  0  0  0  0  0  0
   16.3580  -27.4320   91.8640 C   0  0  0  0  0  0  0  0  0  0  0  0
   18.0360  -25.0960   81.4920 C   0  0  0  0  0  0  0  0  0  0  0  0
   20.7220  -24.6940   87.7020 N   0  0  0  0  0  0  0  0  0  0  0  0
   18.8870  -24.9840   90.0980 O   0  0  0  0  0  0  0  0  0  0  0  0
   15.3370  -27.7570   92.7410 C   0  0  0  0  0  0  0  0  0  0  0  0
   14.8750  -29.0600   92.8140 C   0  0  0  0  0  0  0  0  0  0  0  0
   15.4340  -30.0310   92.0090 C   0  0  0  0  0  0  0  0  0  0  0  0
   16.4620  -29.7060   91.1420 C   0  0  0  0  0  0  0  0  0  0  0  0
   18.4720  -25.7200   82.8380 C   0  0  2  0  0  0  0  0  0  0  0  0
   20.2300  -26.8290   90.1470 N   0  0  0  0  0  0  0  0  0  0  0  0
   19.4110  -29.3960   92.5020 O   0  0  0  0  0  0  0  0  0  0  0  0
   20.3600  -25.9420   84.4150 C   0  0  0  0  0  0  0  0  0  0  0  0
   21.3940  -28.7680   91.6140 N   0  0  0  0  0  0  0  0  0  0  0  0
   21.3700  -28.3160   88.6860 O   0  0  0  0  0  0  0  0  0  0  0  0
   19.7430  -25.0230   85.4750 C   0  0  1  0  0  0  0  0  0  0  0  0
   18.2560  -24.9190   85.2300 C   0  0  0  0  0  0  0  0  0  0  0  0
   17.6720  -25.2030   84.0520 C   0  0  0  0  0  0  0  0  0  0  0  0
   16.1870  -25.1530   83.8500 C   0  0  0  0  0  0  0  0  0  0  0  0
   15.9282  -25.1304   79.2499 H   0  0  0  0  0  0  0  0  0  0  0  0
   13.5148  -25.2262   80.2223 H   0  0  0  0  0  0  0  0  0  0  0  0
   15.4664  -25.1174   85.8884 H   0  0  0  0  0  0  0  0  0  0  0  0
   13.0744  -25.2578   85.2722 H   0  0  0  0  0  0  0  0  0  0  0  0
   12.3668  -25.3356   82.8803 H   0  0  0  0  0  0  0  0  0  0  0  0
   21.3824  -27.0303   82.6272 H   0  0  0  0  0  0  0  0  0  0  0  0
   20.0228  -26.9324   81.4574 H   0  0  0  0  0  0  0  0  0  0  0  0
   21.3003  -25.6696   81.4574 H   0  0  0  0  0  0  0  0  0  0  0  0
   18.9291  -26.9665   91.7618 H   0  0  0  0  0  0  0  0  0  0  0  0
   21.5940  -30.6922   92.4889 H   0  0  0  0  0  0  0  0  0  0  0  0
   22.6283  -29.4913   93.2216 H   0  0  0  0  0  0  0  0  0  0  0  0
   24.1438  -30.5069   91.6701 H   0  0  0  0  0  0  0  0  0  0  0  0
   22.8847  -30.8611   90.4911 H   0  0  0  0  0  0  0  0  0  0  0  0
   24.4058  -28.3204   90.9888 H   0  0  0  0  0  0  0  0  0  0  0  0
   23.6697  -28.8936   89.4772 H   0  0  0  0  0  0  0  0  0  0  0  0
   22.6252  -26.9632   91.3217 H   0  0  0  0  0  0  0  0  0  0  0  0
   21.4977  -24.0961   90.9435 H   0  0  0  0  0  0  0  0  0  0  0  0
   22.6552  -23.6875   89.6321 H   0  0  0  0  0  0  0  0  0  0  0  0
   21.0084  -22.9702   89.6321 H   0  0  0  0  0  0  0  0  0  0  0  0
   17.8054  -27.2840   89.4717 H   0  0  0  0  0  0  0  0  0  0  0  0
   18.3780  -28.9982   89.6201 H   0  0  0  0  0  0  0  0  0  0  0  0
   16.7125  -26.3926   91.8015 H   0  0  0  0  0  0  0  0  0  0  0  0
   18.4892  -25.6645   80.6665 H   0  0  0  0  0  0  0  0  0  0  0  0
   18.3708  -24.0486   81.4622 H   0  0  0  0  0  0  0  0  0  0  0  0
   20.9869  -23.7673   87.3386 H   0  0  0  0  0  0  0  0  0  0  0  0
   14.8928  -26.9796   93.3800 H   0  0  0  0  0  0  0  0  0  0  0  0
   14.0651  -29.3202   93.5114 H   0  0  0  0  0  0  0  0  0  0  0  0
   15.0618  -31.0650   92.0566 H   0  0  0  0  0  0  0  0  0  0  0  0
   16.9062  -30.4879   90.5085 H   0  0  0  0  0  0  0  0  0  0  0  0
   18.2386  -26.7921   82.7596 H   0  0  0  0  0  0  0  0  0  0  0  0
   20.0454  -26.9772   84.6135 H   0  0  0  0  0  0  0  0  0  0  0  0
   21.4543  -25.8458   84.4716 H   0  0  0  0  0  0  0  0  0  0  0  0
   21.2497  -29.1960   89.1232 H   0  0  0  0  0  0  0  0  0  0  0  0
   20.1879  -24.0201   85.3963 H   0  0  0  0  0  0  0  0  0  0  0  0
   17.6146  -24.5926   86.0619 H   0  0  0  0  0  0  0  0  0  0  0  0
  1  2  1  0
  4  5  2  0
  5  6  1  0
  2  7  1  0
  6  7  2  0
  7  8  1  0
  3 10  2  0
 11 12  1  0
  9 14  1  0
  1 15  2  0
  8 15  1  0
 11 16  1  0
 13 17  1  0
 18 19  1  0
 19 20  1  0
 20 21  1  0
 16 22  1  0
 21 22  1  0
 11 23  1  0
 13 24  1  0
 24 25  1  0
 25 26  2  0
 15 27  1  0
 10 28  1  0
 11 28  1  6
 12 29  2  0
 26 30  1  0
 30 31  2  0
 31 32  1  0
 25 33  1  0
 32 33  2  0
 14 34  1  0
 27 34  1  0
 12 35  1  0
 13 35  1  0
 22 35  1  0
 17 36  2  0
 14 37  1  0
 17 38  1  0
 18 38  1  0
 21 38  1  0
 22 39  1  6
 10 40  1  0
 37 40  1  0
 40 41  1  0
 34 42  1  0
 41 42  2  0
  4 43  1  0
  8 43  2  0
 42 43  1  0
  1 44  1  0
  2 45  1  0
  4 46  1  0
  5 47  1  0
  6 48  1  0
  9 49  1  0
  9 50  1  0
  9 51  1  0
 13 52  1  1
 18 53  1  0
 18 54  1  0
 19 55  1  0
 19 56  1  0
 20 57  1  0
 20 58  1  0
 21 59  1  1
 23 60  1  0
 23 61  1  0
 23 62  1  0
 24 63  1  0
 24 64  1  0
 26 65  1  0
 27 66  1  0
 27 67  1  0
 28 68  1  0
 30 69  1  0
 31 70  1  0
 32 71  1  0
 33 72  1  0
 34 73  1  6
 37 74  1  0
 37 75  1  0
 39 76  1  0
 40 77  1  1
 41 78  1  0
M  END
$$$$
