PDB_DB00188_97
     RDKit          3D

 53 54  0  0  0  0  0  0  0  0999 V2000
   54.2500  224.8600   43.3380 N   0  0  0  0  0  0  0  0  0  0  0  0
   53.7740  225.3050   42.1850 C   0  0  0  0  0  0  0  0  0  0  0  0
   54.4540  224.9730   41.0580 C   0  0  0  0  0  0  0  0  0  0  0  0
   55.5470  224.1940   41.1510 N   0  0  0  0  0  0  0  0  0  0  0  0
   55.9970  223.7500   42.2970 C   0  0  0  0  0  0  0  0  0  0  0  0
   55.3550  224.1240   43.4290 C   0  0  0  0  0  0  0  0  0  0  0  0
   52.5950  226.1780   42.1580 C   0  0  0  0  0  0  0  0  0  0  0  0
   52.0130  226.2190   41.1240 O   0  0  0  0  0  0  0  0  0  0  0  0
   52.2780  226.9260   43.2130 N   0  0  0  0  0  0  0  0  0  0  0  0
   51.1580  227.8550   43.3080 C   0  0  1  0  0  0  0  0  0  0  0  0
   50.3410  227.5280   44.5660 C   0  0  0  0  0  0  0  0  0  0  0  0
   49.1820  228.4840   44.8600 C   0  0  0  0  0  0  0  0  0  0  0  0
   48.0270  228.5000   44.0320 C   0  0  0  0  0  0  0  0  0  0  0  0
   46.9460  229.3390   44.3010 C   0  0  0  0  0  0  0  0  0  0  0  0
   46.9970  230.1940   45.4220 C   0  0  0  0  0  0  0  0  0  0  0  0
   48.1120  230.1770   46.2680 C   0  0  0  0  0  0  0  0  0  0  0  0
   49.1950  229.3190   46.0050 C   0  0  0  0  0  0  0  0  0  0  0  0
   51.7150  229.2580   43.3130 C   0  0  0  0  0  0  0  0  0  0  0  0
   52.7060  229.5020   44.0180 O   0  0  0  0  0  0  0  0  0  0  0  0
   51.1130  230.1630   42.5420 N   0  0  0  0  0  0  0  0  0  0  0  0
   51.5060  231.5560   42.4100 C   0  0  1  0  0  0  0  0  0  0  0  0
   51.5860  231.9820   40.9360 C   0  0  0  0  0  0  0  0  0  0  0  0
   52.3190  231.0520   39.9840 C   0  0  0  0  0  0  0  0  0  0  0  0
   53.8120  231.0190   40.2290 C   0  0  0  0  0  0  0  0  0  0  0  0
   52.1210  231.5570   38.5780 C   0  0  0  0  0  0  0  0  0  0  0  0
   50.4060  232.4880   43.1530 B   0  0  0  0  0  0  0  0  0  0  0  0
   50.3940  232.1940   44.6460 O   0  0  0  0  0  0  0  0  0  0  0  0
   48.9790  232.2050   42.6020 O   0  0  0  0  0  0  0  0  0  0  0  0
   54.1144  225.3377   40.0774 H   0  0  0  0  0  0  0  0  0  0  0  0
   56.8753  223.0891   42.3395 H   0  0  0  0  0  0  0  0  0  0  0  0
   55.7427  223.8227   44.4133 H   0  0  0  0  0  0  0  0  0  0  0  0
   52.8826  226.8401   44.0425 H   0  0  0  0  0  0  0  0  0  0  0  0
   50.4739  227.7652   42.4513 H   0  0  0  0  0  0  0  0  0  0  0  0
   49.9255  226.5163   44.4480 H   0  0  0  0  0  0  0  0  0  0  0  0
   51.0360  227.6228   45.4133 H   0  0  0  0  0  0  0  0  0  0  0  0
   47.9847  227.8342   43.1574 H   0  0  0  0  0  0  0  0  0  0  0  0
   46.0625  229.3342   43.6457 H   0  0  0  0  0  0  0  0  0  0  0  0
   46.1591  230.8752   45.6316 H   0  0  0  0  0  0  0  0  0  0  0  0
   48.1415  230.8398   47.1454 H   0  0  0  0  0  0  0  0  0  0  0  0
   50.0551  229.2960   46.6904 H   0  0  0  0  0  0  0  0  0  0  0  0
   50.3002  229.8486   41.9930 H   0  0  0  0  0  0  0  0  0  0  0  0
   52.5004  231.6742   42.8653 H   0  0  0  0  0  0  0  0  0  0  0  0
   50.5557  232.0895   40.5661 H   0  0  0  0  0  0  0  0  0  0  0  0
   52.1787  232.9087   40.9401 H   0  0  0  0  0  0  0  0  0  0  0  0
   51.9123  230.0422   40.1417 H   0  0  0  0  0  0  0  0  0  0  0  0
   54.0059  231.0147   41.3118 H   0  0  0  0  0  0  0  0  0  0  0  0
   54.2378  230.1112   39.7767 H   0  0  0  0  0  0  0  0  0  0  0  0
   54.2775  231.9071   39.7767 H   0  0  0  0  0  0  0  0  0  0  0  0
   51.7196  232.5807   38.6092 H   0  0  0  0  0  0  0  0  0  0  0  0
   53.0856  231.5573   38.0493 H   0  0  0  0  0  0  0  0  0  0  0  0
   51.4132  230.9016   38.0493 H   0  0  0  0  0  0  0  0  0  0  0  0
   50.4287  233.0452   45.1503 H   0  0  0  0  0  0  0  0  0  0  0  0
   48.3520  232.0807   43.3580 H   0  0  0  0  0  0  0  0  0  0  0  0
  1  2  2  0
  2  3  1  0
  3  4  2  0
  4  5  1  0
  1  6  1  0
  5  6  2  0
  2  7  1  0
  7  8  2  0
  7  9  1  0
  9 10  1  0
 10 11  1  0
 11 12  1  0
 12 13  2  0
 13 14  1  0
 14 15  2  0
 15 16  1  0
 12 17  1  0
 16 17  2  0
 10 18  1  0
 18 19  2  0
 18 20  1  0
 20 21  1  0
 21 22  1  0
 22 23  1  0
 23 24  1  0
 23 25  1  0
 21 26  1  0
 26 27  1  0
 26 28  1  0
  3 29  1  0
  5 30  1  0
  6 31  1  0
  9 32  1  0
 10 33  1  6
 11 34  1  0
 11 35  1  0
 13 36  1  0
 14 37  1  0
 15 38  1  0
 16 39  1  0
 17 40  1  0
 20 41  1  0
 21 42  1  1
 22 43  1  0
 22 44  1  0
 23 45  1  0
 24 46  1  0
 24 47  1  0
 24 48  1  0
 25 49  1  0
 25 50  1  0
 25 51  1  0
 27 52  1  0
 28 53  1  0
M  END
$$$$
