PDB_DB00127_99
     RDKit          3D

 80 78  0  0  0  0  0  0  0  0999 V2000
  -61.3170   31.2250   35.8470 N   0  0  0  0  0  0  0  0  0  0  0  0
  -61.2390   31.0330   34.4180 C   0  0  0  0  0  0  0  0  0  0  0  0
  -59.8180   30.6840   34.0460 C   0  0  0  0  0  0  0  0  0  0  0  0
  -59.7750   30.1700   32.6330 C   0  0  0  0  0  0  0  0  0  0  0  0
  -59.2410   31.2020   31.7980 N   0  0  0  0  0  0  0  0  0  0  0  0
  -58.7620   30.9230   30.4740 C   0  0  0  0  0  0  0  0  0  0  0  0
  -59.1780   32.0530   29.5580 C   0  0  0  0  0  0  0  0  0  0  0  0
  -58.2500   33.2370   29.7150 C   0  0  0  0  0  0  0  0  0  0  0  0
  -58.3320   34.1370   28.5030 C   0  0  0  0  0  0  0  0  0  0  0  0
  -59.3040   35.1940   28.6600 N   0  0  0  0  0  0  0  0  0  0  0  0
  -58.9080   36.4370   29.2850 C   0  0  0  0  0  0  0  0  0  0  0  0
  -58.5940   37.5370   28.2820 C   0  0  0  0  0  0  0  0  0  0  0  0
  -58.0700   38.7980   28.9530 C   0  0  0  0  0  0  0  0  0  0  0  0
  -59.1570   39.6290   29.4280 N   0  0  0  0  0  0  0  0  0  0  0  0
  -97.1980   27.7790   26.5450 N   0  0  0  0  0  0  0  0  0  0  0  0
  -96.5130   26.6060   26.2300 C   0  0  0  0  0  0  0  0  0  0  0  0
  -97.4030   25.7160   25.4280 C   0  0  0  0  0  0  0  0  0  0  0  0
  -96.4170   24.7960   24.5640 C   0  0  0  0  0  0  0  0  0  0  0  0
  -96.9870   23.5280   24.4230 N   0  0  0  0  0  0  0  0  0  0  0  0
  -96.1440   22.5390   23.5950 C   0  0  0  0  0  0  0  0  0  0  0  0
  -96.1780   21.1910   24.1240 C   0  0  0  0  0  0  0  0  0  0  0  0
  -97.4590   20.9770   25.0140 C   0  0  0  0  0  0  0  0  0  0  0  0
  -97.7230   19.5460   25.2670 C   0  0  0  0  0  0  0  0  0  0  0  0
  -97.3490   19.1740   26.6400 N   0  0  0  0  0  0  0  0  0  0  0  0
  -96.0680   18.8530   27.0060 C   0  0  0  0  0  0  0  0  0  0  0  0
  -96.0530   18.2250   28.3830 C   0  0  0  0  0  0  0  0  0  0  0  0
  -94.5390   18.0710   28.7720 C   0  0  0  0  0  0  0  0  0  0  0  0
  -94.2600   19.0660   29.7720 N   0  0  0  0  0  0  0  0  0  0  0  0
  -60.9738   30.3803   36.3261 H   0  0  0  0  0  0  0  0  0  0  0  0
  -60.7373   32.0324   36.1171 H   0  0  0  0  0  0  0  0  0  0  0  0
  -61.9103   30.2146   34.1186 H   0  0  0  0  0  0  0  0  0  0  0  0
  -61.5424   31.9558   33.9018 H   0  0  0  0  0  0  0  0  0  0  0  0
  -59.1877   31.5818   34.1277 H   0  0  0  0  0  0  0  0  0  0  0  0
  -59.4437   29.9062   34.7279 H   0  0  0  0  0  0  0  0  0  0  0  0
  -59.1325   29.2787   32.5804 H   0  0  0  0  0  0  0  0  0  0  0  0
  -60.7859   29.8950   32.2978 H   0  0  0  0  0  0  0  0  0  0  0  0
  -59.9851   31.9067   31.6953 H   0  0  0  0  0  0  0  0  0  0  0  0
  -57.6651   30.8420   30.4869 H   0  0  0  0  0  0  0  0  0  0  0  0
  -59.1869   29.9742   30.1145 H   0  0  0  0  0  0  0  0  0  0  0  0
  -59.1447   31.7037   28.5155 H   0  0  0  0  0  0  0  0  0  0  0  0
  -60.1987   32.3658   29.8230 H   0  0  0  0  0  0  0  0  0  0  0  0
  -58.5390   33.8075   30.6100 H   0  0  0  0  0  0  0  0  0  0  0  0
  -57.2181   32.8698   29.8168 H   0  0  0  0  0  0  0  0  0  0  0  0
  -57.3439   34.5896   28.3329 H   0  0  0  0  0  0  0  0  0  0  0  0
  -58.6476   33.5185   27.6498 H   0  0  0  0  0  0  0  0  0  0  0  0
  -59.6471   35.4283   27.7175 H   0  0  0  0  0  0  0  0  0  0  0  0
  -59.7276   36.7789   29.9341 H   0  0  0  0  0  0  0  0  0  0  0  0
  -57.9871   36.2391   29.8531 H   0  0  0  0  0  0  0  0  0  0  0  0
  -57.8327   37.1679   27.5790 H   0  0  0  0  0  0  0  0  0  0  0  0
  -59.5286   37.7957   27.7627 H   0  0  0  0  0  0  0  0  0  0  0  0
  -57.4365   38.5137   29.8061 H   0  0  0  0  0  0  0  0  0  0  0  0
  -57.4909   39.3709   28.2138 H   0  0  0  0  0  0  0  0  0  0  0  0
  -59.1617   39.6326   30.4580 H   0  0  0  0  0  0  0  0  0  0  0  0
  -59.0304   40.5908   29.0819 H   0  0  0  0  0  0  0  0  0  0  0  0
  -97.2560   27.8784   27.5686 H   0  0  0  0  0  0  0  0  0  0  0  0
  -96.6957   28.5866   26.1496 H   0  0  0  0  0  0  0  0  0  0  0  0
  -95.6143   26.8510   25.6449 H   0  0  0  0  0  0  0  0  0  0  0  0
  -96.2158   26.0925   27.1563 H   0  0  0  0  0  0  0  0  0  0  0  0
  -98.0259   25.0967   26.0902 H   0  0  0  0  0  0  0  0  0  0  0  0
  -98.0898   26.2915   24.7900 H   0  0  0  0  0  0  0  0  0  0  0  0
  -96.2675   25.2459   23.5714 H   0  0  0  0  0  0  0  0  0  0  0  0
  -95.4449   24.7128   25.0720 H   0  0  0  0  0  0  0  0  0  0  0  0
  -97.1208   23.1287   25.3630 H   0  0  0  0  0  0  0  0  0  0  0  0
  -96.5322   22.5224   22.5659 H   0  0  0  0  0  0  0  0  0  0  0  0
  -95.0997   22.8827   23.6323 H   0  0  0  0  0  0  0  0  0  0  0  0
  -96.1944   20.4752   23.2889 H   0  0  0  0  0  0  0  0  0  0  0  0
  -95.2841   21.0311   24.7448 H   0  0  0  0  0  0  0  0  0  0  0  0
  -97.3115   21.4869   25.9775 H   0  0  0  0  0  0  0  0  0  0  0  0
  -98.3223   21.3917   24.4730 H   0  0  0  0  0  0  0  0  0  0  0  0
  -98.7948   19.3468   25.1200 H   0  0  0  0  0  0  0  0  0  0  0  0
  -97.1197   18.9499   24.5665 H   0  0  0  0  0  0  0  0  0  0  0  0
  -97.6221   19.9703   27.2336 H   0  0  0  0  0  0  0  0  0  0  0  0
  -95.6511   18.1409   26.2786 H   0  0  0  0  0  0  0  0  0  0  0  0
  -95.4627   19.7712   27.0266 H   0  0  0  0  0  0  0  0  0  0  0  0
  -96.5690   18.8748   29.1051 H   0  0  0  0  0  0  0  0  0  0  0  0
  -96.5713   17.2548   28.3891 H   0  0  0  0  0  0  0  0  0  0  0  0
  -94.3532   17.0654   29.1772 H   0  0  0  0  0  0  0  0  0  0  0  0
  -93.8916   18.2049   27.8928 H   0  0  0  0  0  0  0  0  0  0  0  0
  -94.3757   18.6533   30.7086 H   0  0  0  0  0  0  0  0  0  0  0  0
  -93.2925   19.4016   29.6618 H   0  0  0  0  0  0  0  0  0  0  0  0
  1  2  1  0
  2  3  1  0
  3  4  1  0
  4  5  1  0
  5  6  1  0
  6  7  1  0
  7  8  1  0
  8  9  1  0
  9 10  1  0
 10 11  1  0
 11 12  1  0
 12 13  1  0
 13 14  1  0
 15 16  1  0
 16 17  1  0
 17 18  1  0
 18 19  1  0
 19 20  1  0
 20 21  1  0
 21 22  1  0
 22 23  1  0
 23 24  1  0
 24 25  1  0
 25 26  1  0
 26 27  1  0
 27 28  1  0
  1 29  1  0
  1 30  1  0
  2 31  1  0
  2 32  1  0
  3 33  1  0
  3 34  1  0
  4 35  1  0
  4 36  1  0
  5 37  1  0
  6 38  1  0
  6 39  1  0
  7 40  1  0
  7 41  1  0
  8 42  1  0
  8 43  1  0
  9 44  1  0
  9 45  1  0
 10 46  1  0
 11 47  1  0
 11 48  1  0
 12 49  1  0
 12 50  1  0
 13 51  1  0
 13 52  1  0
 14 53  1  0
 14 54  1  0
 15 55  1  0
 15 56  1  0
 16 57  1  0
 16 58  1  0
 17 59  1  0
 17 60  1  0
 18 61  1  0
 18 62  1  0
 19 63  1  0
 20 64  1  0
 20 65  1  0
 21 66  1  0
 21 67  1  0
 22 68  1  0
 22 69  1  0
 23 70  1  0
 23 71  1  0
 24 72  1  0
 25 73  1  0
 25 74  1  0
 26 75  1  0
 26 76  1  0
 27 77  1  0
 27 78  1  0
 28 79  1  0
 28 80  1  0
M  END
>  <PDBID>  (1) 
3KU9

>  <PDB ID>  (1) 
3KU9

>  <Generic Name>  (1) 
Spermine

>  <Brand Name>  (1) 
nan

>  <DrugBank ID>  (1) 
DB00127

>  <ATC Codes>  (1) 
nan

>  <Ligand ID>  (1) 
SPM

>  <Target Name>  (1) 
Spermine oxidase

>  <UniProt ID>  (1) 
Q9NWM0

>  <PDB ID.1>  (1) 
3KU9

>  <Seq. Identity>  (1) 
31%

$$$$
