PDB_DB00819_93
     RDKit          3D

 54 54  0  0  0  0  0  0  0  0999 V2000
   17.7910    5.5370   25.4360 C   0  0  0  0  0  0  0  0  0  0  0  0
   18.3440    7.6770   25.9060 C   0  0  0  0  0  0  0  0  0  0  0  0
   20.0180    9.4550   25.9800 C   0  0  0  0  0  0  0  0  0  0  0  0
   21.1630    8.5180   26.3180 C   0  0  0  0  0  0  0  0  0  0  0  0
   16.9530    3.1160   26.1670 N   0  0  0  0  0  0  0  0  0  0  0  0
   17.0840    7.4740   26.1280 N   0  0  0  0  0  0  0  0  0  0  0  0
   16.7400    6.1820   25.8430 N   0  0  0  0  0  0  0  0  0  0  0  0
   18.7460    8.9460   26.1660 N   0  0  0  0  0  0  0  0  0  0  0  0
   19.0790    3.3380   24.8410 O   0  0  0  0  0  0  0  0  0  0  0  0
   17.0690    3.7740   23.6530 O   0  0  0  0  0  0  0  0  0  0  0  0
   20.2920   10.5820   25.5720 O   0  0  0  0  0  0  0  0  0  0  0  0
   17.7110    3.8300   24.9650 S   0  0  2  0  0  4  0  0  0  0  0  0
   19.2630    6.3840   25.3560 S   0  0  0  0  0  0  0  0  0  0  0  0
  -13.3730   -6.7640   21.1270 C   0  0  0  0  0  0  0  0  0  0  0  0
  -15.2340   -5.5800   20.6200 C   0  0  0  0  0  0  0  0  0  0  0  0
  -17.6860   -5.3980   20.2930 C   0  0  0  0  0  0  0  0  0  0  0  0
  -17.8640   -6.8770   20.5800 C   0  0  0  0  0  0  0  0  0  0  0  0
  -11.0910   -7.8990   20.3810 N   0  0  0  0  0  0  0  0  0  0  0  0
  -14.1830   -4.8330   20.5410 N   0  0  0  0  0  0  0  0  0  0  0  0
  -13.0520   -5.5400   20.8440 N   0  0  0  0  0  0  0  0  0  0  0  0
  -16.3850   -4.9120   20.3180 N   0  0  0  0  0  0  0  0  0  0  0  0
  -12.8010   -9.2720   21.6180 O   0  0  0  0  0  0  0  0  0  0  0  0
  -11.6250   -7.6290   22.8930 O   0  0  0  0  0  0  0  0  0  0  0  0
  -18.6970   -4.7370   20.0460 O   0  0  0  0  0  0  0  0  0  0  0  0
  -12.1460   -7.9640   21.5690 S   0  0  2  0  0  4  0  0  0  0  0  0
  -15.0170   -7.1920   21.0630 S   0  0  0  0  0  0  0  0  0  0  0  0
   18.0105    5.2408   26.4724 H   0  0  0  0  0  0  0  0  0  0  0  0
   18.1153    7.9620   24.8685 H   0  0  0  0  0  0  0  0  0  0  0  0
   20.0167    9.0803   24.9458 H   0  0  0  0  0  0  0  0  0  0  0  0
   21.2609    8.4379   27.4107 H   0  0  0  0  0  0  0  0  0  0  0  0
   20.9602    7.5234   25.8941 H   0  0  0  0  0  0  0  0  0  0  0  0
   22.0978    8.9135   25.8941 H   0  0  0  0  0  0  0  0  0  0  0  0
   17.3236    3.4651   27.0624 H   0  0  0  0  0  0  0  0  0  0  0  0
   15.9456    3.3224   26.1086 H   0  0  0  0  0  0  0  0  0  0  0  0
   16.8811    7.6661   27.1194 H   0  0  0  0  0  0  0  0  0  0  0  0
   16.0228    6.1721   25.1038 H   0  0  0  0  0  0  0  0  0  0  0  0
   18.1310    9.5448   25.5967 H   0  0  0  0  0  0  0  0  0  0  0  0
   19.4630    3.1999   25.7430 H   0  0  0  0  0  0  0  0  0  0  0  0
   16.0895    3.6886   23.7683 H   0  0  0  0  0  0  0  0  0  0  0  0
   20.4387   11.1855   26.3430 H   0  0  0  0  0  0  0  0  0  0  0  0
  -13.2600   -7.0385   20.0678 H   0  0  0  0  0  0  0  0  0  0  0  0
  -15.3511   -5.3034   21.6782 H   0  0  0  0  0  0  0  0  0  0  0  0
  -17.7890   -5.1774   21.3657 H   0  0  0  0  0  0  0  0  0  0  0  0
  -17.8836   -7.0397   21.6677 H   0  0  0  0  0  0  0  0  0  0  0  0
  -18.8105   -7.2245   20.1402 H   0  0  0  0  0  0  0  0  0  0  0  0
  -17.0270   -7.4392   20.1402 H   0  0  0  0  0  0  0  0  0  0  0  0
  -10.1391   -7.8404   20.7700 H   0  0  0  0  0  0  0  0  0  0  0  0
  -11.1736   -8.7467   19.8017 H   0  0  0  0  0  0  0  0  0  0  0  0
  -14.1030   -4.4653   19.5822 H   0  0  0  0  0  0  0  0  0  0  0  0
  -12.5852   -5.1106   21.6556 H   0  0  0  0  0  0  0  0  0  0  0  0
  -16.4139   -4.1309   20.9888 H   0  0  0  0  0  0  0  0  0  0  0  0
  -12.9347   -9.5390   22.5619 H   0  0  0  0  0  0  0  0  0  0  0  0
  -12.2185   -8.0106   23.5874 H   0  0  0  0  0  0  0  0  0  0  0  0
  -19.1241   -4.4577   20.8943 H   0  0  0  0  0  0  0  0  0  0  0  0
  3  4  1  0
  2  6  1  0
  1  7  1  0
  6  7  1  0
  2  8  1  0
  3  8  1  0
  3 11  1  0
  1 12  1  0
  5 12  1  0
 12  9  1  6
 10 12  1  0
  1 13  1  0
  2 13  1  0
 16 17  1  0
 15 19  1  0
 14 20  1  0
 19 20  1  0
 15 21  1  0
 16 21  1  0
 16 24  1  0
 14 25  1  0
 18 25  1  0
 25 22  1  1
 23 25  1  0
 14 26  1  0
 15 26  1  0
  1 27  1  0
  2 28  1  0
  3 29  1  0
  4 30  1  0
  4 31  1  0
  4 32  1  0
  5 33  1  0
  5 34  1  0
  6 35  1  0
  7 36  1  0
  8 37  1  0
  9 38  1  0
 10 39  1  0
 11 40  1  0
 14 41  1  0
 15 42  1  0
 16 43  1  0
 17 44  1  0
 17 45  1  0
 17 46  1  0
 18 47  1  0
 18 48  1  0
 19 49  1  0
 20 50  1  0
 21 51  1  0
 22 52  1  0
 23 53  1  0
 24 54  1  0
M  END
>  <PDBID>  (1) 
1JD0

>  <PDB ID>  (1) 
1JD0

>  <Generic Name>  (1) 
Acetazolamide

>  <Brand Name>  (1) 
Acetazolam#Acetazolamide#Acetazolamide for Injection, USP#Diamox IV 500mg#Diamox Pws 500mg/vial#Diamox Sequels#Diamox Src 500mg#Diamox Tab 250mg#Diamox Tablets 250mg#Novo-zolamide Tab 250mg#Acemit#Acemox#Acetak#Acetamide#Acetazolamax#Azm#Azol#Azomid#Carbinib#Defiltran#Diabo#Diacarb#Diamox#Diamox Depot#Diazomid#Diluran#Diuramid#Défiltran#Edemox#Glaumox#Glaupax#Glupax#Huma-Zolamide#Iopar-SR#Medene#Oculten#Uramox#Zolmide#Ödemin

>  <DrugBank ID>  (1) 
DB00819

>  <ATC Codes>  (1) 
S01EC01

>  <Ligand ID>  (1) 
AZM

>  <Target Name>  (1) 
Carbonic anhydrase 4

>  <UniProt ID>  (1) 
P22748

>  <PDB ID.1>  (1) 
1JD0

>  <Seq. Identity>  (1) 
36%

$$$$
