PDB_DB00701_98
     RDKit          3D

 70 72  0  0  0  0  0  0  0  0999 V2000
   17.1170  -25.4400  -18.8550 C   0  0  0  0  0  0  0  0  0  0  0  0
   15.5050  -24.7200  -20.5230 C   0  0  0  0  0  0  0  0  0  0  0  0
   14.8190  -22.6550  -18.2110 C   0  0  0  0  0  0  0  0  0  0  0  0
   15.7740  -24.7530  -19.0370 C   0  0  2  0  0  0  0  0  0  0  0  0
   14.3400  -20.3810  -17.2870 C   0  0  2  0  0  0  0  0  0  0  0  0
   13.9040  -19.2740  -18.2720 C   0  0  1  0  0  0  0  0  0  0  0  0
   15.1390  -19.9090  -16.0330 C   0  0  0  0  0  0  0  0  0  0  0  0
   15.4860  -21.0800  -15.1060 C   0  0  0  0  0  0  0  0  0  0  0  0
   16.7700  -21.6340  -15.1000 C   0  0  0  0  0  0  0  0  0  0  0  0
   14.4510  -21.5910  -14.2580 C   0  0  0  0  0  0  0  0  0  0  0  0
   17.0800  -22.7350  -14.2500 C   0  0  0  0  0  0  0  0  0  0  0  0
   14.7550  -22.6860  -13.3880 C   0  0  0  0  0  0  0  0  0  0  0  0
   16.0570  -23.2200  -13.4190 C   0  0  0  0  0  0  0  0  0  0  0  0
   12.7630  -18.4050  -17.7670 C   0  0  0  0  0  0  0  0  0  0  0  0
   10.5700  -18.6330  -18.7870 C   0  0  0  0  0  0  0  0  0  0  0  0
   10.7490  -19.3230  -20.1480 C   0  0  0  0  0  0  0  0  0  0  0  0
    9.9230  -17.8770  -15.7100 C   0  0  0  0  0  0  0  0  0  0  0  0
   10.6850  -16.8900  -14.9850 C   0  0  0  0  0  0  0  0  0  0  0  0
   10.0650  -15.7100  -14.5370 C   0  0  0  0  0  0  0  0  0  0  0  0
    8.7200  -15.5110  -14.7920 C   0  0  0  0  0  0  0  0  0  0  0  0
    7.9110  -16.4730  -15.5060 C   0  0  0  0  0  0  0  0  0  0  0  0
    8.5430  -17.6750  -15.9750 C   0  0  0  0  0  0  0  0  0  0  0  0
   10.6030  -20.8520  -20.0650 C   0  0  0  0  0  0  0  0  0  0  0  0
    9.7100  -18.7550  -21.1400 C   0  0  0  0  0  0  0  0  0  0  0  0
   16.8670  -25.0200  -21.2010 C   0  0  0  0  0  0  0  0  0  0  0  0
   15.2070  -21.3440  -17.9550 N   0  0  0  0  0  0  0  0  0  0  0  0
   11.4960  -19.1140  -17.7350 N   0  0  0  0  0  0  0  0  0  0  0  0
    8.0350  -14.3640  -14.3740 N   0  0  0  0  0  0  0  0  0  0  0  0
   15.9290  -23.3370  -18.5840 O   0  0  0  0  0  0  0  0  0  0  0  0
   13.6380  -23.0650  -18.1010 O   0  0  0  0  0  0  0  0  0  0  0  0
   15.0520  -18.4320  -18.6020 O   0  0  0  0  0  0  0  0  0  0  0  0
   11.7990  -19.6400  -15.2950 O   0  0  0  0  0  0  0  0  0  0  0  0
    9.7600  -20.3830  -16.4880 O   0  0  0  0  0  0  0  0  0  0  0  0
   17.8250  -25.1000  -20.1160 O   0  0  0  0  0  0  0  0  0  0  0  0
   10.7540  -19.3530  -16.2600 S   0  0  0  0  0  0  0  0  0  0  0  0
   17.6514  -25.0428  -17.9794 H   0  0  0  0  0  0  0  0  0  0  0  0
   17.0355  -26.5222  -18.6757 H   0  0  0  0  0  0  0  0  0  0  0  0
   14.7635  -25.4853  -20.7959 H   0  0  0  0  0  0  0  0  0  0  0  0
   15.0975  -23.7490  -20.8411 H   0  0  0  0  0  0  0  0  0  0  0  0
   14.9735  -25.2643  -18.4823 H   0  0  0  0  0  0  0  0  0  0  0  0
   13.3806  -20.7983  -16.9472 H   0  0  0  0  0  0  0  0  0  0  0  0
   13.5230  -19.7912  -19.1649 H   0  0  0  0  0  0  0  0  0  0  0  0
   16.0714  -19.4289  -16.3647 H   0  0  0  0  0  0  0  0  0  0  0  0
   14.5093  -19.2031  -15.4717 H   0  0  0  0  0  0  0  0  0  0  0  0
   17.5472  -21.2164  -15.7569 H   0  0  0  0  0  0  0  0  0  0  0  0
   13.4430  -21.1508  -14.2751 H   0  0  0  0  0  0  0  0  0  0  0  0
   18.0825  -23.1878  -14.2450 H   0  0  0  0  0  0  0  0  0  0  0  0
   13.9913  -23.0994  -12.7129 H   0  0  0  0  0  0  0  0  0  0  0  0
   16.2864  -24.0658  -12.7541 H   0  0  0  0  0  0  0  0  0  0  0  0
   13.0027  -18.0648  -16.7488 H   0  0  0  0  0  0  0  0  0  0  0  0
   12.6549  -17.5586  -18.4613 H   0  0  0  0  0  0  0  0  0  0  0  0
   10.7336  -17.5538  -18.9233 H   0  0  0  0  0  0  0  0  0  0  0  0
    9.5520  -18.8701  -18.4442 H   0  0  0  0  0  0  0  0  0  0  0  0
   11.7732  -19.1177  -20.4928 H   0  0  0  0  0  0  0  0  0  0  0  0
   11.7526  -17.0606  -14.7822 H   0  0  0  0  0  0  0  0  0  0  0  0
   10.6441  -14.9523  -13.9889 H   0  0  0  0  0  0  0  0  0  0  0  0
    6.8413  -16.2898  -15.6852 H   0  0  0  0  0  0  0  0  0  0  0  0
    7.9658  -18.4281  -16.5315 H   0  0  0  0  0  0  0  0  0  0  0  0
   10.5735  -21.1608  -19.0096 H   0  0  0  0  0  0  0  0  0  0  0  0
    9.6715  -21.1590  -20.5630 H   0  0  0  0  0  0  0  0  0  0  0  0
   11.4596  -21.3297  -20.5630 H   0  0  0  0  0  0  0  0  0  0  0  0
    8.8790  -18.3007  -20.5805 H   0  0  0  0  0  0  0  0  0  0  0  0
   10.1864  -17.9918  -21.7730 H   0  0  0  0  0  0  0  0  0  0  0  0
    9.3247  -19.5680  -21.7730 H   0  0  0  0  0  0  0  0  0  0  0  0
   16.8235  -25.9735  -21.7477 H   0  0  0  0  0  0  0  0  0  0  0  0
   17.1401  -24.2456  -21.9330 H   0  0  0  0  0  0  0  0  0  0  0  0
   16.1462  -21.0409  -18.2497 H   0  0  0  0  0  0  0  0  0  0  0  0
    7.0327  -14.2569  -14.5856 H   0  0  0  0  0  0  0  0  0  0  0  0
    8.5333  -13.6271  -13.8548 H   0  0  0  0  0  0  0  0  0  0  0  0
   15.4812  -18.1172  -17.7672 H   0  0  0  0  0  0  0  0  0  0  0  0
  1  4  1  0
  2  4  1  0
  5  6  1  0
  5  7  1  0
  7  8  1  0
  8  9  2  0
  8 10  1  0
  9 11  1  0
 10 12  2  0
 11 13  2  0
 12 13  1  0
  6 14  1  0
 15 16  1  0
 17 18  2  0
 18 19  1  0
 19 20  2  0
 20 21  1  0
 17 22  1  0
 21 22  2  0
 16 23  1  0
 16 24  1  0
  2 25  1  0
  3 26  1  0
  5 26  1  0
 14 27  1  0
 15 27  1  0
 20 28  1  0
  3 29  1  0
  4 29  1  0
  3 30  2  0
  6 31  1  0
  1 34  1  0
 25 34  1  0
 17 35  1  0
 27 35  1  0
 32 35  2  0
 33 35  2  0
  1 36  1  0
  1 37  1  0
  2 38  1  0
  2 39  1  0
  4 40  1  1
  5 41  1  1
  6 42  1  6
  7 43  1  0
  7 44  1  0
  9 45  1  0
 10 46  1  0
 11 47  1  0
 12 48  1  0
 13 49  1  0
 14 50  1  0
 14 51  1  0
 15 52  1  0
 15 53  1  0
 16 54  1  0
 18 55  1  0
 19 56  1  0
 21 57  1  0
 22 58  1  0
 23 59  1  0
 23 60  1  0
 23 61  1  0
 24 62  1  0
 24 63  1  0
 24 64  1  0
 25 65  1  0
 25 66  1  0
 26 67  1  0
 28 68  1  0
 28 69  1  0
 31 70  1  0
M  END
>  <PDBID>  (1) 
4JEC

>  <PDB ID>  (1) 
4JEC

>  <Generic Name>  (1) 
Amprenavir

>  <Brand Name>  (1) 
Agenerase#Agemerase#Prozei

>  <DrugBank ID>  (1) 
DB00701

>  <ATC Codes>  (1) 
J05AE05

>  <Ligand ID>  (1) 
478

>  <Target Name>  (1) 
Pol polyprotein

>  <UniProt ID>  (1) 
Q72874

>  <PDB ID.1>  (1) 
4JEC

>  <Seq. Identity>  (1) 
94%

$$$$
