PDB_DB01041_98
     RDKit          3D

 43 45  0  0  0  0  0  0  0  0999 V2000
   -1.9230    7.6950   11.5530 O   0  0  0  0  0  0  0  0  0  0  0  0
   -1.7150    8.1980   12.6490 C   0  0  1  0  0  0  0  0  0  0  0  0
   -1.2940    9.4800   12.7950 N   0  0  0  0  0  0  0  0  0  0  0  0
   -1.0710   10.0980   13.9790 C   0  0  0  0  0  0  0  0  0  0  0  0
   -0.6930   11.2480   14.0060 O   0  0  0  0  0  0  0  0  0  0  0  0
   -1.3060    9.3770   15.2840 C   0  0  0  0  0  0  0  0  0  0  0  0
   -1.1110    7.8540   15.0770 C   0  0  0  0  0  0  0  0  0  0  0  0
   -2.0010    7.3990   13.8990 C   0  0  2  0  0  0  0  0  0  0  0  0
   -1.8960    5.9660   13.6690 N   0  0  0  0  0  0  0  0  0  0  0  0
   -1.1600    1.4940   12.4720 C   0  0  0  0  0  0  0  0  0  0  0  0
   -0.5210    2.7510   12.3880 C   0  0  0  0  0  0  0  0  0  0  0  0
   -1.2270    3.8480   12.9070 C   0  0  0  0  0  0  0  0  0  0  0  0
   -2.5050    3.7040   13.4760 C   0  0  0  0  0  0  0  0  0  0  0  0
    0.1860    5.7930   12.6040 O   0  0  0  0  0  0  0  0  0  0  0  0
   -3.9930    5.3480   14.4010 O   0  0  0  0  0  0  0  0  0  0  0  0
   -3.1470    2.4540   13.5350 C   0  0  0  0  0  0  0  0  0  0  0  0
   -2.4540    1.3430   13.0130 C   0  0  0  0  0  0  0  0  0  0  0  0
   -2.9000    5.0910   13.9260 C   0  0  0  0  0  0  0  0  0  0  0  0
   -0.8680    5.3160   13.0430 C   0  0  0  0  0  0  0  0  0  0  0  0
   -2.2985    6.7868   11.6726 H   0  0  0  0  0  0  0  0  0  0  0  0
   -0.6693    7.8595   12.6059 H   0  0  0  0  0  0  0  0  0  0  0  0
   -0.4006    9.5345   12.2853 H   0  0  0  0  0  0  0  0  0  0  0  0
   -0.0260    9.7549   13.9612 H   0  0  0  0  0  0  0  0  0  0  0  0
   -0.5965   11.5416   14.9465 H   0  0  0  0  0  0  0  0  0  0  0  0
   -0.5902    9.7390   16.0367 H   0  0  0  0  0  0  0  0  0  0  0  0
   -2.3321    9.5709   15.6296 H   0  0  0  0  0  0  0  0  0  0  0  0
   -0.0561    7.6432   14.8474 H   0  0  0  0  0  0  0  0  0  0  0  0
   -1.3918    7.3113   15.9917 H   0  0  0  0  0  0  0  0  0  0  0  0
   -3.0460    7.6004   14.1771 H   0  0  0  0  0  0  0  0  0  0  0  0
   -1.2100    1.1058   11.4440 H   0  0  0  0  0  0  0  0  0  0  0  0
   -0.5393    0.9711   13.2145 H   0  0  0  0  0  0  0  0  0  0  0  0
    0.4319    2.6787   12.9327 H   0  0  0  0  0  0  0  0  0  0  0  0
   -0.4175    2.9539   11.3118 H   0  0  0  0  0  0  0  0  0  0  0  0
   -1.6850    4.0194   11.9217 H   0  0  0  0  0  0  0  0  0  0  0  0
   -2.9635    3.8931   12.4941 H   0  0  0  0  0  0  0  0  0  0  0  0
    0.7688    6.0567   13.3596 H   0  0  0  0  0  0  0  0  0  0  0  0
   -3.9348    5.3343   15.3892 H   0  0  0  0  0  0  0  0  0  0  0  0
   -3.3602    2.2423   14.5932 H   0  0  0  0  0  0  0  0  0  0  0  0
   -4.0317    2.5617   12.8902 H   0  0  0  0  0  0  0  0  0  0  0  0
   -3.0834    0.9272   12.2124 H   0  0  0  0  0  0  0  0  0  0  0  0
   -2.2780    0.7216   13.9034 H   0  0  0  0  0  0  0  0  0  0  0  0
   -3.3286    5.2911   12.9329 H   0  0  0  0  0  0  0  0  0  0  0  0
   -0.4029    5.1119   14.0187 H   0  0  0  0  0  0  0  0  0  0  0  0
  1  2  1  0
  2  3  1  0
  3  4  1  0
  4  5  1  0
  4  6  1  0
  6  7  1  0
  2  8  1  0
  7  8  1  0
  8  9  1  0
 10 11  1  0
 11 12  1  0
 12 13  1  0
 13 16  1  0
 10 17  1  0
 16 17  1  0
  9 18  1  0
 13 18  1  0
 15 18  1  0
  9 19  1  0
 12 19  1  0
 14 19  1  0
  1 20  1  0
  2 21  1  6
  3 22  1  0
  4 23  1  0
  5 24  1  0
  6 25  1  0
  6 26  1  0
  7 27  1  0
  7 28  1  0
  8 29  1  1
 10 30  1  0
 10 31  1  0
 11 32  1  0
 11 33  1  0
 12 34  1  0
 13 35  1  0
 14 36  1  0
 15 37  1  0
 16 38  1  0
 16 39  1  0
 17 40  1  0
 17 41  1  0
 18 42  1  0
 19 43  1  0
M  END
>  <PDBID>  (1) 
4CI1

>  <PDB ID>  (1) 
4CI1

>  <Generic Name>  (1) 
Thalidomide

>  <Brand Name>  (1) 
Thalomid#Contergan#Distaval#K-17#Pro-ban M#Sedalis#Softenon#Talimol#Thaled

>  <DrugBank ID>  (1) 
DB01041

>  <ATC Codes>  (1) 
L04AX02

>  <Ligand ID>  (1) 
EF2

>  <Target Name>  (1) 
Protein cereblon

>  <UniProt ID>  (1) 
Q96SW2

>  <PDB ID.1>  (1) 
4CI1

>  <Seq. Identity>  (1) 
86%

$$$$
