PDB_DB00188_81
     RDKit          3D

 53 54  0  0  0  0  0  0  0  0999 V2000
   61.5390 -134.6080   35.1330 N   0  0  0  0  0  0  0  0  0  0  0  0
   62.1810 -134.3780   36.2500 C   0  0  0  0  0  0  0  0  0  0  0  0
   63.3800 -133.7380   36.2380 C   0  0  0  0  0  0  0  0  0  0  0  0
   63.9320 -133.3570   35.0530 N   0  0  0  0  0  0  0  0  0  0  0  0
   63.2730 -133.6030   33.8970 C   0  0  0  0  0  0  0  0  0  0  0  0
   62.0690 -134.2360   33.9300 C   0  0  0  0  0  0  0  0  0  0  0  0
   61.6210 -134.7200   37.4370 C   0  0  0  0  0  0  0  0  0  0  0  0
   60.8120 -133.9730   37.9340 O   0  0  0  0  0  0  0  0  0  0  0  0
   62.0250 -135.8240   38.0060 N   0  0  0  0  0  0  0  0  0  0  0  0
   61.4950 -136.2050   39.3000 C   0  0  1  0  0  0  0  0  0  0  0  0
   60.8640 -137.5600   39.1480 C   0  0  0  0  0  0  0  0  0  0  0  0
   59.7200 -137.4050   38.4170 C   0  0  0  0  0  0  0  0  0  0  0  0
   59.5800 -138.0320   37.1980 C   0  0  0  0  0  0  0  0  0  0  0  0
   58.4160 -137.8650   36.4670 C   0  0  0  0  0  0  0  0  0  0  0  0
   57.3960 -137.0730   36.9370 C   0  0  0  0  0  0  0  0  0  0  0  0
   57.5440 -136.4500   38.1550 C   0  0  0  0  0  0  0  0  0  0  0  0
   58.6990 -136.6180   38.8960 C   0  0  0  0  0  0  0  0  0  0  0  0
   62.6590 -136.2500   40.2600 C   0  0  0  0  0  0  0  0  0  0  0  0
   63.7730 -136.4730   39.8460 O   0  0  0  0  0  0  0  0  0  0  0  0
   62.4130 -136.0200   41.5310 N   0  0  0  0  0  0  0  0  0  0  0  0
   63.4930 -136.0230   42.5080 C   0  0  1  0  0  0  0  0  0  0  0  0
   63.4450 -134.6640   43.1670 C   0  0  0  0  0  0  0  0  0  0  0  0
   64.2250 -133.5410   42.4720 C   0  0  0  0  0  0  0  0  0  0  0  0
   64.7450 -133.8950   41.0920 C   0  0  0  0  0  0  0  0  0  0  0  0
   63.2940 -132.3610   42.3450 C   0  0  0  0  0  0  0  0  0  0  0  0
   63.3470 -137.0640   43.6050 B   0  0  0  0  0  0  0  0  0  0  0  0
   63.1780 -138.3450   43.0770 O   0  0  0  0  0  0  0  0  0  0  0  0
   62.2380 -136.7550   44.3850 O   0  0  0  0  0  0  0  0  0  0  0  0
   63.9029 -133.5284   37.1828 H   0  0  0  0  0  0  0  0  0  0  0  0
   63.7084 -133.2928   32.9356 H   0  0  0  0  0  0  0  0  0  0  0  0
   61.5271 -134.4464   32.9962 H   0  0  0  0  0  0  0  0  0  0  0  0
   62.7189 -136.4227   37.5360 H   0  0  0  0  0  0  0  0  0  0  0  0
   60.7395 -135.5001   39.6773 H   0  0  0  0  0  0  0  0  0  0  0  0
   61.5541 -138.2383   38.6248 H   0  0  0  0  0  0  0  0  0  0  0  0
   60.6363 -137.9921   40.1336 H   0  0  0  0  0  0  0  0  0  0  0  0
   60.3910 -138.6637   36.8066 H   0  0  0  0  0  0  0  0  0  0  0  0
   58.3063 -138.3729   35.4975 H   0  0  0  0  0  0  0  0  0  0  0  0
   56.4760 -136.9392   36.3490 H   0  0  0  0  0  0  0  0  0  0  0  0
   56.7358 -135.8124   38.5427 H   0  0  0  0  0  0  0  0  0  0  0  0
   58.8016 -136.1206   39.8717 H   0  0  0  0  0  0  0  0  0  0  0  0
   61.4474 -135.8360   41.8386 H   0  0  0  0  0  0  0  0  0  0  0  0
   64.4308 -136.2562   41.9824 H   0  0  0  0  0  0  0  0  0  0  0  0
   62.3906 -134.3553   43.2210 H   0  0  0  0  0  0  0  0  0  0  0  0
   63.9317 -134.7960   44.1446 H   0  0  0  0  0  0  0  0  0  0  0  0
   65.1136 -133.3329   43.0861 H   0  0  0  0  0  0  0  0  0  0  0  0
   65.6508 -134.5116   41.1885 H   0  0  0  0  0  0  0  0  0  0  0  0
   63.9753 -134.4575   40.5433 H   0  0  0  0  0  0  0  0  0  0  0  0
   64.9861 -132.9726   40.5433 H   0  0  0  0  0  0  0  0  0  0  0  0
   63.0136 -132.0056   43.3475 H   0  0  0  0  0  0  0  0  0  0  0  0
   63.7998 -131.5521   41.7974 H   0  0  0  0  0  0  0  0  0  0  0  0
   62.3896 -132.6648   41.7974 H   0  0  0  0  0  0  0  0  0  0  0  0
   63.0919 -138.9979   43.8162 H   0  0  0  0  0  0  0  0  0  0  0  0
   62.4792 -136.8222   45.3428 H   0  0  0  0  0  0  0  0  0  0  0  0
  1  2  2  0
  2  3  1  0
  3  4  2  0
  4  5  1  0
  1  6  1  0
  5  6  2  0
  2  7  1  0
  7  8  2  0
  7  9  1  0
  9 10  1  0
 10 11  1  0
 11 12  1  0
 12 13  2  0
 13 14  1  0
 14 15  2  0
 15 16  1  0
 12 17  1  0
 16 17  2  0
 10 18  1  0
 18 19  2  0
 18 20  1  0
 20 21  1  0
 21 22  1  0
 22 23  1  0
 23 24  1  0
 23 25  1  0
 21 26  1  0
 26 27  1  0
 26 28  1  0
  3 29  1  0
  5 30  1  0
  6 31  1  0
  9 32  1  0
 10 33  1  1
 11 34  1  0
 11 35  1  0
 13 36  1  0
 14 37  1  0
 15 38  1  0
 16 39  1  0
 17 40  1  0
 20 41  1  0
 21 42  1  6
 22 43  1  0
 22 44  1  0
 23 45  1  0
 24 46  1  0
 24 47  1  0
 24 48  1  0
 25 49  1  0
 25 50  1  0
 25 51  1  0
 27 52  1  0
 28 53  1  0
M  END
$$$$
