PDB_DB00783_95
     RDKit          3D

200212  0  0  0  0  0  0  0  0999 V2000
  -24.9890   34.0470  -13.1180 C   0  0  0  0  0  0  0  0  0  0  0  0
  -24.9920   32.8270  -12.4600 C   0  0  0  0  0  0  0  0  0  0  0  0
  -25.5670   31.6990  -13.0400 C   0  0  0  0  0  0  0  0  0  0  0  0
  -25.5390   30.5170  -12.3900 O   0  0  0  0  0  0  0  0  0  0  0  0
  -26.1680   31.7930  -14.2870 C   0  0  0  0  0  0  0  0  0  0  0  0
  -26.2210   33.0080  -14.9710 C   0  0  0  0  0  0  0  0  0  0  0  0
  -26.9070   33.0880  -16.3180 C   0  0  0  0  0  0  0  0  0  0  0  0
  -27.2100   34.5240  -16.7240 C   0  0  0  0  0  0  0  0  0  0  0  0
  -25.9640   35.3850  -16.5630 C   0  0  2  0  0  0  0  0  0  0  0  0
  -25.6220   35.5380  -15.0760 C   0  0  1  0  0  0  0  0  0  0  0  0
  -25.5860   34.2130  -14.3700 C   0  0  0  0  0  0  0  0  0  0  0  0
  -24.3370   36.3770  -14.9180 C   0  0  0  0  0  0  0  0  0  0  0  0
  -24.4060   37.7390  -15.6510 C   0  0  0  0  0  0  0  0  0  0  0  0
  -24.8400   37.6050  -17.1040 C   0  0  1  0  0  0  0  0  0  0  0  0
  -26.1290   36.7930  -17.1660 C   0  0  1  0  0  0  0  0  0  0  0  0
  -26.5990   36.9710  -18.6170 C   0  0  0  0  0  0  0  0  0  0  0  0
  -26.1550   38.3830  -19.0090 C   0  0  0  0  0  0  0  0  0  0  0  0
  -25.2820   38.8730  -17.8320 C   0  0  2  0  0  0  0  0  0  0  0  0
  -24.2080   39.6740  -18.3330 O   0  0  0  0  0  0  0  0  0  0  0  0
  -23.7230   36.9410  -17.8820 C   0  0  0  0  0  0  0  0  0  0  0  0
  -21.3300   33.5580  -47.5880 C   0  0  0  0  0  0  0  0  0  0  0  0
  -21.9910   32.5020  -48.2270 C   0  0  0  0  0  0  0  0  0  0  0  0
  -22.1370   31.2480  -47.6280 C   0  0  0  0  0  0  0  0  0  0  0  0
  -22.7710   30.2410  -48.3020 O   0  0  0  0  0  0  0  0  0  0  0  0
  -21.5990   31.0100  -46.3700 C   0  0  0  0  0  0  0  0  0  0  0  0
  -20.9320   32.0380  -45.6960 C   0  0  0  0  0  0  0  0  0  0  0  0
  -20.3820   31.7680  -44.3220 C   0  0  0  0  0  0  0  0  0  0  0  0
  -19.2930   32.7590  -43.9830 C   0  0  0  0  0  0  0  0  0  0  0  0
  -19.8560   34.1440  -44.1120 C   0  0  2  0  0  0  0  0  0  0  0  0
  -20.0370   34.4620  -45.6040 C   0  0  1  0  0  0  0  0  0  0  0  0
  -20.8010   33.3800  -46.3020 C   0  0  1  0  0  0  0  0  0  0  0  0
  -20.6180   35.8540  -45.7990 C   0  0  0  0  0  0  0  0  0  0  0  0
  -19.7950   36.9390  -45.0950 C   0  0  0  0  0  0  0  0  0  0  0  0
  -19.5450   36.5820  -43.6360 C   0  0  1  0  0  0  0  0  0  0  0  0
  -18.9330   35.2030  -43.5220 C   0  0  1  0  0  0  0  0  0  0  0  0
  -18.4720   35.1100  -42.0570 C   0  0  0  0  0  0  0  0  0  0  0  0
  -18.0770   36.5490  -41.6880 C   0  0  0  0  0  0  0  0  0  0  0  0
  -18.4600   37.3790  -42.9160 C   0  0  2  0  0  0  0  0  0  0  0  0
  -18.8850   38.6680  -42.4950 O   0  0  0  0  0  0  0  0  0  0  0  0
  -20.8850   36.6940  -42.8940 C   0  0  0  0  0  0  0  0  0  0  0  0
  -25.4040   15.5910    9.0130 C   0  0  0  0  0  0  0  0  0  0  0  0
  -25.3580   16.8170    8.3590 C   0  0  0  0  0  0  0  0  0  0  0  0
  -25.9710   17.9360    8.8980 C   0  0  0  0  0  0  0  0  0  0  0  0
  -25.9280   19.1200    8.2510 O   0  0  0  0  0  0  0  0  0  0  0  0
  -26.6230   17.8470   10.1290 C   0  0  0  0  0  0  0  0  0  0  0  0
  -26.7000   16.6420   10.8190 C   0  0  0  0  0  0  0  0  0  0  0  0
  -27.4390   16.5860   12.1390 C   0  0  0  0  0  0  0  0  0  0  0  0
  -27.7550   15.1530   12.5310 C   0  0  0  0  0  0  0  0  0  0  0  0
  -26.5150   14.2880   12.4210 C   0  0  2  0  0  0  0  0  0  0  0  0
  -26.1220   14.1190   10.9510 C   0  0  1  0  0  0  0  0  0  0  0  0
  -26.0420   15.4410   10.2510 C   0  0  1  0  0  0  0  0  0  0  0  0
  -24.8630   13.2280   10.8120 C   0  0  0  0  0  0  0  0  0  0  0  0
  -24.9840   11.8660   11.5230 C   0  0  0  0  0  0  0  0  0  0  0  0
  -25.4370   12.0420   12.9630 C   0  0  1  0  0  0  0  0  0  0  0  0
  -26.7120   12.8880   13.0100 C   0  0  1  0  0  0  0  0  0  0  0  0
  -27.2150   12.7290   14.4470 C   0  0  0  0  0  0  0  0  0  0  0  0
  -26.8000   11.3050   14.8400 C   0  0  0  0  0  0  0  0  0  0  0  0
  -25.9410   10.7890   13.6760 C   0  0  2  0  0  0  0  0  0  0  0  0
  -24.8950    9.9330   14.1370 O   0  0  0  0  0  0  0  0  0  0  0  0
  -24.2710   12.6380   13.7620 C   0  0  0  0  0  0  0  0  0  0  0  0
  -21.8540   15.8010   43.1070 C   0  0  0  0  0  0  0  0  0  0  0  0
  -22.4600   16.8550   43.7980 C   0  0  0  0  0  0  0  0  0  0  0  0
  -22.4500   18.1610   43.3010 C   0  0  0  0  0  0  0  0  0  0  0  0
  -23.0630   19.1490   44.0230 O   0  0  0  0  0  0  0  0  0  0  0  0
  -21.8590   18.4480   42.0740 C   0  0  0  0  0  0  0  0  0  0  0  0
  -21.2420   17.4310   41.3420 C   0  0  0  0  0  0  0  0  0  0  0  0
  -20.5880   17.7540   40.0130 C   0  0  0  0  0  0  0  0  0  0  0  0
  -19.6310   16.6750   39.5470 C   0  0  0  0  0  0  0  0  0  0  0  0
  -20.3160   15.3230   39.6500 C   0  0  2  0  0  0  0  0  0  0  0  0
  -20.5600   14.9380   41.1170 C   0  0  1  0  0  0  0  0  0  0  0  0
  -21.2500   16.0310   41.8680 C   0  0  1  0  0  0  0  0  0  0  0  0
  -21.2480   13.5780   41.2400 C   0  0  0  0  0  0  0  0  0  0  0  0
  -20.4750   12.4810   40.4900 C   0  0  0  0  0  0  0  0  0  0  0  0
  -20.2010   12.8650   39.0350 C   0  0  1  0  0  0  0  0  0  0  0  0
  -19.4940   14.2100   39.0130 C   0  0  1  0  0  0  0  0  0  0  0  0
  -19.0080   14.3590   37.5830 C   0  0  0  0  0  0  0  0  0  0  0  0
  -18.6890   12.9230   37.1520 C   0  0  0  0  0  0  0  0  0  0  0  0
  -19.1740   12.0210   38.2890 C   0  0  2  0  0  0  0  0  0  0  0  0
  -19.6460   10.7570   37.7890 O   0  0  0  0  0  0  0  0  0  0  0  0
  -21.5290   12.8610   38.2850 C   0  0  0  0  0  0  0  0  0  0  0  0
  -25.4831   34.7620  -12.4437 H   0  0  0  0  0  0  0  0  0  0  0  0
  -23.9223   34.1821  -13.3504 H   0  0  0  0  0  0  0  0  0  0  0  0
  -23.9393   32.5752  -12.2639 H   0  0  0  0  0  0  0  0  0  0  0  0
  -25.6508   33.0184  -11.6002 H   0  0  0  0  0  0  0  0  0  0  0  0
  -24.6077   31.4573  -13.5209 H   0  0  0  0  0  0  0  0  0  0  0  0
  -25.5428   30.6774  -11.4131 H   0  0  0  0  0  0  0  0  0  0  0  0
  -25.6373   31.0878  -14.9435 H   0  0  0  0  0  0  0  0  0  0  0  0
  -27.2264   31.5977  -14.0599 H   0  0  0  0  0  0  0  0  0  0  0  0
  -25.2701   32.7688  -15.4695 H   0  0  0  0  0  0  0  0  0  0  0  0
  -26.2515   32.6360  -17.0769 H   0  0  0  0  0  0  0  0  0  0  0  0
  -27.8630   32.5491  -16.2430 H   0  0  0  0  0  0  0  0  0  0  0  0
  -27.5338   34.5448  -17.7751 H   0  0  0  0  0  0  0  0  0  0  0  0
  -28.0085   34.9205  -16.0797 H   0  0  0  0  0  0  0  0  0  0  0  0
  -25.1576   34.8700  -17.1057 H   0  0  0  0  0  0  0  0  0  0  0  0
  -26.4263   36.0940  -14.5721 H   0  0  0  0  0  0  0  0  0  0  0  0
  -24.6345   33.9549  -14.8579 H   0  0  0  0  0  0  0  0  0  0  0  0
  -24.1707   36.5641  -13.8469 H   0  0  0  0  0  0  0  0  0  0  0  0
  -23.5138   35.8035  -15.3690 H   0  0  0  0  0  0  0  0  0  0  0  0
  -25.1265   38.3842  -15.1270 H   0  0  0  0  0  0  0  0  0  0  0  0
  -23.3939   38.1698  -15.6458 H   0  0  0  0  0  0  0  0  0  0  0  0
  -26.9493   37.1299  -16.5152 H   0  0  0  0  0  0  0  0  0  0  0  0
  -26.1273   36.2224  -19.2705 H   0  0  0  0  0  0  0  0  0  0  0  0
  -27.6862   36.8377  -18.7176 H   0  0  0  0  0  0  0  0  0  0  0  0
  -25.5696   38.3590  -19.9400 H   0  0  0  0  0  0  0  0  0  0  0  0
  -27.0118   39.0484  -19.1909 H   0  0  0  0  0  0  0  0  0  0  0  0
  -25.8116   39.5274  -17.1240 H   0  0  0  0  0  0  0  0  0  0  0  0
  -23.6982   40.0542  -17.5743 H   0  0  0  0  0  0  0  0  0  0  0  0
  -22.9946   36.5080  -17.1805 H   0  0  0  0  0  0  0  0  0  0  0  0
  -24.1405   36.1443  -18.5153 H   0  0  0  0  0  0  0  0  0  0  0  0
  -23.2226   37.6884  -18.5153 H   0  0  0  0  0  0  0  0  0  0  0  0
  -20.4916   33.8475  -48.2386 H   0  0  0  0  0  0  0  0  0  0  0  0
  -22.1289   34.2978  -47.4318 H   0  0  0  0  0  0  0  0  0  0  0  0
  -23.0084   32.8608  -48.4417 H   0  0  0  0  0  0  0  0  0  0  0  0
  -21.3140   32.2797  -49.0650 H   0  0  0  0  0  0  0  0  0  0  0  0
  -23.0984   31.5654  -47.1979 H   0  0  0  0  0  0  0  0  0  0  0  0
  -23.1691   29.6087  -47.6525 H   0  0  0  0  0  0  0  0  0  0  0  0
  -22.4294   30.6906  -45.7231 H   0  0  0  0  0  0  0  0  0  0  0  0
  -20.8048   30.2746  -46.5660 H   0  0  0  0  0  0  0  0  0  0  0  0
  -21.8838   32.3638  -45.2510 H   0  0  0  0  0  0  0  0  0  0  0  0
  -21.1930   31.8551  -43.5840 H   0  0  0  0  0  0  0  0  0  0  0  0
  -19.9579   30.7532  -44.3020 H   0  0  0  0  0  0  0  0  0  0  0  0
  -18.9475   32.5930  -42.9520 H   0  0  0  0  0  0  0  0  0  0  0  0
  -18.4406   32.6324  -44.6666 H   0  0  0  0  0  0  0  0  0  0  0  0
  -20.8086   34.1671  -43.5624 H   0  0  0  0  0  0  0  0  0  0  0  0
  -19.0480   34.4805  -46.0852 H   0  0  0  0  0  0  0  0  0  0  0  0
  -21.7670   33.6720  -45.8642 H   0  0  0  0  0  0  0  0  0  0  0  0
  -20.6466   36.0764  -46.8759 H   0  0  0  0  0  0  0  0  0  0  0  0
  -21.6254   35.8600  -45.3572 H   0  0  0  0  0  0  0  0  0  0  0  0
  -18.8283   37.0458  -45.6088 H   0  0  0  0  0  0  0  0  0  0  0  0
  -20.3599   37.8822  -45.1305 H   0  0  0  0  0  0  0  0  0  0  0  0
  -18.0416   35.0074  -44.1361 H   0  0  0  0  0  0  0  0  0  0  0  0
  -19.2899   34.7538  -41.4135 H   0  0  0  0  0  0  0  0  0  0  0  0
  -17.6424   34.4002  -41.9229 H   0  0  0  0  0  0  0  0  0  0  0  0
  -18.6313   36.8889  -40.8008 H   0  0  0  0  0  0  0  0  0  0  0  0
  -17.0093   36.6387  -41.4392 H   0  0  0  0  0  0  0  0  0  0  0  0
  -17.6222   37.5523  -43.6074 H   0  0  0  0  0  0  0  0  0  0  0  0
  -18.8971   38.7047  -41.5058 H   0  0  0  0  0  0  0  0  0  0  0  0
  -20.7056   36.6790  -41.8088 H   0  0  0  0  0  0  0  0  0  0  0  0
  -21.3798   37.6366  -43.1709 H   0  0  0  0  0  0  0  0  0  0  0  0
  -21.5294   35.8466  -43.1709 H   0  0  0  0  0  0  0  0  0  0  0  0
  -25.8981   14.8908    8.3234 H   0  0  0  0  0  0  0  0  0  0  0  0
  -24.3480   15.4236    9.2717 H   0  0  0  0  0  0  0  0  0  0  0  0
  -24.2938   17.0693    8.2417 H   0  0  0  0  0  0  0  0  0  0  0  0
  -25.9508   16.6297    7.4515 H   0  0  0  0  0  0  0  0  0  0  0  0
  -25.0406   18.1911    9.4266 H   0  0  0  0  0  0  0  0  0  0  0  0
  -25.9013   19.8565    8.9120 H   0  0  0  0  0  0  0  0  0  0  0  0
  -26.1200   18.5587   10.8001 H   0  0  0  0  0  0  0  0  0  0  0  0
  -27.6724   18.0350    9.8580 H   0  0  0  0  0  0  0  0  0  0  0  0
  -25.7688   16.8870   11.3508 H   0  0  0  0  0  0  0  0  0  0  0  0
  -26.8132   17.0420   12.9202 H   0  0  0  0  0  0  0  0  0  0  0  0
  -28.3863   17.1348   12.0315 H   0  0  0  0  0  0  0  0  0  0  0  0
  -28.1195   15.1333   13.5687 H   0  0  0  0  0  0  0  0  0  0  0  0
  -28.5254   14.7594   11.8516 H   0  0  0  0  0  0  0  0  0  0  0  0
  -25.7302   14.8043   12.9932 H   0  0  0  0  0  0  0  0  0  0  0  0
  -26.9187   13.5734   10.4242 H   0  0  0  0  0  0  0  0  0  0  0  0
  -25.1075   15.7098   10.7652 H   0  0  0  0  0  0  0  0  0  0  0  0
  -24.6831   13.0461    9.7422 H   0  0  0  0  0  0  0  0  0  0  0  0
  -24.0336   13.7678   11.2922 H   0  0  0  0  0  0  0  0  0  0  0  0
  -25.7178   11.2450   10.9883 H   0  0  0  0  0  0  0  0  0  0  0  0
  -23.9964   11.3815   11.5229 H   0  0  0  0  0  0  0  0  0  0  0  0
  -27.5208   12.5588   12.3410 H   0  0  0  0  0  0  0  0  0  0  0  0
  -26.7422   13.4692   15.1092 H   0  0  0  0  0  0  0  0  0  0  0  0
  -28.3000   12.8885   14.5320 H   0  0  0  0  0  0  0  0  0  0  0  0
  -26.2156   11.3187   15.7718 H   0  0  0  0  0  0  0  0  0  0  0  0
  -27.6738   10.6609   15.0178 H   0  0  0  0  0  0  0  0  0  0  0  0
  -26.5118   10.1571   12.9797 H   0  0  0  0  0  0  0  0  0  0  0  0
  -24.8865    9.9260   15.1269 H   0  0  0  0  0  0  0  0  0  0  0  0
  -24.4733   12.5346   14.8383 H   0  0  0  0  0  0  0  0  0  0  0  0
  -23.3430   12.1037   13.5103 H   0  0  0  0  0  0  0  0  0  0  0  0
  -24.1606   13.7031   13.5103 H   0  0  0  0  0  0  0  0  0  0  0  0
  -21.0752   15.3941   43.7688 H   0  0  0  0  0  0  0  0  0  0  0  0
  -22.7003   15.1444   42.8566 H   0  0  0  0  0  0  0  0  0  0  0  0
  -23.5177   16.5781   43.9188 H   0  0  0  0  0  0  0  0  0  0  0  0
  -21.8286   16.9408   44.6947 H   0  0  0  0  0  0  0  0  0  0  0  0
  -23.3924   17.9655   42.7684 H   0  0  0  0  0  0  0  0  0  0  0  0
  -22.9512   18.9688   44.9900 H   0  0  0  0  0  0  0  0  0  0  0  0
  -22.6474   18.8680   41.4321 H   0  0  0  0  0  0  0  0  0  0  0  0
  -21.0222   19.1088   42.3444 H   0  0  0  0  0  0  0  0  0  0  0  0
  -22.1914   17.2270   40.8252 H   0  0  0  0  0  0  0  0  0  0  0  0
  -21.3757   17.8754   39.2549 H   0  0  0  0  0  0  0  0  0  0  0  0
  -20.0038   18.6761   40.1489 H   0  0  0  0  0  0  0  0  0  0  0  0
  -19.3441   16.8637   38.5020 H   0  0  0  0  0  0  0  0  0  0  0  0
  -18.7297   16.6822   40.1776 H   0  0  0  0  0  0  0  0  0  0  0  0
  -21.2698   15.4277   39.1122 H   0  0  0  0  0  0  0  0  0  0  0  0
  -19.5799   14.8177   41.6016 H   0  0  0  0  0  0  0  0  0  0  0  0
  -22.2111   15.8477   41.3654 H   0  0  0  0  0  0  0  0  0  0  0  0
  -21.3119   13.3055   42.3038 H   0  0  0  0  0  0  0  0  0  0  0  0
  -22.2500   13.6585   40.7934 H   0  0  0  0  0  0  0  0  0  0  0  0
  -19.5148   12.3118   40.9994 H   0  0  0  0  0  0  0  0  0  0  0  0
  -21.0919   11.5703   40.4904 H   0  0  0  0  0  0  0  0  0  0  0  0
  -18.6135   14.2823   39.6683 H   0  0  0  0  0  0  0  0  0  0  0  0
  -19.7924   14.7939   36.9461 H   0  0  0  0  0  0  0  0  0  0  0  0
  -18.1413   15.0308   37.4968 H   0  0  0  0  0  0  0  0  0  0  0  0
  -19.2173   12.6783   36.2187 H   0  0  0  0  0  0  0  0  0  0  0  0
  -17.6135   12.7894   36.9640 H   0  0  0  0  0  0  0  0  0  0  0  0
  -18.3801   11.7141   38.9858 H   0  0  0  0  0  0  0  0  0  0  0  0
  -19.8677   10.1633   38.5496 H   0  0  0  0  0  0  0  0  0  0  0  0
  -22.3583   12.8585   39.0077 H   0  0  0  0  0  0  0  0  0  0  0  0
  -21.5960   13.7589   37.6532 H   0  0  0  0  0  0  0  0  0  0  0  0
  -21.5906   11.9627   37.6532 H   0  0  0  0  0  0  0  0  0  0  0  0
  1  2  1  0
  2  3  1  0
  3  4  1  0
  3  5  1  0
  5  6  1  0
  6  7  1  0
  7  8  1  0
  8  9  1  0
  9 10  1  0
  1 11  1  0
  6 11  1  0
 10 11  1  0
 10 12  1  0
 12 13  1  0
 13 14  1  0
  9 15  1  0
 14 15  1  0
 15 16  1  0
 16 17  1  0
 14 18  1  0
 17 18  1  0
 18 19  1  0
 14 20  1  6
 21 22  1  0
 22 23  1  0
 23 24  1  0
 23 25  1  0
 25 26  1  0
 26 27  1  0
 27 28  1  0
 28 29  1  0
 29 30  1  0
 21 31  1  0
 26 31  1  0
 30 31  1  0
 30 32  1  0
 32 33  1  0
 33 34  1  0
 29 35  1  0
 34 35  1  0
 35 36  1  0
 36 37  1  0
 34 38  1  0
 37 38  1  0
 38 39  1  0
 34 40  1  1
 41 42  1  0
 42 43  1  0
 43 44  1  0
 43 45  1  0
 45 46  1  0
 46 47  1  0
 47 48  1  0
 48 49  1  0
 49 50  1  0
 41 51  1  0
 46 51  1  0
 50 51  1  0
 50 52  1  0
 52 53  1  0
 53 54  1  0
 49 55  1  0
 54 55  1  0
 55 56  1  0
 56 57  1  0
 54 58  1  0
 57 58  1  0
 58 59  1  0
 54 60  1  1
 61 62  1  0
 62 63  1  0
 63 64  1  0
 63 65  1  0
 65 66  1  0
 66 67  1  0
 67 68  1  0
 68 69  1  0
 69 70  1  0
 61 71  1  0
 66 71  1  0
 70 71  1  0
 70 72  1  0
 72 73  1  0
 73 74  1  0
 69 75  1  0
 74 75  1  0
 75 76  1  0
 76 77  1  0
 74 78  1  0
 77 78  1  0
 78 79  1  0
 74 80  1  6
  1 81  1  0
  1 82  1  0
  2 83  1  0
  2 84  1  0
  3 85  1  0
  4 86  1  0
  5 87  1  0
  5 88  1  0
  6 89  1  0
  7 90  1  0
  7 91  1  0
  8 92  1  0
  8 93  1  0
  9 94  1  6
 10 95  1  1
 11 96  1  0
 12 97  1  0
 12 98  1  0
 13 99  1  0
 13100  1  0
 15101  1  1
 16102  1  0
 16103  1  0
 17104  1  0
 17105  1  0
 18106  1  1
 19107  1  0
 20108  1  0
 20109  1  0
 20110  1  0
 21111  1  0
 21112  1  0
 22113  1  0
 22114  1  0
 23115  1  0
 24116  1  0
 25117  1  0
 25118  1  0
 26119  1  0
 27120  1  0
 27121  1  0
 28122  1  0
 28123  1  0
 29124  1  1
 30125  1  6
 31126  1  1
 32127  1  0
 32128  1  0
 33129  1  0
 33130  1  0
 35131  1  6
 36132  1  0
 36133  1  0
 37134  1  0
 37135  1  0
 38136  1  6
 39137  1  0
 40138  1  0
 40139  1  0
 40140  1  0
 41141  1  0
 41142  1  0
 42143  1  0
 42144  1  0
 43145  1  0
 44146  1  0
 45147  1  0
 45148  1  0
 46149  1  0
 47150  1  0
 47151  1  0
 48152  1  0
 48153  1  0
 49154  1  1
 50155  1  6
 51156  1  1
 52157  1  0
 52158  1  0
 53159  1  0
 53160  1  0
 55161  1  6
 56162  1  0
 56163  1  0
 57164  1  0
 57165  1  0
 58166  1  6
 59167  1  0
 60168  1  0
 60169  1  0
 60170  1  0
 61171  1  0
 61172  1  0
 62173  1  0
 62174  1  0
 63175  1  0
 64176  1  0
 65177  1  0
 65178  1  0
 66179  1  0
 67180  1  0
 67181  1  0
 68182  1  0
 68183  1  0
 69184  1  6
 70185  1  1
 71186  1  6
 72187  1  0
 72188  1  0
 73189  1  0
 73190  1  0
 75191  1  1
 76192  1  0
 76193  1  0
 77194  1  0
 77195  1  0
 78196  1  1
 79197  1  0
 80198  1  0
 80199  1  0
 80200  1  0
M  END
>  <PDBID>  (1) 
4J24

>  <PDB ID>  (1) 
4J24

>  <Generic Name>  (1) 
Estradiol

>  <Brand Name>  (1) 
Activella#Activelle#Activelle Ld#Alora#Amabelz#Angeliq#Climara#Climara 100#Climara 25#Climara 50#Climara 75#Climara Pro#Combipatch#Combipatch (estradiol/norethindrone Acetate Transdermal System)#Delestrogen#Delestrogen Inj 10mg/ml#Depo-estradiol#Divigel#Elestrin#Estalis 140/50 Mcg#Estalis 250/50 Mcg#Estalis Sequi#Estrace#Estrace Tab 1mg#Estrace Tab 2mg#Estracomb#Estraderm-100#Estraderm-25#Estraderm-50#Estradiol#Estradiol / Norethindrone Acetate#Estradiol Transdermal System#Estradiol Valerate#Estradot 100#Estradot 25#Estradot 37.5#Estradot 50#Estradot 75#Estring#Estrogel#Estrogel Propak#Evamist#Femring#Lopreeza#Lupin-estradiol#Menostar#Mimvey#Mimvey Lo#Minivelle#Natazia#Neo Pause Injection#Neo-diol Inj 20mg/ml#Oesclim#PMS-estradiol Valerate Inj 10mg/ml#Prefesta#Sandoz Estradiol Derm 100#Sandoz Estradiol Derm 50#Sandoz Estradiol Derm 75#Vagifem#Vagifem 10#Vivelle 100mcg#Vivelle 37.5mcg#Vivelle 50mcg#Vivelle 75mcg#Vivelle Dot#Vivelle-dot#Yuvafem#Estraderm MX#Estraderm TTS#Estrasorb#Estrofem#Femtrace#Innofem#Vivelle

>  <DrugBank ID>  (1) 
DB00783

>  <ATC Codes>  (1) 
G03FA16#G03FA11#G03FA12#G03FB12#G03FA17#G03FA05#G03FB09#G03FA14#G03FA08#G03AA14#G03EA03#G03FB01#G03AB08#G03EA02#G03FB05#G03HB01#G03FB11#G03CA53#G03FB04#G03FA07#G03FB07#G03FB02#G03FB10#G03FA06#G03CA03#G03FA15#G03FA09#G03FA13#G03EA01#G03FB06#G03FA01#G03FA02#G02BB01#G03FA03#G03FB08#G03FA10#G03FA04#G03FB03

>  <Ligand ID>  (1) 
EST

>  <Target Name>  (1) 
Estrogen receptor beta

>  <UniProt ID>  (1) 
Q92731

>  <PDB ID.1>  (1) 
4J24

>  <Seq. Identity>  (1) 
100%

$$$$
