PDB_DB01113_99
     RDKit          3D

 46 48  0  0  0  0  0  0  0  0999 V2000
   19.3910  -12.1420   19.1400 C   0  0  0  0  0  0  0  0  0  0  0  0
   20.2170  -11.4800   20.1010 O   0  0  0  0  0  0  0  0  0  0  0  0
   20.7990  -10.2660   19.8140 C   0  0  0  0  0  0  0  0  0  0  0  0
   20.0650   -8.9860   20.0360 C   0  0  0  0  0  0  0  0  0  0  0  0
   18.7830   -8.9780   20.5340 O   0  0  0  0  0  0  0  0  0  0  0  0
   18.3790   -7.9960   21.4930 C   0  0  0  0  0  0  0  0  0  0  0  0
   20.7010   -7.7870   19.7220 C   0  0  0  0  0  0  0  0  0  0  0  0
   21.9970   -7.7820   19.2200 C   0  0  0  0  0  0  0  0  0  0  0  0
   22.0980  -10.2040   19.3080 C   0  0  0  0  0  0  0  0  0  0  0  0
   22.6860   -8.9720   19.0120 C   0  0  0  0  0  0  0  0  0  0  0  0
   24.0940   -8.9410   18.4710 C   0  0  0  0  0  0  0  0  0  0  0  0
   24.3240   -7.7890   17.5180 C   0  0  0  0  0  0  0  0  0  0  0  0
   24.7590   -6.5990   18.0020 N   0  0  0  0  0  0  0  0  0  0  0  0
   24.9880   -5.5360   17.2080 C   0  0  0  0  0  0  0  0  0  0  0  0
   24.8060   -5.5710   15.8230 C   0  0  0  0  0  0  0  0  0  0  0  0
   24.3680   -6.7380   15.2030 C   0  0  0  0  0  0  0  0  0  0  0  0
   24.1010   -7.9330   16.0490 C   0  0  0  0  0  0  0  0  0  0  0  0
   23.6600   -9.1170   15.4630 C   0  0  0  0  0  0  0  0  0  0  0  0
   23.4680   -9.1760   14.0810 C   0  0  0  0  0  0  0  0  0  0  0  0
   23.0390  -10.3280   13.4780 O   0  0  0  0  0  0  0  0  0  0  0  0
   22.0500  -11.1470   14.0920 C   0  0  0  0  0  0  0  0  0  0  0  0
   23.7410   -7.9840   13.2320 C   0  0  0  0  0  0  0  0  0  0  0  0
   24.1780   -6.7960   13.8240 C   0  0  0  0  0  0  0  0  0  0  0  0
   23.5390   -8.0810   11.8750 O   0  0  0  0  0  0  0  0  0  0  0  0
   24.2370   -7.2560   10.9380 C   0  0  0  0  0  0  0  0  0  0  0  0
   18.6352  -12.7477   19.6614 H   0  0  0  0  0  0  0  0  0  0  0  0
   18.8895  -11.3930   18.5096 H   0  0  0  0  0  0  0  0  0  0  0  0
   20.0128  -12.7946   18.5096 H   0  0  0  0  0  0  0  0  0  0  0  0
   18.5399   -8.3872   22.5084 H   0  0  0  0  0  0  0  0  0  0  0  0
   18.9738   -7.0812   21.3539 H   0  0  0  0  0  0  0  0  0  0  0  0
   17.3126   -7.7646   21.3539 H   0  0  0  0  0  0  0  0  0  0  0  0
   20.1720   -6.8344   19.8729 H   0  0  0  0  0  0  0  0  0  0  0  0
   22.4841   -6.8243   18.9841 H   0  0  0  0  0  0  0  0  0  0  0  0
   22.6634  -11.1327   19.1409 H   0  0  0  0  0  0  0  0  0  0  0  0
   24.7938   -8.8460   19.3144 H   0  0  0  0  0  0  0  0  0  0  0  0
   24.2576   -9.8743   17.9123 H   0  0  0  0  0  0  0  0  0  0  0  0
   25.3334   -4.5992   17.6697 H   0  0  0  0  0  0  0  0  0  0  0  0
   25.0095   -4.6734   15.2206 H   0  0  0  0  0  0  0  0  0  0  0  0
   23.4637  -10.0020   16.0861 H   0  0  0  0  0  0  0  0  0  0  0  0
   22.1398  -11.0726   15.1858 H   0  0  0  0  0  0  0  0  0  0  0  0
   21.0501  -10.8089   13.7824 H   0  0  0  0  0  0  0  0  0  0  0  0
   22.1958  -12.1924   13.7824 H   0  0  0  0  0  0  0  0  0  0  0  0
   24.3715   -5.9090   13.2029 H   0  0  0  0  0  0  0  0  0  0  0  0
   24.8548   -6.5258   11.4814 H   0  0  0  0  0  0  0  0  0  0  0  0
   24.8822   -7.8840   10.3060 H   0  0  0  0  0  0  0  0  0  0  0  0
   23.5109   -6.7237   10.3060 H   0  0  0  0  0  0  0  0  0  0  0  0
  1  2  1  0
  2  3  1  0
  3  4  2  0
  4  5  1  0
  5  6  1  0
  4  7  1  0
  7  8  2  0
  3  9  1  0
  8 10  1  0
  9 10  2  0
 10 11  1  0
 11 12  1  0
 12 13  2  0
 13 14  1  0
 14 15  2  0
 15 16  1  0
 12 17  1  0
 16 17  2  0
 17 18  1  0
 18 19  2  0
 19 20  1  0
 20 21  1  0
 19 22  1  0
 16 23  1  0
 22 23  2  0
 22 24  1  0
 24 25  1  0
  1 26  1  0
  1 27  1  0
  1 28  1  0
  6 29  1  0
  6 30  1  0
  6 31  1  0
  7 32  1  0
  8 33  1  0
  9 34  1  0
 11 35  1  0
 11 36  1  0
 14 37  1  0
 15 38  1  0
 18 39  1  0
 21 40  1  0
 21 41  1  0
 21 42  1  0
 23 43  1  0
 25 44  1  0
 25 45  1  0
 25 46  1  0
M  END
>  <PDBID>  (1) 
3IAK

>  <PDB ID>  (1) 
3IAK

>  <Generic Name>  (1) 
Papaverine

>  <Brand Name>  (1) 
Papaverine Hydrochloride#Papaverine Hydrochloride Injection USP#Alapav#Albatran#Artegodan#Cardioverina#Cerebid#Cerespan#Delapav#Dilaves#Dispamil#Drapavel#Durapav#Dynovas#Mesotina#Myobid#Optenyl#Pameion#Pamelon#Panergon#Papacon#Papalease#Papaversan#Papital T.R.#Paptial T.R.#Pavabid#Pavacap#Pavacen#Pavadel#Pavagen#Pavakey#Pavased#Pavatest#Paverolan#Paveron#Pavnell#Qua Bid#Ro-Papav#Therapav#Vasal#Vaso-Pav

>  <DrugBank ID>  (1) 
DB01113

>  <ATC Codes>  (1) 
G04BE52#G04BE02#A03AD01

>  <Ligand ID>  (1) 
EV1

>  <Target Name>  (1) 
cAMP-specific 3',5'-cyclic phosphodiesterase 4B

>  <UniProt ID>  (1) 
Q07343

>  <PDB ID.1>  (1) 
3IAK

>  <Seq. Identity>  (1) 
85%

$$$$
