PDB_DB05812_98
     RDKit          3D

 57 61  0  0  0  0  0  0  0  0999 V2000
   27.2280   31.4370   54.8720 C   0  0  0  0  0  0  0  0  0  0  0  0
   27.5630   30.0200   55.3190 C   0  0  0  0  0  0  0  0  0  0  0  0
   28.9420   30.0450   55.9350 C   0  0  2  0  0  0  0  0  0  0  0  0
   29.3380   28.7240   56.2740 O   0  0  0  0  0  0  0  0  0  0  0  0
   28.8970   30.8400   57.2340 C   0  0  0  0  0  0  0  0  0  0  0  0
   28.3880   32.2260   56.9790 C   0  0  0  0  0  0  0  0  0  0  0  0
   28.9460   33.2170   57.6900 C   0  0  0  0  0  0  0  0  0  0  0  0
   29.0070   34.6130   57.1010 C   0  0  0  0  0  0  0  0  0  0  0  0
   27.7180   34.9360   56.3620 C   0  0  2  0  0  0  0  0  0  0  0  0
   27.4740   33.8480   55.3100 C   0  0  1  0  0  0  0  0  0  0  0  0
   27.2550   32.4810   55.9830 C   0  0  1  0  0  0  0  0  0  0  0  0
   26.4140   34.2230   54.2430 C   0  0  0  0  0  0  0  0  0  0  0  0
   26.3910   35.6890   53.7790 C   0  0  0  0  0  0  0  0  0  0  0  0
   26.5330   36.6930   54.9240 C   0  0  1  0  0  0  0  0  0  0  0  0
   27.7840   36.3020   55.6850 C   0  0  1  0  0  0  0  0  0  0  0  0
   28.1560   37.5160   56.5120 C   0  0  0  0  0  0  0  0  0  0  0  0
   27.7360   38.7150   55.6840 C   0  0  0  0  0  0  0  0  0  0  0  0
   26.8940   38.1110   54.5830 C   0  0  0  0  0  0  0  0  0  0  0  0
   25.2820   36.8310   55.7940 C   0  0  0  0  0  0  0  0  0  0  0  0
   25.9600   32.4070   56.8170 C   0  0  0  0  0  0  0  0  0  0  0  0
   26.5180   38.8840   53.3280 C   0  0  0  0  0  0  0  0  0  0  0  0
   27.4330   39.7520   52.7220 C   0  0  0  0  0  0  0  0  0  0  0  0
   27.1290   40.4600   51.6170 N   0  0  0  0  0  0  0  0  0  0  0  0
   25.9260   40.3380   51.0630 C   0  0  0  0  0  0  0  0  0  0  0  0
   24.9610   39.4950   51.5930 C   0  0  0  0  0  0  0  0  0  0  0  0
   25.2490   38.7630   52.7440 C   0  0  0  0  0  0  0  0  0  0  0  0
   27.9573   31.7351   54.1044 H   0  0  0  0  0  0  0  0  0  0  0  0
   26.1934   31.4078   54.4995 H   0  0  0  0  0  0  0  0  0  0  0  0
   26.8273   29.6780   56.0618 H   0  0  0  0  0  0  0  0  0  0  0  0
   27.5368   29.3302   54.4625 H   0  0  0  0  0  0  0  0  0  0  0  0
   29.6418   30.4931   55.2143 H   0  0  0  0  0  0  0  0  0  0  0  0
   29.3660   28.6305   57.2592 H   0  0  0  0  0  0  0  0  0  0  0  0
   28.2290   30.3336   57.9462 H   0  0  0  0  0  0  0  0  0  0  0  0
   29.9134   30.9033   57.6497 H   0  0  0  0  0  0  0  0  0  0  0  0
   29.3557   33.0189   58.6914 H   0  0  0  0  0  0  0  0  0  0  0  0
   29.1518   35.3420   57.9119 H   0  0  0  0  0  0  0  0  0  0  0  0
   29.8461   34.6634   56.3915 H   0  0  0  0  0  0  0  0  0  0  0  0
   26.8925   34.9665   57.0883 H   0  0  0  0  0  0  0  0  0  0  0  0
   28.3924   33.7604   54.7109 H   0  0  0  0  0  0  0  0  0  0  0  0
   26.5956   33.5958   53.3577 H   0  0  0  0  0  0  0  0  0  0  0  0
   25.4418   34.0584   54.7305 H   0  0  0  0  0  0  0  0  0  0  0  0
   27.2214   35.8444   53.0745 H   0  0  0  0  0  0  0  0  0  0  0  0
   25.4104   35.8658   53.3130 H   0  0  0  0  0  0  0  0  0  0  0  0
   28.6325   36.0787   55.0215 H   0  0  0  0  0  0  0  0  0  0  0  0
   27.6202   37.5056   57.4726 H   0  0  0  0  0  0  0  0  0  0  0  0
   29.2309   37.5373   56.7446 H   0  0  0  0  0  0  0  0  0  0  0  0
   27.9851   39.7741   55.8461 H   0  0  0  0  0  0  0  0  0  0  0  0
   25.5684   36.7994   56.8556 H   0  0  0  0  0  0  0  0  0  0  0  0
   24.7876   37.7891   55.5759 H   0  0  0  0  0  0  0  0  0  0  0  0
   24.5906   36.0037   55.5759 H   0  0  0  0  0  0  0  0  0  0  0  0
   26.2121   32.4214   57.8876 H   0  0  0  0  0  0  0  0  0  0  0  0
   25.3209   33.2701   56.5791 H   0  0  0  0  0  0  0  0  0  0  0  0
   25.4233   31.4767   56.5791 H   0  0  0  0  0  0  0  0  0  0  0  0
   28.4349   39.8599   53.1630 H   0  0  0  0  0  0  0  0  0  0  0  0
   25.6904   40.9212   50.1606 H   0  0  0  0  0  0  0  0  0  0  0  0
   23.9771   39.4046   51.1096 H   0  0  0  0  0  0  0  0  0  0  0  0
   24.4916   38.1000   53.1876 H   0  0  0  0  0  0  0  0  0  0  0  0
  1  2  1  0
  2  3  1  0
  3  4  1  0
  3  5  1  0
  5  6  1  0
  6  7  2  0
  7  8  1  0
  8  9  1  0
  9 10  1  0
  1 11  1  0
  6 11  1  0
 10 11  1  0
 10 12  1  0
 12 13  1  0
 13 14  1  0
  9 15  1  0
 14 15  1  0
 15 16  1  0
 16 17  1  0
 14 18  1  0
 17 18  2  0
 14 19  1  1
 11 20  1  1
 18 21  1  0
 21 22  2  0
 22 23  1  0
 24 23  2  0
 24 25  1  0
 21 26  1  0
 25 26  2  0
  1 27  1  0
  1 28  1  0
  2 29  1  0
  2 30  1  0
  3 31  1  6
  4 32  1  0
  5 33  1  0
  5 34  1  0
  7 35  1  0
  8 36  1  0
  8 37  1  0
  9 38  1  1
 10 39  1  6
 12 40  1  0
 12 41  1  0
 13 42  1  0
 13 43  1  0
 15 44  1  6
 16 45  1  0
 16 46  1  0
 17 47  1  0
 19 48  1  0
 19 49  1  0
 19 50  1  0
 20 51  1  0
 20 52  1  0
 20 53  1  0
 22 54  1  0
 24 55  1  0
 25 56  1  0
 26 57  1  0
M  END
$$$$
