PDB_DB01577_99
     RDKit          3D

 32 32  0  0  0  0  0  0  0  0999 V2000
 -152.0100 -142.4700  195.0050 N   0  0  0  0  0  0  0  0  0  0  0  0
 -153.3210 -142.6370  194.3510 C   0  0  1  0  0  0  0  0  0  0  0  0
 -153.8820 -141.2660  193.9930 C   0  0  0  0  0  0  0  0  0  0  0  0
 -153.1600 -143.5020  193.1060 C   0  0  0  0  0  0  0  0  0  0  0  0
 -154.5070 -144.0300  192.6680 C   0  0  0  0  0  0  0  0  0  0  0  0
 -154.6610 -144.5620  191.3930 C   0  0  0  0  0  0  0  0  0  0  0  0
 -155.5890 -143.9930  193.5410 C   0  0  0  0  0  0  0  0  0  0  0  0
 -155.8990 -145.0500  190.9880 C   0  0  0  0  0  0  0  0  0  0  0  0
 -156.8260 -144.4810  193.1360 C   0  0  0  0  0  0  0  0  0  0  0  0
 -156.9810 -145.0100  191.8590 C   0  0  0  0  0  0  0  0  0  0  0  0
 -151.4770 -143.7900  195.3760 C   0  0  0  0  0  0  0  0  0  0  0  0
 -151.3586 -142.0066  194.3555 H   0  0  0  0  0  0  0  0  0  0  0  0
 -154.0242 -143.1369  195.0334 H   0  0  0  0  0  0  0  0  0  0  0  0
 -154.1092 -140.7107  194.9149 H   0  0  0  0  0  0  0  0  0  0  0  0
 -153.1396 -140.7087  193.4028 H   0  0  0  0  0  0  0  0  0  0  0  0
 -154.8021 -141.3890  193.4028 H   0  0  0  0  0  0  0  0  0  0  0  0
 -152.7242 -142.8982  192.2964 H   0  0  0  0  0  0  0  0  0  0  0  0
 -152.4970 -144.3488  193.3369 H   0  0  0  0  0  0  0  0  0  0  0  0
 -154.7727 -143.0339  192.2845 H   0  0  0  0  0  0  0  0  0  0  0  0
 -154.3843 -143.7691  190.6825 H   0  0  0  0  0  0  0  0  0  0  0  0
 -154.0297 -145.4625  191.4168 H   0  0  0  0  0  0  0  0  0  0  0  0
 -155.2974 -144.5676  194.4326 H   0  0  0  0  0  0  0  0  0  0  0  0
 -155.7723 -142.9162  193.6709 H   0  0  0  0  0  0  0  0  0  0  0  0
 -156.1892 -144.4773  190.0948 H   0  0  0  0  0  0  0  0  0  0  0  0
 -155.7166 -146.1273  190.8612 H   0  0  0  0  0  0  0  0  0  0  0  0
 -157.1011 -145.2761  193.8446 H   0  0  0  0  0  0  0  0  0  0  0  0
 -157.4582 -143.5811  193.1152 H   0  0  0  0  0  0  0  0  0  0  0  0
 -157.7659 -144.4195  191.3637 H   0  0  0  0  0  0  0  0  0  0  0  0
 -157.1922 -146.0726  192.0492 H   0  0  0  0  0  0  0  0  0  0  0  0
 -151.4421 -143.8765  196.4720 H   0  0  0  0  0  0  0  0  0  0  0  0
 -152.1280 -144.5765  194.9667 H   0  0  0  0  0  0  0  0  0  0  0  0
 -150.4624 -143.9040  194.9667 H   0  0  0  0  0  0  0  0  0  0  0  0
  1  2  1  0
  2  3  1  0
  2  4  1  0
  4  5  1  0
  5  6  1  0
  5  7  1  0
  6  8  1  0
  7  9  1  0
  8 10  1  0
  9 10  1  0
  1 11  1  0
  1 12  1  0
  2 13  1  1
  3 14  1  0
  3 15  1  0
  3 16  1  0
  4 17  1  0
  4 18  1  0
  5 19  1  0
  6 20  1  0
  6 21  1  0
  7 22  1  0
  7 23  1  0
  8 24  1  0
  8 25  1  0
  9 26  1  0
  9 27  1  0
 10 28  1  0
 10 29  1  0
 11 30  1  0
 11 31  1  0
 11 32  1  0
M  END
>  <PDBID>  (1) 
4XP6

>  <PDB ID>  (1) 
4XP6

>  <Generic Name>  (1) 
Methamphetamine

>  <Brand Name>  (1) 
Desoxyn#Methamphetamine Hydrochloride

>  <DrugBank ID>  (1) 
DB01577

>  <ATC Codes>  (1) 
N06BA03

>  <Ligand ID>  (1) 
B40

>  <Target Name>  (1) 
Sodium-dependent noradrenaline transporter

>  <UniProt ID>  (1) 
P23975

>  <PDB ID.1>  (1) 
4XP6

>  <Seq. Identity>  (1) 
59%

$$$$
