PDB_DB00311_97
     RDKit          3D

 36 37  0  0  0  0  0  0  0  0999 V2000
   -5.3570   -0.5580   16.0760 N   0  0  0  0  0  0  0  0  0  0  0  0
   -3.5510    3.4390   14.9780 C   0  0  0  0  0  0  0  0  0  0  0  0
   -4.6910    4.1610   14.5200 C   0  0  0  0  0  0  0  0  0  0  0  0
   -4.5660    5.3430   13.7710 C   0  0  0  0  0  0  0  0  0  0  0  0
   -3.2650    5.8280   13.4740 C   0  0  0  0  0  0  0  0  0  0  0  0
   -1.8090    7.4990   12.4390 C   0  0  0  0  0  0  0  0  0  0  0  0
   -7.3040    0.9430   16.4270 O   0  0  0  0  0  0  0  0  0  0  0  0
   -5.4030    0.9430   18.0340 O   0  0  0  0  0  0  0  0  0  0  0  0
   -5.8870    0.8190   16.6830 S   0  0  1  0  0  4  0  0  0  0  0  0
   -5.1120    2.1620   15.7970 C   0  0  0  0  0  0  0  0  0  0  0  0
   -3.8230    2.2930   15.7120 N   0  0  0  0  0  0  0  0  0  0  0  0
   -6.1160    3.3460   15.0350 S   0  0  0  0  0  0  0  0  0  0  0  0
   -2.1220    5.1150   13.9220 C   0  0  0  0  0  0  0  0  0  0  0  0
   -2.2360    3.9300   14.6720 C   0  0  0  0  0  0  0  0  0  0  0  0
   -3.1410    7.0010   12.7400 O   0  0  0  0  0  0  0  0  0  0  0  0
   -1.6430    8.8020   13.1270 C   0  0  0  0  0  0  0  0  0  0  0  0
   -5.1102   -1.1991   16.8434 H   0  0  0  0  0  0  0  0  0  0  0  0
   -6.0942   -0.9840   15.4963 H   0  0  0  0  0  0  0  0  0  0  0  0
   -3.5479    4.0318   15.9046 H   0  0  0  0  0  0  0  0  0  0  0  0
   -4.6914    4.7498   15.4491 H   0  0  0  0  0  0  0  0  0  0  0  0
   -5.0752    5.1732   12.8108 H   0  0  0  0  0  0  0  0  0  0  0  0
   -4.9978    6.1180   14.4213 H   0  0  0  0  0  0  0  0  0  0  0  0
   -3.2685    6.4092   14.4079 H   0  0  0  0  0  0  0  0  0  0  0  0
   -1.0531    6.7865   12.8007 H   0  0  0  0  0  0  0  0  0  0  0  0
   -1.6817    7.6202   11.3531 H   0  0  0  0  0  0  0  0  0  0  0  0
   -7.7922    0.9857   17.2872 H   0  0  0  0  0  0  0  0  0  0  0  0
   -6.1402    0.7541   18.6673 H   0  0  0  0  0  0  0  0  0  0  0  0
   -5.1131    2.7682   16.7149 H   0  0  0  0  0  0  0  0  0  0  0  0
   -3.4196    1.4719   15.2388 H   0  0  0  0  0  0  0  0  0  0  0  0
   -1.5461    4.8566   13.0212 H   0  0  0  0  0  0  0  0  0  0  0  0
   -1.6826    5.8118   14.6510 H   0  0  0  0  0  0  0  0  0  0  0  0
   -1.7215    4.1002   15.6292 H   0  0  0  0  0  0  0  0  0  0  0  0
   -1.8028    3.1557   14.0218 H   0  0  0  0  0  0  0  0  0  0  0  0
   -1.6628    8.6469   14.2158 H   0  0  0  0  0  0  0  0  0  0  0  0
   -0.6806    9.2494   12.8378 H   0  0  0  0  0  0  0  0  0  0  0  0
   -2.4625    9.4764   12.8378 H   0  0  0  0  0  0  0  0  0  0  0  0
  2  3  1  0
  3  4  1  0
  4  5  1  0
  1  9  1  0
  9  7  1  1
  8  9  1  0
  9 10  1  0
  2 11  1  0
 10 11  1  0
  3 12  1  0
 10 12  1  0
  5 13  1  0
  2 14  1  0
 13 14  1  0
  5 15  1  0
  6 15  1  0
  6 16  1  0
  1 17  1  0
  1 18  1  0
  2 19  1  0
  3 20  1  0
  4 21  1  0
  4 22  1  0
  5 23  1  0
  6 24  1  0
  6 25  1  0
  7 26  1  0
  8 27  1  0
 10 28  1  0
 11 29  1  0
 13 30  1  0
 13 31  1  0
 14 32  1  0
 14 33  1  0
 16 34  1  0
 16 35  1  0
 16 36  1  0
M  END
>  <PDBID>  (1) 
3CAJ

>  <PDB ID>  (1) 
3CAJ

>  <Generic Name>  (1) 
Ethoxzolamide

>  <Brand Name>  (1) 
Cardrase#Ethamide

>  <DrugBank ID>  (1) 
DB00311

>  <ATC Codes>  (1) 
nan

>  <Ligand ID>  (1) 
EZL

>  <Target Name>  (1) 
Carbonic anhydrase 1

>  <UniProt ID>  (1) 
P00915

>  <PDB ID.1>  (1) 
3CAJ

>  <Seq. Identity>  (1) 
61%

$$$$
