PDB_DB01030_99
     RDKit          3D

 72 76  0  0  0  0  0  0  0  0999 V2000
   19.7090    1.6120   29.4990 C   0  0  0  0  0  0  0  0  0  0  0  0
   18.6450    0.7720   30.2500 C   0  0  0  0  0  0  0  0  0  0  0  0
   20.0910    1.0950   28.0810 C   0  0  2  0  0  0  0  0  0  0  0  0
   18.9830    0.8350   27.4100 O   0  0  0  0  0  0  0  0  0  0  0  0
   20.9730   -0.1340   28.2250 C   0  0  0  0  0  0  0  0  0  0  0  0
   20.8980    2.1730   27.2750 C   0  0  0  0  0  0  0  0  0  0  0  0
   22.3880   -0.0080   28.3820 C   0  0  0  0  0  0  0  0  0  0  0  0
   20.5700   -1.4690   28.2120 C   0  0  0  0  0  0  0  0  0  0  0  0
   20.3350    2.9850   26.4060 O   0  0  0  0  0  0  0  0  0  0  0  0
   22.2640    2.2880   27.4680 O   0  0  0  0  0  0  0  0  0  0  0  0
   23.2600   -1.1000   28.5100 C   0  0  0  0  0  0  0  0  0  0  0  0
   22.9580    1.4170   28.4060 C   0  0  0  0  0  0  0  0  0  0  0  0
   21.4600   -2.5510   28.3350 C   0  0  0  0  0  0  0  0  0  0  0  0
   24.5670   -0.9400   28.6530 O   0  0  0  0  0  0  0  0  0  0  0  0
   22.7550   -2.3780   28.4770 N   0  0  0  0  0  0  0  0  0  0  0  0
   21.1640   -3.9150   28.3120 C   0  0  0  0  0  0  0  0  0  0  0  0
   23.5230   -3.6370   28.5820 C   0  0  0  0  0  0  0  0  0  0  0  0
   22.4180   -4.6700   28.4590 C   0  0  0  0  0  0  0  0  0  0  0  0
   19.9320   -4.4280   28.1690 N   0  0  0  0  0  0  0  0  0  0  0  0
   22.3480   -6.0000   28.4480 C   0  0  0  0  0  0  0  0  0  0  0  0
   19.8990   -5.8280   28.1570 C   0  0  0  0  0  0  0  0  0  0  0  0
   21.0710   -6.6350   28.2830 C   0  0  0  0  0  0  0  0  0  0  0  0
   18.6570   -6.3600   27.9950 C   0  0  0  0  0  0  0  0  0  0  0  0
   20.9250   -8.0350   28.2410 C   0  0  0  0  0  0  0  0  0  0  0  0
   18.5190   -7.7590   27.9510 C   0  0  0  0  0  0  0  0  0  0  0  0
   19.6520   -8.5800   28.0710 C   0  0  0  0  0  0  0  0  0  0  0  0
   22.0810   -9.0360   28.3510 C   0  0  0  0  0  0  0  0  0  0  0  0
   22.6920   -9.3970   27.0440 N   0  0  0  0  0  0  0  0  0  0  0  0
   23.8570   -8.5830   26.7240 C   0  0  0  0  0  0  0  0  0  0  0  0
   23.0590  -10.8230   26.9670 C   0  0  0  0  0  0  0  0  0  0  0  0
   19.4330   -9.9280   28.0140 O   0  0  0  0  0  0  0  0  0  0  0  0
   19.3203    2.6356   29.3934 H   0  0  0  0  0  0  0  0  0  0  0  0
   20.6266    1.5468   30.1021 H   0  0  0  0  0  0  0  0  0  0  0  0
   18.7877    0.8847   31.3349 H   0  0  0  0  0  0  0  0  0  0  0  0
   17.6395    1.1225   29.9741 H   0  0  0  0  0  0  0  0  0  0  0  0
   18.7526   -0.2874   29.9741 H   0  0  0  0  0  0  0  0  0  0  0  0
   18.2447    0.6618   28.0464 H   0  0  0  0  0  0  0  0  0  0  0  0
   21.0976   -0.1725   27.1328 H   0  0  0  0  0  0  0  0  0  0  0  0
   21.0771    1.4403   26.4743 H   0  0  0  0  0  0  0  0  0  0  0  0
   22.2642    0.0212   29.4746 H   0  0  0  0  0  0  0  0  0  0  0  0
   19.8530   -1.5743   29.0396 H   0  0  0  0  0  0  0  0  0  0  0  0
   20.2384   -1.5822   27.1693 H   0  0  0  0  0  0  0  0  0  0  0  0
   19.8426    3.6952   26.8890 H   0  0  0  0  0  0  0  0  0  0  0  0
   23.3832   -1.1297   27.4173 H   0  0  0  0  0  0  0  0  0  0  0  0
   22.8503    1.8274   29.4209 H   0  0  0  0  0  0  0  0  0  0  0  0
   24.0168    1.3689   28.1118 H   0  0  0  0  0  0  0  0  0  0  0  0
   21.5829   -2.5741   27.2421 H   0  0  0  0  0  0  0  0  0  0  0  0
   24.7926   -0.9124   29.6166 H   0  0  0  0  0  0  0  0  0  0  0  0
   21.2871   -3.9233   27.2189 H   0  0  0  0  0  0  0  0  0  0  0  0
   24.2552   -3.7314   27.7665 H   0  0  0  0  0  0  0  0  0  0  0  0
   24.1215   -3.7245   29.5008 H   0  0  0  0  0  0  0  0  0  0  0  0
   22.5436   -4.6742   27.3662 H   0  0  0  0  0  0  0  0  0  0  0  0
   19.3497   -4.0964   28.9512 H   0  0  0  0  0  0  0  0  0  0  0  0
   22.9884   -6.3482   27.6242 H   0  0  0  0  0  0  0  0  0  0  0  0
   22.6512   -6.2853   29.4662 H   0  0  0  0  0  0  0  0  0  0  0  0
   20.0210   -5.8215   27.0638 H   0  0  0  0  0  0  0  0  0  0  0  0
   20.9398   -6.6550   29.3750 H   0  0  0  0  0  0  0  0  0  0  0  0
   18.0398   -6.0005   28.8316 H   0  0  0  0  0  0  0  0  0  0  0  0
   18.3564   -6.0316   26.9891 H   0  0  0  0  0  0  0  0  0  0  0  0
   20.7871   -8.0534   29.3322 H   0  0  0  0  0  0  0  0  0  0  0  0
   17.8374   -8.0368   28.7685 H   0  0  0  0  0  0  0  0  0  0  0  0
   18.1778   -7.9474   26.9224 H   0  0  0  0  0  0  0  0  0  0  0  0
   19.5174   -8.6062   29.1624 H   0  0  0  0  0  0  0  0  0  0  0  0
   22.8616   -8.5949   28.9882 H   0  0  0  0  0  0  0  0  0  0  0  0
   21.6630   -9.9612   28.7745 H   0  0  0  0  0  0  0  0  0  0  0  0
   24.3370   -8.2476   27.6552 H   0  0  0  0  0  0  0  0  0  0  0  0
   24.5713   -9.1796   26.1376 H   0  0  0  0  0  0  0  0  0  0  0  0
   23.5424   -7.7071   26.1376 H   0  0  0  0  0  0  0  0  0  0  0  0
   23.1638  -11.2301   27.9835 H   0  0  0  0  0  0  0  0  0  0  0  0
   22.2737  -11.3752   26.4300 H   0  0  0  0  0  0  0  0  0  0  0  0
   24.0133  -10.9275   26.4300 H   0  0  0  0  0  0  0  0  0  0  0  0
   19.3739  -10.2919   28.9328 H   0  0  0  0  0  0  0  0  0  0  0  0
  1  2  1  0
  1  3  1  0
  3  4  1  6
  3  5  1  0
  3  6  1  0
  5  7  1  0
  5  8  1  0
  6  9  1  0
  6 10  1  0
  7 11  1  0
  7 12  1  0
 10 12  1  0
  8 13  1  0
 11 14  1  0
 11 15  1  0
 13 15  1  0
 13 16  1  0
 15 17  1  0
 16 18  1  0
 17 18  1  0
 16 19  1  0
 18 20  1  0
 19 21  1  0
 20 22  1  0
 21 22  1  0
 21 23  1  0
 22 24  1  0
 23 25  1  0
 24 26  1  0
 25 26  1  0
 24 27  1  0
 27 28  1  0
 28 29  1  0
 28 30  1  0
 26 31  1  0
  1 32  1  0
  1 33  1  0
  2 34  1  0
  2 35  1  0
  2 36  1  0
  4 37  1  0
  5 38  1  0
  6 39  1  0
  7 40  1  0
  8 41  1  0
  8 42  1  0
  9 43  1  0
 11 44  1  0
 12 45  1  0
 12 46  1  0
 13 47  1  0
 14 48  1  0
 16 49  1  0
 17 50  1  0
 17 51  1  0
 18 52  1  0
 19 53  1  0
 20 54  1  0
 20 55  1  0
 21 56  1  0
 22 57  1  0
 23 58  1  0
 23 59  1  0
 24 60  1  0
 25 61  1  0
 25 62  1  0
 26 63  1  0
 27 64  1  0
 27 65  1  0
 29 66  1  0
 29 67  1  0
 29 68  1  0
 30 69  1  0
 30 70  1  0
 30 71  1  0
 31 72  1  0
M  END
>  <PDBID>  (1) 
1K4T

>  <PDB ID>  (1) 
1K4T

>  <Generic Name>  (1) 
Topotecan

>  <Brand Name>  (1) 
Act Topotecan#Hycamtin#Mylan-topotecan Hydrochloride for Injection#PMS-topotecan#Topotecan#Topotecan Hydrochloride#Topotecan Hydrochloride for Injection#Topotecan Injection#Topotecan for Injection

>  <DrugBank ID>  (1) 
DB01030

>  <ATC Codes>  (1) 
L01XX17

>  <Ligand ID>  (1) 
TTC

>  <Target Name>  (1) 
DNA topoisomerase 1

>  <UniProt ID>  (1) 
P11387

>  <PDB ID.1>  (1) 
1K4T

>  <Seq. Identity>  (1) 
92%

$$$$
