PDB_DB02703_95
     RDKit          3D

 85 88  0  0  0  0  0  0  0  0999 V2000
  -59.3370  -79.7930   48.1920 C   0  0  0  0  0  0  0  0  0  0  0  0
  -60.3920  -79.3100   47.1950 C   0  0  0  0  0  0  0  0  0  0  0  0
  -59.8030  -79.2860   45.7840 C   0  0  2  0  0  0  0  0  0  0  0  0
  -59.3050  -80.6800   45.3950 C   0  0  2  0  0  0  0  0  0  0  0  0
  -58.2540  -81.1550   46.4010 C   0  0  2  0  0  0  0  0  0  0  0  0
  -57.6790  -82.5210   46.0230 C   0  0  0  0  0  0  0  0  0  0  0  0
  -56.5630  -82.9180   46.9920 C   0  0  0  0  0  0  0  0  0  0  0  0
  -56.4100  -81.9160   48.1400 C   0  0  1  0  0  0  0  0  0  0  0  0
  -57.7690  -81.6690   48.8050 C   0  0  2  0  0  0  0  0  0  0  0  0
  -58.8360  -81.1900   47.8160 C   0  0  1  0  0  0  0  0  0  0  0  0
  -57.6590  -80.7290   50.0100 C   0  0  1  0  0  0  0  0  0  0  0  0
  -56.7030  -81.3000   51.0600 C   0  0  0  0  0  0  0  0  0  0  0  0
  -55.3610  -81.4840   50.3470 C   0  0  2  0  0  0  0  0  0  0  0  0
  -55.4930  -82.5020   49.2170 C   0  0  2  0  0  0  0  0  0  0  0  0
  -54.0140  -82.6220   48.8460 C   0  0  0  0  0  0  0  0  0  0  0  0
  -53.3790  -82.9000   50.2170 C   0  0  1  0  0  0  0  0  0  0  0  0
  -54.2410  -82.0910   51.1990 C   0  0  0  0  0  0  0  0  0  0  0  0
  -58.7300  -80.6810   43.9770 C   0  0  0  0  0  0  0  0  0  0  0  0
  -60.0160  -82.1640   47.8560 C   0  0  0  0  0  0  0  0  0  0  0  0
  -55.8110  -80.6060   47.6190 C   0  0  0  0  0  0  0  0  0  0  0  0
  -56.0510  -83.8330   49.7280 C   0  0  0  0  0  0  0  0  0  0  0  0
  -54.0330  -81.8700   52.5590 C   0  0  0  0  0  0  0  0  0  0  0  0
  -54.3080  -80.5910   53.0430 C   0  0  0  0  0  0  0  0  0  0  0  0
  -54.1630  -80.2130   54.3720 C   0  0  0  0  0  0  0  0  0  0  0  0
  -54.4700  -78.8950   54.7020 C   0  0  0  0  0  0  0  0  0  0  0  0
  -54.3700  -78.4180   56.0010 C   0  0  0  0  0  0  0  0  0  0  0  0
  -54.7140  -76.9560   56.2910 C   0  0  0  0  0  0  0  0  0  0  0  0
  -53.9770  -79.3490   57.1520 C   0  0  0  0  0  0  0  0  0  0  0  0
  -53.5220  -82.9880   53.4770 C   0  0  0  0  0  0  0  0  0  0  0  0
  -52.4210  -84.9880   49.9900 C   0  0  0  0  0  0  0  0  0  0  0  0
  -51.3700  -84.1610   49.2420 C   0  0  0  0  0  0  0  0  0  0  0  0
  -57.1520  -79.4670   49.5660 O   0  0  0  0  0  0  0  0  0  0  0  0
  -53.4660  -84.3000   50.5280 O   0  0  0  0  0  0  0  0  0  0  0  0
  -52.3020  -86.2110   50.0630 O   0  0  0  0  0  0  0  0  0  0  0  0
  -53.2580  -84.1170   53.0060 O   0  0  0  0  0  0  0  0  0  0  0  0
  -53.3640  -82.7840   54.7030 O   0  0  0  0  0  0  0  0  0  0  0  0
  -58.7100  -78.3630   45.7610 O   0  0  0  0  0  0  0  0  0  0  0  0
  -58.4891  -79.0922   48.1882 H   0  0  0  0  0  0  0  0  0  0  0  0
  -59.7909  -79.8378   49.1930 H   0  0  0  0  0  0  0  0  0  0  0  0
  -61.2549  -79.9917   47.2184 H   0  0  0  0  0  0  0  0  0  0  0  0
  -60.7125  -78.2945   47.4707 H   0  0  0  0  0  0  0  0  0  0  0  0
  -60.5773  -78.9766   45.0665 H   0  0  0  0  0  0  0  0  0  0  0  0
  -60.1581  -81.3742   45.4126 H   0  0  0  0  0  0  0  0  0  0  0  0
  -57.4269  -80.4302   46.3769 H   0  0  0  0  0  0  0  0  0  0  0  0
  -58.4792  -83.2747   46.0637 H   0  0  0  0  0  0  0  0  0  0  0  0
  -57.2641  -82.4639   45.0058 H   0  0  0  0  0  0  0  0  0  0  0  0
  -56.7952  -83.9071   47.4137 H   0  0  0  0  0  0  0  0  0  0  0  0
  -55.6176  -82.9344   46.4298 H   0  0  0  0  0  0  0  0  0  0  0  0
  -58.1037  -82.6475   49.1798 H   0  0  0  0  0  0  0  0  0  0  0  0
  -58.6556  -80.6142   50.4612 H   0  0  0  0  0  0  0  0  0  0  0  0
  -56.5965  -80.6001   51.9019 H   0  0  0  0  0  0  0  0  0  0  0  0
  -57.0754  -82.2492   51.4726 H   0  0  0  0  0  0  0  0  0  0  0  0
  -55.1082  -80.4582   50.0407 H   0  0  0  0  0  0  0  0  0  0  0  0
  -53.8408  -83.4531   48.1465 H   0  0  0  0  0  0  0  0  0  0  0  0
  -53.6062  -81.7389   48.3324 H   0  0  0  0  0  0  0  0  0  0  0  0
  -52.3145  -82.6253   50.2550 H   0  0  0  0  0  0  0  0  0  0  0  0
  -57.6311  -80.6829   44.0269 H   0  0  0  0  0  0  0  0  0  0  0  0
  -59.0743  -81.5785   43.4423 H   0  0  0  0  0  0  0  0  0  0  0  0
  -59.0712  -79.7823   43.4423 H   0  0  0  0  0  0  0  0  0  0  0  0
  -60.2778  -82.3801   48.9023 H   0  0  0  0  0  0  0  0  0  0  0  0
  -60.8809  -81.7133   47.3472 H   0  0  0  0  0  0  0  0  0  0  0  0
  -59.7374  -83.0986   47.3472 H   0  0  0  0  0  0  0  0  0  0  0  0
  -55.5209  -79.9716   48.4695 H   0  0  0  0  0  0  0  0  0  0  0  0
  -54.9242  -80.8263   47.0067 H   0  0  0  0  0  0  0  0  0  0  0  0
  -56.5578  -80.0793   47.0067 H   0  0  0  0  0  0  0  0  0  0  0  0
  -56.0508  -83.8325   50.8280 H   0  0  0  0  0  0  0  0  0  0  0  0
  -57.0799  -83.9641   49.3616 H   0  0  0  0  0  0  0  0  0  0  0  0
  -55.4233  -84.6586   49.3616 H   0  0  0  0  0  0  0  0  0  0  0  0
  -53.6632  -79.9102   52.4679 H   0  0  0  0  0  0  0  0  0  0  0  0
  -55.4023  -80.5591   52.9360 H   0  0  0  0  0  0  0  0  0  0  0  0
  -54.8152  -80.8638   54.9729 H   0  0  0  0  0  0  0  0  0  0  0  0
  -53.0863  -80.3098   54.5755 H   0  0  0  0  0  0  0  0  0  0  0  0
  -54.8023  -78.2106   53.9075 H   0  0  0  0  0  0  0  0  0  0  0  0
  -54.7514  -76.7969   57.3788 H   0  0  0  0  0  0  0  0  0  0  0  0
  -53.9447  -76.3041   55.8514 H   0  0  0  0  0  0  0  0  0  0  0  0
  -55.6932  -76.7156   55.8514 H   0  0  0  0  0  0  0  0  0  0  0  0
  -54.1860  -78.8539   58.1118 H   0  0  0  0  0  0  0  0  0  0  0  0
  -54.5588  -80.2802   57.0854 H   0  0  0  0  0  0  0  0  0  0  0  0
  -52.9039  -79.5816   57.0854 H   0  0  0  0  0  0  0  0  0  0  0  0
  -50.7207  -83.6501   49.9681 H   0  0  0  0  0  0  0  0  0  0  0  0
  -50.7620  -84.8255   48.6104 H   0  0  0  0  0  0  0  0  0  0  0  0
  -51.8728  -83.4138   48.6104 H   0  0  0  0  0  0  0  0  0  0  0  0
  -56.9271  -78.9071   50.3509 H   0  0  0  0  0  0  0  0  0  0  0  0
  -53.0338  -83.5117   55.2874 H   0  0  0  0  0  0  0  0  0  0  0  0
  -58.4464  -78.1404   46.6890 H   0  0  0  0  0  0  0  0  0  0  0  0
  2  1  1  0
  3  2  1  0
  4  3  1  0
  5  4  1  0
  6  5  1  0
  7  6  1  0
  8  7  1  0
  9  8  1  0
 10  9  1  0
 10  5  1  0
 10  1  1  0
 11  9  1  0
 12 11  1  0
 13 12  1  0
 14  8  1  0
 14 13  1  0
 15 14  1  0
 16 15  1  0
 17 13  1  0
 17 16  1  0
 18  4  1  0
 10 19  1  6
  8 20  1  6
 14 21  1  1
 22 17  2  0
 23 22  1  0
 24 23  1  0
 25 24  1  0
 26 25  2  3
 27 26  1  0
 28 26  1  0
 29 22  1  0
 31 30  1  0
 32 11  1  0
 33 30  1  0
 33 16  1  0
 34 30  2  0
 35 29  2  0
 36 29  1  0
 37  3  1  0
  1 38  1  0
  1 39  1  0
  2 40  1  0
  2 41  1  0
  3 42  1  6
  4 43  1  6
  5 44  1  1
  6 45  1  0
  6 46  1  0
  7 47  1  0
  7 48  1  0
  9 49  1  1
 11 50  1  1
 12 51  1  0
 12 52  1  0
 13 53  1  6
 15 54  1  0
 15 55  1  0
 16 56  1  6
 18 57  1  0
 18 58  1  0
 18 59  1  0
 19 60  1  0
 19 61  1  0
 19 62  1  0
 20 63  1  0
 20 64  1  0
 20 65  1  0
 21 66  1  0
 21 67  1  0
 21 68  1  0
 23 69  1  0
 23 70  1  0
 24 71  1  0
 24 72  1  0
 25 73  1  0
 27 74  1  0
 27 75  1  0
 27 76  1  0
 28 77  1  0
 28 78  1  0
 28 79  1  0
 31 80  1  0
 31 81  1  0
 31 82  1  0
 32 83  1  0
 36 84  1  0
 37 85  1  0
M  END
$$$$
