PDB_DB00188_89
     RDKit          3D

 53 54  0  0  0  0  0  0  0  0999 V2000
   59.6350 -156.7340   17.0270 N   0  0  0  0  0  0  0  0  0  0  0  0
   58.9140 -157.7950   16.6160 C   0  0  0  0  0  0  0  0  0  0  0  0
   59.2080 -159.0710   17.1030 C   0  0  0  0  0  0  0  0  0  0  0  0
   60.2530 -159.2440   18.0300 N   0  0  0  0  0  0  0  0  0  0  0  0
   60.9970 -158.1310   18.4550 C   0  0  0  0  0  0  0  0  0  0  0  0
   60.6840 -156.8730   17.9500 C   0  0  0  0  0  0  0  0  0  0  0  0
   57.8850 -157.6040   15.6940 C   0  0  0  0  0  0  0  0  0  0  0  0
   57.2980 -158.5610   15.1870 O   0  0  0  0  0  0  0  0  0  0  0  0
   57.6120 -156.3140   15.4160 N   0  0  0  0  0  0  0  0  0  0  0  0
   56.5890 -155.9190   14.4390 C   0  0  1  0  0  0  0  0  0  0  0  0
   55.9810 -154.6010   14.8870 C   0  0  0  0  0  0  0  0  0  0  0  0
   55.1120 -154.1270   13.8750 C   0  0  0  0  0  0  0  0  0  0  0  0
   53.9730 -154.8580   13.5160 C   0  0  0  0  0  0  0  0  0  0  0  0
   53.1070 -154.3890   12.5260 C   0  0  0  0  0  0  0  0  0  0  0  0
   53.3640 -153.1780   11.8870 C   0  0  0  0  0  0  0  0  0  0  0  0
   54.4910 -152.4380   12.2420 C   0  0  0  0  0  0  0  0  0  0  0  0
   55.3580 -152.9080   13.2310 C   0  0  0  0  0  0  0  0  0  0  0  0
   57.3060 -155.7560   13.0980 C   0  0  0  0  0  0  0  0  0  0  0  0
   58.2040 -154.9230   12.9790 O   0  0  0  0  0  0  0  0  0  0  0  0
   56.8970 -156.5780   12.1130 N   0  0  0  0  0  0  0  0  0  0  0  0
   57.4830 -156.5170   10.7620 C   0  0  1  0  0  0  0  0  0  0  0  0
   57.5000 -157.8780   10.0820 C   0  0  0  0  0  0  0  0  0  0  0  0
   58.1550 -158.9460   10.9900 C   0  0  0  0  0  0  0  0  0  0  0  0
   58.1920 -160.2770   10.2110 C   0  0  0  0  0  0  0  0  0  0  0  0
   59.5760 -158.5620   11.4480 C   0  0  0  0  0  0  0  0  0  0  0  0
   56.6420 -155.5620    9.8880 B   0  0  0  0  0  0  0  0  0  0  0  0
   56.5710 -154.2560   10.4830 O   0  0  0  0  0  0  0  0  0  0  0  0
   55.3160 -156.1020    9.7380 O   0  0  0  0  0  0  0  0  0  0  0  0
   58.6240 -159.9388   16.7627 H   0  0  0  0  0  0  0  0  0  0  0  0
   61.8169 -158.2525   19.1781 H   0  0  0  0  0  0  0  0  0  0  0  0
   61.2561 -155.9906   18.2726 H   0  0  0  0  0  0  0  0  0  0  0  0
   58.1400 -155.5782   15.9066 H   0  0  0  0  0  0  0  0  0  0  0  0
   55.7828 -156.6622   14.3512 H   0  0  0  0  0  0  0  0  0  0  0  0
   55.4148 -154.7534   15.8177 H   0  0  0  0  0  0  0  0  0  0  0  0
   56.7790 -153.8654   15.0664 H   0  0  0  0  0  0  0  0  0  0  0  0
   53.7580 -155.8122   14.0193 H   0  0  0  0  0  0  0  0  0  0  0  0
   52.2195 -154.9773   12.2499 H   0  0  0  0  0  0  0  0  0  0  0  0
   52.6820 -152.8080   11.1073 H   0  0  0  0  0  0  0  0  0  0  0  0
   54.6981 -151.4806   11.7414 H   0  0  0  0  0  0  0  0  0  0  0  0
   56.2425 -152.3150   13.5067 H   0  0  0  0  0  0  0  0  0  0  0  0
   56.1563 -157.2665   12.3085 H   0  0  0  0  0  0  0  0  0  0  0  0
   58.5193 -156.1639   10.8693 H   0  0  0  0  0  0  0  0  0  0  0  0
   56.4664 -158.1811    9.8589 H   0  0  0  0  0  0  0  0  0  0  0  0
   58.0880 -157.7986    9.1558 H   0  0  0  0  0  0  0  0  0  0  0  0
   57.5527 -159.0342   11.9062 H   0  0  0  0  0  0  0  0  0  0  0  0
   58.2153 -161.1169   10.9210 H   0  0  0  0  0  0  0  0  0  0  0  0
   57.2957 -160.3566    9.5783 H   0  0  0  0  0  0  0  0  0  0  0  0
   59.0913 -160.3067    9.5783 H   0  0  0  0  0  0  0  0  0  0  0  0
   59.6165 -158.5510   12.5472 H   0  0  0  0  0  0  0  0  0  0  0  0
   60.2970 -159.2975   11.0618 H   0  0  0  0  0  0  0  0  0  0  0  0
   59.8284 -157.5634   11.0618 H   0  0  0  0  0  0  0  0  0  0  0  0
   56.5757 -154.3420   11.4692 H   0  0  0  0  0  0  0  0  0  0  0  0
   54.9220 -156.2625   10.6319 H   0  0  0  0  0  0  0  0  0  0  0  0
  1  2  2  0
  2  3  1  0
  3  4  2  0
  4  5  1  0
  1  6  1  0
  5  6  2  0
  2  7  1  0
  7  8  2  0
  7  9  1  0
  9 10  1  0
 10 11  1  0
 11 12  1  0
 12 13  2  0
 13 14  1  0
 14 15  2  0
 15 16  1  0
 12 17  1  0
 16 17  2  0
 10 18  1  0
 18 19  2  0
 18 20  1  0
 20 21  1  0
 21 22  1  0
 22 23  1  0
 23 24  1  0
 23 25  1  0
 21 26  1  0
 26 27  1  0
 26 28  1  0
  3 29  1  0
  5 30  1  0
  6 31  1  0
  9 32  1  0
 10 33  1  6
 11 34  1  0
 11 35  1  0
 13 36  1  0
 14 37  1  0
 15 38  1  0
 16 39  1  0
 17 40  1  0
 20 41  1  0
 21 42  1  1
 22 43  1  0
 22 44  1  0
 23 45  1  0
 24 46  1  0
 24 47  1  0
 24 48  1  0
 25 49  1  0
 25 50  1  0
 25 51  1  0
 27 52  1  0
 28 53  1  0
M  END
$$$$
