PDB_DB04876_96
     RDKit          3D

 47 50  0  0  0  0  0  0  0  0999 V2000
   95.7070   52.1260   36.3450 O   0  0  0  0  0  0  0  0  0  0  0  0
   96.0600   51.0900   35.8100 C   0  0  0  0  0  0  0  0  0  0  0  0
   95.4000   49.9070   36.1160 N   0  0  0  0  0  0  0  0  0  0  0  0
   95.5790   48.7580   35.2010 C   0  0  0  0  0  0  0  0  0  0  0  0
   94.3180   47.9120   35.3380 C   0  0  0  0  0  0  0  0  0  0  0  0
   93.2360   48.9010   35.7550 C   0  0  0  0  0  0  0  0  0  0  0  0
   93.9710   50.0030   36.5040 C   0  0  1  0  0  0  0  0  0  0  0  0
   93.8890   49.6560   37.9650 C   0  0  0  0  0  0  0  0  0  0  0  0
   94.8780   49.0980   38.5170 N   0  0  0  0  0  0  0  0  0  0  0  0
   97.2770   51.0940   34.9070 C   0  0  0  0  0  0  0  0  0  0  0  0
   98.2000   52.1900   35.1670 N   0  0  0  0  0  0  0  0  0  0  0  0
   99.2680   52.0770   36.1560 C   0  0  1  0  0  0  0  0  0  0  0  0
   98.7190   51.5700   37.5120 C   0  0  0  0  0  0  0  0  0  0  0  0
   99.8400   51.4390   38.5400 C   0  0  1  0  0  0  0  0  0  0  0  0
  100.8840   50.4640   37.9820 C   0  0  0  0  0  0  0  0  0  0  0  0
  101.4750   51.0040   36.6700 C   0  0  1  0  0  0  0  0  0  0  0  0
  100.3460   51.1260   35.6320 C   0  0  0  0  0  0  0  0  0  0  0  0
  102.1160   52.4030   36.8770 C   0  0  0  0  0  0  0  0  0  0  0  0
  100.5050   52.8070   38.7440 C   0  0  0  0  0  0  0  0  0  0  0  0
  101.0490   53.3480   37.4030 C   0  0  1  0  0  0  0  0  0  0  0  0
  101.6080   54.6540   37.6100 O   0  0  0  0  0  0  0  0  0  0  0  0
   99.9010   53.4490   36.3790 C   0  0  0  0  0  0  0  0  0  0  0  0
   95.6934   49.1087   34.1647 H   0  0  0  0  0  0  0  0  0  0  0  0
   96.4811   48.1803   35.4509 H   0  0  0  0  0  0  0  0  0  0  0  0
   94.0622   47.4379   34.3790 H   0  0  0  0  0  0  0  0  0  0  0  0
   94.4400   47.0955   36.0650 H   0  0  0  0  0  0  0  0  0  0  0  0
   92.7254   49.3098   34.8706 H   0  0  0  0  0  0  0  0  0  0  0  0
   92.4623   48.4265   36.3765 H   0  0  0  0  0  0  0  0  0  0  0  0
   93.5554   50.9990   36.2912 H   0  0  0  0  0  0  0  0  0  0  0  0
   97.8164   50.1458   35.0483 H   0  0  0  0  0  0  0  0  0  0  0  0
   96.9109   51.2217   33.8776 H   0  0  0  0  0  0  0  0  0  0  0  0
   98.6582   52.4016   34.2691 H   0  0  0  0  0  0  0  0  0  0  0  0
   97.9692   52.2827   37.8859 H   0  0  0  0  0  0  0  0  0  0  0  0
   98.2656   50.5796   37.3589 H   0  0  0  0  0  0  0  0  0  0  0  0
   99.4378   51.0774   39.4978 H   0  0  0  0  0  0  0  0  0  0  0  0
  101.6915   50.3375   38.7181 H   0  0  0  0  0  0  0  0  0  0  0  0
  100.3985   49.4972   37.7831 H   0  0  0  0  0  0  0  0  0  0  0  0
  102.2547   50.3090   36.3249 H   0  0  0  0  0  0  0  0  0  0  0  0
   99.9042   50.1346   35.4533 H   0  0  0  0  0  0  0  0  0  0  0  0
  100.7560   51.5213   34.6909 H   0  0  0  0  0  0  0  0  0  0  0  0
  102.9386   52.3306   37.6036 H   0  0  0  0  0  0  0  0  0  0  0  0
  102.5167   52.7792   35.9241 H   0  0  0  0  0  0  0  0  0  0  0  0
   99.7640   53.5137   39.1458 H   0  0  0  0  0  0  0  0  0  0  0  0
  101.3420   52.6948   39.4488 H   0  0  0  0  0  0  0  0  0  0  0  0
  101.6835   54.8305   38.5812 H   0  0  0  0  0  0  0  0  0  0  0  0
  100.2980   53.8250   35.4245 H   0  0  0  0  0  0  0  0  0  0  0  0
   99.1356   54.1378   36.7660 H   0  0  0  0  0  0  0  0  0  0  0  0
  1  2  2  0
  2  3  1  0
  3  4  1  0
  4  5  1  0
  5  6  1  0
  3  7  1  0
  6  7  1  0
  7  8  1  0
  8  9  3  0
  2 10  1  0
 10 11  1  0
 12 11  1  1
 12 13  1  0
 13 14  1  0
 14 15  1  0
 15 16  1  0
 12 17  1  0
 16 17  1  0
 16 18  1  0
 14 19  1  0
 18 20  1  0
 19 20  1  0
 20 21  1  1
 12 22  1  0
 20 22  1  0
  4 23  1  0
  4 24  1  0
  5 25  1  0
  5 26  1  0
  6 27  1  0
  6 28  1  0
  7 29  1  1
 10 30  1  0
 10 31  1  0
 11 32  1  0
 13 33  1  0
 13 34  1  0
 14 35  1  1
 15 36  1  0
 15 37  1  0
 16 38  1  6
 17 39  1  0
 17 40  1  0
 18 41  1  0
 18 42  1  0
 19 43  1  0
 19 44  1  0
 21 45  1  0
 22 46  1  0
 22 47  1  0
M  END
$$$$
