PDB_DB01232_98
     RDKit          3D

123127  0  0  0  0  0  0  0  0999 V2000
  -12.4490   14.2580   32.6220 C   0  0  0  0  0  0  0  0  0  0  0  0
  -12.9120   15.3120   33.0110 O   0  0  0  0  0  0  0  0  0  0  0  0
  -12.6120   11.8530   32.2520 N   0  0  0  0  0  0  0  0  0  0  0  0
  -13.2280   12.9760   32.6820 C   0  0  0  0  0  0  0  0  0  0  0  0
  -14.5340   12.9240   33.1620 C   0  0  0  0  0  0  0  0  0  0  0  0
  -15.1940   11.7000   33.1890 C   0  0  0  0  0  0  0  0  0  0  0  0
  -15.1670    9.3190   32.7470 C   0  0  0  0  0  0  0  0  0  0  0  0
  -14.4890    8.1940   32.2900 C   0  0  0  0  0  0  0  0  0  0  0  0
  -13.1850    8.2980   31.8170 C   0  0  0  0  0  0  0  0  0  0  0  0
  -12.5520    9.5320   31.8070 C   0  0  0  0  0  0  0  0  0  0  0  0
  -14.5320   10.5580   32.7380 C   0  0  0  0  0  0  0  0  0  0  0  0
  -13.2300   10.6570   32.2660 C   0  0  0  0  0  0  0  0  0  0  0  0
  -11.2150   14.1660   32.1550 N   0  0  0  0  0  0  0  0  0  0  0  0
  -10.3540   15.3290   32.0120 C   0  0  2  0  0  0  0  0  0  0  0  0
   -9.9030   15.3780   30.5810 C   0  0  0  0  0  0  0  0  0  0  0  0
   -8.8880   14.7860   30.2510 O   0  0  0  0  0  0  0  0  0  0  0  0
   -9.1770   15.1020   32.9470 C   0  0  0  0  0  0  0  0  0  0  0  0
   -9.7410   15.0720   34.3460 C   0  0  0  0  0  0  0  0  0  0  0  0
  -10.1480   16.0950   34.8810 O   0  0  0  0  0  0  0  0  0  0  0  0
   -9.7850   13.8740   34.9220 N   0  0  0  0  0  0  0  0  0  0  0  0
   -9.9910   17.6190   28.0410 C   0  0  1  0  0  0  0  0  0  0  0  0
  -11.1630   18.4200   28.1940 O   0  0  0  0  0  0  0  0  0  0  0  0
  -10.3350   16.1530   28.2920 C   0  0  1  0  0  0  0  0  0  0  0  0
  -10.6760   16.0480   29.7150 N   0  0  0  0  0  0  0  0  0  0  0  0
  -11.5940   15.7810   27.5110 C   0  0  0  0  0  0  0  0  0  0  0  0
  -12.0940   14.4290   27.9460 C   0  0  0  0  0  0  0  0  0  0  0  0
  -11.4630   13.2780   27.4830 C   0  0  0  0  0  0  0  0  0  0  0  0
  -13.1910   14.3390   28.7990 C   0  0  0  0  0  0  0  0  0  0  0  0
  -11.9210   12.0280   27.8780 C   0  0  0  0  0  0  0  0  0  0  0  0
  -13.6410   13.0860   29.1960 C   0  0  0  0  0  0  0  0  0  0  0  0
  -13.0110   11.9390   28.7350 C   0  0  0  0  0  0  0  0  0  0  0  0
   -7.9540   17.5660   26.6860 N   0  0  0  0  0  0  0  0  0  0  0  0
   -9.3940   17.8670   26.6550 C   0  0  0  0  0  0  0  0  0  0  0  0
   -7.4660   17.4010   25.3090 C   0  0  2  0  0  0  0  0  0  0  0  0
   -8.1200   16.2400   24.6340 C   0  0  0  0  0  0  0  0  0  0  0  0
   -8.1760   15.1520   25.1980 O   0  0  0  0  0  0  0  0  0  0  0  0
   -5.9680   17.1400   25.2920 C   0  0  0  0  0  0  0  0  0  0  0  0
   -5.2250   18.2800   25.9670 C   0  0  2  0  0  0  0  0  0  0  0  0
   -3.7490   17.9330   25.9800 C   0  0  0  0  0  0  0  0  0  0  0  0
   -3.5330   16.6850   26.8210 C   0  0  0  0  0  0  0  0  0  0  0  0
   -3.9580   16.9500   28.2610 C   0  0  0  0  0  0  0  0  0  0  0  0
   -5.4370   17.3240   28.3170 C   0  0  0  0  0  0  0  0  0  0  0  0
   -5.7620   18.4850   27.3770 C   0  0  2  0  0  0  0  0  0  0  0  0
   -7.2720   18.6950   27.3390 C   0  0  0  0  0  0  0  0  0  0  0  0
   -8.5680   16.5250   23.4130 N   0  0  0  0  0  0  0  0  0  0  0  0
   -9.2340   15.5850   22.5250 C   0  0  1  0  0  0  0  0  0  0  0  0
   -9.5270   16.2660   21.1980 C   0  0  0  0  0  0  0  0  0  0  0  0
   -8.3740   14.3610   22.2680 C   0  0  0  0  0  0  0  0  0  0  0  0
  -10.5600   15.1620   23.1390 C   0  0  0  0  0  0  0  0  0  0  0  0
  -12.0494   14.0623   33.6280 H   0  0  0  0  0  0  0  0  0  0  0  0
  -12.9176   15.3247   34.0009 H   0  0  0  0  0  0  0  0  0  0  0  0
  -12.3414   12.0277   31.2737 H   0  0  0  0  0  0  0  0  0  0  0  0
  -13.6059   13.1581   31.6651 H   0  0  0  0  0  0  0  0  0  0  0  0
  -14.5131   13.3019   34.1948 H   0  0  0  0  0  0  0  0  0  0  0  0
  -15.1067   13.5166   32.4335 H   0  0  0  0  0  0  0  0  0  0  0  0
  -15.4809   11.5130   34.2343 H   0  0  0  0  0  0  0  0  0  0  0  0
  -16.0129   11.8293   32.4661 H   0  0  0  0  0  0  0  0  0  0  0  0
  -16.0713    9.4195   32.1288 H   0  0  0  0  0  0  0  0  0  0  0  0
  -15.3121    9.1133   33.8178 H   0  0  0  0  0  0  0  0  0  0  0  0
  -14.4646    7.4797   33.1262 H   0  0  0  0  0  0  0  0  0  0  0  0
  -15.0561    7.9125   31.3905 H   0  0  0  0  0  0  0  0  0  0  0  0
  -12.5679    7.6284   32.4342 H   0  0  0  0  0  0  0  0  0  0  0  0
  -13.2805    8.0516   30.7492 H   0  0  0  0  0  0  0  0  0  0  0  0
  -11.6465    9.4313   32.4234 H   0  0  0  0  0  0  0  0  0  0  0  0
  -12.4082    9.7381   30.7361 H   0  0  0  0  0  0  0  0  0  0  0  0
  -14.1573   10.3733   33.7556 H   0  0  0  0  0  0  0  0  0  0  0  0
  -13.6107   10.8418   31.2507 H   0  0  0  0  0  0  0  0  0  0  0  0
  -10.7184   13.5154   32.7803 H   0  0  0  0  0  0  0  0  0  0  0  0
  -10.8532   16.2772   32.2602 H   0  0  0  0  0  0  0  0  0  0  0  0
   -9.3077   16.2769   30.7994 H   0  0  0  0  0  0  0  0  0  0  0  0
   -8.3956   14.4988   31.0604 H   0  0  0  0  0  0  0  0  0  0  0  0
   -8.6860   14.1455   32.7146 H   0  0  0  0  0  0  0  0  0  0  0  0
   -8.4239   15.8964   32.8386 H   0  0  0  0  0  0  0  0  0  0  0  0
   -8.7368   15.2577   34.7548 H   0  0  0  0  0  0  0  0  0  0  0  0
  -10.1069   15.9917   35.8647 H   0  0  0  0  0  0  0  0  0  0  0  0
   -9.7809   13.9850   35.9460 H   0  0  0  0  0  0  0  0  0  0  0  0
  -10.6445   13.3855   34.6330 H   0  0  0  0  0  0  0  0  0  0  0  0
   -9.2260   17.8956   28.7814 H   0  0  0  0  0  0  0  0  0  0  0  0
  -11.3513   18.5487   29.1574 H   0  0  0  0  0  0  0  0  0  0  0  0
   -9.4981   15.5035   27.9957 H   0  0  0  0  0  0  0  0  0  0  0  0
  -11.6060   15.6073   29.7573 H   0  0  0  0  0  0  0  0  0  0  0  0
  -12.3735   16.5343   27.6978 H   0  0  0  0  0  0  0  0  0  0  0  0
  -11.3544   15.7474   26.4379 H   0  0  0  0  0  0  0  0  0  0  0  0
  -12.7750   14.4030   27.0825 H   0  0  0  0  0  0  0  0  0  0  0  0
  -11.5201   13.3046   26.3848 H   0  0  0  0  0  0  0  0  0  0  0  0
  -10.4638   13.3367   27.9392 H   0  0  0  0  0  0  0  0  0  0  0  0
  -12.9326   14.8922   29.7140 H   0  0  0  0  0  0  0  0  0  0  0  0
  -14.0222   14.7367   28.1983 H   0  0  0  0  0  0  0  0  0  0  0  0
  -12.1885   11.4809   26.9620 H   0  0  0  0  0  0  0  0  0  0  0  0
  -11.0894   11.6243   28.4743 H   0  0  0  0  0  0  0  0  0  0  0  0
  -13.5797   13.0611   30.2940 H   0  0  0  0  0  0  0  0  0  0  0  0
  -14.6402   13.0230   28.7403 H   0  0  0  0  0  0  0  0  0  0  0  0
  -13.7766   11.3484   28.2105 H   0  0  0  0  0  0  0  0  0  0  0  0
  -12.5719   11.5140   29.6496 H   0  0  0  0  0  0  0  0  0  0  0  0
   -9.8898   17.2166   25.9194 H   0  0  0  0  0  0  0  0  0  0  0  0
   -9.5450   18.9189   26.3711 H   0  0  0  0  0  0  0  0  0  0  0  0
   -7.7064   18.3352   24.7803 H   0  0  0  0  0  0  0  0  0  0  0  0
   -7.1561   15.9578   24.1854 H   0  0  0  0  0  0  0  0  0  0  0  0
   -8.1690   15.2879   26.1786 H   0  0  0  0  0  0  0  0  0  0  0  0
   -5.7572   16.2025   25.8274 H   0  0  0  0  0  0  0  0  0  0  0  0
   -5.6308   17.0626   24.2478 H   0  0  0  0  0  0  0  0  0  0  0  0
   -5.3719   19.2229   25.4198 H   0  0  0  0  0  0  0  0  0  0  0  0
   -3.4064   17.7467   24.9515 H   0  0  0  0  0  0  0  0  0  0  0  0
   -3.1778   18.7695   26.4090 H   0  0  0  0  0  0  0  0  0  0  0  0
   -4.1327   15.8596   26.4097 H   0  0  0  0  0  0  0  0  0  0  0  0
   -2.4668   16.4153   26.8018 H   0  0  0  0  0  0  0  0  0  0  0  0
   -3.7899   16.0438   28.8615 H   0  0  0  0  0  0  0  0  0  0  0  0
   -3.3628   17.7837   28.6619 H   0  0  0  0  0  0  0  0  0  0  0  0
   -6.0372   16.4498   28.0247 H   0  0  0  0  0  0  0  0  0  0  0  0
   -5.6729   17.6380   29.3445 H   0  0  0  0  0  0  0  0  0  0  0  0
   -5.2596   19.3793   27.7743 H   0  0  0  0  0  0  0  0  0  0  0  0
   -7.4913   19.6171   26.7808 H   0  0  0  0  0  0  0  0  0  0  0  0
   -7.6378   18.7693   28.3737 H   0  0  0  0  0  0  0  0  0  0  0  0
   -9.2335   17.3009   23.5396 H   0  0  0  0  0  0  0  0  0  0  0  0
   -9.9555   17.2619   21.3837 H   0  0  0  0  0  0  0  0  0  0  0  0
   -8.5937   16.3694   20.6250 H   0  0  0  0  0  0  0  0  0  0  0  0
  -10.2438   15.6595   20.6250 H   0  0  0  0  0  0  0  0  0  0  0  0
   -8.0653   13.9216   23.2280 H   0  0  0  0  0  0  0  0  0  0  0  0
   -8.9516   13.6208   21.6949 H   0  0  0  0  0  0  0  0  0  0  0  0
   -7.4818   14.6535   21.6949 H   0  0  0  0  0  0  0  0  0  0  0  0
  -10.4808   15.1873   24.2359 H   0  0  0  0  0  0  0  0  0  0  0  0
  -11.3520   15.8521   22.8126 H   0  0  0  0  0  0  0  0  0  0  0  0
  -10.8060   14.1408   22.8126 H   0  0  0  0  0  0  0  0  0  0  0  0
  1  2  1  0
  1  4  1  0
  3  4  1  0
  4  5  1  0
  5  6  1  0
  7  8  1  0
  8  9  1  0
  9 10  1  0
  6 11  1  0
  7 11  1  0
  3 12  1  0
 10 12  1  0
 11 12  1  0
  1 13  1  0
 13 14  1  0
 14 15  1  0
 15 16  1  0
 14 17  1  0
 17 18  1  0
 18 19  1  0
 18 20  1  0
 21 22  1  0
 21 23  1  0
 15 24  1  0
 23 24  1  0
 23 25  1  0
 25 26  1  0
 26 27  1  0
 26 28  1  0
 27 29  1  0
 28 30  1  0
 29 31  1  0
 30 31  1  0
 21 33  1  0
 32 33  1  0
 32 34  1  0
 34 35  1  0
 35 36  1  0
 34 37  1  0
 37 38  1  0
 38 39  1  0
 39 40  1  0
 40 41  1  0
 41 42  1  0
 38 43  1  0
 42 43  1  0
 32 44  1  0
 43 44  1  0
 35 45  1  0
 46 45  1  1
 46 47  1  0
 46 48  1  0
 46 49  1  0
  1 50  1  0
  2 51  1  0
  3 52  1  0
  4 53  1  0
  5 54  1  0
  5 55  1  0
  6 56  1  0
  6 57  1  0
  7 58  1  0
  7 59  1  0
  8 60  1  0
  8 61  1  0
  9 62  1  0
  9 63  1  0
 10 64  1  0
 10 65  1  0
 11 66  1  0
 12 67  1  0
 13 68  1  0
 14 69  1  1
 15 70  1  0
 16 71  1  0
 17 72  1  0
 17 73  1  0
 18 74  1  0
 19 75  1  0
 20 76  1  0
 20 77  1  0
 21 78  1  1
 22 79  1  0
 23 80  1  6
 24 81  1  0
 25 82  1  0
 25 83  1  0
 26 84  1  0
 27 85  1  0
 27 86  1  0
 28 87  1  0
 28 88  1  0
 29 89  1  0
 29 90  1  0
 30 91  1  0
 30 92  1  0
 31 93  1  0
 31 94  1  0
 33 95  1  0
 33 96  1  0
 34 97  1  6
 35 98  1  0
 36 99  1  0
 37100  1  0
 37101  1  0
 38102  1  6
 39103  1  0
 39104  1  0
 40105  1  0
 40106  1  0
 41107  1  0
 41108  1  0
 42109  1  0
 42110  1  0
 43111  1  1
 44112  1  0
 44113  1  0
 45114  1  0
 47115  1  0
 47116  1  0
 47117  1  0
 48118  1  0
 48119  1  0
 48120  1  0
 49121  1  0
 49122  1  0
 49123  1  0
M  END
>  <PDBID>  (1) 
4Q5M

>  <PDB ID>  (1) 
4Q5M

>  <Generic Name>  (1) 
Saquinavir

>  <Brand Name>  (1) 
Fortovase Roche#Invirase#Invirase - Cap 200mg#Fortovase#ROC

>  <DrugBank ID>  (1) 
DB01232

>  <ATC Codes>  (1) 
J05AE01

>  <Ligand ID>  (1) 
ROC

>  <Target Name>  (1) 
Pol polyprotein

>  <UniProt ID>  (1) 
Q72874

>  <PDB ID.1>  (1) 
4Q5M

>  <Seq. Identity>  (1) 
98%

$$$$
