PDB_DB01256_99
     RDKit          3D

 83 87  0  0  0  0  0  0  0  0999 V2000
   52.9410  117.7690  110.7550 C   0  0  0  0  0  0  0  0  0  0  0  0
   54.7740  118.6570  113.1880 C   0  0  2  0  0  0  0  0  0  0  0  0
   55.3070  118.4850  111.6460 C   0  0  1  0  0  0  0  0  0  0  0  0
   53.1220  127.4030  115.7200 N   0  0  0  0  0  0  0  0  0  0  0  0
   52.5650  115.3370  113.0830 C   0  0  0  0  0  0  0  0  0  0  0  0
   53.6230  117.5320  113.2280 C   0  0  2  0  0  0  0  0  0  0  0  0
   54.9400  115.4560  112.7510 O   0  0  0  0  0  0  0  0  0  0  0  0
   49.5960  119.2870  114.1400 O   0  0  0  0  0  0  0  0  0  0  0  0
   51.5540  116.3670  112.6030 C   0  0  0  0  0  0  0  0  0  0  0  0
   53.8960  116.0190  112.9870 C   0  0  0  0  0  0  0  0  0  0  0  0
   54.2200  118.6980  110.5600 C   0  0  0  0  0  0  0  0  0  0  0  0
   52.3520  117.6820  112.2400 C   0  0  2  0  0  0  0  0  0  0  0  0
   51.4980  118.9690  112.5260 C   0  0  2  0  0  0  0  0  0  0  0  0
   51.0120  119.1100  114.0340 C   0  0  1  0  0  0  0  0  0  0  0  0
   51.7230  120.3640  114.7710 C   0  0  2  0  0  0  0  0  0  0  0  0
   53.2950  120.2740  114.7740 C   0  0  0  0  0  0  0  0  0  0  0  0
   54.1180  120.1050  113.4680 C   0  0  1  0  0  0  0  0  0  0  0  0
   55.9350  118.4040  114.2080 C   0  0  0  0  0  0  0  0  0  0  0  0
   56.4500  119.4670  111.2560 C   0  0  0  0  0  0  0  0  0  0  0  0
   50.2640  119.0410  111.5110 C   0  0  0  0  0  0  0  0  0  0  0  0
   51.3100  120.5170  116.2420 C   0  0  0  0  0  0  0  0  0  0  0  0
   51.3600  121.6490  114.0060 C   0  0  0  0  0  0  0  0  0  0  0  0
   50.7980  122.7620  114.3910 C   0  0  0  0  0  0  0  0  0  0  0  0
   55.1780  121.1910  113.4540 O   0  0  0  0  0  0  0  0  0  0  0  0
   55.0060  122.3300  112.7550 C   0  0  0  0  0  0  0  0  0  0  0  0
   53.9990  122.5070  112.1240 O   0  0  0  0  0  0  0  0  0  0  0  0
   56.0830  123.4000  112.7600 C   0  0  0  0  0  0  0  0  0  0  0  0
   55.3820  125.0490  112.3500 S   0  0  0  0  0  0  0  0  0  0  0  0
   54.6890  125.4860  113.9630 C   0  0  0  0  0  0  0  0  0  0  0  0
   55.2480  126.8100  114.4740 C   0  0  0  0  0  0  0  0  0  0  0  0
   54.5930  127.1230  115.8600 C   0  0  2  0  0  0  0  0  0  0  0  0
   54.6680  125.8140  116.7290 C   0  0  0  0  0  0  0  0  0  0  0  0
   53.3420  125.0580  116.3640 C   0  0  0  0  0  0  0  0  0  0  0  0
   52.6550  126.0170  115.3260 C   0  0  2  0  0  0  0  0  0  0  0  0
   53.1670  125.6310  113.8980 C   0  0  0  0  0  0  0  0  0  0  0  0
   52.5870  127.7110  117.0510 C   0  0  0  0  0  0  0  0  0  0  0  0
   52.1447  118.1521  110.0999 H   0  0  0  0  0  0  0  0  0  0  0  0
   53.2767  116.7503  110.5109 H   0  0  0  0  0  0  0  0  0  0  0  0
   55.6551  117.4416  111.6588 H   0  0  0  0  0  0  0  0  0  0  0  0
   52.3549  115.0456  114.1227 H   0  0  0  0  0  0  0  0  0  0  0  0
   52.5305  114.4160  112.4825 H   0  0  0  0  0  0  0  0  0  0  0  0
   53.4828  117.7750  114.2916 H   0  0  0  0  0  0  0  0  0  0  0  0
   49.3381  119.3192  115.0953 H   0  0  0  0  0  0  0  0  0  0  0  0
   51.0269  115.9901  111.7142 H   0  0  0  0  0  0  0  0  0  0  0  0
   50.8069  116.5702  113.3844 H   0  0  0  0  0  0  0  0  0  0  0  0
   54.6623  118.4806  109.5766 H   0  0  0  0  0  0  0  0  0  0  0  0
   53.8795  119.7408  110.6412 H   0  0  0  0  0  0  0  0  0  0  0  0
   52.1658  119.8275  112.3615 H   0  0  0  0  0  0  0  0  0  0  0  0
   51.2974  118.1664  114.5221 H   0  0  0  0  0  0  0  0  0  0  0  0
   53.6543  121.2008  115.2451 H   0  0  0  0  0  0  0  0  0  0  0  0
   53.4674  119.3118  115.2784 H   0  0  0  0  0  0  0  0  0  0  0  0
   53.3969  120.1961  112.6423 H   0  0  0  0  0  0  0  0  0  0  0  0
   55.5468  118.4886  115.2338 H   0  0  0  0  0  0  0  0  0  0  0  0
   56.3456  117.3953  114.0534 H   0  0  0  0  0  0  0  0  0  0  0  0
   56.7281  119.1504  114.0534 H   0  0  0  0  0  0  0  0  0  0  0  0
   56.9163  119.8677  112.1681 H   0  0  0  0  0  0  0  0  0  0  0  0
   57.2060  118.9324  110.6621 H   0  0  0  0  0  0  0  0  0  0  0  0
   56.0354  120.2949  110.6621 H   0  0  0  0  0  0  0  0  0  0  0  0
   49.3241  119.0958  112.0798 H   0  0  0  0  0  0  0  0  0  0  0  0
   50.3619  119.9350  110.8776 H   0  0  0  0  0  0  0  0  0  0  0  0
   50.2573  118.1417  110.8776 H   0  0  0  0  0  0  0  0  0  0  0  0
   52.1430  120.2084  116.8907 H   0  0  0  0  0  0  0  0  0  0  0  0
   51.0576  121.5683  116.4445 H   0  0  0  0  0  0  0  0  0  0  0  0
   50.4336  119.8839  116.4445 H   0  0  0  0  0  0  0  0  0  0  0  0
   51.6226  121.6249  112.9381 H   0  0  0  0  0  0  0  0  0  0  0  0
   50.6269  123.5713  113.6659 H   0  0  0  0  0  0  0  0  0  0  0  0
   50.4954  122.8909  115.4407 H   0  0  0  0  0  0  0  0  0  0  0  0
   56.5415  123.4431  113.7589 H   0  0  0  0  0  0  0  0  0  0  0  0
   56.8347  123.1417  111.9996 H   0  0  0  0  0  0  0  0  0  0  0  0
   54.9672  124.6673  114.6430 H   0  0  0  0  0  0  0  0  0  0  0  0
   56.3393  126.7327  114.5882 H   0  0  0  0  0  0  0  0  0  0  0  0
   55.0222  127.6155  113.7597 H   0  0  0  0  0  0  0  0  0  0  0  0
   55.1158  127.9872  116.2956 H   0  0  0  0  0  0  0  0  0  0  0  0
   55.5499  125.2136  116.4609 H   0  0  0  0  0  0  0  0  0  0  0  0
   54.7631  126.0184  117.8056 H   0  0  0  0  0  0  0  0  0  0  0  0
   53.5581  124.0783  115.9128 H   0  0  0  0  0  0  0  0  0  0  0  0
   52.7107  124.8475  117.2399 H   0  0  0  0  0  0  0  0  0  0  0  0
   51.5566  125.9575  115.3174 H   0  0  0  0  0  0  0  0  0  0  0  0
   52.8977  126.4192  113.1795 H   0  0  0  0  0  0  0  0  0  0  0  0
   52.7074  124.6869  113.5702 H   0  0  0  0  0  0  0  0  0  0  0  0
   53.2687  127.3186  117.8200 H   0  0  0  0  0  0  0  0  0  0  0  0
   52.4937  128.8010  117.1655 H   0  0  0  0  0  0  0  0  0  0  0  0
   51.5975  127.2443  117.1655 H   0  0  0  0  0  0  0  0  0  0  0  0
  2  3  1  0
  2  6  1  0
  5  9  1  0
  5 10  1  0
  6 10  1  0
  7 10  2  0
  1 11  1  0
  3 11  1  0
 12  1  1  6
  6 12  1  0
  9 12  1  0
 12 13  1  0
  8 14  1  0
 13 14  1  0
 14 15  1  0
 15 16  1  0
  2 17  1  0
 16 17  1  0
  2 18  1  1
  3 19  1  0
 13 20  1  0
 15 21  1  0
 15 22  1  6
 22 23  2  3
 17 24  1  0
 24 25  1  0
 25 26  2  0
 25 27  1  0
 27 28  1  0
 28 29  1  0
 29 30  1  0
  4 31  1  0
 30 31  1  0
 31 32  1  0
 32 33  1  0
  4 34  1  0
 33 34  1  0
 29 35  1  0
 34 35  1  0
  4 36  1  0
  1 37  1  0
  1 38  1  0
  3 39  1  1
  5 40  1  0
  5 41  1  0
  6 42  1  1
  8 43  1  0
  9 44  1  0
  9 45  1  0
 11 46  1  0
 11 47  1  0
 13 48  1  6
 14 49  1  1
 16 50  1  0
 16 51  1  0
 17 52  1  6
 18 53  1  0
 18 54  1  0
 18 55  1  0
 19 56  1  0
 19 57  1  0
 19 58  1  0
 20 59  1  0
 20 60  1  0
 20 61  1  0
 21 62  1  0
 21 63  1  0
 21 64  1  0
 22 65  1  0
 23 66  1  0
 23 67  1  0
 27 68  1  0
 27 69  1  0
 29 70  1  0
 30 71  1  0
 30 72  1  0
 31 73  1  1
 32 74  1  0
 32 75  1  0
 33 76  1  0
 33 77  1  0
 34 78  1  6
 35 79  1  0
 35 80  1  0
 36 81  1  0
 36 82  1  0
 36 83  1  0
M  END
>  <PDBID>  (1) 
2OGO

>  <PDB ID>  (1) 
2OGO

>  <Generic Name>  (1) 
Retapamulin

>  <Brand Name>  (1) 
Altabax#Altargo

>  <DrugBank ID>  (1) 
DB01256

>  <ATC Codes>  (1) 
D06AX13

>  <Ligand ID>  (1) 
G34

>  <Target Name>  (1) 
50S ribosomal protein L3

>  <UniProt ID>  (1) 
Q9A1X4

>  <PDB ID.1>  (1) 
2OGO

>  <Seq. Identity>  (1) 
52%

$$$$
