PDB_DB00523_94
     RDKit          3D

248248  0  0  0  0  0  0  0  0999 V2000
   40.9090   22.1030   82.2580 C   0  0  2  0  0  0  0  0  0  0  0  0
   40.4120   20.7260   81.6770 C   0  0  0  0  0  0  0  0  0  0  0  0
   38.9800   20.6340   81.1550 C   0  0  0  0  0  0  0  0  0  0  0  0
   38.6370   21.7300   80.1830 C   0  0  0  0  0  0  0  0  0  0  0  0
   39.2730   23.1220   80.4300 C   0  0  0  0  0  0  0  0  0  0  0  0
   40.3170   23.3240   81.3650 C   0  0  0  0  0  0  0  0  0  0  0  0
   40.9060   24.6610   81.5940 C   0  0  0  0  0  0  0  0  0  0  0  0
   41.4730   25.4510   80.6800 C   0  0  0  0  0  0  0  0  0  0  0  0
   42.0020   26.7400   80.6980 C   0  0  0  0  0  0  0  0  0  0  0  0
   42.4960   27.2600   79.5600 C   0  0  0  0  0  0  0  0  0  0  0  0
   42.6510   26.7310   78.2000 C   0  0  0  0  0  0  0  0  0  0  0  0
   43.1030   27.4590   77.1490 C   0  0  0  0  0  0  0  0  0  0  0  0
   43.2740   26.9060   75.7620 C   0  0  0  0  0  0  0  0  0  0  0  0
   43.6590   27.7750   74.8580 C   0  0  0  0  0  0  0  0  0  0  0  0
   43.9190   27.7180   73.3960 C   0  0  0  0  0  0  0  0  0  0  0  0
   42.4520   21.9330   82.2810 C   0  0  0  0  0  0  0  0  0  0  0  0
   40.4510   22.2100   83.7060 C   0  0  0  0  0  0  0  0  0  0  0  0
   38.5540   24.0850   79.5130 C   0  0  0  0  0  0  0  0  0  0  0  0
   41.9630   27.5260   81.9740 C   0  0  0  0  0  0  0  0  0  0  0  0
   42.9820   25.4510   75.4480 C   0  0  0  0  0  0  0  0  0  0  0  0
   43.5660   28.7440   72.7300 O   0  0  0  0  0  0  0  0  0  0  0  0
   44.4230   26.6880   72.8250 O   0  0  0  0  0  0  0  0  0  0  0  0
   22.5470   28.9750  102.9320 C   0  0  2  0  0  0  0  0  0  0  0  0
   22.5470   27.4810  103.4380 C   0  0  0  0  0  0  0  0  0  0  0  0
   21.2420   26.8780  103.9700 C   0  0  0  0  0  0  0  0  0  0  0  0
   20.0690   27.1090  103.0550 C   0  0  0  0  0  0  0  0  0  0  0  0
   19.9620   28.4920  102.3810 C   0  0  0  0  0  0  0  0  0  0  0  0
   21.0870   29.3770  102.3090 C   0  0  0  0  0  0  0  0  0  0  0  0
   21.0780   30.7410  101.6580 C   0  0  0  0  0  0  0  0  0  0  0  0
   20.2050   31.7740  101.6980 C   0  0  0  0  0  0  0  0  0  0  0  0
   20.2130   33.0640  101.0850 C   0  0  0  0  0  0  0  0  0  0  0  0
   19.1900   33.9210  101.3180 C   0  0  0  0  0  0  0  0  0  0  0  0
   17.9640   33.7980  102.1000 C   0  0  0  0  0  0  0  0  0  0  0  0
   17.0800   34.7660  102.2670 C   0  0  0  0  0  0  0  0  0  0  0  0
   15.8030   34.6060  103.0220 C   0  0  0  0  0  0  0  0  0  0  0  0
   15.0870   35.6900  103.0870 C   0  0  0  0  0  0  0  0  0  0  0  0
   13.8010   36.0880  103.6760 C   0  0  0  0  0  0  0  0  0  0  0  0
   23.7350   29.0130  101.9230 C   0  0  0  0  0  0  0  0  0  0  0  0
   22.9610   29.8680  104.0910 C   0  0  0  0  0  0  0  0  0  0  0  0
   18.5220   28.6120  101.8900 C   0  0  0  0  0  0  0  0  0  0  0  0
   21.3650   33.4670  100.2040 C   0  0  0  0  0  0  0  0  0  0  0  0
   15.3970   33.2960  103.6410 C   0  0  0  0  0  0  0  0  0  0  0  0
   13.0250   36.7060  102.8640 O   0  0  0  0  0  0  0  0  0  0  0  0
   13.4800   35.8340  104.9220 O   0  0  0  0  0  0  0  0  0  0  0  0
   39.6330   24.3860  123.7260 C   0  0  2  0  0  0  0  0  0  0  0  0
   38.2060   24.7140  124.3040 C   0  0  0  0  0  0  0  0  0  0  0  0
   37.3560   23.5590  124.8370 C   0  0  0  0  0  0  0  0  0  0  0  0
   38.1060   22.6520  125.7860 C   0  0  0  0  0  0  0  0  0  0  0  0
   39.6320   22.4770  125.5610 C   0  0  0  0  0  0  0  0  0  0  0  0
   40.3540   23.2580  124.6360 C   0  0  0  0  0  0  0  0  0  0  0  0
   41.8060   23.0760  124.4260 C   0  0  0  0  0  0  0  0  0  0  0  0
   42.7730   23.1790  125.3450 C   0  0  0  0  0  0  0  0  0  0  0  0
   44.1500   22.9920  125.3280 C   0  0  0  0  0  0  0  0  0  0  0  0
   44.8460   23.1690  126.4600 C   0  0  0  0  0  0  0  0  0  0  0  0
   44.4750   23.5740  127.8180 C   0  0  0  0  0  0  0  0  0  0  0  0
   45.3470   23.6090  128.8570 C   0  0  0  0  0  0  0  0  0  0  0  0
   44.9670   24.0250  130.2450 C   0  0  0  0  0  0  0  0  0  0  0  0
   45.9200   23.9280  131.1330 C   0  0  0  0  0  0  0  0  0  0  0  0
   46.0090   24.1720  132.5960 C   0  0  0  0  0  0  0  0  0  0  0  0
   40.3110   25.7810  123.6660 C   0  0  0  0  0  0  0  0  0  0  0  0
   39.4740   23.9000  122.2910 C   0  0  0  0  0  0  0  0  0  0  0  0
   40.0780   21.3730  126.4870 C   0  0  0  0  0  0  0  0  0  0  0  0
   44.8140   22.5590  124.0490 C   0  0  0  0  0  0  0  0  0  0  0  0
   43.5620   24.4800  130.5810 C   0  0  0  0  0  0  0  0  0  0  0  0
   45.3710   25.1240  133.1820 O   0  0  0  0  0  0  0  0  0  0  0  0
   46.7200   23.3350  133.2500 O   0  0  0  0  0  0  0  0  0  0  0  0
   36.3700    5.0610  103.0390 C   0  0  2  0  0  0  0  0  0  0  0  0
   35.0780    5.7900  102.5130 C   0  0  0  0  0  0  0  0  0  0  0  0
   33.9130    4.9450  101.9860 C   0  0  0  0  0  0  0  0  0  0  0  0
   33.5210    3.8290  102.9220 C   0  0  0  0  0  0  0  0  0  0  0  0
   34.6660    3.0500  103.5990 C   0  0  0  0  0  0  0  0  0  0  0  0
   35.9940    3.5860  103.6700 C   0  0  0  0  0  0  0  0  0  0  0  0
   37.1680    2.8950  104.3270 C   0  0  0  0  0  0  0  0  0  0  0  0
   37.6130    1.6180  104.2940 C   0  0  0  0  0  0  0  0  0  0  0  0
   38.7250    0.9730  104.9110 C   0  0  0  0  0  0  0  0  0  0  0  0
   38.9470   -0.3440  104.6820 C   0  0  0  0  0  0  0  0  0  0  0  0
   38.2280   -1.3450  103.9030 C   0  0  0  0  0  0  0  0  0  0  0  0
   38.6280   -2.5970  103.7380 C   0  0  0  0  0  0  0  0  0  0  0  0
   37.8530   -3.6330  102.9790 C   0  0  0  0  0  0  0  0  0  0  0  0
   38.4480   -4.7950  102.9110 C   0  0  0  0  0  0  0  0  0  0  0  0
   38.1730   -6.1110  102.3160 C   0  0  0  0  0  0  0  0  0  0  0  0
   36.9570    6.0830  104.0520 C   0  0  0  0  0  0  0  0  0  0  0  0
   37.3680    4.9870  101.8900 C   0  0  0  0  0  0  0  0  0  0  0  0
   34.0530    1.7460  104.0940 C   0  0  0  0  0  0  0  0  0  0  0  0
   39.6570    1.7680  105.7930 C   0  0  0  0  0  0  0  0  0  0  0  0
   36.5130   -3.3360  102.3560 C   0  0  0  0  0  0  0  0  0  0  0  0
   37.7880   -6.2620  101.0710 O   0  0  0  0  0  0  0  0  0  0  0  0
   38.3540   -7.0950  103.1150 O   0  0  0  0  0  0  0  0  0  0  0  0
   41.0799   20.4646   80.8430 H   0  0  0  0  0  0  0  0  0  0  0  0
   40.4298   20.0451   82.5408 H   0  0  0  0  0  0  0  0  0  0  0  0
   38.8526   19.6651   80.6500 H   0  0  0  0  0  0  0  0  0  0  0  0
   38.3075   20.7383   82.0192 H   0  0  0  0  0  0  0  0  0  0  0  0
   38.9510   21.3956   79.1832 H   0  0  0  0  0  0  0  0  0  0  0  0
   37.5551   21.8875   80.3042 H   0  0  0  0  0  0  0  0  0  0  0  0
   38.5301   23.3219   81.2163 H   0  0  0  0  0  0  0  0  0  0  0  0
   41.0596   23.1112   80.5818 H   0  0  0  0  0  0  0  0  0  0  0  0
   40.0903   25.2617   82.0227 H   0  0  0  0  0  0  0  0  0  0  0  0
   41.8032   24.3674   82.1587 H   0  0  0  0  0  0  0  0  0  0  0  0
   42.3165   24.8440   80.3195 H   0  0  0  0  0  0  0  0  0  0  0  0
   40.5280   25.7375   80.1954 H   0  0  0  0  0  0  0  0  0  0  0  0
   42.9933   26.3298   80.9409 H   0  0  0  0  0  0  0  0  0  0  0  0
   41.8888   28.1651   79.4114 H   0  0  0  0  0  0  0  0  0  0  0  0
   43.5549   27.1614   79.8410 H   0  0  0  0  0  0  0  0  0  0  0  0
   43.3391   25.8774   78.2890 H   0  0  0  0  0  0  0  0  0  0  0  0
   41.5996   26.5815   77.9133 H   0  0  0  0  0  0  0  0  0  0  0  0
   42.4076   28.3056   77.0501 H   0  0  0  0  0  0  0  0  0  0  0  0
   44.1503   27.6252   77.4413 H   0  0  0  0  0  0  0  0  0  0  0  0
   42.2225   27.1400   75.5391 H   0  0  0  0  0  0  0  0  0  0  0  0
   42.8992   28.5661   74.9404 H   0  0  0  0  0  0  0  0  0  0  0  0
   44.7203   27.7509   75.1462 H   0  0  0  0  0  0  0  0  0  0  0  0
   42.9258   27.2729   73.2367 H   0  0  0  0  0  0  0  0  0  0  0  0
   42.8011   21.8945   83.3234 H   0  0  0  0  0  0  0  0  0  0  0  0
   42.7257   20.9993   81.7679 H   0  0  0  0  0  0  0  0  0  0  0  0
   42.9224   22.7848   81.7679 H   0  0  0  0  0  0  0  0  0  0  0  0
   41.3012   22.0114   84.3751 H   0  0  0  0  0  0  0  0  0  0  0  0
   40.0648   23.2226   83.8945 H   0  0  0  0  0  0  0  0  0  0  0  0
   39.6561   21.4734   83.8945 H   0  0  0  0  0  0  0  0  0  0  0  0
   38.0032   24.8227   80.1151 H   0  0  0  0  0  0  0  0  0  0  0  0
   39.2875   24.6039   78.8783 H   0  0  0  0  0  0  0  0  0  0  0  0
   37.8481   23.5292   78.8783 H   0  0  0  0  0  0  0  0  0  0  0  0
   41.9972   26.8366   82.8305 H   0  0  0  0  0  0  0  0  0  0  0  0
   42.8286   28.2036   82.0139 H   0  0  0  0  0  0  0  0  0  0  0  0
   41.0345   28.1145   82.0139 H   0  0  0  0  0  0  0  0  0  0  0  0
   42.8692   24.8888   76.3867 H   0  0  0  0  0  0  0  0  0  0  0  0
   42.0519   25.3813   74.8648 H   0  0  0  0  0  0  0  0  0  0  0  0
   43.8131   25.0278   74.8648 H   0  0  0  0  0  0  0  0  0  0  0  0
   43.3156   29.4717   73.3529 H   0  0  0  0  0  0  0  0  0  0  0  0
   44.7357   26.0490   73.5134 H   0  0  0  0  0  0  0  0  0  0  0  0
   22.8713   26.8545  102.5940 H   0  0  0  0  0  0  0  0  0  0  0  0
   23.2075   27.4997  104.3174 H   0  0  0  0  0  0  0  0  0  0  0  0
   21.3818   25.7939  104.0932 H   0  0  0  0  0  0  0  0  0  0  0  0
   21.0162   27.3751  104.9249 H   0  0  0  0  0  0  0  0  0  0  0  0
   20.1191   26.3546  102.2560 H   0  0  0  0  0  0  0  0  0  0  0  0
   19.1846   27.0417  103.7056 H   0  0  0  0  0  0  0  0  0  0  0  0
   19.6722   28.9387  103.3436 H   0  0  0  0  0  0  0  0  0  0  0  0
   21.3756   28.9318  101.3454 H   0  0  0  0  0  0  0  0  0  0  0  0
   22.0211   31.1920  102.0003 H   0  0  0  0  0  0  0  0  0  0  0  0
   20.7945   30.3887  100.6552 H   0  0  0  0  0  0  0  0  0  0  0  0
   19.2633   31.3281  101.3454 H   0  0  0  0  0  0  0  0  0  0  0  0
   20.4711   32.1184  102.7082 H   0  0  0  0  0  0  0  0  0  0  0  0
   19.6732   32.6554  100.2180 H   0  0  0  0  0  0  0  0  0  0  0  0
   19.6861   34.8002  101.7550 H   0  0  0  0  0  0  0  0  0  0  0  0
   18.7155   33.8142  100.3314 H   0  0  0  0  0  0  0  0  0  0  0  0
   17.4071   32.9647  101.6467 H   0  0  0  0  0  0  0  0  0  0  0  0
   18.3785   33.7248  103.1163 H   0  0  0  0  0  0  0  0  0  0  0  0
   17.6220   35.5824  102.7667 H   0  0  0  0  0  0  0  0  0  0  0  0
   16.7035   34.8861  101.2404 H   0  0  0  0  0  0  0  0  0  0  0  0
   16.3173   34.8899  103.9520 H   0  0  0  0  0  0  0  0  0  0  0  0
   15.7859   36.4055  103.5447 H   0  0  0  0  0  0  0  0  0  0  0  0
   14.6764   35.5737  102.0732 H   0  0  0  0  0  0  0  0  0  0  0  0
   14.2402   37.0475  103.9866 H   0  0  0  0  0  0  0  0  0  0  0  0
   24.6852   29.0434  102.4763 H   0  0  0  0  0  0  0  0  0  0  0  0
   23.7077   28.1135  101.2904 H   0  0  0  0  0  0  0  0  0  0  0  0
   23.6503   29.9089  101.2904 H   0  0  0  0  0  0  0  0  0  0  0  0
   22.7283   29.3662  105.0418 H   0  0  0  0  0  0  0  0  0  0  0  0
   24.0419   30.0642  104.0348 H   0  0  0  0  0  0  0  0  0  0  0  0
   22.4122   30.8197  104.0348 H   0  0  0  0  0  0  0  0  0  0  0  0
   17.8435   28.6685  102.7540 H   0  0  0  0  0  0  0  0  0  0  0  0
   18.4169   29.5220  101.2811 H   0  0  0  0  0  0  0  0  0  0  0  0
   18.2677   27.7319  101.2811 H   0  0  0  0  0  0  0  0  0  0  0  0
   22.2186   33.7656  100.8303 H   0  0  0  0  0  0  0  0  0  0  0  0
   21.6557   32.6172   99.5689 H   0  0  0  0  0  0  0  0  0  0  0  0
   21.0626   34.3127   99.5689 H   0  0  0  0  0  0  0  0  0  0  0  0
   15.4244   33.3843  104.7371 H   0  0  0  0  0  0  0  0  0  0  0  0
   14.3770   33.0389  103.3192 H   0  0  0  0  0  0  0  0  0  0  0  0
   16.0928   32.5071  103.3192 H   0  0  0  0  0  0  0  0  0  0  0  0
   12.3628   37.2334  103.3773 H   0  0  0  0  0  0  0  0  0  0  0  0
   14.0946   36.3203  105.5268 H   0  0  0  0  0  0  0  0  0  0  0  0
   38.3455   25.4247  125.1319 H   0  0  0  0  0  0  0  0  0  0  0  0
   37.6417   25.0887  123.4373 H   0  0  0  0  0  0  0  0  0  0  0  0
   36.4893   23.9796  125.3679 H   0  0  0  0  0  0  0  0  0  0  0  0
   37.0566   22.9490  123.9720 H   0  0  0  0  0  0  0  0  0  0  0  0
   37.9672   23.0517  126.8014 H   0  0  0  0  0  0  0  0  0  0  0  0
   37.6821   21.6525  125.6092 H   0  0  0  0  0  0  0  0  0  0  0  0
   39.4309   21.7331  124.7760 H   0  0  0  0  0  0  0  0  0  0  0  0
   40.5427   24.0089  125.4173 H   0  0  0  0  0  0  0  0  0  0  0  0
   41.9080   22.0585  124.0206 H   0  0  0  0  0  0  0  0  0  0  0  0
   42.0157   23.9875  123.8471 H   0  0  0  0  0  0  0  0  0  0  0  0
   42.6688   24.2155  125.6982 H   0  0  0  0  0  0  0  0  0  0  0  0
   42.5462   22.2230  125.8395 H   0  0  0  0  0  0  0  0  0  0  0  0
   44.2910   24.0533  125.0754 H   0  0  0  0  0  0  0  0  0  0  0  0
   45.3294   22.1928  126.6126 H   0  0  0  0  0  0  0  0  0  0  0  0
   45.2801   24.1377  126.1715 H   0  0  0  0  0  0  0  0  0  0  0  0
   44.0750   24.5947  127.7277 H   0  0  0  0  0  0  0  0  0  0  0  0
   43.8209   22.7417  128.1171 H   0  0  0  0  0  0  0  0  0  0  0  0
   45.7459   22.5880  128.9484 H   0  0  0  0  0  0  0  0  0  0  0  0
   46.0026   24.4399  128.5573 H   0  0  0  0  0  0  0  0  0  0  0  0
   44.6541   22.9943  130.4682 H   0  0  0  0  0  0  0  0  0  0  0  0
   46.2372   22.8789  131.0392 H   0  0  0  0  0  0  0  0  0  0  0  0
   46.4195   24.8649  130.8454 H   0  0  0  0  0  0  0  0  0  0  0  0
   46.8631   24.8455  132.4317 H   0  0  0  0  0  0  0  0  0  0  0  0
   40.4887   26.1466  124.6881 H   0  0  0  0  0  0  0  0  0  0  0  0
   41.2702   25.6999  123.1337 H   0  0  0  0  0  0  0  0  0  0  0  0
   39.6546   26.4851  123.1337 H   0  0  0  0  0  0  0  0  0  0  0  0
   39.1320   22.8545  122.2937 H   0  0  0  0  0  0  0  0  0  0  0  0
   38.7340   24.5265  121.7715 H   0  0  0  0  0  0  0  0  0  0  0  0
   40.4412   23.9680  121.7715 H   0  0  0  0  0  0  0  0  0  0  0  0
   39.9479   21.6950  127.5308 H   0  0  0  0  0  0  0  0  0  0  0  0
   39.4729   20.4730  126.3028 H   0  0  0  0  0  0  0  0  0  0  0  0
   41.1384   21.1459  126.3028 H   0  0  0  0  0  0  0  0  0  0  0  0
   45.7142   21.9720  124.2837 H   0  0  0  0  0  0  0  0  0  0  0  0
   44.1160   21.9419  123.4642 H   0  0  0  0  0  0  0  0  0  0  0  0
   45.0972   23.4466  123.4642 H   0  0  0  0  0  0  0  0  0  0  0  0
   43.4407   24.5193  131.6736 H   0  0  0  0  0  0  0  0  0  0  0  0
   43.3891   25.4801  130.1567 H   0  0  0  0  0  0  0  0  0  0  0  0
   42.8357   23.7711  130.1567 H   0  0  0  0  0  0  0  0  0  0  0  0
   45.4440   25.0151  134.1633 H   0  0  0  0  0  0  0  0  0  0  0  0
   46.5944   23.4829  134.2208 H   0  0  0  0  0  0  0  0  0  0  0  0
   34.6876    6.3950  103.3446 H   0  0  0  0  0  0  0  0  0  0  0  0
   35.4271    6.3412  101.6274 H   0  0  0  0  0  0  0  0  0  0  0  0
   33.0425    5.6013  101.8397 H   0  0  0  0  0  0  0  0  0  0  0  0
   34.2429    4.4826  101.0440 H   0  0  0  0  0  0  0  0  0  0  0  0
   32.9005    4.2660  103.7183 H   0  0  0  0  0  0  0  0  0  0  0  0
   33.0084    3.0906  102.2879 H   0  0  0  0  0  0  0  0  0  0  0  0
   34.9098    2.5733  102.6381 H   0  0  0  0  0  0  0  0  0  0  0  0
   35.7513    4.0597  104.6327 H   0  0  0  0  0  0  0  0  0  0  0  0
   38.0344    3.4766  103.9790 H   0  0  0  0  0  0  0  0  0  0  0  0
   36.7263    2.8410  105.3330 H   0  0  0  0  0  0  0  0  0  0  0  0
   36.7495    1.0359  104.6483 H   0  0  0  0  0  0  0  0  0  0  0  0
   38.0461    1.6666  103.2840 H   0  0  0  0  0  0  0  0  0  0  0  0
   38.0961    0.7165  105.7763 H   0  0  0  0  0  0  0  0  0  0  0  0
   39.9579   -0.3609  104.2486 H   0  0  0  0  0  0  0  0  0  0  0  0
   38.6069   -0.6944  105.6676 H   0  0  0  0  0  0  0  0  0  0  0  0
   37.2285   -1.4114  104.3575 H   0  0  0  0  0  0  0  0  0  0  0  0
   38.3684   -0.9507  102.8857 H   0  0  0  0  0  0  0  0  0  0  0  0
   39.6072   -2.5339  103.2408 H   0  0  0  0  0  0  0  0  0  0  0  0
   38.5398   -2.9813  104.7649 H   0  0  0  0  0  0  0  0  0  0  0  0
   38.3509   -3.3236  102.0482 H   0  0  0  0  0  0  0  0  0  0  0  0
   39.4172   -4.5341  102.4609 H   0  0  0  0  0  0  0  0  0  0  0  0
   38.1318   -5.1006  103.9193 H   0  0  0  0  0  0  0  0  0  0  0  0
   37.1221   -6.0341  102.6317 H   0  0  0  0  0  0  0  0  0  0  0  0
   36.7588    5.7379  105.0775 H   0  0  0  0  0  0  0  0  0  0  0  0
   38.0427    6.1699  103.8978 H   0  0  0  0  0  0  0  0  0  0  0  0
   36.4850    7.0645  103.8978 H   0  0  0  0  0  0  0  0  0  0  0  0
   38.3881    4.9114  102.2946 H   0  0  0  0  0  0  0  0  0  0  0  0
   37.1518    4.1024  101.2729 H   0  0  0  0  0  0  0  0  0  0  0  0
   37.2846    5.8938  101.2729 H   0  0  0  0  0  0  0  0  0  0  0  0
   34.0488    1.7371  105.1940 H   0  0  0  0  0  0  0  0  0  0  0  0
   33.0210    1.6618  103.7227 H   0  0  0  0  0  0  0  0  0  0  0  0
   34.6466    0.8976  103.7227 H   0  0  0  0  0  0  0  0  0  0  0  0
   39.4224    1.5678  106.8489 H   0  0  0  0  0  0  0  0  0  0  0  0
   40.6968    1.4744  105.5864 H   0  0  0  0  0  0  0  0  0  0  0  0
   39.5310    2.8411  105.5864 H   0  0  0  0  0  0  0  0  0  0  0  0
   35.7685   -3.1710  103.1488 H   0  0  0  0  0  0  0  0  0  0  0  0
   36.5906   -2.4333  101.7323 H   0  0  0  0  0  0  0  0  0  0  0  0
   36.2019   -4.1870  101.7323 H   0  0  0  0  0  0  0  0  0  0  0  0
   36.8665   -6.6234  101.0521 H   0  0  0  0  0  0  0  0  0  0  0  0
   38.2953   -6.7758  104.0503 H   0  0  0  0  0  0  0  0  0  0  0  0
  1  2  1  0
  2  3  1  0
  3  4  1  0
  4  5  1  0
  1  6  1  0
  5  6  1  0
  6  7  1  0
  7  8  1  0
  8  9  1  0
  9 10  1  0
 10 11  1  0
 11 12  1  0
 12 13  1  0
 13 14  1  0
 14 15  1  0
  1 16  1  1
  1 17  1  0
  5 18  1  0
  9 19  1  0
 13 20  1  0
 15 21  1  0
 15 22  1  0
 23 24  1  0
 24 25  1  0
 25 26  1  0
 26 27  1  0
 23 28  1  0
 27 28  1  0
 28 29  1  0
 29 30  1  0
 30 31  1  0
 31 32  1  0
 32 33  1  0
 33 34  1  0
 34 35  1  0
 35 36  1  0
 36 37  1  0
 23 38  1  6
 23 39  1  0
 27 40  1  0
 31 41  1  0
 35 42  1  0
 37 43  1  0
 37 44  1  0
 45 46  1  0
 46 47  1  0
 47 48  1  0
 48 49  1  0
 45 50  1  0
 49 50  1  0
 50 51  1  0
 51 52  1  0
 52 53  1  0
 53 54  1  0
 54 55  1  0
 55 56  1  0
 56 57  1  0
 57 58  1  0
 58 59  1  0
 45 60  1  6
 45 61  1  0
 49 62  1  0
 53 63  1  0
 57 64  1  0
 59 65  1  0
 59 66  1  0
 67 68  1  0
 68 69  1  0
 69 70  1  0
 70 71  1  0
 67 72  1  0
 71 72  1  0
 72 73  1  0
 73 74  1  0
 74 75  1  0
 75 76  1  0
 76 77  1  0
 77 78  1  0
 78 79  1  0
 79 80  1  0
 80 81  1  0
 67 82  1  1
 67 83  1  0
 71 84  1  0
 75 85  1  0
 79 86  1  0
 81 87  1  0
 81 88  1  0
  2 89  1  0
  2 90  1  0
  3 91  1  0
  3 92  1  0
  4 93  1  0
  4 94  1  0
  5 95  1  0
  6 96  1  0
  7 97  1  0
  7 98  1  0
  8 99  1  0
  8100  1  0
  9101  1  0
 10102  1  0
 10103  1  0
 11104  1  0
 11105  1  0
 12106  1  0
 12107  1  0
 13108  1  0
 14109  1  0
 14110  1  0
 15111  1  0
 16112  1  0
 16113  1  0
 16114  1  0
 17115  1  0
 17116  1  0
 17117  1  0
 18118  1  0
 18119  1  0
 18120  1  0
 19121  1  0
 19122  1  0
 19123  1  0
 20124  1  0
 20125  1  0
 20126  1  0
 21127  1  0
 22128  1  0
 24129  1  0
 24130  1  0
 25131  1  0
 25132  1  0
 26133  1  0
 26134  1  0
 27135  1  0
 28136  1  0
 29137  1  0
 29138  1  0
 30139  1  0
 30140  1  0
 31141  1  0
 32142  1  0
 32143  1  0
 33144  1  0
 33145  1  0
 34146  1  0
 34147  1  0
 35148  1  0
 36149  1  0
 36150  1  0
 37151  1  0
 38152  1  0
 38153  1  0
 38154  1  0
 39155  1  0
 39156  1  0
 39157  1  0
 40158  1  0
 40159  1  0
 40160  1  0
 41161  1  0
 41162  1  0
 41163  1  0
 42164  1  0
 42165  1  0
 42166  1  0
 43167  1  0
 44168  1  0
 46169  1  0
 46170  1  0
 47171  1  0
 47172  1  0
 48173  1  0
 48174  1  0
 49175  1  0
 50176  1  0
 51177  1  0
 51178  1  0
 52179  1  0
 52180  1  0
 53181  1  0
 54182  1  0
 54183  1  0
 55184  1  0
 55185  1  0
 56186  1  0
 56187  1  0
 57188  1  0
 58189  1  0
 58190  1  0
 59191  1  0
 60192  1  0
 60193  1  0
 60194  1  0
 61195  1  0
 61196  1  0
 61197  1  0
 62198  1  0
 62199  1  0
 62200  1  0
 63201  1  0
 63202  1  0
 63203  1  0
 64204  1  0
 64205  1  0
 64206  1  0
 65207  1  0
 66208  1  0
 68209  1  0
 68210  1  0
 69211  1  0
 69212  1  0
 70213  1  0
 70214  1  0
 71215  1  0
 72216  1  0
 73217  1  0
 73218  1  0
 74219  1  0
 74220  1  0
 75221  1  0
 76222  1  0
 76223  1  0
 77224  1  0
 77225  1  0
 78226  1  0
 78227  1  0
 79228  1  0
 80229  1  0
 80230  1  0
 81231  1  0
 82232  1  0
 82233  1  0
 82234  1  0
 83235  1  0
 83236  1  0
 83237  1  0
 84238  1  0
 84239  1  0
 84240  1  0
 85241  1  0
 85242  1  0
 85243  1  0
 86244  1  0
 86245  1  0
 86246  1  0
 87247  1  0
 88248  1  0
M  END
>  <PDBID>  (1) 
1XDK

>  <PDB ID>  (1) 
1XDK

>  <Generic Name>  (1) 
Alitretinoin

>  <Brand Name>  (1) 
Panretin#Toctino

>  <DrugBank ID>  (1) 
DB00523

>  <ATC Codes>  (1) 
D11AH04#L01XX22

>  <Ligand ID>  (1) 
9CR

>  <Target Name>  (1) 
Retinoic acid receptor beta

>  <UniProt ID>  (1) 
P10826

>  <PDB ID.1>  (1) 
1XDK

>  <Seq. Identity>  (1) 
99%

$$$$
