PDB_DB01409_97
     RDKit          3D

 58 62  0  0  0  0  0  0  0  0999 V2000
    5.6620   23.0740  345.0760 C   0  0  1  0  0  0  0  0  0  0  0  0
    5.0420   22.6700  346.0600 O   0  0  0  0  0  0  0  0  0  0  0  0
    7.4460   22.7670  343.3520 C   0  0  0  0  0  0  0  0  0  0  0  0
    8.0890   23.2270  345.7110 C   0  0  0  0  0  0  0  0  0  0  0  0
    7.4670   23.9180  342.5830 C   0  0  0  0  0  0  0  0  0  0  0  0
    7.8490   23.8400  341.2790 C   0  0  0  0  0  0  0  0  0  0  0  0
    8.1950   22.6220  340.7680 C   0  0  0  0  0  0  0  0  0  0  0  0
    9.0990   24.1190  345.4010 C   0  0  0  0  0  0  0  0  0  0  0  0
    9.9020   24.5930  346.3920 C   0  0  0  0  0  0  0  0  0  0  0  0
    9.6790   24.1650  347.6720 C   0  0  0  0  0  0  0  0  0  0  0  0
    7.3260   27.8380  344.1090 O   0  0  0  0  0  0  0  0  0  0  0  0
    5.2720   24.2940  344.4860 O   0  0  0  0  0  0  0  0  0  0  0  0
    7.0480   21.2050  345.0700 O   0  0  0  0  0  0  0  0  0  0  0  0
    7.9710   21.5480  342.1720 S   0  0  0  0  0  0  0  0  0  0  0  0
    8.2930   23.0620  347.4690 S   0  0  0  0  0  0  0  0  0  0  0  0
    3.9530   28.1990  346.6040 C   0  0  0  0  0  0  0  0  0  0  0  0
    4.7660   27.5740  344.4170 C   0  0  2  0  0  0  0  0  0  0  0  0
    3.9530   26.3040  344.3700 C   0  0  0  0  0  0  0  0  0  0  0  0
    4.5410   25.2190  345.2560 C   0  0  2  0  0  0  0  0  0  0  0  0
    5.3870   25.7300  346.4200 C   0  0  0  0  0  0  0  0  0  0  0  0
    5.9980   27.0740  346.1170 C   0  0  1  0  0  0  0  0  0  0  0  0
    6.9140   26.7960  344.9570 C   0  0  1  0  0  0  0  0  0  0  0  0
    6.0930   27.2140  343.7890 C   0  0  2  0  0  0  0  0  0  0  0  0
    5.5590   29.4550  345.7080 C   0  0  0  0  0  0  0  0  0  0  0  0
    7.0720   22.5640  344.8050 C   0  0  1  0  0  0  0  0  0  0  0  0
    5.0730   28.0670  345.7040 N   0  0  2  0  0  4  0  0  0  0  0  0
    5.1647   22.3814  344.3811 H   0  0  0  0  0  0  0  0  0  0  0  0
    5.5008   22.9690  346.8847 H   0  0  0  0  0  0  0  0  0  0  0  0
    6.3984   22.5941  343.0646 H   0  0  0  0  0  0  0  0  0  0  0  0
    8.7816   22.3874  345.5518 H   0  0  0  0  0  0  0  0  0  0  0  0
    6.4474   24.3306  342.5948 H   0  0  0  0  0  0  0  0  0  0  0  0
    8.2539   24.5290  343.0493 H   0  0  0  0  0  0  0  0  0  0  0  0
    7.0125   24.2191  340.6735 H   0  0  0  0  0  0  0  0  0  0  0  0
    8.7824   24.4207  341.2394 H   0  0  0  0  0  0  0  0  0  0  0  0
    7.5336   22.3355  339.9371 H   0  0  0  0  0  0  0  0  0  0  0  0
    9.2106   22.5921  340.3466 H   0  0  0  0  0  0  0  0  0  0  0  0
    9.7529   23.6205  344.6703 H   0  0  0  0  0  0  0  0  0  0  0  0
    8.5577   25.0129  345.0575 H   0  0  0  0  0  0  0  0  0  0  0  0
   10.9350   24.3180  346.1327 H   0  0  0  0  0  0  0  0  0  0  0  0
    9.6821   25.6703  346.4255 H   0  0  0  0  0  0  0  0  0  0  0  0
   10.5551   23.6340  348.0727 H   0  0  0  0  0  0  0  0  0  0  0  0
    9.4901   24.9829  348.3829 H   0  0  0  0  0  0  0  0  0  0  0  0
    7.0454   21.0597  346.0493 H   0  0  0  0  0  0  0  0  0  0  0  0
    4.3108   28.1568  347.6433 H   0  0  0  0  0  0  0  0  0  0  0  0
    3.4523   29.1624  346.4274 H   0  0  0  0  0  0  0  0  0  0  0  0
    3.2420   27.3784  346.4274 H   0  0  0  0  0  0  0  0  0  0  0  0
    4.1715   28.3549  343.9203 H   0  0  0  0  0  0  0  0  0  0  0  0
    2.9302   26.5243  344.7096 H   0  0  0  0  0  0  0  0  0  0  0  0
    3.9574   25.9358  343.3335 H   0  0  0  0  0  0  0  0  0  0  0  0
    3.6751   24.7243  345.7201 H   0  0  0  0  0  0  0  0  0  0  0  0
    4.7489   25.8213  347.3114 H   0  0  0  0  0  0  0  0  0  0  0  0
    6.2034   25.0129  346.5914 H   0  0  0  0  0  0  0  0  0  0  0  0
    6.4716   27.4717  347.0267 H   0  0  0  0  0  0  0  0  0  0  0  0
    7.5069   25.9710  345.3788 H   0  0  0  0  0  0  0  0  0  0  0  0
    5.7141   26.9370  342.7942 H   0  0  0  0  0  0  0  0  0  0  0  0
    5.6792   29.7984  346.7461 H   0  0  0  0  0  0  0  0  0  0  0  0
    6.5283   29.5056  345.1905 H   0  0  0  0  0  0  0  0  0  0  0  0
    4.8330   30.0992  345.1905 H   0  0  0  0  0  0  0  0  0  0  0  0
  1  2  1  0
  3  5  1  0
  5  6  1  0
  6  7  1  0
  4  8  1  0
  8  9  1  0
  9 10  1  0
  1 12  1  0
  3 14  1  0
  7 14  1  0
  4 15  1  0
 10 15  1  0
 17 18  1  0
 12 19  1  0
 18 19  1  0
 19 20  1  0
 20 21  1  0
 11 22  1  0
 21 22  1  0
 11 23  1  0
 17 23  1  0
 22 23  1  0
  1 25  1  0
  3 25  1  0
  4 25  1  0
 25 13  1  1
 26 16  1  1
 17 26  1  0
 21 26  1  0
 24 26  1  0
  1 27  1  6
  2 28  1  0
  3 29  1  0
  4 30  1  0
  5 31  1  0
  5 32  1  0
  6 33  1  0
  6 34  1  0
  7 35  1  0
  7 36  1  0
  8 37  1  0
  8 38  1  0
  9 39  1  0
  9 40  1  0
 10 41  1  0
 10 42  1  0
 13 43  1  0
 16 44  1  0
 16 45  1  0
 16 46  1  0
 17 47  1  6
 18 48  1  0
 18 49  1  0
 19 50  1  1
 20 51  1  0
 20 52  1  0
 21 53  1  1
 22 54  1  6
 23 55  1  6
 24 56  1  0
 24 57  1  0
 24 58  1  0
M  CHG  1  26   1
M  END
>  <PDBID>  (1) 
4U14

>  <PDB ID>  (1) 
4U14

>  <Generic Name>  (1) 
Tiotropium

>  <Brand Name>  (1) 
Inspiolto Respimat#Spiriva#Spiriva Respimat#Stiolto Respimat

>  <DrugBank ID>  (1) 
DB01409

>  <ATC Codes>  (1) 
R03AL06#R03BB54#R03BB04

>  <Ligand ID>  (1) 
0HK

>  <Target Name>  (1) 
Muscarinic acetylcholine receptor M3

>  <UniProt ID>  (1) 
P20309

>  <PDB ID.1>  (1) 
4U14

>  <Seq. Identity>  (1) 
60%

$$$$
