PDB_DB00176_99
     RDKit          3D

 43 43  0  0  0  0  0  0  0  0999 V2000
   35.8250  180.4700  143.3310 C   0  0  0  0  0  0  0  0  0  0  0  0
   36.0530  181.7850  143.7550 O   0  0  0  0  0  0  0  0  0  0  0  0
   36.3190  182.6750  142.7130 C   0  0  0  0  0  0  0  0  0  0  0  0
   35.1360  183.6260  142.5670 C   0  0  0  0  0  0  0  0  0  0  0  0
   35.1800  184.2610  141.1820 C   0  0  0  0  0  0  0  0  0  0  0  0
   33.9650  185.1770  141.0100 C   0  0  0  0  0  0  0  0  0  0  0  0
   33.8330  186.1150  142.2120 C   0  0  0  0  0  0  0  0  0  0  0  0
   34.6820  187.0030  142.4260 N   0  0  0  0  0  0  0  0  0  0  0  0
   35.7820  187.1620  141.5760 O   0  0  0  0  0  0  0  0  0  0  0  0
   35.7640  188.4500  141.0460 C   0  0  0  0  0  0  0  0  0  0  0  0
   36.4630  188.4300  139.6960 C   0  0  0  0  0  0  0  0  0  0  0  0
   37.7600  189.0690  139.8380 N   0  0  0  0  0  0  0  0  0  0  0  0
   32.6520  185.9900  143.1690 C   0  0  0  0  0  0  0  0  0  0  0  0
   31.7760  184.9190  143.0580 C   0  0  0  0  0  0  0  0  0  0  0  0
   30.7030  184.8160  143.9320 C   0  0  0  0  0  0  0  0  0  0  0  0
   30.5040  185.7800  144.9110 C   0  0  0  0  0  0  0  0  0  0  0  0
   31.3810  186.8510  145.0170 C   0  0  0  0  0  0  0  0  0  0  0  0
   32.4540  186.9570  144.1450 C   0  0  0  0  0  0  0  0  0  0  0  0
   29.3160  185.6650  145.8710 C   0  0  0  0  0  0  0  0  0  0  0  0
   28.8080  186.9100  146.1040 F   0  0  0  0  0  0  0  0  0  0  0  0
   28.3500  184.8750  145.3120 F   0  0  0  0  0  0  0  0  0  0  0  0
   29.7210  185.1320  147.0600 F   0  0  0  0  0  0  0  0  0  0  0  0
   35.7117  179.8163  144.2084 H   0  0  0  0  0  0  0  0  0  0  0  0
   34.9072  180.4338  142.7258 H   0  0  0  0  0  0  0  0  0  0  0  0
   36.6771  180.1269  142.7258 H   0  0  0  0  0  0  0  0  0  0  0  0
   37.2294  183.2491  142.9401 H   0  0  0  0  0  0  0  0  0  0  0  0
   36.4707  182.1195  141.7757 H   0  0  0  0  0  0  0  0  0  0  0  0
   34.1962  183.0672  142.6872 H   0  0  0  0  0  0  0  0  0  0  0  0
   35.1904  184.4091  143.3376 H   0  0  0  0  0  0  0  0  0  0  0  0
   36.1029  184.8501  141.0764 H   0  0  0  0  0  0  0  0  0  0  0  0
   35.1617  183.4741  140.4136 H   0  0  0  0  0  0  0  0  0  0  0  0
   34.0879  185.7749  140.0949 H   0  0  0  0  0  0  0  0  0  0  0  0
   33.0581  184.5588  140.9371 H   0  0  0  0  0  0  0  0  0  0  0  0
   34.7236  188.7839  140.9195 H   0  0  0  0  0  0  0  0  0  0  0  0
   36.2810  189.1430  141.7261 H   0  0  0  0  0  0  0  0  0  0  0  0
   36.5963  187.3902  139.3627 H   0  0  0  0  0  0  0  0  0  0  0  0
   35.8581  188.9673  138.9508 H   0  0  0  0  0  0  0  0  0  0  0  0
   37.9814  189.1781  140.8380 H   0  0  0  0  0  0  0  0  0  0  0  0
   38.4808  188.4866  139.3883 H   0  0  0  0  0  0  0  0  0  0  0  0
   31.9315  184.1558  142.2812 H   0  0  0  0  0  0  0  0  0  0  0  0
   30.0078  183.9676  143.8488 H   0  0  0  0  0  0  0  0  0  0  0  0
   31.2248  187.6153  145.7925 H   0  0  0  0  0  0  0  0  0  0  0  0
   33.1477  187.8067  144.2266 H   0  0  0  0  0  0  0  0  0  0  0  0
  1  2  1  0
  2  3  1  0
  3  4  1  0
  4  5  1  0
  5  6  1  0
  6  7  1  0
  7  8  2  0
  8  9  1  0
  9 10  1  0
 10 11  1  0
 11 12  1  0
  7 13  1  0
 13 14  2  0
 14 15  1  0
 15 16  2  0
 16 17  1  0
 13 18  1  0
 17 18  2  0
 16 19  1  0
 19 20  1  0
 19 21  1  0
 19 22  1  0
  1 23  1  0
  1 24  1  0
  1 25  1  0
  3 26  1  0
  3 27  1  0
  4 28  1  0
  4 29  1  0
  5 30  1  0
  5 31  1  0
  6 32  1  0
  6 33  1  0
 10 34  1  0
 10 35  1  0
 11 36  1  0
 11 37  1  0
 12 38  1  0
 12 39  1  0
 14 40  1  0
 15 41  1  0
 17 42  1  0
 18 43  1  0
M  END
>  <PDBID>  (1) 
6AWP

>  <PDB ID>  (1) 
6AWP

>  <Generic Name>  (1) 
Fluvoxamine

>  <Brand Name>  (1) 
Act Fluvoxamine#Apo-fluvoxamine Tablets#Ava-fluvoxamine#Bci Fluvoxamine Tablets#Dom-fluvoxamine#Fluvoxamine Maleate#Fluvoxamine Maleate Extended-release#Fluvoxamine Tablets#Fluvoxamine-100#Fluvoxamine-50#Gen-fluvoxamine 100mg#Gen-fluvoxamine 50mg#Luvox#Luvox CR#Novo-fluvoxamine#Nu-fluvoxamine 100 Mg Tab#Nu-fluvoxamine 50 Mg Tab#PHL-fluvoxamine#PMS-fluvoxamine#Ratio-fluvoxamine#Riva-fluvox#Riva-fluvox 100mg Tablets#Riva-fluvox 50mg Tablets#Sandoz Fluvoxamine#Dumirox#Faverin#Fevarin#Floxyfral#Maveral

>  <DrugBank ID>  (1) 
DB00176

>  <ATC Codes>  (1) 
N06AB08

>  <Ligand ID>  (1) 
FVX

>  <Target Name>  (1) 
Sodium-dependent serotonin transporter

>  <UniProt ID>  (1) 
P31645

>  <PDB ID.1>  (1) 
6AWP

>  <Seq. Identity>  (1) 
99%

$$$$
