PDB_DB00619_96
     RDKit          3D

188196  0  0  0  0  0  0  0  0999 V2000
   11.6660    2.9630  -10.8940 C   0  0  0  0  0  0  0  0  0  0  0  0
   12.0170    1.6830  -10.5260 C   0  0  0  0  0  0  0  0  0  0  0  0
   13.2850    1.4330  -10.0450 C   0  0  0  0  0  0  0  0  0  0  0  0
   14.1480    2.5070   -9.9800 C   0  0  0  0  0  0  0  0  0  0  0  0
   13.8490    3.7680  -10.3190 N   0  0  0  0  0  0  0  0  0  0  0  0
   12.6050    3.9620  -10.7690 C   0  0  0  0  0  0  0  0  0  0  0  0
   13.7070    0.0960   -9.6780 C   0  0  0  0  0  0  0  0  0  0  0  0
   12.8450   -0.9750   -9.7400 C   0  0  0  0  0  0  0  0  0  0  0  0
   13.3540   -2.2010   -9.3930 C   0  0  0  0  0  0  0  0  0  0  0  0
   14.6270   -2.3840   -9.0240 N   0  0  0  0  0  0  0  0  0  0  0  0
   15.3910   -1.2880   -9.0000 C   0  0  0  0  0  0  0  0  0  0  0  0
   14.9830   -0.0510   -9.2990 N   0  0  0  0  0  0  0  0  0  0  0  0
   16.7300   -1.4190   -8.6070 N   0  0  0  0  0  0  0  0  0  0  0  0
   17.3460   -2.6440   -8.3190 C   0  0  0  0  0  0  0  0  0  0  0  0
   17.2790   -3.1210   -7.0260 C   0  0  0  0  0  0  0  0  0  0  0  0
   17.8860   -4.3080   -6.6910 C   0  0  0  0  0  0  0  0  0  0  0  0
   18.5670   -5.0210   -7.6500 C   0  0  0  0  0  0  0  0  0  0  0  0
   18.6420   -4.5560   -8.9410 C   0  0  0  0  0  0  0  0  0  0  0  0
   18.0320   -3.3610   -9.2830 C   0  0  0  0  0  0  0  0  0  0  0  0
   19.3710   -5.3460   -9.8480 N   0  0  0  0  0  0  0  0  0  0  0  0
   19.6690   -4.9660  -11.1330 C   0  0  0  0  0  0  0  0  0  0  0  0
   20.7180   -5.7680  -11.7940 C   0  0  0  0  0  0  0  0  0  0  0  0
   21.3110   -5.2380  -12.9110 C   0  0  0  0  0  0  0  0  0  0  0  0
   22.2850   -5.9510  -13.5740 C   0  0  0  0  0  0  0  0  0  0  0  0
   22.6750   -7.1920  -13.1230 C   0  0  0  0  0  0  0  0  0  0  0  0
   22.0730   -7.7150  -11.9990 C   0  0  0  0  0  0  0  0  0  0  0  0
   21.0900   -7.0090  -11.3300 C   0  0  0  0  0  0  0  0  0  0  0  0
   23.7430   -7.9340  -13.8670 C   0  0  0  0  0  0  0  0  0  0  0  0
   23.3580   -9.3330  -14.2110 N   0  0  0  0  0  0  0  0  0  0  0  0
   22.1160   -9.4170  -15.0130 C   0  0  0  0  0  0  0  0  0  0  0  0
   21.6730  -10.8610  -14.9800 C   0  0  0  0  0  0  0  0  0  0  0  0
   22.7690  -11.6590  -15.5840 N   0  0  0  0  0  0  0  0  0  0  0  0
   22.3650  -13.0680  -15.7870 C   0  0  0  0  0  0  0  0  0  0  0  0
   24.0450  -11.5520  -14.8270 C   0  0  0  0  0  0  0  0  0  0  0  0
   24.4640  -10.0990  -14.8370 C   0  0  0  0  0  0  0  0  0  0  0  0
   19.1350   -4.0600  -11.7620 O   0  0  0  0  0  0  0  0  0  0  0  0
   16.5460   -2.3560   -5.9780 C   0  0  0  0  0  0  0  0  0  0  0  0
   23.1450   42.2440   -2.1200 C   0  0  0  0  0  0  0  0  0  0  0  0
   22.2270   42.2980   -1.1010 C   0  0  0  0  0  0  0  0  0  0  0  0
   22.5520   41.7520    0.1200 C   0  0  0  0  0  0  0  0  0  0  0  0
   23.7920   41.1710    0.2550 C   0  0  0  0  0  0  0  0  0  0  0  0
   24.7120   41.0910   -0.7060 N   0  0  0  0  0  0  0  0  0  0  0  0
   24.3540   41.6370   -1.8710 C   0  0  0  0  0  0  0  0  0  0  0  0
   21.6270   41.7960    1.2180 C   0  0  0  0  0  0  0  0  0  0  0  0
   20.4890   42.5570    1.1340 C   0  0  0  0  0  0  0  0  0  0  0  0
   19.6740   42.5380    2.2350 C   0  0  0  0  0  0  0  0  0  0  0  0
   19.9470   41.8360    3.3350 N   0  0  0  0  0  0  0  0  0  0  0  0
   21.0780   41.1270    3.3180 C   0  0  0  0  0  0  0  0  0  0  0  0
   21.9390   41.0760    2.2980 N   0  0  0  0  0  0  0  0  0  0  0  0
   21.3800   40.3800    4.4610 N   0  0  0  0  0  0  0  0  0  0  0  0
   20.5510   40.4500    5.5910 C   0  0  0  0  0  0  0  0  0  0  0  0
   20.7290   41.4760    6.4950 C   0  0  0  0  0  0  0  0  0  0  0  0
   19.9330   41.5660    7.6110 C   0  0  0  0  0  0  0  0  0  0  0  0
   18.9550   40.6290    7.8360 C   0  0  0  0  0  0  0  0  0  0  0  0
   18.7720   39.6020    6.9380 C   0  0  0  0  0  0  0  0  0  0  0  0
   19.5660   39.5090    5.8190 C   0  0  0  0  0  0  0  0  0  0  0  0
   17.7610   38.6740    7.2200 N   0  0  0  0  0  0  0  0  0  0  0  0
   17.5030   37.5980    6.4140 C   0  0  0  0  0  0  0  0  0  0  0  0
   16.6440   36.5980    7.0570 C   0  0  0  0  0  0  0  0  0  0  0  0
   16.5460   35.3480    6.4970 C   0  0  0  0  0  0  0  0  0  0  0  0
   15.7360   34.4080    7.0940 C   0  0  0  0  0  0  0  0  0  0  0  0
   15.0320   34.7130    8.2390 C   0  0  0  0  0  0  0  0  0  0  0  0
   15.1440   35.9720    8.7860 C   0  0  0  0  0  0  0  0  0  0  0  0
   15.9490   36.9240    8.1980 C   0  0  0  0  0  0  0  0  0  0  0  0
   14.1630   33.6750    8.8680 C   0  0  0  0  0  0  0  0  0  0  0  0
   12.7720   34.1460    9.1110 N   0  0  0  0  0  0  0  0  0  0  0  0
   12.1190   34.6120    7.8710 C   0  0  0  0  0  0  0  0  0  0  0  0
   10.8450   35.3070    8.2860 C   0  0  0  0  0  0  0  0  0  0  0  0
    9.9960   34.3140    8.9800 N   0  0  0  0  0  0  0  0  0  0  0  0
    8.6520   34.8760    9.2620 C   0  0  0  0  0  0  0  0  0  0  0  0
   10.6320   33.7790   10.2080 C   0  0  0  0  0  0  0  0  0  0  0  0
   11.9460   33.1360    9.8160 C   0  0  0  0  0  0  0  0  0  0  0  0
   17.8870   37.4360    5.2640 O   0  0  0  0  0  0  0  0  0  0  0  0
   21.7830   42.5000    6.2730 C   0  0  0  0  0  0  0  0  0  0  0  0
   11.3688    2.9269  -11.9525 H   0  0  0  0  0  0  0  0  0  0  0  0
   10.8777    3.2426  -10.1796 H   0  0  0  0  0  0  0  0  0  0  0  0
   11.3114    1.3720   -9.7415 H   0  0  0  0  0  0  0  0  0  0  0  0
   11.9893    1.1274  -11.4750 H   0  0  0  0  0  0  0  0  0  0  0  0
   13.6302    1.2175  -11.0670 H   0  0  0  0  0  0  0  0  0  0  0  0
   14.4707    2.5573   -8.9296 H   0  0  0  0  0  0  0  0  0  0  0  0
   14.8396    2.2476  -10.7951 H   0  0  0  0  0  0  0  0  0  0  0  0
   13.9819    4.3606   -9.4871 H   0  0  0  0  0  0  0  0  0  0  0  0
   12.7159    4.3941  -11.7745 H   0  0  0  0  0  0  0  0  0  0  0  0
   12.1747    4.5509   -9.9455 H   0  0  0  0  0  0  0  0  0  0  0  0
   13.3988    0.2839   -8.6389 H   0  0  0  0  0  0  0  0  0  0  0  0
   12.0015   -0.7624   -9.0667 H   0  0  0  0  0  0  0  0  0  0  0  0
   12.5758   -1.0660  -10.8027 H   0  0  0  0  0  0  0  0  0  0  0  0
   12.7407   -2.5566   -8.5519 H   0  0  0  0  0  0  0  0  0  0  0  0
   13.3260   -2.7313  -10.3563 H   0  0  0  0  0  0  0  0  0  0  0  0
   14.6260   -2.7888   -8.0769 H   0  0  0  0  0  0  0  0  0  0  0  0
   15.6614   -1.4534  -10.0533 H   0  0  0  0  0  0  0  0  0  0  0  0
   15.5764    0.2943  -10.0668 H   0  0  0  0  0  0  0  0  0  0  0  0
   17.2859   -0.9985   -9.3653 H   0  0  0  0  0  0  0  0  0  0  0  0
   18.2805   -2.1170   -8.0762 H   0  0  0  0  0  0  0  0  0  0  0  0
   16.3548   -3.6636   -7.2741 H   0  0  0  0  0  0  0  0  0  0  0  0
   18.6057   -4.0830   -5.8901 H   0  0  0  0  0  0  0  0  0  0  0  0
   17.0407   -4.9644   -6.4368 H   0  0  0  0  0  0  0  0  0  0  0  0
   19.6017   -5.1239   -7.2912 H   0  0  0  0  0  0  0  0  0  0  0  0
   17.9667   -5.9372   -7.7509 H   0  0  0  0  0  0  0  0  0  0  0  0
   17.7183   -5.0988   -9.1902 H   0  0  0  0  0  0  0  0  0  0  0  0
   17.3136   -3.5869  -10.0848 H   0  0  0  0  0  0  0  0  0  0  0  0
   18.8768   -2.7048   -9.5393 H   0  0  0  0  0  0  0  0  0  0  0  0
   20.2774   -5.5274   -9.3937 H   0  0  0  0  0  0  0  0  0  0  0  0
   20.4366   -4.2767  -10.7512 H   0  0  0  0  0  0  0  0  0  0  0  0
   19.9547   -6.2456  -12.4259 H   0  0  0  0  0  0  0  0  0  0  0  0
   20.5074   -5.0460  -13.6371 H   0  0  0  0  0  0  0  0  0  0  0  0
   21.8558   -4.3659  -12.5202 H   0  0  0  0  0  0  0  0  0  0  0  0
   21.9269   -6.0892  -14.6049 H   0  0  0  0  0  0  0  0  0  0  0  0
   23.1859   -5.3389  -13.4199 H   0  0  0  0  0  0  0  0  0  0  0  0
   23.4436   -6.7213  -12.4923 H   0  0  0  0  0  0  0  0  0  0  0  0
   21.6220   -8.6718  -12.3008 H   0  0  0  0  0  0  0  0  0  0  0  0
   22.8960   -7.7393  -11.2696 H   0  0  0  0  0  0  0  0  0  0  0  0
   21.4398   -6.8734  -10.2959 H   0  0  0  0  0  0  0  0  0  0  0  0
   20.1873   -7.6214  -11.4717 H   0  0  0  0  0  0  0  0  0  0  0  0
   23.9599   -7.3921  -14.7994 H   0  0  0  0  0  0  0  0  0  0  0  0
   24.6211   -7.9904  -13.2069 H   0  0  0  0  0  0  0  0  0  0  0  0
   21.3389   -8.7723  -14.5766 H   0  0  0  0  0  0  0  0  0  0  0  0
   22.2891   -9.0804  -16.0458 H   0  0  0  0  0  0  0  0  0  0  0  0
   21.4996  -11.1804  -13.9418 H   0  0  0  0  0  0  0  0  0  0  0  0
   20.7327  -10.9984  -15.5341 H   0  0  0  0  0  0  0  0  0  0  0  0
   22.2257  -13.5539  -14.8100 H   0  0  0  0  0  0  0  0  0  0  0  0
   21.4211  -13.1012  -16.3509 H   0  0  0  0  0  0  0  0  0  0  0  0
   23.1479  -13.5963  -16.3509 H   0  0  0  0  0  0  0  0  0  0  0  0
   23.8961  -11.8920  -13.7915 H   0  0  0  0  0  0  0  0  0  0  0  0
   24.8210  -12.1803  -15.2885 H   0  0  0  0  0  0  0  0  0  0  0  0
   24.6244   -9.7576  -15.8703 H   0  0  0  0  0  0  0  0  0  0  0  0
   25.4062   -9.9547  -14.2879 H   0  0  0  0  0  0  0  0  0  0  0  0
   18.7479   -3.4033  -11.1303 H   0  0  0  0  0  0  0  0  0  0  0  0
   16.8702   -2.6944   -4.9828 H   0  0  0  0  0  0  0  0  0  0  0  0
   16.7619   -1.2831   -6.0888 H   0  0  0  0  0  0  0  0  0  0  0  0
   15.4649   -2.5258   -6.0888 H   0  0  0  0  0  0  0  0  0  0  0  0
   22.6745   41.7046   -2.9553 H   0  0  0  0  0  0  0  0  0  0  0  0
   23.4015   43.2960   -2.3134 H   0  0  0  0  0  0  0  0  0  0  0  0
   21.9990   43.3602   -0.9286 H   0  0  0  0  0  0  0  0  0  0  0  0
   21.3985   41.6691   -1.4589 H   0  0  0  0  0  0  0  0  0  0  0  0
   22.1344   40.7862   -0.2007 H   0  0  0  0  0  0  0  0  0  0  0  0
   24.2787   41.7098    1.0813 H   0  0  0  0  0  0  0  0  0  0  0  0
   23.5043   40.1126    0.3394 H   0  0  0  0  0  0  0  0  0  0  0  0
   25.5625   41.5692   -0.3760 H   0  0  0  0  0  0  0  0  0  0  0  0
   24.4332   40.8270   -2.6110 H   0  0  0  0  0  0  0  0  0  0  0  0
   25.0225   42.5103   -1.8941 H   0  0  0  0  0  0  0  0  0  0  0  0
   22.1697   42.6543    1.6408 H   0  0  0  0  0  0  0  0  0  0  0  0
   20.7928   43.5994    0.9575 H   0  0  0  0  0  0  0  0  0  0  0  0
   19.8968   42.1179    0.3176 H   0  0  0  0  0  0  0  0  0  0  0  0
   19.5818   43.5848    2.5602 H   0  0  0  0  0  0  0  0  0  0  0  0
   18.7967   42.0001    1.8464 H   0  0  0  0  0  0  0  0  0  0  0  0
   20.0024   42.4966    4.1233 H   0  0  0  0  0  0  0  0  0  0  0  0
   20.5329   40.2674    2.9008 H   0  0  0  0  0  0  0  0  0  0  0  0
   22.0193   40.0917    2.0053 H   0  0  0  0  0  0  0  0  0  0  0  0
   21.4031   39.3918    4.1714 H   0  0  0  0  0  0  0  0  0  0  0  0
   21.2652   39.8306    6.1533 H   0  0  0  0  0  0  0  0  0  0  0  0
   20.0127   42.0944    5.9342 H   0  0  0  0  0  0  0  0  0  0  0  0
   20.6041   41.5395    8.4822 H   0  0  0  0  0  0  0  0  0  0  0  0
   19.3618   42.4902    7.4392 H   0  0  0  0  0  0  0  0  0  0  0  0
   19.1755   40.1658    8.8090 H   0  0  0  0  0  0  0  0  0  0  0  0
   18.0234   41.2081    7.7544 H   0  0  0  0  0  0  0  0  0  0  0  0
   18.0547   40.2197    6.3777 H   0  0  0  0  0  0  0  0  0  0  0  0
   18.8933   39.5363    4.9491 H   0  0  0  0  0  0  0  0  0  0  0  0
   20.1352   38.5832    5.9891 H   0  0  0  0  0  0  0  0  0  0  0  0
   17.9781   38.2887    8.1502 H   0  0  0  0  0  0  0  0  0  0  0  0
   18.3934   37.0878    6.8101 H   0  0  0  0  0  0  0  0  0  0  0  0
   15.7931   36.9375    6.4482 H   0  0  0  0  0  0  0  0  0  0  0  0
   16.1780   35.4838    5.4693 H   0  0  0  0  0  0  0  0  0  0  0  0
   17.5578   34.9308    6.6074 H   0  0  0  0  0  0  0  0  0  0  0  0
   14.9942   34.1073    6.3395 H   0  0  0  0  0  0  0  0  0  0  0  0
   16.4536   33.6500    7.4411 H   0  0  0  0  0  0  0  0  0  0  0  0
   15.8798   34.3716    8.8512 H   0  0  0  0  0  0  0  0  0  0  0  0
   14.1284   36.3936    8.8156 H   0  0  0  0  0  0  0  0  0  0  0  0
   15.6496   35.7800    9.7439 H   0  0  0  0  0  0  0  0  0  0  0  0
   16.6907   37.2284    8.9511 H   0  0  0  0  0  0  0  0  0  0  0  0
   15.2415   37.6971    7.8636 H   0  0  0  0  0  0  0  0  0  0  0  0
   14.1250   32.8002    8.2022 H   0  0  0  0  0  0  0  0  0  0  0  0
   14.6015   33.4296    9.8465 H   0  0  0  0  0  0  0  0  0  0  0  0
   12.7767   35.3135    7.3368 H   0  0  0  0  0  0  0  0  0  0  0  0
   11.9082   33.7705    7.1947 H   0  0  0  0  0  0  0  0  0  0  0  0
   11.0772   36.1409    8.9648 H   0  0  0  0  0  0  0  0  0  0  0  0
   10.3232   35.7121    7.4064 H   0  0  0  0  0  0  0  0  0  0  0  0
    8.5017   34.9388   10.3499 H   0  0  0  0  0  0  0  0  0  0  0  0
    8.5755   35.8815    8.8226 H   0  0  0  0  0  0  0  0  0  0  0  0
    7.8825   34.2243    8.8226 H   0  0  0  0  0  0  0  0  0  0  0  0
   10.8152   34.5974   10.9198 H   0  0  0  0  0  0  0  0  0  0  0  0
    9.9736   33.0390   10.6865 H   0  0  0  0  0  0  0  0  0  0  0  0
   11.7567   32.2811    9.1502 H   0  0  0  0  0  0  0  0  0  0  0  0
   12.4727   32.7776   10.7128 H   0  0  0  0  0  0  0  0  0  0  0  0
   18.7991   37.0512    5.2718 H   0  0  0  0  0  0  0  0  0  0  0  0
   22.1541   42.8606    7.2437 H   0  0  0  0  0  0  0  0  0  0  0  0
   22.6133   42.0545    5.7055 H   0  0  0  0  0  0  0  0  0  0  0  0
   21.3616   43.3428    5.7055 H   0  0  0  0  0  0  0  0  0  0  0  0
  1  2  1  0
  2  3  1  0
  3  4  1  0
  4  5  1  0
  1  6  1  0
  5  6  1  0
  3  7  1  0
  7  8  1  0
  8  9  1  0
  9 10  1  0
 10 11  1  0
  7 12  1  0
 11 12  1  0
 11 13  1  0
 13 14  1  0
 14 15  1  0
 15 16  1  0
 16 17  1  0
 17 18  1  0
 14 19  1  0
 18 19  1  0
 18 20  1  0
 20 21  1  0
 21 22  1  0
 22 23  1  0
 23 24  1  0
 24 25  1  0
 25 26  1  0
 22 27  1  0
 26 27  1  0
 25 28  1  0
 28 29  1  0
 29 30  1  0
 30 31  1  0
 31 32  1  0
 32 33  1  0
 32 34  1  0
 29 35  1  0
 34 35  1  0
 21 36  1  0
 15 37  1  0
 38 39  1  0
 39 40  1  0
 40 41  1  0
 41 42  1  0
 38 43  1  0
 42 43  1  0
 40 44  1  0
 44 45  1  0
 45 46  1  0
 46 47  1  0
 47 48  1  0
 44 49  1  0
 48 49  1  0
 48 50  1  0
 50 51  1  0
 51 52  1  0
 52 53  1  0
 53 54  1  0
 54 55  1  0
 51 56  1  0
 55 56  1  0
 55 57  1  0
 57 58  1  0
 58 59  1  0
 59 60  1  0
 60 61  1  0
 61 62  1  0
 62 63  1  0
 59 64  1  0
 63 64  1  0
 62 65  1  0
 65 66  1  0
 66 67  1  0
 67 68  1  0
 68 69  1  0
 69 70  1  0
 69 71  1  0
 66 72  1  0
 71 72  1  0
 58 73  1  0
 52 74  1  0
  1 75  1  0
  1 76  1  0
  2 77  1  0
  2 78  1  0
  3 79  1  0
  4 80  1  0
  4 81  1  0
  5 82  1  0
  6 83  1  0
  6 84  1  0
  7 85  1  0
  8 86  1  0
  8 87  1  0
  9 88  1  0
  9 89  1  0
 10 90  1  0
 11 91  1  0
 12 92  1  0
 13 93  1  0
 14 94  1  0
 15 95  1  0
 16 96  1  0
 16 97  1  0
 17 98  1  0
 17 99  1  0
 18100  1  0
 19101  1  0
 19102  1  0
 20103  1  0
 21104  1  0
 22105  1  0
 23106  1  0
 23107  1  0
 24108  1  0
 24109  1  0
 25110  1  0
 26111  1  0
 26112  1  0
 27113  1  0
 27114  1  0
 28115  1  0
 28116  1  0
 30117  1  0
 30118  1  0
 31119  1  0
 31120  1  0
 33121  1  0
 33122  1  0
 33123  1  0
 34124  1  0
 34125  1  0
 35126  1  0
 35127  1  0
 36128  1  0
 37129  1  0
 37130  1  0
 37131  1  0
 38132  1  0
 38133  1  0
 39134  1  0
 39135  1  0
 40136  1  0
 41137  1  0
 41138  1  0
 42139  1  0
 43140  1  0
 43141  1  0
 44142  1  0
 45143  1  0
 45144  1  0
 46145  1  0
 46146  1  0
 47147  1  0
 48148  1  0
 49149  1  0
 50150  1  0
 51151  1  0
 52152  1  0
 53153  1  0
 53154  1  0
 54155  1  0
 54156  1  0
 55157  1  0
 56158  1  0
 56159  1  0
 57160  1  0
 58161  1  0
 59162  1  0
 60163  1  0
 60164  1  0
 61165  1  0
 61166  1  0
 62167  1  0
 63168  1  0
 63169  1  0
 64170  1  0
 64171  1  0
 65172  1  0
 65173  1  0
 67174  1  0
 67175  1  0
 68176  1  0
 68177  1  0
 70178  1  0
 70179  1  0
 70180  1  0
 71181  1  0
 71182  1  0
 72183  1  0
 72184  1  0
 73185  1  0
 74186  1  0
 74187  1  0
 74188  1  0
M  END
>  <PDBID>  (1) 
3PYY

>  <PDB ID>  (1) 
3PYY

>  <Generic Name>  (1) 
Imatinib

>  <Brand Name>  (1) 
Apo-imatinib#Gleevec#Imatinib Mesylate#Mylan-imatinib#Nat-imatinib#PMS-imatinib#Ran-imatinib#Teva-imatinib#Celonib#Enliven#Glivec#Imatib#Mesylonib#Mitinab#Plivatinib#Shantinib

>  <DrugBank ID>  (1) 
DB00619

>  <ATC Codes>  (1) 
L01XE01

>  <Ligand ID>  (1) 
STI

>  <Target Name>  (1) 
BCR/ABL fusion protein isoform X9

>  <UniProt ID>  (1) 
A9UF02

>  <PDB ID.1>  (1) 
3PYY

>  <Seq. Identity>  (1) 
96%

$$$$
