PDB_DB00509_98
     RDKit          3D

 49 50  0  0  0  0  0  0  0  0999 V2000
   33.3920   15.2350   33.8800 C   0  0  0  0  0  0  0  0  0  0  0  0
   33.6360   14.0230   33.2240 C   0  0  0  0  0  0  0  0  0  0  0  0
   32.8270   13.5910   32.1720 C   0  0  0  0  0  0  0  0  0  0  0  0
   31.7660   14.4010   31.7670 C   0  0  1  0  0  0  0  0  0  0  0  0
   31.5220   15.5920   32.4310 C   0  0  0  0  0  0  0  0  0  0  0  0
   32.3170   16.0300   33.4840 C   0  0  0  0  0  0  0  0  0  0  0  0
   34.2740   15.6760   35.0090 C   0  0  0  0  0  0  0  0  0  0  0  0
   35.4800   16.4280   34.5210 C   0  0  1  0  0  0  0  0  0  0  0  0
   35.1580   17.8330   34.1030 C   0  0  0  0  0  0  0  0  0  0  0  0
   31.2250   14.3990   29.4680 C   0  0  0  0  0  0  0  0  0  0  0  0
   32.4300   15.0190   29.1510 C   0  0  0  0  0  0  0  0  0  0  0  0
   32.6820   15.3000   27.8090 C   0  0  0  0  0  0  0  0  0  0  0  0
   31.7900   14.9830   26.8170 C   0  0  0  0  0  0  0  0  0  0  0  0
   30.6090   14.3720   27.1320 C   0  0  0  0  0  0  0  0  0  0  0  0
   30.3190   14.0830   28.4600 C   0  0  0  0  0  0  0  0  0  0  0  0
   36.4580   16.4650   35.5760 N   0  0  0  0  0  0  0  0  0  0  0  0
   30.8740   14.0660   30.7560 O   0  0  0  0  0  0  0  0  0  0  0  0
   32.0840   15.2760   25.5050 O   0  0  0  0  0  0  0  0  0  0  0  0
   35.3440   18.8230   34.8850 O   0  0  0  0  0  0  0  0  0  0  0  0
   34.7080   18.0450   32.9450 O   0  0  0  0  0  0  0  0  0  0  0  0
   33.2500   11.7360   31.2220 I   0  0  0  0  0  0  0  0  0  0  0  0
   34.4240   16.2150   27.1080 I   0  0  0  0  0  0  0  0  0  0  0  0
   29.8840   16.7080   31.7410 I   0  0  0  0  0  0  0  0  0  0  0  0
   29.3300   13.9340   25.5160 I   0  0  0  0  0  0  0  0  0  0  0  0
   34.0416   15.7551   33.1607 H   0  0  0  0  0  0  0  0  0  0  0  0
   34.6588   14.0862   32.8241 H   0  0  0  0  0  0  0  0  0  0  0  0
   33.4235   13.2811   34.0079 H   0  0  0  0  0  0  0  0  0  0  0  0
   32.1655   13.0831   32.8893 H   0  0  0  0  0  0  0  0  0  0  0  0
   31.0980   13.8750   32.4650 H   0  0  0  0  0  0  0  0  0  0  0  0
   30.8716   15.0621   33.1425 H   0  0  0  0  0  0  0  0  0  0  0  0
   31.6610   16.1487   34.3589 H   0  0  0  0  0  0  0  0  0  0  0  0
   32.7868   16.9489   33.1034 H   0  0  0  0  0  0  0  0  0  0  0  0
   33.6947   16.3296   35.6777 H   0  0  0  0  0  0  0  0  0  0  0  0
   34.6250   14.7770   35.5369 H   0  0  0  0  0  0  0  0  0  0  0  0
   35.8641   15.9029   33.6340 H   0  0  0  0  0  0  0  0  0  0  0  0
   34.1368   17.7155   34.4947 H   0  0  0  0  0  0  0  0  0  0  0  0
   30.7495   15.3838   29.5866 H   0  0  0  0  0  0  0  0  0  0  0  0
   32.4622   15.9729   29.6978 H   0  0  0  0  0  0  0  0  0  0  0  0
   33.2011   14.2861   29.4306 H   0  0  0  0  0  0  0  0  0  0  0  0
   33.1606   14.3164   27.6929 H   0  0  0  0  0  0  0  0  0  0  0  0
   32.2682   13.9991   26.7014 H   0  0  0  0  0  0  0  0  0  0  0  0
   31.0888   13.3882   27.0227 H   0  0  0  0  0  0  0  0  0  0  0  0
   30.1516   12.9973   28.5164 H   0  0  0  0  0  0  0  0  0  0  0  0
   29.4687   14.7464   28.6764 H   0  0  0  0  0  0  0  0  0  0  0  0
   35.9799   16.4469   36.4881 H   0  0  0  0  0  0  0  0  0  0  0  0
   37.0788   15.6469   35.4975 H   0  0  0  0  0  0  0  0  0  0  0  0
   32.7848   15.9745   25.4719 H   0  0  0  0  0  0  0  0  0  0  0  0
   35.2864   18.5167   35.8246 H   0  0  0  0  0  0  0  0  0  0  0  0
   33.8144   18.4660   33.0102 H   0  0  0  0  0  0  0  0  0  0  0  0
  1  2  1  0
  2  3  1  0
  3  4  1  0
  4  5  1  0
  1  6  1  0
  5  6  1  0
  1  7  1  0
  7  8  1  0
  8  9  1  0
 10 11  1  0
 11 12  1  0
 12 13  1  0
 13 14  1  0
 10 15  1  0
 14 15  1  0
  8 16  1  0
  4 17  1  0
 10 17  1  0
 13 18  1  0
  9 19  1  0
  9 20  1  0
  3 21  1  0
 12 22  1  0
  5 23  1  0
 14 24  1  0
  1 25  1  0
  2 26  1  0
  2 27  1  0
  3 28  1  0
  4 29  1  6
  5 30  1  0
  6 31  1  0
  6 32  1  0
  7 33  1  0
  7 34  1  0
  8 35  1  6
  9 36  1  0
 10 37  1  0
 11 38  1  0
 11 39  1  0
 12 40  1  0
 13 41  1  0
 14 42  1  0
 15 43  1  0
 15 44  1  0
 16 45  1  0
 16 46  1  0
 18 47  1  0
 19 48  1  0
 20 49  1  0
M  END
>  <PDBID>  (1) 
4LNX

>  <PDB ID>  (1) 
4LNX

>  <Generic Name>  (1) 
Dextrothyroxine

>  <Brand Name>  (1) 
Choloxin - Tab 4mg#Choloxin Tab 2mg#Choloxin Tablet 4mg#Choloxin#Dynothel#Eulipos#Lisolipin

>  <DrugBank ID>  (1) 
DB00509

>  <ATC Codes>  (1) 
C10AX01

>  <Ligand ID>  (1) 
T44

>  <Target Name>  (1) 
Thyroid hormone receptor beta

>  <UniProt ID>  (1) 
P10828

>  <PDB ID.1>  (1) 
4LNX

>  <Seq. Identity>  (1) 
84%

$$$$
