PDB_DB00582_99
     RDKit          3D

 39 41  0  0  0  0  0  0  0  0999 V2000
  100.5620   12.5190   14.4620 F   0  0  0  0  0  0  0  0  0  0  0  0
   98.5590    8.2040   18.1230 F   0  0  0  0  0  0  0  0  0  0  0  0
  104.4360   10.8420   12.4690 F   0  0  0  0  0  0  0  0  0  0  0  0
  101.0460    9.5420   17.5100 O   0  0  0  0  0  0  0  0  0  0  0  0
  102.1360   12.2000   17.7550 N   0  0  0  0  0  0  0  0  0  0  0  0
   97.5560   11.6300   17.5310 N   0  0  0  0  0  0  0  0  0  0  0  0
  102.7610   13.2680   17.2010 N   0  0  0  0  0  0  0  0  0  0  0  0
  104.1750   12.0960   18.4920 N   0  0  0  0  0  0  0  0  0  0  0  0
   96.3340   10.7170   19.3770 N   0  0  0  0  0  0  0  0  0  0  0  0
  100.6300   10.5920   16.6290 C   0  0  1  0  0  0  0  0  0  0  0  0
   99.1610   10.4210   16.1680 C   0  0  1  0  0  0  0  0  0  0  0  0
  100.7520   11.8910   17.4430 C   0  0  0  0  0  0  0  0  0  0  0  0
  101.6100   10.6610   15.4580 C   0  0  0  0  0  0  0  0  0  0  0  0
   98.9630    9.1470   15.3340 C   0  0  0  0  0  0  0  0  0  0  0  0
   98.2090   10.4770   17.3340 C   0  0  0  0  0  0  0  0  0  0  0  0
  101.5680   11.6200   14.4530 C   0  0  0  0  0  0  0  0  0  0  0  0
  102.6530    9.7440   15.3990 C   0  0  0  0  0  0  0  0  0  0  0  0
   97.9320    9.3980   18.1980 C   0  0  0  0  0  0  0  0  0  0  0  0
  102.4900   11.7080   13.4450 C   0  0  0  0  0  0  0  0  0  0  0  0
  103.5990    9.7900   14.3900 C   0  0  0  0  0  0  0  0  0  0  0  0
  102.9960   11.5300   18.5130 C   0  0  0  0  0  0  0  0  0  0  0  0
  103.4900   10.7720   13.4430 C   0  0  0  0  0  0  0  0  0  0  0  0
   96.9770    9.5640   19.2150 C   0  0  0  0  0  0  0  0  0  0  0  0
   96.6670   11.6820   18.5250 C   0  0  0  0  0  0  0  0  0  0  0  0
  103.9750   13.1550   17.6790 C   0  0  0  0  0  0  0  0  0  0  0  0
  100.9304    9.8338   18.4489 H   0  0  0  0  0  0  0  0  0  0  0  0
   98.9276   11.2707   15.5096 H   0  0  0  0  0  0  0  0  0  0  0  0
  100.1914   11.7772   18.3826 H   0  0  0  0  0  0  0  0  0  0  0  0
  100.3441   12.7146   16.8386 H   0  0  0  0  0  0  0  0  0  0  0  0
   98.8292    8.2862   16.0056 H   0  0  0  0  0  0  0  0  0  0  0  0
   98.0715    9.2590   14.6995 H   0  0  0  0  0  0  0  0  0  0  0  0
   99.8465    8.9832   14.6995 H   0  0  0  0  0  0  0  0  0  0  0  0
  102.7281    8.9645   16.1715 H   0  0  0  0  0  0  0  0  0  0  0  0
  102.4308   12.4913   12.6750 H   0  0  0  0  0  0  0  0  0  0  0  0
  104.4175    9.0562   14.3502 H   0  0  0  0  0  0  0  0  0  0  0  0
  102.7500   10.6213   19.0820 H   0  0  0  0  0  0  0  0  0  0  0  0
   96.7568    8.7241   19.8904 H   0  0  0  0  0  0  0  0  0  0  0  0
   96.1454   12.6416   18.6556 H   0  0  0  0  0  0  0  0  0  0  0  0
  104.7738   13.8710   17.4357 H   0  0  0  0  0  0  0  0  0  0  0  0
  5  7  1  0
 10  4  1  1
 10 11  1  0
  5 12  1  0
 10 12  1  0
 10 13  1  0
 11 14  1  0
  6 15  2  0
 11 15  1  0
  1 16  1  0
 13 16  2  0
 13 17  1  0
  2 18  1  0
 15 18  1  0
 16 19  1  0
 17 20  2  0
  5 21  1  0
 21  8  2  0
  3 22  1  0
 19 22  2  0
 20 22  1  0
  9 23  1  0
 18 23  2  0
  6 24  1  0
  9 24  2  0
  7 25  2  0
 25  8  1  0
  4 26  1  0
 11 27  1  6
 12 28  1  0
 12 29  1  0
 14 30  1  0
 14 31  1  0
 14 32  1  0
 17 33  1  0
 19 34  1  0
 20 35  1  0
 21 36  1  0
 23 37  1  0
 24 38  1  0
 25 39  1  0
M  END
>  <PDBID>  (1) 
5HS1

>  <PDB ID>  (1) 
5HS1

>  <Generic Name>  (1) 
Voriconazole

>  <Brand Name>  (1) 
Ach-voriconazole#Apo-voriconazole#Auro-voriconazole#Mylan-voriconazole#Sandoz Voriconazole#Teva-voriconazole#Vfend#Vfend for Injection#Voriconazole#Voriconazole for Injection

>  <DrugBank ID>  (1) 
DB00582

>  <ATC Codes>  (1) 
J02AC03

>  <Ligand ID>  (1) 
VOR

>  <Target Name>  (1) 
Lanosterol 14-alpha demethylase

>  <UniProt ID>  (1) 
P10613

>  <PDB ID.1>  (1) 
5HS1

>  <Seq. Identity>  (1) 
65%

$$$$
