PDB_DB00951_99
     RDKit          3D

 25 25  0  0  0  0  0  0  0  0999 V2000
  -12.7640  -36.6130    0.0950 C   0  0  2  0  0  0  0  0  0  0  0  0
  -14.0100  -35.8370    0.1000 C   0  0  2  0  0  0  0  0  0  0  0  0
  -16.4920  -34.6160   -0.1720 N   0  0  0  0  0  0  0  0  0  0  0  0
  -11.9370  -36.2540   -0.7740 O   0  0  0  0  0  0  0  0  0  0  0  0
  -15.0890  -36.2550    0.9540 C   0  0  0  0  0  0  0  0  0  0  0  0
  -12.5710  -37.8110    0.7670 N   0  0  0  0  0  0  0  0  0  0  0  0
  -16.3020  -35.5560    0.7770 C   0  0  0  0  0  0  0  0  0  0  0  0
  -11.5450  -38.5850    0.4620 N   0  0  0  0  0  0  0  0  0  0  0  0
  -15.2640  -34.0820   -1.1330 C   0  0  0  0  0  0  0  0  0  0  0  0
  -14.1510  -34.7660   -0.9760 C   0  0  0  0  0  0  0  0  0  0  0  0
  -12.5148  -36.3684    1.1381 H   0  0  0  0  0  0  0  0  0  0  0  0
  -14.0508  -35.0545    0.8720 H   0  0  0  0  0  0  0  0  0  0  0  0
  -17.2129  -34.9887   -0.8063 H   0  0  0  0  0  0  0  0  0  0  0  0
  -11.1249  -35.9015   -0.3310 H   0  0  0  0  0  0  0  0  0  0  0  0
  -15.2801  -37.3214    0.7634 H   0  0  0  0  0  0  0  0  0  0  0  0
  -14.7627  -36.0435    1.9830 H   0  0  0  0  0  0  0  0  0  0  0  0
  -12.4810  -37.5793    1.7666 H   0  0  0  0  0  0  0  0  0  0  0  0
  -16.5038  -35.0580    1.7368 H   0  0  0  0  0  0  0  0  0  0  0  0
  -16.9598  -36.3598    0.4149 H   0  0  0  0  0  0  0  0  0  0  0  0
  -11.0993  -38.9212    1.3276 H   0  0  0  0  0  0  0  0  0  0  0  0
  -11.8743  -39.3900   -0.0897 H   0  0  0  0  0  0  0  0  0  0  0  0
  -15.5803  -34.1643   -2.1833 H   0  0  0  0  0  0  0  0  0  0  0  0
  -15.0525  -33.0411   -0.8469 H   0  0  0  0  0  0  0  0  0  0  0  0
  -13.3595  -34.0272   -0.7818 H   0  0  0  0  0  0  0  0  0  0  0  0
  -14.1099  -35.3592   -1.9015 H   0  0  0  0  0  0  0  0  0  0  0  0
  1  2  1  0
  1  4  1  0
  2  5  1  0
  1  6  1  0
  3  7  1  0
  5  7  1  0
  6  8  1  0
  3  9  1  0
  2 10  1  0
  9 10  1  0
  1 11  1  1
  2 12  1  1
  3 13  1  0
  4 14  1  0
  5 15  1  0
  5 16  1  0
  6 17  1  0
  7 18  1  0
  7 19  1  0
  8 20  1  0
  8 21  1  0
  9 22  1  0
  9 23  1  0
 10 24  1  0
 10 25  1  0
M  END
>  <PDBID>  (1) 
5KSG

>  <PDB ID>  (1) 
5KSG

>  <Generic Name>  (1) 
Isoniazid

>  <Brand Name>  (1) 
Dom-isoniazid 300mg Tablets#Isonarif#Isoniazid#Isoniazid Syrup 50mg/5ml#Isoniazid Tab 100mg#Isoniazid Tab 300mg#Isoniazid Tab 50mg#Isoniazide 100mg Tablets#Isotamine B 300#Isotamine Powder#Isotamine Syr Pediatric 50mg/5ml#Isotamine-100#Isotamine-300#Pdp-isoniazid#Rifamate#Rifater#Nicozid#Nidrazid#Nydrazid#Rimicid#Rimifon#Servizid#Tibinide

>  <DrugBank ID>  (1) 
DB00951

>  <ATC Codes>  (1) 
J04AM04#J04AM02#J04AM06#J04AM03#J04AM05#J04AM01#J04AC51#J04AC01

>  <Ligand ID>  (1) 
NIZ

>  <Target Name>  (1) 
Catalase-peroxidase

>  <UniProt ID>  (1) 
Q08129

>  <PDB ID.1>  (1) 
5KSG

>  <Seq. Identity>  (1) 
66%

$$$$
