PDB_DB00558_96
     RDKit          3D

 43 43  0  0  0  0  0  0  0  0999 V2000
   12.5250   14.4590   51.1570 C   0  0  0  0  0  0  0  0  0  0  0  0
   11.6530   14.9360   51.7800 O   0  0  0  0  0  0  0  0  0  0  0  0
   12.9180   13.1790   51.1680 O   0  0  0  0  0  0  0  0  0  0  0  0
   12.9640   15.2250   49.9440 C   0  0  0  0  0  0  0  0  0  0  0  0
   13.6530   14.5660   48.7240 C   0  0  0  0  0  0  0  0  0  0  0  0
   13.8460   15.4150   47.4820 C   0  0  1  0  0  0  0  0  0  0  0  0
   13.3740   16.8410   47.5810 C   0  0  1  0  0  0  0  0  0  0  0  0
   13.4080   17.6870   46.4670 N   0  0  0  0  0  0  0  0  0  0  0  0
   14.5200   18.3910   45.9570 C   0  0  0  0  0  0  0  0  0  0  0  0
   15.5390   18.5730   46.5440 O   0  0  0  0  0  0  0  0  0  0  0  0
   14.2820   18.9230   44.5760 C   0  0  0  0  0  0  0  0  0  0  0  0
   12.3530   17.2240   48.6490 C   0  0  1  0  0  0  0  0  0  0  0  0
   12.1800   16.3950   49.7410 O   0  0  0  0  0  0  0  0  0  0  0  0
   12.1030   18.7000   49.0260 C   0  0  2  0  0  0  0  0  0  0  0  0
   13.1420   19.1730   49.7460 O   0  0  0  0  0  0  0  0  0  0  0  0
   10.7180   18.9690   49.6350 C   0  0  2  0  0  0  0  0  0  0  0  0
    9.6780   18.3900   49.0130 O   0  0  0  0  0  0  0  0  0  0  0  0
   10.5030   20.4400   49.9200 C   0  0  0  0  0  0  0  0  0  0  0  0
   10.2570   21.2440   48.8920 O   0  0  0  0  0  0  0  0  0  0  0  0
   15.0710   15.1260   46.8360 N   0  0  0  0  0  0  0  0  0  0  0  0
   15.2840   15.1850   45.4660 C   0  0  0  0  0  0  0  0  0  0  0  0
   14.2380   15.3650   44.7590 N   0  0  0  0  0  0  0  0  0  0  0  0
   16.4700   15.0970   44.9290 N   0  0  0  0  0  0  0  0  0  0  0  0
   11.4509   15.9010   51.6903 H   0  0  0  0  0  0  0  0  0  0  0  0
   13.9904   13.5196   48.7568 H   0  0  0  0  0  0  0  0  0  0  0  0
   13.1043   15.0952   46.7353 H   0  0  0  0  0  0  0  0  0  0  0  0
   14.3326   17.1067   48.0507 H   0  0  0  0  0  0  0  0  0  0  0  0
   12.5194   17.8102   45.9609 H   0  0  0  0  0  0  0  0  0  0  0  0
   13.8336   19.9253   44.6414 H   0  0  0  0  0  0  0  0  0  0  0  0
   15.2387   18.9838   44.0366 H   0  0  0  0  0  0  0  0  0  0  0  0
   13.5990   18.2503   44.0366 H   0  0  0  0  0  0  0  0  0  0  0  0
   11.5431   17.0007   47.9389 H   0  0  0  0  0  0  0  0  0  0  0  0
   12.0616   19.2847   48.0952 H   0  0  0  0  0  0  0  0  0  0  0  0
   12.9429   19.0823   50.7115 H   0  0  0  0  0  0  0  0  0  0  0  0
   10.7398   18.4429   50.6008 H   0  0  0  0  0  0  0  0  0  0  0  0
    9.0448   18.0375   49.6874 H   0  0  0  0  0  0  0  0  0  0  0  0
    9.6488   20.5185   50.6086 H   0  0  0  0  0  0  0  0  0  0  0  0
   11.4686   20.7875   50.3162 H   0  0  0  0  0  0  0  0  0  0  0  0
    9.9845   22.1347   49.2275 H   0  0  0  0  0  0  0  0  0  0  0  0
   14.3129   15.4201   43.7332 H   0  0  0  0  0  0  0  0  0  0  0  0
   13.3183   15.4553   45.2138 H   0  0  0  0  0  0  0  0  0  0  0  0
   16.5770   15.1463   43.9058 H   0  0  0  0  0  0  0  0  0  0  0  0
   17.2992   14.9782   45.5284 H   0  0  0  0  0  0  0  0  0  0  0  0
  1  2  1  0
  1  3  2  0
  1  4  1  0
  4  5  2  0
  5  6  1  0
  6  7  1  0
  7  8  1  0
  8  9  1  0
  9 10  2  0
  9 11  1  0
  7 12  1  0
  4 13  1  0
 12 13  1  0
 12 14  1  0
 14 15  1  0
 14 16  1  0
 16 17  1  0
 16 18  1  0
 18 19  1  0
  6 20  1  0
 20 21  2  3
 21 22  1  0
 21 23  1  0
  2 24  1  0
  5 25  1  0
  6 26  1  6
  7 27  1  1
  8 28  1  0
 11 29  1  0
 11 30  1  0
 11 31  1  0
 12 32  1  6
 14 33  1  6
 15 34  1  0
 16 35  1  1
 17 36  1  0
 18 37  1  0
 18 38  1  0
 19 39  1  0
 22 40  1  0
 22 41  1  0
 23 42  1  0
 23 43  1  0
M  END
$$$$
