PDB_DB00806_98
     RDKit          3D

 38 39  0  0  0  0  0  0  0  0999 V2000
   13.0590   45.9280  -24.7540 C   0  0  0  0  0  0  0  0  0  0  0  0
   13.3740   46.0760  -23.2830 C   0  0  0  0  0  0  0  0  0  0  0  0
   13.2820   47.1780  -22.7640 O   0  0  0  0  0  0  0  0  0  0  0  0
   13.8040   44.8750  -22.4710 C   0  0  0  0  0  0  0  0  0  0  0  0
   13.8420   45.1300  -20.9580 C   0  0  0  0  0  0  0  0  0  0  0  0
   12.4410   45.1050  -20.3360 C   0  0  0  0  0  0  0  0  0  0  0  0
   11.8010   43.7210  -20.4820 C   0  0  0  0  0  0  0  0  0  0  0  0
   10.3530   43.8330  -20.6760 N   0  0  0  0  0  0  0  0  0  0  0  0
    9.5690   43.7770  -19.5610 C   0  0  0  0  0  0  0  0  0  0  0  0
   10.0540   43.6450  -18.4480 O   0  0  0  0  0  0  0  0  0  0  0  0
    8.1830   43.8810  -19.7570 C   0  0  0  0  0  0  0  0  0  0  0  0
    7.1250   43.8730  -18.8950 N   0  0  0  0  0  0  0  0  0  0  0  0
    7.1070   43.7440  -17.4350 C   0  0  0  0  0  0  0  0  0  0  0  0
    6.0000   44.0100  -19.6330 C   0  0  0  0  0  0  0  0  0  0  0  0
    6.3290   44.1060  -20.9380 N   0  0  0  0  0  0  0  0  0  0  0  0
    7.6740   44.0270  -21.0550 C   0  0  0  0  0  0  0  0  0  0  0  0
    8.4920   44.0740  -22.1430 N   0  0  0  0  0  0  0  0  0  0  0  0
    7.9540   44.2250  -23.4940 C   0  0  0  0  0  0  0  0  0  0  0  0
    9.8280   43.9740  -21.9250 C   0  0  0  0  0  0  0  0  0  0  0  0
   10.5580   44.0200  -22.9070 O   0  0  0  0  0  0  0  0  0  0  0  0
   12.0692   45.4629  -24.8720 H   0  0  0  0  0  0  0  0  0  0  0  0
   13.0574   46.9196  -25.2302 H   0  0  0  0  0  0  0  0  0  0  0  0
   13.8212   45.2938  -25.2302 H   0  0  0  0  0  0  0  0  0  0  0  0
   13.0986   44.0539  -22.6665 H   0  0  0  0  0  0  0  0  0  0  0  0
   14.8311   44.6311  -22.7801 H   0  0  0  0  0  0  0  0  0  0  0  0
   14.4559   44.3512  -20.4819 H   0  0  0  0  0  0  0  0  0  0  0  0
   14.2694   46.1300  -20.7926 H   0  0  0  0  0  0  0  0  0  0  0  0
   12.5171   45.3554  -19.2676 H   0  0  0  0  0  0  0  0  0  0  0  0
   11.8116   45.8395  -20.8597 H   0  0  0  0  0  0  0  0  0  0  0  0
   12.2423   43.2098  -21.3503 H   0  0  0  0  0  0  0  0  0  0  0  0
   11.9893   43.1476  -19.5623 H   0  0  0  0  0  0  0  0  0  0  0  0
    7.2453   44.7348  -16.9776 H   0  0  0  0  0  0  0  0  0  0  0  0
    6.1416   43.3243  -17.1159 H   0  0  0  0  0  0  0  0  0  0  0  0
    7.9206   43.0761  -17.1159 H   0  0  0  0  0  0  0  0  0  0  0  0
    4.9762   44.0387  -19.2318 H   0  0  0  0  0  0  0  0  0  0  0  0
    6.8964   44.5218  -23.4364 H   0  0  0  0  0  0  0  0  0  0  0  0
    8.5231   44.9981  -24.0310 H   0  0  0  0  0  0  0  0  0  0  0  0
    8.0377   43.2687  -24.0310 H   0  0  0  0  0  0  0  0  0  0  0  0
  1  2  1  0
  2  3  2  0
  2  4  1  0
  4  5  1  0
  5  6  1  0
  6  7  1  0
  7  8  1  0
  8  9  1  0
  9 10  2  0
  9 11  1  0
 11 12  1  0
 12 13  1  0
 12 14  1  0
 14 15  2  0
 11 16  2  0
 15 16  1  0
 16 17  1  0
 17 18  1  0
  8 19  1  0
 17 19  1  0
 19 20  2  0
  1 21  1  0
  1 22  1  0
  1 23  1  0
  4 24  1  0
  4 25  1  0
  5 26  1  0
  5 27  1  0
  6 28  1  0
  6 29  1  0
  7 30  1  0
  7 31  1  0
 13 32  1  0
 13 33  1  0
 13 34  1  0
 14 35  1  0
 18 36  1  0
 18 37  1  0
 18 38  1  0
M  END
$$$$
