PDB_DB00936_99
     RDKit          3D

 16 16  0  0  0  0  0  0  0  0999 V2000
   27.7110   32.1490  212.5230 C   0  0  0  0  0  0  0  0  0  0  0  0
   26.8110   31.2170  212.7110 O   0  0  0  0  0  0  0  0  0  0  0  0
   28.8180   32.0880  213.0660 O   0  0  0  0  0  0  0  0  0  0  0  0
   27.3170   33.2520  211.6530 C   0  0  0  0  0  0  0  0  0  0  0  0
   28.2150   34.2960  211.3810 C   0  0  0  0  0  0  0  0  0  0  0  0
   27.8220   35.3380  210.5600 C   0  0  0  0  0  0  0  0  0  0  0  0
   26.5610   35.3530  210.0050 C   0  0  0  0  0  0  0  0  0  0  0  0
   25.6680   34.3280  210.2640 C   0  0  0  0  0  0  0  0  0  0  0  0
   26.0460   33.2950  211.0760 C   0  0  0  0  0  0  0  0  0  0  0  0
   29.4690   34.3420  211.8980 O   0  0  0  0  0  0  0  0  0  0  0  0
   29.4853   32.8028  212.9113 H   0  0  0  0  0  0  0  0  0  0  0  0
   28.5213   36.1604  210.3488 H   0  0  0  0  0  0  0  0  0  0  0  0
   26.2619   36.1857  209.3514 H   0  0  0  0  0  0  0  0  0  0  0  0
   24.6617   34.3442  209.8200 H   0  0  0  0  0  0  0  0  0  0  0  0
   25.3344   32.4811  211.2790 H   0  0  0  0  0  0  0  0  0  0  0  0
   30.0677   35.0991  211.6779 H   0  0  0  0  0  0  0  0  0  0  0  0
  1  2  2  0
  1  3  1  0
  1  4  1  0
  4  5  2  0
  5  6  1  0
  6  7  2  0
  7  8  1  0
  4  9  1  0
  8  9  2  0
  5 10  1  0
  3 11  1  0
  6 12  1  0
  7 13  1  0
  8 14  1  0
  9 15  1  0
 10 16  1  0
M  END
$$$$
