PDB_DB00819_80
     RDKit          3D

 19 19  0  0  0  0  0  0  0  0999 V2000
   -2.5460   -2.7960   19.6090 C   0  0  0  0  0  0  0  0  0  0  0  0
   -4.5190   -2.4240   20.8150 C   0  0  0  0  0  0  0  0  0  0  0  0
   -6.6040   -1.1100   20.9090 C   0  0  0  0  0  0  0  0  0  0  0  0
   -7.7590   -0.8200   21.8100 C   0  0  0  0  0  0  0  0  0  0  0  0
    0.1220   -2.4650   19.3250 N   0  0  0  0  0  0  0  0  0  0  0  0
   -3.7630   -3.3400   21.3670 N   0  0  0  0  0  0  0  0  0  0  0  0
   -2.6110   -3.5520   20.6560 N   0  0  0  0  0  0  0  0  0  0  0  0
   -5.7180   -2.0670   21.3910 N   0  0  0  0  0  0  0  0  0  0  0  0
   -1.0470   -4.2190   18.1030 O   0  0  0  0  0  0  0  0  0  0  0  0
   -1.4030   -1.8260   17.5280 O   0  0  0  0  0  0  0  0  0  0  0  0
   -6.4290   -0.5650   19.8370 O   0  0  0  0  0  0  0  0  0  0  0  0
   -1.1590   -2.8480   18.4960 S   0  0  0  0  0  0  0  0  0  0  0  0
   -3.8800   -1.7330   19.3570 S   0  0  0  0  0  0  0  0  0  0  0  0
   -7.4357   -0.9012   22.8583 H   0  0  0  0  0  0  0  0  0  0  0  0
   -8.1273    0.1985   21.6177 H   0  0  0  0  0  0  0  0  0  0  0  0
   -8.5648   -1.5437   21.6177 H   0  0  0  0  0  0  0  0  0  0  0  0
   -0.0887   -2.5280   20.3312 H   0  0  0  0  0  0  0  0  0  0  0  0
    0.8876   -3.1139   19.0933 H   0  0  0  0  0  0  0  0  0  0  0  0
   -5.9828   -2.5540   22.2591 H   0  0  0  0  0  0  0  0  0  0  0  0
  3  4  1  0
  2  6  2  0
  1  7  2  0
  6  7  1  0
  2  8  1  0
  3  8  1  0
  3 11  2  0
  1 12  1  0
  5 12  1  0
  9 12  2  0
 10 12  2  0
  1 13  1  0
  2 13  1  0
  4 14  1  0
  4 15  1  0
  4 16  1  0
  5 17  1  0
  5 18  1  0
  8 19  1  0
M  END
>  <PDBID>  (1) 
3ML5

>  <PDB ID>  (1) 
3ML5

>  <Generic Name>  (1) 
Acetazolamide

>  <Brand Name>  (1) 
Acetazolam#Acetazolamide#Acetazolamide for Injection, USP#Diamox IV 500mg#Diamox Pws 500mg/vial#Diamox Sequels#Diamox Src 500mg#Diamox Tab 250mg#Diamox Tablets 250mg#Novo-zolamide Tab 250mg#Acemit#Acemox#Acetak#Acetamide#Acetazolamax#Azm#Azol#Azomid#Carbinib#Defiltran#Diabo#Diacarb#Diamox#Diamox Depot#Diazomid#Diluran#Diuramid#Défiltran#Edemox#Glaumox#Glaupax#Glupax#Huma-Zolamide#Iopar-SR#Medene#Oculten#Uramox#Zolmide#Ödemin

>  <DrugBank ID>  (1) 
DB00819

>  <ATC Codes>  (1) 
S01EC01

>  <Ligand ID>  (1) 
AZM

>  <Target Name>  (1) 
Carbonic anhydrase 7

>  <UniProt ID>  (1) 
P43166

>  <PDB ID.1>  (1) 
3ML5

>  <Seq. Identity>  (1) 
99%

$$$$
