PDB_DB00570_99
     RDKit          3D

117125  0  0  0  0  0  0  0  0999 V2000
    3.6340   50.5390   19.6780 C   0  0  0  0  0  0  0  0  0  0  0  0
    4.3820   49.7980   18.6030 C   0  0  0  0  0  0  0  0  0  0  0  0
    3.5730   48.7200   17.9310 C   0  0  1  0  0  0  0  0  0  0  0  0
    2.6260   49.2890   17.0650 O   0  0  0  0  0  0  0  0  0  0  0  0
    4.4910   47.8770   17.0450 C   0  0  0  0  0  0  0  0  0  0  0  0
    2.8080   47.8510   18.9380 C   0  0  0  0  0  0  0  0  0  0  0  0
    2.1220   46.5520   18.4810 C   0  0  1  0  0  0  0  0  0  0  0  0
    0.6190   46.7600   17.9850 C   0  0  0  0  0  0  0  0  0  0  0  0
    3.0950   45.9270   17.4870 C   0  0  0  0  0  0  0  0  0  0  0  0
    3.9520   46.6070   16.5190 N   0  0  0  0  0  0  0  0  0  0  0  0
    3.5760   46.6170   15.0280 C   0  0  0  0  0  0  0  0  0  0  0  0
    2.1040   46.8070   14.4990 C   0  0  0  0  0  0  0  0  0  0  0  0
    1.1060   45.6450   14.7330 C   0  0  0  0  0  0  0  0  0  0  0  0
    0.8690   44.6680   13.6750 C   0  0  0  0  0  0  0  0  0  0  0  0
    1.4000   44.5910   12.4160 C   0  0  0  0  0  0  0  0  0  0  0  0
    1.0040   43.5610   11.6030 C   0  0  0  0  0  0  0  0  0  0  0  0
    0.0910   42.6270   12.0490 C   0  0  0  0  0  0  0  0  0  0  0  0
   -0.4520   42.6900   13.3140 C   0  0  0  0  0  0  0  0  0  0  0  0
   -0.0920   43.6980   14.1670 C   0  0  0  0  0  0  0  0  0  0  0  0
   -0.4410   44.0040   15.4140 N   0  0  0  0  0  0  0  0  0  0  0  0
    0.1840   45.1150   15.8390 C   0  0  0  0  0  0  0  0  0  0  0  0
   -0.1500   45.5550   17.3050 C   0  0  2  0  0  0  0  0  0  0  0  0
   -1.5840   46.0150   17.1990 C   0  0  0  0  0  0  0  0  0  0  0  0
   -1.8850   47.1660   17.0530 O   0  0  0  0  0  0  0  0  0  0  0  0
   -2.6350   45.0450   17.2790 O   0  0  0  0  0  0  0  0  0  0  0  0
   -3.9630   45.3980   16.9920 C   0  0  0  0  0  0  0  0  0  0  0  0
    0.0630   44.5810   18.4280 C   0  0  0  0  0  0  0  0  0  0  0  0
    0.9950   43.5360   18.3400 C   0  0  0  0  0  0  0  0  0  0  0  0
    1.1900   42.6610   19.4070 C   0  0  0  0  0  0  0  0  0  0  0  0
    2.0960   41.4940   19.5640 C   0  0  1  0  0  0  0  0  0  0  0  0
    2.1080   40.6070   18.3420 C   0  0  1  0  0  0  0  0  0  0  0  0
    3.5070   42.0090   19.6430 C   0  0  0  0  0  0  0  0  0  0  0  0
    4.3590   40.8920   19.1050 C   0  0  0  0  0  0  0  0  0  0  0  0
    3.5130   40.1830   18.1450 N   0  0  0  0  0  0  0  0  0  0  0  0
    3.8680   38.7740   18.0950 C   0  0  0  0  0  0  0  0  0  0  0  0
    2.7620   37.9070   17.6080 C   0  0  0  0  0  0  0  0  0  0  0  0
    1.5050   38.2460   17.7070 C   0  0  0  0  0  0  0  0  0  0  0  0
    1.0100   39.5290   18.2970 C   0  0  2  0  0  0  0  0  0  0  0  0
   -0.0530   39.9770   17.3060 C   0  0  0  0  0  0  0  0  0  0  0  0
    0.4200   40.1620   15.8990 C   0  0  0  0  0  0  0  0  0  0  0  0
    0.2760   39.2970   19.6300 C   0  0  1  0  0  0  0  0  0  0  0  0
   -0.2360   37.9750   19.7520 O   0  0  0  0  0  0  0  0  0  0  0  0
   -1.6640   37.8150   19.8010 C   0  0  0  0  0  0  0  0  0  0  0  0
   -2.1890   36.4900   20.2080 C   0  0  0  0  0  0  0  0  0  0  0  0
   -2.3940   38.7270   19.5110 O   0  0  0  0  0  0  0  0  0  0  0  0
    1.1300   39.5200   20.8630 C   0  0  1  0  0  0  0  0  0  0  0  0
    0.3010   39.2430   22.0760 C   0  0  0  0  0  0  0  0  0  0  0  0
   -0.8740   39.4640   22.1230 O   0  0  0  0  0  0  0  0  0  0  0  0
    0.9140   38.6840   23.2290 O   0  0  0  0  0  0  0  0  0  0  0  0
    0.2380   37.6270   23.8720 C   0  0  0  0  0  0  0  0  0  0  0  0
    2.2170   38.6230   20.9110 O   0  0  0  0  0  0  0  0  0  0  0  0
    1.7070   40.9130   20.9350 C   0  0  2  0  0  0  0  0  0  0  0  0
    0.7810   41.8930   21.5250 N   0  0  0  0  0  0  0  0  0  0  0  0
    0.3840   41.9660   22.9230 C   0  0  0  0  0  0  0  0  0  0  0  0
    0.4170   42.8330   20.6200 C   0  0  0  0  0  0  0  0  0  0  0  0
   -0.4940   43.8490   20.7570 C   0  0  0  0  0  0  0  0  0  0  0  0
   -0.7110   44.7360   19.7140 C   0  0  0  0  0  0  0  0  0  0  0  0
   -1.6210   45.7250   19.8860 O   0  0  0  0  0  0  0  0  0  0  0  0
   -2.6960   45.6870   20.7930 C   0  0  0  0  0  0  0  0  0  0  0  0
    3.9781   50.1981   20.6656 H   0  0  0  0  0  0  0  0  0  0  0  0
    3.8206   51.6183   19.5771 H   0  0  0  0  0  0  0  0  0  0  0  0
    2.5565   50.3422   19.5771 H   0  0  0  0  0  0  0  0  0  0  0  0
    4.6974   50.5226   17.8378 H   0  0  0  0  0  0  0  0  0  0  0  0
    5.2342   49.3017   19.0903 H   0  0  0  0  0  0  0  0  0  0  0  0
    1.9098   49.7193   17.5960 H   0  0  0  0  0  0  0  0  0  0  0  0
    4.7760   48.4966   16.1820 H   0  0  0  0  0  0  0  0  0  0  0  0
    5.3198   47.5784   17.7038 H   0  0  0  0  0  0  0  0  0  0  0  0
    3.5263   47.5698   19.7222 H   0  0  0  0  0  0  0  0  0  0  0  0
    1.9614   48.4913   19.2265 H   0  0  0  0  0  0  0  0  0  0  0  0
    1.9448   45.8495   19.3087 H   0  0  0  0  0  0  0  0  0  0  0  0
    0.0303   47.0601   18.8644 H   0  0  0  0  0  0  0  0  0  0  0  0
    0.7137   47.4972   17.1741 H   0  0  0  0  0  0  0  0  0  0  0  0
    3.7875   45.3391   18.1073 H   0  0  0  0  0  0  0  0  0  0  0  0
    2.3638   45.4958   16.7874 H   0  0  0  0  0  0  0  0  0  0  0  0
    4.1640   47.4294   14.5761 H   0  0  0  0  0  0  0  0  0  0  0  0
    3.7667   45.5689   14.7538 H   0  0  0  0  0  0  0  0  0  0  0  0
    1.6903   47.7008   14.9888 H   0  0  0  0  0  0  0  0  0  0  0  0
    2.2048   46.8750   13.4057 H   0  0  0  0  0  0  0  0  0  0  0  0
    2.1272   45.3379   12.0649 H   0  0  0  0  0  0  0  0  0  0  0  0
    1.4172   43.4781   10.5869 H   0  0  0  0  0  0  0  0  0  0  0  0
   -0.2113   41.8105   11.3768 H   0  0  0  0  0  0  0  0  0  0  0  0
   -1.1763   41.9285   13.6389 H   0  0  0  0  0  0  0  0  0  0  0  0
   -1.1056   43.4587   15.9813 H   0  0  0  0  0  0  0  0  0  0  0  0
   -4.5148   45.5447   17.9322 H   0  0  0  0  0  0  0  0  0  0  0  0
   -3.9767   46.3310   16.4094 H   0  0  0  0  0  0  0  0  0  0  0  0
   -4.4381   44.5950   16.4094 H   0  0  0  0  0  0  0  0  0  0  0  0
    1.5792   43.4057   17.4171 H   0  0  0  0  0  0  0  0  0  0  0  0
    1.7925   41.1604   17.4452 H   0  0  0  0  0  0  0  0  0  0  0  0
    3.6232   42.9143   19.0290 H   0  0  0  0  0  0  0  0  0  0  0  0
    3.7890   42.2866   20.6694 H   0  0  0  0  0  0  0  0  0  0  0  0
    5.2520   41.2959   18.6056 H   0  0  0  0  0  0  0  0  0  0  0  0
    4.7133   40.2267   19.9061 H   0  0  0  0  0  0  0  0  0  0  0  0
    4.7287   38.6542   17.4206 H   0  0  0  0  0  0  0  0  0  0  0  0
    4.1009   38.4594   19.1230 H   0  0  0  0  0  0  0  0  0  0  0  0
    3.0132   36.9410   17.1457 H   0  0  0  0  0  0  0  0  0  0  0  0
    0.7546   37.5362   17.3288 H   0  0  0  0  0  0  0  0  0  0  0  0
   -0.8513   39.2202   17.2991 H   0  0  0  0  0  0  0  0  0  0  0  0
   -0.3871   40.9681   17.6467 H   0  0  0  0  0  0  0  0  0  0  0  0
    1.4444   40.5627   15.9062 H   0  0  0  0  0  0  0  0  0  0  0  0
    0.4089   39.1932   15.3781 H   0  0  0  0  0  0  0  0  0  0  0  0
   -0.2454   40.8661   15.3781 H   0  0  0  0  0  0  0  0  0  0  0  0
   -0.5298   40.0448   19.5910 H   0  0  0  0  0  0  0  0  0  0  0  0
   -2.2140   36.4270   21.3059 H   0  0  0  0  0  0  0  0  0  0  0  0
   -3.2063   36.3607   19.8101 H   0  0  0  0  0  0  0  0  0  0  0  0
   -1.5363   35.6990   19.8101 H   0  0  0  0  0  0  0  0  0  0  0  0
    0.3170   37.7506   24.9622 H   0  0  0  0  0  0  0  0  0  0  0  0
   -0.8219   37.6368   23.5778 H   0  0  0  0  0  0  0  0  0  0  0  0
    0.6914   36.6690   23.5778 H   0  0  0  0  0  0  0  0  0  0  0  0
    2.4469   38.4333   21.8551 H   0  0  0  0  0  0  0  0  0  0  0  0
    2.5970   40.7715   21.5657 H   0  0  0  0  0  0  0  0  0  0  0  0
    1.2639   41.8042   23.5630 H   0  0  0  0  0  0  0  0  0  0  0  0
   -0.0436   42.9578   23.1314 H   0  0  0  0  0  0  0  0  0  0  0  0
   -0.3684   41.1912   23.1314 H   0  0  0  0  0  0  0  0  0  0  0  0
   -1.0541   43.9604   21.6972 H   0  0  0  0  0  0  0  0  0  0  0  0
   -2.3080   45.7007   21.8222 H   0  0  0  0  0  0  0  0  0  0  0  0
   -3.3419   46.5629   20.6329 H   0  0  0  0  0  0  0  0  0  0  0  0
   -3.2785   44.7677   20.6329 H   0  0  0  0  0  0  0  0  0  0  0  0
  1  2  1  0
  2  3  1  0
  3  4  1  6
  3  5  1  0
  3  6  1  0
  6  7  1  0
  7  8  1  0
  7  9  1  0
  5 10  1  0
  9 10  1  0
 10 11  1  0
 11 12  1  0
 12 13  1  0
 13 14  1  0
 14 15  1  0
 15 16  2  0
 16 17  1  0
 17 18  2  0
 14 19  2  0
 18 19  1  0
 19 20  1  0
 13 21  2  0
 20 21  1  0
  8 22  1  0
 21 22  1  0
 22 23  1  6
 23 24  2  0
 23 25  1  0
 25 26  1  0
 22 27  1  0
 27 28  2  0
 28 29  1  0
 29 30  1  0
 30 31  1  0
 30 32  1  1
 32 33  1  0
 31 34  1  0
 33 34  1  0
 34 35  1  0
 35 36  1  0
 36 37  2  0
 31 38  1  0
 37 38  1  0
 38 39  1  6
 39 40  1  0
 38 41  1  0
 41 42  1  0
 42 43  1  0
 43 44  1  0
 43 45  2  0
 41 46  1  0
 46 47  1  0
 47 48  2  0
 47 49  1  0
 49 50  1  0
 46 51  1  6
 30 52  1  0
 46 52  1  0
 52 53  1  0
 53 54  1  0
 29 55  2  0
 53 55  1  0
 55 56  1  0
 27 57  1  0
 56 57  2  0
 57 58  1  0
 58 59  1  0
  1 60  1  0
  1 61  1  0
  1 62  1  0
  2 63  1  0
  2 64  1  0
  4 65  1  0
  5 66  1  0
  5 67  1  0
  6 68  1  0
  6 69  1  0
  7 70  1  1
  8 71  1  0
  8 72  1  0
  9 73  1  0
  9 74  1  0
 11 75  1  0
 11 76  1  0
 12 77  1  0
 12 78  1  0
 15 79  1  0
 16 80  1  0
 17 81  1  0
 18 82  1  0
 20 83  1  0
 26 84  1  0
 26 85  1  0
 26 86  1  0
 28 87  1  0
 31 88  1  6
 32 89  1  0
 32 90  1  0
 33 91  1  0
 33 92  1  0
 35 93  1  0
 35 94  1  0
 36 95  1  0
 37 96  1  0
 39 97  1  0
 39 98  1  0
 40 99  1  0
 40100  1  0
 40101  1  0
 41102  1  1
 44103  1  0
 44104  1  0
 44105  1  0
 50106  1  0
 50107  1  0
 50108  1  0
 51109  1  0
 52110  1  1
 54111  1  0
 54112  1  0
 54113  1  0
 56114  1  0
 59115  1  0
 59116  1  0
 59117  1  0
M  END
>  <PDBID>  (1) 
5J2T

>  <PDB ID>  (1) 
5J2T

>  <Generic Name>  (1) 
Vinblastine

>  <Brand Name>  (1) 
Velbe 1mg/ml#Vinblastine Sulfate#Vinblastine Sulfate Inj 1mg/ml#Vinblastine Sulfate Injection#Vinblastine Sulphate Injection#Blastivin#Cytoblastin#Lemblastine#Oncostin#Velban#Velbastin#Velbe#Vinblasin#Vinblastin#Vinko#Weibaoding#Xintoprost

>  <DrugBank ID>  (1) 
DB00570

>  <ATC Codes>  (1) 
L01CA01

>  <Ligand ID>  (1) 
VLB

>  <Target Name>  (1) 
Tubulin beta chain

>  <UniProt ID>  (1) 
P07437

>  <PDB ID.1>  (1) 
5J2T

>  <Seq. Identity>  (1) 
93%

$$$$
