PDB_DB00360_99
     RDKit          3D

 32 33  0  0  0  0  0  0  0  0999 V2000
   -7.4590   22.6190    7.3780 N   0  0  0  0  0  0  0  0  0  0  0  0
   -6.3820   21.8990    7.6440 C   0  0  0  0  0  0  0  0  0  0  0  0
   -6.5680   20.6180    8.1180 N   0  0  0  0  0  0  0  0  0  0  0  0
   -5.0850   22.3480    7.5570 N   0  0  0  0  0  0  0  0  0  0  0  0
   -4.8020   23.7370    7.3320 C   0  0  0  0  0  0  0  0  0  0  0  0
   -3.6240   24.1440    7.1990 O   0  0  0  0  0  0  0  0  0  0  0  0
   -5.9800   24.5120    7.0410 C   0  0  0  0  0  0  0  0  0  0  0  0
   -7.2400   23.9270    6.9950 C   0  0  0  0  0  0  0  0  0  0  0  0
   -5.8080   25.8700    6.6590 N   0  0  0  0  0  0  0  0  0  0  0  0
   -8.3270   24.7300    6.8350 N   0  0  0  0  0  0  0  0  0  0  0  0
   -6.9390   26.7930    6.8620 C   0  0  2  0  0  0  0  0  0  0  0  0
   -8.2100   26.1160    6.3310 C   0  0  0  0  0  0  0  0  0  0  0  0
   -6.4540   28.1330    6.2580 C   0  0  1  0  0  0  0  0  0  0  0  0
   -6.3770   28.0370    4.8220 O   0  0  0  0  0  0  0  0  0  0  0  0
   -7.3660   29.3570    6.4970 C   0  0  2  0  0  0  0  0  0  0  0  0
   -7.4840   29.6870    7.9760 C   0  0  0  0  0  0  0  0  0  0  0  0
   -8.6520   28.9500    5.9160 O   0  0  0  0  0  0  0  0  0  0  0  0
   -5.7536   20.0264    8.3366 H   0  0  0  0  0  0  0  0  0  0  0  0
   -7.5213   20.2524    8.2536 H   0  0  0  0  0  0  0  0  0  0  0  0
   -4.3075   21.6795    7.6545 H   0  0  0  0  0  0  0  0  0  0  0  0
   -4.9205   26.1990    6.2529 H   0  0  0  0  0  0  0  0  0  0  0  0
   -9.2593   24.3617    7.0719 H   0  0  0  0  0  0  0  0  0  0  0  0
   -7.2372   27.0310    7.8937 H   0  0  0  0  0  0  0  0  0  0  0  0
   -8.1739   26.0964    5.2318 H   0  0  0  0  0  0  0  0  0  0  0  0
   -9.0820   26.6887    6.6797 H   0  0  0  0  0  0  0  0  0  0  0  0
   -5.4926   28.2915    6.7685 H   0  0  0  0  0  0  0  0  0  0  0  0
   -5.7775   27.2896    4.5729 H   0  0  0  0  0  0  0  0  0  0  0  0
   -6.9739   30.2777    6.0403 H   0  0  0  0  0  0  0  0  0  0  0  0
   -7.1727   28.8164    8.5719 H   0  0  0  0  0  0  0  0  0  0  0  0
   -6.8366   30.5441    8.2132 H   0  0  0  0  0  0  0  0  0  0  0  0
   -8.5281   29.9393    8.2132 H   0  0  0  0  0  0  0  0  0  0  0  0
   -9.2930   28.7471    6.6427 H   0  0  0  0  0  0  0  0  0  0  0  0
  1  2  2  0
  2  3  1  0
  2  4  1  0
  4  5  1  0
  5  6  2  0
  5  7  1  0
  1  8  1  0
  7  8  2  0
  7  9  1  0
  8 10  1  0
  9 11  1  0
 10 12  1  0
 11 12  1  0
 11 13  1  0
 13 14  1  0
 13 15  1  0
 15 16  1  0
 15 17  1  0
  3 18  1  0
  3 19  1  0
  4 20  1  0
  9 21  1  0
 10 22  1  0
 11 23  1  1
 12 24  1  0
 12 25  1  0
 13 26  1  1
 14 27  1  0
 15 28  1  6
 16 29  1  0
 16 30  1  0
 16 31  1  0
 17 32  1  0
M  END
>  <PDBID>  (1) 
1J8U

>  <PDB ID>  (1) 
1J8U

>  <Generic Name>  (1) 
Sapropterin

>  <Brand Name>  (1) 
Kuvan#BH4#Biopten

>  <DrugBank ID>  (1) 
DB00360

>  <ATC Codes>  (1) 
A16AX07

>  <Ligand ID>  (1) 
BH4,BHS,H4B,THB

>  <Target Name>  (1) 
Tryptophan 5-hydroxylase 1

>  <UniProt ID>  (1) 
P17752

>  <PDB ID.1>  (1) 
1J8U

>  <Seq. Identity>  (1) 
65%

$$$$
