PDB_DB00188_73
     RDKit          3D

 53 54  0  0  0  0  0  0  0  0999 V2000
   49.2970 -136.6820   55.3220 N   0  0  0  0  0  0  0  0  0  0  0  0
   48.9230 -137.9260   55.6570 C   0  0  0  0  0  0  0  0  0  0  0  0
   49.8240 -138.9840   55.5320 C   0  0  0  0  0  0  0  0  0  0  0  0
   51.1190 -138.7500   55.0610 N   0  0  0  0  0  0  0  0  0  0  0  0
   51.4980 -137.4520   54.7140 C   0  0  0  0  0  0  0  0  0  0  0  0
   50.5830 -136.4170   54.8450 C   0  0  0  0  0  0  0  0  0  0  0  0
   47.6270 -138.1170   56.1280 C   0  0  0  0  0  0  0  0  0  0  0  0
   46.8020 -137.2110   56.0320 O   0  0  0  0  0  0  0  0  0  0  0  0
   47.3660 -139.3070   56.6930 N   0  0  0  0  0  0  0  0  0  0  0  0
   46.0470 -139.6390   57.2420 C   0  0  1  0  0  0  0  0  0  0  0  0
   45.5800 -140.8690   56.4930 C   0  0  0  0  0  0  0  0  0  0  0  0
   44.4540 -141.4270   57.1210 C   0  0  0  0  0  0  0  0  0  0  0  0
   43.2000 -140.8170   57.0040 C   0  0  0  0  0  0  0  0  0  0  0  0
   42.0820 -141.3820   57.6170 C   0  0  0  0  0  0  0  0  0  0  0  0
   42.2090 -142.5650   58.3450 C   0  0  0  0  0  0  0  0  0  0  0  0
   43.4540 -143.1820   58.4600 C   0  0  0  0  0  0  0  0  0  0  0  0
   44.5700 -142.6170   57.8450 C   0  0  0  0  0  0  0  0  0  0  0  0
   46.2620 -139.8510   58.7490 C   0  0  0  0  0  0  0  0  0  0  0  0
   47.2750 -140.4190   59.1550 O   0  0  0  0  0  0  0  0  0  0  0  0
   45.3290 -139.3110   59.5530 N   0  0  0  0  0  0  0  0  0  0  0  0
   45.4230 -139.4120   61.0230 C   0  0  1  0  0  0  0  0  0  0  0  0
   45.0670 -138.1050   61.7020 C   0  0  0  0  0  0  0  0  0  0  0  0
   45.8580 -136.9370   61.0700 C   0  0  0  0  0  0  0  0  0  0  0  0
   45.1830 -135.6110   61.4570 C   0  0  0  0  0  0  0  0  0  0  0  0
   47.3260 -136.9280   61.5270 C   0  0  0  0  0  0  0  0  0  0  0  0
   44.4570 -140.5070   61.5350 B   0  0  0  0  0  0  0  0  0  0  0  0
   43.1290 -140.2120   61.0760 O   0  0  0  0  0  0  0  0  0  0  0  0
   44.8610 -141.7870   61.0430 O   0  0  0  0  0  0  0  0  0  0  0  0
   49.5147 -140.0038   55.8045 H   0  0  0  0  0  0  0  0  0  0  0  0
   52.5129 -137.2515   54.3401 H   0  0  0  0  0  0  0  0  0  0  0  0
   50.8696 -135.3902   54.5739 H   0  0  0  0  0  0  0  0  0  0  0  0
   48.1171 -140.0100   56.7425 H   0  0  0  0  0  0  0  0  0  0  0  0
   45.2702 -138.8692   57.1235 H   0  0  0  0  0  0  0  0  0  0  0  0
   45.3180 -140.5879   55.4623 H   0  0  0  0  0  0  0  0  0  0  0  0
   46.3906 -141.6126   56.4877 H   0  0  0  0  0  0  0  0  0  0  0  0
   43.0956 -139.8872   56.4256 H   0  0  0  0  0  0  0  0  0  0  0  0
   41.1000 -140.8947   57.5264 H   0  0  0  0  0  0  0  0  0  0  0  0
   41.3272 -143.0110   58.8282 H   0  0  0  0  0  0  0  0  0  0  0  0
   43.5555 -144.1139   59.0356 H   0  0  0  0  0  0  0  0  0  0  0  0
   45.5491 -143.1112   57.9300 H   0  0  0  0  0  0  0  0  0  0  0  0
   44.5297 -138.8151   59.1333 H   0  0  0  0  0  0  0  0  0  0  0  0
   46.4654 -139.6642   61.2677 H   0  0  0  0  0  0  0  0  0  0  0  0
   43.9893 -137.9178   61.5857 H   0  0  0  0  0  0  0  0  0  0  0  0
   45.3253 -138.1751   62.7689 H   0  0  0  0  0  0  0  0  0  0  0  0
   45.8534 -137.0656   59.9775 H   0  0  0  0  0  0  0  0  0  0  0  0
   45.1404 -135.5274   62.5530 H   0  0  0  0  0  0  0  0  0  0  0  0
   45.7632 -134.7710   61.0474 H   0  0  0  0  0  0  0  0  0  0  0  0
   44.1624 -135.5859   61.0474 H   0  0  0  0  0  0  0  0  0  0  0  0
   47.3678 -136.9277   62.6262 H   0  0  0  0  0  0  0  0  0  0  0  0
   47.8357 -137.8230   61.1409 H   0  0  0  0  0  0  0  0  0  0  0  0
   47.8247 -136.0268   61.1409 H   0  0  0  0  0  0  0  0  0  0  0  0
   42.5325 -140.0795   61.8549 H   0  0  0  0  0  0  0  0  0  0  0  0
   45.0509 -142.3888   61.8058 H   0  0  0  0  0  0  0  0  0  0  0  0
  1  2  2  0
  2  3  1  0
  3  4  2  0
  4  5  1  0
  1  6  1  0
  5  6  2  0
  2  7  1  0
  7  8  2  0
  7  9  1  0
  9 10  1  0
 10 11  1  0
 11 12  1  0
 12 13  2  0
 13 14  1  0
 14 15  2  0
 15 16  1  0
 12 17  1  0
 16 17  2  0
 10 18  1  0
 18 19  2  0
 18 20  1  0
 20 21  1  0
 21 22  1  0
 22 23  1  0
 23 24  1  0
 23 25  1  0
 21 26  1  0
 26 27  1  0
 26 28  1  0
  3 29  1  0
  5 30  1  0
  6 31  1  0
  9 32  1  0
 10 33  1  1
 11 34  1  0
 11 35  1  0
 13 36  1  0
 14 37  1  0
 15 38  1  0
 16 39  1  0
 17 40  1  0
 20 41  1  0
 21 42  1  6
 22 43  1  0
 22 44  1  0
 23 45  1  0
 24 46  1  0
 24 47  1  0
 24 48  1  0
 25 49  1  0
 25 50  1  0
 25 51  1  0
 27 52  1  0
 28 53  1  0
M  END
$$$$
