PDB_DB01229_97
     RDKit          3D

113119  0  0  0  0  0  0  0  0999 V2000
   18.1380  -29.3150  -19.1170 O   0  0  0  0  0  0  0  0  0  0  0  0
   18.4530  -29.1610  -17.7210 C   0  0  1  0  0  0  0  0  0  0  0  0
   19.7580  -28.1860  -17.6570 C   0  0  1  0  0  0  0  0  0  0  0  0
   19.2540  -26.9580  -18.3130 O   0  0  0  0  0  0  0  0  0  0  0  0
   19.7280  -26.6450  -19.6080 C   0  0  0  0  0  0  0  0  0  0  0  0
   20.5500  -27.3050  -20.1990 O   0  0  0  0  0  0  0  0  0  0  0  0
   19.1480  -25.4370  -20.1350 C   0  0  0  0  0  0  0  0  0  0  0  0
   18.9980  -24.1960  -19.5040 C   0  0  0  0  0  0  0  0  0  0  0  0
   18.3920  -23.1410  -20.2390 C   0  0  0  0  0  0  0  0  0  0  0  0
   17.9670  -23.1800  -21.4170 C   0  0  0  0  0  0  0  0  0  0  0  0
   18.0770  -24.4060  -22.1330 C   0  0  0  0  0  0  0  0  0  0  0  0
   18.6890  -25.6210  -21.5120 C   0  0  0  0  0  0  0  0  0  0  0  0
   20.3490  -27.7600  -16.2080 C   0  0  2  0  0  0  0  0  0  0  0  0
   20.7110  -26.1960  -16.0680 C   0  0  2  0  0  0  0  0  0  0  0  0
   19.5110  -25.3270  -16.2020 O   0  0  0  0  0  0  0  0  0  0  0  0
   18.5100  -25.3090  -15.2580 C   0  0  0  0  0  0  0  0  0  0  0  0
   18.4860  -25.9680  -14.2610 O   0  0  0  0  0  0  0  0  0  0  0  0
   17.4470  -24.3170  -15.6790 C   0  0  0  0  0  0  0  0  0  0  0  0
   21.6930  -25.5380  -17.0710 C   0  0  0  0  0  0  0  0  0  0  0  0
   22.5920  -25.1060  -16.0240 O   0  0  0  0  0  0  0  0  0  0  0  0
   21.7370  -25.6860  -15.0170 C   0  0  2  0  0  0  0  0  0  0  0  0
   22.4900  -26.7400  -14.1390 C   0  0  0  0  0  0  0  0  0  0  0  0
   21.8770  -28.1330  -14.1810 C   0  0  2  0  0  0  0  0  0  0  0  0
   22.6770  -29.0340  -13.3740 O   0  0  0  0  0  0  0  0  0  0  0  0
   21.6550  -28.6840  -15.6720 C   0  0  2  0  0  0  0  0  0  0  0  0
   22.9610  -28.4740  -16.4950 C   0  0  0  0  0  0  0  0  0  0  0  0
   21.4940  -30.2980  -15.6440 C   0  0  0  0  0  0  0  0  0  0  0  0
   22.3460  -30.9830  -16.1840 O   0  0  0  0  0  0  0  0  0  0  0  0
   20.2980  -30.9910  -14.9780 C   0  0  2  0  0  0  0  0  0  0  0  0
   20.4650  -32.4600  -15.1630 O   0  0  0  0  0  0  0  0  0  0  0  0
   20.7170  -33.2710  -14.0740 C   0  0  0  0  0  0  0  0  0  0  0  0
   20.8180  -32.8990  -12.9460 O   0  0  0  0  0  0  0  0  0  0  0  0
   20.8540  -34.7050  -14.5090 C   0  0  0  0  0  0  0  0  0  0  0  0
   18.9850  -30.4900  -15.5840 C   0  0  0  0  0  0  0  0  0  0  0  0
   18.0850  -29.7890  -14.7870 C   0  0  0  0  0  0  0  0  0  0  0  0
   16.8510  -29.1740  -15.5180 C   0  0  1  0  0  0  0  0  0  0  0  0
   16.1370  -28.1530  -14.7370 O   0  0  0  0  0  0  0  0  0  0  0  0
   15.1010  -28.5450  -14.0080 C   0  0  0  0  0  0  0  0  0  0  0  0
   14.6690  -29.6510  -13.8950 O   0  0  0  0  0  0  0  0  0  0  0  0
   14.4620  -27.3290  -13.2880 C   0  0  2  0  0  0  0  0  0  0  0  0
   13.3400  -27.7920  -12.5610 O   0  0  0  0  0  0  0  0  0  0  0  0
   14.0940  -26.2700  -14.3570 C   0  0  1  0  0  0  0  0  0  0  0  0
   13.2940  -26.9490  -15.3710 N   0  0  0  0  0  0  0  0  0  0  0  0
   13.2280  -26.5370  -16.6580 C   0  0  0  0  0  0  0  0  0  0  0  0
   13.8210  -25.5490  -17.0770 O   0  0  0  0  0  0  0  0  0  0  0  0
   12.3960  -27.4080  -17.5310 C   0  0  0  0  0  0  0  0  0  0  0  0
   11.0360  -27.6400  -17.3280 C   0  0  0  0  0  0  0  0  0  0  0  0
   10.3000  -28.4920  -18.1940 C   0  0  0  0  0  0  0  0  0  0  0  0
   10.9590  -29.1230  -19.2850 C   0  0  0  0  0  0  0  0  0  0  0  0
   12.3090  -28.8990  -19.4940 C   0  0  0  0  0  0  0  0  0  0  0  0
   13.0440  -28.0620  -18.6470 C   0  0  0  0  0  0  0  0  0  0  0  0
   13.4040  -25.0450  -13.7220 C   0  0  0  0  0  0  0  0  0  0  0  0
   14.2120  -23.9600  -13.3370 C   0  0  0  0  0  0  0  0  0  0  0  0
   13.6390  -22.8050  -12.7410 C   0  0  0  0  0  0  0  0  0  0  0  0
   12.2510  -22.7440  -12.5340 C   0  0  0  0  0  0  0  0  0  0  0  0
   11.4510  -23.8080  -12.9120 C   0  0  0  0  0  0  0  0  0  0  0  0
   12.0180  -24.9710  -13.5100 C   0  0  0  0  0  0  0  0  0  0  0  0
   17.2720  -28.4830  -16.8720 C   0  0  0  0  0  0  0  0  0  0  0  0
   18.2410  -29.4890  -13.3020 C   0  0  0  0  0  0  0  0  0  0  0  0
   18.6950  -30.7000  -17.1500 C   0  0  0  0  0  0  0  0  0  0  0  0
   17.4080  -31.6320  -17.3150 C   0  0  0  0  0  0  0  0  0  0  0  0
   19.7510  -31.4290  -18.0110 C   0  0  0  0  0  0  0  0  0  0  0  0
   17.2525  -29.7479  -19.2097 H   0  0  0  0  0  0  0  0  0  0  0  0
   20.6054  -28.7251  -18.1057 H   0  0  0  0  0  0  0  0  0  0  0  0
   19.3392  -24.0420  -18.4696 H   0  0  0  0  0  0  0  0  0  0  0  0
   18.2838  -22.1807  -19.7136 H   0  0  0  0  0  0  0  0  0  0  0  0
   17.5207  -22.2906  -21.8858 H   0  0  0  0  0  0  0  0  0  0  0  0
   17.7034  -24.4606  -23.1662 H   0  0  0  0  0  0  0  0  0  0  0  0
   18.7863  -26.5768  -22.0477 H   0  0  0  0  0  0  0  0  0  0  0  0
   19.4947  -27.9758  -15.5496 H   0  0  0  0  0  0  0  0  0  0  0  0
   16.9786  -23.8799  -14.7848 H   0  0  0  0  0  0  0  0  0  0  0  0
   17.9077  -23.5185  -16.2791 H   0  0  0  0  0  0  0  0  0  0  0  0
   16.6822  -24.8317  -16.2791 H   0  0  0  0  0  0  0  0  0  0  0  0
   22.1486  -26.2543  -17.7705 H   0  0  0  0  0  0  0  0  0  0  0  0
   21.3056  -24.7902  -17.7786 H   0  0  0  0  0  0  0  0  0  0  0  0
   21.3199  -25.0818  -14.1979 H   0  0  0  0  0  0  0  0  0  0  0  0
   23.5285  -26.8083  -14.4953 H   0  0  0  0  0  0  0  0  0  0  0  0
   22.4212  -26.3935  -13.0973 H   0  0  0  0  0  0  0  0  0  0  0  0
   20.8654  -28.0714  -13.7534 H   0  0  0  0  0  0  0  0  0  0  0  0
   22.5142  -28.8506  -12.4149 H   0  0  0  0  0  0  0  0  0  0  0  0
   23.8093  -28.3376  -15.8081 H   0  0  0  0  0  0  0  0  0  0  0  0
   23.1405  -29.3548  -17.1290 H   0  0  0  0  0  0  0  0  0  0  0  0
   22.8553  -27.5813  -17.1290 H   0  0  0  0  0  0  0  0  0  0  0  0
   20.2601  -30.7580  -13.9036 H   0  0  0  0  0  0  0  0  0  0  0  0
   20.9159  -35.3529  -13.6222 H   0  0  0  0  0  0  0  0  0  0  0  0
   19.9791  -34.9906  -15.1114 H   0  0  0  0  0  0  0  0  0  0  0  0
   21.7672  -34.8198  -15.1114 H   0  0  0  0  0  0  0  0  0  0  0  0
   16.1848  -30.0338  -15.6824 H   0  0  0  0  0  0  0  0  0  0  0  0
   15.1508  -26.8528  -12.5748 H   0  0  0  0  0  0  0  0  0  0  0  0
   13.5216  -27.7170  -11.5907 H   0  0  0  0  0  0  0  0  0  0  0  0
   14.9900  -25.8505  -14.8379 H   0  0  0  0  0  0  0  0  0  0  0  0
   12.7541  -27.7812  -15.0939 H   0  0  0  0  0  0  0  0  0  0  0  0
   10.5247  -27.1552  -16.4833 H   0  0  0  0  0  0  0  0  0  0  0  0
    9.2270  -28.6627  -18.0219 H   0  0  0  0  0  0  0  0  0  0  0  0
   10.3983  -29.7863  -19.9600 H   0  0  0  0  0  0  0  0  0  0  0  0
   12.8129  -29.3876  -20.3409 H   0  0  0  0  0  0  0  0  0  0  0  0
   14.1166  -27.9010  -18.8301 H   0  0  0  0  0  0  0  0  0  0  0  0
   15.2990  -24.0064  -13.4992 H   0  0  0  0  0  0  0  0  0  0  0  0
   14.2795  -21.9619  -12.4428 H   0  0  0  0  0  0  0  0  0  0  0  0
   11.8011  -21.8526  -12.0725 H   0  0  0  0  0  0  0  0  0  0  0  0
   10.3644  -23.7556  -12.7490 H   0  0  0  0  0  0  0  0  0  0  0  0
   11.3704  -25.8097  -13.8051 H   0  0  0  0  0  0  0  0  0  0  0  0
   17.5871  -27.4566  -16.6327 H   0  0  0  0  0  0  0  0  0  0  0  0
   16.3836  -28.5682  -17.5151 H   0  0  0  0  0  0  0  0  0  0  0  0
   17.8120  -30.3139  -12.7142 H   0  0  0  0  0  0  0  0  0  0  0  0
   19.3087  -29.3826  -13.0596 H   0  0  0  0  0  0  0  0  0  0  0  0
   17.7150  -28.5538  -13.0596 H   0  0  0  0  0  0  0  0  0  0  0  0
   17.0259  -31.9087  -16.3213 H   0  0  0  0  0  0  0  0  0  0  0  0
   16.6292  -31.0871  -17.8686 H   0  0  0  0  0  0  0  0  0  0  0  0
   17.6828  -32.5419  -17.8686 H   0  0  0  0  0  0  0  0  0  0  0  0
   20.4771  -31.9303  -17.3541 H   0  0  0  0  0  0  0  0  0  0  0  0
   19.2536  -32.1770  -18.6459 H   0  0  0  0  0  0  0  0  0  0  0  0
   20.2741  -30.6987  -18.6459 H   0  0  0  0  0  0  0  0  0  0  0  0
  2  1  1  6
  2  3  1  0
  3  4  1  0
  4  5  1  0
  5  6  2  0
  5  7  1  0
  7  8  2  0
  8  9  1  0
  9 10  2  0
 10 11  1  0
  7 12  1  0
 11 12  2  0
  3 13  1  0
 13 14  1  0
 14 15  1  1
 15 16  1  0
 16 17  2  0
 16 18  1  0
 14 19  1  0
 19 20  1  0
 14 21  1  0
 20 21  1  0
 21 22  1  0
 22 23  1  0
 23 24  1  0
 13 25  1  0
 23 25  1  0
 25 26  1  6
 25 27  1  0
 27 28  2  0
 27 29  1  0
 29 30  1  0
 30 31  1  0
 31 32  2  0
 31 33  1  0
 29 34  1  0
 34 35  2  0
 35 36  1  0
 36 37  1  0
 37 38  1  0
 38 39  2  0
 38 40  1  0
 40 41  1  0
 40 42  1  0
 42 43  1  0
 43 44  1  0
 44 45  2  0
 44 46  1  0
 46 47  2  0
 47 48  1  0
 48 49  2  0
 49 50  1  0
 46 51  1  0
 50 51  2  0
 42 52  1  0
 52 53  2  0
 53 54  1  0
 54 55  2  0
 55 56  1  0
 52 57  1  0
 56 57  2  0
  2 58  1  0
 36 58  1  0
 35 59  1  0
  2 60  1  0
 34 60  1  0
 60 61  1  0
 60 62  1  0
  1 63  1  0
  3 64  1  6
  8 65  1  0
  9 66  1  0
 10 67  1  0
 11 68  1  0
 12 69  1  0
 13 70  1  1
 18 71  1  0
 18 72  1  0
 18 73  1  0
 19 74  1  0
 19 75  1  0
 21 76  1  1
 22 77  1  0
 22 78  1  0
 23 79  1  1
 24 80  1  0
 26 81  1  0
 26 82  1  0
 26 83  1  0
 29 84  1  1
 33 85  1  0
 33 86  1  0
 33 87  1  0
 36 88  1  6
 40 89  1  1
 41 90  1  0
 42 91  1  6
 43 92  1  0
 47 93  1  0
 48 94  1  0
 49 95  1  0
 50 96  1  0
 51 97  1  0
 53 98  1  0
 54 99  1  0
 55100  1  0
 56101  1  0
 57102  1  0
 58103  1  0
 58104  1  0
 59105  1  0
 59106  1  0
 59107  1  0
 61108  1  0
 61109  1  0
 61110  1  0
 62111  1  0
 62112  1  0
 62113  1  0
M  END
$$$$
