PDB_DB00212_98
     RDKit          3D

 94 97  0  0  0  0  0  0  0  0999 V2000
   -2.2700  -15.2670    8.6380 O   0  0  0  0  0  0  0  0  0  0  0  0
   -1.4700  -14.3630    7.8900 S   0  0  0  0  0  0  0  0  0  0  0  0
   -0.9550  -14.9970    6.7070 O   0  0  0  0  0  0  0  0  0  0  0  0
   -2.4820  -13.0990    7.4800 C   0  0  0  0  0  0  0  0  0  0  0  0
   -1.8910  -12.3440    6.2880 C   0  0  0  0  0  0  0  0  0  0  0  0
   -2.6330  -12.1030    8.6330 C   0  0  0  0  0  0  0  0  0  0  0  0
   -3.8510  -13.6950    7.1480 C   0  0  0  0  0  0  0  0  0  0  0  0
   -0.2640  -13.7620    8.8570 C   0  0  0  0  0  0  0  0  0  0  0  0
    1.0260  -14.5420    8.8340 C   0  0  1  0  0  0  0  0  0  0  0  0
    2.1290  -13.6260    9.2930 C   0  0  0  0  0  0  0  0  0  0  0  0
    2.6350  -12.6280    8.2680 C   0  0  0  0  0  0  0  0  0  0  0  0
    3.6920  -12.9520    7.4270 C   0  0  0  0  0  0  0  0  0  0  0  0
    4.1810  -12.0190    6.5160 C   0  0  0  0  0  0  0  0  0  0  0  0
    3.6060  -10.7530    6.4100 C   0  0  0  0  0  0  0  0  0  0  0  0
    2.5420  -10.4410    7.2460 C   0  0  0  0  0  0  0  0  0  0  0  0
    2.0650  -11.3590    8.1800 C   0  0  0  0  0  0  0  0  0  0  0  0
    0.9320  -15.6120    9.8590 C   0  0  0  0  0  0  0  0  0  0  0  0
    0.2410  -15.4390   10.8540 O   0  0  0  0  0  0  0  0  0  0  0  0
    1.6240  -16.7230    9.5870 N   0  0  0  0  0  0  0  0  0  0  0  0
    1.6800  -17.8910   10.4240 C   0  0  1  0  0  0  0  0  0  0  0  0
    0.6620  -18.7560    9.7220 C   0  0  0  0  0  0  0  0  0  0  0  0
    0.1160  -19.8020   10.6600 C   0  0  0  0  0  0  0  0  0  0  0  0
   -1.0570  -19.7880   11.2990 C   0  0  0  0  0  0  0  0  0  0  0  0
   -1.2560  -20.8230   12.0330 N   0  0  0  0  0  0  0  0  0  0  0  0
   -0.1430  -21.5870   11.8770 C   0  0  0  0  0  0  0  0  0  0  0  0
    0.7100  -20.9610   11.0240 N   0  0  0  0  0  0  0  0  0  0  0  0
    3.0830  -18.4320   10.3000 C   0  0  0  0  0  0  0  0  0  0  0  0
    3.4900  -18.9390    9.2620 O   0  0  0  0  0  0  0  0  0  0  0  0
    3.8910  -18.2770   11.3670 N   0  0  0  0  0  0  0  0  0  0  0  0
    5.2850  -18.7100   11.3360 C   0  0  2  0  0  0  0  0  0  0  0  0
    5.4540  -19.9150   12.2560 C   0  0  1  0  0  0  0  0  0  0  0  0
    4.6980  -19.6530   13.4380 O   0  0  0  0  0  0  0  0  0  0  0  0
    4.7780  -21.1670   11.7120 C   0  0  2  0  0  0  0  0  0  0  0  0
    5.3120  -22.4560   12.3420 C   0  0  0  0  0  0  0  0  0  0  0  0
    4.2320  -23.0430   13.2400 C   0  0  0  0  0  0  0  0  0  0  0  0
    4.4960  -23.6700   11.8840 C   0  0  0  0  0  0  0  0  0  0  0  0
    4.8270  -21.2170   10.2840 O   0  0  0  0  0  0  0  0  0  0  0  0
    5.9500  -17.4540   11.8630 C   0  0  0  0  0  0  0  0  0  0  0  0
    6.6040  -16.5400   10.8510 C   0  0  0  0  0  0  0  0  0  0  0  0
    5.9930  -16.6640    9.4720 C   0  0  0  0  0  0  0  0  0  0  0  0
    6.3880  -15.5490    8.5090 C   0  0  0  0  0  0  0  0  0  0  0  0
    6.4090  -14.1150    9.1060 C   0  0  0  0  0  0  0  0  0  0  0  0
    6.9520  -14.0320   10.5310 C   0  0  0  0  0  0  0  0  0  0  0  0
    6.3290  -15.1210   11.3920 C   0  0  0  0  0  0  0  0  0  0  0  0
   -1.2512  -11.5267    6.6523 H   0  0  0  0  0  0  0  0  0  0  0  0
   -1.2912  -13.0348    5.6773 H   0  0  0  0  0  0  0  0  0  0  0  0
   -2.7056  -11.9276    5.6773 H   0  0  0  0  0  0  0  0  0  0  0  0
   -2.5521  -12.6366    9.5915 H   0  0  0  0  0  0  0  0  0  0  0  0
   -1.8397  -11.3438    8.5679 H   0  0  0  0  0  0  0  0  0  0  0  0
   -3.6157  -11.6130    8.5679 H   0  0  0  0  0  0  0  0  0  0  0  0
   -4.3856  -13.9277    8.0808 H   0  0  0  0  0  0  0  0  0  0  0  0
   -4.4345  -12.9695    6.5622 H   0  0  0  0  0  0  0  0  0  0  0  0
   -3.7175  -14.6164    6.5622 H   0  0  0  0  0  0  0  0  0  0  0  0
   -0.0462  -12.7344    8.5304 H   0  0  0  0  0  0  0  0  0  0  0  0
   -0.6403  -13.8247    9.8887 H   0  0  0  0  0  0  0  0  0  0  0  0
    1.2115  -14.9455    7.8276 H   0  0  0  0  0  0  0  0  0  0  0  0
    1.7571  -13.0593   10.1594 H   0  0  0  0  0  0  0  0  0  0  0  0
    2.9842  -14.2807    9.5166 H   0  0  0  0  0  0  0  0  0  0  0  0
    4.1460  -13.9525    7.4809 H   0  0  0  0  0  0  0  0  0  0  0  0
    5.0321  -12.2842    5.8715 H   0  0  0  0  0  0  0  0  0  0  0  0
    3.9856  -10.0202    5.6827 H   0  0  0  0  0  0  0  0  0  0  0  0
    2.0672   -9.4517    7.1697 H   0  0  0  0  0  0  0  0  0  0  0  0
    1.2371  -11.0815    8.8490 H   0  0  0  0  0  0  0  0  0  0  0  0
    2.1599  -16.7441    8.7076 H   0  0  0  0  0  0  0  0  0  0  0  0
    1.4741  -17.7773   11.4986 H   0  0  0  0  0  0  0  0  0  0  0  0
   -0.1645  -18.1240    9.3651 H   0  0  0  0  0  0  0  0  0  0  0  0
    1.1496  -19.2601    8.8746 H   0  0  0  0  0  0  0  0  0  0  0  0
   -1.7838  -18.9676   11.2054 H   0  0  0  0  0  0  0  0  0  0  0  0
    0.0385  -22.5568   12.3633 H   0  0  0  0  0  0  0  0  0  0  0  0
    1.6309  -21.3032   10.7146 H   0  0  0  0  0  0  0  0  0  0  0  0
    3.5171  -17.8436   12.2233 H   0  0  0  0  0  0  0  0  0  0  0  0
    5.6884  -19.0437   10.3686 H   0  0  0  0  0  0  0  0  0  0  0  0
    6.5356  -20.0662   12.3878 H   0  0  0  0  0  0  0  0  0  0  0  0
    5.2535  -19.8455   14.2345 H   0  0  0  0  0  0  0  0  0  0  0  0
    3.7205  -21.0966   12.0064 H   0  0  0  0  0  0  0  0  0  0  0  0
    6.3854  -22.2295   12.4233 H   0  0  0  0  0  0  0  0  0  0  0  0
    4.5139  -23.5809   14.1572 H   0  0  0  0  0  0  0  0  0  0  0  0
    3.3429  -22.6400   13.7470 H   0  0  0  0  0  0  0  0  0  0  0  0
    3.7579  -23.5636   11.0754 H   0  0  0  0  0  0  0  0  0  0  0  0
    4.7391  -24.6821   11.5283 H   0  0  0  0  0  0  0  0  0  0  0  0
    5.4908  -21.8944   10.0001 H   0  0  0  0  0  0  0  0  0  0  0  0
    5.1814  -16.8687   12.3890 H   0  0  0  0  0  0  0  0  0  0  0  0
    6.7758  -17.8145   12.4939 H   0  0  0  0  0  0  0  0  0  0  0  0
    7.6703  -16.7851   10.7370 H   0  0  0  0  0  0  0  0  0  0  0  0
    6.3124  -17.6232    9.0384 H   0  0  0  0  0  0  0  0  0  0  0  0
    4.9029  -16.5965    9.6027 H   0  0  0  0  0  0  0  0  0  0  0  0
    7.3966  -15.7717    8.1305 H   0  0  0  0  0  0  0  0  0  0  0  0
    5.6103  -15.5371    7.7311 H   0  0  0  0  0  0  0  0  0  0  0  0
    7.0375  -13.4832    8.4612 H   0  0  0  0  0  0  0  0  0  0  0  0
    5.3628  -13.7778    9.1489 H   0  0  0  0  0  0  0  0  0  0  0  0
    8.0440  -14.1630   10.5125 H   0  0  0  0  0  0  0  0  0  0  0  0
    6.7002  -13.0490   10.9556 H   0  0  0  0  0  0  0  0  0  0  0  0
    5.2410  -14.9626   11.4267 H   0  0  0  0  0  0  0  0  0  0  0  0
    6.7826  -15.0535   12.3918 H   0  0  0  0  0  0  0  0  0  0  0  0
  1  2  2  0
  2  3  2  0
  2  4  1  0
  4  5  1  0
  4  6  1  0
  4  7  1  0
  2  8  1  0
  8  9  1  0
  9 10  1  0
 10 11  1  0
 11 12  2  0
 12 13  1  0
 13 14  2  0
 14 15  1  0
 11 16  1  0
 15 16  2  0
  9 17  1  0
 17 18  2  0
 17 19  1  0
 19 20  1  0
 20 21  1  0
 21 22  1  0
 22 23  2  0
 23 24  1  0
 24 25  2  0
 22 26  1  0
 25 26  1  0
 20 27  1  0
 27 28  2  0
 27 29  1  0
 29 30  1  0
 30 31  1  0
 31 32  1  0
 31 33  1  0
 33 34  1  0
 34 35  1  0
 34 36  1  0
 35 36  1  0
 33 37  1  0
 30 38  1  0
 38 39  1  0
 39 40  1  0
 40 41  1  0
 41 42  1  0
 42 43  1  0
 39 44  1  0
 43 44  1  0
  5 45  1  0
  5 46  1  0
  5 47  1  0
  6 48  1  0
  6 49  1  0
  6 50  1  0
  7 51  1  0
  7 52  1  0
  7 53  1  0
  8 54  1  0
  8 55  1  0
  9 56  1  6
 10 57  1  0
 10 58  1  0
 12 59  1  0
 13 60  1  0
 14 61  1  0
 15 62  1  0
 16 63  1  0
 19 64  1  0
 20 65  1  1
 21 66  1  0
 21 67  1  0
 23 68  1  0
 25 69  1  0
 26 70  1  0
 29 71  1  0
 30 72  1  6
 31 73  1  1
 32 74  1  0
 33 75  1  6
 34 76  1  0
 35 77  1  0
 35 78  1  0
 36 79  1  0
 36 80  1  0
 37 81  1  0
 38 82  1  0
 38 83  1  0
 39 84  1  0
 40 85  1  0
 40 86  1  0
 41 87  1  0
 41 88  1  0
 42 89  1  0
 42 90  1  0
 43 91  1  0
 43 92  1  0
 44 93  1  0
 44 94  1  0
M  END
$$$$
