PDB_DB02546_88
     RDKit          3D

 39 39  0  0  0  0  0  0  0  0999 V2000
   -6.7290   25.6380   -2.2770 O   0  0  0  0  0  0  0  0  0  0  0  0
   -7.6070   25.4820   -4.7840 O   0  0  0  0  0  0  0  0  0  0  0  0
   -5.9700   25.6740   -3.4280 N   0  0  0  0  0  0  0  0  0  0  0  0
   -6.4540   25.2110   -4.5370 C   0  0  0  0  0  0  0  0  0  0  0  0
   -5.5350   24.4480   -5.4750 C   0  0  0  0  0  0  0  0  0  0  0  0
   -5.1890   23.0190   -5.0500 C   0  0  0  0  0  0  0  0  0  0  0  0
   -4.4990   22.2140   -6.1620 C   0  0  0  0  0  0  0  0  0  0  0  0
   -3.0040   22.5330   -6.2490 C   0  0  0  0  0  0  0  0  0  0  0  0
   -2.1830   21.4970   -7.0150 C   0  0  0  0  0  0  0  0  0  0  0  0
   -0.8570   22.1210   -7.4810 C   0  0  0  0  0  0  0  0  0  0  0  0
    0.4000   21.4830   -6.9200 C   0  0  0  0  0  0  0  0  0  0  0  0
    1.0360   22.0460   -6.0380 O   0  0  0  0  0  0  0  0  0  0  0  0
    0.7600   20.3320   -7.4760 N   0  0  0  0  0  0  0  0  0  0  0  0
    1.8640   19.5890   -7.1950 C   0  0  0  0  0  0  0  0  0  0  0  0
    1.7260   18.2040   -7.1090 C   0  0  0  0  0  0  0  0  0  0  0  0
    2.8420   17.4050   -6.8470 C   0  0  0  0  0  0  0  0  0  0  0  0
    4.0950   17.9930   -6.6610 C   0  0  0  0  0  0  0  0  0  0  0  0
    4.2410   19.3770   -6.7530 C   0  0  0  0  0  0  0  0  0  0  0  0
    3.1270   20.1660   -7.0260 C   0  0  0  0  0  0  0  0  0  0  0  0
   -6.1325   25.6663   -1.4874 H   0  0  0  0  0  0  0  0  0  0  0  0
   -5.0189   26.0688   -3.4059 H   0  0  0  0  0  0  0  0  0  0  0  0
   -6.0228   24.3988   -6.4597 H   0  0  0  0  0  0  0  0  0  0  0  0
   -4.5830   24.9990   -5.4751 H   0  0  0  0  0  0  0  0  0  0  0  0
   -4.5163   23.0646   -4.1809 H   0  0  0  0  0  0  0  0  0  0  0  0
   -6.1335   22.5083   -4.8108 H   0  0  0  0  0  0  0  0  0  0  0  0
   -4.6229   21.1409   -5.9543 H   0  0  0  0  0  0  0  0  0  0  0  0
   -4.9638   22.4866   -7.1210 H   0  0  0  0  0  0  0  0  0  0  0  0
   -2.8878   23.5045   -6.7516 H   0  0  0  0  0  0  0  0  0  0  0  0
   -2.6224   22.5367   -5.2173 H   0  0  0  0  0  0  0  0  0  0  0  0
   -1.9720   20.6404   -6.3579 H   0  0  0  0  0  0  0  0  0  0  0  0
   -2.7533   21.1602   -7.8932 H   0  0  0  0  0  0  0  0  0  0  0  0
   -0.8144   22.0458   -8.5776 H   0  0  0  0  0  0  0  0  0  0  0  0
   -0.8628   23.1552   -7.1063 H   0  0  0  0  0  0  0  0  0  0  0  0
    0.1319   19.9597   -8.2025 H   0  0  0  0  0  0  0  0  0  0  0  0
    0.7382   17.7403   -7.2475 H   0  0  0  0  0  0  0  0  0  0  0  0
    2.7335   16.3120   -6.7872 H   0  0  0  0  0  0  0  0  0  0  0  0
    4.9694   17.3627   -6.4413 H   0  0  0  0  0  0  0  0  0  0  0  0
    5.2281   19.8412   -6.6110 H   0  0  0  0  0  0  0  0  0  0  0  0
    3.2414   21.2568   -7.1099 H   0  0  0  0  0  0  0  0  0  0  0  0
  3  1  1  0
  4  2  2  0
  4  3  1  0
  4  5  1  0
  5  6  1  0
  6  7  1  0
  7  8  1  0
  8  9  1  0
  9 10  1  0
 10 11  1  0
 11 12  2  0
 11 13  1  0
 13 14  1  0
 14 15  2  0
 15 16  1  0
 16 17  2  0
 17 18  1  0
 14 19  1  0
 18 19  2  0
  1 20  1  0
  3 21  1  0
  5 22  1  0
  5 23  1  0
  6 24  1  0
  6 25  1  0
  7 26  1  0
  7 27  1  0
  8 28  1  0
  8 29  1  0
  9 30  1  0
  9 31  1  0
 10 32  1  0
 10 33  1  0
 13 34  1  0
 15 35  1  0
 16 36  1  0
 17 37  1  0
 18 38  1  0
 19 39  1  0
M  END
$$$$
