PDB_DB00127_96
     RDKit          3D

 40 39  0  0  0  0  0  0  0  0999 V2000
   49.3160  -19.7250   17.4710 N   0  0  0  0  0  0  0  0  0  0  0  0
   48.4050  -20.6050   18.1930 C   0  0  0  0  0  0  0  0  0  0  0  0
   49.1370  -21.5060   19.1950 C   0  0  0  0  0  0  0  0  0  0  0  0
   48.1070  -22.3610   19.9270 C   0  0  0  0  0  0  0  0  0  0  0  0
   48.6110  -23.0250   21.1120 N   0  0  0  0  0  0  0  0  0  0  0  0
   47.6800  -23.7830   21.9280 C   0  0  0  0  0  0  0  0  0  0  0  0
   48.3320  -24.3900   23.1640 C   0  0  0  0  0  0  0  0  0  0  0  0
   47.3070  -25.1530   23.9830 C   0  0  0  0  0  0  0  0  0  0  0  0
   46.5250  -24.2220   24.9180 C   0  0  0  0  0  0  0  0  0  0  0  0
   45.3330  -24.8700   25.4420 N   0  0  0  0  0  0  0  0  0  0  0  0
   44.4930  -24.1640   26.3860 C   0  0  0  0  0  0  0  0  0  0  0  0
   43.7910  -22.9120   25.8330 C   0  0  0  0  0  0  0  0  0  0  0  0
   42.5460  -23.2030   24.9900 C   0  0  0  0  0  0  0  0  0  0  0  0
   41.4330  -23.4820   25.8670 N   0  0  0  0  0  0  0  0  0  0  0  0
   49.8764  -19.1837   18.1446 H   0  0  0  0  0  0  0  0  0  0  0  0
   49.9419  -20.2897   16.8791 H   0  0  0  0  0  0  0  0  0  0  0  0
   47.6760  -19.9882   18.7390 H   0  0  0  0  0  0  0  0  0  0  0  0
   47.9101  -21.2545   17.4559 H   0  0  0  0  0  0  0  0  0  0  0  0
   49.8447  -22.1562   18.6599 H   0  0  0  0  0  0  0  0  0  0  0  0
   49.6934  -20.8896   19.9165 H   0  0  0  0  0  0  0  0  0  0  0  0
   47.2714  -21.7113   20.2263 H   0  0  0  0  0  0  0  0  0  0  0  0
   47.8053  -23.1548   19.2278 H   0  0  0  0  0  0  0  0  0  0  0  0
   49.3477  -23.6765   20.8058 H   0  0  0  0  0  0  0  0  0  0  0  0
   46.8707  -23.1121   22.2519 H   0  0  0  0  0  0  0  0  0  0  0  0
   47.3026  -24.6132   21.3129 H   0  0  0  0  0  0  0  0  0  0  0  0
   49.1309  -25.0784   22.8511 H   0  0  0  0  0  0  0  0  0  0  0  0
   48.7500  -23.5805   23.7805 H   0  0  0  0  0  0  0  0  0  0  0  0
   46.6011  -25.6480   23.2999 H   0  0  0  0  0  0  0  0  0  0  0  0
   47.8401  -25.8915   24.5998 H   0  0  0  0  0  0  0  0  0  0  0  0
   47.1732  -23.9329   25.7584 H   0  0  0  0  0  0  0  0  0  0  0  0
   46.2122  -23.3385   24.3422 H   0  0  0  0  0  0  0  0  0  0  0  0
   44.7409  -25.1067   24.6331 H   0  0  0  0  0  0  0  0  0  0  0  0
   43.7179  -24.8605   26.7383 H   0  0  0  0  0  0  0  0  0  0  0  0
   45.1628  -23.8099   27.1835 H   0  0  0  0  0  0  0  0  0  0  0  0
   43.4907  -22.2824   26.6836 H   0  0  0  0  0  0  0  0  0  0  0  0
   44.5124  -22.4175   25.1658 H   0  0  0  0  0  0  0  0  0  0  0  0
   42.3119  -22.3283   24.3654 H   0  0  0  0  0  0  0  0  0  0  0  0
   42.7331  -24.0723   24.3425 H   0  0  0  0  0  0  0  0  0  0  0  0
   41.7404  -23.4049   26.8470 H   0  0  0  0  0  0  0  0  0  0  0  0
   40.6779  -22.8043   25.6897 H   0  0  0  0  0  0  0  0  0  0  0  0
  1  2  1  0
  2  3  1  0
  3  4  1  0
  4  5  1  0
  5  6  1  0
  6  7  1  0
  7  8  1  0
  8  9  1  0
  9 10  1  0
 10 11  1  0
 11 12  1  0
 12 13  1  0
 13 14  1  0
  1 15  1  0
  1 16  1  0
  2 17  1  0
  2 18  1  0
  3 19  1  0
  3 20  1  0
  4 21  1  0
  4 22  1  0
  5 23  1  0
  6 24  1  0
  6 25  1  0
  7 26  1  0
  7 27  1  0
  8 28  1  0
  8 29  1  0
  9 30  1  0
  9 31  1  0
 10 32  1  0
 11 33  1  0
 11 34  1  0
 12 35  1  0
 12 36  1  0
 13 37  1  0
 13 38  1  0
 14 39  1  0
 14 40  1  0
M  END
$$$$
