PDB_DB00775_99
     RDKit          3D

 76 77  0  0  0  0  0  0  0  0999 V2000
   92.7800   39.4850   78.0750 C   0  0  0  0  0  0  0  0  0  0  0  0
   94.1740   39.1050   77.5540 C   0  0  0  0  0  0  0  0  0  0  0  0
   95.2540   39.9700   78.2160 C   0  0  0  0  0  0  0  0  0  0  0  0
   95.8070   39.3130   79.4960 C   0  0  0  0  0  0  0  0  0  0  0  0
   95.5720   40.2890   81.0320 S   0  0  1  0  0  4  0  0  0  0  0  0
   95.6570   41.7460   80.7210 O   0  0  0  0  0  0  0  0  0  0  0  0
   94.2200   40.0060   81.6100 O   0  0  0  0  0  0  0  0  0  0  0  0
   96.7470   39.9290   82.1100 N   0  0  0  0  0  0  0  0  0  0  0  0
   96.3700   38.8420   83.0580 C   0  0  1  0  0  0  0  0  0  0  0  0
   96.9280   37.4930   82.6090 C   0  0  0  0  0  0  0  0  0  0  0  0
   95.9760   36.7470   81.6830 C   0  0  0  0  0  0  0  0  0  0  0  0
   96.4670   36.1440   80.5310 C   0  0  0  0  0  0  0  0  0  0  0  0
   95.6120   35.4570   79.6770 C   0  0  0  0  0  0  0  0  0  0  0  0
   94.2530   35.3740   79.9700 C   0  0  0  0  0  0  0  0  0  0  0  0
   93.3930   34.7060   79.1510 O   0  0  0  0  0  0  0  0  0  0  0  0
   93.7630   35.9750   81.1250 C   0  0  0  0  0  0  0  0  0  0  0  0
   94.6210   36.6630   81.9810 C   0  0  0  0  0  0  0  0  0  0  0  0
   96.9010   39.1150   84.4820 C   0  0  0  0  0  0  0  0  0  0  0  0
   97.9440   39.7960   84.6070 O   0  0  0  0  0  0  0  0  0  0  0  0
   96.2510   38.6230   85.4280 O   0  0  0  0  0  0  0  0  0  0  0  0
   93.8950   34.5440   77.8160 C   0  0  0  0  0  0  0  0  0  0  0  0
   92.8910   33.6650   77.0750 C   0  0  0  0  0  0  0  0  0  0  0  0
   93.3470   33.3880   75.6430 C   0  0  0  0  0  0  0  0  0  0  0  0
   93.2560   31.8910   75.3200 C   0  0  0  0  0  0  0  0  0  0  0  0
   93.6560   31.6160   73.8720 C   0  0  1  0  0  0  0  0  0  0  0  0
   94.1110   30.1570   73.7360 C   0  0  0  0  0  0  0  0  0  0  0  0
   94.1570   29.7050   72.2790 C   0  0  0  0  0  0  0  0  0  0  0  0
   92.8260   29.9230   71.7040 N   0  0  0  0  0  0  0  0  0  0  0  0
   92.6320   31.3690   71.5700 C   0  0  0  0  0  0  0  0  0  0  0  0
   92.4660   31.9570   72.9660 C   0  0  0  0  0  0  0  0  0  0  0  0
   92.7866   39.4832   79.1750 H   0  0  0  0  0  0  0  0  0  0  0  0
   92.5137   40.4885   77.7116 H   0  0  0  0  0  0  0  0  0  0  0  0
   92.0413   38.7555   77.7116 H   0  0  0  0  0  0  0  0  0  0  0  0
   94.3688   38.0467   77.7822 H   0  0  0  0  0  0  0  0  0  0  0  0
   94.2034   39.2725   76.4672 H   0  0  0  0  0  0  0  0  0  0  0  0
   96.0802   40.1148   77.5044 H   0  0  0  0  0  0  0  0  0  0  0  0
   94.7992   40.9322   78.4941 H   0  0  0  0  0  0  0  0  0  0  0  0
   95.3034   38.3438   79.6271 H   0  0  0  0  0  0  0  0  0  0  0  0
   96.8938   39.2243   79.3513 H   0  0  0  0  0  0  0  0  0  0  0  0
   95.6871   42.2624   81.5651 H   0  0  0  0  0  0  0  0  0  0  0  0
   94.2747   40.0174   82.5984 H   0  0  0  0  0  0  0  0  0  0  0  0
   97.5861   39.6329   81.5912 H   0  0  0  0  0  0  0  0  0  0  0  0
   95.2703   38.8160   83.0668 H   0  0  0  0  0  0  0  0  0  0  0  0
   97.8762   37.6626   82.0778 H   0  0  0  0  0  0  0  0  0  0  0  0
   97.0727   36.8753   83.5076 H   0  0  0  0  0  0  0  0  0  0  0  0
   95.7959   37.6750   81.1205 H   0  0  0  0  0  0  0  0  0  0  0  0
   96.9369   36.9396   79.9341 H   0  0  0  0  0  0  0  0  0  0  0  0
   97.1165   35.3484   80.9248 H   0  0  0  0  0  0  0  0  0  0  0  0
   95.6953   35.9370   78.6908 H   0  0  0  0  0  0  0  0  0  0  0  0
   95.9530   34.4147   79.7630 H   0  0  0  0  0  0  0  0  0  0  0  0
   94.0742   36.2994   79.4029 H   0  0  0  0  0  0  0  0  0  0  0  0
   92.9938   36.6933   80.8049 H   0  0  0  0  0  0  0  0  0  0  0  0
   93.4406   35.1172   81.7335 H   0  0  0  0  0  0  0  0  0  0  0  0
   94.5413   36.1806   82.9664 H   0  0  0  0  0  0  0  0  0  0  0  0
   94.2781   37.7051   81.9007 H   0  0  0  0  0  0  0  0  0  0  0  0
   97.5059   38.1976   84.4323 H   0  0  0  0  0  0  0  0  0  0  0  0
   98.1409   39.9246   85.5687 H   0  0  0  0  0  0  0  0  0  0  0  0
   96.6430   38.9197   86.2873 H   0  0  0  0  0  0  0  0  0  0  0  0
   93.9799   35.5228   77.3213 H   0  0  0  0  0  0  0  0  0  0  0  0
   94.8948   34.0853   77.8216 H   0  0  0  0  0  0  0  0  0  0  0  0
   92.7883   32.7092   77.6097 H   0  0  0  0  0  0  0  0  0  0  0  0
   91.9276   34.1946   77.0365 H   0  0  0  0  0  0  0  0  0  0  0  0
   92.7049   33.9466   74.9461 H   0  0  0  0  0  0  0  0  0  0  0  0
   94.3946   33.7071   75.5396 H   0  0  0  0  0  0  0  0  0  0  0  0
   93.9298   31.3372   75.9903 H   0  0  0  0  0  0  0  0  0  0  0  0
   92.2151   31.5652   75.4630 H   0  0  0  0  0  0  0  0  0  0  0  0
   94.5048   32.2442   73.5640 H   0  0  0  0  0  0  0  0  0  0  0  0
   95.1165   30.0567   74.1707 H   0  0  0  0  0  0  0  0  0  0  0  0
   93.3834   29.5239   74.2650 H   0  0  0  0  0  0  0  0  0  0  0  0
   94.9048   30.2936   71.7273 H   0  0  0  0  0  0  0  0  0  0  0  0
   94.4367   28.6432   72.2130 H   0  0  0  0  0  0  0  0  0  0  0  0
   92.7651   29.4734   70.7793 H   0  0  0  0  0  0  0  0  0  0  0  0
   93.5072   31.8184   71.0780 H   0  0  0  0  0  0  0  0  0  0  0  0
   91.7407   31.5785   70.9603 H   0  0  0  0  0  0  0  0  0  0  0  0
   91.5478   31.5518   73.4163 H   0  0  0  0  0  0  0  0  0  0  0  0
   92.4100   33.0515   72.8720 H   0  0  0  0  0  0  0  0  0  0  0  0
  1  2  1  0
  2  3  1  0
  3  4  1  0
  4  5  1  0
  5  6  1  6
  5  7  1  0
  5  8  1  0
  8  9  1  0
  9 10  1  0
 10 11  1  0
 11 12  1  0
 12 13  1  0
 13 14  1  0
 14 15  1  0
 14 16  1  0
 11 17  1  0
 16 17  1  0
  9 18  1  0
 18 19  1  0
 18 20  1  0
 15 21  1  0
 21 22  1  0
 22 23  1  0
 23 24  1  0
 24 25  1  0
 25 26  1  0
 26 27  1  0
 27 28  1  0
 28 29  1  0
 25 30  1  0
 29 30  1  0
  1 31  1  0
  1 32  1  0
  1 33  1  0
  2 34  1  0
  2 35  1  0
  3 36  1  0
  3 37  1  0
  4 38  1  0
  4 39  1  0
  6 40  1  0
  7 41  1  0
  8 42  1  0
  9 43  1  1
 10 44  1  0
 10 45  1  0
 11 46  1  0
 12 47  1  0
 12 48  1  0
 13 49  1  0
 13 50  1  0
 14 51  1  0
 16 52  1  0
 16 53  1  0
 17 54  1  0
 17 55  1  0
 18 56  1  0
 19 57  1  0
 20 58  1  0
 21 59  1  0
 21 60  1  0
 22 61  1  0
 22 62  1  0
 23 63  1  0
 23 64  1  0
 24 65  1  0
 24 66  1  0
 25 67  1  6
 26 68  1  0
 26 69  1  0
 27 70  1  0
 27 71  1  0
 28 72  1  0
 29 73  1  0
 29 74  1  0
 30 75  1  0
 30 76  1  0
M  END
>  <PDBID>  (1) 
2VDM

>  <PDB ID>  (1) 
2VDM

>  <Generic Name>  (1) 
Tirofiban

>  <Brand Name>  (1) 
Aggrastat#Aggribloc#Agrastat

>  <DrugBank ID>  (1) 
DB00775

>  <ATC Codes>  (1) 
B01AC17

>  <Ligand ID>  (1) 
AGG

>  <Target Name>  (1) 
Integrin alpha-IIb

>  <UniProt ID>  (1) 
P08514

>  <PDB ID.1>  (1) 
2VDM

>  <Seq. Identity>  (1) 
100%

$$$$
