PDB_DB04876_98
     RDKit          3D

104110  0  0  0  0  0  0  0  0999 V2000
   57.1700   63.0460   35.5880 O   0  0  0  0  0  0  0  0  0  0  0  0
   56.7870   64.0630   36.1730 C   0  0  1  0  0  0  0  0  0  0  0  0
   57.1580   64.2780   37.4880 N   0  0  0  0  0  0  0  0  0  0  0  0
   57.1170   65.6730   37.9470 C   0  0  0  0  0  0  0  0  0  0  0  0
   58.0270   65.7030   39.1640 C   0  0  0  0  0  0  0  0  0  0  0  0
   59.0990   64.6710   38.8510 C   0  0  0  0  0  0  0  0  0  0  0  0
   58.4260   63.6620   37.9440 C   0  0  1  0  0  0  0  0  0  0  0  0
   58.0630   62.4880   38.8100 C   0  0  0  0  0  3  0  0  0  0  0  0
   56.8540   62.3750   39.1960 N   0  0  0  0  0  0  0  0  0  0  0  0
   55.8330   65.0430   35.4920 C   0  0  0  0  0  0  0  0  0  0  0  0
   55.1020   64.4610   34.3580 N   0  0  0  0  0  0  0  0  0  0  0  0
   53.8000   63.7760   34.4750 C   0  0  1  0  0  0  0  0  0  0  0  0
   53.8400   62.7430   35.6230 C   0  0  0  0  0  0  0  0  0  0  0  0
   52.4890   62.0350   35.7860 C   0  0  1  0  0  0  0  0  0  0  0  0
   51.3650   63.0660   36.0110 C   0  0  0  0  0  0  0  0  0  0  0  0
   51.2980   64.0550   34.8400 C   0  0  1  0  0  0  0  0  0  0  0  0
   52.6610   64.7690   34.7610 C   0  0  0  0  0  0  0  0  0  0  0  0
   51.0340   63.2850   33.5280 C   0  0  0  0  0  0  0  0  0  0  0  0
   52.2290   61.2820   34.4790 C   0  0  0  0  0  0  0  0  0  0  0  0
   52.1690   62.2640   33.3080 C   0  0  1  0  0  0  0  0  0  0  0  0
   51.9400   61.4640   32.1510 O   0  0  0  0  0  0  0  0  0  0  0  0
   53.4910   63.0300   33.1620 C   0  0  0  0  0  0  0  0  0  0  0  0
   95.7070   52.1260   36.3450 O   0  0  0  0  0  0  0  0  0  0  0  0
   96.0600   51.0900   35.8100 C   0  0  1  0  0  0  0  0  0  0  0  0
   95.4000   49.9070   36.1160 N   0  0  0  0  0  0  0  0  0  0  0  0
   95.5790   48.7580   35.2010 C   0  0  0  0  0  0  0  0  0  0  0  0
   94.3180   47.9120   35.3380 C   0  0  0  0  0  0  0  0  0  0  0  0
   93.2360   48.9010   35.7550 C   0  0  0  0  0  0  0  0  0  0  0  0
   93.9710   50.0030   36.5040 C   0  0  1  0  0  0  0  0  0  0  0  0
   93.8890   49.6560   37.9650 C   0  0  0  0  0  3  0  0  0  0  0  0
   94.8780   49.0980   38.5170 N   0  0  0  0  0  0  0  0  0  0  0  0
   97.2770   51.0940   34.9070 C   0  0  0  0  0  0  0  0  0  0  0  0
   98.2000   52.1900   35.1670 N   0  0  0  0  0  0  0  0  0  0  0  0
   99.2680   52.0770   36.1560 C   0  0  1  0  0  0  0  0  0  0  0  0
   98.7190   51.5700   37.5120 C   0  0  0  0  0  0  0  0  0  0  0  0
   99.8400   51.4390   38.5400 C   0  0  1  0  0  0  0  0  0  0  0  0
  100.8840   50.4640   37.9820 C   0  0  0  0  0  0  0  0  0  0  0  0
  101.4750   51.0040   36.6700 C   0  0  1  0  0  0  0  0  0  0  0  0
  100.3460   51.1260   35.6320 C   0  0  0  0  0  0  0  0  0  0  0  0
  102.1160   52.4030   36.8770 C   0  0  0  0  0  0  0  0  0  0  0  0
  100.5050   52.8070   38.7440 C   0  0  0  0  0  0  0  0  0  0  0  0
  101.0490   53.3480   37.4030 C   0  0  1  0  0  0  0  0  0  0  0  0
  101.6080   54.6540   37.6100 O   0  0  0  0  0  0  0  0  0  0  0  0
   99.9010   53.4490   36.3790 C   0  0  0  0  0  0  0  0  0  0  0  0
   57.4283   62.3600   36.2534 H   0  0  0  0  0  0  0  0  0  0  0  0
   55.8882   63.5284   36.5140 H   0  0  0  0  0  0  0  0  0  0  0  0
   57.4915   66.3502   37.1653 H   0  0  0  0  0  0  0  0  0  0  0  0
   56.0950   66.0050   38.1820 H   0  0  0  0  0  0  0  0  0  0  0  0
   58.4716   66.7006   39.2946 H   0  0  0  0  0  0  0  0  0  0  0  0
   57.4897   65.4836   40.0984 H   0  0  0  0  0  0  0  0  0  0  0  0
   59.9505   65.1426   38.3387 H   0  0  0  0  0  0  0  0  0  0  0  0
   59.4975   64.2025   39.7630 H   0  0  0  0  0  0  0  0  0  0  0  0
   59.0636   63.3680   37.0972 H   0  0  0  0  0  0  0  0  0  0  0  0
   58.3115   61.5772   38.2454 H   0  0  0  0  0  0  0  0  0  0  0  0
   56.8211   62.3719   40.2255 H   0  0  0  0  0  0  0  0  0  0  0  0
   56.3035   63.1682   38.8373 H   0  0  0  0  0  0  0  0  0  0  0  0
   55.1011   65.3898   36.2363 H   0  0  0  0  0  0  0  0  0  0  0  0
   56.4457   65.8648   35.0930 H   0  0  0  0  0  0  0  0  0  0  0  0
   54.9503   65.2363   33.6971 H   0  0  0  0  0  0  0  0  0  0  0  0
   54.6131   61.9923   35.4022 H   0  0  0  0  0  0  0  0  0  0  0  0
   54.0677   63.2742   36.5590 H   0  0  0  0  0  0  0  0  0  0  0  0
   52.5083   61.3564   36.6515 H   0  0  0  0  0  0  0  0  0  0  0  0
   50.4029   62.5395   36.0952 H   0  0  0  0  0  0  0  0  0  0  0  0
   51.5751   63.6241   36.9353 H   0  0  0  0  0  0  0  0  0  0  0  0
   50.4869   64.7832   34.9876 H   0  0  0  0  0  0  0  0  0  0  0  0
   52.8573   65.2722   35.7193 H   0  0  0  0  0  0  0  0  0  0  0  0
   52.6225   65.4975   33.9377 H   0  0  0  0  0  0  0  0  0  0  0  0
   50.0714   62.7572   33.5974 H   0  0  0  0  0  0  0  0  0  0  0  0
   50.9992   63.9897   32.6840 H   0  0  0  0  0  0  0  0  0  0  0  0
   53.0414   60.5606   34.3072 H   0  0  0  0  0  0  0  0  0  0  0  0
   51.2675   60.7530   34.5541 H   0  0  0  0  0  0  0  0  0  0  0  0
   51.6784   60.5503   32.4281 H   0  0  0  0  0  0  0  0  0  0  0  0
   53.4056   63.7554   32.3395 H   0  0  0  0  0  0  0  0  0  0  0  0
   54.3033   62.3213   32.9429 H   0  0  0  0  0  0  0  0  0  0  0  0
   95.7436   52.0186   37.3285 H   0  0  0  0  0  0  0  0  0  0  0  0
   96.7685   50.9072   36.6314 H   0  0  0  0  0  0  0  0  0  0  0  0
   95.6934   49.1087   34.1647 H   0  0  0  0  0  0  0  0  0  0  0  0
   96.4811   48.1803   35.4509 H   0  0  0  0  0  0  0  0  0  0  0  0
   94.0622   47.4379   34.3790 H   0  0  0  0  0  0  0  0  0  0  0  0
   94.4400   47.0955   36.0650 H   0  0  0  0  0  0  0  0  0  0  0  0
   92.7254   49.3098   34.8706 H   0  0  0  0  0  0  0  0  0  0  0  0
   92.4623   48.4265   36.3765 H   0  0  0  0  0  0  0  0  0  0  0  0
   93.5554   50.9990   36.2912 H   0  0  0  0  0  0  0  0  0  0  0  0
   93.7024   50.5935   38.5093 H   0  0  0  0  0  0  0  0  0  0  0  0
   94.7772   49.1549   39.5405 H   0  0  0  0  0  0  0  0  0  0  0  0
   94.9186   48.1095   38.2304 H   0  0  0  0  0  0  0  0  0  0  0  0
   97.8164   50.1458   35.0483 H   0  0  0  0  0  0  0  0  0  0  0  0
   96.9109   51.2217   33.8776 H   0  0  0  0  0  0  0  0  0  0  0  0
   98.6582   52.4016   34.2691 H   0  0  0  0  0  0  0  0  0  0  0  0
   97.9692   52.2827   37.8859 H   0  0  0  0  0  0  0  0  0  0  0  0
   98.2656   50.5796   37.3589 H   0  0  0  0  0  0  0  0  0  0  0  0
   99.4378   51.0774   39.4978 H   0  0  0  0  0  0  0  0  0  0  0  0
  101.6915   50.3375   38.7181 H   0  0  0  0  0  0  0  0  0  0  0  0
  100.3985   49.4972   37.7831 H   0  0  0  0  0  0  0  0  0  0  0  0
  102.2547   50.3090   36.3249 H   0  0  0  0  0  0  0  0  0  0  0  0
   99.9042   50.1346   35.4533 H   0  0  0  0  0  0  0  0  0  0  0  0
  100.7560   51.5213   34.6909 H   0  0  0  0  0  0  0  0  0  0  0  0
  102.9386   52.3306   37.6036 H   0  0  0  0  0  0  0  0  0  0  0  0
  102.5167   52.7792   35.9241 H   0  0  0  0  0  0  0  0  0  0  0  0
   99.7640   53.5137   39.1458 H   0  0  0  0  0  0  0  0  0  0  0  0
  101.3420   52.6948   39.4488 H   0  0  0  0  0  0  0  0  0  0  0  0
  101.6835   54.8305   38.5812 H   0  0  0  0  0  0  0  0  0  0  0  0
  100.2980   53.8250   35.4245 H   0  0  0  0  0  0  0  0  0  0  0  0
   99.1356   54.1378   36.7660 H   0  0  0  0  0  0  0  0  0  0  0  0
  1  2  1  0
  2  3  1  0
  3  4  1  0
  4  5  1  0
  5  6  1  0
  3  7  1  0
  6  7  1  0
  7  8  1  0
  8  9  1  0
  2 10  1  0
 10 11  1  0
 12 11  1  6
 12 13  1  0
 13 14  1  0
 14 15  1  0
 15 16  1  0
 12 17  1  0
 16 17  1  0
 16 18  1  0
 14 19  1  0
 18 20  1  0
 19 20  1  0
 20 21  1  6
 12 22  1  0
 20 22  1  0
 23 24  1  0
 24 25  1  0
 25 26  1  0
 26 27  1  0
 27 28  1  0
 25 29  1  0
 28 29  1  0
 29 30  1  0
 30 31  1  0
 24 32  1  0
 32 33  1  0
 34 33  1  6
 34 35  1  0
 35 36  1  0
 36 37  1  0
 37 38  1  0
 34 39  1  0
 38 39  1  0
 38 40  1  0
 36 41  1  0
 40 42  1  0
 41 42  1  0
 42 43  1  1
 34 44  1  0
 42 44  1  0
  1 45  1  0
  2 46  1  6
  4 47  1  0
  4 48  1  0
  5 49  1  0
  5 50  1  0
  6 51  1  0
  6 52  1  0
  7 53  1  6
  8 54  1  0
  9 55  1  0
  9 56  1  0
 10 57  1  0
 10 58  1  0
 11 59  1  0
 13 60  1  0
 13 61  1  0
 14 62  1  1
 15 63  1  0
 15 64  1  0
 16 65  1  1
 17 66  1  0
 17 67  1  0
 18 68  1  0
 18 69  1  0
 19 70  1  0
 19 71  1  0
 21 72  1  0
 22 73  1  0
 22 74  1  0
 23 75  1  0
 24 76  1  6
 26 77  1  0
 26 78  1  0
 27 79  1  0
 27 80  1  0
 28 81  1  0
 28 82  1  0
 29 83  1  1
 30 84  1  0
 31 85  1  0
 31 86  1  0
 32 87  1  0
 32 88  1  0
 33 89  1  0
 35 90  1  0
 35 91  1  0
 36 92  1  1
 37 93  1  0
 37 94  1  0
 38 95  1  6
 39 96  1  0
 39 97  1  0
 40 98  1  0
 40 99  1  0
 41100  1  0
 41101  1  0
 43102  1  0
 44103  1  0
 44104  1  0
M  RAD  2   8   2  30   2
M  END
>  <PDBID>  (1) 
3W2T

>  <PDB ID>  (1) 
3W2T

>  <Generic Name>  (1) 
Vildagliptin

>  <Brand Name>  (1) 
Galvus

>  <DrugBank ID>  (1) 
DB04876

>  <ATC Codes>  (1) 
A10BH02#A10BD08

>  <Ligand ID>  (1) 
LF7

>  <Target Name>  (1) 
Dipeptidyl peptidase 4

>  <UniProt ID>  (1) 
P27487

>  <PDB ID.1>  (1) 
3W2T

>  <Seq. Identity>  (1) 
100%

$$$$
