PDB_DB00558_86
     RDKit          3D

 43 43  0  0  0  0  0  0  0  0999 V2000
   29.5970   40.0010  -30.9350 C   0  0  0  0  0  0  0  0  0  0  0  0
   29.6760   40.4360  -32.1910 O   0  0  0  0  0  0  0  0  0  0  0  0
   28.9740   40.5490  -30.0840 O   0  0  0  0  0  0  0  0  0  0  0  0
   30.2980   38.7360  -30.6390 C   0  0  0  0  0  0  0  0  0  0  0  0
   30.2460   38.2330  -29.3870 C   0  0  0  0  0  0  0  0  0  0  0  0
   30.9500   36.9580  -29.0430 C   0  0  1  0  0  0  0  0  0  0  0  0
   31.9240   36.5490  -30.1200 C   0  0  1  0  0  0  0  0  0  0  0  0
   32.1080   35.1260  -29.9050 N   0  0  0  0  0  0  0  0  0  0  0  0
   33.2620   34.5830  -29.5770 C   0  0  0  0  0  0  0  0  0  0  0  0
   34.2630   35.2350  -29.3330 O   0  0  0  0  0  0  0  0  0  0  0  0
   33.3330   33.0730  -29.6850 C   0  0  0  0  0  0  0  0  0  0  0  0
   31.2960   36.7770  -31.4810 C   0  0  1  0  0  0  0  0  0  0  0  0
   30.9500   38.1280  -31.6480 O   0  0  0  0  0  0  0  0  0  0  0  0
   32.1690   36.2990  -32.6490 C   0  0  2  0  0  0  0  0  0  0  0  0
   33.3870   37.0330  -32.7330 O   0  0  0  0  0  0  0  0  0  0  0  0
   31.4560   36.3720  -33.9960 C   0  0  2  0  0  0  0  0  0  0  0  0
   30.2830   35.5860  -33.8940 O   0  0  0  0  0  0  0  0  0  0  0  0
   32.3060   35.9010  -35.1940 C   0  0  0  0  0  0  0  0  0  0  0  0
   32.5630   34.5010  -35.1610 O   0  0  0  0  0  0  0  0  0  0  0  0
   31.6190   36.8560  -27.7440 N   0  0  0  0  0  0  0  0  0  0  0  0
   31.3610   35.9020  -26.8420 C   0  0  0  0  0  0  0  0  0  0  0  0
   30.2720   35.1530  -26.9660 N   0  0  0  0  0  0  0  0  0  0  0  0
   32.2000   35.7130  -25.8180 N   0  0  0  0  0  0  0  0  0  0  0  0
   30.2120   39.9349  -32.8556 H   0  0  0  0  0  0  0  0  0  0  0  0
   29.6791   38.7671  -28.6102 H   0  0  0  0  0  0  0  0  0  0  0  0
   30.0969   36.2679  -28.9662 H   0  0  0  0  0  0  0  0  0  0  0  0
   32.8670   37.1143  -30.0840 H   0  0  0  0  0  0  0  0  0  0  0  0
   31.2920   34.5071  -30.0148 H   0  0  0  0  0  0  0  0  0  0  0  0
   33.3536   32.6338  -28.6767 H   0  0  0  0  0  0  0  0  0  0  0  0
   32.4513   32.7024  -30.2284 H   0  0  0  0  0  0  0  0  0  0  0  0
   34.2456   32.7868  -30.2284 H   0  0  0  0  0  0  0  0  0  0  0  0
   30.3860   36.1594  -31.5028 H   0  0  0  0  0  0  0  0  0  0  0  0
   32.3877   35.2432  -32.4309 H   0  0  0  0  0  0  0  0  0  0  0  0
   33.7163   37.2314  -31.8207 H   0  0  0  0  0  0  0  0  0  0  0  0
   31.2351   37.4294  -34.2035 H   0  0  0  0  0  0  0  0  0  0  0  0
   30.0654   35.4402  -32.9393 H   0  0  0  0  0  0  0  0  0  0  0  0
   31.7687   36.1396  -36.1237 H   0  0  0  0  0  0  0  0  0  0  0  0
   33.2741   36.4207  -35.1428 H   0  0  0  0  0  0  0  0  0  0  0  0
   32.6187   34.1978  -34.2202 H   0  0  0  0  0  0  0  0  0  0  0  0
   30.0709   34.4179  -26.2731 H   0  0  0  0  0  0  0  0  0  0  0  0
   29.6282   35.3070  -27.7551 H   0  0  0  0  0  0  0  0  0  0  0  0
   32.0053   34.9798  -25.1213 H   0  0  0  0  0  0  0  0  0  0  0  0
   33.0409   36.3006  -25.7260 H   0  0  0  0  0  0  0  0  0  0  0  0
  1  2  1  0
  1  3  2  0
  1  4  1  0
  4  5  2  0
  5  6  1  0
  6  7  1  0
  7  8  1  0
  8  9  1  0
  9 10  2  0
  9 11  1  0
  7 12  1  0
  4 13  1  0
 12 13  1  0
 12 14  1  0
 14 15  1  0
 14 16  1  0
 16 17  1  0
 16 18  1  0
 18 19  1  0
  6 20  1  0
 20 21  2  3
 21 22  1  0
 21 23  1  0
  2 24  1  0
  5 25  1  0
  6 26  1  1
  7 27  1  6
  8 28  1  0
 11 29  1  0
 11 30  1  0
 11 31  1  0
 12 32  1  1
 14 33  1  1
 15 34  1  0
 16 35  1  6
 17 36  1  0
 18 37  1  0
 18 38  1  0
 19 39  1  0
 22 40  1  0
 22 41  1  0
 23 42  1  0
 23 43  1  0
M  END
$$$$
