PDB_DB00396_96
     RDKit          3D

 53 56  0  0  0  0  0  0  0  0999 V2000
   36.7220   34.7500   39.8210 C   0  0  0  0  0  0  0  0  0  0  0  0
   37.3830   34.8850   38.4110 C   0  0  0  0  0  0  0  0  0  0  0  0
   38.8780   35.0520   38.5810 C   0  0  0  0  0  0  0  0  0  0  0  0
   39.5010   35.7610   37.7780 O   0  0  0  0  0  0  0  0  0  0  0  0
   39.5770   34.3190   39.6470 C   0  0  0  0  0  0  0  0  0  0  0  0
   38.9110   33.6080   40.5590 C   0  0  0  0  0  0  0  0  0  0  0  0
   39.7000   32.7870   41.5920 C   0  0  0  0  0  0  0  0  0  0  0  0
   39.1710   32.9800   43.0350 C   0  0  0  0  0  0  0  0  0  0  0  0
   37.6270   32.8100   43.1550 C   0  0  2  0  0  0  0  0  0  0  0  0
   36.9320   33.8170   42.1680 C   0  0  1  0  0  0  0  0  0  0  0  0
   37.3290   33.5900   40.6610 C   0  0  1  0  0  0  0  0  0  0  0  0
   35.3900   33.8110   42.3560 C   0  0  0  0  0  0  0  0  0  0  0  0
   34.9700   34.0640   43.8330 C   0  0  0  0  0  0  0  0  0  0  0  0
   35.6010   33.0210   44.7670 C   0  0  1  0  0  0  0  0  0  0  0  0
   37.1640   33.1570   44.5780 C   0  0  1  0  0  0  0  0  0  0  0  0
   37.7550   32.3500   45.7550 C   0  0  0  0  0  0  0  0  0  0  0  0
   36.7670   32.6740   46.9380 C   0  0  0  0  0  0  0  0  0  0  0  0
   35.5290   33.3640   46.2880 C   0  0  2  0  0  0  0  0  0  0  0  0
   35.0530   31.5580   44.4750 C   0  0  0  0  0  0  0  0  0  0  0  0
   36.8520   32.2030   40.1130 C   0  0  0  0  0  0  0  0  0  0  0  0
   34.1780   33.0980   46.9850 C   0  0  0  0  0  0  0  0  0  0  0  0
   34.0280   32.1470   47.7210 O   0  0  0  0  0  0  0  0  0  0  0  0
   33.0600   34.0330   46.7510 C   0  0  0  0  0  0  0  0  0  0  0  0
   36.8655   35.6932   40.3685 H   0  0  0  0  0  0  0  0  0  0  0  0
   35.6560   34.5262   39.6677 H   0  0  0  0  0  0  0  0  0  0  0  0
   37.1779   33.9805   37.8195 H   0  0  0  0  0  0  0  0  0  0  0  0
   36.9685   35.7599   37.8887 H   0  0  0  0  0  0  0  0  0  0  0  0
   40.6753   34.3577   39.6938 H   0  0  0  0  0  0  0  0  0  0  0  0
   39.6237   31.7218   41.3282 H   0  0  0  0  0  0  0  0  0  0  0  0
   40.7428   33.1365   41.5696 H   0  0  0  0  0  0  0  0  0  0  0  0
   39.6553   32.2376   43.6863 H   0  0  0  0  0  0  0  0  0  0  0  0
   39.4086   34.0119   43.3330 H   0  0  0  0  0  0  0  0  0  0  0  0
   37.3628   31.7687   42.9186 H   0  0  0  0  0  0  0  0  0  0  0  0
   37.3100   34.8158   42.4315 H   0  0  0  0  0  0  0  0  0  0  0  0
   34.9544   34.5998   41.7251 H   0  0  0  0  0  0  0  0  0  0  0  0
   35.0216   32.8150   42.0691 H   0  0  0  0  0  0  0  0  0  0  0  0
   35.3036   35.0675   44.1357 H   0  0  0  0  0  0  0  0  0  0  0  0
   33.8752   33.9855   43.9061 H   0  0  0  0  0  0  0  0  0  0  0  0
   37.5412   34.1888   44.6333 H   0  0  0  0  0  0  0  0  0  0  0  0
   37.7639   31.2731   45.5310 H   0  0  0  0  0  0  0  0  0  0  0  0
   38.7998   32.6116   45.9787 H   0  0  0  0  0  0  0  0  0  0  0  0
   36.4642   31.7474   47.4477 H   0  0  0  0  0  0  0  0  0  0  0  0
   37.2395   33.3214   47.6914 H   0  0  0  0  0  0  0  0  0  0  0  0
   35.5751   34.4543   46.4264 H   0  0  0  0  0  0  0  0  0  0  0  0
   34.8597   31.0420   45.4271 H   0  0  0  0  0  0  0  0  0  0  0  0
   34.1189   31.6247   43.8979 H   0  0  0  0  0  0  0  0  0  0  0  0
   35.8011   30.9946   43.8979 H   0  0  0  0  0  0  0  0  0  0  0  0
   36.6223   31.5350   40.9562 H   0  0  0  0  0  0  0  0  0  0  0  0
   35.9500   32.3419   39.4989 H   0  0  0  0  0  0  0  0  0  0  0  0
   37.6486   31.7577   39.4989 H   0  0  0  0  0  0  0  0  0  0  0  0
   32.6562   34.3707   47.7169 H   0  0  0  0  0  0  0  0  0  0  0  0
   33.4215   34.9015   46.1809 H   0  0  0  0  0  0  0  0  0  0  0  0
   32.2692   33.5236   46.1809 H   0  0  0  0  0  0  0  0  0  0  0  0
  1  2  1  0
  2  3  1  0
  3  4  2  0
  3  5  1  0
  5  6  2  0
  6  7  1  0
  7  8  1  0
  8  9  1  0
  9 10  1  0
  1 11  1  0
  6 11  1  0
 10 11  1  0
 10 12  1  0
 12 13  1  0
 13 14  1  0
  9 15  1  0
 14 15  1  0
 15 16  1  0
 16 17  1  0
 14 18  1  0
 17 18  1  0
 14 19  1  1
 11 20  1  6
 18 21  1  0
 21 22  2  0
 21 23  1  0
  1 24  1  0
  1 25  1  0
  2 26  1  0
  2 27  1  0
  5 28  1  0
  7 29  1  0
  7 30  1  0
  8 31  1  0
  8 32  1  0
  9 33  1  6
 10 34  1  1
 12 35  1  0
 12 36  1  0
 13 37  1  0
 13 38  1  0
 15 39  1  1
 16 40  1  0
 16 41  1  0
 17 42  1  0
 17 43  1  0
 18 44  1  6
 19 45  1  0
 19 46  1  0
 19 47  1  0
 20 48  1  0
 20 49  1  0
 20 50  1  0
 23 51  1  0
 23 52  1  0
 23 53  1  0
M  END
$$$$
