PDB_DB04729_97
     RDKit          3D

 70 72  0  0  0  0  0  0  0  0999 V2000
   51.3810   29.2270  -49.6870 C   0  0  2  0  0  0  0  0  0  0  0  0
   50.0670   29.6680  -49.2370 O   0  0  0  0  0  0  0  0  0  0  0  0
   51.5290   29.3930  -51.2160 C   0  0  2  0  0  0  0  0  0  0  0  0
   51.2910   30.7620  -51.5550 N   0  0  0  0  0  0  0  0  0  0  0  0
   50.5480   28.4100  -51.9720 C   0  0  0  0  0  0  0  0  0  0  0  0
   50.8930   26.9320  -51.5480 C   0  0  0  0  0  0  0  0  0  0  0  0
   50.7240   26.8150  -49.9620 C   0  0  2  0  0  0  0  0  0  0  0  0
   51.5690   27.7950  -49.2620 O   0  0  0  0  0  0  0  0  0  0  0  0
   51.0490   25.4350  -49.4400 C   0  0  0  0  0  0  0  0  0  0  0  0
   50.8100   25.3380  -48.0260 N   0  0  0  0  0  0  0  0  0  0  0  0
   48.4850   31.6820  -45.7760 C   0  0  2  0  0  0  0  0  0  0  0  0
   48.4160   32.2170  -44.4510 N   0  0  0  0  0  0  0  0  0  0  0  0
   48.6600   30.1200  -45.7040 C   0  0  0  0  0  0  0  0  0  0  0  0
   48.7490   29.5160  -47.1730 C   0  0  2  0  0  0  0  0  0  0  0  0
   48.9110   28.0540  -47.1160 N   0  0  0  0  0  0  0  0  0  0  0  0
   49.9670   30.1900  -47.9520 C   0  0  2  0  0  0  0  0  0  0  0  0
   49.7710   31.7650  -47.9970 C   0  0  2  0  0  0  0  0  0  0  0  0
   50.8580   32.3780  -48.6860 O   0  0  0  0  0  0  0  0  0  0  0  0
   49.6680   32.3340  -46.5270 C   0  0  1  0  0  0  0  0  0  0  0  0
   49.4910   33.7470  -46.5980 O   0  0  0  0  0  0  0  0  0  0  0  0
   50.1460   34.7220  -45.7150 C   0  0  2  0  0  0  0  0  0  0  0  0
   50.3170   36.0200  -46.5540 C   0  0  2  0  0  0  0  0  0  0  0  0
   49.0460   36.4300  -47.0210 O   0  0  0  0  0  0  0  0  0  0  0  0
   51.3610   35.7310  -47.7370 C   0  0  1  0  0  0  0  0  0  0  0  0
   51.5610   36.9410  -48.5930 N   0  0  0  0  0  0  0  0  0  0  0  0
   52.8010   35.2640  -47.1210 C   0  0  1  0  0  0  0  0  0  0  0  0
   53.3710   36.2930  -46.3380 O   0  0  0  0  0  0  0  0  0  0  0  0
   52.6010   34.0150  -46.2240 C   0  0  0  0  0  0  0  0  0  0  0  0
   51.4970   34.2500  -45.2140 O   0  0  0  0  0  0  0  0  0  0  0  0
   53.9280   34.9300  -48.1070 C   0  0  0  0  0  0  0  0  0  0  0  0
   51.0670   36.8730  -49.9750 C   0  0  0  0  0  0  0  0  0  0  0  0
   52.1640   29.8491  -49.2289 H   0  0  0  0  0  0  0  0  0  0  0  0
   52.5488   29.1295  -51.5331 H   0  0  0  0  0  0  0  0  0  0  0  0
   51.1944   31.3174  -50.6930 H   0  0  0  0  0  0  0  0  0  0  0  0
   52.0821   31.1213  -52.1081 H   0  0  0  0  0  0  0  0  0  0  0  0
   49.5080   28.6410  -51.6982 H   0  0  0  0  0  0  0  0  0  0  0  0
   50.6639   28.5260  -53.0597 H   0  0  0  0  0  0  0  0  0  0  0  0
   50.2080   26.2316  -52.0482 H   0  0  0  0  0  0  0  0  0  0  0  0
   51.9242   26.6838  -51.8397 H   0  0  0  0  0  0  0  0  0  0  0  0
   49.6626   27.0215  -49.7600 H   0  0  0  0  0  0  0  0  0  0  0  0
   50.4194   24.6983  -49.9605 H   0  0  0  0  0  0  0  0  0  0  0  0
   52.1154   25.2380  -49.6246 H   0  0  0  0  0  0  0  0  0  0  0  0
   51.6381   25.6741  -47.5140 H   0  0  0  0  0  0  0  0  0  0  0  0
   49.9940   25.9145  -47.7754 H   0  0  0  0  0  0  0  0  0  0  0  0
   47.5556   31.9029  -46.3213 H   0  0  0  0  0  0  0  0  0  0  0  0
   48.5145   31.4534  -43.7668 H   0  0  0  0  0  0  0  0  0  0  0  0
   49.1760   32.8990  -44.3161 H   0  0  0  0  0  0  0  0  0  0  0  0
   49.5830   29.8815  -45.1552 H   0  0  0  0  0  0  0  0  0  0  0  0
   47.7946   29.6825  -45.1848 H   0  0  0  0  0  0  0  0  0  0  0  0
   47.8161   29.7339  -47.7136 H   0  0  0  0  0  0  0  0  0  0  0  0
   48.9446   27.7504  -46.1323 H   0  0  0  0  0  0  0  0  0  0  0  0
   48.1150   27.6017  -47.5879 H   0  0  0  0  0  0  0  0  0  0  0  0
   50.9031   29.9671  -47.4190 H   0  0  0  0  0  0  0  0  0  0  0  0
   48.8401   31.9938  -48.5364 H   0  0  0  0  0  0  0  0  0  0  0  0
   51.5026   32.7415  -48.0284 H   0  0  0  0  0  0  0  0  0  0  0  0
   50.5898   32.1004  -45.9741 H   0  0  0  0  0  0  0  0  0  0  0  0
   49.5303   34.8773  -44.8168 H   0  0  0  0  0  0  0  0  0  0  0  0
   50.7242   36.8460  -45.9525 H   0  0  0  0  0  0  0  0  0  0  0  0
   48.4563   36.6202  -46.2489 H   0  0  0  0  0  0  0  0  0  0  0  0
   50.9439   34.9248  -48.3583 H   0  0  0  0  0  0  0  0  0  0  0  0
   51.0848   37.7293  -48.1318 H   0  0  0  0  0  0  0  0  0  0  0  0
   53.2535   36.0809  -45.3782 H   0  0  0  0  0  0  0  0  0  0  0  0
   52.3342   33.1556  -46.8566 H   0  0  0  0  0  0  0  0  0  0  0  0
   53.5377   33.8157  -45.6828 H   0  0  0  0  0  0  0  0  0  0  0  0
   54.8364   34.6608  -47.5481 H   0  0  0  0  0  0  0  0  0  0  0  0
   53.6226   34.0837  -48.7399 H   0  0  0  0  0  0  0  0  0  0  0  0
   54.1330   35.8060  -48.7399 H   0  0  0  0  0  0  0  0  0  0  0  0
   49.9773   36.7230  -49.9679 H   0  0  0  0  0  0  0  0  0  0  0  0
   51.3044   37.8123  -50.4959 H   0  0  0  0  0  0  0  0  0  0  0  0
   51.5494   36.0328  -50.4959 H   0  0  0  0  0  0  0  0  0  0  0  0
  2  1  1  0
  3  1  1  0
  4  3  1  0
  5  3  1  0
  6  5  1  0
  7  6  1  0
  8  7  1  0
  8  1  1  0
  9  7  1  0
 10  9  1  0
 12 11  1  0
 13 11  1  0
 14 13  1  0
 15 14  1  0
 16 14  1  0
 16  2  1  0
 17 16  1  0
 18 17  1  0
 19 11  1  0
 19 17  1  0
 20 19  1  0
 21 20  1  0
 22 21  1  0
 23 22  1  0
 24 22  1  0
 25 24  1  0
 26 24  1  0
 26 27  1  1
 28 26  1  0
 29 28  1  0
 29 21  1  0
 30 26  1  0
 31 25  1  0
  1 32  1  1
  3 33  1  6
  4 34  1  0
  4 35  1  0
  5 36  1  0
  5 37  1  0
  6 38  1  0
  6 39  1  0
  7 40  1  6
  9 41  1  0
  9 42  1  0
 10 43  1  0
 10 44  1  0
 11 45  1  6
 12 46  1  0
 12 47  1  0
 13 48  1  0
 13 49  1  0
 14 50  1  6
 15 51  1  0
 15 52  1  0
 16 53  1  1
 17 54  1  6
 18 55  1  0
 19 56  1  1
 21 57  1  1
 22 58  1  1
 23 59  1  0
 24 60  1  6
 25 61  1  0
 27 62  1  0
 28 63  1  0
 28 64  1  0
 30 65  1  0
 30 66  1  0
 30 67  1  0
 31 68  1  0
 31 69  1  0
 31 70  1  0
M  END
$$$$
