PDB_DB00196_97
     RDKit          3D

 48 50  0  0  0  0  0  0  0  0999 V2000
   23.2060    9.8270   17.0190 O   0  0  0  0  0  0  0  0  0  0  0  0
   22.8870   10.8710   16.0960 C   0  0  1  0  0  0  0  0  0  0  0  0
   21.4680   10.5870   15.5590 C   0  0  0  0  0  0  0  0  0  0  0  0
   22.9650   12.1960   16.8810 C   0  0  0  0  0  0  0  0  0  0  0  0
   23.9320   10.9140   14.9800 C   0  0  0  0  0  0  0  0  0  0  0  0
   20.4490   10.6350   16.5960 N   0  0  0  0  0  0  0  0  0  0  0  0
   19.9900    9.6600   17.3720 C   0  0  0  0  0  0  0  0  0  0  0  0
   19.7740   11.7810   16.8650 N   0  0  0  0  0  0  0  0  0  0  0  0
   19.0270   10.0930   18.1540 N   0  0  0  0  0  0  0  0  0  0  0  0
   18.9390   11.3920   17.8010 C   0  0  0  0  0  0  0  0  0  0  0  0
   24.3100   12.4660   17.3710 N   0  0  0  0  0  0  0  0  0  0  0  0
   24.9930   11.8520   18.3280 C   0  0  0  0  0  0  0  0  0  0  0  0
   25.0880   13.4140   16.7950 N   0  0  0  0  0  0  0  0  0  0  0  0
   26.2090   12.3360   18.4200 N   0  0  0  0  0  0  0  0  0  0  0  0
   26.2100   13.2870   17.4630 C   0  0  0  0  0  0  0  0  0  0  0  0
   25.0140   10.0430   14.9930 C   0  0  0  0  0  0  0  0  0  0  0  0
   23.8920   11.8320   13.9400 C   0  0  0  0  0  0  0  0  0  0  0  0
   26.0020   10.0970   14.0260 C   0  0  0  0  0  0  0  0  0  0  0  0
   25.8920   11.0360   13.0400 C   0  0  0  0  0  0  0  0  0  0  0  0
   26.8620   11.1010   12.0910 F   0  0  0  0  0  0  0  0  0  0  0  0
   24.8500   11.9210   12.9630 C   0  0  0  0  0  0  0  0  0  0  0  0
   22.8520   12.6890   13.8810 F   0  0  0  0  0  0  0  0  0  0  0  0
   23.1035   10.1623   17.9448 H   0  0  0  0  0  0  0  0  0  0  0  0
   21.2255   11.3391   14.7938 H   0  0  0  0  0  0  0  0  0  0  0  0
   21.4699    9.5676   15.1457 H   0  0  0  0  0  0  0  0  0  0  0  0
   22.6572   13.0188   16.2190 H   0  0  0  0  0  0  0  0  0  0  0  0
   22.2983   12.1127   17.7520 H   0  0  0  0  0  0  0  0  0  0  0  0
   24.5158   11.6479   15.5550 H   0  0  0  0  0  0  0  0  0  0  0  0
   19.6014    8.8491   16.7385 H   0  0  0  0  0  0  0  0  0  0  0  0
   20.8152    9.2961   18.0018 H   0  0  0  0  0  0  0  0  0  0  0  0
   20.4073   12.5162   17.2103 H   0  0  0  0  0  0  0  0  0  0  0  0
   18.1442    9.5951   17.9707 H   0  0  0  0  0  0  0  0  0  0  0  0
   19.1276   12.0005   18.6978 H   0  0  0  0  0  0  0  0  0  0  0  0
   17.9311   11.5232   17.3803 H   0  0  0  0  0  0  0  0  0  0  0  0
   24.4752   11.9944   19.2880 H   0  0  0  0  0  0  0  0  0  0  0  0
   25.0585   10.7820   18.0816 H   0  0  0  0  0  0  0  0  0  0  0  0
   25.2262   13.2262   15.7917 H   0  0  0  0  0  0  0  0  0  0  0  0
   26.3797   12.7426   19.3508 H   0  0  0  0  0  0  0  0  0  0  0  0
   27.0071   13.0448   16.7447 H   0  0  0  0  0  0  0  0  0  0  0  0
   26.3615   14.2430   17.9857 H   0  0  0  0  0  0  0  0  0  0  0  0
   25.5184   10.1906   15.9593 H   0  0  0  0  0  0  0  0  0  0  0  0
   24.5370    9.0735   14.7868 H   0  0  0  0  0  0  0  0  0  0  0  0
   24.4517   12.5525   14.5545 H   0  0  0  0  0  0  0  0  0  0  0  0
   26.9552   10.2787   14.5440 H   0  0  0  0  0  0  0  0  0  0  0  0
   25.9171    9.1363   13.4969 H   0  0  0  0  0  0  0  0  0  0  0  0
   26.4506   11.7525   13.6601 H   0  0  0  0  0  0  0  0  0  0  0  0
   24.3529   11.7668   11.9939 H   0  0  0  0  0  0  0  0  0  0  0  0
   25.3045   12.9141   13.0939 H   0  0  0  0  0  0  0  0  0  0  0  0
  2  1  1  1
  2  3  1  0
  2  4  1  0
  2  5  1  0
  3  6  1  0
  6  7  1  0
  6  8  1  0
  7  9  1  0
  8 10  1  0
  9 10  1  0
  4 11  1  0
 11 12  1  0
 11 13  1  0
 12 14  1  0
 13 15  1  0
 15 14  1  0
  5 16  1  0
  5 17  1  0
 16 18  1  0
 18 19  1  0
 19 20  1  0
 17 21  1  0
 19 21  1  0
 17 22  1  0
  1 23  1  0
  3 24  1  0
  3 25  1  0
  4 26  1  0
  4 27  1  0
  5 28  1  0
  7 29  1  0
  7 30  1  0
  8 31  1  0
  9 32  1  0
 10 33  1  0
 10 34  1  0
 12 35  1  0
 12 36  1  0
 13 37  1  0
 14 38  1  6
 15 39  1  0
 15 40  1  0
 16 41  1  0
 16 42  1  0
 17 43  1  0
 18 44  1  0
 18 45  1  0
 19 46  1  0
 21 47  1  0
 21 48  1  0
M  END
>  <PDBID>  (1) 
5ESJ

>  <PDB ID>  (1) 
5ESJ

>  <Generic Name>  (1) 
Fluconazole

>  <Brand Name>  (1) 
Act Fluconazole#Apo-fluconazole#Apo-fluconazole-150#Canesoral#Canesoral Combi-pak#Clotrimaderm-fluconazole Combi-pack#Clotrimazole-fluconazole Combi-pack#Co Fluconazole-150#Diflucan#Diflucan Inj 2mg/ml#Diflucan One#Diflucan Pws 50mg/5ml#Diflucan Tab 100mg#Diflucan Tab 50mg#Dom-fluconazole#Fluconazole#Fluconazole 150#Fluconazole In Sodium Chloride Injection USP#Fluconazole Injection#Fluconazole Injection Sdz#Fluconazole Omega#Fluconazole-150#Jamp-fluconazole#Mar-fluconazole-150#Monicure#Monicure Combo#Mylan-fluconazole#Novo-fluconazole#Novo-fluconazole-150#Nu-fluconazole-150#PHL-fluconazole#PMS-fluconazole#PMS-fluconazole-150#Priva-fluconazole#Pro-fluconazole#Riva-fluconazole#Taro-fluconazole#Teva-fluconazole#Elazor#Flucazol#Flucostat#Flunizol#Pritenzol#Trican#Triflucan

>  <DrugBank ID>  (1) 
DB00196

>  <ATC Codes>  (1) 
D01AC15#J02AC01#J01RA07

>  <Ligand ID>  (1) 
TPF

>  <Target Name>  (1) 
Lanosterol 14-alpha demethylase

>  <UniProt ID>  (1) 
P10613

>  <PDB ID.1>  (1) 
5ESJ

>  <Seq. Identity>  (1) 
65%

$$$$
