PDB_DB00452_80
     RDKit          3D

 88 91  0  0  0  0  0  0  0  0999 V2000
 -100.6960 -107.1140   16.6890 C   0  0  2  0  0  0  0  0  0  0  0  0
  -99.7790 -106.7860   15.6610 O   0  0  0  0  0  0  0  0  0  0  0  0
 -102.0550 -107.0120   15.9820 C   0  0  2  0  0  0  0  0  0  0  0  0
 -101.8000 -106.9050   14.5740 N   0  0  0  0  0  0  0  0  0  0  0  0
 -102.9290 -105.8910   16.3570 C   0  0  1  0  0  0  0  0  0  0  0  0
 -103.8040 -106.4150   17.3190 O   0  0  0  0  0  0  0  0  0  0  0  0
 -102.3140 -104.7360   16.9290 C   0  0  2  0  0  0  0  0  0  0  0  0
 -101.7760 -103.8790   15.9410 O   0  0  0  0  0  0  0  0  0  0  0  0
 -101.2390 -105.0310   17.9350 C   0  0  2  0  0  0  0  0  0  0  0  0
 -100.6100 -106.4030   17.8830 O   0  0  0  0  0  0  0  0  0  0  0  0
 -101.7580 -104.7190   19.3140 C   0  0  0  0  0  0  0  0  0  0  0  0
  -95.6400 -106.9720   14.9430 C   0  0  1  0  0  0  0  0  0  0  0  0
  -94.2070 -106.7710   15.1170 N   0  0  0  0  0  0  0  0  0  0  0  0
  -96.1820 -108.0340   15.9020 C   0  0  1  0  0  0  0  0  0  0  0  0
  -97.7260 -108.1090   16.0060 C   0  0  1  0  0  0  0  0  0  0  0  0
  -98.0210 -108.8210   17.1880 O   0  0  0  0  0  0  0  0  0  0  0  0
  -98.4030 -106.7650   15.9970 C   0  0  1  0  0  0  0  0  0  0  0  0
  -97.8260 -105.8860   14.8950 C   0  0  1  0  0  0  0  0  0  0  0  0
  -98.5850 -104.6700   14.8090 N   0  0  0  0  0  0  0  0  0  0  0  0
  -96.3300 -105.6510   15.1060 C   0  0  0  0  0  0  0  0  0  0  0  0
  -98.1860 -110.2250   16.9950 C   0  0  1  0  0  0  0  0  0  0  0  0
  -98.2540 -110.9100   18.3000 C   0  0  1  0  0  0  0  0  0  0  0  0
  -99.5250 -110.3820   18.6800 C   0  0  1  0  0  0  0  0  0  0  0  0
 -100.3470 -110.7370   17.4860 C   0  0  2  0  0  0  0  0  0  0  0  0
  -99.4580 -110.5870   16.4170 O   0  0  0  0  0  0  0  0  0  0  0  0
 -101.5430 -109.8460   17.2340 C   0  0  0  0  0  0  0  0  0  0  0  0
  -97.8920 -113.1470   22.0800 C   0  0  1  0  0  0  0  0  0  0  0  0
  -99.2340 -113.0440   22.6500 C   0  0  1  0  0  0  0  0  0  0  0  0
 -100.1740 -112.3990   21.8010 C   0  0  2  0  0  0  0  0  0  0  0  0
  -99.8340 -112.1600   20.3410 C   0  0  1  0  0  0  0  0  0  0  0  0
  -99.9880 -110.7890   19.9760 O   0  0  0  0  0  0  0  0  0  0  0  0
  -98.0660 -113.7090   20.6970 C   0  0  1  0  0  0  0  0  0  0  0  0
  -98.5280 -112.7040   19.8750 O   0  0  0  0  0  0  0  0  0  0  0  0
  -96.8190 -114.3160   20.0900 C   0  0  0  0  0  0  0  0  0  0  0  0
 -102.9870 -103.9260   19.4160 N   0  0  0  0  0  0  0  0  0  0  0  0
  -98.3120 -112.2470   17.9830 O   0  0  0  0  0  0  0  0  0  0  0  0
  -99.6700 -114.3890   22.8850 O   0  0  0  0  0  0  0  0  0  0  0  0
  -97.2860 -111.8750   22.0230 O   0  0  0  0  0  0  0  0  0  0  0  0
 -102.7880 -110.3510   17.4370 O   0  0  0  0  0  0  0  0  0  0  0  0
  -95.7050 -109.2410   15.5040 O   0  0  0  0  0  0  0  0  0  0  0  0
  -96.8960 -114.5850   18.6750 N   0  0  0  0  0  0  0  0  0  0  0  0
 -100.3300 -111.0950   22.4320 N   0  0  0  0  0  0  0  0  0  0  0  0
 -100.4788 -108.1129   17.0952 H   0  0  0  0  0  0  0  0  0  0  0  0
 -102.6030 -107.9137   16.2928 H   0  0  0  0  0  0  0  0  0  0  0  0
 -100.8603 -106.5107   14.4243 H   0  0  0  0  0  0  0  0  0  0  0  0
 -101.8529 -107.8392   14.1435 H   0  0  0  0  0  0  0  0  0  0  0  0
 -103.3793 -105.5232   15.4232 H   0  0  0  0  0  0  0  0  0  0  0  0
 -103.4605 -106.2093   18.2244 H   0  0  0  0  0  0  0  0  0  0  0  0
 -103.1396 -104.2409   17.4612 H   0  0  0  0  0  0  0  0  0  0  0  0
 -101.3038 -103.1268   16.3783 H   0  0  0  0  0  0  0  0  0  0  0  0
 -100.4008 -104.3739   17.6601 H   0  0  0  0  0  0  0  0  0  0  0  0
 -101.9427 -105.6779   19.8203 H   0  0  0  0  0  0  0  0  0  0  0  0
 -100.9805 -104.0866   19.7674 H   0  0  0  0  0  0  0  0  0  0  0  0
  -95.8396 -107.3564   13.9319 H   0  0  0  0  0  0  0  0  0  0  0  0
  -93.9842 -106.7398   16.1221 H   0  0  0  0  0  0  0  0  0  0  0  0
  -93.6952 -107.5484   14.6759 H   0  0  0  0  0  0  0  0  0  0  0  0
  -95.8391 -107.7471   16.9070 H   0  0  0  0  0  0  0  0  0  0  0  0
  -98.1198 -108.6186   15.1142 H   0  0  0  0  0  0  0  0  0  0  0  0
  -98.2492 -106.4084   17.0262 H   0  0  0  0  0  0  0  0  0  0  0  0
  -97.9120 -106.3982   13.9253 H   0  0  0  0  0  0  0  0  0  0  0  0
  -98.7973 -104.3299   15.7578 H   0  0  0  0  0  0  0  0  0  0  0  0
  -98.0376 -103.9586   14.3038 H   0  0  0  0  0  0  0  0  0  0  0  0
  -95.9531 -104.9357   14.3602 H   0  0  0  0  0  0  0  0  0  0  0  0
  -96.1400 -105.2350   16.1064 H   0  0  0  0  0  0  0  0  0  0  0  0
  -97.3403 -110.5052   16.3498 H   0  0  0  0  0  0  0  0  0  0  0  0
  -97.4646 -110.7870   19.0561 H   0  0  0  0  0  0  0  0  0  0  0  0
  -99.5454 -109.3002   18.8780 H   0  0  0  0  0  0  0  0  0  0  0  0
 -100.7726 -111.7415   17.6269 H   0  0  0  0  0  0  0  0  0  0  0  0
 -101.4380 -108.9700   17.8909 H   0  0  0  0  0  0  0  0  0  0  0  0
 -101.5073 -109.6513   16.1520 H   0  0  0  0  0  0  0  0  0  0  0  0
  -97.2431 -113.7899   22.6929 H   0  0  0  0  0  0  0  0  0  0  0  0
  -99.1816 -112.4298   23.5610 H   0  0  0  0  0  0  0  0  0  0  0  0
 -101.0438 -113.0681   21.7244 H   0  0  0  0  0  0  0  0  0  0  0  0
 -100.5813 -112.7607   19.8018 H   0  0  0  0  0  0  0  0  0  0  0  0
  -98.7810 -114.5400   20.7884 H   0  0  0  0  0  0  0  0  0  0  0  0
  -95.9840 -113.6203   20.2597 H   0  0  0  0  0  0  0  0  0  0  0  0
  -96.6831 -115.2913   20.5803 H   0  0  0  0  0  0  0  0  0  0  0  0
 -103.2180 -103.7769   20.4086 H   0  0  0  0  0  0  0  0  0  0  0  0
 -102.8472 -103.0153   18.9555 H   0  0  0  0  0  0  0  0  0  0  0  0
  -98.3352 -112.7827   18.8152 H   0  0  0  0  0  0  0  0  0  0  0  0
  -99.7232 -114.5531   23.8599 H   0  0  0  0  0  0  0  0  0  0  0  0
  -97.1280 -111.5433   22.9423 H   0  0  0  0  0  0  0  0  0  0  0  0
 -102.9611 -110.4212   18.4092 H   0  0  0  0  0  0  0  0  0  0  0  0
  -95.4885 -109.7889   16.2996 H   0  0  0  0  0  0  0  0  0  0  0  0
  -97.1765 -115.5649   18.5266 H   0  0  0  0  0  0  0  0  0  0  0  0
  -97.5918 -113.9597   18.2440 H   0  0  0  0  0  0  0  0  0  0  0  0
 -100.3168 -111.2053   23.4560 H   0  0  0  0  0  0  0  0  0  0  0  0
  -99.5567 -110.4790   22.1430 H   0  0  0  0  0  0  0  0  0  0  0  0
  2  1  1  0
  3  1  1  0
  4  3  1  0
  5  3  1  0
  6  5  1  0
  7  5  1  0
  8  7  1  0
  9  7  1  0
 10  9  1  0
 10  1  1  0
 11  9  1  0
 13 12  1  0
 14 12  1  0
 15 14  1  0
 16 15  1  0
 17  2  1  0
 17 15  1  0
 18 17  1  0
 19 18  1  0
 20 18  1  0
 20 12  1  0
 21 16  1  0
 22 21  1  0
 23 22  1  0
 24 23  1  0
 25 24  1  0
 25 21  1  0
 26 24  1  0
 28 27  1  0
 29 28  1  0
 30 29  1  0
 31 30  1  0
 31 23  1  0
 32 27  1  0
 33 30  1  0
 33 32  1  0
 34 32  1  0
 35 11  1  0
 36 22  1  0
 37 28  1  0
 38 27  1  0
 39 26  1  0
 40 14  1  0
 41 34  1  0
 42 29  1  0
  1 43  1  1
  3 44  1  6
  4 45  1  0
  4 46  1  0
  5 47  1  6
  6 48  1  0
  7 49  1  1
  8 50  1  0
  9 51  1  6
 11 52  1  0
 11 53  1  0
 12 54  1  6
 13 55  1  0
 13 56  1  0
 14 57  1  1
 15 58  1  6
 17 59  1  1
 18 60  1  6
 19 61  1  0
 19 62  1  0
 20 63  1  0
 20 64  1  0
 21 65  1  6
 22 66  1  1
 23 67  1  1
 24 68  1  1
 26 69  1  0
 26 70  1  0
 27 71  1  1
 28 72  1  1
 29 73  1  6
 30 74  1  6
 32 75  1  1
 34 76  1  0
 34 77  1  0
 35 78  1  0
 35 79  1  0
 36 80  1  0
 37 81  1  0
 38 82  1  0
 39 83  1  0
 40 84  1  0
 41 85  1  0
 41 86  1  0
 42 87  1  0
 42 88  1  0
M  END
$$$$
