PDB_DB00540_99
     RDKit          3D

 41 43  0  0  0  0  0  0  0  0999 V2000
  -43.0980   -1.5900   52.1250 C   0  0  0  0  0  0  0  0  0  0  0  0
  -43.0980   -2.7380   53.0010 N   0  0  0  0  0  0  0  0  0  0  0  0
  -42.9720   -2.5550   54.4310 C   0  0  0  0  0  0  0  0  0  0  0  0
  -41.6120   -3.0090   54.9610 C   0  0  0  0  0  0  0  0  0  0  0  0
  -40.6070   -1.9090   54.7230 C   0  0  0  0  0  0  0  0  0  0  0  0
  -39.4070   -1.7540   55.3160 C   0  0  0  0  0  0  0  0  0  0  0  0
  -38.6270   -0.5640   54.8750 C   0  0  0  0  0  0  0  0  0  0  0  0
  -39.0420    0.7310   55.1650 C   0  0  0  0  0  0  0  0  0  0  0  0
  -38.2710    1.7950   54.7120 C   0  0  0  0  0  0  0  0  0  0  0  0
  -37.1110    1.5540   53.9750 C   0  0  0  0  0  0  0  0  0  0  0  0
  -38.7940   -2.6520   56.3600 C   0  0  0  0  0  0  0  0  0  0  0  0
  -39.5410   -2.9770   57.4890 C   0  0  0  0  0  0  0  0  0  0  0  0
  -39.0200   -3.7880   58.4920 C   0  0  0  0  0  0  0  0  0  0  0  0
  -37.7240   -4.2730   58.3930 C   0  0  0  0  0  0  0  0  0  0  0  0
  -36.9660   -3.9370   57.2800 C   0  0  0  0  0  0  0  0  0  0  0  0
  -37.4820   -3.1340   56.2650 C   0  0  0  0  0  0  0  0  0  0  0  0
  -36.5190   -2.8620   55.1240 C   0  0  0  0  0  0  0  0  0  0  0  0
  -37.1270   -2.2430   53.8760 C   0  0  0  0  0  0  0  0  0  0  0  0
  -37.4860   -0.8040   54.1470 C   0  0  0  0  0  0  0  0  0  0  0  0
  -36.7100    0.2520   53.6860 C   0  0  0  0  0  0  0  0  0  0  0  0
  -42.0609   -1.2985   51.9026 H   0  0  0  0  0  0  0  0  0  0  0  0
  -43.6165   -1.8433   51.1886 H   0  0  0  0  0  0  0  0  0  0  0  0
  -43.6165   -0.7537   52.6166 H   0  0  0  0  0  0  0  0  0  0  0  0
  -43.9865   -3.2341   52.8415 H   0  0  0  0  0  0  0  0  0  0  0  0
  -43.1028   -1.4877   54.6631 H   0  0  0  0  0  0  0  0  0  0  0  0
  -43.7429   -3.1715   54.9164 H   0  0  0  0  0  0  0  0  0  0  0  0
  -41.6854   -3.2162   56.0388 H   0  0  0  0  0  0  0  0  0  0  0  0
  -41.2945   -3.9250   54.4412 H   0  0  0  0  0  0  0  0  0  0  0  0
  -40.8858   -1.1466   53.9807 H   0  0  0  0  0  0  0  0  0  0  0  0
  -39.9618    0.9098   55.7412 H   0  0  0  0  0  0  0  0  0  0  0  0
  -38.5756    2.8282   54.9347 H   0  0  0  0  0  0  0  0  0  0  0  0
  -36.5069    2.4013   53.6185 H   0  0  0  0  0  0  0  0  0  0  0  0
  -40.5637   -2.5846   57.5899 H   0  0  0  0  0  0  0  0  0  0  0  0
  -39.6370   -4.0453   59.3656 H   0  0  0  0  0  0  0  0  0  0  0  0
  -37.3043   -4.9129   59.1832 H   0  0  0  0  0  0  0  0  0  0  0  0
  -35.9355   -4.3128   57.1974 H   0  0  0  0  0  0  0  0  0  0  0  0
  -35.7414   -2.1781   55.4949 H   0  0  0  0  0  0  0  0  0  0  0  0
  -36.1394   -3.8466   54.8135 H   0  0  0  0  0  0  0  0  0  0  0  0
  -36.3990   -2.2896   53.0527 H   0  0  0  0  0  0  0  0  0  0  0  0
  -38.0344   -2.7992   53.5980 H   0  0  0  0  0  0  0  0  0  0  0  0
  -35.7960    0.0633   53.1037 H   0  0  0  0  0  0  0  0  0  0  0  0
  1  2  1  0
  2  3  1  0
  3  4  1  0
  4  5  1  0
  5  6  2  3
  6  7  1  0
  7  8  2  0
  8  9  1  0
  9 10  2  0
  6 11  1  0
 11 12  1  0
 12 13  2  0
 13 14  1  0
 14 15  2  0
 11 16  2  0
 15 16  1  0
 16 17  1  0
 17 18  1  0
  7 19  1  0
 18 19  1  0
 10 20  1  0
 19 20  2  0
  1 21  1  0
  1 22  1  0
  1 23  1  0
  2 24  1  0
  3 25  1  0
  3 26  1  0
  4 27  1  0
  4 28  1  0
  5 29  1  0
  8 30  1  0
  9 31  1  0
 10 32  1  0
 12 33  1  0
 13 34  1  0
 14 35  1  0
 15 36  1  0
 17 37  1  0
 17 38  1  0
 18 39  1  0
 18 40  1  0
 20 41  1  0
M  END
>  <PDBID>  (1) 
4M48

>  <PDB ID>  (1) 
4M48

>  <Generic Name>  (1) 
Nortriptyline

>  <Brand Name>  (1) 
Apo-nortriptyline - Cap 10mg#Apo-nortriptyline - Cap 25mg#Ava-nortriptyline#Aventyl#Dom-nortriptyline 10mg Capsules#Dom-nortriptyline 25mg Capsules#Gen-nortriptyline Capsules 10mg#Gen-nortriptyline Capsules 25mg#Nortriptyline#Nortriptyline Hydrochloride#Nortriptyline-10#Nortriptyline-25#Norventyl#Nu-nortriptyline - Cap 10mg#Nu-nortriptyline - Cap 25mg#PMS-nortriptyline#Pamelor#Ratio-nortriptyline#Teva-nortriptyline#Allegron#Noritren#Norpress#Nortrilen#Sensoval

>  <DrugBank ID>  (1) 
DB00540

>  <ATC Codes>  (1) 
N06AA10

>  <Ligand ID>  (1) 
21B

>  <Target Name>  (1) 
Sodium-dependent noradrenaline transporter

>  <UniProt ID>  (1) 
P23975

>  <PDB ID.1>  (1) 
4M48

>  <Seq. Identity>  (1) 
57%

$$$$
