PDB_DB01064_98
     RDKit          3D

 32 32  0  0  0  0  0  0  0  0999 V2000
   12.8820  -12.8630   17.9540 C   0  0  0  0  0  0  0  0  0  0  0  0
   11.4300  -12.4670   17.7380 C   0  0  0  0  0  0  0  0  0  0  0  0
   10.5610  -13.7120   17.8240 C   0  0  0  0  0  0  0  0  0  0  0  0
   11.0360  -11.4760   18.7710 N   0  0  0  0  0  0  0  0  0  0  0  0
    9.5930  -11.2360   18.9700 C   0  0  0  0  0  0  0  0  0  0  0  0
    9.3910  -10.1500   20.0370 C   0  0  2  0  0  0  0  0  0  0  0  0
    9.8940  -10.5920   21.3080 O   0  0  0  0  0  0  0  0  0  0  0  0
    7.8910   -9.8270   20.1570 C   0  0  0  0  0  0  0  0  0  0  0  0
    7.2350   -9.2380   19.0740 C   0  0  0  0  0  0  0  0  0  0  0  0
    7.1770  -10.1300   21.3360 C   0  0  0  0  0  0  0  0  0  0  0  0
    5.8100   -9.8420   21.4160 C   0  0  0  0  0  0  0  0  0  0  0  0
    5.1630   -9.2570   20.3240 C   0  0  0  0  0  0  0  0  0  0  0  0
    3.8390   -8.9620   20.3820 O   0  0  0  0  0  0  0  0  0  0  0  0
    5.8730   -8.9510   19.1580 C   0  0  0  0  0  0  0  0  0  0  0  0
    5.2330   -8.3670   18.1020 O   0  0  0  0  0  0  0  0  0  0  0  0
   13.0900  -12.9197   19.0327 H   0  0  0  0  0  0  0  0  0  0  0  0
   13.0669  -13.8444   17.4928 H   0  0  0  0  0  0  0  0  0  0  0  0
   13.5395  -12.1114   17.4928 H   0  0  0  0  0  0  0  0  0  0  0  0
   11.2989  -12.0103   16.7459 H   0  0  0  0  0  0  0  0  0  0  0  0
   10.3850  -13.9641   18.8802 H   0  0  0  0  0  0  0  0  0  0  0  0
    9.5982  -13.5222   17.3270 H   0  0  0  0  0  0  0  0  0  0  0  0
   11.0712  -14.5503   17.3270 H   0  0  0  0  0  0  0  0  0  0  0  0
   11.4222  -11.7975   19.6701 H   0  0  0  0  0  0  0  0  0  0  0  0
    9.1432  -10.9054   18.0221 H   0  0  0  0  0  0  0  0  0  0  0  0
    9.1113  -12.1674   19.3025 H   0  0  0  0  0  0  0  0  0  0  0  0
    9.9437   -9.2476   19.7366 H   0  0  0  0  0  0  0  0  0  0  0  0
    9.3892  -10.1484   22.0350 H   0  0  0  0  0  0  0  0  0  0  0  0
    7.7921   -9.0007   18.1557 H   0  0  0  0  0  0  0  0  0  0  0  0
    7.6940  -10.5916   22.1902 H   0  0  0  0  0  0  0  0  0  0  0  0
    5.2481  -10.0746   22.3326 H   0  0  0  0  0  0  0  0  0  0  0  0
    3.3896   -8.5477   19.6032 H   0  0  0  0  0  0  0  0  0  0  0  0
    4.2661   -8.1628   18.1606 H   0  0  0  0  0  0  0  0  0  0  0  0
  1  2  1  0
  2  3  1  0
  2  4  1  0
  4  5  1  0
  5  6  1  0
  6  7  1  0
  6  8  1  0
  8  9  2  0
  8 10  1  0
 10 11  2  0
 11 12  1  0
 12 13  1  0
  9 14  1  0
 12 14  2  0
 14 15  1  0
  1 16  1  0
  1 17  1  0
  1 18  1  0
  2 19  1  0
  3 20  1  0
  3 21  1  0
  3 22  1  0
  4 23  1  0
  5 24  1  0
  5 25  1  0
  6 26  1  6
  7 27  1  0
  9 28  1  0
 10 29  1  0
 11 30  1  0
 13 31  1  0
 15 32  1  0
M  END
$$$$
