PDB_DB05239_99
     RDKit          3D

 65 68  0  0  0  0  0  0  0  0999 V2000
   31.0770   29.6450  -15.3670 O   0  0  0  0  0  0  0  0  0  0  0  0
   31.5660   30.1470  -14.3750 C   0  0  0  0  0  0  0  0  0  0  0  0
   33.0200   30.5610  -14.3070 C   0  0  0  0  0  0  0  0  0  0  0  0
   33.3750   31.5310  -13.3630 C   0  0  0  0  0  0  0  0  0  0  0  0
   34.6890   31.9550  -13.1910 C   0  0  0  0  0  0  0  0  0  0  0  0
   35.6640   31.4300  -14.0080 C   0  0  1  0  0  0  0  0  0  0  0  0
   36.9300   31.8790  -13.9030 F   0  0  0  0  0  0  0  0  0  0  0  0
   35.3220   30.5050  -14.9930 C   0  0  1  0  0  0  0  0  0  0  0  0
   36.3240   30.0440  -15.7480 F   0  0  0  0  0  0  0  0  0  0  0  0
   34.0150   30.0080  -15.1240 C   0  0  1  0  0  0  0  0  0  0  0  0
   33.6740   29.0820  -16.0710 N   0  0  0  0  0  0  0  0  0  0  0  0
   34.3230   27.9110  -16.4230 C   0  0  0  0  0  0  0  0  0  0  0  0
   35.4650   27.4330  -15.7580 C   0  0  0  0  0  0  0  0  0  0  0  0
   36.1250   26.3000  -16.1910 C   0  0  0  0  0  0  0  0  0  0  0  0
   35.6280   25.5730  -17.2810 C   0  0  1  0  0  0  0  0  0  0  0  0
   36.5990   23.7960  -17.8720 I   0  0  0  0  0  0  0  0  0  0  0  0
   33.8340   27.1870  -17.5190 C   0  0  0  0  0  0  0  0  0  0  0  0
   32.7190   27.5980  -18.1550 F   0  0  0  0  0  0  0  0  0  0  0  0
   34.4720   26.0160  -17.9340 C   0  0  0  0  0  0  0  0  0  0  0  0
   30.7180   30.3710  -13.2740 N   0  0  0  0  0  0  0  0  0  0  0  0
   30.9470   29.9010  -11.8810 C   0  0  0  0  0  0  0  0  0  0  0  0
   29.4700   29.6760  -11.6830 C   0  0  1  0  0  0  0  0  0  0  0  0
   29.3090   29.9030  -13.1670 C   0  0  0  0  0  0  0  0  0  0  0  0
   29.2240   28.3190  -11.3270 O   0  0  0  0  0  0  0  0  0  0  0  0
   28.7380   30.7080  -10.7950 C   0  0  2  0  0  0  0  0  0  0  0  0
   29.0730   32.2030  -11.0660 C   0  0  0  0  0  0  0  0  0  0  0  0
   28.2980   33.1320  -10.1330 C   0  0  0  0  0  0  0  0  0  0  0  0
   28.3950   32.7340   -8.6500 C   0  0  0  0  0  0  0  0  0  0  0  0
   28.1470   31.2380   -8.4060 C   0  0  0  0  0  0  0  0  0  0  0  0
   28.9000   30.4270   -9.3550 N   0  0  0  0  0  0  0  0  0  0  0  0
   30.4122   28.9625  -15.0980 H   0  0  0  0  0  0  0  0  0  0  0  0
   31.8331   29.1476  -14.0009 H   0  0  0  0  0  0  0  0  0  0  0  0
   32.8295   31.3516  -15.0477 H   0  0  0  0  0  0  0  0  0  0  0  0
   32.7932   32.4302  -13.6138 H   0  0  0  0  0  0  0  0  0  0  0  0
   33.1782   31.0090  -12.4150 H   0  0  0  0  0  0  0  0  0  0  0  0
   34.6989   33.0456  -13.3342 H   0  0  0  0  0  0  0  0  0  0  0  0
   34.9576   31.5936  -12.1874 H   0  0  0  0  0  0  0  0  0  0  0  0
   35.4515   32.2048  -14.7594 H   0  0  0  0  0  0  0  0  0  0  0  0
   35.1610   31.3256  -15.7077 H   0  0  0  0  0  0  0  0  0  0  0  0
   33.8041   30.7653  -15.8934 H   0  0  0  0  0  0  0  0  0  0  0  0
   32.7275   28.7780  -15.8014 H   0  0  0  0  0  0  0  0  0  0  0  0
   34.9633   28.4746  -17.1175 H   0  0  0  0  0  0  0  0  0  0  0  0
   36.2018   28.2495  -15.7783 H   0  0  0  0  0  0  0  0  0  0  0  0
   35.0602   27.1166  -14.7854 H   0  0  0  0  0  0  0  0  0  0  0  0
   37.1470   26.6093  -16.4551 H   0  0  0  0  0  0  0  0  0  0  0  0
   36.0095   25.6026  -15.3482 H   0  0  0  0  0  0  0  0  0  0  0  0
   36.2721   26.1508  -17.9601 H   0  0  0  0  0  0  0  0  0  0  0  0
   33.2215   26.5744  -16.8411 H   0  0  0  0  0  0  0  0  0  0  0  0
   34.7412   26.1600  -18.9908 H   0  0  0  0  0  0  0  0  0  0  0  0
   33.7361   25.2333  -17.6978 H   0  0  0  0  0  0  0  0  0  0  0  0
   31.5495   28.9831  -11.8148 H   0  0  0  0  0  0  0  0  0  0  0  0
   31.5032   30.5347  -11.1745 H   0  0  0  0  0  0  0  0  0  0  0  0
   28.5641   30.6713  -13.4217 H   0  0  0  0  0  0  0  0  0  0  0  0
   28.9526   29.0855  -13.8110 H   0  0  0  0  0  0  0  0  0  0  0  0
   29.2086   28.2342  -10.3408 H   0  0  0  0  0  0  0  0  0  0  0  0
   27.6879   30.5727  -11.0934 H   0  0  0  0  0  0  0  0  0  0  0  0
   30.1507   32.3607  -10.9121 H   0  0  0  0  0  0  0  0  0  0  0  0
   28.7851   32.4375  -12.1014 H   0  0  0  0  0  0  0  0  0  0  0  0
   28.6965   34.1510  -10.2467 H   0  0  0  0  0  0  0  0  0  0  0  0
   27.2375   33.0643  -10.4172 H   0  0  0  0  0  0  0  0  0  0  0  0
   29.4023   32.9850   -8.2861 H   0  0  0  0  0  0  0  0  0  0  0  0
   27.6108   33.2867   -8.1119 H   0  0  0  0  0  0  0  0  0  0  0  0
   28.4619   30.9823   -7.3835 H   0  0  0  0  0  0  0  0  0  0  0  0
   27.0747   31.0320   -8.5391 H   0  0  0  0  0  0  0  0  0  0  0  0
   28.6265   29.4457   -9.2026 H   0  0  0  0  0  0  0  0  0  0  0  0
  1  2  1  0
  2  3  1  0
  3  4  1  0
  4  5  1  0
  5  6  1  0
  6  7  1  0
  6  8  1  0
  8  9  1  0
  3 10  1  0
  8 10  1  0
 10 11  1  0
 11 12  1  0
 12 13  1  0
 13 14  1  0
 14 15  1  0
 15 16  1  0
 12 17  1  0
 17 18  1  0
 15 19  1  0
 17 19  1  0
  2 20  1  0
 20 21  1  0
 21 22  1  0
 20 23  1  0
 22 23  1  0
 22 24  1  6
 22 25  1  0
 25 26  1  0
 26 27  1  0
 27 28  1  0
 28 29  1  0
 25 30  1  0
 29 30  1  0
  1 31  1  0
  2 32  1  0
  3 33  1  0
  4 34  1  0
  4 35  1  0
  5 36  1  0
  5 37  1  0
  6 38  1  1
  8 39  1  6
 10 40  1  1
 11 41  1  0
 12 42  1  0
 13 43  1  0
 13 44  1  0
 14 45  1  0
 14 46  1  0
 15 47  1  6
 17 48  1  0
 19 49  1  0
 19 50  1  0
 21 51  1  0
 21 52  1  0
 23 53  1  0
 23 54  1  0
 24 55  1  0
 25 56  1  6
 26 57  1  0
 26 58  1  0
 27 59  1  0
 27 60  1  0
 28 61  1  0
 28 62  1  0
 29 63  1  0
 29 64  1  0
 30 65  1  0
M  END
>  <PDBID>  (1) 
4LMN

>  <PDB ID>  (1) 
4LMN

>  <Generic Name>  (1) 
Cobimetinib

>  <Brand Name>  (1) 
Cotellic

>  <DrugBank ID>  (1) 
DB05239

>  <ATC Codes>  (1) 
nan

>  <Ligand ID>  (1) 
EUI

>  <Target Name>  (1) 
Dual specificity mitogen-activated protein kinase kinase 1

>  <UniProt ID>  (1) 
Q02750

>  <PDB ID.1>  (1) 
4LMN

>  <Seq. Identity>  (1) 
97%

$$$$
