PDB_DB00323_98
     RDKit          3D

 47 48  0  0  0  0  0  0  0  0999 V2000
  -26.6480   28.7070    3.7370 O   0  0  0  0  0  0  0  0  0  0  0  0
  -26.0080   29.2240    4.4910 C   0  0  0  0  0  0  0  0  0  0  0  0
  -24.9500   28.4050    5.3040 C   0  0  0  0  0  0  0  0  0  0  0  0
  -25.0480   26.9880    5.4240 C   0  0  0  0  0  0  0  0  0  0  0  0
  -24.0770   26.2940    6.1610 C   0  0  0  0  0  0  0  0  0  0  0  0
  -24.1720   24.8950    6.3020 O   0  0  0  0  0  0  0  0  0  0  0  0
  -23.8380   29.1270    5.9260 C   0  0  0  0  0  0  0  0  0  0  0  0
  -22.8530   28.4190    6.6720 C   0  0  0  0  0  0  0  0  0  0  0  0
  -21.8040   29.1650    7.2450 N   0  0  0  0  0  0  0  0  0  0  0  0
  -21.5320   30.3230    6.7390 O   0  0  0  0  0  0  0  0  0  0  0  0
  -21.0460   28.6860    8.3310 O   0  0  0  0  0  0  0  0  0  0  0  0
  -22.9440   27.0150    6.7970 C   0  0  0  0  0  0  0  0  0  0  0  0
  -22.0180   26.3080    7.4890 O   0  0  0  0  0  0  0  0  0  0  0  0
  -26.0640   30.7230    4.7810 C   0  0  0  0  0  0  0  0  0  0  0  0
  -25.9150   31.6140    3.8040 C   0  0  0  0  0  0  0  0  0  0  0  0
  -25.9540   33.0150    4.1230 C   0  0  0  0  0  0  0  0  0  0  0  0
  -26.1180   33.4180    5.3650 C   0  0  0  0  0  0  0  0  0  0  0  0
  -26.1500   34.9050    5.6950 C   0  0  0  0  0  0  0  0  0  0  0  0
  -26.2650   32.4820    6.4090 C   0  0  0  0  0  0  0  0  0  0  0  0
  -26.2340   31.1580    6.1040 C   0  0  0  0  0  0  0  0  0  0  0  0
  -27.3278   28.1578    4.2022 H   0  0  0  0  0  0  0  0  0  0  0  0
  -26.7605   29.0229    5.2677 H   0  0  0  0  0  0  0  0  0  0  0  0
  -25.5569   28.5240    6.2137 H   0  0  0  0  0  0  0  0  0  0  0  0
  -26.0205   26.7716    5.8903 H   0  0  0  0  0  0  0  0  0  0  0  0
  -24.9015   26.6280    4.3949 H   0  0  0  0  0  0  0  0  0  0  0  0
  -24.6754   26.4267    7.0744 H   0  0  0  0  0  0  0  0  0  0  0  0
  -24.1879   24.6606    7.2637 H   0  0  0  0  0  0  0  0  0  0  0  0
  -23.3073   29.6494    5.1164 H   0  0  0  0  0  0  0  0  0  0  0  0
  -24.3350   29.7442    6.6889 H   0  0  0  0  0  0  0  0  0  0  0  0
  -22.2573   28.2839    5.7572 H   0  0  0  0  0  0  0  0  0  0  0  0
  -21.3790   30.9743    7.4687 H   0  0  0  0  0  0  0  0  0  0  0  0
  -21.4768   28.9583    9.1797 H   0  0  0  0  0  0  0  0  0  0  0  0
  -22.3516   26.8948    5.8780 H   0  0  0  0  0  0  0  0  0  0  0  0
  -22.1713   26.4251    8.4600 H   0  0  0  0  0  0  0  0  0  0  0  0
  -24.9776   30.7303    4.9533 H   0  0  0  0  0  0  0  0  0  0  0  0
  -24.9393   31.4177    3.3356 H   0  0  0  0  0  0  0  0  0  0  0  0
  -26.8039   31.4635    3.1737 H   0  0  0  0  0  0  0  0  0  0  0  0
  -25.0011   33.4423    3.7776 H   0  0  0  0  0  0  0  0  0  0  0  0
  -26.8791   33.3519    3.6323 H   0  0  0  0  0  0  0  0  0  0  0  0
  -25.0279   33.4089    5.5119 H   0  0  0  0  0  0  0  0  0  0  0  0
  -26.1529   35.0383    6.7869 H   0  0  0  0  0  0  0  0  0  0  0  0
  -25.2622   35.3945    5.2682 H   0  0  0  0  0  0  0  0  0  0  0  0
  -27.0581   35.3559    5.2682 H   0  0  0  0  0  0  0  0  0  0  0  0
  -25.4539   32.6683    7.1283 H   0  0  0  0  0  0  0  0  0  0  0  0
  -27.2881   32.6488    6.7771 H   0  0  0  0  0  0  0  0  0  0  0  0
  -27.1881   30.7350    6.4516 H   0  0  0  0  0  0  0  0  0  0  0  0
  -25.3064   30.8206    6.5895 H   0  0  0  0  0  0  0  0  0  0  0  0
  1  2  1  0
  2  3  1  0
  3  4  1  0
  4  5  1  0
  5  6  1  0
  3  7  1  0
  7  8  1  0
  8  9  1  0
  9 10  1  0
  9 11  1  0
  5 12  1  0
  8 12  1  0
 12 13  1  0
  2 14  1  0
 14 15  1  0
 15 16  1  0
 16 17  1  0
 17 18  1  0
 17 19  1  0
 14 20  1  0
 19 20  1  0
  1 21  1  0
  2 22  1  0
  3 23  1  0
  4 24  1  0
  4 25  1  0
  5 26  1  0
  6 27  1  0
  7 28  1  0
  7 29  1  0
  8 30  1  0
 10 31  1  0
 11 32  1  0
 12 33  1  0
 13 34  1  0
 14 35  1  0
 15 36  1  0
 15 37  1  0
 16 38  1  0
 16 39  1  0
 17 40  1  0
 18 41  1  0
 18 42  1  0
 18 43  1  0
 19 44  1  0
 19 45  1  0
 20 46  1  0
 20 47  1  0
M  END
>  <PDBID>  (1) 
4PYL

>  <PDB ID>  (1) 
4PYL

>  <Generic Name>  (1) 
Tolcapone

>  <Brand Name>  (1) 
Tasmar#Tolcapone#Sen De Ning

>  <DrugBank ID>  (1) 
DB00323

>  <ATC Codes>  (1) 
N04BX01

>  <Ligand ID>  (1) 
TCW

>  <Target Name>  (1) 
Catechol O-methyltransferase

>  <UniProt ID>  (1) 
P21964

>  <PDB ID.1>  (1) 
4PYL

>  <Seq. Identity>  (1) 
81%

$$$$
