PDB_DB00819_93
     RDKit          3D

 19 19  0  0  0  0  0  0  0  0999 V2000
   -5.1540    2.3370   15.9330 C   0  0  0  0  0  0  0  0  0  0  0  0
   -4.6360    4.3040   14.5720 C   0  0  0  0  0  0  0  0  0  0  0  0
   -5.7680    6.0280   13.1420 C   0  0  0  0  0  0  0  0  0  0  0  0
   -5.6900    7.2280   12.2440 C   0  0  0  0  0  0  0  0  0  0  0  0
   -5.3930   -0.4220   16.1790 N   0  0  0  0  0  0  0  0  0  0  0  0
   -3.4900    3.6730   15.0100 N   0  0  0  0  0  0  0  0  0  0  0  0
   -3.7880    2.5110   15.8350 N   0  0  0  0  0  0  0  0  0  0  0  0
   -4.5960    5.4690   13.7350 N   0  0  0  0  0  0  0  0  0  0  0  0
   -5.5790    1.1160   18.2340 O   0  0  0  0  0  0  0  0  0  0  0  0
   -7.3640    1.2230   16.6380 O   0  0  0  0  0  0  0  0  0  0  0  0
   -6.8470    5.5170   13.3800 O   0  0  0  0  0  0  0  0  0  0  0  0
   -5.9090    1.0160   16.8230 S   0  0  0  0  0  0  0  0  0  0  0  0
   -5.9880    3.5080   15.1100 S   0  0  0  0  0  0  0  0  0  0  0  0
   -5.6307    8.1404   12.8556 H   0  0  0  0  0  0  0  0  0  0  0  0
   -4.7948    7.1533   11.6091 H   0  0  0  0  0  0  0  0  0  0  0  0
   -6.5873    7.2698   11.6091 H   0  0  0  0  0  0  0  0  0  0  0  0
   -5.1587   -1.0748   16.9405 H   0  0  0  0  0  0  0  0  0  0  0  0
   -6.1414   -0.8263   15.5982 H   0  0  0  0  0  0  0  0  0  0  0  0
   -3.6871    5.9189   13.5553 H   0  0  0  0  0  0  0  0  0  0  0  0
  3  4  1  0
  2  6  2  0
  1  7  2  0
  6  7  1  0
  2  8  1  0
  3  8  1  0
  3 11  2  0
  1 12  1  0
  5 12  1  0
  9 12  2  0
 10 12  2  0
  1 13  1  0
  2 13  1  0
  4 14  1  0
  4 15  1  0
  4 16  1  0
  5 17  1  0
  5 18  1  0
  8 19  1  0
M  END
>  <PDBID>  (1) 
3V2M

>  <PDB ID>  (1) 
3V2M

>  <Generic Name>  (1) 
Acetazolamide

>  <Brand Name>  (1) 
Acetazolam#Acetazolamide#Acetazolamide for Injection, USP#Diamox IV 500mg#Diamox Pws 500mg/vial#Diamox Sequels#Diamox Src 500mg#Diamox Tab 250mg#Diamox Tablets 250mg#Novo-zolamide Tab 250mg#Acemit#Acemox#Acetak#Acetamide#Acetazolamax#Azm#Azol#Azomid#Carbinib#Defiltran#Diabo#Diacarb#Diamox#Diamox Depot#Diazomid#Diluran#Diuramid#Défiltran#Edemox#Glaumox#Glaupax#Glupax#Huma-Zolamide#Iopar-SR#Medene#Oculten#Uramox#Zolmide#Ödemin

>  <DrugBank ID>  (1) 
DB00819

>  <ATC Codes>  (1) 
S01EC01

>  <Ligand ID>  (1) 
AZM

>  <Target Name>  (1) 
Carbonic anhydrase 2

>  <UniProt ID>  (1) 
P00918

>  <PDB ID.1>  (1) 
3V2M

>  <Seq. Identity>  (1) 
100%

$$$$
