PDB_DB02546_87
     RDKit          3D

 39 39  0  0  0  0  0  0  0  0999 V2000
   19.5810    0.0270   39.7340 O   0  0  0  0  0  0  0  0  0  0  0  0
   18.2160   -1.9680   38.8330 O   0  0  0  0  0  0  0  0  0  0  0  0
   20.1210   -1.2490   39.5750 N   0  0  0  0  0  0  0  0  0  0  0  0
   19.2820   -2.2080   39.3830 C   0  0  0  0  0  0  0  0  0  0  0  0
   19.7570   -3.5920   39.8220 C   0  0  0  0  0  0  0  0  0  0  0  0
   19.5430   -3.8960   41.3030 C   0  0  0  0  0  0  0  0  0  0  0  0
   19.9280   -5.3390   41.6330 C   0  0  0  0  0  0  0  0  0  0  0  0
   21.4280   -5.6130   41.5240 C   0  0  0  0  0  0  0  0  0  0  0  0
   21.8000   -6.8110   42.3780 C   0  0  0  0  0  0  0  0  0  0  0  0
   23.2170   -7.2410   42.0310 C   0  0  0  0  0  0  0  0  0  0  0  0
   23.6970   -8.2430   43.0490 C   0  0  0  0  0  0  0  0  0  0  0  0
   23.1190   -9.3160   43.1500 O   0  0  0  0  0  0  0  0  0  0  0  0
   24.7630   -7.8640   43.7610 N   0  0  0  0  0  0  0  0  0  0  0  0
   25.3450   -8.5590   44.7740 C   0  0  0  0  0  0  0  0  0  0  0  0
   26.7320   -8.6870   44.7840 C   0  0  0  0  0  0  0  0  0  0  0  0
   27.3800   -9.3720   45.8140 C   0  0  0  0  0  0  0  0  0  0  0  0
   26.6260   -9.9360   46.8450 C   0  0  0  0  0  0  0  0  0  0  0  0
   25.2340   -9.8020   46.8460 C   0  0  0  0  0  0  0  0  0  0  0  0
   24.5910   -9.1070   45.8140 C   0  0  0  0  0  0  0  0  0  0  0  0
   19.4947    0.2309   40.6989 H   0  0  0  0  0  0  0  0  0  0  0  0
   21.1368   -1.4160   39.6092 H   0  0  0  0  0  0  0  0  0  0  0  0
   19.2108   -4.3447   39.2346 H   0  0  0  0  0  0  0  0  0  0  0  0
   20.8434   -3.6178   39.6517 H   0  0  0  0  0  0  0  0  0  0  0  0
   20.1629   -3.2132   41.9026 H   0  0  0  0  0  0  0  0  0  0  0  0
   18.4769   -3.7580   41.5363 H   0  0  0  0  0  0  0  0  0  0  0  0
   19.6087   -5.5572   42.6628 H   0  0  0  0  0  0  0  0  0  0  0  0
   19.4282   -5.9829   40.8944 H   0  0  0  0  0  0  0  0  0  0  0  0
   21.6853   -5.8197   40.4747 H   0  0  0  0  0  0  0  0  0  0  0  0
   21.9828   -4.7313   41.8774 H   0  0  0  0  0  0  0  0  0  0  0  0
   21.7472   -6.5369   43.4420 H   0  0  0  0  0  0  0  0  0  0  0  0
   21.1012   -7.6383   42.1850 H   0  0  0  0  0  0  0  0  0  0  0  0
   23.2274   -7.6993   41.0311 H   0  0  0  0  0  0  0  0  0  0  0  0
   23.8802   -6.3634   42.0368 H   0  0  0  0  0  0  0  0  0  0  0  0
   25.1848   -6.9562   43.5182 H   0  0  0  0  0  0  0  0  0  0  0  0
   27.3243   -8.2429   43.9704 H   0  0  0  0  0  0  0  0  0  0  0  0
   28.4759   -9.4665   45.8131 H   0  0  0  0  0  0  0  0  0  0  0  0
   27.1266  -10.4854   47.6559 H   0  0  0  0  0  0  0  0  0  0  0  0
   24.6417  -10.2442   47.6606 H   0  0  0  0  0  0  0  0  0  0  0  0
   23.4969   -8.9933   45.8226 H   0  0  0  0  0  0  0  0  0  0  0  0
  3  1  1  0
  4  2  2  0
  4  3  1  0
  4  5  1  0
  5  6  1  0
  6  7  1  0
  7  8  1  0
  8  9  1  0
  9 10  1  0
 10 11  1  0
 11 12  2  0
 11 13  1  0
 13 14  1  0
 14 15  2  0
 15 16  1  0
 16 17  2  0
 17 18  1  0
 14 19  1  0
 18 19  2  0
  1 20  1  0
  3 21  1  0
  5 22  1  0
  5 23  1  0
  6 24  1  0
  6 25  1  0
  7 26  1  0
  7 27  1  0
  8 28  1  0
  8 29  1  0
  9 30  1  0
  9 31  1  0
 10 32  1  0
 10 33  1  0
 13 34  1  0
 15 35  1  0
 16 36  1  0
 17 37  1  0
 18 38  1  0
 19 39  1  0
M  END
$$$$
