PDB_DB06626_99
     RDKit          3D

 70 73  0  0  0  0  0  0  0  0999 V2000
   24.8310   23.4700   35.7940 O   0  0  0  0  0  0  0  0  0  0  0  0
   25.4990   22.8060   36.6100 C   0  0  0  0  0  0  0  0  0  0  0  0
   26.4150   21.9160   36.1840 N   0  0  0  0  0  0  0  0  0  0  0  0
   26.7820   21.7270   34.7830 C   0  0  0  0  0  0  0  0  0  0  0  0
   25.2920   23.0320   38.0660 C   0  0  0  0  0  0  0  0  0  0  0  0
   26.4560   22.9970   38.8890 C   0  0  0  0  0  0  0  0  0  0  0  0
   26.4090   23.2000   40.2910 C   0  0  0  0  0  0  0  0  0  0  0  0
   25.1560   23.4620   40.8850 C   0  0  0  0  0  0  0  0  0  0  0  0
   24.0180   23.2980   38.6740 C   0  0  0  0  0  0  0  0  0  0  0  0
   23.9820   23.4920   40.0940 C   0  0  0  0  0  0  0  0  0  0  0  0
   22.5100   23.3470   37.7880 S   0  0  0  0  0  0  0  0  0  0  0  0
   21.4890   24.5480   38.5260 C   0  0  0  0  0  0  0  0  0  0  0  0
   20.1230   24.2590   38.7960 C   0  0  0  0  0  0  0  0  0  0  0  0
   19.2570   25.2390   39.3920 C   0  0  0  0  0  0  0  0  0  0  0  0
   22.0200   25.8320   38.8650 C   0  0  0  0  0  0  0  0  0  0  0  0
   21.1780   26.7750   39.4500 C   0  0  0  0  0  0  0  0  0  0  0  0
   21.4300   28.0760   39.8550 N   0  0  0  0  0  0  0  0  0  0  0  0
   20.3390   28.5970   40.3060 N   0  0  0  0  0  0  0  0  0  0  0  0
   19.3710   27.7550   40.2740 C   0  0  0  0  0  0  0  0  0  0  0  0
   19.8440   26.5040   39.7110 C   0  0  0  0  0  0  0  0  0  0  0  0
   18.0180   28.1340   40.7130 C   0  0  0  0  0  0  0  0  0  0  0  0
   16.8850   27.3250   40.8080 C   0  0  0  0  0  0  0  0  0  0  0  0
   15.5470   27.8250   41.2730 C   0  0  0  0  0  0  0  0  0  0  0  0
   14.5760   26.8900   41.3370 N   0  0  0  0  0  0  0  0  0  0  0  0
   13.3190   27.2230   41.7450 C   0  0  0  0  0  0  0  0  0  0  0  0
   13.0020   28.5450   42.1030 C   0  0  0  0  0  0  0  0  0  0  0  0
   14.0040   29.5300   42.0410 C   0  0  0  0  0  0  0  0  0  0  0  0
   15.3120   29.1790   41.6160 C   0  0  0  0  0  0  0  0  0  0  0  0
   24.2206   24.0767   36.2834 H   0  0  0  0  0  0  0  0  0  0  0  0
   24.7300   22.0195   36.5996 H   0  0  0  0  0  0  0  0  0  0  0  0
   27.2891   22.1607   36.6707 H   0  0  0  0  0  0  0  0  0  0  0  0
   27.7585   21.2241   34.7244 H   0  0  0  0  0  0  0  0  0  0  0  0
   26.0207   21.1088   34.2847 H   0  0  0  0  0  0  0  0  0  0  0  0
   26.8431   22.7058   34.2847 H   0  0  0  0  0  0  0  0  0  0  0  0
   25.1546   21.9507   38.2143 H   0  0  0  0  0  0  0  0  0  0  0  0
   26.9045   22.0037   38.7400 H   0  0  0  0  0  0  0  0  0  0  0  0
   26.9952   23.8944   38.5514 H   0  0  0  0  0  0  0  0  0  0  0  0
   26.8117   22.2930   40.7656 H   0  0  0  0  0  0  0  0  0  0  0  0
   26.9855   24.1228   40.4524 H   0  0  0  0  0  0  0  0  0  0  0  0
   25.0013   22.6877   41.6508 H   0  0  0  0  0  0  0  0  0  0  0  0
   25.2542   24.5036   41.2249 H   0  0  0  0  0  0  0  0  0  0  0  0
   23.8611   22.2187   38.8175 H   0  0  0  0  0  0  0  0  0  0  0  0
   23.3204   22.7100   40.4950 H   0  0  0  0  0  0  0  0  0  0  0  0
   23.6751   24.5452   40.1757 H   0  0  0  0  0  0  0  0  0  0  0  0
   21.2125   24.9248   37.5302 H   0  0  0  0  0  0  0  0  0  0  0  0
   19.6666   23.9842   37.8336 H   0  0  0  0  0  0  0  0  0  0  0  0
   20.1917   23.4917   39.5812 H   0  0  0  0  0  0  0  0  0  0  0  0
   18.4290   25.4226   38.6915 H   0  0  0  0  0  0  0  0  0  0  0  0
   18.9537   24.8085   40.3578 H   0  0  0  0  0  0  0  0  0  0  0  0
   22.8514   25.6630   39.5651 H   0  0  0  0  0  0  0  0  0  0  0  0
   22.2808   26.2761   37.8930 H   0  0  0  0  0  0  0  0  0  0  0  0
   21.4618   26.4094   40.4479 H   0  0  0  0  0  0  0  0  0  0  0  0
   22.1438   28.0739   40.5975 H   0  0  0  0  0  0  0  0  0  0  0  0
   20.4889   28.8988   41.2793 H   0  0  0  0  0  0  0  0  0  0  0  0
   19.0995   28.1054   39.2673 H   0  0  0  0  0  0  0  0  0  0  0  0
   20.1157   26.1265   40.7078 H   0  0  0  0  0  0  0  0  0  0  0  0
   18.1576   28.5368   41.7270 H   0  0  0  0  0  0  0  0  0  0  0  0
   17.7217   28.7303   39.8374 H   0  0  0  0  0  0  0  0  0  0  0  0
   16.7202   26.9185   39.7993 H   0  0  0  0  0  0  0  0  0  0  0  0
   17.1655   26.6586   41.6370 H   0  0  0  0  0  0  0  0  0  0  0  0
   15.2672   28.0443   40.2320 H   0  0  0  0  0  0  0  0  0  0  0  0
   14.4837   26.4955   40.3900 H   0  0  0  0  0  0  0  0  0  0  0  0
   12.6405   26.9499   40.9234 H   0  0  0  0  0  0  0  0  0  0  0  0
   13.2226   26.6836   42.6988 H   0  0  0  0  0  0  0  0  0  0  0  0
   12.1881   28.8718   41.4391 H   0  0  0  0  0  0  0  0  0  0  0  0
   12.7667   28.4772   43.1754 H   0  0  0  0  0  0  0  0  0  0  0  0
   13.6434   30.3084   41.3525 H   0  0  0  0  0  0  0  0  0  0  0  0
   14.1458   29.8166   43.0935 H   0  0  0  0  0  0  0  0  0  0  0  0
   16.0037   29.4371   42.4314 H   0  0  0  0  0  0  0  0  0  0  0  0
   15.4608   29.7353   40.6788 H   0  0  0  0  0  0  0  0  0  0  0  0
  1  2  1  0
  2  3  1  0
  3  4  1  0
  2  5  1  0
  5  6  1  0
  6  7  1  0
  7  8  1  0
  5  9  1  0
  8 10  1  0
  9 10  1  0
  9 11  1  0
 11 12  1  0
 12 13  1  0
 13 14  1  0
 12 15  1  0
 15 16  1  0
 16 17  1  0
 17 18  1  0
 18 19  1  0
 14 20  1  0
 16 20  1  0
 19 20  1  0
 19 21  1  0
 21 22  1  0
 22 23  1  0
 23 24  1  0
 24 25  1  0
 25 26  1  0
 26 27  1  0
 23 28  1  0
 27 28  1  0
  1 29  1  0
  2 30  1  0
  3 31  1  0
  4 32  1  0
  4 33  1  0
  4 34  1  0
  5 35  1  0
  6 36  1  0
  6 37  1  0
  7 38  1  0
  7 39  1  0
  8 40  1  0
  8 41  1  0
  9 42  1  0
 10 43  1  0
 10 44  1  0
 12 45  1  0
 13 46  1  0
 13 47  1  0
 14 48  1  0
 14 49  1  0
 15 50  1  0
 15 51  1  0
 16 52  1  0
 17 53  1  0
 18 54  1  0
 19 55  1  0
 20 56  1  0
 21 57  1  0
 21 58  1  0
 22 59  1  0
 22 60  1  0
 23 61  1  0
 24 62  1  0
 25 63  1  0
 25 64  1  0
 26 65  1  0
 26 66  1  0
 27 67  1  0
 27 68  1  0
 28 69  1  0
 28 70  1  0
M  END
>  <PDBID>  (1) 
4AG8

>  <PDB ID>  (1) 
4AG8

>  <Generic Name>  (1) 
Axitinib

>  <Brand Name>  (1) 
Inlyta

>  <DrugBank ID>  (1) 
DB06626

>  <ATC Codes>  (1) 
L01XE17

>  <Ligand ID>  (1) 
AXI

>  <Target Name>  (1) 
Vascular endothelial growth factor receptor 3

>  <UniProt ID>  (1) 
P35916

>  <PDB ID.1>  (1) 
4AG8

>  <Seq. Identity>  (1) 
67%

$$$$
