PDB_DB00188_92
     RDKit          3D

 53 54  0  0  0  0  0  0  0  0999 V2000
    8.9700 -138.3040   19.4460 N   0  0  0  0  0  0  0  0  0  0  0  0
    9.6800 -137.1860   19.2050 C   0  0  0  0  0  0  0  0  0  0  0  0
    9.4060 -136.0170   19.9170 C   0  0  0  0  0  0  0  0  0  0  0  0
    8.3920 -136.0090   20.8900 N   0  0  0  0  0  0  0  0  0  0  0  0
    7.6590 -137.1800   21.1380 C   0  0  0  0  0  0  0  0  0  0  0  0
    7.9520 -138.3300   20.4120 C   0  0  0  0  0  0  0  0  0  0  0  0
   10.6800 -137.2110   18.2320 C   0  0  0  0  0  0  0  0  0  0  0  0
   11.2550 -136.1770   17.8860 O   0  0  0  0  0  0  0  0  0  0  0  0
   10.9400 -138.4310   17.7240 N   0  0  0  0  0  0  0  0  0  0  0  0
   11.9360 -138.6460   16.6650 C   0  0  1  0  0  0  0  0  0  0  0  0
   12.5510 -140.0220   16.8590 C   0  0  0  0  0  0  0  0  0  0  0  0
   13.3870 -140.3110   15.7540 C   0  0  0  0  0  0  0  0  0  0  0  0
   14.5180 -139.5300   15.4930 C   0  0  0  0  0  0  0  0  0  0  0  0
   15.3490 -139.8150   14.4070 C   0  0  0  0  0  0  0  0  0  0  0  0
   15.0660 -140.8930   13.5720 C   0  0  0  0  0  0  0  0  0  0  0  0
   13.9460 -141.6810   13.8260 C   0  0  0  0  0  0  0  0  0  0  0  0
   13.1130 -141.3940   14.9110 C   0  0  0  0  0  0  0  0  0  0  0  0
   11.1780 -138.5690   15.3380 C   0  0  0  0  0  0  0  0  0  0  0  0
   10.2660 -139.3610   15.1070 O   0  0  0  0  0  0  0  0  0  0  0  0
   11.5610 -137.5860   14.5000 N   0  0  0  0  0  0  0  0  0  0  0  0
   10.9320 -137.4110   13.1790 C   0  0  1  0  0  0  0  0  0  0  0  0
   10.9000 -135.9530   12.7470 C   0  0  0  0  0  0  0  0  0  0  0  0
   10.2770 -135.0620   13.8470 C   0  0  0  0  0  0  0  0  0  0  0  0
   10.2210 -133.6150   13.3190 C   0  0  0  0  0  0  0  0  0  0  0  0
    8.8660 -135.5220   14.2750 C   0  0  0  0  0  0  0  0  0  0  0  0
   11.7370 -138.1990   12.1230 B   0  0  0  0  0  0  0  0  0  0  0  0
   11.8030 -139.5910   12.4690 O   0  0  0  0  0  0  0  0  0  0  0  0
   13.0670 -137.6610   12.0350 O   0  0  0  0  0  0  0  0  0  0  0  0
    9.9835 -135.1025   19.7166 H   0  0  0  0  0  0  0  0  0  0  0  0
    6.8628 -137.1883   21.8969 H   0  0  0  0  0  0  0  0  0  0  0  0
    7.3878 -139.2565   20.5944 H   0  0  0  0  0  0  0  0  0  0  0  0
   10.4222 -139.2423   18.0909 H   0  0  0  0  0  0  0  0  0  0  0  0
   12.7444 -137.9003   16.6849 H   0  0  0  0  0  0  0  0  0  0  0  0
   13.1453 -140.0336   17.7845 H   0  0  0  0  0  0  0  0  0  0  0  0
   11.7558 -140.7784   16.9323 H   0  0  0  0  0  0  0  0  0  0  0  0
   14.7558 -138.6812   16.1510 H   0  0  0  0  0  0  0  0  0  0  0  0
   16.2298 -139.1859   14.2107 H   0  0  0  0  0  0  0  0  0  0  0  0
   15.7218 -141.1203   12.7186 H   0  0  0  0  0  0  0  0  0  0  0  0
   13.7160 -142.5332   13.1696 H   0  0  0  0  0  0  0  0  0  0  0  0
   12.2334 -142.0256   15.1042 H   0  0  0  0  0  0  0  0  0  0  0  0
   12.3108 -136.9419   14.7894 H   0  0  0  0  0  0  0  0  0  0  0  0
    9.8982 -137.7784   13.2587 H   0  0  0  0  0  0  0  0  0  0  0  0
   11.9275 -135.6140   12.5488 H   0  0  0  0  0  0  0  0  0  0  0  0
   10.2847 -135.8702   11.8390 H   0  0  0  0  0  0  0  0  0  0  0  0
   10.9089 -135.1369   14.7442 H   0  0  0  0  0  0  0  0  0  0  0  0
   10.1939 -132.9158   14.1677 H   0  0  0  0  0  0  0  0  0  0  0  0
   11.1120 -133.4135   12.7062 H   0  0  0  0  0  0  0  0  0  0  0  0
    9.3171 -133.4830   12.7062 H   0  0  0  0  0  0  0  0  0  0  0  0
    8.8043 -135.5421   15.3731 H   0  0  0  0  0  0  0  0  0  0  0  0
    8.1160 -134.8218   13.8784 H   0  0  0  0  0  0  0  0  0  0  0  0
    8.6728 -136.5296   13.8784 H   0  0  0  0  0  0  0  0  0  0  0  0
   11.8075 -139.6863   13.4544 H   0  0  0  0  0  0  0  0  0  0  0  0
   13.4253 -137.5161   12.9464 H   0  0  0  0  0  0  0  0  0  0  0  0
  1  2  2  0
  2  3  1  0
  3  4  2  0
  4  5  1  0
  1  6  1  0
  5  6  2  0
  2  7  1  0
  7  8  2  0
  7  9  1  0
  9 10  1  0
 10 11  1  0
 11 12  1  0
 12 13  2  0
 13 14  1  0
 14 15  2  0
 15 16  1  0
 12 17  1  0
 16 17  2  0
 10 18  1  0
 18 19  2  0
 18 20  1  0
 20 21  1  0
 21 22  1  0
 22 23  1  0
 23 24  1  0
 23 25  1  0
 21 26  1  0
 26 27  1  0
 26 28  1  0
  3 29  1  0
  5 30  1  0
  6 31  1  0
  9 32  1  0
 10 33  1  6
 11 34  1  0
 11 35  1  0
 13 36  1  0
 14 37  1  0
 15 38  1  0
 16 39  1  0
 17 40  1  0
 20 41  1  0
 21 42  1  1
 22 43  1  0
 22 44  1  0
 23 45  1  0
 24 46  1  0
 24 47  1  0
 24 48  1  0
 25 49  1  0
 25 50  1  0
 25 51  1  0
 27 52  1  0
 28 53  1  0
M  END
$$$$
