PDB_DB09324_99
     RDKit          3D

 26 27  0  0  0  0  0  0  0  0999 V2000
   10.6240   34.2060    0.3590 C   0  0  0  0  0  0  0  0  0  0  0  0
   10.5580   35.1840    1.5530 C   0  0  0  0  0  0  0  0  0  0  0  0
   11.6830   36.2270    1.4980 C   0  0  0  0  0  0  0  0  0  0  0  0
    8.9460   36.0340    1.5710 S   0  0  0  0  0  0  0  0  0  0  0  0
    8.9940   37.2440    2.4710 O   0  0  0  0  0  0  0  0  0  0  0  0
    8.4610   36.3840    0.1860 O   0  0  0  0  0  0  0  0  0  0  0  0
    8.0230   34.6820    2.3480 C   0  0  2  0  0  0  0  0  0  0  0  0
    7.2610   35.1210    3.5780 C   0  0  0  0  0  0  0  0  0  0  0  0
    8.4170   34.5070    4.3660 C   0  0  0  0  0  0  0  0  0  0  0  0
    8.6450   34.3970    5.5730 O   0  0  0  0  0  0  0  0  0  0  0  0
    9.0590   34.1070    3.2480 N   0  0  0  0  0  0  0  0  0  0  0  0
   10.4910   34.4790    2.9430 C   0  0  1  0  0  0  0  0  0  0  0  0
   11.4240   33.2540    3.0150 C   0  0  0  0  0  0  0  0  0  0  0  0
   10.9000   32.1190    3.0010 O   0  0  0  0  0  0  0  0  0  0  0  0
   12.6580   33.4770    3.1020 O   0  0  0  0  0  0  0  0  0  0  0  0
   10.6936   33.1741    0.7337 H   0  0  0  0  0  0  0  0  0  0  0  0
    9.7166   34.3133   -0.2534 H   0  0  0  0  0  0  0  0  0  0  0  0
   11.5088   34.4342   -0.2534 H   0  0  0  0  0  0  0  0  0  0  0  0
   11.9790   36.5014    2.5213 H   0  0  0  0  0  0  0  0  0  0  0  0
   12.5487   35.8049    0.9667 H   0  0  0  0  0  0  0  0  0  0  0  0
   11.3275   37.1221    0.9667 H   0  0  0  0  0  0  0  0  0  0  0  0
    7.4622   34.1625    1.5571 H   0  0  0  0  0  0  0  0  0  0  0  0
    7.1453   36.2090    3.6913 H   0  0  0  0  0  0  0  0  0  0  0  0
    6.2095   34.8508    3.7552 H   0  0  0  0  0  0  0  0  0  0  0  0
   10.8487   35.1820    3.7097 H   0  0  0  0  0  0  0  0  0  0  0  0
   13.2954   32.7211    3.1508 H   0  0  0  0  0  0  0  0  0  0  0  0
  1  2  1  0
  2  3  1  0
  2  4  1  0
  4  5  2  0
  4  6  2  0
  4  7  1  0
  7  8  1  0
  8  9  1  0
  9 10  2  0
  7 11  1  0
  9 11  1  0
  2 12  1  0
 11 12  1  0
 12 13  1  0
 13 14  2  0
 13 15  1  0
  1 16  1  0
  1 17  1  0
  1 18  1  0
  3 19  1  0
  3 20  1  0
  3 21  1  0
  7 22  1  6
  8 23  1  0
  8 24  1  0
 12 25  1  1
 15 26  1  0
M  END
>  <PDBID>  (1) 
4FH2

>  <PDB ID>  (1) 
4FH2

>  <Generic Name>  (1) 
Sulbactam

>  <Brand Name>  (1) 
Ampicillin Sodium and Sulbactam Sodium#Ampicillin and Sulbactam#Unasyn

>  <DrugBank ID>  (1) 
DB09324

>  <ATC Codes>  (1) 
J01CG01

>  <Ligand ID>  (1) 
0RN

>  <Target Name>  (1) 
Beta-lactamase

>  <UniProt ID>  (1) 
P00807

>  <PDB ID.1>  (1) 
4FH2

>  <Seq. Identity>  (1) 
31%

$$$$
