PDB_DB00806_99
     RDKit          3D

 38 39  0  0  0  0  0  0  0  0999 V2000
   39.9500   15.7000  -28.6970 C   0  0  0  0  0  0  0  0  0  0  0  0
   39.9740   15.3860  -27.2170 C   0  0  0  0  0  0  0  0  0  0  0  0
   40.0460   14.2180  -26.8610 O   0  0  0  0  0  0  0  0  0  0  0  0
   39.9090   16.5140  -26.2080 C   0  0  0  0  0  0  0  0  0  0  0  0
   39.7630   16.0360  -24.7610 C   0  0  0  0  0  0  0  0  0  0  0  0
   41.1300   15.8710  -24.0980 C   0  0  0  0  0  0  0  0  0  0  0  0
   41.7740   17.2370  -23.8400 C   0  0  0  0  0  0  0  0  0  0  0  0
   43.2350   17.1890  -24.0050 N   0  0  0  0  0  0  0  0  0  0  0  0
   43.9830   16.9800  -22.8900 C   0  0  0  0  0  0  0  0  0  0  0  0
   43.4590   16.8300  -21.7970 O   0  0  0  0  0  0  0  0  0  0  0  0
   45.3720   16.9450  -23.0650 C   0  0  0  0  0  0  0  0  0  0  0  0
   46.4020   16.7550  -22.1950 N   0  0  0  0  0  0  0  0  0  0  0  0
   46.3660   16.5280  -20.7480 C   0  0  0  0  0  0  0  0  0  0  0  0
   47.5530   16.8080  -22.9050 C   0  0  0  0  0  0  0  0  0  0  0  0
   47.2690   17.0230  -24.2070 N   0  0  0  0  0  0  0  0  0  0  0  0
   45.9260   17.1190  -24.3400 C   0  0  0  0  0  0  0  0  0  0  0  0
   45.1490   17.3300  -25.4320 N   0  0  0  0  0  0  0  0  0  0  0  0
   45.7430   17.5140  -26.7580 C   0  0  0  0  0  0  0  0  0  0  0  0
   43.8030   17.3600  -25.2340 C   0  0  0  0  0  0  0  0  0  0  0  0
   43.0930   17.5460  -26.2150 O   0  0  0  0  0  0  0  0  0  0  0  0
   39.8669   16.7875  -28.8398 H   0  0  0  0  0  0  0  0  0  0  0  0
   40.8784   15.3388  -29.1636 H   0  0  0  0  0  0  0  0  0  0  0  0
   39.0873   15.2019  -29.1636 H   0  0  0  0  0  0  0  0  0  0  0  0
   40.8335   17.1048  -26.2872 H   0  0  0  0  0  0  0  0  0  0  0  0
   39.0121   17.1056  -26.4437 H   0  0  0  0  0  0  0  0  0  0  0  0
   39.1759   16.7747  -24.1957 H   0  0  0  0  0  0  0  0  0  0  0  0
   39.2549   15.0604  -24.7639 H   0  0  0  0  0  0  0  0  0  0  0  0
   41.0059   15.3435  -23.1407 H   0  0  0  0  0  0  0  0  0  0  0  0
   41.7820   15.2934  -24.7698 H   0  0  0  0  0  0  0  0  0  0  0  0
   41.3587   17.9669  -24.5505 H   0  0  0  0  0  0  0  0  0  0  0  0
   41.5553   17.5290  -22.8023 H   0  0  0  0  0  0  0  0  0  0  0  0
   46.5174   17.4828  -20.2232 H   0  0  0  0  0  0  0  0  0  0  0  0
   45.3897   16.1061  -20.4672 H   0  0  0  0  0  0  0  0  0  0  0  0
   47.1638   15.8247  -20.4672 H   0  0  0  0  0  0  0  0  0  0  0  0
   48.5636   16.6936  -22.4859 H   0  0  0  0  0  0  0  0  0  0  0  0
   46.7886   17.8379  -26.6496 H   0  0  0  0  0  0  0  0  0  0  0  0
   45.7090   16.5632  -27.3101 H   0  0  0  0  0  0  0  0  0  0  0  0
   45.1775   18.2791  -27.3101 H   0  0  0  0  0  0  0  0  0  0  0  0
  1  2  1  0
  2  3  2  0
  2  4  1  0
  4  5  1  0
  5  6  1  0
  6  7  1  0
  7  8  1  0
  8  9  1  0
  9 10  2  0
  9 11  1  0
 11 12  1  0
 12 13  1  0
 12 14  1  0
 14 15  2  0
 11 16  2  0
 15 16  1  0
 16 17  1  0
 17 18  1  0
  8 19  1  0
 17 19  1  0
 19 20  2  0
  1 21  1  0
  1 22  1  0
  1 23  1  0
  4 24  1  0
  4 25  1  0
  5 26  1  0
  5 27  1  0
  6 28  1  0
  6 29  1  0
  7 30  1  0
  7 31  1  0
 13 32  1  0
 13 33  1  0
 13 34  1  0
 14 35  1  0
 18 36  1  0
 18 37  1  0
 18 38  1  0
M  END
$$$$
