PDB_DB00988_99
     RDKit          3D

 28 28  0  0  0  0  0  0  0  0999 V2000
   -9.1900    2.9910  -26.8180 C   0  0  0  0  0  0  0  0  0  0  0  0
  -10.3400    3.5770  -26.0270 C   0  0  0  0  0  0  0  0  0  0  0  0
  -12.4980    4.6400  -24.6610 C   0  0  0  0  0  0  0  0  0  0  0  0
  -10.2010    3.9530  -24.6980 C   0  0  0  0  0  0  0  0  0  0  0  0
  -11.5520    3.7360  -26.6700 C   0  0  0  0  0  0  0  0  0  0  0  0
  -12.6300    4.2650  -25.9880 C   0  0  0  0  0  0  0  0  0  0  0  0
  -11.2860    4.4830  -24.0140 C   0  0  0  0  0  0  0  0  0  0  0  0
  -11.1680    4.8700  -22.6660 O   0  0  0  0  0  0  0  0  0  0  0  0
  -13.6040    5.1790  -23.9760 O   0  0  0  0  0  0  0  0  0  0  0  0
   -8.2750    2.2140  -25.8960 C   0  0  0  0  0  0  0  0  0  0  0  0
   -7.3840    1.4100  -26.6670 N   0  0  0  0  0  0  0  0  0  0  0  0
   -8.6850    3.7130  -27.2430 H   0  0  0  0  0  0  0  0  0  0  0  0
   -9.5410    2.3920  -27.5070 H   0  0  0  0  0  0  0  0  0  0  0  0
   -9.3440    3.8400  -24.2440 H   0  0  0  0  0  0  0  0  0  0  0  0
  -11.6470    3.4710  -27.6040 H   0  0  0  0  0  0  0  0  0  0  0  0
  -13.4870    4.3760  -26.4430 H   0  0  0  0  0  0  0  0  0  0  0  0
  -10.9730    5.7360  -22.6230 H   0  0  0  0  0  0  0  0  0  0  0  0
  -14.2500    4.5700  -23.9310 H   0  0  0  0  0  0  0  0  0  0  0  0
   -8.8130    1.6380  -25.3140 H   0  0  0  0  0  0  0  0  0  0  0  0
   -7.7580    2.8400  -25.3480 H   0  0  0  0  0  0  0  0  0  0  0  0
   -7.3900    0.5530  -26.3440 H   0  0  0  0  0  0  0  0  0  0  0  0
   -6.5360    1.7530  -26.6090 H   0  0  0  0  0  0  0  0  0  0  0  0
  -10.6369    2.5664  -25.7100 H   0  0  0  0  0  0  0  0  0  0  0  0
  -12.7972    3.6295  -24.3457 H   0  0  0  0  0  0  0  0  0  0  0  0
   -9.9067    4.9644  -25.0149 H   0  0  0  0  0  0  0  0  0  0  0  0
  -11.8506    2.7245  -26.3574 H   0  0  0  0  0  0  0  0  0  0  0  0
  -12.3332    5.2762  -26.3033 H   0  0  0  0  0  0  0  0  0  0  0  0
  -11.5836    3.4710  -23.7020 H   0  0  0  0  0  0  0  0  0  0  0  0
  1  2  1  0
  2  4  1  0
  2  5  1  0
  3  6  1  0
  5  6  1  0
  3  7  1  0
  4  7  1  0
  7  8  1  0
  3  9  1  0
  1 10  1  0
 10 11  1  0
  1 12  1  0
  1 13  1  0
  4 14  1  0
  5 15  1  0
  6 16  1  0
  8 17  1  0
  9 18  1  0
 10 19  1  0
 10 20  1  0
 11 21  1  0
 11 22  1  0
  2 23  1  0
  3 24  1  0
  4 25  1  0
  5 26  1  0
  6 27  1  0
  7 28  1  0
M  END
>  <PDBID>  (1) 
4XP1

>  <PDB ID>  (1) 
4XP1

>  <Generic Name>  (1) 
Dopamine

>  <Brand Name>  (1) 
Dopamine#Dopamine HCl#Dopamine HCl Inj 4%#Dopamine Hydrochloride#Dopamine Hydrochloride and Dextrose#Intropin Injection 40mg/ml#Intropin#Revimine

>  <DrugBank ID>  (1) 
DB00988

>  <ATC Codes>  (1) 
C01CA04

>  <Ligand ID>  (1) 
LDP

>  <Target Name>  (1) 
Sodium-dependent dopamine transporter

>  <UniProt ID>  (1) 
Q01959

>  <PDB ID.1>  (1) 
4XP1

>  <Seq. Identity>  (1) 
52%

$$$$
