PDB_DB00834_88
     RDKit          3D

 67 71  0  0  0  0  0  0  0  0999 V2000
  -45.3730   35.9620  -62.5260 O   0  0  0  0  0  0  0  0  0  0  0  0
  -46.1320   36.3370  -61.6490 C   0  0  0  0  0  0  0  0  0  0  0  0
  -46.6090   35.3090  -60.6530 C   0  0  0  0  0  0  0  0  0  0  0  0
  -46.5380   37.6910  -61.6050 C   0  0  0  0  0  0  0  0  0  0  0  0
  -47.3750   38.1440  -60.6430 C   0  0  0  0  0  0  0  0  0  0  0  0
  -47.8350   39.5840  -60.5700 C   0  0  0  0  0  0  0  0  0  0  0  0
  -47.8950   37.2320  -59.6220 C   0  0  0  0  0  0  0  0  0  0  0  0
  -47.1530   35.9390  -59.3710 C   0  0  0  0  0  0  0  0  0  0  0  0
  -48.9800   37.5400  -58.8980 C   0  0  0  0  0  0  0  0  0  0  0  0
  -49.4300   36.5200  -57.8530 C   0  0  1  0  0  0  0  0  0  0  0  0
  -48.7220   36.7680  -56.5380 C   0  0  0  0  0  0  0  0  0  0  0  0
  -49.0510   36.0580  -55.4020 C   0  0  0  0  0  0  0  0  0  0  0  0
  -48.3640   36.3080  -54.2280 C   0  0  0  0  0  0  0  0  0  0  0  0
  -47.3470   37.2630  -54.1890 C   0  0  0  0  0  0  0  0  0  0  0  0
  -46.6400   37.5160  -53.0100 N   0  0  0  0  0  0  0  0  0  0  0  0
  -46.9610   36.7910  -51.7790 C   0  0  0  0  0  0  0  0  0  0  0  0
  -45.5760   38.5200  -53.0170 C   0  0  0  0  0  0  0  0  0  0  0  0
  -47.0110   37.9690  -55.3350 C   0  0  0  0  0  0  0  0  0  0  0  0
  -47.6950   37.7070  -56.5060 C   0  0  0  0  0  0  0  0  0  0  0  0
  -50.9530   36.3990  -57.6850 C   0  0  0  0  0  0  0  0  0  0  0  0
  -51.5320   37.7900  -57.7050 C   0  0  2  0  0  0  0  0  0  0  0  0
  -50.9690   38.5100  -56.4780 C   0  0  0  0  0  0  0  0  0  0  0  0
  -53.0480   37.8510  -57.7720 C   0  0  1  0  0  0  0  0  0  0  0  0
  -53.4750   36.9650  -58.8580 C   0  0  0  0  0  0  0  0  0  0  0  0
  -53.8000   36.2570  -59.7280 C   0  0  0  0  0  0  0  0  0  0  0  0
  -54.2460   35.3350  -60.7890 C   0  0  0  0  0  0  0  0  0  0  0  0
  -53.6540   37.4860  -56.5230 O   0  0  0  0  0  0  0  0  0  0  0  0
  -53.3340   39.3110  -58.1810 C   0  0  0  0  0  0  0  0  0  0  0  0
  -52.1490   39.6870  -59.1210 C   0  0  0  0  0  0  0  0  0  0  0  0
  -51.2070   38.4710  -59.0780 C   0  0  1  0  0  0  0  0  0  0  0  0
  -49.7340   38.8270  -59.0810 C   0  0  2  0  0  0  0  0  0  0  0  0
  -49.3610   39.5620  -60.3540 C   0  0  0  0  0  0  0  0  0  0  0  0
  -47.4073   34.7120  -61.1181 H   0  0  0  0  0  0  0  0  0  0  0  0
  -45.7447   34.6870  -60.3772 H   0  0  0  0  0  0  0  0  0  0  0  0
  -46.1658   38.3902  -62.3683 H   0  0  0  0  0  0  0  0  0  0  0  0
  -47.3423   40.0953  -59.7299 H   0  0  0  0  0  0  0  0  0  0  0  0
  -47.5780   40.1243  -61.4930 H   0  0  0  0  0  0  0  0  0  0  0  0
  -47.8413   35.2259  -58.8937 H   0  0  0  0  0  0  0  0  0  0  0  0
  -46.2930   36.1709  -58.7255 H   0  0  0  0  0  0  0  0  0  0  0  0
  -49.1304   35.5342  -58.2381 H   0  0  0  0  0  0  0  0  0  0  0  0
  -49.8499   35.3023  -55.4295 H   0  0  0  0  0  0  0  0  0  0  0  0
  -48.6216   35.7489  -53.3164 H   0  0  0  0  0  0  0  0  0  0  0  0
  -46.6884   37.4067  -50.9092 H   0  0  0  0  0  0  0  0  0  0  0  0
  -48.0391   36.5744  -51.7515 H   0  0  0  0  0  0  0  0  0  0  0  0
  -46.3966   35.8472  -51.7515 H   0  0  0  0  0  0  0  0  0  0  0  0
  -45.3057   38.7750  -51.9817 H   0  0  0  0  0  0  0  0  0  0  0  0
  -44.6947   38.1167  -53.5373 H   0  0  0  0  0  0  0  0  0  0  0  0
  -45.9275   39.4232  -53.5373 H   0  0  0  0  0  0  0  0  0  0  0  0
  -46.2126   38.7253  -55.3114 H   0  0  0  0  0  0  0  0  0  0  0  0
  -47.4246   38.2474  -57.4252 H   0  0  0  0  0  0  0  0  0  0  0  0
  -51.3744   35.8067  -58.5106 H   0  0  0  0  0  0  0  0  0  0  0  0
  -51.1957   35.8960  -56.7373 H   0  0  0  0  0  0  0  0  0  0  0  0
  -51.3464   38.0274  -55.5644 H   0  0  0  0  0  0  0  0  0  0  0  0
  -49.8704   38.4569  -56.4937 H   0  0  0  0  0  0  0  0  0  0  0  0
  -51.2854   39.5634  -56.4937 H   0  0  0  0  0  0  0  0  0  0  0  0
  -54.6818   34.4341  -60.3325 H   0  0  0  0  0  0  0  0  0  0  0  0
  -55.0030   35.8327  -61.4129 H   0  0  0  0  0  0  0  0  0  0  0  0
  -53.3859   35.0505  -61.4129 H   0  0  0  0  0  0  0  0  0  0  0  0
  -53.0976   37.8211  -55.7759 H   0  0  0  0  0  0  0  0  0  0  0  0
  -54.2932   39.3855  -58.7143 H   0  0  0  0  0  0  0  0  0  0  0  0
  -53.4117   39.9829  -57.3135 H   0  0  0  0  0  0  0  0  0  0  0  0
  -52.5086   39.8618  -60.1458 H   0  0  0  0  0  0  0  0  0  0  0  0
  -51.6456   40.6117  -58.8025 H   0  0  0  0  0  0  0  0  0  0  0  0
  -51.3677   37.8484  -59.9705 H   0  0  0  0  0  0  0  0  0  0  0  0
  -49.4782   39.5188  -58.2649 H   0  0  0  0  0  0  0  0  0  0  0  0
  -49.7273   40.5972  -60.2889 H   0  0  0  0  0  0  0  0  0  0  0  0
  -49.8211   39.0351  -61.2029 H   0  0  0  0  0  0  0  0  0  0  0  0
  1  2  2  0
  2  3  1  0
  2  4  1  0
  4  5  2  0
  5  6  1  0
  5  7  1  0
  3  8  1  0
  7  8  1  0
  7  9  2  0
  9 10  1  0
 10 11  1  0
 11 12  2  0
 12 13  1  0
 13 14  2  0
 14 15  1  0
 15 16  1  0
 15 17  1  0
 14 18  1  0
 11 19  1  0
 18 19  2  0
 10 20  1  0
 20 21  1  0
 21 22  1  1
 21 23  1  0
 23 24  1  6
 24 25  3  0
 25 26  1  0
 23 27  1  0
 23 28  1  0
 28 29  1  0
 21 30  1  0
 29 30  1  0
  9 31  1  0
 30 31  1  0
  6 32  1  0
 31 32  1  0
  3 33  1  0
  3 34  1  0
  4 35  1  0
  6 36  1  0
  6 37  1  0
  8 38  1  0
  8 39  1  0
 10 40  1  6
 12 41  1  0
 13 42  1  0
 16 43  1  0
 16 44  1  0
 16 45  1  0
 17 46  1  0
 17 47  1  0
 17 48  1  0
 18 49  1  0
 19 50  1  0
 20 51  1  0
 20 52  1  0
 22 53  1  0
 22 54  1  0
 22 55  1  0
 26 56  1  0
 26 57  1  0
 26 58  1  0
 27 59  1  0
 28 60  1  0
 28 61  1  0
 29 62  1  0
 29 63  1  0
 30 64  1  6
 31 65  1  1
 32 66  1  0
 32 67  1  0
M  END
$$$$
