PDB_DB00140_94
     RDKit          3D

 47 49  0  0  0  0  0  0  0  0999 V2000
   23.3300   25.9570   38.5480 N   0  0  0  0  0  0  0  0  0  0  0  0
   23.7100   26.1960   37.2520 C   0  0  0  0  0  0  0  0  0  0  0  0
   24.2180   25.2370   36.5650 O   0  0  0  0  0  0  0  0  0  0  0  0
   23.5690   27.4310   36.6950 N   0  0  0  0  0  0  0  0  0  0  0  0
   23.0480   28.4840   37.3310 C   0  0  0  0  0  0  0  0  0  0  0  0
   22.9040   29.5810   36.7230 O   0  0  0  0  0  0  0  0  0  0  0  0
   22.6020   28.2920   38.7280 C   0  0  0  0  0  0  0  0  0  0  0  0
   22.0850   29.2810   39.4850 N   0  0  0  0  0  0  0  0  0  0  0  0
   21.7270   29.0560   40.7460 C   0  0  0  0  0  0  0  0  0  0  0  0
   21.2040   30.0980   41.4980 C   0  0  0  0  0  0  0  0  0  0  0  0
   20.8230   29.9010   42.8220 C   0  0  0  0  0  0  0  0  0  0  0  0
   20.2650   31.0500   43.5890 C   0  0  0  0  0  0  0  0  0  0  0  0
   20.9240   28.5270   43.4360 C   0  0  0  0  0  0  0  0  0  0  0  0
   20.5210   28.2360   44.8720 C   0  0  0  0  0  0  0  0  0  0  0  0
   21.4640   27.4750   42.6630 C   0  0  0  0  0  0  0  0  0  0  0  0
   21.8600   27.7010   41.3530 C   0  0  0  0  0  0  0  0  0  0  0  0
   22.4290   26.6560   40.6010 N   0  0  0  0  0  0  0  0  0  0  0  0
   22.8120   26.9320   39.2840 C   0  0  0  0  0  0  0  0  0  0  0  0
   22.6370   25.3150   41.1020 C   0  0  0  0  0  0  0  0  0  0  0  0
   21.6250   24.3830   40.5000 C   0  0  2  0  0  0  0  0  0  0  0  0
   20.3020   24.8170   40.8980 O   0  0  0  0  0  0  0  0  0  0  0  0
   21.9280   22.9820   41.0550 C   0  0  2  0  0  0  0  0  0  0  0  0
   23.2220   22.5910   40.6420 O   0  0  0  0  0  0  0  0  0  0  0  0
   20.9340   21.9010   40.5550 C   0  0  2  0  0  0  0  0  0  0  0  0
   19.6030   22.1270   41.0660 O   0  0  0  0  0  0  0  0  0  0  0  0
   21.4730   20.5280   40.9380 C   0  0  0  0  0  0  0  0  0  0  0  0
   21.3050   20.3980   42.3660 O   0  0  0  0  0  0  0  0  0  0  0  0
   23.8837   27.5611   35.7229 H   0  0  0  0  0  0  0  0  0  0  0  0
   21.0890   31.0924   41.0420 H   0  0  0  0  0  0  0  0  0  0  0  0
   20.3609   30.8525   44.6669 H   0  0  0  0  0  0  0  0  0  0  0  0
   20.8190   31.9652   43.3332 H   0  0  0  0  0  0  0  0  0  0  0  0
   19.2031   31.1805   43.3332 H   0  0  0  0  0  0  0  0  0  0  0  0
   21.2183   28.7395   45.5577 H   0  0  0  0  0  0  0  0  0  0  0  0
   19.5007   28.6071   45.0489 H   0  0  0  0  0  0  0  0  0  0  0  0
   20.5523   27.1508   45.0489 H   0  0  0  0  0  0  0  0  0  0  0  0
   21.5709   26.4721   43.1020 H   0  0  0  0  0  0  0  0  0  0  0  0
   23.6490   24.9779   40.8332 H   0  0  0  0  0  0  0  0  0  0  0  0
   22.5241   25.3151   42.1962 H   0  0  0  0  0  0  0  0  0  0  0  0
   21.6701   24.3736   39.4010 H   0  0  0  0  0  0  0  0  0  0  0  0
   20.2443   24.8359   41.8861 H   0  0  0  0  0  0  0  0  0  0  0  0
   21.8409   23.0515   42.1493 H   0  0  0  0  0  0  0  0  0  0  0  0
   23.7852   22.4208   41.4382 H   0  0  0  0  0  0  0  0  0  0  0  0
   20.8485   21.9572   39.4598 H   0  0  0  0  0  0  0  0  0  0  0  0
   19.6245   22.1234   42.0558 H   0  0  0  0  0  0  0  0  0  0  0  0
   20.9085   19.7407   40.4170 H   0  0  0  0  0  0  0  0  0  0  0  0
   22.5307   20.4256   40.6539 H   0  0  0  0  0  0  0  0  0  0  0  0
   21.9967   20.9333   42.8297 H   0  0  0  0  0  0  0  0  0  0  0  0
  1  2  1  0
  2  3  2  0
  2  4  1  0
  4  5  1  0
  5  6  2  0
  5  7  1  0
  7  8  2  0
  8  9  1  0
  9 10  2  0
 10 11  1  0
 11 12  1  0
 11 13  2  0
 13 14  1  0
 13 15  1  0
  9 16  1  0
 15 16  2  0
 16 17  1  0
  1 18  2  0
  7 18  1  0
 17 18  1  0
 17 19  1  0
 19 20  1  0
 20 21  1  0
 20 22  1  0
 22 23  1  0
 22 24  1  0
 24 25  1  0
 24 26  1  0
 26 27  1  0
  4 28  1  0
 10 29  1  0
 12 30  1  0
 12 31  1  0
 12 32  1  0
 14 33  1  0
 14 34  1  0
 14 35  1  0
 15 36  1  0
 19 37  1  0
 19 38  1  0
 20 39  1  6
 21 40  1  0
 22 41  1  1
 23 42  1  0
 24 43  1  6
 25 44  1  0
 26 45  1  0
 26 46  1  0
 27 47  1  0
M  END
$$$$
