PDB_DB08828_99
     RDKit          3D

126130  0  0  0  0  0  0  0  0999 V2000
    0.4270   56.0810  -42.3100 Cl  0  0  0  0  0  0  0  0  0  0  0  0
    1.7510   55.9650  -41.1970 C   0  0  0  0  0  0  0  0  0  0  0  0
    1.4890   56.1310  -39.8450 C   0  0  0  0  0  0  0  0  0  0  0  0
    2.5200   56.0470  -38.9250 C   0  0  0  0  0  0  0  0  0  0  0  0
    3.0530   55.7030  -41.6530 C   0  0  0  0  0  0  0  0  0  0  0  0
    3.3600   55.5040  -43.0940 C   0  0  0  0  0  0  0  0  0  0  0  0
    3.7190   54.2570  -43.4590 N   0  0  0  0  0  0  0  0  0  0  0  0
    4.0600   54.0550  -44.7430 C   0  0  0  0  0  0  0  0  0  0  0  0
    4.0530   55.0500  -45.7030 C   0  0  0  0  0  0  0  0  0  0  0  0
    3.6780   56.3180  -45.3170 C   0  0  0  0  0  0  0  0  0  0  0  0
    3.3260   56.5600  -44.0010 C   0  0  0  0  0  0  0  0  0  0  0  0
    4.0780   55.6230  -40.7090 C   0  0  0  0  0  0  0  0  0  0  0  0
    3.8220   55.8010  -39.3530 C   0  0  1  0  0  0  0  0  0  0  0  0
    4.8960   55.8090  -38.4340 N   0  0  0  0  0  0  0  0  0  0  0  0
    5.8390   56.7720  -38.3030 C   0  0  0  0  0  0  0  0  0  0  0  0
    5.9180   57.7410  -39.0530 O   0  0  0  0  0  0  0  0  0  0  0  0
    6.7690   56.6210  -37.1380 C   0  0  1  0  0  0  0  0  0  0  0  0
    6.2490   56.1710  -35.9210 C   0  0  0  0  0  0  0  0  0  0  0  0
    7.0370   56.1020  -34.7860 C   0  0  0  0  0  0  0  0  0  0  0  0
    8.1180   56.9770  -37.1810 C   0  0  0  0  0  0  0  0  0  0  0  0
    8.8590   57.5130  -38.6550 Cl  0  0  0  0  0  0  0  0  0  0  0  0
    8.9200   56.9160  -36.0570 C   0  0  0  0  0  0  0  0  0  0  0  0
    8.3670   56.4890  -34.8600 C   0  0  0  0  0  0  0  0  0  0  0  0
    9.3640   56.4870  -33.4010 S   0  0  1  0  0  4  0  0  0  0  0  0
    9.1540   55.2450  -32.7150 O   0  0  0  0  0  0  0  0  0  0  0  0
   10.7050   56.8340  -33.7740 O   0  0  0  0  0  0  0  0  0  0  0  0
    8.7080   57.7820  -32.4220 C   0  0  0  0  0  0  0  0  0  0  0  0
   -7.9120   15.1810  -70.3760 Cl  0  0  0  0  0  0  0  0  0  0  0  0
   -6.6270   15.3280  -71.5300 C   0  0  0  0  0  0  0  0  0  0  0  0
   -6.9000   15.0240  -72.8560 C   0  0  0  0  0  0  0  0  0  0  0  0
   -5.9070   15.1420  -73.8120 C   0  0  0  0  0  0  0  0  0  0  0  0
   -5.3490   15.7600  -71.1360 C   0  0  0  0  0  0  0  0  0  0  0  0
   -5.0300   16.1030  -69.7260 C   0  0  0  0  0  0  0  0  0  0  0  0
   -4.8790   17.4150  -69.4530 N   0  0  0  0  0  0  0  0  0  0  0  0
   -4.5240   17.7560  -68.2020 C   0  0  0  0  0  0  0  0  0  0  0  0
   -4.3150   16.8400  -67.1880 C   0  0  0  0  0  0  0  0  0  0  0  0
   -4.4810   15.5040  -67.4790 C   0  0  0  0  0  0  0  0  0  0  0  0
   -4.8420   15.1200  -68.7580 C   0  0  0  0  0  0  0  0  0  0  0  0
   -4.3610   15.8680  -72.1160 C   0  0  0  0  0  0  0  0  0  0  0  0
   -4.6300   15.5580  -73.4460 C   0  0  1  0  0  0  0  0  0  0  0  0
   -3.5880   15.6120  -74.3990 N   0  0  0  0  0  0  0  0  0  0  0  0
   -2.5780   14.7220  -74.5430 C   0  0  0  0  0  0  0  0  0  0  0  0
   -2.4100   13.7700  -73.7850 O   0  0  0  0  0  0  0  0  0  0  0  0
   -1.6860   14.9300  -75.7300 C   0  0  1  0  0  0  0  0  0  0  0  0
   -2.2560   15.3610  -76.9310 C   0  0  0  0  0  0  0  0  0  0  0  0
   -1.4990   15.4670  -78.0860 C   0  0  0  0  0  0  0  0  0  0  0  0
   -0.3220   14.6330  -75.7210 C   0  0  0  0  0  0  0  0  0  0  0  0
    0.4790   14.1550  -74.2590 Cl  0  0  0  0  0  0  0  0  0  0  0  0
    0.4470   14.7250  -76.8680 C   0  0  0  0  0  0  0  0  0  0  0  0
   -0.1540   15.1390  -78.0490 C   0  0  0  0  0  0  0  0  0  0  0  0
    0.8150   15.2340  -79.5240 S   0  0  2  0  0  4  0  0  0  0  0  0
    2.1930   15.0550  -79.1690 O   0  0  0  0  0  0  0  0  0  0  0  0
    0.4460   16.4280  -80.2260 O   0  0  0  0  0  0  0  0  0  0  0  0
    0.3010   13.8520  -80.4710 C   0  0  0  0  0  0  0  0  0  0  0  0
    1.9284   57.0461  -41.2954 H   0  0  0  0  0  0  0  0  0  0  0  0
    1.0400   57.1284  -39.7286 H   0  0  0  0  0  0  0  0  0  0  0  0
    0.8604   55.2620  -39.6006 H   0  0  0  0  0  0  0  0  0  0  0  0
    2.5402   57.0044  -38.3837 H   0  0  0  0  0  0  0  0  0  0  0  0
    2.2700   55.1432  -38.3500 H   0  0  0  0  0  0  0  0  0  0  0  0
    2.8746   54.6233  -41.5419 H   0  0  0  0  0  0  0  0  0  0  0  0
    4.4146   55.7519  -42.9035 H   0  0  0  0  0  0  0  0  0  0  0  0
    4.5274   53.9880  -42.8802 H   0  0  0  0  0  0  0  0  0  0  0  0
    5.0885   53.6653  -44.7224 H   0  0  0  0  0  0  0  0  0  0  0  0
    3.2292   53.4213  -45.0869 H   0  0  0  0  0  0  0  0  0  0  0  0
    5.0729   55.1199  -46.1092 H   0  0  0  0  0  0  0  0  0  0  0  0
    3.2755   54.7385  -46.4161 H   0  0  0  0  0  0  0  0  0  0  0  0
    4.5221   56.9842  -45.5487 H   0  0  0  0  0  0  0  0  0  0  0  0
    2.7401   56.4852  -45.8669 H   0  0  0  0  0  0  0  0  0  0  0  0
    2.2967   56.9481  -44.0074 H   0  0  0  0  0  0  0  0  0  0  0  0
    4.1043   57.2478  -43.6389 H   0  0  0  0  0  0  0  0  0  0  0  0
    4.5219   54.6220  -40.8142 H   0  0  0  0  0  0  0  0  0  0  0  0
    4.6991   56.4973  -40.9535 H   0  0  0  0  0  0  0  0  0  0  0  0
    3.6539   54.7195  -39.2428 H   0  0  0  0  0  0  0  0  0  0  0  0
    4.4543   55.7395  -37.5061 H   0  0  0  0  0  0  0  0  0  0  0  0
    6.5100   56.2050  -38.9649 H   0  0  0  0  0  0  0  0  0  0  0  0
    5.9856   58.5697  -38.5155 H   0  0  0  0  0  0  0  0  0  0  0  0
    6.5653   57.6603  -36.8407 H   0  0  0  0  0  0  0  0  0  0  0  0
    5.4079   56.8364  -35.6764 H   0  0  0  0  0  0  0  0  0  0  0  0
    6.0354   55.1122  -36.1288 H   0  0  0  0  0  0  0  0  0  0  0  0
    6.5598   56.7364  -34.0246 H   0  0  0  0  0  0  0  0  0  0  0  0
    7.0901   55.0247  -34.5700 H   0  0  0  0  0  0  0  0  0  0  0  0
    8.3844   55.9380  -37.4249 H   0  0  0  0  0  0  0  0  0  0  0  0
    9.7505   56.2335  -36.2901 H   0  0  0  0  0  0  0  0  0  0  0  0
    9.1862   57.9659  -35.8652 H   0  0  0  0  0  0  0  0  0  0  0  0
    8.6550   55.4540  -35.0962 H   0  0  0  0  0  0  0  0  0  0  0  0
    9.1801   55.3994  -31.7375 H   0  0  0  0  0  0  0  0  0  0  0  0
   11.2484   56.9746  -32.9585 H   0  0  0  0  0  0  0  0  0  0  0  0
    8.8327   57.5359  -31.3572 H   0  0  0  0  0  0  0  0  0  0  0  0
    9.2408   58.7177  -32.6469 H   0  0  0  0  0  0  0  0  0  0  0  0
    7.6384   57.9060  -32.6469 H   0  0  0  0  0  0  0  0  0  0  0  0
   -6.3439   14.2807  -71.3482 H   0  0  0  0  0  0  0  0  0  0  0  0
   -7.2395   13.9779  -72.8784 H   0  0  0  0  0  0  0  0  0  0  0  0
   -7.6251   15.7978  -73.1483 H   0  0  0  0  0  0  0  0  0  0  0  0
   -5.7963   14.1516  -74.2777 H   0  0  0  0  0  0  0  0  0  0  0  0
   -6.2667   15.9646  -74.4475 H   0  0  0  0  0  0  0  0  0  0  0  0
   -5.6439   16.8031  -71.3230 H   0  0  0  0  0  0  0  0  0  0  0  0
   -3.9559   16.0260  -69.9503 H   0  0  0  0  0  0  0  0  0  0  0  0
   -4.1553   17.7802  -70.0885 H   0  0  0  0  0  0  0  0  0  0  0  0
   -3.5818   18.3152  -68.2997 H   0  0  0  0  0  0  0  0  0  0  0  0
   -5.4380   18.2573  -67.8507 H   0  0  0  0  0  0  0  0  0  0  0  0
   -3.2813   16.9721  -66.8359 H   0  0  0  0  0  0  0  0  0  0  0  0
   -5.1021   17.0607  -66.4520 H   0  0  0  0  0  0  0  0  0  0  0  0
   -3.5252   15.0078  -67.2550 H   0  0  0  0  0  0  0  0  0  0  0  0
   -5.3509   15.2159  -66.8704 H   0  0  0  0  0  0  0  0  0  0  0  0
   -5.7876   14.5643  -68.6738 H   0  0  0  0  0  0  0  0  0  0  0  0
   -3.9721   14.5528  -69.1207 H   0  0  0  0  0  0  0  0  0  0  0  0
   -4.0204   16.9139  -72.1020 H   0  0  0  0  0  0  0  0  0  0  0  0
   -3.6473   15.0829  -71.8256 H   0  0  0  0  0  0  0  0  0  0  0  0
   -4.9174   16.6035  -73.6316 H   0  0  0  0  0  0  0  0  0  0  0  0
   -4.0626   15.6275  -75.3130 H   0  0  0  0  0  0  0  0  0  0  0  0
   -1.9373   15.3454  -73.9020 H   0  0  0  0  0  0  0  0  0  0  0  0
   -2.4650   14.0814  -72.8469 H   0  0  0  0  0  0  0  0  0  0  0  0
   -1.8427   13.8837  -76.0311 H   0  0  0  0  0  0  0  0  0  0  0  0
   -3.0738   14.6610  -77.1571 H   0  0  0  0  0  0  0  0  0  0  0  0
   -2.5106   16.4088  -76.7136 H   0  0  0  0  0  0  0  0  0  0  0  0
   -1.9676   14.8144  -78.8374 H   0  0  0  0  0  0  0  0  0  0  0  0
   -1.4974   16.5465  -78.2974 H   0  0  0  0  0  0  0  0  0  0  0  0
   -0.0941   15.6865  -75.5014 H   0  0  0  0  0  0  0  0  0  0  0  0
    1.2608   15.4336  -76.6547 H   0  0  0  0  0  0  0  0  0  0  0  0
    0.7422   13.6852  -77.0722 H   0  0  0  0  0  0  0  0  0  0  0  0
    0.0941   16.1835  -77.8091 H   0  0  0  0  0  0  0  0  0  0  0  0
    2.2810   15.0436  -78.1830 H   0  0  0  0  0  0  0  0  0  0  0  0
    0.2261   17.1396  -79.5738 H   0  0  0  0  0  0  0  0  0  0  0  0
   -0.0019   13.0375  -79.7965 H   0  0  0  0  0  0  0  0  0  0  0  0
   -0.5507   14.1386  -81.1055 H   0  0  0  0  0  0  0  0  0  0  0  0
    1.1329   13.5124  -81.1055 H   0  0  0  0  0  0  0  0  0  0  0  0
  1  2  1  0
  2  3  1  0
  3  4  1  0
  2  5  1  0
  5  6  1  0
  6  7  1  0
  7  8  1  0
  8  9  1  0
  9 10  1  0
  6 11  1  0
 10 11  1  0
  5 12  1  0
  4 13  1  0
 12 13  1  0
 13 14  1  0
 14 15  1  0
 15 16  1  0
 15 17  1  0
 17 18  1  0
 18 19  1  0
 17 20  1  0
 20 21  1  0
 20 22  1  0
 19 23  1  0
 22 23  1  0
 23 24  1  0
 24 25  1  1
 24 26  1  0
 24 27  1  0
 28 29  1  0
 29 30  1  0
 30 31  1  0
 29 32  1  0
 32 33  1  0
 33 34  1  0
 34 35  1  0
 35 36  1  0
 36 37  1  0
 33 38  1  0
 37 38  1  0
 32 39  1  0
 31 40  1  0
 39 40  1  0
 40 41  1  0
 41 42  1  0
 42 43  1  0
 42 44  1  0
 44 45  1  0
 45 46  1  0
 44 47  1  0
 47 48  1  0
 47 49  1  0
 46 50  1  0
 49 50  1  0
 50 51  1  0
 51 52  1  1
 51 53  1  0
 51 54  1  0
  2 55  1  0
  3 56  1  0
  3 57  1  0
  4 58  1  0
  4 59  1  0
  5 60  1  0
  6 61  1  0
  7 62  1  0
  8 63  1  0
  8 64  1  0
  9 65  1  0
  9 66  1  0
 10 67  1  0
 10 68  1  0
 11 69  1  0
 11 70  1  0
 12 71  1  0
 12 72  1  0
 13 73  1  1
 14 74  1  0
 15 75  1  0
 16 76  1  0
 17 77  1  6
 18 78  1  0
 18 79  1  0
 19 80  1  0
 19 81  1  0
 20 82  1  0
 22 83  1  0
 22 84  1  0
 23 85  1  0
 25 86  1  0
 26 87  1  0
 27 88  1  0
 27 89  1  0
 27 90  1  0
 29 91  1  0
 30 92  1  0
 30 93  1  0
 31 94  1  0
 31 95  1  0
 32 96  1  0
 33 97  1  0
 34 98  1  0
 35 99  1  0
 35100  1  0
 36101  1  0
 36102  1  0
 37103  1  0
 37104  1  0
 38105  1  0
 38106  1  0
 39107  1  0
 39108  1  0
 40109  1  6
 41110  1  0
 42111  1  0
 43112  1  0
 44113  1  1
 45114  1  0
 45115  1  0
 46116  1  0
 46117  1  0
 47118  1  0
 49119  1  0
 49120  1  0
 50121  1  0
 52122  1  0
 53123  1  0
 54124  1  0
 54125  1  0
 54126  1  0
M  END
>  <PDBID>  (1) 
5L7I

>  <PDB ID>  (1) 
5L7I

>  <Generic Name>  (1) 
Vismodegib

>  <Brand Name>  (1) 
Erivedge

>  <DrugBank ID>  (1) 
DB08828

>  <ATC Codes>  (1) 
L01XX43

>  <Ligand ID>  (1) 
VIS

>  <Target Name>  (1) 
Smoothened homolog

>  <UniProt ID>  (1) 
Q99835

>  <PDB ID.1>  (1) 
5L7I

>  <Seq. Identity>  (1) 
95%

$$$$
