PDB_DB00224_97
     RDKit          3D

 92 96  0  0  0  0  0  0  0  0999 V2000
   23.3900   20.5370    2.9880 N   0  0  0  0  0  0  0  0  0  0  0  0
   23.4540   20.4130    4.4810 C   0  0  0  0  0  0  0  0  0  0  0  0
   24.4290   19.3630    4.9880 C   0  0  1  0  0  0  0  0  0  0  0  0
   24.4000   19.3790    6.4800 C   0  0  0  0  0  0  0  0  0  0  0  0
   23.3790   19.0220    7.0810 O   0  0  0  0  0  0  0  0  0  0  0  0
   25.5100   19.7920    7.0840 N   0  0  0  0  0  0  0  0  0  0  0  0
   25.6650   19.8940    8.5110 C   0  0  0  0  0  0  0  0  0  0  0  0
   27.0900   20.4650    8.7220 C   0  0  0  0  0  0  0  0  0  0  0  0
   25.5660   18.5900    9.0670 C   0  0  0  0  0  0  0  0  0  0  0  0
   24.7120   20.8320    9.0850 C   0  0  0  0  0  0  0  0  0  0  0  0
   23.9030   18.0630    4.4290 N   0  0  0  0  0  0  0  0  0  0  0  0
   23.8240   18.1050    2.9510 C   0  0  0  0  0  0  0  0  0  0  0  0
   23.0300   19.2800    2.4690 C   0  0  0  0  0  0  0  0  0  0  0  0
   24.7440   16.9360    4.7610 C   0  0  0  0  0  0  0  0  0  0  0  0
   23.8980   15.6800    5.0450 C   0  0  1  0  0  0  0  0  0  0  0  0
   24.6970   14.5980    4.7060 O   0  0  0  0  0  0  0  0  0  0  0  0
   23.4780   15.5640    6.5210 C   0  0  0  0  0  0  0  0  0  0  0  0
   22.5800   14.3360    6.8500 C   0  0  1  0  0  0  0  0  0  0  0  0
   22.4480   14.2260    8.3780 C   0  0  0  0  0  0  0  0  0  0  0  0
   21.4650   13.1890    8.7950 C   0  0  0  0  0  0  0  0  0  0  0  0
   21.6500   11.8650    8.4710 C   0  0  0  0  0  0  0  0  0  0  0  0
   20.7880   10.8820    8.9160 C   0  0  0  0  0  0  0  0  0  0  0  0
   19.6860   11.2710    9.6830 C   0  0  0  0  0  0  0  0  0  0  0  0
   19.4850   12.6030    9.9980 C   0  0  0  0  0  0  0  0  0  0  0  0
   20.3850   13.5700    9.5680 C   0  0  0  0  0  0  0  0  0  0  0  0
   21.2240   14.4900    6.2260 C   0  0  0  0  0  0  0  0  0  0  0  0
   20.5460   15.5200    6.3040 O   0  0  0  0  0  0  0  0  0  0  0  0
   20.7580   13.3900    5.6640 N   0  0  0  0  0  0  0  0  0  0  0  0
   19.3880   13.2060    5.3480 C   0  0  2  0  0  0  0  0  0  0  0  0
   18.7910   11.8560    5.6960 C   0  0  2  0  0  0  0  0  0  0  0  0
   19.6950   10.7930    5.3580 O   0  0  0  0  0  0  0  0  0  0  0  0
   17.5520   11.7290    4.8090 C   0  0  0  0  0  0  0  0  0  0  0  0
   17.9040   12.4140    3.5120 C   0  0  0  0  0  0  0  0  0  0  0  0
   17.4350   12.3500    2.2350 C   0  0  0  0  0  0  0  0  0  0  0  0
   18.0190   13.1800    1.2800 C   0  0  0  0  0  0  0  0  0  0  0  0
   19.0380   14.0690    1.5720 C   0  0  0  0  0  0  0  0  0  0  0  0
   19.5310   14.1560    2.8620 C   0  0  0  0  0  0  0  0  0  0  0  0
   19.0480   13.3900    3.8560 C   0  0  0  0  0  0  0  0  0  0  0  0
   22.4420   21.5980    2.6190 C   0  0  0  0  0  0  0  0  0  0  0  0
   22.7620   23.0540    2.9970 C   0  0  0  0  0  0  0  0  0  0  0  0
   23.8780   23.7120    2.4450 C   0  0  0  0  0  0  0  0  0  0  0  0
   24.2560   25.0500    2.6910 N   0  0  0  0  0  0  0  0  0  0  0  0
   23.3550   25.6440    3.5760 C   0  0  0  0  0  0  0  0  0  0  0  0
   22.2270   25.0720    4.1520 C   0  0  0  0  0  0  0  0  0  0  0  0
   21.9200   23.7500    3.8660 C   0  0  0  0  0  0  0  0  0  0  0  0
   23.7542   21.3875    4.8936 H   0  0  0  0  0  0  0  0  0  0  0  0
   22.4540   20.0943    4.8103 H   0  0  0  0  0  0  0  0  0  0  0  0
   25.4726   19.5280    4.6820 H   0  0  0  0  0  0  0  0  0  0  0  0
   26.3107   20.0560    6.4923 H   0  0  0  0  0  0  0  0  0  0  0  0
   27.2961   20.5476    9.7994 H   0  0  0  0  0  0  0  0  0  0  0  0
   27.8268   19.7927    8.2582 H   0  0  0  0  0  0  0  0  0  0  0  0
   27.1587   21.4601    8.2582 H   0  0  0  0  0  0  0  0  0  0  0  0
   25.5712   18.6581   10.1649 H   0  0  0  0  0  0  0  0  0  0  0  0
   24.6295   18.1192    8.7333 H   0  0  0  0  0  0  0  0  0  0  0  0
   26.4207   17.9832    8.7333 H   0  0  0  0  0  0  0  0  0  0  0  0
   24.7634   20.7814   10.1826 H   0  0  0  0  0  0  0  0  0  0  0  0
   24.9561   21.8519    8.7531 H   0  0  0  0  0  0  0  0  0  0  0  0
   23.6961   20.5717    8.7531 H   0  0  0  0  0  0  0  0  0  0  0  0
   24.8429   18.1719    2.5418 H   0  0  0  0  0  0  0  0  0  0  0  0
   23.3199   17.1888    2.6096 H   0  0  0  0  0  0  0  0  0  0  0  0
   21.9764   19.1005    2.7290 H   0  0  0  0  0  0  0  0  0  0  0  0
   23.2301   19.3430    1.3892 H   0  0  0  0  0  0  0  0  0  0  0  0
   25.4202   16.7311    3.9179 H   0  0  0  0  0  0  0  0  0  0  0  0
   25.3193   17.1827    5.6655 H   0  0  0  0  0  0  0  0  0  0  0  0
   22.9648   15.7241    4.4643 H   0  0  0  0  0  0  0  0  0  0  0  0
   25.0226   14.1571    5.5304 H   0  0  0  0  0  0  0  0  0  0  0  0
   24.3902   15.4942    7.1318 H   0  0  0  0  0  0  0  0  0  0  0  0
   22.8746   16.4567    6.7421 H   0  0  0  0  0  0  0  0  0  0  0  0
   23.0391   13.4234    6.4421 H   0  0  0  0  0  0  0  0  0  0  0  0
   23.4312   13.9687    8.7988 H   0  0  0  0  0  0  0  0  0  0  0  0
   22.0876   15.1958    8.7517 H   0  0  0  0  0  0  0  0  0  0  0  0
   22.5064   11.5819    7.8414 H   0  0  0  0  0  0  0  0  0  0  0  0
   20.9636    9.8234    8.6738 H   0  0  0  0  0  0  0  0  0  0  0  0
   18.9733   10.5123   10.0387 H   0  0  0  0  0  0  0  0  0  0  0  0
   18.6076   12.8981   10.5923 H   0  0  0  0  0  0  0  0  0  0  0  0
   20.2396   14.6260    9.8396 H   0  0  0  0  0  0  0  0  0  0  0  0
   21.4194   12.6313    5.4452 H   0  0  0  0  0  0  0  0  0  0  0  0
   18.9554   13.9940    5.9820 H   0  0  0  0  0  0  0  0  0  0  0  0
   18.5718   11.7873    6.7717 H   0  0  0  0  0  0  0  0  0  0  0  0
   20.0451   10.3813    6.1875 H   0  0  0  0  0  0  0  0  0  0  0  0
   17.3152   10.6697    4.6309 H   0  0  0  0  0  0  0  0  0  0  0  0
   16.6680   12.1834    5.2803 H   0  0  0  0  0  0  0  0  0  0  0  0
   16.6191   11.6633    1.9653 H   0  0  0  0  0  0  0  0  0  0  0  0
   17.6522   13.1257    0.2444 H   0  0  0  0  0  0  0  0  0  0  0  0
   19.4561   14.7064    0.7790 H   0  0  0  0  0  0  0  0  0  0  0  0
   20.3388   14.8701    3.0799 H   0  0  0  0  0  0  0  0  0  0  0  0
   22.3339   21.5662    1.5248 H   0  0  0  0  0  0  0  0  0  0  0  0
   21.5447   21.3649    3.2110 H   0  0  0  0  0  0  0  0  0  0  0  0
   24.5129   23.1309    1.7600 H   0  0  0  0  0  0  0  0  0  0  0  0
   23.5623   26.6889    3.8501 H   0  0  0  0  0  0  0  0  0  0  0  0
   21.5862   25.6598    4.8257 H   0  0  0  0  0  0  0  0  0  0  0  0
   21.0390   23.2643    4.3109 H   0  0  0  0  0  0  0  0  0  0  0  0
  1  2  1  0
  2  3  1  0
  3  4  1  0
  4  5  2  0
  4  6  1  0
  6  7  1  0
  7  8  1  0
  7  9  1  0
  7 10  1  0
  3 11  1  0
 11 12  1  0
  1 13  1  0
 12 13  1  0
 11 14  1  0
 14 15  1  0
 15 16  1  0
 15 17  1  0
 17 18  1  0
 18 19  1  0
 19 20  1  0
 20 21  2  0
 21 22  1  0
 22 23  2  0
 23 24  1  0
 20 25  1  0
 24 25  2  0
 18 26  1  0
 26 27  2  0
 26 28  1  0
 28 29  1  0
 29 30  1  0
 30 31  1  0
 30 32  1  0
 32 33  1  0
 33 34  1  0
 34 35  2  0
 35 36  1  0
 36 37  2  0
 29 38  1  0
 33 38  2  0
 37 38  1  0
  1 39  1  0
 39 40  1  0
 40 41  2  0
 41 42  1  0
 42 43  2  0
 43 44  1  0
 40 45  1  0
 44 45  2  0
  2 46  1  0
  2 47  1  0
  3 48  1  1
  6 49  1  0
  8 50  1  0
  8 51  1  0
  8 52  1  0
  9 53  1  0
  9 54  1  0
  9 55  1  0
 10 56  1  0
 10 57  1  0
 10 58  1  0
 12 59  1  0
 12 60  1  0
 13 61  1  0
 13 62  1  0
 14 63  1  0
 14 64  1  0
 15 65  1  6
 16 66  1  0
 17 67  1  0
 17 68  1  0
 18 69  1  6
 19 70  1  0
 19 71  1  0
 21 72  1  0
 22 73  1  0
 23 74  1  0
 24 75  1  0
 25 76  1  0
 28 77  1  0
 29 78  1  1
 30 79  1  1
 31 80  1  0
 32 81  1  0
 32 82  1  0
 34 83  1  0
 35 84  1  0
 36 85  1  0
 37 86  1  0
 39 87  1  0
 39 88  1  0
 41 89  1  0
 43 90  1  0
 44 91  1  0
 45 92  1  0
M  END
>  <PDBID>  (1) 
1SDT

>  <PDB ID>  (1) 
1SDT

>  <Generic Name>  (1) 
Indinavir

>  <Brand Name>  (1) 
Crixivan

>  <DrugBank ID>  (1) 
DB00224

>  <ATC Codes>  (1) 
J05AE02

>  <Ligand ID>  (1) 
MK1

>  <Target Name>  (1) 
Pol polyprotein

>  <UniProt ID>  (1) 
Q72874

>  <PDB ID.1>  (1) 
1SDT

>  <Seq. Identity>  (1) 
94%

$$$$
