PDB_DB00819_83
     RDKit          3D

 19 19  0  0  0  0  0  0  0  0999 V2000
   -5.0120    2.2110   16.1310 C   0  0  0  0  0  0  0  0  0  0  0  0
   -4.4160    4.0180   14.9440 C   0  0  0  0  0  0  0  0  0  0  0  0
   -5.1680    5.7640   13.6410 C   0  0  0  0  0  0  0  0  0  0  0  0
   -4.6670    6.9100   12.7870 C   0  0  0  0  0  0  0  0  0  0  0  0
   -5.0980   -0.4120   16.2950 N   0  0  0  0  0  0  0  0  0  0  0  0
   -3.3660    3.4000   15.3680 N   0  0  0  0  0  0  0  0  0  0  0  0
   -3.7160    2.3010   16.0840 N   0  0  0  0  0  0  0  0  0  0  0  0
   -4.1580    5.0620   14.1790 N   0  0  0  0  0  0  0  0  0  0  0  0
   -5.4430    0.9180   18.4030 O   0  0  0  0  0  0  0  0  0  0  0  0
   -7.2490    0.9930   16.8390 O   0  0  0  0  0  0  0  0  0  0  0  0
   -6.3740    5.5610   13.7610 O   0  0  0  0  0  0  0  0  0  0  0  0
   -5.7750    0.8600   16.9770 S   0  0  0  0  0  0  0  0  0  0  0  0
   -5.9310    3.4180   15.3460 S   0  0  0  0  0  0  0  0  0  0  0  0
   -4.3115    7.7233   13.4367 H   0  0  0  0  0  0  0  0  0  0  0  0
   -3.8399    6.5598   12.1520 H   0  0  0  0  0  0  0  0  0  0  0  0
   -5.4858    7.2793   12.1520 H   0  0  0  0  0  0  0  0  0  0  0  0
   -4.7570   -1.0527   17.0259 H   0  0  0  0  0  0  0  0  0  0  0  0
   -5.7922   -0.8977   15.7092 H   0  0  0  0  0  0  0  0  0  0  0  0
   -3.1829    5.3379   13.9949 H   0  0  0  0  0  0  0  0  0  0  0  0
  3  4  1  0
  2  6  2  0
  1  7  2  0
  6  7  1  0
  2  8  1  0
  3  8  1  0
  3 11  2  0
  1 12  1  0
  5 12  1  0
  9 12  2  0
 10 12  2  0
  1 13  1  0
  2 13  1  0
  4 14  1  0
  4 15  1  0
  4 16  1  0
  5 17  1  0
  5 18  1  0
  8 19  1  0
M  END
>  <PDBID>  (1) 
1YDB

>  <PDB ID>  (1) 
1YDB

>  <Generic Name>  (1) 
Acetazolamide

>  <Brand Name>  (1) 
Acetazolam#Acetazolamide#Acetazolamide for Injection, USP#Diamox IV 500mg#Diamox Pws 500mg/vial#Diamox Sequels#Diamox Src 500mg#Diamox Tab 250mg#Diamox Tablets 250mg#Novo-zolamide Tab 250mg#Acemit#Acemox#Acetak#Acetamide#Acetazolamax#Azm#Azol#Azomid#Carbinib#Defiltran#Diabo#Diacarb#Diamox#Diamox Depot#Diazomid#Diluran#Diuramid#Défiltran#Edemox#Glaumox#Glaupax#Glupax#Huma-Zolamide#Iopar-SR#Medene#Oculten#Uramox#Zolmide#Ödemin

>  <DrugBank ID>  (1) 
DB00819

>  <ATC Codes>  (1) 
S01EC01

>  <Ligand ID>  (1) 
AZM

>  <Target Name>  (1) 
Carbonic anhydrase 3

>  <UniProt ID>  (1) 
P07451

>  <PDB ID.1>  (1) 
1YDB

>  <Seq. Identity>  (1) 
59%

$$$$
