PDB_DB00421_91
     RDKit          3D

 61 65  0  0  0  0  0  0  0  0999 V2000
    1.2620   26.8470   51.1480 C   0  0  0  0  0  0  0  0  0  0  0  0
    3.6940   23.7220   51.8990 C   0  0  0  0  0  0  0  0  0  0  0  0
    2.5060   24.6330   51.0940 C   0  0  1  0  0  0  0  0  0  0  0  0
    1.5090   20.6210   52.9680 C   0  0  1  0  0  0  0  0  0  0  0  0
    1.1960   24.5910   52.0580 C   0  0  1  0  0  0  0  0  0  0  0  0
    2.7010   19.7490   53.8360 C   0  0  0  0  0  0  0  0  0  0  0  0
    3.3250   22.3490   52.0920 C   0  0  0  0  0  0  0  0  0  0  0  0
    0.2460   25.8030   51.6180 C   0  0  0  0  0  0  0  0  0  0  0  0
    2.7250   26.2210   51.1250 C   0  0  2  0  0  0  0  0  0  0  0  0
    2.1900   24.0610   49.5160 C   0  0  0  0  0  0  0  0  0  0  0  0
    1.2910   19.9850   51.5770 C   0  0  0  0  0  0  0  0  0  0  0  0
    2.1830   18.4060   54.3870 C   0  0  0  0  0  0  0  0  0  0  0  0
    3.6550   26.8670   52.2930 C   0  0  0  0  0  0  0  0  0  0  0  0
    5.0690   27.0400   51.5720 C   0  0  0  0  0  0  0  0  0  0  0  0
    4.7430   26.9640   50.0880 C   0  0  0  0  0  0  0  0  0  0  0  0
   -1.9650   24.2940   55.4480 C   0  0  0  0  0  0  0  0  0  0  0  0
   -2.2270   25.1150   56.7020 C   0  0  0  0  0  0  0  0  0  0  0  0
    0.7880   18.6720   55.2930 C   0  0  0  0  0  0  0  0  0  0  0  0
   -0.2240   19.7390   54.8730 C   0  0  0  0  0  0  0  0  0  0  0  0
    0.0240   20.5780   53.7240 C   0  0  0  0  0  0  0  0  0  0  0  0
   -1.0770   21.5660   53.2460 C   0  0  0  0  0  0  0  0  0  0  0  0
   -0.5990   23.0300   53.0940 C   0  0  2  0  0  0  0  0  0  0  0  0
    0.6600   23.1560   52.2200 C   0  0  2  0  0  0  0  0  0  0  0  0
    1.9470   22.1550   52.8380 C   0  0  1  0  0  0  0  0  0  0  0  0
    5.5350   27.0830   49.2530 O   0  0  0  0  0  0  0  0  0  0  0  0
    3.4100   26.7310   49.8520 O   0  0  0  0  0  0  0  0  0  0  0  0
   -2.9300   23.9270   54.7880 O   0  0  0  0  0  0  0  0  0  0  0  0
    0.5810   17.9860   56.2780 O   0  0  0  0  0  0  0  0  0  0  0  0
   -0.2650   23.8000   54.9480 S   0  0  0  0  0  0  0  0  0  0  0  0
    0.9950   27.1833   50.1353 H   0  0  0  0  0  0  0  0  0  0  0  0
    1.2478   27.6992   51.8434 H   0  0  0  0  0  0  0  0  0  0  0  0
    4.6198   23.7543   51.3058 H   0  0  0  0  0  0  0  0  0  0  0  0
    3.8240   24.1668   52.8966 H   0  0  0  0  0  0  0  0  0  0  0  0
    1.3857   24.7989   53.1214 H   0  0  0  0  0  0  0  0  0  0  0  0
    3.5480   19.5486   53.1633 H   0  0  0  0  0  0  0  0  0  0  0  0
    2.9976   20.3655   54.6973 H   0  0  0  0  0  0  0  0  0  0  0  0
    3.2555   21.8672   51.1056 H   0  0  0  0  0  0  0  0  0  0  0  0
    4.0993   21.8971   52.7295 H   0  0  0  0  0  0  0  0  0  0  0  0
   -0.3465   26.1753   52.4668 H   0  0  0  0  0  0  0  0  0  0  0  0
   -0.4966   25.5304   50.8537 H   0  0  0  0  0  0  0  0  0  0  0  0
    1.6588   23.0995   49.5740 H   0  0  0  0  0  0  0  0  0  0  0  0
    1.5677   24.7919   48.9788 H   0  0  0  0  0  0  0  0  0  0  0  0
    3.1400   23.9232   48.9788 H   0  0  0  0  0  0  0  0  0  0  0  0
    0.9365   18.9508   51.6982 H   0  0  0  0  0  0  0  0  0  0  0  0
    0.5410   20.5669   51.0212 H   0  0  0  0  0  0  0  0  0  0  0  0
    2.2403   19.9845   51.0212 H   0  0  0  0  0  0  0  0  0  0  0  0
    1.9534   17.7302   53.5500 H   0  0  0  0  0  0  0  0  0  0  0  0
    2.9537   17.9497   55.0255 H   0  0  0  0  0  0  0  0  0  0  0  0
    3.2578   27.8384   52.6226 H   0  0  0  0  0  0  0  0  0  0  0  0
    3.7041   26.2471   53.2004 H   0  0  0  0  0  0  0  0  0  0  0  0
    5.5188   28.0119   51.8233 H   0  0  0  0  0  0  0  0  0  0  0  0
    5.7968   26.2762   51.8831 H   0  0  0  0  0  0  0  0  0  0  0  0
   -2.0303   24.4986   57.5916 H   0  0  0  0  0  0  0  0  0  0  0  0
   -1.5644   25.9930   56.7105 H   0  0  0  0  0  0  0  0  0  0  0  0
   -3.2757   25.4469   56.7105 H   0  0  0  0  0  0  0  0  0  0  0  0
   -1.1502   19.8687   55.4520 H   0  0  0  0  0  0  0  0  0  0  0  0
   -1.4477   21.2218   52.2692 H   0  0  0  0  0  0  0  0  0  0  0  0
   -1.8556   21.5687   54.0231 H   0  0  0  0  0  0  0  0  0  0  0  0
   -1.3873   23.5981   52.5783 H   0  0  0  0  0  0  0  0  0  0  0  0
    0.3344   22.8204   51.2243 H   0  0  0  0  0  0  0  0  0  0  0  0
    2.1376   22.5134   53.8603 H   0  0  0  0  0  0  0  0  0  0  0  0
  2  3  1  0
  3  5  1  0
  4  6  1  0
  2  7  1  0
  1  8  1  0
  5  8  1  0
  1  9  1  0
  3  9  1  0
  3 10  1  6
  4 11  1  6
  6 12  1  0
  9 13  1  0
 13 14  1  0
 14 15  1  0
 16 17  1  0
 12 18  1  0
 18 19  1  0
  4 20  1  0
 19 20  2  0
 20 21  1  0
 21 22  1  0
  5 23  1  0
 22 23  1  0
  4 24  1  0
  7 24  1  0
 23 24  1  0
 15 25  2  0
  9 26  1  6
 15 26  1  0
 16 27  2  0
 18 28  2  0
 16 29  1  0
 22 29  1  0
  1 30  1  0
  1 31  1  0
  2 32  1  0
  2 33  1  0
  5 34  1  1
  6 35  1  0
  6 36  1  0
  7 37  1  0
  7 38  1  0
  8 39  1  0
  8 40  1  0
 10 41  1  0
 10 42  1  0
 10 43  1  0
 11 44  1  0
 11 45  1  0
 11 46  1  0
 12 47  1  0
 12 48  1  0
 13 49  1  0
 13 50  1  0
 14 51  1  0
 14 52  1  0
 17 53  1  0
 17 54  1  0
 17 55  1  0
 19 56  1  0
 21 57  1  0
 21 58  1  0
 22 59  1  6
 23 60  1  6
 24 61  1  1
M  END
$$$$
