PDB_DB00712_96
     RDKit          3D

 31 32  0  0  0  0  0  0  0  0999 V2000
   63.0940  -25.0100  -47.8220 C   0  0  0  0  0  0  0  0  0  0  0  0
   63.3670  -25.6930  -49.0040 C   0  0  0  0  0  0  0  0  0  0  0  0
   64.2420  -25.1390  -49.9290 C   0  0  0  0  0  0  0  0  0  0  0  0
   64.8280  -23.9040  -49.6750 C   0  0  0  0  0  0  0  0  0  0  0  0
   64.5480  -23.2200  -48.4950 C   0  0  0  0  0  0  0  0  0  0  0  0
   63.6940  -23.7830  -47.5510 C   0  0  0  0  0  0  0  0  0  0  0  0
   63.3590  -23.0060  -46.3160 C   0  0  0  0  0  0  0  0  0  0  0  0
   64.2810  -22.2190  -45.6520 C   0  0  0  0  0  0  0  0  0  0  0  0
   63.9330  -21.4640  -44.5300 C   0  0  0  0  0  0  0  0  0  0  0  0
   65.5150  -22.2220  -46.0990 F   0  0  0  0  0  0  0  0  0  0  0  0
   62.0530  -23.0080  -45.8720 C   0  0  0  0  0  0  0  0  0  0  0  0
   61.6910  -22.2650  -44.7620 C   0  0  0  0  0  0  0  0  0  0  0  0
   62.6200  -21.4960  -44.0790 C   0  0  0  0  0  0  0  0  0  0  0  0
   62.1480  -20.7120  -42.8890 C   0  0  1  0  0  0  0  0  0  0  0  0
   62.7960  -21.1500  -41.6160 C   0  0  0  0  0  0  0  0  0  0  0  0
   62.3990  -19.2540  -43.1300 C   0  0  0  0  0  0  0  0  0  0  0  0
   63.5740  -18.8120  -43.1640 O   0  0  0  0  0  0  0  0  0  0  0  0
   61.4380  -18.4630  -43.3090 O   0  0  0  0  0  0  0  0  0  0  0  0
   62.3951  -25.4453  -47.0926 H   0  0  0  0  0  0  0  0  0  0  0  0
   62.8927  -26.6651  -49.2039 H   0  0  0  0  0  0  0  0  0  0  0  0
   64.4711  -25.6763  -50.8611 H   0  0  0  0  0  0  0  0  0  0  0  0
   65.5173  -23.4645  -50.4110 H   0  0  0  0  0  0  0  0  0  0  0  0
   65.0014  -22.2352  -48.3089 H   0  0  0  0  0  0  0  0  0  0  0  0
   64.6871  -20.8535  -44.0116 H   0  0  0  0  0  0  0  0  0  0  0  0
   61.2954  -23.6032  -46.4029 H   0  0  0  0  0  0  0  0  0  0  0  0
   60.6472  -22.2851  -44.4156 H   0  0  0  0  0  0  0  0  0  0  0  0
   61.0703  -20.8971  -42.7696 H   0  0  0  0  0  0  0  0  0  0  0  0
   62.2229  -20.7627  -40.7607 H   0  0  0  0  0  0  0  0  0  0  0  0
   62.8181  -22.2490  -41.5750 H   0  0  0  0  0  0  0  0  0  0  0  0
   63.8240  -20.7608  -41.5750 H   0  0  0  0  0  0  0  0  0  0  0  0
   63.7360  -17.8484  -43.3234 H   0  0  0  0  0  0  0  0  0  0  0  0
  1  2  2  0
  2  3  1  0
  3  4  2  0
  4  5  1  0
  1  6  1  0
  5  6  2  0
  6  7  1  0
  7  8  2  0
  8  9  1  0
  8 10  1  0
  7 11  1  0
 11 12  2  0
  9 13  2  0
 12 13  1  0
 13 14  1  0
 14 15  1  0
 14 16  1  0
 16 17  1  0
 16 18  2  0
  1 19  1  0
  2 20  1  0
  3 21  1  0
  4 22  1  0
  5 23  1  0
  9 24  1  0
 11 25  1  0
 12 26  1  0
 14 27  1  1
 15 28  1  0
 15 29  1  0
 15 30  1  0
 17 31  1  0
M  END
$$$$
