PDB_DB00482_95
     RDKit          3D

 40 42  0  0  0  0  0  0  0  0999 V2000
   70.3350  -46.3150   44.7870 S   0  0  0  0  0  0  0  0  0  0  0  0
   68.5820  -46.0560   44.7720 C   0  0  0  0  0  0  0  0  0  0  0  0
   68.0640  -44.9290   45.3530 C   0  0  0  0  0  0  0  0  0  0  0  0
   66.7030  -44.7420   45.3300 C   0  0  0  0  0  0  0  0  0  0  0  0
   65.9020  -45.6760   44.7280 C   0  0  0  0  0  0  0  0  0  0  0  0
   66.4300  -46.8060   44.1470 C   0  0  0  0  0  0  0  0  0  0  0  0
   67.7890  -47.0030   44.1690 C   0  0  0  0  0  0  0  0  0  0  0  0
   64.5120  -45.5120   44.6690 N   0  0  0  0  0  0  0  0  0  0  0  0
   63.6240  -45.0840   45.6260 C   0  0  0  0  0  0  0  0  0  0  0  0
   63.8580  -44.4360   46.8860 C   0  0  0  0  0  0  0  0  0  0  0  0
   64.6950  -44.9390   47.8520 C   0  0  0  0  0  0  0  0  0  0  0  0
   64.8240  -44.2810   49.0590 C   0  0  0  0  0  0  0  0  0  0  0  0
   64.1190  -43.1230   49.3060 C   0  0  0  0  0  0  0  0  0  0  0  0
   64.2480  -42.4050   50.6040 C   0  0  0  0  0  0  0  0  0  0  0  0
   63.2860  -42.6280   48.3330 C   0  0  0  0  0  0  0  0  0  0  0  0
   63.1510  -43.2850   47.1340 C   0  0  0  0  0  0  0  0  0  0  0  0
   62.3750  -45.3780   45.1410 C   0  0  0  0  0  0  0  0  0  0  0  0
   62.5900  -45.9720   43.8880 C   0  0  0  0  0  0  0  0  0  0  0  0
   61.5610  -46.4580   42.9620 C   0  0  0  0  0  0  0  0  0  0  0  0
   60.3390  -45.8840   43.1650 F   0  0  0  0  0  0  0  0  0  0  0  0
   61.8750  -46.2560   41.6530 F   0  0  0  0  0  0  0  0  0  0  0  0
   61.4220  -47.7870   43.1640 F   0  0  0  0  0  0  0  0  0  0  0  0
   63.8920  -46.0520   43.6040 N   0  0  0  0  0  0  0  0  0  0  0  0
   70.9180  -45.3930   46.0730 N   0  0  0  0  0  0  0  0  0  0  0  0
   70.8470  -45.7220   43.5560 O   0  0  0  0  0  0  0  0  0  0  0  0
   70.4680  -47.7300   45.0340 O   0  0  0  0  0  0  0  0  0  0  0  0
   68.7242  -44.1886   45.8284 H   0  0  0  0  0  0  0  0  0  0  0  0
   66.2594  -43.8478   45.7922 H   0  0  0  0  0  0  0  0  0  0  0  0
   65.7697  -47.5448   43.6693 H   0  0  0  0  0  0  0  0  0  0  0  0
   68.2337  -47.9001   43.7135 H   0  0  0  0  0  0  0  0  0  0  0  0
   65.2609  -45.8634   47.6645 H   0  0  0  0  0  0  0  0  0  0  0  0
   65.4958  -44.6849   49.8307 H   0  0  0  0  0  0  0  0  0  0  0  0
   64.1199  -43.1180   51.4318 H   0  0  0  0  0  0  0  0  0  0  0  0
   65.2437  -41.9421   50.6696 H   0  0  0  0  0  0  0  0  0  0  0  0
   63.4757  -41.6244   50.6696 H   0  0  0  0  0  0  0  0  0  0  0  0
   62.7236  -41.7002   48.5146 H   0  0  0  0  0  0  0  0  0  0  0  0
   62.4713  -42.8860   46.3666 H   0  0  0  0  0  0  0  0  0  0  0  0
   61.4086  -45.1881   45.6310 H   0  0  0  0  0  0  0  0  0  0  0  0
   70.6409  -45.8312   46.9630 H   0  0  0  0  0  0  0  0  0  0  0  0
   71.9454  -45.3418   46.0207 H   0  0  0  0  0  0  0  0  0  0  0  0
  1  2  1  0
  2  3  2  0
  3  4  1  0
  4  5  2  0
  5  6  1  0
  2  7  1  0
  6  7  2  0
  5  8  1  0
  8  9  1  0
  9 10  1  0
 10 11  2  0
 11 12  1  0
 12 13  2  0
 13 14  1  0
 13 15  1  0
 10 16  1  0
 15 16  2  0
  9 17  2  0
 17 18  1  0
 18 19  1  0
 19 20  1  0
 19 21  1  0
 19 22  1  0
  8 23  1  0
 18 23  2  0
  1 24  1  0
  1 25  2  0
  1 26  2  0
  3 27  1  0
  4 28  1  0
  6 29  1  0
  7 30  1  0
 11 31  1  0
 12 32  1  0
 14 33  1  0
 14 34  1  0
 14 35  1  0
 15 36  1  0
 16 37  1  0
 17 38  1  0
 24 39  1  0
 24 40  1  0
M  END
$$$$
