PDB_DB00869_97
     RDKit          3D

 35 36  0  0  0  0  0  0  0  0999 V2000
   15.1290    3.7250   15.8110 S   0  0  0  0  0  0  0  0  0  0  0  0
   16.0630    2.4190   16.1260 C   0  0  0  0  0  0  0  0  0  0  0  0
   17.4170    2.6220   15.6180 C   0  0  0  0  0  0  0  0  0  0  0  0
   17.5040    3.9980   14.9570 C   0  0  0  0  0  0  0  0  0  0  0  0
   18.7330    4.6720   14.2490 C   0  0  2  0  0  0  0  0  0  0  0  0
   18.7090    6.1980   14.3460 C   0  0  0  0  0  0  0  0  0  0  0  0
   17.4690    6.8300   13.6780 C   0  0  1  0  0  0  0  0  0  0  0  0
   16.0060    6.2500   14.4060 S   0  0  0  0  0  0  0  0  0  0  0  0
   16.2060    4.6600   15.0450 C   0  0  0  0  0  0  0  0  0  0  0  0
   15.4820    0.9960   16.9780 S   0  0  0  0  0  0  0  0  0  0  0  0
   14.0180    1.0480   16.9640 O   0  0  0  0  0  0  0  0  0  0  0  0
   15.8350    1.0800   18.3680 O   0  0  0  0  0  0  0  0  0  0  0  0
   16.0930   -0.4050   16.2730 N   0  0  0  0  0  0  0  0  0  0  0  0
   18.6970    4.2950   12.9020 N   0  0  0  0  0  0  0  0  0  0  0  0
   17.6040    8.3920   13.7870 C   0  0  0  0  0  0  0  0  0  0  0  0
   14.9200    6.3600   13.4470 O   0  0  0  0  0  0  0  0  0  0  0  0
   15.7300    7.0880   15.5560 O   0  0  0  0  0  0  0  0  0  0  0  0
   19.9400    3.6050   12.5190 C   0  0  0  0  0  0  0  0  0  0  0  0
   19.8570    3.1170   11.0430 C   0  0  0  0  0  0  0  0  0  0  0  0
   18.2429    1.8999   15.6981 H   0  0  0  0  0  0  0  0  0  0  0  0
   19.6535    4.3377   14.7499 H   0  0  0  0  0  0  0  0  0  0  0  0
   18.7159    6.4810   15.4090 H   0  0  0  0  0  0  0  0  0  0  0  0
   19.5948    6.5736   13.8128 H   0  0  0  0  0  0  0  0  0  0  0  0
   17.4168    6.5424   12.6175 H   0  0  0  0  0  0  0  0  0  0  0  0
   16.3802   -1.0636   17.0110 H   0  0  0  0  0  0  0  0  0  0  0  0
   15.3655   -0.8406   15.6883 H   0  0  0  0  0  0  0  0  0  0  0  0
   17.8987    3.6622   12.7496 H   0  0  0  0  0  0  0  0  0  0  0  0
   17.6293    8.6848   14.8470 H   0  0  0  0  0  0  0  0  0  0  0  0
   18.5334    8.7149   13.2951 H   0  0  0  0  0  0  0  0  0  0  0  0
   16.7438    8.8696   13.2951 H   0  0  0  0  0  0  0  0  0  0  0  0
   20.7870    4.2989   12.6243 H   0  0  0  0  0  0  0  0  0  0  0  0
   20.0814    2.7338   13.1755 H   0  0  0  0  0  0  0  0  0  0  0  0
   19.6726    2.0327   11.0251 H   0  0  0  0  0  0  0  0  0  0  0  0
   19.0345    3.6373   10.5305 H   0  0  0  0  0  0  0  0  0  0  0  0
   20.8053    3.3361   10.5305 H   0  0  0  0  0  0  0  0  0  0  0  0
  1  2  1  0
  2  3  2  0
  3  4  1  0
  4  5  1  0
  5  6  1  0
  6  7  1  0
  7  8  1  0
  1  9  1  0
  4  9  2  0
  8  9  1  0
  2 10  1  0
 10 11  2  0
 10 12  2  0
 10 13  1  0
  5 14  1  0
  7 15  1  0
  8 16  2  0
  8 17  2  0
 14 18  1  0
 18 19  1  0
  3 20  1  0
  5 21  1  1
  6 22  1  0
  6 23  1  0
  7 24  1  6
 13 25  1  0
 13 26  1  0
 14 27  1  0
 15 28  1  0
 15 29  1  0
 15 30  1  0
 18 31  1  0
 18 32  1  0
 19 33  1  0
 19 34  1  0
 19 35  1  0
M  END
>  <PDBID>  (1) 
4K13

>  <PDB ID>  (1) 
4K13

>  <Generic Name>  (1) 
Dorzolamide

>  <Brand Name>  (1) 
Act Dorzotimolol#Apo-dorzo-timop#Apo-dorzolamide#Cosopt#Cosopt PF#Dorzolamide#Dorzolamide HCl#Dorzolamide HCl /timolol Maleate#Dorzolamide HCl and Timolol Maleate#Dorzolamide Hydrochloride#Dorzolamide Hydrochloride Ophthalmic Solution#Dorzolamide Hydrochloride Ophthalmic Solution 2%, 10ml Ophthalmic Solution 2%, 10ml#Dorzolamide Hydrochloride and Timolol Maleate#Dorzolamide Hydrochloride and Timolol Maleate Ophthalmic Solution#Dorzolamide Hydrochloride-timolol Maleate#Dorzolamide Hydrochloride-timolol Maleate Ophthalmic Solution Sterile Ophthalmic Solution#Jamp-dorzolamide#Jamp-dorzolamide/timolol#Med-dorzolamide#Med-dorzolamide-timolol#Mint-dorzolamide/timolol#Mylan-dorzolamide/timolol#PMS-dorzolamide-timolol#Riva-dorzolamide#Riva-dorzolamide/timolol#Sandoz Dorzolamide#Sandoz Dorzolamide/timolol#Teva-dorzotimol#Trusopt#Van-dorzolamide-timolol

>  <DrugBank ID>  (1) 
DB00869

>  <ATC Codes>  (1) 
S01EC03

>  <Ligand ID>  (1) 
ETS

>  <Target Name>  (1) 
Carbonic anhydrase 2

>  <UniProt ID>  (1) 
P00918

>  <PDB ID.1>  (1) 
4K13

>  <Seq. Identity>  (1) 
98%

$$$$
