PDB_DB02546_92
     RDKit          3D

 39 39  0  0  0  0  0  0  0  0999 V2000
    3.5580   -8.7140    1.6040 O   0  0  0  0  0  0  0  0  0  0  0  0
    5.0390   -7.0310    2.8860 O   0  0  0  0  0  0  0  0  0  0  0  0
    4.4390   -7.8860    0.9540 N   0  0  0  0  0  0  0  0  0  0  0  0
    5.1450   -7.0400    1.6670 C   0  0  0  0  0  0  0  0  0  0  0  0
    6.0770   -6.1070    0.9290 C   0  0  0  0  0  0  0  0  0  0  0  0
    5.5460   -5.7040   -0.4290 C   0  0  0  0  0  0  0  0  0  0  0  0
    6.4250   -4.6400   -1.0500 C   0  0  0  0  0  0  0  0  0  0  0  0
    5.9100   -3.2480   -0.7060 C   0  0  0  0  0  0  0  0  0  0  0  0
    6.3920   -2.2720   -1.7590 C   0  0  0  0  0  0  0  0  0  0  0  0
    5.7660   -0.9010   -1.5470 C   0  0  0  0  0  0  0  0  0  0  0  0
    6.2230   -0.3080   -0.2340 C   0  0  0  0  0  0  0  0  0  0  0  0
    5.4330   -0.1540    0.6850 O   0  0  0  0  0  0  0  0  0  0  0  0
    7.5170   -0.0110   -0.1990 N   0  0  0  0  0  0  0  0  0  0  0  0
    8.2540    0.5420    0.8680 C   0  0  0  0  0  0  0  0  0  0  0  0
    9.6320    0.4080    0.8200 C   0  0  0  0  0  0  0  0  0  0  0  0
   10.4350    0.9430    1.8220 C   0  0  0  0  0  0  0  0  0  0  0  0
    9.8590    1.6490    2.8680 C   0  0  0  0  0  0  0  0  0  0  0  0
    8.4860    1.7870    2.9330 C   0  0  0  0  0  0  0  0  0  0  0  0
    7.6880    1.2500    1.9350 C   0  0  0  0  0  0  0  0  0  0  0  0
    3.6683   -8.6104    2.5824 H   0  0  0  0  0  0  0  0  0  0  0  0
    4.5436   -7.9277   -0.0698 H   0  0  0  0  0  0  0  0  0  0  0  0
    6.2188   -5.1998    1.5347 H   0  0  0  0  0  0  0  0  0  0  0  0
    7.0247   -6.6422    0.7694 H   0  0  0  0  0  0  0  0  0  0  0  0
    5.5269   -6.5860   -1.0861 H   0  0  0  0  0  0  0  0  0  0  0  0
    4.5307   -5.2986   -0.3069 H   0  0  0  0  0  0  0  0  0  0  0  0
    7.4505   -4.7503   -0.6676 H   0  0  0  0  0  0  0  0  0  0  0  0
    6.4101   -4.7625   -2.1431 H   0  0  0  0  0  0  0  0  0  0  0  0
    4.8102   -3.2558   -0.6857 H   0  0  0  0  0  0  0  0  0  0  0  0
    6.2862   -2.9454    0.2824 H   0  0  0  0  0  0  0  0  0  0  0  0
    7.4866   -2.1832   -1.6953 H   0  0  0  0  0  0  0  0  0  0  0  0
    6.0971   -2.6465   -2.7504 H   0  0  0  0  0  0  0  0  0  0  0  0
    6.0664   -0.2348   -2.3692 H   0  0  0  0  0  0  0  0  0  0  0  0
    4.6715   -1.0088   -1.5270 H   0  0  0  0  0  0  0  0  0  0  0  0
    8.0484   -0.2095   -1.0587 H   0  0  0  0  0  0  0  0  0  0  0  0
   10.0968   -0.1280   -0.0206 H   0  0  0  0  0  0  0  0  0  0  0  0
   11.5258    0.8063    1.7849 H   0  0  0  0  0  0  0  0  0  0  0  0
   10.4949    2.0985    3.6449 H   0  0  0  0  0  0  0  0  0  0  0  0
    8.0262    2.3229    3.7765 H   0  0  0  0  0  0  0  0  0  0  0  0
    6.5969    1.3817    1.9819 H   0  0  0  0  0  0  0  0  0  0  0  0
  3  1  1  0
  3  4  1  0
  4  2  2  0
  4  5  1  0
  5  6  1  0
  6  7  1  0
  7  8  1  0
  8  9  1  0
  9 10  1  0
 10 11  1  0
 11 12  2  0
 11 13  1  0
 13 14  1  0
 14 15  2  0
 15 16  1  0
 16 17  2  0
 17 18  1  0
 14 19  1  0
 18 19  2  0
  1 20  1  0
  3 21  1  0
  5 22  1  0
  5 23  1  0
  6 24  1  0
  6 25  1  0
  7 26  1  0
  7 27  1  0
  8 28  1  0
  8 29  1  0
  9 30  1  0
  9 31  1  0
 10 32  1  0
 10 33  1  0
 13 34  1  0
 15 35  1  0
 16 36  1  0
 17 37  1  0
 18 38  1  0
 19 39  1  0
M  END
$$$$
