PDB_DB08910_96
     RDKit          3D

 31 33  0  0  0  0  0  0  0  0999 V2000
  -50.2740  -29.6300   -1.2060 C   0  0  0  0  0  0  0  0  0  0  0  0
  -49.0210  -29.3300   -1.7430 C   0  0  0  0  0  0  0  0  0  0  0  0
  -48.2510  -30.3360   -2.3250 C   0  0  0  0  0  0  0  0  0  0  0  0
  -48.7420  -31.6390   -2.3610 C   0  0  0  0  0  0  0  0  0  0  0  0
  -49.9940  -31.9420   -1.8320 C   0  0  0  0  0  0  0  0  0  0  0  0
  -50.7640  -30.9330   -1.2480 C   0  0  0  0  0  0  0  0  0  0  0  0
  -48.2330  -32.8350   -2.8610 C   0  0  0  0  0  0  0  0  0  0  0  0
  -49.1100  -33.8120   -2.6610 N   0  0  0  0  0  0  0  0  0  0  0  0
  -50.1740  -33.3140   -2.0360 C   0  0  0  0  0  0  0  0  0  0  0  0
  -51.9610  -31.2020   -0.7320 N   0  0  0  0  0  0  0  0  0  0  0  0
  -51.1540  -33.9820   -1.7050 O   0  0  0  0  0  0  0  0  0  0  0  0
  -48.9290  -35.2300   -3.0100 C   0  0  1  0  0  0  0  0  0  0  0  0
  -47.1460  -32.9640   -3.4080 O   0  0  0  0  0  0  0  0  0  0  0  0
  -48.9780  -35.4790   -4.5210 C   0  0  0  0  0  0  0  0  0  0  0  0
  -47.5910  -35.7300   -2.4390 C   0  0  0  0  0  0  0  0  0  0  0  0
  -46.9160  -36.7770   -3.0520 N   0  0  0  0  0  0  0  0  0  0  0  0
  -47.4420  -37.4330   -4.1610 C   0  0  0  0  0  0  0  0  0  0  0  0
  -48.7800  -36.9810   -4.7680 C   0  0  0  0  0  0  0  0  0  0  0  0
  -47.0720  -35.1860   -1.4610 O   0  0  0  0  0  0  0  0  0  0  0  0
  -46.8070  -38.3750   -4.6320 O   0  0  0  0  0  0  0  0  0  0  0  0
  -50.8776  -28.8330   -0.7472 H   0  0  0  0  0  0  0  0  0  0  0  0
  -48.6406  -28.2985   -1.7069 H   0  0  0  0  0  0  0  0  0  0  0  0
  -47.2644  -30.1028   -2.7520 H   0  0  0  0  0  0  0  0  0  0  0  0
  -52.3295  -32.1634   -0.7597 H   0  0  0  0  0  0  0  0  0  0  0  0
  -52.5188  -30.4487   -0.3050 H   0  0  0  0  0  0  0  0  0  0  0  0
  -49.7670  -35.7881   -2.5671 H   0  0  0  0  0  0  0  0  0  0  0  0
  -49.9533  -35.1619   -4.9189 H   0  0  0  0  0  0  0  0  0  0  0  0
  -48.1876  -34.9042   -5.0259 H   0  0  0  0  0  0  0  0  0  0  0  0
  -46.0042  -37.0753   -2.6771 H   0  0  0  0  0  0  0  0  0  0  0  0
  -49.6024  -37.5405   -4.2983 H   0  0  0  0  0  0  0  0  0  0  0  0
  -48.7732  -37.1747   -5.8508 H   0  0  0  0  0  0  0  0  0  0  0  0
  1  2  2  0
  2  3  1  0
  3  4  2  0
  4  5  1  0
  1  6  1  0
  5  6  2  0
  4  7  1  0
  7  8  1  0
  5  9  1  0
  8  9  1  0
  6 10  1  0
  9 11  2  0
  8 12  1  0
  7 13  2  0
 12 14  1  0
 12 15  1  0
 15 16  1  0
 16 17  1  0
 14 18  1  0
 17 18  1  0
 15 19  2  0
 17 20  2  0
  1 21  1  0
  2 22  1  0
  3 23  1  0
 10 24  1  0
 10 25  1  0
 12 26  1  1
 14 27  1  0
 14 28  1  0
 16 29  1  0
 18 30  1  0
 18 31  1  0
M  END
$$$$
