PDB_DB00255_97
     RDKit          3D

216220  0  0  0  0  0  0  0  0999 V2000
   59.6010   35.2420   55.6180 C   0  0  0  0  0  0  0  0  0  0  0  0
   59.2280   35.7570   56.9700 C   0  0  0  0  0  0  0  0  0  0  0  0
   58.7540   34.7110   58.0050 C   0  0  0  0  0  0  0  0  0  0  0  0
   59.8900   33.8160   58.5420 C   0  0  0  0  0  0  0  0  0  0  0  0
   60.6160   34.1790   59.7180 C   0  0  0  0  0  0  0  0  0  0  0  0
   61.6620   33.3390   60.2210 C   0  0  0  0  0  0  0  0  0  0  0  0
   61.9790   32.1350   59.5410 C   0  0  0  0  0  0  0  0  0  0  0  0
   62.9760   31.2890   59.9850 O   0  0  0  0  0  0  0  0  0  0  0  0
   61.2740   31.7540   58.3700 C   0  0  0  0  0  0  0  0  0  0  0  0
   60.2410   32.5930   57.8860 C   0  0  0  0  0  0  0  0  0  0  0  0
   57.4770   34.5750   58.4340 C   0  0  0  0  0  0  0  0  0  0  0  0
   56.2940   35.4400   57.9420 C   0  0  0  0  0  0  0  0  0  0  0  0
   55.5750   35.0850   56.7570 C   0  0  0  0  0  0  0  0  0  0  0  0
   54.4700   35.8690   56.3020 C   0  0  0  0  0  0  0  0  0  0  0  0
   54.0740   37.0170   57.0320 C   0  0  0  0  0  0  0  0  0  0  0  0
   53.0110   37.7960   56.6300 O   0  0  0  0  0  0  0  0  0  0  0  0
   54.7690   37.4000   58.2150 C   0  0  0  0  0  0  0  0  0  0  0  0
   55.8770   36.6030   58.6570 C   0  0  0  0  0  0  0  0  0  0  0  0
   57.0110   33.5380   59.4830 C   0  0  0  0  0  0  0  0  0  0  0  0
   57.1150   34.0040   60.9190 C   0  0  0  0  0  0  0  0  0  0  0  0
   76.9550   47.4340   79.9600 C   0  0  0  0  0  0  0  0  0  0  0  0
   76.4730   48.7550   79.4530 C   0  0  0  0  0  0  0  0  0  0  0  0
   77.1970   49.3290   78.2140 C   0  0  0  0  0  0  0  0  0  0  0  0
   77.9270   48.2600   77.3750 C   0  0  0  0  0  0  0  0  0  0  0  0
   77.2680   47.6060   76.2880 C   0  0  0  0  0  0  0  0  0  0  0  0
   77.9520   46.6220   75.5030 C   0  0  0  0  0  0  0  0  0  0  0  0
   79.2980   46.2940   75.8110 C   0  0  0  0  0  0  0  0  0  0  0  0
   80.0030   45.3550   75.0840 O   0  0  0  0  0  0  0  0  0  0  0  0
   79.9730   46.9280   76.8860 C   0  0  0  0  0  0  0  0  0  0  0  0
   79.2850   47.9000   77.6520 C   0  0  0  0  0  0  0  0  0  0  0  0
   77.2000   50.6360   77.8610 C   0  0  0  0  0  0  0  0  0  0  0  0
   76.4890   51.7570   78.6530 C   0  0  0  0  0  0  0  0  0  0  0  0
   77.1420   52.4030   79.7500 C   0  0  0  0  0  0  0  0  0  0  0  0
   76.4990   53.4510   80.4780 C   0  0  0  0  0  0  0  0  0  0  0  0
   75.1930   53.8620   80.1130 C   0  0  0  0  0  0  0  0  0  0  0  0
   74.5400   54.8720   80.7860 O   0  0  0  0  0  0  0  0  0  0  0  0
   74.5130   53.2390   79.0280 C   0  0  0  0  0  0  0  0  0  0  0  0
   75.1720   52.1880   78.3080 C   0  0  0  0  0  0  0  0  0  0  0  0
   77.9120   51.2030   76.6110 C   0  0  0  0  0  0  0  0  0  0  0  0
   77.0100   51.4170   75.4150 C   0  0  0  0  0  0  0  0  0  0  0  0
   58.7980   66.3470   11.1870 C   0  0  0  0  0  0  0  0  0  0  0  0
   58.0780   65.4180   12.1110 C   0  0  0  0  0  0  0  0  0  0  0  0
   58.9640   64.5210   13.0090 C   0  0  0  0  0  0  0  0  0  0  0  0
   59.7380   65.3010   14.0870 C   0  0  0  0  0  0  0  0  0  0  0  0
   59.2870   65.3590   15.4490 C   0  0  0  0  0  0  0  0  0  0  0  0
   60.0400   66.0900   16.4300 C   0  0  0  0  0  0  0  0  0  0  0  0
   61.2330   66.7560   16.0430 C   0  0  0  0  0  0  0  0  0  0  0  0
   61.9960   67.4700   16.9400 O   0  0  0  0  0  0  0  0  0  0  0  0
   61.6940   66.7110   14.7030 C   0  0  0  0  0  0  0  0  0  0  0  0
   60.9480   65.9880   13.7470 C   0  0  0  0  0  0  0  0  0  0  0  0
   59.0650   63.1740   12.8830 C   0  0  0  0  0  0  0  0  0  0  0  0
   58.3150   62.3660   11.8090 C   0  0  0  0  0  0  0  0  0  0  0  0
   58.8570   62.2560   10.4910 C   0  0  0  0  0  0  0  0  0  0  0  0
   58.1810   61.5030    9.4780 C   0  0  0  0  0  0  0  0  0  0  0  0
   56.9670   60.8580    9.7840 C   0  0  0  0  0  0  0  0  0  0  0  0
   56.2840   60.1160    8.8340 O   0  0  0  0  0  0  0  0  0  0  0  0
   56.4030   60.9530   11.0950 C   0  0  0  0  0  0  0  0  0  0  0  0
   57.0860   61.7050   12.0920 C   0  0  0  0  0  0  0  0  0  0  0  0
   59.9330   62.2650   13.7740 C   0  0  0  0  0  0  0  0  0  0  0  0
   59.2070   61.6740   14.9640 C   0  0  0  0  0  0  0  0  0  0  0  0
   43.7130   70.4090   39.9230 C   0  0  0  0  0  0  0  0  0  0  0  0
   42.9180   70.1660   38.6770 C   0  0  0  0  0  0  0  0  0  0  0  0
   42.4060   71.4030   37.8800 C   0  0  0  0  0  0  0  0  0  0  0  0
   43.4770   72.4680   37.5760 C   0  0  0  0  0  0  0  0  0  0  0  0
   44.2540   72.4560   36.3730 C   0  0  0  0  0  0  0  0  0  0  0  0
   45.2310   73.4880   36.1380 C   0  0  0  0  0  0  0  0  0  0  0  0
   45.4190   74.5150   37.1100 C   0  0  0  0  0  0  0  0  0  0  0  0
   46.3350   75.5320   36.9480 O   0  0  0  0  0  0  0  0  0  0  0  0
   44.6590   74.5340   38.3000 C   0  0  0  0  0  0  0  0  0  0  0  0
   43.7050   73.5230   38.5180 C   0  0  0  0  0  0  0  0  0  0  0  0
   41.1250   71.5680   37.4690 C   0  0  0  0  0  0  0  0  0  0  0  0
   39.9900   70.5680   37.7550 C   0  0  0  0  0  0  0  0  0  0  0  0
   39.4030   70.5310   39.0530 C   0  0  0  0  0  0  0  0  0  0  0  0
   38.3430   69.6380   39.3620 C   0  0  0  0  0  0  0  0  0  0  0  0
   37.8510   68.7650   38.3630 C   0  0  0  0  0  0  0  0  0  0  0  0
   36.8130   67.8920   38.6290 O   0  0  0  0  0  0  0  0  0  0  0  0
   38.4110   68.7690   37.0520 C   0  0  0  0  0  0  0  0  0  0  0  0
   39.4810   69.6750   36.7620 C   0  0  0  0  0  0  0  0  0  0  0  0
   40.6140   72.7940   36.6630 C   0  0  0  0  0  0  0  0  0  0  0  0
   40.7530   72.6630   35.1550 C   0  0  0  0  0  0  0  0  0  0  0  0
   60.2430   34.3556   55.7276 H   0  0  0  0  0  0  0  0  0  0  0  0
   58.6899   34.9688   55.0655 H   0  0  0  0  0  0  0  0  0  0  0  0
   60.1447   36.0225   55.0655 H   0  0  0  0  0  0  0  0  0  0  0  0
   60.1099   36.2641   57.3885 H   0  0  0  0  0  0  0  0  0  0  0  0
   58.3594   36.4105   56.8009 H   0  0  0  0  0  0  0  0  0  0  0  0
   58.5705   33.9913   57.1936 H   0  0  0  0  0  0  0  0  0  0  0  0
   60.6153   34.3661   57.9244 H   0  0  0  0  0  0  0  0  0  0  0  0
   61.0708   35.1600   59.5160 H   0  0  0  0  0  0  0  0  0  0  0  0
   59.8516   34.1170   60.5066 H   0  0  0  0  0  0  0  0  0  0  0  0
   62.5788   33.9465   60.2402 H   0  0  0  0  0  0  0  0  0  0  0  0
   61.2724   32.9935   61.1899 H   0  0  0  0  0  0  0  0  0  0  0  0
   62.7124   32.6760   58.9250 H   0  0  0  0  0  0  0  0  0  0  0  0
   62.9854   31.2810   60.9749 H   0  0  0  0  0  0  0  0  0  0  0  0
   62.0162   31.6590   57.5637 H   0  0  0  0  0  0  0  0  0  0  0  0
   60.7489   30.8340   58.6664 H   0  0  0  0  0  0  0  0  0  0  0  0
   59.3282   31.9795   57.8684 H   0  0  0  0  0  0  0  0  0  0  0  0
   60.6603   32.9521   56.9346 H   0  0  0  0  0  0  0  0  0  0  0  0
   57.6707   35.2983   59.2398 H   0  0  0  0  0  0  0  0  0  0  0  0
   56.9873   36.0457   57.3399 H   0  0  0  0  0  0  0  0  0  0  0  0
   56.3089   35.0744   55.9377 H   0  0  0  0  0  0  0  0  0  0  0  0
   55.0967   34.1358   57.0404 H   0  0  0  0  0  0  0  0  0  0  0  0
   54.7169   36.2076   55.2849 H   0  0  0  0  0  0  0  0  0  0  0  0
   53.6124   35.1888   56.4107 H   0  0  0  0  0  0  0  0  0  0  0  0
   54.7552   37.6354   56.4290 H   0  0  0  0  0  0  0  0  0  0  0  0
   52.5367   38.1435   57.4265 H   0  0  0  0  0  0  0  0  0  0  0  0
   55.1496   38.4188   58.0503 H   0  0  0  0  0  0  0  0  0  0  0  0
   54.0210   37.2792   59.0125 H   0  0  0  0  0  0  0  0  0  0  0  0
   55.6314   36.2689   59.6759 H   0  0  0  0  0  0  0  0  0  0  0  0
   56.7287   37.2846   58.5150 H   0  0  0  0  0  0  0  0  0  0  0  0
   55.9589   33.2914   59.2777 H   0  0  0  0  0  0  0  0  0  0  0  0
   57.6837   32.6731   59.3865 H   0  0  0  0  0  0  0  0  0  0  0  0
   56.9258   33.1564   61.5941 H   0  0  0  0  0  0  0  0  0  0  0  0
   58.1240   34.4015   61.1033 H   0  0  0  0  0  0  0  0  0  0  0  0
   56.3708   34.7928   61.1033 H   0  0  0  0  0  0  0  0  0  0  0  0
   76.9527   47.4404   81.0600 H   0  0  0  0  0  0  0  0  0  0  0  0
   76.2898   46.6369   79.5966 H   0  0  0  0  0  0  0  0  0  0  0  0
   77.9773   47.2526   79.5966 H   0  0  0  0  0  0  0  0  0  0  0  0
   75.4090   48.6454   79.1963 H   0  0  0  0  0  0  0  0  0  0  0  0
   76.6787   49.4686   80.2644 H   0  0  0  0  0  0  0  0  0  0  0  0
   78.1063   49.4786   78.8146 H   0  0  0  0  0  0  0  0  0  0  0  0
   77.5707   47.4779   78.0616 H   0  0  0  0  0  0  0  0  0  0  0  0
   76.3817   47.1101   76.7106 H   0  0  0  0  0  0  0  0  0  0  0  0
   77.1083   48.4242   75.5703 H   0  0  0  0  0  0  0  0  0  0  0  0
   77.3705   45.6914   75.5791 H   0  0  0  0  0  0  0  0  0  0  0  0
   78.0207   47.0872   74.5086 H   0  0  0  0  0  0  0  0  0  0  0  0
   78.9495   45.5044   76.4930 H   0  0  0  0  0  0  0  0  0  0  0  0
   80.4665   44.7377   75.7039 H   0  0  0  0  0  0  0  0  0  0  0  0
   80.2890   46.1354   77.5802 H   0  0  0  0  0  0  0  0  0  0  0  0
   80.7739   47.4992   76.3938 H   0  0  0  0  0  0  0  0  0  0  0  0
   79.8720   48.8269   77.5728 H   0  0  0  0  0  0  0  0  0  0  0  0
   79.1987   47.4053   78.6307 H   0  0  0  0  0  0  0  0  0  0  0  0
   76.2881   50.4776   77.2666 H   0  0  0  0  0  0  0  0  0  0  0  0
   76.0737   51.0068   79.3420 H   0  0  0  0  0  0  0  0  0  0  0  0
   77.3788   51.6152   80.4803 H   0  0  0  0  0  0  0  0  0  0  0  0
   77.9757   52.9268   79.2595 H   0  0  0  0  0  0  0  0  0  0  0  0
   76.4491   53.1258   81.5277 H   0  0  0  0  0  0  0  0  0  0  0  0
   77.1164   54.3335   80.2545 H   0  0  0  0  0  0  0  0  0  0  0  0
   74.7664   53.1234   80.8076 H   0  0  0  0  0  0  0  0  0  0  0  0
   74.6311   54.7311   81.7617 H   0  0  0  0  0  0  0  0  0  0  0  0
   73.5799   52.8183   79.4309 H   0  0  0  0  0  0  0  0  0  0  0  0
   74.4078   54.0432   78.2849 H   0  0  0  0  0  0  0  0  0  0  0  0
   75.2172   52.5127   77.2580 H   0  0  0  0  0  0  0  0  0  0  0  0
   74.5620   51.3090   78.5634 H   0  0  0  0  0  0  0  0  0  0  0  0
   78.3597   52.1709   76.8806 H   0  0  0  0  0  0  0  0  0  0  0  0
   78.6570   50.4521   76.3092 H   0  0  0  0  0  0  0  0  0  0  0  0
   75.9939   51.6581   75.7606 H   0  0  0  0  0  0  0  0  0  0  0  0
   77.3975   52.2481   74.8075 H   0  0  0  0  0  0  0  0  0  0  0  0
   76.9829   50.5004   74.8075 H   0  0  0  0  0  0  0  0  0  0  0  0
   59.3672   67.0815   11.7757 H   0  0  0  0  0  0  0  0  0  0  0  0
   59.4882   65.7713   10.5527 H   0  0  0  0  0  0  0  0  0  0  0  0
   58.0684   66.8717   10.5527 H   0  0  0  0  0  0  0  0  0  0  0  0
   57.4415   66.0271   12.7697 H   0  0  0  0  0  0  0  0  0  0  0  0
   57.5254   64.7256   11.4589 H   0  0  0  0  0  0  0  0  0  0  0  0
   59.8041   64.6520   12.3110 H   0  0  0  0  0  0  0  0  0  0  0  0
   59.1526   66.2029   13.8548 H   0  0  0  0  0  0  0  0  0  0  0  0
   58.2796   65.8003   15.4302 H   0  0  0  0  0  0  0  0  0  0  0  0
   59.3800   64.3167   15.7879 H   0  0  0  0  0  0  0  0  0  0  0  0
   59.3670   66.8548   16.8450 H   0  0  0  0  0  0  0  0  0  0  0  0
   60.3927   65.3086   17.1193 H   0  0  0  0  0  0  0  0  0  0  0  0
   60.6530   67.6624   15.8149 H   0  0  0  0  0  0  0  0  0  0  0  0
   61.7349   67.2257   17.8632 H   0  0  0  0  0  0  0  0  0  0  0  0
   61.7530   67.7502   14.3472 H   0  0  0  0  0  0  0  0  0  0  0  0
   62.6436   66.1597   14.7688 H   0  0  0  0  0  0  0  0  0  0  0  0
   61.6287   65.2273   13.3371 H   0  0  0  0  0  0  0  0  0  0  0  0
   60.5805   66.7889   13.0885 H   0  0  0  0  0  0  0  0  0  0  0  0
   58.2168   63.0460   13.5716 H   0  0  0  0  0  0  0  0  0  0  0  0
   57.7687   63.2723   11.5087 H   0  0  0  0  0  0  0  0  0  0  0  0
   58.9546   63.2818   10.1060 H   0  0  0  0  0  0  0  0  0  0  0  0
   59.7757   61.6734   10.6541 H   0  0  0  0  0  0  0  0  0  0  0  0
   57.9744   62.1961    8.6492 H   0  0  0  0  0  0  0  0  0  0  0  0
   58.8701   60.6703    9.2737 H   0  0  0  0  0  0  0  0  0  0  0  0
   56.4122   61.7579    9.4800 H   0  0  0  0  0  0  0  0  0  0  0  0
   55.6879   59.4684    9.2871 H   0  0  0  0  0  0  0  0  0  0  0  0
   55.4041   61.3999   10.9835 H   0  0  0  0  0  0  0  0  0  0  0  0
   56.4434   59.9206   11.4726 H   0  0  0  0  0  0  0  0  0  0  0  0
   57.2899   61.0105   12.9203 H   0  0  0  0  0  0  0  0  0  0  0  0
   56.3988   62.5455   12.2687 H   0  0  0  0  0  0  0  0  0  0  0  0
   60.3103   61.4370   13.1558 H   0  0  0  0  0  0  0  0  0  0  0  0
   60.7351   62.8988   14.1801 H   0  0  0  0  0  0  0  0  0  0  0  0
   59.6633   62.0455   15.8934 H   0  0  0  0  0  0  0  0  0  0  0  0
   58.1481   61.9701   14.9316 H   0  0  0  0  0  0  0  0  0  0  0  0
   59.2821   60.5770   14.9316 H   0  0  0  0  0  0  0  0  0  0  0  0
   43.0826   70.2163   40.8036 H   0  0  0  0  0  0  0  0  0  0  0  0
   44.5827   69.7357   39.9402 H   0  0  0  0  0  0  0  0  0  0  0  0
   44.0576   71.4535   39.9402 H   0  0  0  0  0  0  0  0  0  0  0  0
   43.5502   69.5774   37.9958 H   0  0  0  0  0  0  0  0  0  0  0  0
   42.0019   69.6694   39.0295 H   0  0  0  0  0  0  0  0  0  0  0  0
   42.1671   71.9129   38.8249 H   0  0  0  0  0  0  0  0  0  0  0  0
   44.2364   71.8461   38.0727 H   0  0  0  0  0  0  0  0  0  0  0  0
   44.7930   71.4973   36.3523 H   0  0  0  0  0  0  0  0  0  0  0  0
   43.5057   72.6314   35.5861 H   0  0  0  0  0  0  0  0  0  0  0  0
   46.2017   72.9861   36.0117 H   0  0  0  0  0  0  0  0  0  0  0  0
   44.8303   74.0281   35.2675 H   0  0  0  0  0  0  0  0  0  0  0  0
   46.1860   73.9035   37.6078 H   0  0  0  0  0  0  0  0  0  0  0  0
   46.6277   75.8570   37.8361 H   0  0  0  0  0  0  0  0  0  0  0  0
   45.3709   74.4910   39.1375 H   0  0  0  0  0  0  0  0  0  0  0  0
   44.0563   75.4500   38.2126 H   0  0  0  0  0  0  0  0  0  0  0  0
   42.7396   74.0350   38.6439 H   0  0  0  0  0  0  0  0  0  0  0  0
   44.1418   72.9781   39.3679 H   0  0  0  0  0  0  0  0  0  0  0  0
   41.3568   71.0375   36.5337 H   0  0  0  0  0  0  0  0  0  0  0  0
   40.7304   69.8173   38.0684 H   0  0  0  0  0  0  0  0  0  0  0  0
   40.2175   70.3010   39.7557 H   0  0  0  0  0  0  0  0  0  0  0  0
   38.9120   71.5131   39.1189 H   0  0  0  0  0  0  0  0  0  0  0  0
   38.6886   69.0080   40.1949 H   0  0  0  0  0  0  0  0  0  0  0  0
   37.4927   70.3070   39.5605 H   0  0  0  0  0  0  0  0  0  0  0  0
   38.5756   67.9987   38.6758 H   0  0  0  0  0  0  0  0  0  0  0  0
   36.7026   67.7992   39.6084 H   0  0  0  0  0  0  0  0  0  0  0  0
   38.7857   67.7533   36.8574 H   0  0  0  0  0  0  0  0  0  0  0  0
   37.5869   69.1168   36.4117 H   0  0  0  0  0  0  0  0  0  0  0  0
   39.1391   70.3024   35.9257 H   0  0  0  0  0  0  0  0  0  0  0  0
   40.3297   68.9951   36.5963 H   0  0  0  0  0  0  0  0  0  0  0  0
   39.5493   72.9394   36.8980 H   0  0  0  0  0  0  0  0  0  0  0  0
   41.2422   73.6465   36.9609 H   0  0  0  0  0  0  0  0  0  0  0  0
   41.5353   71.9257   34.9216 H   0  0  0  0  0  0  0  0  0  0  0  0
   39.7962   72.3306   34.7261 H   0  0  0  0  0  0  0  0  0  0  0  0
   41.0282   73.6378   34.7261 H   0  0  0  0  0  0  0  0  0  0  0  0
  1  2  1  0
  2  3  1  0
  3  4  1  0
  4  5  1  0
  5  6  1  0
  6  7  1  0
  7  8  1  0
  7  9  1  0
  4 10  1  0
  9 10  1  0
  3 11  1  0
 11 12  1  0
 12 13  1  0
 13 14  1  0
 14 15  1  0
 15 16  1  0
 15 17  1  0
 12 18  1  0
 17 18  1  0
 11 19  1  0
 19 20  1  0
 21 22  1  0
 22 23  1  0
 23 24  1  0
 24 25  1  0
 25 26  1  0
 26 27  1  0
 27 28  1  0
 27 29  1  0
 24 30  1  0
 29 30  1  0
 23 31  1  0
 31 32  1  0
 32 33  1  0
 33 34  1  0
 34 35  1  0
 35 36  1  0
 35 37  1  0
 32 38  1  0
 37 38  1  0
 31 39  1  0
 39 40  1  0
 41 42  1  0
 42 43  1  0
 43 44  1  0
 44 45  1  0
 45 46  1  0
 46 47  1  0
 47 48  1  0
 47 49  1  0
 44 50  1  0
 49 50  1  0
 43 51  1  0
 51 52  1  0
 52 53  1  0
 53 54  1  0
 54 55  1  0
 55 56  1  0
 55 57  1  0
 52 58  1  0
 57 58  1  0
 51 59  1  0
 59 60  1  0
 61 62  1  0
 62 63  1  0
 63 64  1  0
 64 65  1  0
 65 66  1  0
 66 67  1  0
 67 68  1  0
 67 69  1  0
 64 70  1  0
 69 70  1  0
 63 71  1  0
 71 72  1  0
 72 73  1  0
 73 74  1  0
 74 75  1  0
 75 76  1  0
 75 77  1  0
 72 78  1  0
 77 78  1  0
 71 79  1  0
 79 80  1  0
  1 81  1  0
  1 82  1  0
  1 83  1  0
  2 84  1  0
  2 85  1  0
  3 86  1  0
  4 87  1  0
  5 88  1  0
  5 89  1  0
  6 90  1  0
  6 91  1  0
  7 92  1  0
  8 93  1  0
  9 94  1  0
  9 95  1  0
 10 96  1  0
 10 97  1  0
 11 98  1  0
 12 99  1  0
 13100  1  0
 13101  1  0
 14102  1  0
 14103  1  0
 15104  1  0
 16105  1  0
 17106  1  0
 17107  1  0
 18108  1  0
 18109  1  0
 19110  1  0
 19111  1  0
 20112  1  0
 20113  1  0
 20114  1  0
 21115  1  0
 21116  1  0
 21117  1  0
 22118  1  0
 22119  1  0
 23120  1  0
 24121  1  0
 25122  1  0
 25123  1  0
 26124  1  0
 26125  1  0
 27126  1  0
 28127  1  0
 29128  1  0
 29129  1  0
 30130  1  0
 30131  1  0
 31132  1  0
 32133  1  0
 33134  1  0
 33135  1  0
 34136  1  0
 34137  1  0
 35138  1  0
 36139  1  0
 37140  1  0
 37141  1  0
 38142  1  0
 38143  1  0
 39144  1  0
 39145  1  0
 40146  1  0
 40147  1  0
 40148  1  0
 41149  1  0
 41150  1  0
 41151  1  0
 42152  1  0
 42153  1  0
 43154  1  0
 44155  1  0
 45156  1  0
 45157  1  0
 46158  1  0
 46159  1  0
 47160  1  0
 48161  1  0
 49162  1  0
 49163  1  0
 50164  1  0
 50165  1  0
 51166  1  0
 52167  1  0
 53168  1  0
 53169  1  0
 54170  1  0
 54171  1  0
 55172  1  0
 56173  1  0
 57174  1  0
 57175  1  0
 58176  1  0
 58177  1  0
 59178  1  0
 59179  1  0
 60180  1  0
 60181  1  0
 60182  1  0
 61183  1  0
 61184  1  0
 61185  1  0
 62186  1  0
 62187  1  0
 63188  1  0
 64189  1  0
 65190  1  0
 65191  1  0
 66192  1  0
 66193  1  0
 67194  1  0
 68195  1  0
 69196  1  0
 69197  1  0
 70198  1  0
 70199  1  0
 71200  1  0
 72201  1  0
 73202  1  0
 73203  1  0
 74204  1  0
 74205  1  0
 75206  1  0
 76207  1  0
 77208  1  0
 77209  1  0
 78210  1  0
 78211  1  0
 79212  1  0
 79213  1  0
 80214  1  0
 80215  1  0
 80216  1  0
M  END
>  <PDBID>  (1) 
1S9P

>  <PDB ID>  (1) 
1S9P

>  <Generic Name>  (1) 
Diethylstilbestrol

>  <Brand Name>  (1) 
Honvol Ampoules 250mg#Honvol Tablets 100mg#Stilbestrol 0.5mg Tablet#Stilbestrol 1.0mg Tablet#Stilbestrol Tab 1mg#Stilbestrol Tablets 0.1 mg#Stilbestrol Tablets 0.5 mg#Stilbestrol Tablets 1.0 mg#Stilboestrol Tab 0.1mg#Stilboestrol Tab 0.5mg#Distilbene#Stilbestrol#Stilbetin

>  <DrugBank ID>  (1) 
DB00255

>  <ATC Codes>  (1) 
L02AA01#G03CC05#L02AA04#G03CB02

>  <Ligand ID>  (1) 
DES

>  <Target Name>  (1) 
Estrogen receptor

>  <UniProt ID>  (1) 
P03372

>  <PDB ID.1>  (1) 
1S9P

>  <Seq. Identity>  (1) 
34%

$$$$
