PDB_DB00773_96
     RDKit          3D

 74 80  0  0  0  0  0  0  0  0999 V2000
   28.1450   98.2930   33.8050 C   0  0  0  0  0  0  0  0  0  0  0  0
   29.1660   99.1680   34.1740 O   0  0  0  0  0  0  0  0  0  0  0  0
   27.2460  100.2430   33.9950 C   0  0  0  0  0  0  0  0  0  0  0  0
   27.1730   99.1130   33.2490 O   0  0  0  0  0  0  0  0  0  0  0  0
   26.2360  101.3410   34.2500 C   0  0  0  0  0  0  0  0  0  0  0  0
   26.0650  106.5460   37.7640 O   0  0  0  0  0  0  0  0  0  0  0  0
   26.6200  102.4500   35.1530 C   0  0  0  0  0  0  0  0  0  0  0  0
   24.3530  106.4200   36.1190 O   0  0  0  0  0  0  0  0  0  0  0  0
   25.5820  103.6210   35.4410 C   0  0  2  0  0  0  0  0  0  0  0  0
   23.4860  100.1550   38.6560 O   0  0  0  0  0  0  0  0  0  0  0  0
   26.1680  104.8040   36.1270 C   0  0  1  0  0  0  0  0  0  0  0  0
   20.8970  101.4970   38.4650 O   0  0  0  0  0  0  0  0  0  0  0  0
   25.3730  106.0030   36.6090 C   0  0  0  0  0  0  0  0  0  0  0  0
   20.6280  103.8400   36.8190 O   0  0  0  0  0  0  0  0  0  0  0  0
   27.1590  105.6410   38.1060 C   0  0  0  0  0  0  0  0  0  0  0  0
   29.1350  104.6420   36.0760 O   0  0  0  0  0  0  0  0  0  0  0  0
   27.0560  104.4340   37.2180 C   0  0  2  0  0  0  0  0  0  0  0  0
   30.4140  105.2670   37.6810 O   0  0  0  0  0  0  0  0  0  0  0  0
   28.2650  103.6770   36.6920 C   0  0  1  0  0  0  0  0  0  0  0  0
   32.7920  106.6650   39.9270 O   0  0  0  0  0  0  0  0  0  0  0  0
   27.9060  102.4900   35.7750 C   0  0  0  0  0  0  0  0  0  0  0  0
   33.9090  106.4640   37.8570 O   0  0  0  0  0  0  0  0  0  0  0  0
   28.8810  101.4140   35.5170 C   0  0  0  0  0  0  0  0  0  0  0  0
   33.1900  106.1500   35.0000 O   0  0  0  0  0  0  0  0  0  0  0  0
   28.4910  100.2740   34.5800 C   0  0  0  0  0  0  0  0  0  0  0  0
   31.3310  104.2460   34.4920 O   0  0  0  0  0  0  0  0  0  0  0  0
   24.3840  103.0500   36.2350 C   0  0  0  0  0  0  0  0  0  0  0  0
   24.5400  101.8200   37.0950 C   0  0  0  0  0  0  0  0  0  0  0  0
   23.3490  101.2760   37.8640 C   0  0  0  0  0  0  0  0  0  0  0  0
   22.0120  101.9700   37.7630 C   0  0  0  0  0  0  0  0  0  0  0  0
   21.8710  103.1900   36.9050 C   0  0  0  0  0  0  0  0  0  0  0  0
   23.0480  103.7280   36.1360 C   0  0  0  0  0  0  0  0  0  0  0  0
   24.6740   99.4350   38.5980 C   0  0  0  0  0  0  0  0  0  0  0  0
   20.5860  105.1210   36.2460 C   0  0  0  0  0  0  0  0  0  0  0  0
   30.6080  104.5720   36.5500 C   0  0  2  0  0  0  0  0  0  0  0  0
   31.7040  105.5960   38.2010 C   0  0  2  0  0  0  0  0  0  0  0  0
   31.5540  106.3780   39.3320 C   0  0  0  0  0  0  0  0  0  0  0  0
   33.7680  107.2320   39.0250 C   0  0  2  0  0  0  0  0  0  0  0  0
   32.6990  106.2940   37.2540 C   0  0  2  0  0  0  0  0  0  0  0  0
   32.5540  105.4380   35.9890 C   0  0  1  0  0  0  0  0  0  0  0  0
   31.1620  105.1560   35.6130 C   0  0  1  0  0  0  0  0  0  0  0  0
   35.0870  107.4330   39.7100 C   0  0  0  0  0  0  0  0  0  0  0  0
   28.5065   97.5619   33.0669 H   0  0  0  0  0  0  0  0  0  0  0  0
   27.7647   97.7090   34.6561 H   0  0  0  0  0  0  0  0  0  0  0  0
   25.2431  101.3159   33.7771 H   0  0  0  0  0  0  0  0  0  0  0  0
   25.2479  104.0024   34.4648 H   0  0  0  0  0  0  0  0  0  0  0  0
   26.6325  105.1958   35.2101 H   0  0  0  0  0  0  0  0  0  0  0  0
   20.0279  101.9647   38.3869 H   0  0  0  0  0  0  0  0  0  0  0  0
   28.1240  106.1432   37.9432 H   0  0  0  0  0  0  0  0  0  0  0  0
   27.0943  105.3448   39.1634 H   0  0  0  0  0  0  0  0  0  0  0  0
   26.7057  103.6595   37.9161 H   0  0  0  0  0  0  0  0  0  0  0  0
   28.7862  103.1848   37.5263 H   0  0  0  0  0  0  0  0  0  0  0  0
   29.8730  101.4327   35.9920 H   0  0  0  0  0  0  0  0  0  0  0  0
   33.7901  106.8218   35.4108 H   0  0  0  0  0  0  0  0  0  0  0  0
   31.5008  103.3318   34.8318 H   0  0  0  0  0  0  0  0  0  0  0  0
   25.5161  101.3176   37.1648 H   0  0  0  0  0  0  0  0  0  0  0  0
   22.9292  104.6184   35.5011 H   0  0  0  0  0  0  0  0  0  0  0  0
   25.0243   99.2227   39.6189 H   0  0  0  0  0  0  0  0  0  0  0  0
   24.5033   98.4882   38.0646 H   0  0  0  0  0  0  0  0  0  0  0  0
   25.4343  100.0244   38.0646 H   0  0  0  0  0  0  0  0  0  0  0  0
   20.5612  105.8786   37.0431 H   0  0  0  0  0  0  0  0  0  0  0  0
   21.4796  105.2735   35.6230 H   0  0  0  0  0  0  0  0  0  0  0  0
   19.6843  105.2146   35.6230 H   0  0  0  0  0  0  0  0  0  0  0  0
   31.1814  103.6540   36.7463 H   0  0  0  0  0  0  0  0  0  0  0  0
   32.1588  104.6146   38.4012 H   0  0  0  0  0  0  0  0  0  0  0  0
   30.9250  105.8408   40.0571 H   0  0  0  0  0  0  0  0  0  0  0  0
   31.0855  107.3279   39.0350 H   0  0  0  0  0  0  0  0  0  0  0  0
   33.3944  108.2202   38.7185 H   0  0  0  0  0  0  0  0  0  0  0  0
   32.5239  107.3444   36.9782 H   0  0  0  0  0  0  0  0  0  0  0  0
   32.9930  104.4438   36.1587 H   0  0  0  0  0  0  0  0  0  0  0  0
   30.5591  106.0446   35.3746 H   0  0  0  0  0  0  0  0  0  0  0  0
   34.9412  107.4108   40.8001 H   0  0  0  0  0  0  0  0  0  0  0  0
   35.7789  106.6299   39.4162 H   0  0  0  0  0  0  0  0  0  0  0  0
   35.5083  108.4057   39.4162 H   0  0  0  0  0  0  0  0  0  0  0  0
  1  2  1  0
  1  4  1  0
  3  4  1  0
  3  5  1  0
  5  7  2  0
  7  9  1  0
  9 11  1  0
  6 13  1  0
  8 13  2  0
 11 13  1  0
  6 15  1  0
 11 17  1  0
 15 17  1  0
 16 19  1  0
 17 19  1  0
  7 21  1  0
 19 21  1  0
 21 23  2  0
  2 25  1  0
  3 25  2  0
 23 25  1  0
  9 27  1  0
 27 28  2  0
 10 29  1  0
 28 29  1  0
 12 30  1  0
 29 30  2  0
 14 31  1  0
 30 31  1  0
 27 32  1  0
 31 32  2  0
 10 33  1  0
 14 34  1  0
 16 35  1  0
 18 35  1  0
 18 36  1  0
 20 37  1  0
 36 37  1  0
 20 38  1  0
 22 38  1  0
 22 39  1  0
 36 39  1  0
 24 40  1  0
 39 40  1  0
 26 41  1  0
 35 41  1  0
 40 41  1  0
 38 42  1  0
  1 43  1  0
  1 44  1  0
  5 45  1  0
  9 46  1  6
 11 47  1  6
 12 48  1  0
 15 49  1  0
 15 50  1  0
 17 51  1  1
 19 52  1  1
 23 53  1  0
 24 54  1  0
 26 55  1  0
 28 56  1  0
 32 57  1  0
 33 58  1  0
 33 59  1  0
 33 60  1  0
 34 61  1  0
 34 62  1  0
 34 63  1  0
 35 64  1  1
 36 65  1  1
 37 66  1  0
 37 67  1  0
 38 68  1  6
 39 69  1  6
 40 70  1  1
 41 71  1  6
 42 72  1  0
 42 73  1  0
 42 74  1  0
M  END
$$$$
