PDB_DB00523_99
     RDKit          3D

 50 50  0  0  0  0  0  0  0  0999 V2000
   67.1340   46.8800   32.2710 C   0  0  0  0  0  0  0  0  0  0  0  0
   67.3710   45.8710   33.3970 C   0  0  0  0  0  0  0  0  0  0  0  0
   66.5680   46.2470   34.6450 C   0  0  0  0  0  0  0  0  0  0  0  0
   65.0690   46.1840   34.3480 C   0  0  0  0  0  0  0  0  0  0  0  0
   64.7730   46.9430   33.0540 C   0  0  0  0  0  0  0  0  0  0  0  0
   65.6340   46.9170   31.9610 C   0  0  0  0  0  0  0  0  0  0  0  0
   65.1970   47.1340   30.6580 C   0  0  0  0  0  0  0  0  0  0  0  0
   63.8520   47.1290   30.3020 C   0  0  0  0  0  0  0  0  0  0  0  0
   63.4820   47.3760   28.9840 C   0  0  0  0  0  0  0  0  0  0  0  0
   62.1510   47.3370   28.5810 C   0  0  0  0  0  0  0  0  0  0  0  0
   61.1050   47.0220   29.4410 C   0  0  0  0  0  0  0  0  0  0  0  0
   59.8110   47.0190   28.9300 C   0  0  0  0  0  0  0  0  0  0  0  0
   58.6930   46.7030   29.6950 C   0  0  0  0  0  0  0  0  0  0  0  0
   57.4420   46.7500   29.0890 C   0  0  0  0  0  0  0  0  0  0  0  0
   56.2640   46.4540   29.7670 C   0  0  0  0  0  0  0  0  0  0  0  0
   67.9010   46.4490   31.0190 C   0  0  0  0  0  0  0  0  0  0  0  0
   67.5960   48.2670   32.7210 C   0  0  0  0  0  0  0  0  0  0  0  0
   63.5410   47.8520   33.0270 C   0  0  0  0  0  0  0  0  0  0  0  0
   64.5570   47.7190   27.9510 C   0  0  0  0  0  0  0  0  0  0  0  0
   58.8470   46.2590   31.1510 C   0  0  0  0  0  0  0  0  0  0  0  0
   55.2360   47.0850   29.4360 O   0  0  0  0  0  0  0  0  0  0  0  0
   56.2800   45.5540   30.6340 O   0  0  0  0  0  0  0  0  0  0  0  0
   67.0609   44.8720   33.0566 H   0  0  0  0  0  0  0  0  0  0  0  0
   68.4408   45.8746   33.6530 H   0  0  0  0  0  0  0  0  0  0  0  0
   66.8074   45.5440   35.4565 H   0  0  0  0  0  0  0  0  0  0  0  0
   66.8313   47.2718   34.9457 H   0  0  0  0  0  0  0  0  0  0  0  0
   64.7614   45.1339   34.2356 H   0  0  0  0  0  0  0  0  0  0  0  0
   64.5114   46.6429   35.1778 H   0  0  0  0  0  0  0  0  0  0  0  0
   65.9476   47.3175   29.8751 H   0  0  0  0  0  0  0  0  0  0  0  0
   63.0820   46.9299   31.0620 H   0  0  0  0  0  0  0  0  0  0  0  0
   61.9148   47.5664   27.5314 H   0  0  0  0  0  0  0  0  0  0  0  0
   61.2955   46.7815   30.4974 H   0  0  0  0  0  0  0  0  0  0  0  0
   59.6651   47.2788   27.8711 H   0  0  0  0  0  0  0  0  0  0  0  0
   57.3815   47.0335   28.0279 H   0  0  0  0  0  0  0  0  0  0  0  0
   68.8245   45.9300   31.3153 H   0  0  0  0  0  0  0  0  0  0  0  0
   67.2749   45.7706   30.4209 H   0  0  0  0  0  0  0  0  0  0  0  0
   68.1549   47.3366   30.4209 H   0  0  0  0  0  0  0  0  0  0  0  0
   67.6103   48.3100   33.8201 H   0  0  0  0  0  0  0  0  0  0  0  0
   68.6071   48.4604   32.3333 H   0  0  0  0  0  0  0  0  0  0  0  0
   66.9028   49.0281   32.3333 H   0  0  0  0  0  0  0  0  0  0  0  0
   63.2313   48.0805   34.0575 H   0  0  0  0  0  0  0  0  0  0  0  0
   63.7866   48.7870   32.5021 H   0  0  0  0  0  0  0  0  0  0  0  0
   62.7201   47.3415   32.5021 H   0  0  0  0  0  0  0  0  0  0  0  0
   65.4818   48.0141   28.4684 H   0  0  0  0  0  0  0  0  0  0  0  0
   64.7541   46.8391   27.3209 H   0  0  0  0  0  0  0  0  0  0  0  0
   64.2081   48.5504   27.3209 H   0  0  0  0  0  0  0  0  0  0  0  0
   58.5605   47.0851   31.8185 H   0  0  0  0  0  0  0  0  0  0  0  0
   58.1971   45.3920   31.3407 H   0  0  0  0  0  0  0  0  0  0  0  0
   59.8942   45.9807   31.3407 H   0  0  0  0  0  0  0  0  0  0  0  0
   54.3763   46.9054   29.8930 H   0  0  0  0  0  0  0  0  0  0  0  0
  1  2  1  0
  2  3  1  0
  3  4  1  0
  4  5  1  0
  1  6  1  0
  5  6  2  0
  6  7  1  0
  7  8  2  0
  8  9  1  0
  9 10  2  0
 10 11  1  0
 11 12  2  0
 12 13  1  0
 13 14  2  0
 14 15  1  0
  1 16  1  0
  1 17  1  0
  5 18  1  0
  9 19  1  0
 13 20  1  0
 15 21  1  0
 15 22  2  0
  2 23  1  0
  2 24  1  0
  3 25  1  0
  3 26  1  0
  4 27  1  0
  4 28  1  0
  7 29  1  0
  8 30  1  0
 10 31  1  0
 11 32  1  0
 12 33  1  0
 14 34  1  0
 16 35  1  0
 16 36  1  0
 16 37  1  0
 17 38  1  0
 17 39  1  0
 17 40  1  0
 18 41  1  0
 18 42  1  0
 18 43  1  0
 19 44  1  0
 19 45  1  0
 19 46  1  0
 20 47  1  0
 20 48  1  0
 20 49  1  0
 21 50  1  0
M  END
>  <PDBID>  (1) 
3OAP

>  <PDB ID>  (1) 
3OAP

>  <Generic Name>  (1) 
Alitretinoin

>  <Brand Name>  (1) 
Panretin#Toctino

>  <DrugBank ID>  (1) 
DB00523

>  <ATC Codes>  (1) 
D11AH04#L01XX22

>  <Ligand ID>  (1) 
9CR

>  <Target Name>  (1) 
Retinoic acid receptor RXR-beta

>  <UniProt ID>  (1) 
P28702

>  <PDB ID.1>  (1) 
3OAP

>  <Seq. Identity>  (1) 
87%

$$$$
