PDB_DB08954_99
     RDKit          3D

126130  0  0  0  0  0  0  0  0999 V2000
    5.7780   32.6080   16.6540 C   0  0  0  0  0  0  0  0  0  0  0  0
   -0.7350   31.5330   12.2890 N   0  0  0  0  0  0  0  0  0  0  0  0
   -1.1700   31.7200    9.3200 O   0  0  0  0  0  0  0  0  0  0  0  0
   -5.5280   29.9670    9.8550 C   0  0  0  0  0  0  0  0  0  0  0  0
   -7.3140   30.5720    8.2720 O   0  0  0  0  0  0  0  0  0  0  0  0
   -5.2180   31.6080    8.1830 C   0  0  0  0  0  0  0  0  0  0  0  0
    3.6320   31.2730   15.4500 C   0  0  1  0  0  0  0  0  0  0  0  0
    4.8270   31.4200   14.7510 C   0  0  0  0  0  0  0  0  0  0  0  0
    5.9070   32.0850   15.3420 C   0  0  0  0  0  0  0  0  0  0  0  0
    2.5080   30.5110   14.8230 C   0  0  0  0  0  0  0  0  0  0  0  0
    1.1970   31.2970   14.3970 C   0  0  1  0  0  0  0  0  0  0  0  0
    1.4710   32.1660   13.2800 C   0  0  0  0  0  0  0  0  0  0  0  0
    4.5870   32.4560   17.3550 C   0  0  0  0  0  0  0  0  0  0  0  0
    3.5100   31.7800   16.7640 C   0  0  0  0  0  0  0  0  0  0  0  0
    0.2320   32.6220   12.5610 C   0  0  0  0  0  0  0  0  0  0  0  0
   -0.9710   30.6080   13.3630 C   0  0  0  0  0  0  0  0  0  0  0  0
    0.2680   30.1960   14.0670 C   0  0  0  0  0  0  0  0  0  0  0  0
   -1.8560   32.0430   11.4820 C   0  0  2  0  0  0  0  0  0  0  0  0
   -1.9680   31.3460   10.1650 C   0  0  1  0  0  0  0  0  0  0  0  0
   -3.3990   31.0530    9.7060 C   0  0  1  0  0  0  0  0  0  0  0  0
   -4.1970   30.1620   10.3210 C   0  0  0  0  0  0  0  0  0  0  0  0
   -6.0000   30.7180    8.7700 C   0  0  0  0  0  0  0  0  0  0  0  0
   -3.8890   31.7970    8.6600 C   0  0  0  0  0  0  0  0  0  0  0  0
   -1.7340   33.4670   11.1410 C   0  0  0  0  0  0  0  0  0  0  0  0
  -61.1540   32.7870   16.5580 C   0  0  0  0  0  0  0  0  0  0  0  0
  -54.6530   33.7500   12.1490 N   0  0  0  0  0  0  0  0  0  0  0  0
  -54.3200   33.5200    9.2400 O   0  0  0  0  0  0  0  0  0  0  0  0
  -49.8570   35.2400    9.6740 C   0  0  0  0  0  0  0  0  0  0  0  0
  -48.0860   34.6000    8.0880 O   0  0  0  0  0  0  0  0  0  0  0  0
  -50.1940   33.5870    8.0200 C   0  0  0  0  0  0  0  0  0  0  0  0
  -59.0000   34.0870   15.3300 C   0  0  1  0  0  0  0  0  0  0  0  0
  -60.2000   33.9460   14.6390 C   0  0  0  0  0  0  0  0  0  0  0  0
  -61.2850   33.2990   15.2430 C   0  0  0  0  0  0  0  0  0  0  0  0
  -57.8710   34.8310   14.6900 C   0  0  0  0  0  0  0  0  0  0  0  0
  -56.5710   34.0270   14.2650 C   0  0  1  0  0  0  0  0  0  0  0  0
  -56.8610   33.1500   13.1570 C   0  0  0  0  0  0  0  0  0  0  0  0
  -59.9570   32.9330   17.2520 C   0  0  0  0  0  0  0  0  0  0  0  0
  -58.8770   33.5920   16.6480 C   0  0  0  0  0  0  0  0  0  0  0  0
  -55.6300   32.6740   12.4370 C   0  0  0  0  0  0  0  0  0  0  0  0
  -54.4020   34.6820   13.2130 C   0  0  0  0  0  0  0  0  0  0  0  0
  -55.6320   35.1140   13.9190 C   0  0  0  0  0  0  0  0  0  0  0  0
  -53.5420   33.2200   11.3410 C   0  0  2  0  0  0  0  0  0  0  0  0
  -53.4300   33.9020   10.0160 C   0  0  1  0  0  0  0  0  0  0  0  0
  -51.9980   34.1760    9.5480 C   0  0  1  0  0  0  0  0  0  0  0  0
  -51.1870   35.0640   10.1490 C   0  0  0  0  0  0  0  0  0  0  0  0
  -49.3990   34.4740    8.5950 C   0  0  0  0  0  0  0  0  0  0  0  0
  -51.5230   33.4170    8.5060 C   0  0  0  0  0  0  0  0  0  0  0  0
  -53.6820   31.7940   11.0140 C   0  0  0  0  0  0  0  0  0  0  0  0
    6.5648   32.1365   17.2612 H   0  0  0  0  0  0  0  0  0  0  0  0
    5.8385   33.6950   16.4968 H   0  0  0  0  0  0  0  0  0  0  0  0
   -0.3694   32.0952    9.7653 H   0  0  0  0  0  0  0  0  0  0  0  0
   -5.6150   28.9076    9.5718 H   0  0  0  0  0  0  0  0  0  0  0  0
   -6.1474   30.3133   10.6955 H   0  0  0  0  0  0  0  0  0  0  0  0
   -7.9479   30.5016    9.0291 H   0  0  0  0  0  0  0  0  0  0  0  0
   -5.1399   31.3169    7.1251 H   0  0  0  0  0  0  0  0  0  0  0  0
   -5.7096   32.5676    8.4010 H   0  0  0  0  0  0  0  0  0  0  0  0
    3.2538   32.2022   14.9988 H   0  0  0  0  0  0  0  0  0  0  0  0
    5.1758   30.4069   14.5022 H   0  0  0  0  0  0  0  0  0  0  0  0
    4.5510   32.0799   13.9153 H   0  0  0  0  0  0  0  0  0  0  0  0
    6.1591   32.9305   14.6850 H   0  0  0  0  0  0  0  0  0  0  0  0
    6.6635   31.2945   15.4549 H   0  0  0  0  0  0  0  0  0  0  0  0
    2.9074   30.0328   13.9165 H   0  0  0  0  0  0  0  0  0  0  0  0
    2.1662   29.8355   15.6210 H   0  0  0  0  0  0  0  0  0  0  0  0
    0.7884   31.9689   15.1661 H   0  0  0  0  0  0  0  0  0  0  0  0
    2.0053   33.0530   13.6511 H   0  0  0  0  0  0  0  0  0  0  0  0
    2.0712   31.5903   12.5600 H   0  0  0  0  0  0  0  0  0  0  0  0
    4.8304   31.9172   18.2826 H   0  0  0  0  0  0  0  0  0  0  0  0
    4.2167   33.4871   17.4535 H   0  0  0  0  0  0  0  0  0  0  0  0
    2.6607   32.4790   16.7576 H   0  0  0  0  0  0  0  0  0  0  0  0
    3.4117   30.8728   17.3782 H   0  0  0  0  0  0  0  0  0  0  0  0
    0.5320   33.0676   11.6010 H   0  0  0  0  0  0  0  0  0  0  0  0
   -0.2740   33.3434   13.2194 H   0  0  0  0  0  0  0  0  0  0  0  0
   -1.6445   31.0834   14.0913 H   0  0  0  0  0  0  0  0  0  0  0  0
   -1.4107   29.7017   12.9210 H   0  0  0  0  0  0  0  0  0  0  0  0
    0.8024   29.4799   13.4254 H   0  0  0  0  0  0  0  0  0  0  0  0
   -0.0535   29.7680   15.0279 H   0  0  0  0  0  0  0  0  0  0  0  0
   -2.7308   31.8653   12.1248 H   0  0  0  0  0  0  0  0  0  0  0  0
   -1.6063   30.3254   10.3590 H   0  0  0  0  0  0  0  0  0  0  0  0
   -3.0239   30.2594    9.0430 H   0  0  0  0  0  0  0  0  0  0  0  0
   -4.2700   30.4726   11.3737 H   0  0  0  0  0  0  0  0  0  0  0  0
   -3.7099   29.1974   10.1152 H   0  0  0  0  0  0  0  0  0  0  0  0
   -5.6510   29.9375    8.0779 H   0  0  0  0  0  0  0  0  0  0  0  0
   -3.2212   31.6127    7.8056 H   0  0  0  0  0  0  0  0  0  0  0  0
   -3.9262   32.8120    9.0824 H   0  0  0  0  0  0  0  0  0  0  0  0
   -1.6830   34.0622   12.0647 H   0  0  0  0  0  0  0  0  0  0  0  0
   -0.8190   33.6258   10.5515 H   0  0  0  0  0  0  0  0  0  0  0  0
   -2.6087   33.7791   10.5515 H   0  0  0  0  0  0  0  0  0  0  0  0
  -61.9326   33.2720   17.1651 H   0  0  0  0  0  0  0  0  0  0  0  0
  -61.2261   31.6993   16.4107 H   0  0  0  0  0  0  0  0  0  0  0  0
  -55.0930   33.1882    9.7621 H   0  0  0  0  0  0  0  0  0  0  0  0
  -49.7603   36.2955    9.3798 H   0  0  0  0  0  0  0  0  0  0  0  0
  -49.2369   34.8952   10.5146 H   0  0  0  0  0  0  0  0  0  0  0  0
  -47.4460   34.6614    8.8408 H   0  0  0  0  0  0  0  0  0  0  0  0
  -50.2746   33.8693    6.9599 H   0  0  0  0  0  0  0  0  0  0  0  0
  -49.7117   32.6241    8.2441 H   0  0  0  0  0  0  0  0  0  0  0  0
  -58.6341   33.1496   14.8858 H   0  0  0  0  0  0  0  0  0  0  0  0
  -60.5388   34.9603   14.3812 H   0  0  0  0  0  0  0  0  0  0  0  0
  -59.9358   33.2742   13.8090 H   0  0  0  0  0  0  0  0  0  0  0  0
  -61.5512   32.4506   14.5954 H   0  0  0  0  0  0  0  0  0  0  0  0
  -62.0315   34.0994   15.3530 H   0  0  0  0  0  0  0  0  0  0  0  0
  -58.2699   35.3049   13.7810 H   0  0  0  0  0  0  0  0  0  0  0  0
  -57.5179   35.5104   15.4798 H   0  0  0  0  0  0  0  0  0  0  0  0
  -56.1655   33.3585   15.0387 H   0  0  0  0  0  0  0  0  0  0  0  0
  -57.4032   32.2725   13.5390 H   0  0  0  0  0  0  0  0  0  0  0  0
  -57.4591   33.7248   12.4346 H   0  0  0  0  0  0  0  0  0  0  0  0
  -60.1895   33.4832   18.1757 H   0  0  0  0  0  0  0  0  0  0  0  0
  -59.5969   31.8992   17.3594 H   0  0  0  0  0  0  0  0  0  0  0  0
  -58.0348   32.8844   16.6444 H   0  0  0  0  0  0  0  0  0  0  0  0
  -58.7673   34.5047   17.2521 H   0  0  0  0  0  0  0  0  0  0  0  0
  -55.9391   32.2216   11.4832 H   0  0  0  0  0  0  0  0  0  0  0  0
  -55.1283   31.9545   13.1008 H   0  0  0  0  0  0  0  0  0  0  0  0
  -53.7301   34.2060   13.9424 H   0  0  0  0  0  0  0  0  0  0  0  0
  -53.9550   35.5793   12.7603 H   0  0  0  0  0  0  0  0  0  0  0  0
  -56.1621   35.8294   13.2731 H   0  0  0  0  0  0  0  0  0  0  0  0
  -55.3006   35.5478   14.8740 H   0  0  0  0  0  0  0  0  0  0  0  0
  -52.6620   33.3949   11.9774 H   0  0  0  0  0  0  0  0  0  0  0  0
  -53.6906   34.9676   10.0966 H   0  0  0  0  0  0  0  0  0  0  0  0
  -52.3680   34.9668    8.8789 H   0  0  0  0  0  0  0  0  0  0  0  0
  -51.1114   34.7632   11.2044 H   0  0  0  0  0  0  0  0  0  0  0  0
  -51.6647   36.0316    9.9357 H   0  0  0  0  0  0  0  0  0  0  0  0
  -49.7431   35.2514    7.8970 H   0  0  0  0  0  0  0  0  0  0  0  0
  -52.1936   33.6013    7.6537 H   0  0  0  0  0  0  0  0  0  0  0  0
  -51.4954   32.4052    8.9367 H   0  0  0  0  0  0  0  0  0  0  0  0
  -53.7395   31.2086   11.9435 H   0  0  0  0  0  0  0  0  0  0  0  0
  -54.5995   31.6408   10.4269 H   0  0  0  0  0  0  0  0  0  0  0  0
  -52.8118   31.4653   10.4269 H   0  0  0  0  0  0  0  0  0  0  0  0
  7  8  1  0
  1  9  1  0
  8  9  1  0
  7 10  1  0
 10 11  1  0
 11 12  1  0
  1 13  1  0
  7 14  1  0
 13 14  1  0
  2 15  1  0
 12 15  1  0
  2 16  1  0
 11 17  1  0
 16 17  1  0
  2 18  1  0
  3 19  1  0
 18 19  1  0
 19 20  1  0
  4 21  1  0
 20 21  1  0
  4 22  1  0
  5 22  1  0
  6 22  1  0
  6 23  1  0
 20 23  1  0
 18 24  1  0
 31 32  1  0
 25 33  1  0
 32 33  1  0
 31 34  1  0
 34 35  1  0
 35 36  1  0
 25 37  1  0
 31 38  1  0
 37 38  1  0
 26 39  1  0
 36 39  1  0
 26 40  1  0
 35 41  1  0
 40 41  1  0
 26 42  1  0
 27 43  1  0
 42 43  1  0
 43 44  1  0
 28 45  1  0
 44 45  1  0
 28 46  1  0
 29 46  1  0
 30 46  1  0
 30 47  1  0
 44 47  1  0
 42 48  1  0
  1 49  1  0
  1 50  1  0
  3 51  1  0
  4 52  1  0
  4 53  1  0
  5 54  1  0
  6 55  1  0
  6 56  1  0
  7 57  1  6
  8 58  1  0
  8 59  1  0
  9 60  1  0
  9 61  1  0
 10 62  1  0
 10 63  1  0
 11 64  1  1
 12 65  1  0
 12 66  1  0
 13 67  1  0
 13 68  1  0
 14 69  1  0
 14 70  1  0
 15 71  1  0
 15 72  1  0
 16 73  1  0
 16 74  1  0
 17 75  1  0
 17 76  1  0
 18 77  1  1
 19 78  1  1
 20 79  1  6
 21 80  1  0
 21 81  1  0
 22 82  1  0
 23 83  1  0
 23 84  1  0
 24 85  1  0
 24 86  1  0
 24 87  1  0
 25 88  1  0
 25 89  1  0
 27 90  1  0
 28 91  1  0
 28 92  1  0
 29 93  1  0
 30 94  1  0
 30 95  1  0
 31 96  1  6
 32 97  1  0
 32 98  1  0
 33 99  1  0
 33100  1  0
 34101  1  0
 34102  1  0
 35103  1  1
 36104  1  0
 36105  1  0
 37106  1  0
 37107  1  0
 38108  1  0
 38109  1  0
 39110  1  0
 39111  1  0
 40112  1  0
 40113  1  0
 41114  1  0
 41115  1  0
 42116  1  1
 43117  1  1
 44118  1  6
 45119  1  0
 45120  1  0
 46121  1  0
 47122  1  0
 47123  1  0
 48124  1  0
 48125  1  0
 48126  1  0
M  END
>  <PDBID>  (1) 
4PE5

>  <PDB ID>  (1) 
4PE5

>  <Generic Name>  (1) 
Ifenprodil

>  <Brand Name>  (1) 
Cerocral#Furezanil#Iburonol#Linbulane#Technis#Vadilex#Vasculodil#Youajyl

>  <DrugBank ID>  (1) 
DB08954

>  <ATC Codes>  (1) 
C04AX28

>  <Ligand ID>  (1) 
QEL

>  <Target Name>  (1) 
Glutamate receptor ionotropic, NMDA 1

>  <UniProt ID>  (1) 
Q05586

>  <PDB ID.1>  (1) 
4PE5

>  <Seq. Identity>  (1) 
98%

$$$$
