PDB_DB04729_95
     RDKit          3D

 70 72  0  0  0  0  0  0  0  0999 V2000
   43.8910  120.3100  -97.6300 C   0  0  2  0  0  0  0  0  0  0  0  0
   44.5840  120.4000  -96.3520 O   0  0  0  0  0  0  0  0  0  0  0  0
   43.3260  118.8840  -97.8190 C   0  0  2  0  0  0  0  0  0  0  0  0
   42.4550  118.5910  -96.7230 N   0  0  0  0  0  0  0  0  0  0  0  0
   44.5100  117.8360  -97.9390 C   0  0  0  0  0  0  0  0  0  0  0  0
   45.4050  118.2330  -99.1740 C   0  0  0  0  0  0  0  0  0  0  0  0
   45.9450  119.7230  -98.9500 C   0  0  2  0  0  0  0  0  0  0  0  0
   44.8420  120.6740  -98.7400 O   0  0  0  0  0  0  0  0  0  0  0  0
   46.8070  120.2140 -100.0930 C   0  0  0  0  0  0  0  0  0  0  0  0
   47.3670  121.5120  -99.8220 N   0  0  0  0  0  0  0  0  0  0  0  0
   45.3970  123.4260  -93.4160 C   0  0  2  0  0  0  0  0  0  0  0  0
   45.6620  124.7100  -92.8460 N   0  0  0  0  0  0  0  0  0  0  0  0
   46.5320  123.0780  -94.4480 C   0  0  0  0  0  0  0  0  0  0  0  0
   46.2510  121.6550  -95.0890 C   0  0  2  0  0  0  0  0  0  0  0  0
   47.3010  121.3150  -96.0580 N   0  0  0  0  0  0  0  0  0  0  0  0
   44.8230  121.6510  -95.7910 C   0  0  2  0  0  0  0  0  0  0  0  0
   43.7000  122.0260  -94.7310 C   0  0  2  0  0  0  0  0  0  0  0  0
   42.4170  122.0350  -95.3530 O   0  0  0  0  0  0  0  0  0  0  0  0
   44.0030  123.4400  -94.1100 C   0  0  1  0  0  0  0  0  0  0  0  0
   42.9840  123.7360  -93.1730 O   0  0  0  0  0  0  0  0  0  0  0  0
   42.3260  125.0320  -93.0750 C   0  0  2  0  0  0  0  0  0  0  0  0
   41.6990  125.0630  -91.6550 C   0  0  2  0  0  0  0  0  0  0  0  0
   42.7160  124.8850  -90.6930 O   0  0  0  0  0  0  0  0  0  0  0  0
   40.5650  123.9410  -91.5630 C   0  0  1  0  0  0  0  0  0  0  0  0
   39.9340  123.9110  -90.2050 N   0  0  0  0  0  0  0  0  0  0  0  0
   39.4200  124.2040  -92.6940 C   0  0  1  0  0  0  0  0  0  0  0  0
   38.7670  125.4400  -92.4760 O   0  0  0  0  0  0  0  0  0  0  0  0
   40.0830  124.2390  -94.1100 C   0  0  0  0  0  0  0  0  0  0  0  0
   41.2510  125.2040  -94.1270 O   0  0  0  0  0  0  0  0  0  0  0  0
   38.2520  123.2100  -92.7430 C   0  0  0  0  0  0  0  0  0  0  0  0
   40.2210  122.7320  -89.3730 C   0  0  0  0  0  0  0  0  0  0  0  0
   43.0469  121.0150  -97.6507 H   0  0  0  0  0  0  0  0  0  0  0  0
   42.7480  118.8186  -98.7526 H   0  0  0  0  0  0  0  0  0  0  0  0
   42.9512  118.7579  -95.8360 H   0  0  0  0  0  0  0  0  0  0  0  0
   41.6251  119.1991  -96.7719 H   0  0  0  0  0  0  0  0  0  0  0  0
   45.1156  117.8534  -97.0209 H   0  0  0  0  0  0  0  0  0  0  0  0
   44.1044  116.8229  -98.0773 H   0  0  0  0  0  0  0  0  0  0  0  0
   46.2542  117.5386  -99.2556 H   0  0  0  0  0  0  0  0  0  0  0  0
   44.8143  118.1809 -100.1005 H   0  0  0  0  0  0  0  0  0  0  0  0
   46.5677  119.6751  -98.0445 H   0  0  0  0  0  0  0  0  0  0  0  0
   47.6273  119.4988 -100.2528 H   0  0  0  0  0  0  0  0  0  0  0  0
   46.1730  120.2957 -100.9882 H   0  0  0  0  0  0  0  0  0  0  0  0
   47.4281  121.6537  -98.8036 H   0  0  0  0  0  0  0  0  0  0  0  0
   48.3090  121.5724 -100.2342 H   0  0  0  0  0  0  0  0  0  0  0  0
   45.3838  122.6579  -92.6287 H   0  0  0  0  0  0  0  0  0  0  0  0
   45.6474  124.6392  -91.8185 H   0  0  0  0  0  0  0  0  0  0  0  0
   46.5884  125.0380  -93.1544 H   0  0  0  0  0  0  0  0  0  0  0  0
   46.5512  123.8395  -95.2415 H   0  0  0  0  0  0  0  0  0  0  0  0
   47.5027  123.0602  -93.9308 H   0  0  0  0  0  0  0  0  0  0  0  0
   46.2571  120.8965  -94.2923 H   0  0  0  0  0  0  0  0  0  0  0  0
   48.1560  121.0381  -95.5548 H   0  0  0  0  0  0  0  0  0  0  0  0
   46.9826  120.5341  -96.6494 H   0  0  0  0  0  0  0  0  0  0  0  0
   44.8014  122.4028  -96.5937 H   0  0  0  0  0  0  0  0  0  0  0  0
   43.7007  121.2710  -93.9310 H   0  0  0  0  0  0  0  0  0  0  0  0
   41.7129  122.0399  -94.6571 H   0  0  0  0  0  0  0  0  0  0  0  0
   44.0220  124.2096  -94.8957 H   0  0  0  0  0  0  0  0  0  0  0  0
   43.0426  125.8501  -93.2400 H   0  0  0  0  0  0  0  0  0  0  0  0
   41.2239  126.0346  -91.4542 H   0  0  0  0  0  0  0  0  0  0  0  0
   42.3271  124.9531  -89.7851 H   0  0  0  0  0  0  0  0  0  0  0  0
   41.0430  122.9667  -91.7427 H   0  0  0  0  0  0  0  0  0  0  0  0
   40.2579  124.7428  -89.6911 H   0  0  0  0  0  0  0  0  0  0  0  0
   38.6819  125.6011  -91.5029 H   0  0  0  0  0  0  0  0  0  0  0  0
   40.4425  123.2314  -94.3661 H   0  0  0  0  0  0  0  0  0  0  0  0
   39.3352  124.5736  -94.8441 H   0  0  0  0  0  0  0  0  0  0  0  0
   37.9477  122.9510  -91.7181 H   0  0  0  0  0  0  0  0  0  0  0  0
   37.4034  123.6672  -93.2730 H   0  0  0  0  0  0  0  0  0  0  0  0
   38.5676  122.2992  -93.2730 H   0  0  0  0  0  0  0  0  0  0  0  0
   40.1538  123.0080  -88.3103 H   0  0  0  0  0  0  0  0  0  0  0  0
   39.4892  121.9408  -89.5933 H   0  0  0  0  0  0  0  0  0  0  0  0
   41.2345  122.3657  -89.5933 H   0  0  0  0  0  0  0  0  0  0  0  0
  2  1  1  0
  3  1  1  0
  4  3  1  0
  5  3  1  0
  6  5  1  0
  7  6  1  0
  8  7  1  0
  8  1  1  0
  9  7  1  0
 10  9  1  0
 12 11  1  0
 13 11  1  0
 14 13  1  0
 15 14  1  0
 16 14  1  0
 16  2  1  0
 17 16  1  0
 18 17  1  0
 19 17  1  0
 19 11  1  0
 20 19  1  0
 21 20  1  0
 22 21  1  0
 23 22  1  0
 24 22  1  0
 25 24  1  0
 26 24  1  0
 26 27  1  1
 28 26  1  0
 29 28  1  0
 29 21  1  0
 30 26  1  0
 31 25  1  0
  1 32  1  1
  3 33  1  6
  4 34  1  0
  4 35  1  0
  5 36  1  0
  5 37  1  0
  6 38  1  0
  6 39  1  0
  7 40  1  1
  9 41  1  0
  9 42  1  0
 10 43  1  0
 10 44  1  0
 11 45  1  1
 12 46  1  0
 12 47  1  0
 13 48  1  0
 13 49  1  0
 14 50  1  1
 15 51  1  0
 15 52  1  0
 16 53  1  6
 17 54  1  1
 18 55  1  0
 19 56  1  6
 21 57  1  1
 22 58  1  1
 23 59  1  0
 24 60  1  6
 25 61  1  0
 27 62  1  0
 28 63  1  0
 28 64  1  0
 30 65  1  0
 30 66  1  0
 30 67  1  0
 31 68  1  0
 31 69  1  0
 31 70  1  0
M  END
$$$$
