PDB_DB04573_99
     RDKit          3D

102108  0  0  0  0  0  0  0  0999 V2000
    6.4300    4.9350   -6.0160 C   0  0  1  0  0  0  0  0  0  0  0  0
    5.7770    3.7030   -6.6690 C   0  0  0  0  0  0  0  0  0  0  0  0
    4.2920    3.6790   -6.3260 C   0  0  0  0  0  0  0  0  0  0  0  0
    4.0520    3.7320   -4.8100 C   0  0  2  0  0  0  0  0  0  0  0  0
    4.5210    2.4400   -4.1660 C   0  0  0  0  0  0  0  0  0  0  0  0
    2.6320    4.0220   -4.3710 C   0  0  1  0  0  0  0  0  0  0  0  0
    1.7760    2.8750   -4.4650 O   0  0  0  0  0  0  0  0  0  0  0  0
    2.8170    4.4800   -2.9070 C   0  0  2  0  0  0  0  0  0  0  0  0
    1.8620    5.4700   -2.5220 O   0  0  0  0  0  0  0  0  0  0  0  0
    4.2370    5.0220   -2.8010 C   0  0  0  0  0  0  0  0  0  0  0  0
    4.7360    4.9550   -4.2420 C   0  0  1  0  0  0  0  0  0  0  0  0
    6.2260    4.9390   -4.4960 C   0  0  2  0  0  0  0  0  0  0  0  0
    6.8860    6.1580   -3.8710 C   0  0  0  0  0  0  0  0  0  0  0  0
    8.3860    6.0280   -4.0130 C   0  0  0  0  0  0  0  0  0  0  0  0
    8.7760    5.6530   -5.4150 C   0  0  0  0  0  0  0  0  0  0  0  0
   10.1000    5.8410   -5.7570 C   0  0  0  0  0  0  0  0  0  0  0  0
   10.5430    5.5150   -7.0280 C   0  0  0  0  0  0  0  0  0  0  0  0
   11.8410    5.6940   -7.3280 O   0  0  0  0  0  0  0  0  0  0  0  0
    9.6650    4.9980   -7.9620 C   0  0  0  0  0  0  0  0  0  0  0  0
    8.3300    4.8050   -7.6220 C   0  0  0  0  0  0  0  0  0  0  0  0
    7.8740    5.1130   -6.3470 C   0  0  1  0  0  0  0  0  0  0  0  0
   -1.4630   -3.3610   23.5750 C   0  0  1  0  0  0  0  0  0  0  0  0
   -2.9440   -3.0080   23.3930 C   0  0  0  0  0  0  0  0  0  0  0  0
   -3.5920   -3.8390   22.2530 C   0  0  0  0  0  0  0  0  0  0  0  0
   -2.8150   -3.7090   20.9460 C   0  0  2  0  0  0  0  0  0  0  0  0
   -2.9790   -2.2850   20.4140 C   0  0  0  0  0  0  0  0  0  0  0  0
   -3.1330   -4.7040   19.8370 C   0  0  1  0  0  0  0  0  0  0  0  0
   -4.3150   -4.3850   19.0880 O   0  0  0  0  0  0  0  0  0  0  0  0
   -1.8810   -4.6570   18.9490 C   0  0  2  0  0  0  0  0  0  0  0  0
   -1.6230   -5.9330   18.3630 O   0  0  0  0  0  0  0  0  0  0  0  0
   -0.7280   -4.1630   19.8420 C   0  0  0  0  0  0  0  0  0  0  0  0
   -1.3710   -4.0850   21.2240 C   0  0  1  0  0  0  0  0  0  0  0  0
   -0.7180   -3.1870   22.2640 C   0  0  2  0  0  0  0  0  0  0  0  0
    0.7540   -3.5090   22.4280 C   0  0  0  0  0  0  0  0  0  0  0  0
    1.3830   -2.4930   23.3620 C   0  0  0  0  0  0  0  0  0  0  0  0
    0.5720   -2.3490   24.6350 C   0  0  1  0  0  0  0  0  0  0  0  0
    1.2030   -1.7560   25.7270 C   0  0  0  0  0  0  0  0  0  0  0  0
    0.5280   -1.5610   26.9240 C   0  0  0  0  0  0  0  0  0  0  0  0
    1.1710   -0.9880   27.9740 O   0  0  0  0  0  0  0  0  0  0  0  0
   -0.8010   -1.9430   27.0370 C   0  0  0  0  0  0  0  0  0  0  0  0
   -1.4350   -2.5110   25.9300 C   0  0  0  0  0  0  0  0  0  0  0  0
   -0.7630   -2.7100   24.7240 C   0  0  1  0  0  0  0  0  0  0  0  0
    5.9077    5.7978   -6.4551 H   0  0  0  0  0  0  0  0  0  0  0  0
    5.9012    3.7565   -7.7607 H   0  0  0  0  0  0  0  0  0  0  0  0
    6.2572    2.7880   -6.2920 H   0  0  0  0  0  0  0  0  0  0  0  0
    3.8052    4.5477   -6.7934 H   0  0  0  0  0  0  0  0  0  0  0  0
    3.8705    2.7361   -6.7045 H   0  0  0  0  0  0  0  0  0  0  0  0
    4.4842    2.5415   -3.0713 H   0  0  0  0  0  0  0  0  0  0  0  0
    3.8651    1.6146   -4.4800 H   0  0  0  0  0  0  0  0  0  0  0  0
    5.5536    2.2276   -4.4800 H   0  0  0  0  0  0  0  0  0  0  0  0
    2.1365    4.7695   -5.0080 H   0  0  0  0  0  0  0  0  0  0  0  0
    1.5425    2.5621   -3.5553 H   0  0  0  0  0  0  0  0  0  0  0  0
    2.6554    3.6339   -2.2228 H   0  0  0  0  0  0  0  0  0  0  0  0
    1.8160    5.5177   -1.5342 H   0  0  0  0  0  0  0  0  0  0  0  0
    4.2387    6.0573   -2.4293 H   0  0  0  0  0  0  0  0  0  0  0  0
    4.8660    4.4576   -2.0968 H   0  0  0  0  0  0  0  0  0  0  0  0
    4.4828    5.9062   -4.7330 H   0  0  0  0  0  0  0  0  0  0  0  0
    6.6864    4.0487   -4.0429 H   0  0  0  0  0  0  0  0  0  0  0  0
    6.5436    7.0680   -4.3854 H   0  0  0  0  0  0  0  0  0  0  0  0
    6.6161    6.2240   -2.8067 H   0  0  0  0  0  0  0  0  0  0  0  0
    8.8540    6.9900   -3.7570 H   0  0  0  0  0  0  0  0  0  0  0  0
    8.7293    5.2328   -3.3349 H   0  0  0  0  0  0  0  0  0  0  0  0
    8.5438    6.6738   -5.7526 H   0  0  0  0  0  0  0  0  0  0  0  0
   10.3165    6.9095   -5.6103 H   0  0  0  0  0  0  0  0  0  0  0  0
   10.6300    5.1227   -5.1142 H   0  0  0  0  0  0  0  0  0  0  0  0
   10.3236    6.5382   -7.3669 H   0  0  0  0  0  0  0  0  0  0  0  0
   12.3660    5.7664   -6.4918 H   0  0  0  0  0  0  0  0  0  0  0  0
    9.6788    5.6806   -8.8244 H   0  0  0  0  0  0  0  0  0  0  0  0
   10.0376    3.9759   -8.1245 H   0  0  0  0  0  0  0  0  0  0  0  0
    7.7360    5.4095   -8.3233 H   0  0  0  0  0  0  0  0  0  0  0  0
    8.2202    3.7114   -7.6655 H   0  0  0  0  0  0  0  0  0  0  0  0
    7.6623    6.1232   -6.7274 H   0  0  0  0  0  0  0  0  0  0  0  0
   -1.4539   -4.4219   23.8654 H   0  0  0  0  0  0  0  0  0  0  0  0
   -3.4782   -3.2129   24.3325 H   0  0  0  0  0  0  0  0  0  0  0  0
   -3.0143   -1.9432   23.1262 H   0  0  0  0  0  0  0  0  0  0  0  0
   -3.6127   -4.8976   22.5513 H   0  0  0  0  0  0  0  0  0  0  0  0
   -4.6095   -3.4558   22.0859 H   0  0  0  0  0  0  0  0  0  0  0  0
   -3.0596   -1.5850   21.2587 H   0  0  0  0  0  0  0  0  0  0  0  0
   -2.1054   -2.0200   19.8003 H   0  0  0  0  0  0  0  0  0  0  0  0
   -3.8899   -2.2255   19.8003 H   0  0  0  0  0  0  0  0  0  0  0  0
   -3.3536   -5.7008   20.2465 H   0  0  0  0  0  0  0  0  0  0  0  0
   -5.0570   -4.1847   19.7120 H   0  0  0  0  0  0  0  0  0  0  0  0
   -2.0109   -3.9709   18.0990 H   0  0  0  0  0  0  0  0  0  0  0  0
   -1.4874   -6.6035   19.0787 H   0  0  0  0  0  0  0  0  0  0  0  0
    0.1098   -4.8758   19.8357 H   0  0  0  0  0  0  0  0  0  0  0  0
   -0.3018   -3.2054   19.5083 H   0  0  0  0  0  0  0  0  0  0  0  0
   -1.2465   -5.0568   21.7242 H   0  0  0  0  0  0  0  0  0  0  0  0
   -0.7764   -2.1391   21.9347 H   0  0  0  0  0  0  0  0  0  0  0  0
    0.8654   -4.5178   22.8522 H   0  0  0  0  0  0  0  0  0  0  0  0
    1.2531   -3.4709   21.4485 H   0  0  0  0  0  0  0  0  0  0  0  0
    2.4005   -2.8226   23.6192 H   0  0  0  0  0  0  0  0  0  0  0  0
    1.4104   -1.5186   22.8522 H   0  0  0  0  0  0  0  0  0  0  0  0
    0.9216   -3.3369   24.9695 H   0  0  0  0  0  0  0  0  0  0  0  0
    2.0780   -2.3807   25.9597 H   0  0  0  0  0  0  0  0  0  0  0  0
    1.3762   -0.7277   25.3769 H   0  0  0  0  0  0  0  0  0  0  0  0
    0.8513   -2.5545   27.2682 H   0  0  0  0  0  0  0  0  0  0  0  0
    0.7885   -1.3289   28.8211 H   0  0  0  0  0  0  0  0  0  0  0  0
   -0.8577   -2.6774   27.8539 H   0  0  0  0  0  0  0  0  0  0  0  0
   -1.3374   -0.9954   27.1930 H   0  0  0  0  0  0  0  0  0  0  0  0
   -1.7928   -3.5001   26.2519 H   0  0  0  0  0  0  0  0  0  0  0  0
   -2.1744   -1.7417   25.6626 H   0  0  0  0  0  0  0  0  0  0  0  0
   -0.4701   -3.6991   25.1059 H   0  0  0  0  0  0  0  0  0  0  0  0
  1  2  1  0
  2  3  1  0
  3  4  1  0
  4  5  1  1
  4  6  1  0
  6  7  1  0
  6  8  1  0
  8  9  1  0
  8 10  1  0
  4 11  1  0
 10 11  1  0
  1 12  1  0
 11 12  1  0
 12 13  1  0
 13 14  1  0
 14 15  1  0
 15 16  1  0
 16 17  1  0
 17 18  1  0
 17 19  1  0
 19 20  1  0
  1 21  1  0
 15 21  1  0
 20 21  1  0
 22 23  1  0
 23 24  1  0
 24 25  1  0
 25 26  1  6
 25 27  1  0
 27 28  1  0
 27 29  1  0
 29 30  1  0
 29 31  1  0
 25 32  1  0
 31 32  1  0
 22 33  1  0
 32 33  1  0
 33 34  1  0
 34 35  1  0
 35 36  1  0
 36 37  1  0
 37 38  1  0
 38 39  1  0
 38 40  1  0
 40 41  1  0
 22 42  1  0
 36 42  1  0
 41 42  1  0
  1 43  1  6
  2 44  1  0
  2 45  1  0
  3 46  1  0
  3 47  1  0
  5 48  1  0
  5 49  1  0
  5 50  1  0
  6 51  1  6
  7 52  1  0
  8 53  1  1
  9 54  1  0
 10 55  1  0
 10 56  1  0
 11 57  1  6
 12 58  1  1
 13 59  1  0
 13 60  1  0
 14 61  1  0
 14 62  1  0
 15 63  1  0
 16 64  1  0
 16 65  1  0
 17 66  1  0
 18 67  1  0
 19 68  1  0
 19 69  1  0
 20 70  1  0
 20 71  1  0
 21 72  1  1
 22 73  1  1
 23 74  1  0
 23 75  1  0
 24 76  1  0
 24 77  1  0
 26 78  1  0
 26 79  1  0
 26 80  1  0
 27 81  1  1
 28 82  1  0
 29 83  1  6
 30 84  1  0
 31 85  1  0
 31 86  1  0
 32 87  1  1
 33 88  1  6
 34 89  1  0
 34 90  1  0
 35 91  1  0
 35 92  1  0
 36 93  1  1
 37 94  1  0
 37 95  1  0
 38 96  1  0
 39 97  1  0
 40 98  1  0
 40 99  1  0
 41100  1  0
 41101  1  0
 42102  1  6
M  END
>  <PDBID>  (1) 
3Q95

>  <PDB ID>  (1) 
3Q95

>  <Generic Name>  (1) 
Estriol

>  <Brand Name>  (1) 
Aacifemine#Colpoestriol#Ovestin#Synapause E

>  <DrugBank ID>  (1) 
DB04573

>  <ATC Codes>  (1) 
G03CC06#G03CA04

>  <Ligand ID>  (1) 
ESL

>  <Target Name>  (1) 
Estrogen receptor

>  <UniProt ID>  (1) 
P03372

>  <PDB ID.1>  (1) 
3Q95

>  <Seq. Identity>  (1) 
93%

$$$$
