PDB_DB02546_94
     RDKit          3D

196196  0  0  0  0  0  0  0  0999 V2000
   -4.3600  -14.5190   43.9310 O   0  0  0  0  0  0  0  0  0  0  0  0
   -2.3410  -14.5180   42.2580 O   0  0  0  0  0  0  0  0  0  0  0  0
   -4.4660  -14.5820   42.5380 N   0  0  0  0  0  0  0  0  0  0  0  0
   -3.4500  -14.1660   41.8800 C   0  0  0  0  0  0  0  0  0  0  0  0
   -3.7520  -13.3200   40.6460 C   0  0  0  0  0  0  0  0  0  0  0  0
   -4.0330  -11.8480   40.9210 C   0  0  0  0  0  0  0  0  0  0  0  0
   -4.1800  -10.9850   39.6570 C   0  0  0  0  0  0  0  0  0  0  0  0
   -5.1840  -11.4680   38.6000 C   0  0  0  0  0  0  0  0  0  0  0  0
   -5.6240  -10.3570   37.6390 C   0  0  0  0  0  0  0  0  0  0  0  0
   -6.6640  -10.8180   36.6160 C   0  0  0  0  0  0  0  0  0  0  0  0
   -7.2510   -9.5920   35.9400 C   0  0  0  0  0  0  0  0  0  0  0  0
   -6.5290   -8.8030   35.3400 O   0  0  0  0  0  0  0  0  0  0  0  0
   -8.5720   -9.4340   36.0480 N   0  0  0  0  0  0  0  0  0  0  0  0
   -9.2500   -8.3670   35.5510 C   0  0  0  0  0  0  0  0  0  0  0  0
  -10.4390   -8.5970   34.8640 C   0  0  0  0  0  0  0  0  0  0  0  0
  -11.1670   -7.5280   34.3460 C   0  0  0  0  0  0  0  0  0  0  0  0
  -10.7050   -6.2200   34.5160 C   0  0  0  0  0  0  0  0  0  0  0  0
   -9.5140   -5.9780   35.2050 C   0  0  0  0  0  0  0  0  0  0  0  0
   -8.7880   -7.0560   35.7220 C   0  0  0  0  0  0  0  0  0  0  0  0
  -24.5780   10.1170  -17.6360 O   0  0  0  0  0  0  0  0  0  0  0  0
  -22.7800   12.1420  -17.9830 O   0  0  0  0  0  0  0  0  0  0  0  0
  -24.7230   11.4040  -18.3540 N   0  0  0  0  0  0  0  0  0  0  0  0
  -23.9780   12.3290  -18.0600 C   0  0  1  0  0  0  0  0  0  0  0  0
  -24.7020   13.6560  -17.9090 C   0  0  0  0  0  0  0  0  0  0  0  0
  -25.5950   13.8920  -16.7050 C   0  0  0  0  0  0  0  0  0  0  0  0
  -25.6300   15.4070  -16.5080 C   0  0  0  0  0  0  0  0  0  0  0  0
  -26.7790   15.9210  -15.6540 C   0  0  0  0  0  0  0  0  0  0  0  0
  -27.9020   16.4980  -16.5160 C   0  0  0  0  0  0  0  0  0  0  0  0
  -28.3350   17.9300  -16.1470 C   0  0  0  0  0  0  0  0  0  0  0  0
  -29.7920   18.0460  -15.6940 C   0  0  0  0  0  0  0  0  0  0  0  0
  -30.2410   17.2590  -14.8910 O   0  0  0  0  0  0  0  0  0  0  0  0
  -30.5630   19.0290  -16.1710 N   0  0  0  0  0  0  0  0  0  0  0  0
  -31.9060   19.0800  -15.9340 C   0  0  0  0  0  0  0  0  0  0  0  0
  -32.4070   19.7410  -14.8120 C   0  0  0  0  0  0  0  0  0  0  0  0
  -33.7870   19.8090  -14.5850 C   0  0  0  0  0  0  0  0  0  0  0  0
  -34.6720   19.2080  -15.4830 C   0  0  0  0  0  0  0  0  0  0  0  0
  -34.1740   18.5480  -16.6100 C   0  0  0  0  0  0  0  0  0  0  0  0
  -32.7970   18.4880  -16.8340 C   0  0  0  0  0  0  0  0  0  0  0  0
   -6.7290   25.6380   -2.2770 O   0  0  0  0  0  0  0  0  0  0  0  0
   -7.6070   25.4820   -4.7840 O   0  0  0  0  0  0  0  0  0  0  0  0
   -5.9700   25.6740   -3.4280 N   0  0  0  0  0  0  0  0  0  0  0  0
   -6.4540   25.2110   -4.5370 C   0  0  1  0  0  0  0  0  0  0  0  0
   -5.5350   24.4480   -5.4750 C   0  0  0  0  0  0  0  0  0  0  0  0
   -5.1890   23.0190   -5.0500 C   0  0  0  0  0  0  0  0  0  0  0  0
   -4.4990   22.2140   -6.1620 C   0  0  0  0  0  0  0  0  0  0  0  0
   -3.0040   22.5330   -6.2490 C   0  0  0  0  0  0  0  0  0  0  0  0
   -2.1830   21.4970   -7.0150 C   0  0  0  0  0  0  0  0  0  0  0  0
   -0.8570   22.1210   -7.4810 C   0  0  0  0  0  0  0  0  0  0  0  0
    0.4000   21.4830   -6.9200 C   0  0  0  0  0  0  0  0  0  0  0  0
    1.0360   22.0460   -6.0380 O   0  0  0  0  0  0  0  0  0  0  0  0
    0.7600   20.3320   -7.4760 N   0  0  0  0  0  0  0  0  0  0  0  0
    1.8640   19.5890   -7.1950 C   0  0  0  0  0  0  0  0  0  0  0  0
    1.7260   18.2040   -7.1090 C   0  0  0  0  0  0  0  0  0  0  0  0
    2.8420   17.4050   -6.8470 C   0  0  0  0  0  0  0  0  0  0  0  0
    4.0950   17.9930   -6.6610 C   0  0  0  0  0  0  0  0  0  0  0  0
    4.2410   19.3770   -6.7530 C   0  0  0  0  0  0  0  0  0  0  0  0
    3.1270   20.1660   -7.0260 C   0  0  0  0  0  0  0  0  0  0  0  0
   19.5810    0.0270   39.7340 O   0  0  0  0  0  0  0  0  0  0  0  0
   18.2160   -1.9680   38.8330 O   0  0  0  0  0  0  0  0  0  0  0  0
   20.1210   -1.2490   39.5750 N   0  0  0  0  0  0  0  0  0  0  0  0
   19.2820   -2.2080   39.3830 C   0  0  0  0  0  0  0  0  0  0  0  0
   19.7570   -3.5920   39.8220 C   0  0  0  0  0  0  0  0  0  0  0  0
   19.5430   -3.8960   41.3030 C   0  0  0  0  0  0  0  0  0  0  0  0
   19.9280   -5.3390   41.6330 C   0  0  0  0  0  0  0  0  0  0  0  0
   21.4280   -5.6130   41.5240 C   0  0  0  0  0  0  0  0  0  0  0  0
   21.8000   -6.8110   42.3780 C   0  0  0  0  0  0  0  0  0  0  0  0
   23.2170   -7.2410   42.0310 C   0  0  0  0  0  0  0  0  0  0  0  0
   23.6970   -8.2430   43.0490 C   0  0  0  0  0  0  0  0  0  0  0  0
   23.1190   -9.3160   43.1500 O   0  0  0  0  0  0  0  0  0  0  0  0
   24.7630   -7.8640   43.7610 N   0  0  0  0  0  0  0  0  0  0  0  0
   25.3450   -8.5590   44.7740 C   0  0  0  0  0  0  0  0  0  0  0  0
   26.7320   -8.6870   44.7840 C   0  0  0  0  0  0  0  0  0  0  0  0
   27.3800   -9.3720   45.8140 C   0  0  0  0  0  0  0  0  0  0  0  0
   26.6260   -9.9360   46.8450 C   0  0  0  0  0  0  0  0  0  0  0  0
   25.2340   -9.8020   46.8460 C   0  0  0  0  0  0  0  0  0  0  0  0
   24.5910   -9.1070   45.8140 C   0  0  0  0  0  0  0  0  0  0  0  0
   -5.1342  -14.9792   44.3420 H   0  0  0  0  0  0  0  0  0  0  0  0
   -2.3167  -14.5257   43.2477 H   0  0  0  0  0  0  0  0  0  0  0  0
   -4.6290  -15.5653   42.2782 H   0  0  0  0  0  0  0  0  0  0  0  0
   -3.5091  -15.0509   41.2293 H   0  0  0  0  0  0  0  0  0  0  0  0
   -2.8852  -13.3807   39.9715 H   0  0  0  0  0  0  0  0  0  0  0  0
   -4.6758  -13.7312   40.2129 H   0  0  0  0  0  0  0  0  0  0  0  0
   -4.9675  -11.7774   41.4969 H   0  0  0  0  0  0  0  0  0  0  0  0
   -3.1626  -11.4582   41.4691 H   0  0  0  0  0  0  0  0  0  0  0  0
   -4.4907   -9.9790   39.9755 H   0  0  0  0  0  0  0  0  0  0  0  0
   -3.1984  -11.0303   39.1626 H   0  0  0  0  0  0  0  0  0  0  0  0
   -4.7161  -12.2730   38.0143 H   0  0  0  0  0  0  0  0  0  0  0  0
   -6.0810  -11.8159   39.1332 H   0  0  0  0  0  0  0  0  0  0  0  0
   -6.0555   -9.5353   38.2295 H   0  0  0  0  0  0  0  0  0  0  0  0
   -4.7328  -10.0404   37.0773 H   0  0  0  0  0  0  0  0  0  0  0  0
   -6.1848  -11.4625   35.8643 H   0  0  0  0  0  0  0  0  0  0  0  0
   -7.4592  -11.3887   37.1179 H   0  0  0  0  0  0  0  0  0  0  0  0
   -7.1121   -9.0149   36.8661 H   0  0  0  0  0  0  0  0  0  0  0  0
   -6.0264   -8.2538   35.9926 H   0  0  0  0  0  0  0  0  0  0  0  0
   -8.9903  -10.2633   35.6028 H   0  0  0  0  0  0  0  0  0  0  0  0
   -8.6893   -8.4498   34.6083 H   0  0  0  0  0  0  0  0  0  0  0  0
  -10.1929   -9.2530   34.0160 H   0  0  0  0  0  0  0  0  0  0  0  0
  -11.1042   -8.9998   35.6420 H   0  0  0  0  0  0  0  0  0  0  0  0
  -11.2512   -7.6967   33.2623 H   0  0  0  0  0  0  0  0  0  0  0  0
  -12.0962   -7.5463   34.9344 H   0  0  0  0  0  0  0  0  0  0  0  0
  -10.5797   -5.7954   33.5090 H   0  0  0  0  0  0  0  0  0  0  0  0
  -11.4672   -5.7684   35.1680 H   0  0  0  0  0  0  0  0  0  0  0  0
   -8.8461   -5.4447   34.5126 H   0  0  0  0  0  0  0  0  0  0  0  0
   -9.8401   -5.4312   36.1020 H   0  0  0  0  0  0  0  0  0  0  0  0
   -8.7041   -6.8895   36.8061 H   0  0  0  0  0  0  0  0  0  0  0  0
   -7.8612   -7.0392   35.1297 H   0  0  0  0  0  0  0  0  0  0  0  0
  -24.5964   10.2799  -16.6597 H   0  0  0  0  0  0  0  0  0  0  0  0
  -22.5131   12.1003  -17.0306 H   0  0  0  0  0  0  0  0  0  0  0  0
  -24.5836   11.2094  -19.3558 H   0  0  0  0  0  0  0  0  0  0  0  0
  -23.8702   12.5808  -19.1254 H   0  0  0  0  0  0  0  0  0  0  0  0
  -23.9308   14.4402  -17.8929 H   0  0  0  0  0  0  0  0  0  0  0  0
  -25.4052   13.6620  -18.7548 H   0  0  0  0  0  0  0  0  0  0  0  0
  -26.6073   13.5065  -16.8966 H   0  0  0  0  0  0  0  0  0  0  0  0
  -25.2169   13.3746  -15.8110 H   0  0  0  0  0  0  0  0  0  0  0  0
  -24.6874   15.7100  -16.0288 H   0  0  0  0  0  0  0  0  0  0  0  0
  -25.7734   15.8424  -17.5079 H   0  0  0  0  0  0  0  0  0  0  0  0
  -27.1791   15.0897  -15.0550 H   0  0  0  0  0  0  0  0  0  0  0  0
  -26.3956   16.7218  -15.0047 H   0  0  0  0  0  0  0  0  0  0  0  0
  -27.5612   16.5032  -17.5619 H   0  0  0  0  0  0  0  0  0  0  0  0
  -28.7802   15.8576  -16.3464 H   0  0  0  0  0  0  0  0  0  0  0  0
  -27.6901   18.2860  -15.3301 H   0  0  0  0  0  0  0  0  0  0  0  0
  -28.2380   18.5355  -17.0602 H   0  0  0  0  0  0  0  0  0  0  0  0
  -30.1003   17.3832  -16.5160 H   0  0  0  0  0  0  0  0  0  0  0  0
  -30.0566   17.5822  -13.9736 H   0  0  0  0  0  0  0  0  0  0  0  0
  -30.1721   19.9067  -15.7998 H   0  0  0  0  0  0  0  0  0  0  0  0
  -31.8392   18.1473  -15.3547 H   0  0  0  0  0  0  0  0  0  0  0  0
  -31.9668   19.2477  -13.9328 H   0  0  0  0  0  0  0  0  0  0  0  0
  -32.1352   20.7900  -15.0008 H   0  0  0  0  0  0  0  0  0  0  0  0
  -33.9704   19.3496  -13.6025 H   0  0  0  0  0  0  0  0  0  0  0  0
  -34.0085   20.8813  -14.6904 H   0  0  0  0  0  0  0  0  0  0  0  0
  -35.2532   18.4692  -14.9117 H   0  0  0  0  0  0  0  0  0  0  0  0
  -35.2230   20.0599  -15.9080 H   0  0  0  0  0  0  0  0  0  0  0  0
  -34.5317   17.5093  -16.5533 H   0  0  0  0  0  0  0  0  0  0  0  0
  -34.5386   19.1645  -17.4449 H   0  0  0  0  0  0  0  0  0  0  0  0
  -32.6159   18.9577  -17.8120 H   0  0  0  0  0  0  0  0  0  0  0  0
  -32.5759   17.4153  -16.7320 H   0  0  0  0  0  0  0  0  0  0  0  0
   -6.1325   25.6663   -1.4874 H   0  0  0  0  0  0  0  0  0  0  0  0
   -8.1070   25.5995   -3.9376 H   0  0  0  0  0  0  0  0  0  0  0  0
   -5.7321   26.6618   -3.5967 H   0  0  0  0  0  0  0  0  0  0  0  0
   -6.1278   26.1222   -5.0598 H   0  0  0  0  0  0  0  0  0  0  0  0
   -6.0228   24.3988   -6.4597 H   0  0  0  0  0  0  0  0  0  0  0  0
   -4.5830   24.9990   -5.4751 H   0  0  0  0  0  0  0  0  0  0  0  0
   -4.5163   23.0646   -4.1809 H   0  0  0  0  0  0  0  0  0  0  0  0
   -6.1335   22.5083   -4.8108 H   0  0  0  0  0  0  0  0  0  0  0  0
   -4.6229   21.1409   -5.9543 H   0  0  0  0  0  0  0  0  0  0  0  0
   -4.9638   22.4866   -7.1210 H   0  0  0  0  0  0  0  0  0  0  0  0
   -2.8878   23.5045   -6.7516 H   0  0  0  0  0  0  0  0  0  0  0  0
   -2.6224   22.5367   -5.2173 H   0  0  0  0  0  0  0  0  0  0  0  0
   -1.9720   20.6404   -6.3579 H   0  0  0  0  0  0  0  0  0  0  0  0
   -2.7533   21.1602   -7.8932 H   0  0  0  0  0  0  0  0  0  0  0  0
   -0.8144   22.0458   -8.5776 H   0  0  0  0  0  0  0  0  0  0  0  0
   -0.8628   23.1552   -7.1063 H   0  0  0  0  0  0  0  0  0  0  0  0
    1.0020   21.9982   -7.6830 H   0  0  0  0  0  0  0  0  0  0  0  0
    0.7040   21.7521   -5.1528 H   0  0  0  0  0  0  0  0  0  0  0  0
   -0.0342   19.6981   -7.3076 H   0  0  0  0  0  0  0  0  0  0  0  0
    1.6496   19.6771   -6.1197 H   0  0  0  0  0  0  0  0  0  0  0  0
    0.9991   18.0066   -6.3074 H   0  0  0  0  0  0  0  0  0  0  0  0
    1.4426   17.9145   -8.1317 H   0  0  0  0  0  0  0  0  0  0  0  0
    2.6184   16.8381   -5.9312 H   0  0  0  0  0  0  0  0  0  0  0  0
    2.9673   16.8335   -7.7785 H   0  0  0  0  0  0  0  0  0  0  0  0
    4.4336   17.7051   -5.6548 H   0  0  0  0  0  0  0  0  0  0  0  0
    4.6758   17.6221   -7.5184 H   0  0  0  0  0  0  0  0  0  0  0  0
    4.6488   19.7206   -5.7909 H   0  0  0  0  0  0  0  0  0  0  0  0
    4.8774   19.5118   -7.6400 H   0  0  0  0  0  0  0  0  0  0  0  0
    3.3493   20.7117   -7.9549 H   0  0  0  0  0  0  0  0  0  0  0  0
    3.0074   20.7476   -6.1001 H   0  0  0  0  0  0  0  0  0  0  0  0
   19.4947    0.2309   40.6989 H   0  0  0  0  0  0  0  0  0  0  0  0
   17.5190   -1.8111   39.5184 H   0  0  0  0  0  0  0  0  0  0  0  0
   20.7558   -1.2215   38.7644 H   0  0  0  0  0  0  0  0  0  0  0  0
   19.7406   -2.4133   38.4045 H   0  0  0  0  0  0  0  0  0  0  0  0
   19.2108   -4.3447   39.2346 H   0  0  0  0  0  0  0  0  0  0  0  0
   20.8434   -3.6178   39.6517 H   0  0  0  0  0  0  0  0  0  0  0  0
   20.1629   -3.2132   41.9026 H   0  0  0  0  0  0  0  0  0  0  0  0
   18.4769   -3.7580   41.5363 H   0  0  0  0  0  0  0  0  0  0  0  0
   19.6087   -5.5572   42.6628 H   0  0  0  0  0  0  0  0  0  0  0  0
   19.4282   -5.9829   40.8944 H   0  0  0  0  0  0  0  0  0  0  0  0
   21.6853   -5.8197   40.4747 H   0  0  0  0  0  0  0  0  0  0  0  0
   21.9828   -4.7313   41.8774 H   0  0  0  0  0  0  0  0  0  0  0  0
   21.7472   -6.5369   43.4420 H   0  0  0  0  0  0  0  0  0  0  0  0
   21.1012   -7.6383   42.1850 H   0  0  0  0  0  0  0  0  0  0  0  0
   23.2274   -7.6993   41.0311 H   0  0  0  0  0  0  0  0  0  0  0  0
   23.8802   -6.3634   42.0368 H   0  0  0  0  0  0  0  0  0  0  0  0
   23.0189   -7.8073   43.7976 H   0  0  0  0  0  0  0  0  0  0  0  0
   22.9996   -9.5377   44.1074 H   0  0  0  0  0  0  0  0  0  0  0  0
   25.5118   -7.7225   43.0680 H   0  0  0  0  0  0  0  0  0  0  0  0
   25.2638   -9.4848   44.1855 H   0  0  0  0  0  0  0  0  0  0  0  0
   27.0068   -9.1953   43.8480 H   0  0  0  0  0  0  0  0  0  0  0  0
   27.0714   -7.6508   44.9291 H   0  0  0  0  0  0  0  0  0  0  0  0
   27.9464  -10.1911   45.3468 H   0  0  0  0  0  0  0  0  0  0  0  0
   27.9629   -8.5878   46.3192 H   0  0  0  0  0  0  0  0  0  0  0  0
   26.8414  -11.0147   46.8427 H   0  0  0  0  0  0  0  0  0  0  0  0
   26.9365   -9.3608   47.7298 H   0  0  0  0  0  0  0  0  0  0  0  0
   24.8182  -10.8204   46.8484 H   0  0  0  0  0  0  0  0  0  0  0  0
   25.0442   -9.1721   47.7276 H   0  0  0  0  0  0  0  0  0  0  0  0
   24.0425   -8.2764   46.2823 H   0  0  0  0  0  0  0  0  0  0  0  0
   23.9937   -9.8844   45.3151 H   0  0  0  0  0  0  0  0  0  0  0  0
  3  1  1  0
  4  2  1  0
  4  3  1  0
  4  5  1  0
  5  6  1  0
  6  7  1  0
  7  8  1  0
  8  9  1  0
  9 10  1  0
 10 11  1  0
 11 12  1  0
 11 13  1  0
 13 14  1  0
 14 15  1  0
 15 16  1  0
 16 17  1  0
 17 18  1  0
 14 19  1  0
 18 19  1  0
 22 20  1  0
 23 21  1  0
 23 22  1  0
 23 24  1  0
 24 25  1  0
 25 26  1  0
 26 27  1  0
 27 28  1  0
 28 29  1  0
 29 30  1  0
 30 31  1  0
 30 32  1  0
 32 33  1  0
 33 34  1  0
 34 35  1  0
 35 36  1  0
 36 37  1  0
 33 38  1  0
 37 38  1  0
 41 39  1  0
 42 40  1  0
 42 41  1  0
 42 43  1  0
 43 44  1  0
 44 45  1  0
 45 46  1  0
 46 47  1  0
 47 48  1  0
 48 49  1  0
 49 50  1  0
 49 51  1  0
 51 52  1  0
 52 53  1  0
 53 54  1  0
 54 55  1  0
 55 56  1  0
 52 57  1  0
 56 57  1  0
 60 58  1  0
 61 59  1  0
 61 60  1  0
 61 62  1  0
 62 63  1  0
 63 64  1  0
 64 65  1  0
 65 66  1  0
 66 67  1  0
 67 68  1  0
 68 69  1  0
 68 70  1  0
 70 71  1  0
 71 72  1  0
 72 73  1  0
 73 74  1  0
 74 75  1  0
 71 76  1  0
 75 76  1  0
  1 77  1  0
  2 78  1  0
  3 79  1  6
  4 80  1  0
  5 81  1  0
  5 82  1  0
  6 83  1  0
  6 84  1  0
  7 85  1  0
  7 86  1  0
  8 87  1  0
  8 88  1  0
  9 89  1  0
  9 90  1  0
 10 91  1  0
 10 92  1  0
 11 93  1  0
 12 94  1  0
 13 95  1  0
 14 96  1  0
 15 97  1  0
 15 98  1  0
 16 99  1  0
 16100  1  0
 17101  1  0
 17102  1  0
 18103  1  0
 18104  1  0
 19105  1  0
 19106  1  0
 20107  1  0
 21108  1  0
 22109  1  1
 23110  1  1
 24111  1  0
 24112  1  0
 25113  1  0
 25114  1  0
 26115  1  0
 26116  1  0
 27117  1  0
 27118  1  0
 28119  1  0
 28120  1  0
 29121  1  0
 29122  1  0
 30123  1  0
 31124  1  0
 32125  1  0
 33126  1  0
 34127  1  0
 34128  1  0
 35129  1  0
 35130  1  0
 36131  1  0
 36132  1  0
 37133  1  0
 37134  1  0
 38135  1  0
 38136  1  0
 39137  1  0
 40138  1  0
 41139  1  1
 42140  1  1
 43141  1  0
 43142  1  0
 44143  1  0
 44144  1  0
 45145  1  0
 45146  1  0
 46147  1  0
 46148  1  0
 47149  1  0
 47150  1  0
 48151  1  0
 48152  1  0
 49153  1  0
 50154  1  0
 51155  1  0
 52156  1  0
 53157  1  0
 53158  1  0
 54159  1  0
 54160  1  0
 55161  1  0
 55162  1  0
 56163  1  0
 56164  1  0
 57165  1  0
 57166  1  0
 58167  1  0
 59168  1  0
 60169  1  0
 61170  1  0
 62171  1  0
 62172  1  0
 63173  1  0
 63174  1  0
 64175  1  0
 64176  1  0
 65177  1  0
 65178  1  0
 66179  1  0
 66180  1  0
 67181  1  0
 67182  1  0
 68183  1  0
 69184  1  0
 70185  1  0
 71186  1  0
 72187  1  0
 72188  1  0
 73189  1  0
 73190  1  0
 74191  1  0
 74192  1  0
 75193  1  0
 75194  1  0
 76195  1  0
 76196  1  0
M  END
>  <PDBID>  (1) 
1ZZ1

>  <PDB ID>  (1) 
1ZZ1

>  <Generic Name>  (1) 
Vorinostat

>  <Brand Name>  (1) 
Zolinza

>  <DrugBank ID>  (1) 
DB02546

>  <ATC Codes>  (1) 
L01XX38

>  <Ligand ID>  (1) 
SHH

>  <Target Name>  (1) 
Histone deacetylase 6

>  <UniProt ID>  (1) 
Q9UBN7

>  <PDB ID.1>  (1) 
1ZZ1

>  <Seq. Identity>  (1) 
37%

$$$$
