PDB_DB00159_97
     RDKit          3D

 52 51  0  0  0  0  0  0  0  0999 V2000
   11.4720   22.6130   25.7500 C   0  0  0  0  0  0  0  0  0  0  0  0
   10.2770   22.5120   26.0960 O   0  0  0  0  0  0  0  0  0  0  0  0
   12.3870   22.7550   26.5870 O   0  0  0  0  0  0  0  0  0  0  0  0
   11.8340   22.5550   24.2800 C   0  0  0  0  0  0  0  0  0  0  0  0
   12.0530   23.9430   23.6850 C   0  0  0  0  0  0  0  0  0  0  0  0
   13.3590   24.5730   24.1530 C   0  0  0  0  0  0  0  0  0  0  0  0
   14.2030   24.9530   22.9590 C   0  0  0  0  0  0  0  0  0  0  0  0
   15.5360   24.9170   22.9760 C   0  0  0  0  0  0  0  0  0  0  0  0
   16.3390   24.5040   24.1890 C   0  0  0  0  0  0  0  0  0  0  0  0
   17.7560   25.0170   24.0240 C   0  0  0  0  0  0  0  0  0  0  0  0
   18.4020   25.8030   24.9000 C   0  0  0  0  0  0  0  0  0  0  0  0
   17.8320   26.3070   26.2120 C   0  0  0  0  0  0  0  0  0  0  0  0
   16.7590   27.3340   25.9250 C   0  0  0  0  0  0  0  0  0  0  0  0
   16.5510   28.4110   26.6770 C   0  0  0  0  0  0  0  0  0  0  0  0
   17.3700   28.7180   27.9050 C   0  0  0  0  0  0  0  0  0  0  0  0
   16.3620   29.0740   28.9520 C   0  0  0  0  0  0  0  0  0  0  0  0
   16.6690   29.1940   30.2310 C   0  0  0  0  0  0  0  0  0  0  0  0
   18.0560   28.9940   30.7850 C   0  0  0  0  0  0  0  0  0  0  0  0
   17.8550   28.8250   32.2810 C   0  0  0  0  0  0  0  0  0  0  0  0
   18.8270   28.7110   33.1740 C   0  0  0  0  0  0  0  0  0  0  0  0
   20.3120   28.7320   32.8700 C   0  0  0  0  0  0  0  0  0  0  0  0
   21.0220   29.3480   34.0400 C   0  0  0  0  0  0  0  0  0  0  0  0
   13.3266   22.8326   26.2849 H   0  0  0  0  0  0  0  0  0  0  0  0
   12.7589   21.9707   24.1657 H   0  0  0  0  0  0  0  0  0  0  0  0
   10.9955   22.0863   23.7440 H   0  0  0  0  0  0  0  0  0  0  0  0
   12.0739   23.8586   22.5884 H   0  0  0  0  0  0  0  0  0  0  0  0
   11.2282   24.5879   24.0225 H   0  0  0  0  0  0  0  0  0  0  0  0
   13.1381   25.4734   24.7450 H   0  0  0  0  0  0  0  0  0  0  0  0
   13.9101   23.8483   24.7703 H   0  0  0  0  0  0  0  0  0  0  0  0
   13.6965   25.2730   22.0364 H   0  0  0  0  0  0  0  0  0  0  0  0
   16.0783   25.2019   22.0623 H   0  0  0  0  0  0  0  0  0  0  0  0
   15.8908   24.9364   25.0957 H   0  0  0  0  0  0  0  0  0  0  0  0
   16.3431   23.4081   24.2836 H   0  0  0  0  0  0  0  0  0  0  0  0
   18.2983   24.7216   23.1137 H   0  0  0  0  0  0  0  0  0  0  0  0
   19.4283   26.1061   24.6454 H   0  0  0  0  0  0  0  0  0  0  0  0
   17.3964   25.4660   26.7714 H   0  0  0  0  0  0  0  0  0  0  0  0
   18.6323   26.7656   26.8113 H   0  0  0  0  0  0  0  0  0  0  0  0
   16.1154   27.1816   25.0460 H   0  0  0  0  0  0  0  0  0  0  0  0
   15.7482   29.1066   26.3912 H   0  0  0  0  0  0  0  0  0  0  0  0
   17.9544   27.8381   28.2119 H   0  0  0  0  0  0  0  0  0  0  0  0
   18.0946   29.5272   27.7314 H   0  0  0  0  0  0  0  0  0  0  0  0
   15.3199   29.2431   28.6430 H   0  0  0  0  0  0  0  0  0  0  0  0
   15.8642   29.4555   30.9337 H   0  0  0  0  0  0  0  0  0  0  0  0
   18.5203   28.0955   30.3524 H   0  0  0  0  0  0  0  0  0  0  0  0
   18.7234   29.8357   30.5480 H   0  0  0  0  0  0  0  0  0  0  0  0
   16.8201   28.7949   32.6525 H   0  0  0  0  0  0  0  0  0  0  0  0
   18.5310   28.5908   34.2266 H   0  0  0  0  0  0  0  0  0  0  0  0
   20.6744   27.7053   32.7131 H   0  0  0  0  0  0  0  0  0  0  0  0
   20.5048   29.3164   31.9582 H   0  0  0  0  0  0  0  0  0  0  0  0
   20.5848   28.9687   34.9754 H   0  0  0  0  0  0  0  0  0  0  0  0
   22.0894   29.0850   34.0011 H   0  0  0  0  0  0  0  0  0  0  0  0
   20.9122   30.4418   34.0011 H   0  0  0  0  0  0  0  0  0  0  0  0
  1  2  2  0
  1  3  1  0
  1  4  1  0
  4  5  1  0
  5  6  1  0
  6  7  1  0
  7  8  2  0
  8  9  1  0
  9 10  1  0
 10 11  2  0
 11 12  1  0
 12 13  1  0
 13 14  2  0
 14 15  1  0
 15 16  1  0
 16 17  2  0
 17 18  1  0
 18 19  1  0
 19 20  2  0
 20 21  1  0
 21 22  1  0
  3 23  1  0
  4 24  1  0
  4 25  1  0
  5 26  1  0
  5 27  1  0
  6 28  1  0
  6 29  1  0
  7 30  1  0
  8 31  1  0
  9 32  1  0
  9 33  1  0
 10 34  1  0
 11 35  1  0
 12 36  1  0
 12 37  1  0
 13 38  1  0
 14 39  1  0
 15 40  1  0
 15 41  1  0
 16 42  1  0
 17 43  1  0
 18 44  1  0
 18 45  1  0
 19 46  1  0
 20 47  1  0
 21 48  1  0
 21 49  1  0
 22 50  1  0
 22 51  1  0
 22 52  1  0
M  END
$$$$
