PDB_DB00218_97
     RDKit          3D

130138  0  0  0  0  0  0  0  0999 V2000
   39.6710    3.2840   18.6540 F   0  0  0  0  0  0  0  0  0  0  0  0
   39.9880    2.9310   23.4710 O   0  0  0  0  0  0  0  0  0  0  0  0
   34.8860    3.2920   20.1640 O   0  0  0  0  0  0  0  0  0  0  0  0
   32.7630    3.4190   23.6520 O   0  0  0  0  0  0  0  0  0  0  0  0
   32.6040    2.9540   21.5150 O   0  0  0  0  0  0  0  0  0  0  0  0
   41.3760    3.0730   21.1060 N   0  0  0  0  0  0  0  0  0  0  0  0
   44.0320    4.1310   20.8480 N   0  0  0  0  0  0  0  0  0  0  0  0
   37.0470    2.9770   23.6970 N   0  0  0  0  0  0  0  0  0  0  0  0
   43.5300    1.7870   21.2750 C   0  0  2  0  0  0  0  0  0  0  0  0
   43.6020    2.7730   20.3250 C   0  0  1  0  0  0  0  0  0  0  0  0
   42.0480    1.8290   21.8290 C   0  0  0  0  0  0  0  0  0  0  0  0
   42.0510    3.1390   19.9320 C   0  0  0  0  0  0  0  0  0  0  0  0
   44.6610    1.7840   22.2980 C   0  0  0  0  0  0  0  0  0  0  0  0
   37.6970    2.8400   24.9770 C   0  0  2  0  0  0  0  0  0  0  0  0
   45.0600    3.1040   22.7520 C   0  0  0  0  0  0  0  0  0  0  0  0
   38.5660    1.7770   25.6370 C   0  0  0  0  0  0  0  0  0  0  0  0
   37.1250    1.9320   26.0610 C   0  0  0  0  0  0  0  0  0  0  0  0
   45.1990    4.0510   21.6950 C   0  0  0  0  0  0  0  0  0  0  0  0
   39.8940    3.0890   21.0610 C   0  0  0  0  0  0  0  0  0  0  0  0
   37.7910    3.0560   22.3670 C   0  0  0  0  0  0  0  0  0  0  0  0
   39.2070    3.0240   22.2930 C   0  0  0  0  0  0  0  0  0  0  0  0
   37.0450    3.1640   21.1700 C   0  0  0  0  0  0  0  0  0  0  0  0
   39.1180    3.2100   19.8740 C   0  0  0  0  0  0  0  0  0  0  0  0
   35.5990    3.0090   23.7170 C   0  0  0  0  0  0  0  0  0  0  0  0
   37.7150    3.2400   19.9390 C   0  0  0  0  0  0  0  0  0  0  0  0
   34.8270    3.1200   22.4650 C   0  0  0  0  0  0  0  0  0  0  0  0
   35.5270    3.1990   21.1960 C   0  0  0  0  0  0  0  0  0  0  0  0
   33.3080    3.1600   22.5420 C   0  0  0  0  0  0  0  0  0  0  0  0
   40.3770    4.2120   23.9770 C   0  0  0  0  0  0  0  0  0  0  0  0
   43.6110    0.9330   20.7890 H   0  0  0  0  0  0  0  0  0  0  0  0
   44.1250    2.4960   19.5360 H   0  0  0  0  0  0  0  0  0  0  0  0
   41.5740    1.0020   21.5970 H   0  0  0  0  0  0  0  0  0  0  0  0
   42.0510    1.9600   22.8050 H   0  0  0  0  0  0  0  0  0  0  0  0
   41.6930    2.4780   19.2930 H   0  0  0  0  0  0  0  0  0  0  0  0
   41.9970    4.0420   19.5570 H   0  0  0  0  0  0  0  0  0  0  0  0
   45.4440    1.3420   21.8970 H   0  0  0  0  0  0  0  0  0  0  0  0
   44.3720    1.2590   23.0810 H   0  0  0  0  0  0  0  0  0  0  0  0
   37.8970    3.7220   25.3550 H   0  0  0  0  0  0  0  0  0  0  0  0
   44.3850    3.4360   23.3840 H   0  0  0  0  0  0  0  0  0  0  0  0
   45.9230    3.0290   23.2230 H   0  0  0  0  0  0  0  0  0  0  0  0
   43.3450    4.5090   21.3120 H   0  0  0  0  0  0  0  0  0  0  0  0
   39.2360    2.1090   26.2750 H   0  0  0  0  0  0  0  0  0  0  0  0
   38.7650    0.9880   25.0870 H   0  0  0  0  0  0  0  0  0  0  0  0
   36.9820    2.3530   26.9380 H   0  0  0  0  0  0  0  0  0  0  0  0
   36.5120    1.2320   25.7500 H   0  0  0  0  0  0  0  0  0  0  0  0
   45.9740    3.7960   21.1420 H   0  0  0  0  0  0  0  0  0  0  0  0
   45.3670    4.9390   22.0860 H   0  0  0  0  0  0  0  0  0  0  0  0
   35.1250    2.9540   24.5750 H   0  0  0  0  0  0  0  0  0  0  0  0
   37.1930    3.3160   19.1090 H   0  0  0  0  0  0  0  0  0  0  0  0
   40.2540    4.2310   24.9520 H   0  0  0  0  0  0  0  0  0  0  0  0
   41.3230    4.3760   23.7630 H   0  0  0  0  0  0  0  0  0  0  0  0
   39.8220    4.9110   23.5630 H   0  0  0  0  0  0  0  0  0  0  0  0
   39.1130   19.1090   18.0150 F   0  0  0  0  0  0  0  0  0  0  0  0
   35.2700   19.3980   15.0640 O   0  0  0  0  0  0  0  0  0  0  0  0
   35.2130   19.0390   21.1320 O   0  0  0  0  0  0  0  0  0  0  0  0
   32.8650   19.2870   22.2940 O   0  0  0  0  0  0  0  0  0  0  0  0
   31.1310   18.9110   21.0020 O   0  0  0  0  0  0  0  0  0  0  0  0
   38.0390   19.2970   15.2410 N   0  0  0  0  0  0  0  0  0  0  0  0
   39.7610   18.2760   13.2460 N   0  0  0  0  0  0  0  0  0  0  0  0
   33.4560   19.3180   17.3900 N   0  0  0  0  0  0  0  0  0  0  0  0
   39.0420   20.5880   13.3380 C   0  0  2  0  0  0  0  0  0  0  0  0
   39.9110   19.6610   13.8430 C   0  0  1  0  0  0  0  0  0  0  0  0
   37.7370   20.4810   14.2260 C   0  0  0  0  0  0  0  0  0  0  0  0
   39.3870   19.3470   15.3640 C   0  0  0  0  0  0  0  0  0  0  0  0
   38.8780   20.5490   11.8210 C   0  0  0  0  0  0  0  0  0  0  0  0
   32.7660   19.4320   16.1300 C   0  0  2  0  0  0  0  0  0  0  0  0
   38.8930   19.2190   11.2280 C   0  0  0  0  0  0  0  0  0  0  0  0
   32.5700   20.5590   15.1290 C   0  0  0  0  0  0  0  0  0  0  0  0
   31.4050   20.0970   15.9770 C   0  0  0  0  0  0  0  0  0  0  0  0
   39.8350   18.3160   11.8060 C   0  0  0  0  0  0  0  0  0  0  0  0
   37.2350   19.2720   16.4850 C   0  0  0  0  0  0  0  0  0  0  0  0
   34.9760   19.2640   17.5030 C   0  0  0  0  0  0  0  0  0  0  0  0
   35.8250   19.3100   16.3650 C   0  0  0  0  0  0  0  0  0  0  0  0
   35.5600   19.1690   18.7850 C   0  0  0  0  0  0  0  0  0  0  0  0
   37.7920   19.1610   17.7900 C   0  0  0  0  0  0  0  0  0  0  0  0
   32.6330   19.2720   18.5820 C   0  0  0  0  0  0  0  0  0  0  0  0
   36.9550   19.1190   18.9170 C   0  0  0  0  0  0  0  0  0  0  0  0
   33.2550   19.1720   19.9160 C   0  0  0  0  0  0  0  0  0  0  0  0
   34.7000   19.1210   20.0320 C   0  0  0  0  0  0  0  0  0  0  0  0
   32.3680   19.1220   21.1460 C   0  0  0  0  0  0  0  0  0  0  0  0
   35.2910   18.1540   14.3630 C   0  0  0  0  0  0  0  0  0  0  0  0
   39.4330   21.4700   13.5390 H   0  0  0  0  0  0  0  0  0  0  0  0
   40.8460   19.9750   13.8320 H   0  0  0  0  0  0  0  0  0  0  0  0
   36.9600   20.2640   13.6680 H   0  0  0  0  0  0  0  0  0  0  0  0
   37.5850   21.3220   14.7150 H   0  0  0  0  0  0  0  0  0  0  0  0
   39.6520   20.0720   15.9770 H   0  0  0  0  0  0  0  0  0  0  0  0
   39.7360   18.4860   15.6760 H   0  0  0  0  0  0  0  0  0  0  0  0
   39.6070   21.0750   11.4180 H   0  0  0  0  0  0  0  0  0  0  0  0
   38.0220   20.9790   11.5920 H   0  0  0  0  0  0  0  0  0  0  0  0
   32.7670   18.5690   15.6660 H   0  0  0  0  0  0  0  0  0  0  0  0
   39.0980   19.3090   10.2720 H   0  0  0  0  0  0  0  0  0  0  0  0
   37.9920   18.8280   11.3180 H   0  0  0  0  0  0  0  0  0  0  0  0
   38.9620   17.9210   13.5000 H   0  0  0  0  0  0  0  0  0  0  0  0
   32.9620   21.4250   15.3790 H   0  0  0  0  0  0  0  0  0  0  0  0
   32.5420   20.2900   14.1850 H   0  0  0  0  0  0  0  0  0  0  0  0
   30.7210   19.5680   15.5100 H   0  0  0  0  0  0  0  0  0  0  0  0
   31.1430   20.7010   16.7040 H   0  0  0  0  0  0  0  0  0  0  0  0
   39.6640   17.4120   11.4540 H   0  0  0  0  0  0  0  0  0  0  0  0
   40.7420   18.5930   11.5420 H   0  0  0  0  0  0  0  0  0  0  0  0
   31.6560   19.3090   18.5020 H   0  0  0  0  0  0  0  0  0  0  0  0
   37.3530   19.0510   19.8130 H   0  0  0  0  0  0  0  0  0  0  0  0
   36.0110   18.1670   13.6940 H   0  0  0  0  0  0  0  0  0  0  0  0
   35.4500   17.4220   15.0000 H   0  0  0  0  0  0  0  0  0  0  0  0
   34.4270   18.0150   13.9140 H   0  0  0  0  0  0  0  0  0  0  0  0
   33.9300    3.4307   20.3807 H   0  0  0  0  0  0  0  0  0  0  0  0
   33.3613    3.1347   24.3877 H   0  0  0  0  0  0  0  0  0  0  0  0
   31.6909    2.6868   21.7890 H   0  0  0  0  0  0  0  0  0  0  0  0
   39.8841    1.9909   20.9975 H   0  0  0  0  0  0  0  0  0  0  0  0
   37.8200    4.1526   22.4484 H   0  0  0  0  0  0  0  0  0  0  0  0
   39.2305    4.1215   22.3640 H   0  0  0  0  0  0  0  0  0  0  0  0
   37.0718    4.2606   21.2523 H   0  0  0  0  0  0  0  0  0  0  0  0
   39.0771    2.1141   19.7890 H   0  0  0  0  0  0  0  0  0  0  0  0
   35.6244    4.1057   23.7986 H   0  0  0  0  0  0  0  0  0  0  0  0
   37.7423    4.3366   20.0215 H   0  0  0  0  0  0  0  0  0  0  0  0
   34.8518    4.2167   22.5469 H   0  0  0  0  0  0  0  0  0  0  0  0
   35.5003    2.1025   21.1130 H   0  0  0  0  0  0  0  0  0  0  0  0
   33.3240    4.2328   22.2995 H   0  0  0  0  0  0  0  0  0  0  0  0
   34.5187   19.1500   21.8290 H   0  0  0  0  0  0  0  0  0  0  0  0
   32.1890   19.0626   22.9816 H   0  0  0  0  0  0  0  0  0  0  0  0
   30.7029   18.8380   21.8917 H   0  0  0  0  0  0  0  0  0  0  0  0
   37.2613   20.3710   16.5241 H   0  0  0  0  0  0  0  0  0  0  0  0
   34.9422   18.1667   17.4334 H   0  0  0  0  0  0  0  0  0  0  0  0
   35.8009   18.2121   16.3010 H   0  0  0  0  0  0  0  0  0  0  0  0
   35.5269   18.0715   18.7187 H   0  0  0  0  0  0  0  0  0  0  0  0
   37.8214   20.2576   17.8707 H   0  0  0  0  0  0  0  0  0  0  0  0
   32.5985   18.1745   18.5158 H   0  0  0  0  0  0  0  0  0  0  0  0
   36.9219   18.0215   18.8515 H   0  0  0  0  0  0  0  0  0  0  0  0
   33.2216   18.0745   19.8493 H   0  0  0  0  0  0  0  0  0  0  0  0
   34.7335   20.2185   20.0973 H   0  0  0  0  0  0  0  0  0  0  0  0
   32.5431   18.0392   21.2283 H   0  0  0  0  0  0  0  0  0  0  0  0
  7 10  1  0
  9 10  1  0
  6 11  1  0
  9 11  1  0
  6 12  1  0
 10 12  1  0
  9 13  1  0
  8 14  1  0
 13 15  1  0
 14 16  1  0
 14 17  1  0
 16 17  1  0
  7 18  1  0
 15 18  1  0
  6 19  1  0
  8 20  1  0
  2 21  1  0
 19 21  1  0
 20 21  1  0
 20 22  1  0
  1 23  1  0
 19 23  1  0
  8 24  1  0
 22 25  1  0
 23 25  1  0
 24 26  1  0
 22 27  1  0
 26 27  1  0
 27  3  1  0
  4 28  1  0
 26 28  1  0
 28  5  1  0
  2 29  1  0
  9 30  1  6
 10 31  1  6
 11 32  1  0
 11 33  1  0
 12 34  1  0
 12 35  1  0
 13 36  1  0
 13 37  1  0
 14 38  1  1
 15 39  1  0
 15 40  1  0
  7 41  1  0
 16 42  1  0
 16 43  1  0
 17 44  1  0
 17 45  1  0
 18 46  1  0
 18 47  1  0
 24 48  1  0
 25 49  1  0
 29 50  1  0
 29 51  1  0
 29 52  1  0
 59 62  1  0
 61 62  1  0
 58 63  1  0
 61 63  1  0
 58 64  1  0
 62 64  1  0
 61 65  1  0
 60 66  1  0
 65 67  1  0
 66 68  1  0
 66 69  1  0
 68 69  1  0
 59 70  1  0
 67 70  1  0
 58 71  1  0
 60 72  1  0
 54 73  1  0
 71 73  1  0
 72 73  1  0
 72 74  1  0
 53 75  1  0
 71 75  1  0
 60 76  1  0
 74 77  1  0
 75 77  1  0
 76 78  1  0
 74 79  1  0
 78 79  1  0
 79 55  1  0
 57 80  1  0
 78 80  1  0
 80 56  1  0
 54 81  1  0
 61 82  1  6
 62 83  1  1
 63 84  1  0
 63 85  1  0
 64 86  1  0
 64 87  1  0
 65 88  1  0
 65 89  1  0
 66 90  1  6
 67 91  1  0
 67 92  1  0
 59 93  1  0
 68 94  1  0
 68 95  1  0
 69 96  1  0
 69 97  1  0
 70 98  1  0
 70 99  1  0
 76100  1  0
 77101  1  0
 81102  1  0
 81103  1  0
 81104  1  0
  3105  1  0
  4106  1  0
  5107  1  0
 19108  1  0
 20109  1  0
 21110  1  0
 22111  1  0
 23112  1  0
 24113  1  0
 25114  1  0
 26115  1  0
 27116  1  0
 28117  1  0
 55118  1  0
 56119  1  0
 57120  1  0
 71121  1  0
 72122  1  0
 73123  1  0
 74124  1  0
 75125  1  0
 76126  1  0
 77127  1  0
 78128  1  0
 79129  1  0
 80130  1  0
M  END
>  <PDBID>  (1) 
5BS8

>  <PDB ID>  (1) 
5BS8

>  <Generic Name>  (1) 
Moxifloxacin

>  <Brand Name>  (1) 
Act Moxifloxacin#Apo-moxifloxacin#Auro-moxifloxacin#Avelox#Avelox Abc Pack#Avelox I.V.#Bio-moxifloxacin#Dom-moxifloxacin#Ipg-moxifloxacin#Jamp-moxifloxacin#Jamp-moxifloxacin Tablets#Mar-moxifloxacin#Med-moxifloxacin#Moxeza#Moxifloxacin#Moxifloxacin Hydrochloride#Moxifloxacin Injection#Mylan-moxifloxacin#Mylan-moxifloxacin HCl Ophthalmic Solution#PHL-moxifloxacin#PMS-moxifloxacin#Priva-moxifloxacin#Riva-moxifloxacin#Sandoz Moxifloxacin#Teva-moxifloxacin#Torrent-moxifloxacin#Vigamox

>  <DrugBank ID>  (1) 
DB00218

>  <ATC Codes>  (1) 
J01MA14#S01AE07

>  <Ligand ID>  (1) 
MFX

>  <Target Name>  (1) 
DNA gyrase subunit A

>  <UniProt ID>  (1) 
P43700

>  <PDB ID.1>  (1) 
5BS8

>  <Seq. Identity>  (1) 
48%

$$$$
