PDB_DB00755_93
     RDKit          3D

 50 50  0  0  0  0  0  0  0  0999 V2000
    9.0650   16.0370   23.6170 C   0  0  0  0  0  0  0  0  0  0  0  0
    7.9160   16.8210   22.8650 C   0  0  0  0  0  0  0  0  0  0  0  0
    7.8730   16.7130   21.3470 C   0  0  0  0  0  0  0  0  0  0  0  0
    7.9210   15.2970   20.8360 C   0  0  0  0  0  0  0  0  0  0  0  0
    9.0400   14.4520   21.4780 C   0  0  0  0  0  0  0  0  0  0  0  0
    9.5850   14.7620   22.7430 C   0  0  0  0  0  0  0  0  0  0  0  0
   10.6740   13.9810   23.4220 C   0  0  0  0  0  0  0  0  0  0  0  0
   11.8430   13.4590   22.9610 C   0  0  0  0  0  0  0  0  0  0  0  0
   12.7880   12.7130   23.7690 C   0  0  0  0  0  0  0  0  0  0  0  0
   13.9370   12.2220   23.2310 C   0  0  0  0  0  0  0  0  0  0  0  0
   14.4380   12.3200   21.8660 C   0  0  0  0  0  0  0  0  0  0  0  0
   15.6380   11.7250   21.6580 C   0  0  0  0  0  0  0  0  0  0  0  0
   16.4010   11.6770   20.4170 C   0  0  0  0  0  0  0  0  0  0  0  0
   17.5950   11.0200   20.4780 C   0  0  0  0  0  0  0  0  0  0  0  0
   18.6770   10.7550   19.4940 C   0  0  0  0  0  0  0  0  0  0  0  0
    8.4740   15.5740   24.9700 C   0  0  0  0  0  0  0  0  0  0  0  0
   10.2500   17.0370   23.8830 C   0  0  0  0  0  0  0  0  0  0  0  0
    9.4040   13.2980   20.5280 C   0  0  0  0  0  0  0  0  0  0  0  0
   12.4790   12.4780   25.2600 C   0  0  0  0  0  0  0  0  0  0  0  0
   15.8530   12.3580   19.1520 C   0  0  0  0  0  0  0  0  0  0  0  0
   19.6520   10.1060   19.8760 O   0  0  0  0  0  0  0  0  0  0  0  0
   18.6270   11.1690   18.3190 O   0  0  0  0  0  0  0  0  0  0  0  0
    6.9553   16.4481   23.2499 H   0  0  0  0  0  0  0  0  0  0  0  0
    8.1211   17.8828   23.0662 H   0  0  0  0  0  0  0  0  0  0  0  0
    6.9412   17.1780   20.9926 H   0  0  0  0  0  0  0  0  0  0  0  0
    8.7700   17.2219   20.9644 H   0  0  0  0  0  0  0  0  0  0  0  0
    6.9549   14.8163   21.0495 H   0  0  0  0  0  0  0  0  0  0  0  0
    8.1306   15.3479   19.7574 H   0  0  0  0  0  0  0  0  0  0  0  0
   10.4925   13.7968   24.4912 H   0  0  0  0  0  0  0  0  0  0  0  0
   12.0885   13.6140   21.9000 H   0  0  0  0  0  0  0  0  0  0  0  0
   14.5831   11.6696   23.9292 H   0  0  0  0  0  0  0  0  0  0  0  0
   13.8856   12.8364   21.0671 H   0  0  0  0  0  0  0  0  0  0  0  0
   16.0878   11.2202   22.5257 H   0  0  0  0  0  0  0  0  0  0  0  0
   17.8019   10.5939   21.4708 H   0  0  0  0  0  0  0  0  0  0  0  0
    9.0478   16.0235   25.7938 H   0  0  0  0  0  0  0  0  0  0  0  0
    7.4231   15.8917   25.0390 H   0  0  0  0  0  0  0  0  0  0  0  0
    8.5309   14.4776   25.0390 H   0  0  0  0  0  0  0  0  0  0  0  0
   10.3922   17.1570   24.9672 H   0  0  0  0  0  0  0  0  0  0  0  0
   11.1724   16.6402   23.4339 H   0  0  0  0  0  0  0  0  0  0  0  0
   10.0140   18.0130   23.4339 H   0  0  0  0  0  0  0  0  0  0  0  0
    9.6834   12.4122   21.1173 H   0  0  0  0  0  0  0  0  0  0  0  0
    8.5379   13.0582   19.8937 H   0  0  0  0  0  0  0  0  0  0  0  0
   10.2510   13.5985   19.8937 H   0  0  0  0  0  0  0  0  0  0  0  0
   13.2043   13.0296   25.8761 H   0  0  0  0  0  0  0  0  0  0  0  0
   11.4623   12.8332   25.4842 H   0  0  0  0  0  0  0  0  0  0  0  0
   12.5497   11.4034   25.4842 H   0  0  0  0  0  0  0  0  0  0  0  0
   15.1874   13.1851   19.4399 H   0  0  0  0  0  0  0  0  0  0  0  0
   16.6895   12.7511   18.5556 H   0  0  0  0  0  0  0  0  0  0  0  0
   15.2900   11.6250   18.5556 H   0  0  0  0  0  0  0  0  0  0  0  0
   19.3680   10.9718   17.6928 H   0  0  0  0  0  0  0  0  0  0  0  0
  1  2  1  0
  2  3  1  0
  3  4  1  0
  4  5  1  0
  1  6  1  0
  5  6  2  0
  6  7  1  0
  7  8  2  0
  8  9  1  0
  9 10  2  0
 10 11  1  0
 11 12  2  0
 12 13  1  0
 13 14  2  0
 14 15  1  0
  1 16  1  0
  1 17  1  0
  5 18  1  0
  9 19  1  0
 13 20  1  0
 15 21  2  0
 15 22  1  0
  2 23  1  0
  2 24  1  0
  3 25  1  0
  3 26  1  0
  4 27  1  0
  4 28  1  0
  7 29  1  0
  8 30  1  0
 10 31  1  0
 11 32  1  0
 12 33  1  0
 14 34  1  0
 16 35  1  0
 16 36  1  0
 16 37  1  0
 17 38  1  0
 17 39  1  0
 17 40  1  0
 18 41  1  0
 18 42  1  0
 18 43  1  0
 19 44  1  0
 19 45  1  0
 19 46  1  0
 20 47  1  0
 20 48  1  0
 20 49  1  0
 22 50  1  0
M  END
$$$$
