PDB_DB00884_97
     RDKit          3D

 38 38  0  0  0  0  0  0  0  0999 V2000
   17.1130   35.6480   -7.1730 O   0  0  0  0  0  0  0  0  0  0  0  0
   15.6220   35.7510   -7.5440 P   0  0  0  0  0  5  0  0  0  0  0  0
   15.2410   36.8680   -8.4700 O   0  0  0  0  0  0  0  0  0  0  0  0
   14.6530   35.7080   -6.4380 O   0  0  0  0  0  0  0  0  0  0  0  0
   15.2300   34.2510   -8.5000 C   0  0  1  0  0  0  0  0  0  0  0  0
   13.9550   34.4130   -9.0880 O   0  0  0  0  0  0  0  0  0  0  0  0
   16.4390   34.0860   -9.8350 P   0  0  0  0  0  5  0  0  0  0  0  0
   16.5730   35.4550  -10.3770 O   0  0  0  0  0  0  0  0  0  0  0  0
   17.6320   33.7370   -9.0970 O   0  0  0  0  0  0  0  0  0  0  0  0
   16.2430   33.1400  -11.0180 O   0  0  0  0  0  0  0  0  0  0  0  0
   15.1780   33.1050   -7.4750 C   0  0  0  0  0  0  0  0  0  0  0  0
   15.0330   31.7070   -8.0640 C   0  0  1  0  0  0  0  0  0  0  0  0
   15.6350   30.6600   -7.3810 C   0  0  0  0  0  0  0  0  0  0  0  0
   15.5210   29.3720   -7.8830 C   0  0  0  0  0  0  0  0  0  0  0  0
   14.7750   29.1440   -8.9990 C   0  0  0  0  0  0  0  0  0  0  0  0
   14.1900   30.1470   -9.6420 N   0  0  0  0  0  0  0  0  0  0  0  0
   14.2860   31.4040   -9.1910 C   0  0  0  0  0  0  0  0  0  0  0  0
   17.2082   35.6414   -6.1876 H   0  0  0  0  0  0  0  0  0  0  0  0
    0.0000    0.0000    0.0000 H   0  0  0  0  0  0  0  0  0  0  0  0
   14.9712   37.6590   -7.9394 H   0  0  0  0  0  0  0  0  0  0  0  0
   15.1367   35.7295   -5.5745 H   0  0  0  0  0  0  0  0  0  0  0  0
   13.2721   34.4998   -8.3765 H   0  0  0  0  0  0  0  0  0  0  0  0
    0.0000    0.0000    0.0000 H   0  0  0  0  0  0  0  0  0  0  0  0
   16.6362   36.1011   -9.6296 H   0  0  0  0  0  0  0  0  0  0  0  0
   17.4470   33.7911   -8.1259 H   0  0  0  0  0  0  0  0  0  0  0  0
   16.0540   32.2277  -10.6832 H   0  0  0  0  0  0  0  0  0  0  0  0
   16.1085   33.1315   -6.8889 H   0  0  0  0  0  0  0  0  0  0  0  0
   14.2723   33.2763   -6.8747 H   0  0  0  0  0  0  0  0  0  0  0  0
   15.9541   31.8568   -8.6463 H   0  0  0  0  0  0  0  0  0  0  0  0
   16.7094   30.8889   -7.3235 H   0  0  0  0  0  0  0  0  0  0  0  0
   15.0875   30.6194   -6.4278 H   0  0  0  0  0  0  0  0  0  0  0  0
   16.5410   29.0255   -8.1055 H   0  0  0  0  0  0  0  0  0  0  0  0
   14.9695   28.8390   -7.0945 H   0  0  0  0  0  0  0  0  0  0  0  0
   15.4386   28.6508   -9.7245 H   0  0  0  0  0  0  0  0  0  0  0  0
   13.9200   28.5726   -8.6085 H   0  0  0  0  0  0  0  0  0  0  0  0
   14.5765   30.1480  -10.5967 H   0  0  0  0  0  0  0  0  0  0  0  0
   13.2593   31.7404   -8.9843 H   0  0  0  0  0  0  0  0  0  0  0  0
   14.8485   31.9042   -9.9931 H   0  0  0  0  0  0  0  0  0  0  0  0
  2  1  1  0
  2  3  1  0
  2  4  1  0
  2  5  1  0
  5  6  1  6
  5  7  1  0
  7  8  1  0
  7  9  1  0
  7 10  1  0
  5 11  1  0
 11 12  1  0
 12 13  1  0
 13 14  1  0
 14 15  1  0
 15 16  1  0
 12 17  1  0
 16 17  1  0
  1 18  1  0
  2 19  1  0
  3 20  1  0
  4 21  1  0
  6 22  1  0
  7 23  1  0
  8 24  1  0
  9 25  1  0
 10 26  1  0
 11 27  1  0
 11 28  1  0
 12 29  1  6
 13 30  1  0
 13 31  1  0
 14 32  1  0
 14 33  1  0
 15 34  1  0
 15 35  1  0
 16 36  1  0
 17 37  1  0
 17 38  1  0
M  END
>  <PDBID>  (1) 
1YQ7

>  <PDB ID>  (1) 
1YQ7

>  <Generic Name>  (1) 
Risedronate

>  <Brand Name>  (1) 
Actonel#Actonel Dr#Actonel Plus Calcium#Actonel Sachet Kit#Apo-risedronate#Atelvia#Auro-risedronate#Dom-risedronate#Jamp-risedronate#Mylan-risedronate#Ntp-risedronate#PHL-risedronate#PMS-risedronate#PMS-risedronate Plus Calcium#Pendo-risedronate#Q-risedronate#Ratio-risedronate#Risedronate#Risedronate Sodium#Risedronate-35#Riva-risedronate#Sandoz Risedronate#Teva-risedronate#Benet

>  <DrugBank ID>  (1) 
DB00884

>  <ATC Codes>  (1) 
M05BB02#M05BA07#M05BB04#M05BB07

>  <Ligand ID>  (1) 
RIS

>  <Target Name>  (1) 
Farnesyl pyrophosphate synthase

>  <UniProt ID>  (1) 
P14324

>  <PDB ID.1>  (1) 
1YQ7

>  <Seq. Identity>  (1) 
100%

$$$$
