PDB_DB04552_99
     RDKit          3D

 29 30  0  0  0  0  0  0  0  0999 V2000
    9.6370   10.8690    6.7250 F   0  0  0  0  0  0  0  0  0  0  0  0
   10.9360   11.0920    6.9260 C   0  0  0  0  0  0  0  0  0  0  0  0
   11.5690    9.9370    6.7290 F   0  0  0  0  0  0  0  0  0  0  0  0
   11.2370   11.4250    8.1800 F   0  0  0  0  0  0  0  0  0  0  0  0
   11.5150   11.9890    5.8520 C   0  0  0  0  0  0  0  0  0  0  0  0
   10.7960   12.5070    4.7430 C   0  0  0  0  0  0  0  0  0  0  0  0
   11.4490   13.2950    3.7630 C   0  0  0  0  0  0  0  0  0  0  0  0
   12.8150   13.5120    3.9320 C   0  0  0  0  0  0  0  0  0  0  0  0
   13.5200   12.9860    5.0110 C   0  0  0  0  0  0  0  0  0  0  0  0
   12.8760   12.2240    5.9670 C   0  0  0  0  0  0  0  0  0  0  0  0
   10.9080   13.8960    2.6330 N   0  0  0  0  0  0  0  0  0  0  0  0
    9.6240   13.9240    2.1130 C   0  0  0  0  0  0  0  0  0  0  0  0
    8.6180   13.2880    2.7560 N   0  0  0  0  0  0  0  0  0  0  0  0
    9.2600   14.6540    0.8300 C   0  0  0  0  0  0  0  0  0  0  0  0
   10.2270   15.4370   -0.0590 C   0  0  0  0  0  0  0  0  0  0  0  0
   11.4180   15.5370    0.2140 O   0  0  0  0  0  0  0  0  0  0  0  0
    9.8340   15.9900   -1.0890 O   0  0  0  0  0  0  0  0  0  0  0  0
    7.9280   14.6030    0.4020 C   0  0  0  0  0  0  0  0  0  0  0  0
    6.9800   13.9110    1.1450 C   0  0  0  0  0  0  0  0  0  0  0  0
    7.3530   13.2680    2.3120 C   0  0  0  0  0  0  0  0  0  0  0  0
    9.7213   12.2946    4.6435 H   0  0  0  0  0  0  0  0  0  0  0  0
   13.3536   14.1184    3.1889 H   0  0  0  0  0  0  0  0  0  0  0  0
   14.5991   13.1786    5.1033 H   0  0  0  0  0  0  0  0  0  0  0  0
   13.4401   11.8065    6.8141 H   0  0  0  0  0  0  0  0  0  0  0  0
   11.5942   14.4225    2.0737 H   0  0  0  0  0  0  0  0  0  0  0  0
   12.0207   16.0505   -0.3804 H   0  0  0  0  0  0  0  0  0  0  0  0
    7.6310   15.1129   -0.5263 H   0  0  0  0  0  0  0  0  0  0  0  0
    5.9342   13.8743    0.8061 H   0  0  0  0  0  0  0  0  0  0  0  0
    6.5911   12.7257    2.8912 H   0  0  0  0  0  0  0  0  0  0  0  0
  1  2  1  0
  2  3  1  0
  2  4  1  0
  2  5  1  0
  5  6  2  0
  6  7  1  0
  7  8  2  0
  8  9  1  0
  5 10  1  0
  9 10  2  0
  7 11  1  0
 11 12  1  0
 12 13  2  0
 12 14  1  0
 14 15  1  0
 15 16  1  0
 15 17  2  0
 14 18  2  0
 18 19  1  0
 13 20  1  0
 19 20  2  0
  6 21  1  0
  8 22  1  0
  9 23  1  0
 10 24  1  0
 11 25  1  0
 16 26  1  0
 18 27  1  0
 19 28  1  0
 20 29  1  0
M  END
>  <PDBID>  (1) 
1TD7

>  <PDB ID>  (1) 
1TD7

>  <Generic Name>  (1) 
Niflumic Acid

>  <Brand Name>  (1) 
Niflam#Niflugel#Nifluril

>  <DrugBank ID>  (1) 
DB04552

>  <ATC Codes>  (1) 
M02AA17#M01AX02

>  <Ligand ID>  (1) 
NFL

>  <Target Name>  (1) 
Phospholipase A2

>  <UniProt ID>  (1) 
P04054

>  <PDB ID.1>  (1) 
1TD7

>  <Seq. Identity>  (1) 
43%

$$$$
