PDB_DB00563_97
     RDKit          3D

 55 57  0  0  0  0  0  0  0  0999 V2000
   28.7910   13.1620   -4.3390 N   0  0  0  0  0  0  0  0  0  0  0  0
   27.4620   13.0450   -4.5730 C   0  0  0  0  0  0  0  0  0  0  0  0
   27.0740   12.9410   -5.8030 N   0  0  0  0  0  0  0  0  0  0  0  0
   26.6310   12.8170   -3.5700 N   0  0  0  0  0  0  0  0  0  0  0  0
   27.0330   12.9180   -2.3150 C   0  0  0  0  0  0  0  0  0  0  0  0
   26.1020   12.7940   -1.3680 N   0  0  0  0  0  0  0  0  0  0  0  0
   28.3900   13.1800   -1.9720 C   0  0  0  0  0  0  0  0  0  0  0  0
   28.8500   13.2490   -0.7170 N   0  0  0  0  0  0  0  0  0  0  0  0
   30.1500   13.3100   -0.5390 C   0  0  0  0  0  0  0  0  0  0  0  0
   31.0420   13.4540   -1.6180 C   0  0  0  0  0  0  0  0  0  0  0  0
   30.5830   13.3230   -2.8720 N   0  0  0  0  0  0  0  0  0  0  0  0
   29.2990   13.2070   -3.0570 C   0  0  0  0  0  0  0  0  0  0  0  0
   30.6000   13.4220    0.9150 C   0  0  0  0  0  0  0  0  0  0  0  0
   31.8210   14.1180    1.2190 N   0  0  0  0  0  0  0  0  0  0  0  0
   32.6640   13.5830    2.2650 C   0  0  0  0  0  0  0  0  0  0  0  0
   32.1470   18.1710    0.2630 C   0  0  0  0  0  0  0  0  0  0  0  0
   33.3050   17.4490    0.6560 C   0  0  0  0  0  0  0  0  0  0  0  0
   33.1370   16.1230    1.0380 C   0  0  0  0  0  0  0  0  0  0  0  0
   31.8970   15.4750    0.9710 C   0  0  0  0  0  0  0  0  0  0  0  0
   30.7820   16.1830    0.5000 C   0  0  0  0  0  0  0  0  0  0  0  0
   30.9030   17.5400    0.1760 C   0  0  0  0  0  0  0  0  0  0  0  0
   32.2810   19.5740   -0.1440 C   0  0  0  0  0  0  0  0  0  0  0  0
   33.3050   20.1730    0.1990 O   0  0  0  0  0  0  0  0  0  0  0  0
   31.4290   20.1380   -1.0010 N   0  0  0  0  0  0  0  0  0  0  0  0
   31.3720   21.4730   -1.6090 C   0  0  2  0  0  0  0  0  0  0  0  0
   29.9790   22.0920   -1.6800 C   0  0  0  0  0  0  0  0  0  0  0  0
   29.8190   23.3160   -1.5280 O   0  0  0  0  0  0  0  0  0  0  0  0
   29.1710   21.2250   -2.0320 O   0  0  0  0  0  0  0  0  0  0  0  0
   31.7650   21.4710   -3.0690 C   0  0  0  0  0  0  0  0  0  0  0  0
   32.9250   22.3830   -3.3220 C   0  0  0  0  0  0  0  0  0  0  0  0
   33.7310   21.7300   -4.3510 C   0  0  0  0  0  0  0  0  0  0  0  0
   34.6410   20.7890   -4.2250 O   0  0  0  0  0  0  0  0  0  0  0  0
   33.4780   22.0370   -5.6080 O   0  0  0  0  0  0  0  0  0  0  0  0
   26.0714   12.8503   -6.0208 H   0  0  0  0  0  0  0  0  0  0  0  0
   27.7677   12.9490   -6.5643 H   0  0  0  0  0  0  0  0  0  0  0  0
   26.3651   12.8650   -0.3747 H   0  0  0  0  0  0  0  0  0  0  0  0
   25.1199   12.6272   -1.6300 H   0  0  0  0  0  0  0  0  0  0  0  0
   32.1046   13.6717   -1.4352 H   0  0  0  0  0  0  0  0  0  0  0  0
   29.7940   13.9324    1.4626 H   0  0  0  0  0  0  0  0  0  0  0  0
   30.8121   12.3822    1.2044 H   0  0  0  0  0  0  0  0  0  0  0  0
   32.2444   13.8493    3.2463 H   0  0  0  0  0  0  0  0  0  0  0  0
   32.7132   12.4880    2.1722 H   0  0  0  0  0  0  0  0  0  0  0  0
   33.6757   14.0047    2.1722 H   0  0  0  0  0  0  0  0  0  0  0  0
   34.2983   17.9216    0.6581 H   0  0  0  0  0  0  0  0  0  0  0  0
   34.0090   15.5626    1.4061 H   0  0  0  0  0  0  0  0  0  0  0  0
   29.8140   15.6733    0.3852 H   0  0  0  0  0  0  0  0  0  0  0  0
   30.0189   18.1093   -0.1470 H   0  0  0  0  0  0  0  0  0  0  0  0
   30.6617   19.5160   -1.2931 H   0  0  0  0  0  0  0  0  0  0  0  0
   32.0510   22.0314   -0.9478 H   0  0  0  0  0  0  0  0  0  0  0  0
   28.9104   23.7062   -1.5762 H   0  0  0  0  0  0  0  0  0  0  0  0
   32.0425   20.4482   -3.3639 H   0  0  0  0  0  0  0  0  0  0  0  0
   30.9081   21.8276   -3.6594 H   0  0  0  0  0  0  0  0  0  0  0  0
   32.5714   23.3622   -3.6771 H   0  0  0  0  0  0  0  0  0  0  0  0
   33.5068   22.5602   -2.4054 H   0  0  0  0  0  0  0  0  0  0  0  0
   35.1087   20.4423   -5.0257 H   0  0  0  0  0  0  0  0  0  0  0  0
  1  2  2  0
  2  3  1  0
  2  4  1  0
  4  5  2  0
  5  6  1  0
  5  7  1  0
  7  8  1  0
  8  9  2  0
  9 10  1  0
 10 11  2  0
  1 12  1  0
  7 12  2  0
 11 12  1  0
  9 13  1  0
 13 14  1  0
 14 15  1  0
 16 17  2  0
 17 18  1  0
 14 19  1  0
 18 19  2  0
 19 20  1  0
 16 21  1  0
 20 21  2  0
 16 22  1  0
 22 23  2  0
 22 24  1  0
 24 25  1  0
 25 26  1  0
 26 27  1  0
 26 28  2  0
 25 29  1  0
 29 30  1  0
 30 31  1  0
 31 32  1  0
 31 33  2  0
  3 34  1  0
  3 35  1  0
  6 36  1  0
  6 37  1  0
 10 38  1  0
 13 39  1  0
 13 40  1  0
 15 41  1  0
 15 42  1  0
 15 43  1  0
 17 44  1  0
 18 45  1  0
 20 46  1  0
 21 47  1  0
 24 48  1  0
 25 49  1  1
 27 50  1  0
 29 51  1  0
 29 52  1  0
 30 53  1  0
 30 54  1  0
 32 55  1  0
M  END
>  <PDBID>  (1) 
1DLS

>  <PDB ID>  (1) 
1DLS

>  <Generic Name>  (1) 
Methotrexate

>  <Brand Name>  (1) 
Apo-methotrexate#Jamp-methotrexate#Methotrexate#Methotrexate Dbl Inj 10mg/ml#Methotrexate Dbl Inj 2.5mg/ml#Methotrexate Dbl Inj 25mg/ml#Methotrexate Injection BP#Methotrexate Injection USP#Methotrexate Injection, BP#Methotrexate Injection, USP#Methotrexate PF/sa Injection#Methotrexate Sod Inj 25mg/ml USP#Methotrexate Sodium#Methotrexate Sodium Inj 20mg#Methotrexate Sodium Inj 25.0mg/ml#Methotrexate Sodium Inj 25mg/ml#Methotrexate Sodium Inj 25mg/ml USP#Methotrexate Sodium Injection#Methotrexate Sodium Injection USP#Methotrexate Tab 2.5mg#Methotrexate Tab 2.5mg USP#Methotrexate Tablets, USP#Methotrexate-liq Im IV Iar Int Ivr 25mg/ml#Methotrexate-pws Im IV Iar Int Ivr 20mg/vial#Metoject#Metoject Subcutaneous#Otrexup#Rasuvo#Ratio-methotrexate Sodium#Rheumatrex Dose Pack#Rheumatrex Tab 2.5mg#Rheumatrex-tab 2.5mg#Trexall#Abitrexate#Alltrex#Artrait#Atrexel#Bendatrexat#Carditrex#Dermotrex#Ebetrex#Emtexate#Ledertrexate#Maxtrex#Meisusheng#Mexate#Rheumatrex#Trexan#Zexate

>  <DrugBank ID>  (1) 
DB00563

>  <ATC Codes>  (1) 
L01BA01#L04AX03

>  <Ligand ID>  (1) 
MTX

>  <Target Name>  (1) 
Dihydrofolate reductase

>  <UniProt ID>  (1) 
P00374

>  <PDB ID.1>  (1) 
1DLS

>  <Seq. Identity>  (1) 
99%

$$$$
