PDB_DB00864_99
     RDKit          3D

140143  0  0  0  0  0  0  0  0999 V2000
   19.9640   28.6220   21.7930 C   0  0  0  0  0  0  0  0  0  0  0  0
   18.5910   29.2420   21.9360 C   0  0  2  0  0  0  0  0  0  0  0  0
   17.9380   29.3520   20.5600 C   0  0  0  0  0  0  0  0  0  0  0  0
   18.5160   30.5100   19.7600 C   0  0  0  0  0  0  0  0  0  0  0  0
   18.2610   31.8130   20.4910 C   0  0  0  0  0  0  0  0  0  0  0  0
   18.9790   31.7220   21.8230 C   0  0  0  0  0  0  0  0  0  0  0  0
   17.8950   30.6410   23.7950 C   0  0  0  0  0  0  0  0  0  0  0  0
   17.7270   31.9530   24.5080 C   0  0  0  0  0  0  0  0  0  0  0  0
   18.8060   32.4190   25.5090 C   0  0  1  0  0  0  0  0  0  0  0  0
   19.4320   31.2870   26.3300 C   0  0  1  0  0  0  0  0  0  0  0  0
   20.7730   31.7490   26.9050 C   0  0  0  0  0  0  0  0  0  0  0  0
   21.7070   32.4720   25.8960 C   0  0  1  0  0  0  0  0  0  0  0  0
   20.8790   33.6410   25.2510 C   0  0  1  0  0  0  0  0  0  0  0  0
   21.5660   34.5170   24.1940 C   0  0  2  0  0  0  0  0  0  0  0  0
   22.4060   33.6820   23.2140 C   0  0  0  0  0  0  0  0  0  0  0  0
   22.9260   34.3970   21.9400 C   0  0  2  0  0  0  0  0  0  0  0  0
   24.3210   34.9710   22.2430 C   0  0  0  0  0  0  0  0  0  0  0  0
   25.4080   33.9470   22.0600 C   0  0  0  0  0  0  0  0  0  0  0  0
   25.8990   33.3360   23.1300 C   0  0  0  0  0  0  0  0  0  0  0  0
   26.9510   32.2370   23.1200 C   0  0  2  0  0  0  0  0  0  0  0  0
   26.2180   30.9100   23.2540 C   0  0  0  0  0  0  0  0  0  0  0  0
   25.8400   30.2250   21.9470 C   0  0  0  0  0  0  0  0  0  0  0  0
   24.7690   29.1740   22.0980 C   0  0  1  0  0  0  0  0  0  0  0  0
   23.3240   29.8180   22.1860 C   0  0  2  0  0  0  0  0  0  0  0  0
   22.2610   28.6870   22.3830 C   0  0  1  0  0  0  0  0  0  0  0  0
   22.5700   27.8480   23.6200 C   0  0  0  0  0  0  0  0  0  0  0  0
   22.8810   26.5760   23.4040 C   0  0  0  0  0  0  0  0  0  0  0  0
   23.3210   25.6110   24.4740 C   0  0  1  0  0  0  0  0  0  0  0  0
   22.4380   24.3560   24.4770 C   0  0  0  0  0  0  0  0  0  0  0  0
   22.9750   23.1330   25.2060 C   0  0  2  0  0  0  0  0  0  0  0  0
   24.4100   22.9100   24.7880 C   0  0  1  0  0  0  0  0  0  0  0  0
   25.2350   24.1580   25.0320 C   0  0  0  0  0  0  0  0  0  0  0  0
   24.7350   25.2290   24.0860 C   0  0  0  0  0  0  0  0  0  0  0  0
   18.5230   30.8230   27.4590 C   0  0  0  0  0  0  0  0  0  0  0  0
   21.9960   35.5410   21.5020 C   0  0  0  0  0  0  0  0  0  0  0  0
   25.8170   33.7330   20.5880 C   0  0  0  0  0  0  0  0  0  0  0  0
   27.9510   32.4400   24.3030 C   0  0  0  0  0  0  0  0  0  0  0  0
   29.0060   31.3510   24.5630 C   0  0  0  0  0  0  0  0  0  0  0  0
   29.7520   30.7690   23.6420 C   0  0  0  0  0  0  0  0  0  0  0  0
   22.9720   30.6050   20.8880 C   0  0  0  0  0  0  0  0  0  0  0  0
   22.4990   28.5170   25.0010 C   0  0  0  0  0  0  0  0  0  0  0  0
   24.0480   32.0940   26.5080 C   0  0  0  0  0  0  0  0  0  0  0  0
   21.6490   36.6540   25.3160 C   0  0  0  0  0  0  0  0  0  0  0  0
   21.1770   21.6790   25.9230 C   0  0  0  0  0  0  0  0  0  0  0  0
   18.4770   30.5550   22.5810 N   0  0  0  0  0  0  0  0  0  0  0  0
   20.9240   29.2730   22.4600 O   0  0  0  0  0  0  0  0  0  0  0  0
   20.1220   27.6470   21.0710 O   0  0  0  0  0  0  0  0  0  0  0  0
   17.4580   29.6280   24.3760 O   0  0  0  0  0  0  0  0  0  0  0  0
   16.7190   32.6250   24.2810 O   0  0  0  0  0  0  0  0  0  0  0  0
   19.7730   33.0000   24.6040 O   0  0  0  0  0  0  0  0  0  0  0  0
   18.3300   33.4250   26.3710 O   0  0  0  0  0  0  0  0  0  0  0  0
   22.9130   32.9900   26.5240 O   0  0  0  0  0  0  0  0  0  0  0  0
   22.3750   35.4860   24.8800 O   0  0  0  0  0  0  0  0  0  0  0  0
   25.9310   30.4410   24.3640 O   0  0  0  0  0  0  0  0  0  0  0  0
   24.8450   28.2870   20.9730 O   0  0  0  0  0  0  0  0  0  0  0  0
   22.2310   21.9230   24.9790 O   0  0  0  0  0  0  0  0  0  0  0  0
   24.8980   21.8360   25.5700 O   0  0  0  0  0  0  0  0  0  0  0  0
   20.1544   29.2476   20.9085 H   0  0  0  0  0  0  0  0  0  0  0  0
   18.0907   28.5486   22.6280 H   0  0  0  0  0  0  0  0  0  0  0  0
   18.1079   28.4159   20.0078 H   0  0  0  0  0  0  0  0  0  0  0  0
   16.8623   29.5331   20.7017 H   0  0  0  0  0  0  0  0  0  0  0  0
   19.5996   30.3652   19.6378 H   0  0  0  0  0  0  0  0  0  0  0  0
   18.0345   30.5463   18.7716 H   0  0  0  0  0  0  0  0  0  0  0  0
   18.6550   32.6574   19.9064 H   0  0  0  0  0  0  0  0  0  0  0  0
   17.1831   31.9769   20.6366 H   0  0  0  0  0  0  0  0  0  0  0  0
   20.0592   31.6080   21.6491 H   0  0  0  0  0  0  0  0  0  0  0  0
   18.7928   32.6393   22.4008 H   0  0  0  0  0  0  0  0  0  0  0  0
   16.9144   30.7761   23.3153 H   0  0  0  0  0  0  0  0  0  0  0  0
   17.1923   31.4420   25.3222 H   0  0  0  0  0  0  0  0  0  0  0  0
   19.5826   30.4322   25.6543 H   0  0  0  0  0  0  0  0  0  0  0  0
   20.5679   32.4404   27.7356 H   0  0  0  0  0  0  0  0  0  0  0  0
   21.3041   30.8373   27.2159 H   0  0  0  0  0  0  0  0  0  0  0  0
   22.0463   31.7527   25.1361 H   0  0  0  0  0  0  0  0  0  0  0  0
   20.6514   34.3385   26.0706 H   0  0  0  0  0  0  0  0  0  0  0  0
   20.8029   35.0234   23.5847 H   0  0  0  0  0  0  0  0  0  0  0  0
   23.2818   33.3076   23.7643 H   0  0  0  0  0  0  0  0  0  0  0  0
   21.7211   32.9049   22.8438 H   0  0  0  0  0  0  0  0  0  0  0  0
   22.9632   33.6644   21.1203 H   0  0  0  0  0  0  0  0  0  0  0  0
   24.5118   35.8155   21.5645 H   0  0  0  0  0  0  0  0  0  0  0  0
   24.3331   35.2925   23.2949 H   0  0  0  0  0  0  0  0  0  0  0  0
   26.1681   34.7357   22.1616 H   0  0  0  0  0  0  0  0  0  0  0  0
   26.3232   34.1377   23.7524 H   0  0  0  0  0  0  0  0  0  0  0  0
   25.0180   32.7540   23.4384 H   0  0  0  0  0  0  0  0  0  0  0  0
   27.5344   32.2585   22.1877 H   0  0  0  0  0  0  0  0  0  0  0  0
   25.2551   31.4418   23.2537 H   0  0  0  0  0  0  0  0  0  0  0  0
   25.4775   30.9913   21.2461 H   0  0  0  0  0  0  0  0  0  0  0  0
   26.7421   29.7128   21.5813 H   0  0  0  0  0  0  0  0  0  0  0  0
   24.9375   28.6249   23.0361 H   0  0  0  0  0  0  0  0  0  0  0  0
   23.3165   30.5147   23.0372 H   0  0  0  0  0  0  0  0  0  0  0  0
   22.2995   28.0116   21.5156 H   0  0  0  0  0  0  0  0  0  0  0  0
   21.5075   27.5746   23.7000 H   0  0  0  0  0  0  0  0  0  0  0  0
   21.9859   26.1259   22.9499 H   0  0  0  0  0  0  0  0  0  0  0  0
   23.8157   26.6889   22.8351 H   0  0  0  0  0  0  0  0  0  0  0  0
   23.2527   26.0576   25.4769 H   0  0  0  0  0  0  0  0  0  0  0  0
   21.4796   24.6262   24.9443 H   0  0  0  0  0  0  0  0  0  0  0  0
   22.3713   24.0522   23.4219 H   0  0  0  0  0  0  0  0  0  0  0  0
   22.8815   23.3506   26.2802 H   0  0  0  0  0  0  0  0  0  0  0  0
   24.4756   22.6800   23.7143 H   0  0  0  0  0  0  0  0  0  0  0  0
   25.1131   24.4906   26.0734 H   0  0  0  0  0  0  0  0  0  0  0  0
   26.3022   23.9560   24.8578 H   0  0  0  0  0  0  0  0  0  0  0  0
   24.7431   24.8437   23.0557 H   0  0  0  0  0  0  0  0  0  0  0  0
   25.3879   26.1122   24.1470 H   0  0  0  0  0  0  0  0  0  0  0  0
   18.9892   31.0610   28.4265 H   0  0  0  0  0  0  0  0  0  0  0  0
   17.5530   31.3363   27.3833 H   0  0  0  0  0  0  0  0  0  0  0  0
   18.3697   29.7364   27.3833 H   0  0  0  0  0  0  0  0  0  0  0  0
   21.5880   36.0429   22.3917 H   0  0  0  0  0  0  0  0  0  0  0  0
   22.5643   36.2657   20.9005 H   0  0  0  0  0  0  0  0  0  0  0  0
   21.1705   35.1326   20.9005 H   0  0  0  0  0  0  0  0  0  0  0  0
   26.7910   33.2234   20.5485 H   0  0  0  0  0  0  0  0  0  0  0  0
   25.0594   33.1157   20.0830 H   0  0  0  0  0  0  0  0  0  0  0  0
   25.8922   34.7073   20.0830 H   0  0  0  0  0  0  0  0  0  0  0  0
   28.4922   33.3789   24.1141 H   0  0  0  0  0  0  0  0  0  0  0  0
   27.3157   32.4215   25.2008 H   0  0  0  0  0  0  0  0  0  0  0  0
   29.7173   31.7991   25.2724 H   0  0  0  0  0  0  0  0  0  0  0  0
   28.3513   30.5112   24.8389 H   0  0  0  0  0  0  0  0  0  0  0  0
   30.5295   30.1624   24.1294 H   0  0  0  0  0  0  0  0  0  0  0  0
   29.1215   30.1217   23.0147 H   0  0  0  0  0  0  0  0  0  0  0  0
   30.2264   31.5380   23.0147 H   0  0  0  0  0  0  0  0  0  0  0  0
   22.5365   31.5788   21.1564 H   0  0  0  0  0  0  0  0  0  0  0  0
   23.8854   30.7626   20.2957 H   0  0  0  0  0  0  0  0  0  0  0  0
   22.2457   30.0292   20.2957 H   0  0  0  0  0  0  0  0  0  0  0  0
   22.5804   27.7495   25.7848 H   0  0  0  0  0  0  0  0  0  0  0  0
   23.3260   29.2350   25.1035 H   0  0  0  0  0  0  0  0  0  0  0  0
   21.5397   29.0455   25.1035 H   0  0  0  0  0  0  0  0  0  0  0  0
   24.3448   31.8597   27.5410 H   0  0  0  0  0  0  0  0  0  0  0  0
   23.7748   31.1654   25.9854 H   0  0  0  0  0  0  0  0  0  0  0  0
   24.8878   32.5753   25.9854 H   0  0  0  0  0  0  0  0  0  0  0  0
   21.6299   36.6847   26.4154 H   0  0  0  0  0  0  0  0  0  0  0  0
   22.1446   37.5581   24.9325 H   0  0  0  0  0  0  0  0  0  0  0  0
   20.6190   36.6098   24.9325 H   0  0  0  0  0  0  0  0  0  0  0  0
   21.5721   21.7705   26.9455 H   0  0  0  0  0  0  0  0  0  0  0  0
   20.3731   22.4148   25.7734 H   0  0  0  0  0  0  0  0  0  0  0  0
   20.7783   20.6648   25.7734 H   0  0  0  0  0  0  0  0  0  0  0  0
   20.2527   26.8403   21.6298 H   0  0  0  0  0  0  0  0  0  0  0  0
   17.5146   29.7592   25.3556 H   0  0  0  0  0  0  0  0  0  0  0  0
   16.3061   32.9003   25.1376 H   0  0  0  0  0  0  0  0  0  0  0  0
   18.4629   33.1442   27.3110 H   0  0  0  0  0  0  0  0  0  0  0  0
   26.2911   31.0295   25.0740 H   0  0  0  0  0  0  0  0  0  0  0  0
   24.9250   27.3537   21.2934 H   0  0  0  0  0  0  0  0  0  0  0  0
   24.7984   22.0551   26.5303 H   0  0  0  0  0  0  0  0  0  0  0  0
  1  2  1  0
  2  3  1  0
  3  4  1  0
  4  5  1  0
  5  6  1  0
  7  8  1  0
  8  9  1  0
  9 10  1  0
 10 11  1  0
 11 12  1  0
 12 13  1  0
 13 14  1  0
 14 15  1  0
 15 16  1  0
 16 17  1  0
 17 18  1  0
 18 19  1  0
 19 20  1  0
 20 21  1  0
 21 22  1  0
 22 23  1  0
 23 24  1  0
 24 25  1  0
 25 26  1  0
 26 27  1  0
 27 28  1  0
 28 29  1  0
 29 30  1  0
 30 31  1  0
 31 32  1  0
 28 33  1  0
 32 33  1  0
 10 34  1  0
 16 35  1  0
 18 36  1  0
 20 37  1  0
 37 38  1  0
 38 39  1  0
 24 40  1  0
 26 41  1  0
  2 45  1  0
  6 45  1  0
  7 45  1  0
  1 46  1  0
 25 46  1  0
  1 47  1  0
  7 48  1  0
  8 49  1  0
  9 50  1  0
 13 50  1  0
  9 51  1  1
 12 52  1  0
 42 52  1  0
 14 53  1  0
 43 53  1  0
 21 54  1  0
 23 55  1  0
 30 56  1  0
 44 56  1  0
 31 57  1  0
  1 58  1  0
  2 59  1  1
  3 60  1  0
  3 61  1  0
  4 62  1  0
  4 63  1  0
  5 64  1  0
  5 65  1  0
  6 66  1  0
  6 67  1  0
  7 68  1  0
  8 69  1  0
 10 70  1  6
 11 71  1  0
 11 72  1  0
 12 73  1  6
 13 74  1  1
 14 75  1  6
 15 76  1  0
 15 77  1  0
 16 78  1  6
 17 79  1  0
 17 80  1  0
 18 81  1  0
 19 82  1  0
 19 83  1  0
 20 84  1  6
 21 85  1  0
 22 86  1  0
 22 87  1  0
 23 88  1  1
 24 89  1  1
 25 90  1  6
 26 91  1  0
 27 92  1  0
 27 93  1  0
 28 94  1  1
 29 95  1  0
 29 96  1  0
 30 97  1  1
 31 98  1  6
 32 99  1  0
 32100  1  0
 33101  1  0
 33102  1  0
 34103  1  0
 34104  1  0
 34105  1  0
 35106  1  0
 35107  1  0
 35108  1  0
 36109  1  0
 36110  1  0
 36111  1  0
 37112  1  0
 37113  1  0
 38114  1  0
 38115  1  0
 39116  1  0
 39117  1  0
 39118  1  0
 40119  1  0
 40120  1  0
 40121  1  0
 41122  1  0
 41123  1  0
 41124  1  0
 42125  1  0
 42126  1  0
 42127  1  0
 43128  1  0
 43129  1  0
 43130  1  0
 44131  1  0
 44132  1  0
 44133  1  0
 47134  1  0
 48135  1  0
 49136  1  0
 51137  1  0
 54138  1  0
 55139  1  0
 57140  1  0
M  END
>  <PDBID>  (1) 
1FKF

>  <PDB ID>  (1) 
1FKF

>  <Generic Name>  (1) 
Tacrolimus

>  <Brand Name>  (1) 
Ach-tacrolimus#Advagraf#Astagraf XL#Envarsus XR#Hecoria#Prograf#Protopic#Ran-tacrolimus#Sandoz Tacrolimus#Tacrolimus

>  <DrugBank ID>  (1) 
DB00864

>  <ATC Codes>  (1) 
D11AH01#L04AD02

>  <Ligand ID>  (1) 
FK5

>  <Target Name>  (1) 
Peptidyl-prolyl cis-trans isomerase FKBP1A

>  <UniProt ID>  (1) 
P62942

>  <PDB ID.1>  (1) 
1FKF

>  <Seq. Identity>  (1) 
100%

$$$$
