PDB_DB00188_84
     RDKit          3D

 53 54  0  0  0  0  0  0  0  0999 V2000
    6.0720 -164.1100   34.2800 N   0  0  0  0  0  0  0  0  0  0  0  0
    6.6800 -162.9690   34.6520 C   0  0  0  0  0  0  0  0  0  0  0  0
    6.6770 -161.8600   33.8050 C   0  0  0  0  0  0  0  0  0  0  0  0
    6.0320 -161.9340   32.5640 N   0  0  0  0  0  0  0  0  0  0  0  0
    5.4000 -163.1240   32.1800 C   0  0  0  0  0  0  0  0  0  0  0  0
    5.4200 -164.2160   33.0410 C   0  0  0  0  0  0  0  0  0  0  0  0
    7.3130 -162.9140   35.8920 C   0  0  0  0  0  0  0  0  0  0  0  0
    8.1360 -163.7710   36.2110 O   0  0  0  0  0  0  0  0  0  0  0  0
    6.9530 -161.8840   36.6770 N   0  0  0  0  0  0  0  0  0  0  0  0
    7.5000 -161.7030   38.0280 C   0  0  1  0  0  0  0  0  0  0  0  0
    8.1740 -160.3580   38.1780 C   0  0  0  0  0  0  0  0  0  0  0  0
    9.3410 -160.3880   37.3890 C   0  0  0  0  0  0  0  0  0  0  0  0
    9.4530 -159.5890   36.2480 C   0  0  0  0  0  0  0  0  0  0  0  0
   10.6120 -159.6170   35.4750 C   0  0  0  0  0  0  0  0  0  0  0  0
   11.6750 -160.4410   35.8340 C   0  0  0  0  0  0  0  0  0  0  0  0
   11.5740 -161.2370   36.9710 C   0  0  0  0  0  0  0  0  0  0  0  0
   10.4160 -161.2070   37.7460 C   0  0  0  0  0  0  0  0  0  0  0  0
    6.3220 -161.7720   38.9950 C   0  0  0  0  0  0  0  0  0  0  0  0
    5.2230 -161.3280   38.6690 O   0  0  0  0  0  0  0  0  0  0  0  0
    6.5780 -162.3460   40.1770 N   0  0  0  0  0  0  0  0  0  0  0  0
    5.5180 -162.4820   41.1880 C   0  0  1  0  0  0  0  0  0  0  0  0
    5.3900 -163.9120   41.6680 C   0  0  0  0  0  0  0  0  0  0  0  0
    5.2660 -164.8520   40.4460 C   0  0  0  0  0  0  0  0  0  0  0  0
    5.3950 -166.3040   40.9330 C   0  0  0  0  0  0  0  0  0  0  0  0
    3.9340 -164.6470   39.6970 C   0  0  0  0  0  0  0  0  0  0  0  0
    5.8140 -161.5800   42.3970 B   0  0  0  0  0  0  0  0  0  0  0  0
    5.9990 -160.2260   41.9640 O   0  0  0  0  0  0  0  0  0  0  0  0
    6.9980 -162.0280   43.0750 O   0  0  0  0  0  0  0  0  0  0  0  0
    7.1796 -160.9306   34.1110 H   0  0  0  0  0  0  0  0  0  0  0  0
    4.8927 -163.1939   31.2065 H   0  0  0  0  0  0  0  0  0  0  0  0
    4.9281 -165.1568   32.7531 H   0  0  0  0  0  0  0  0  0  0  0  0
    6.2714 -161.1995   36.3195 H   0  0  0  0  0  0  0  0  0  0  0  0
    8.2526 -162.4797   38.2292 H   0  0  0  0  0  0  0  0  0  0  0  0
    7.5033 -159.5590   37.8290 H   0  0  0  0  0  0  0  0  0  0  0  0
    8.4193 -160.1588   39.2316 H   0  0  0  0  0  0  0  0  0  0  0  0
    8.6194 -158.9326   35.9577 H   0  0  0  0  0  0  0  0  0  0  0  0
   10.6873 -158.9855   34.5775 H   0  0  0  0  0  0  0  0  0  0  0  0
   12.5892 -160.4628   35.2227 H   0  0  0  0  0  0  0  0  0  0  0  0
   12.4100 -161.8914   37.2587 H   0  0  0  0  0  0  0  0  0  0  0  0
   10.3474 -161.8339   38.6473 H   0  0  0  0  0  0  0  0  0  0  0  0
    7.5253 -162.6954   40.3803 H   0  0  0  0  0  0  0  0  0  0  0  0
    4.5731 -162.1793   40.7132 H   0  0  0  0  0  0  0  0  0  0  0  0
    6.2811 -164.1846   42.2524 H   0  0  0  0  0  0  0  0  0  0  0  0
    4.4954 -164.0098   42.3005 H   0  0  0  0  0  0  0  0  0  0  0  0
    6.0698 -164.6176   39.7325 H   0  0  0  0  0  0  0  0  0  0  0  0
    5.3967 -166.3231   42.0328 H   0  0  0  0  0  0  0  0  0  0  0  0
    4.5457 -166.8936   40.5574 H   0  0  0  0  0  0  0  0  0  0  0  0
    6.3349 -166.7346   40.5574 H   0  0  0  0  0  0  0  0  0  0  0  0
    3.1193 -164.5216   40.4254 H   0  0  0  0  0  0  0  0  0  0  0  0
    4.0028 -163.7489   39.0656 H   0  0  0  0  0  0  0  0  0  0  0  0
    3.7296 -165.5243   39.0656 H   0  0  0  0  0  0  0  0  0  0  0  0
    6.0798 -159.6350   42.7541 H   0  0  0  0  0  0  0  0  0  0  0  0
    6.8579 -161.9750   44.0536 H   0  0  0  0  0  0  0  0  0  0  0  0
  1  2  2  0
  2  3  1  0
  3  4  2  0
  4  5  1  0
  1  6  1  0
  5  6  2  0
  2  7  1  0
  7  8  2  0
  7  9  1  0
  9 10  1  0
 10 11  1  0
 11 12  1  0
 12 13  2  0
 13 14  1  0
 14 15  2  0
 15 16  1  0
 12 17  1  0
 16 17  2  0
 10 18  1  0
 18 19  2  0
 18 20  1  0
 20 21  1  0
 21 22  1  0
 22 23  1  0
 23 24  1  0
 23 25  1  0
 21 26  1  0
 26 27  1  0
 26 28  1  0
  3 29  1  0
  5 30  1  0
  6 31  1  0
  9 32  1  0
 10 33  1  1
 11 34  1  0
 11 35  1  0
 13 36  1  0
 14 37  1  0
 15 38  1  0
 16 39  1  0
 17 40  1  0
 20 41  1  0
 21 42  1  6
 22 43  1  0
 22 44  1  0
 23 45  1  0
 24 46  1  0
 24 47  1  0
 24 48  1  0
 25 49  1  0
 25 50  1  0
 25 51  1  0
 27 52  1  0
 28 53  1  0
M  END
$$$$
