PDB_DB00421_98
     RDKit          3D

 61 65  0  0  0  0  0  0  0  0999 V2000
   21.5020   49.1180    9.3320 C   0  0  0  0  0  0  0  0  0  0  0  0
   20.6440   52.2720   11.4310 C   0  0  0  0  0  0  0  0  0  0  0  0
   21.1390   50.8490   11.0590 C   0  0  1  0  0  0  0  0  0  0  0  0
   18.1320   51.2310   14.3760 C   0  0  1  0  0  0  0  0  0  0  0  0
   19.9150   49.9100   11.0170 C   0  0  1  0  0  0  0  0  0  0  0  0
   17.6470   52.6690   14.7480 C   0  0  0  0  0  0  0  0  0  0  0  0
   20.0140   52.2860   12.8490 C   0  0  0  0  0  0  0  0  0  0  0  0
   20.3580   48.6350   10.3120 C   0  0  0  0  0  0  0  0  0  0  0  0
   21.7470   50.6550    9.6280 C   0  0  2  0  0  0  0  0  0  0  0  0
   22.2620   50.3610   12.0900 C   0  0  0  0  0  0  0  0  0  0  0  0
   19.1640   50.7910   15.4220 C   0  0  0  0  0  0  0  0  0  0  0  0
   16.5970   52.6890   15.9100 C   0  0  0  0  0  0  0  0  0  0  0  0
   21.2360   51.6130    8.5010 C   0  0  0  0  0  0  0  0  0  0  0  0
   22.3140   52.7260    8.5870 C   0  0  0  0  0  0  0  0  0  0  0  0
   23.5370   52.0320    9.0620 C   0  0  0  0  0  0  0  0  0  0  0  0
   16.4950   50.5950   10.5770 C   0  0  0  0  0  0  0  0  0  0  0  0
   15.6240   50.6040    9.3750 C   0  0  0  0  0  0  0  0  0  0  0  0
   15.4690   51.6590   15.7550 C   0  0  0  0  0  0  0  0  0  0  0  0
   15.7730   50.4300   14.9640 C   0  0  0  0  0  0  0  0  0  0  0  0
   16.9610   50.2010   14.3680 C   0  0  0  0  0  0  0  0  0  0  0  0
   17.3170   48.8170   13.8780 C   0  0  0  0  0  0  0  0  0  0  0  0
   18.0230   48.8440   12.5180 C   0  0  2  0  0  0  0  0  0  0  0  0
   19.2480   49.8410   12.4290 C   0  0  2  0  0  0  0  0  0  0  0  0
   18.8150   51.2700   12.9100 C   0  0  1  0  0  0  0  0  0  0  0  0
   24.6810   52.3370    9.0180 O   0  0  0  0  0  0  0  0  0  0  0  0
   23.1920   50.8530    9.6350 O   0  0  0  0  0  0  0  0  0  0  0  0
   16.8850   51.5970   11.1160 O   0  0  0  0  0  0  0  0  0  0  0  0
   14.3840   51.8280   16.2730 O   0  0  0  0  0  0  0  0  0  0  0  0
   16.9030   48.9450   11.0930 S   0  0  0  0  0  0  0  0  0  0  0  0
   22.4235   48.5462    9.5161 H   0  0  0  0  0  0  0  0  0  0  0  0
   21.2119   48.9617    8.2825 H   0  0  0  0  0  0  0  0  0  0  0  0
   21.4963   52.9671   11.4087 H   0  0  0  0  0  0  0  0  0  0  0  0
   19.8785   52.5792   10.7033 H   0  0  0  0  0  0  0  0  0  0  0  0
   19.0659   50.2626   10.4131 H   0  0  0  0  0  0  0  0  0  0  0  0
   18.5201   53.2628   15.0565 H   0  0  0  0  0  0  0  0  0  0  0  0
   17.1545   53.0866   13.8575 H   0  0  0  0  0  0  0  0  0  0  0  0
   20.7748   51.9978   13.5893 H   0  0  0  0  0  0  0  0  0  0  0  0
   19.6441   53.2977   13.0718 H   0  0  0  0  0  0  0  0  0  0  0  0
   19.5242   48.1889    9.7501 H   0  0  0  0  0  0  0  0  0  0  0  0
   20.7005   47.8601   11.0136 H   0  0  0  0  0  0  0  0  0  0  0  0
   21.9066   50.5154   13.1195 H   0  0  0  0  0  0  0  0  0  0  0  0
   22.4676   49.2924   11.9295 H   0  0  0  0  0  0  0  0  0  0  0  0
   23.1835   50.9398   11.9295 H   0  0  0  0  0  0  0  0  0  0  0  0
   18.7601   50.9632   16.4306 H   0  0  0  0  0  0  0  0  0  0  0  0
   19.3837   49.7209   15.2928 H   0  0  0  0  0  0  0  0  0  0  0  0
   20.0882   51.3733   15.2928 H   0  0  0  0  0  0  0  0  0  0  0  0
   17.1232   52.4853   16.8543 H   0  0  0  0  0  0  0  0  0  0  0  0
   16.1239   53.6819   15.8922 H   0  0  0  0  0  0  0  0  0  0  0  0
   21.2338   51.1215    7.5169 H   0  0  0  0  0  0  0  0  0  0  0  0
   20.1994   51.9606    8.6221 H   0  0  0  0  0  0  0  0  0  0  0  0
   22.4840   53.1783    7.5988 H   0  0  0  0  0  0  0  0  0  0  0  0
   22.0137   53.5446    9.2576 H   0  0  0  0  0  0  0  0  0  0  0  0
   14.5691   50.6149    9.6867 H   0  0  0  0  0  0  0  0  0  0  0  0
   15.8380   51.5000    8.7738 H   0  0  0  0  0  0  0  0  0  0  0  0
   15.8194   49.7038    8.7738 H   0  0  0  0  0  0  0  0  0  0  0  0
   14.9849   49.6695   14.8616 H   0  0  0  0  0  0  0  0  0  0  0  0
   17.9836   48.3423   14.6130 H   0  0  0  0  0  0  0  0  0  0  0  0
   16.3810   48.2514   13.7596 H   0  0  0  0  0  0  0  0  0  0  0  0
   18.4767   47.8443   12.4490 H   0  0  0  0  0  0  0  0  0  0  0  0
   20.0215   49.4381   13.0993 H   0  0  0  0  0  0  0  0  0  0  0  0
   18.0464   51.6305   12.2105 H   0  0  0  0  0  0  0  0  0  0  0  0
  2  3  1  0
  3  5  1  0
  4  6  1  0
  2  7  1  0
  1  8  1  0
  5  8  1  0
  1  9  1  0
  3  9  1  0
  3 10  1  1
  4 11  1  1
  6 12  1  0
  9 13  1  0
 13 14  1  0
 14 15  1  0
 16 17  1  0
 12 18  1  0
 18 19  1  0
  4 20  1  0
 19 20  2  0
 20 21  1  0
 21 22  1  0
  5 23  1  0
 22 23  1  0
  4 24  1  0
  7 24  1  0
 23 24  1  0
 15 25  2  0
  9 26  1  1
 15 26  1  0
 16 27  2  0
 18 28  2  0
 16 29  1  0
 22 29  1  0
  1 30  1  0
  1 31  1  0
  2 32  1  0
  2 33  1  0
  5 34  1  6
  6 35  1  0
  6 36  1  0
  7 37  1  0
  7 38  1  0
  8 39  1  0
  8 40  1  0
 10 41  1  0
 10 42  1  0
 10 43  1  0
 11 44  1  0
 11 45  1  0
 11 46  1  0
 12 47  1  0
 12 48  1  0
 13 49  1  0
 13 50  1  0
 14 51  1  0
 14 52  1  0
 17 53  1  0
 17 54  1  0
 17 55  1  0
 19 56  1  0
 21 57  1  0
 21 58  1  0
 22 59  1  6
 23 60  1  1
 24 61  1  6
M  END
$$$$
