PDB_DB00302_97
     RDKit          3D

 26 26  0  0  0  0  0  0  0  0999 V2000
    5.6330   -0.3560   -9.0440 C   0  0  0  0  0  0  0  0  0  0  0  0
    5.0730    0.7890   -9.8920 C   0  0  0  0  0  0  0  0  0  0  0  0
    3.9840    0.2530  -10.8180 C   0  0  0  0  0  0  0  0  0  0  0  0
    2.7720   -0.3120  -10.0490 C   0  0  0  0  0  0  0  0  0  0  0  0
    3.2750   -1.3200   -9.0140 C   0  0  0  0  0  0  0  0  0  0  0  0
    4.4740   -0.8420   -8.1730 C   0  0  0  0  0  0  0  0  0  0  0  0
    1.7660   -0.9960  -11.0170 C   0  0  0  0  0  0  0  0  0  0  0  0
    6.8660    0.0820   -8.2090 C   0  0  0  0  0  0  0  0  0  0  0  0
    2.4750   -1.7890  -12.0240 N   0  0  0  0  0  0  0  0  0  0  0  0
    7.4630    1.1180   -8.4980 O   0  0  0  0  0  0  0  0  0  0  0  0
    7.2650   -0.6270   -7.2870 O   0  0  0  0  0  0  0  0  0  0  0  0
    6.0103   -1.1718   -9.6781 H   0  0  0  0  0  0  0  0  0  0  0  0
    4.6466    1.5590   -9.2322 H   0  0  0  0  0  0  0  0  0  0  0  0
    5.8820    1.2281  -10.4942 H   0  0  0  0  0  0  0  0  0  0  0  0
    3.6387    1.0722  -11.4659 H   0  0  0  0  0  0  0  0  0  0  0  0
    4.4205   -0.5713  -11.4011 H   0  0  0  0  0  0  0  0  0  0  0  0
    2.2453    0.5136   -9.5480 H   0  0  0  0  0  0  0  0  0  0  0  0
    2.4458   -1.5483   -8.3282 H   0  0  0  0  0  0  0  0  0  0  0  0
    3.6248   -2.1956   -9.5805 H   0  0  0  0  0  0  0  0  0  0  0  0
    4.1458   -0.0150   -7.5262 H   0  0  0  0  0  0  0  0  0  0  0  0
    4.8324   -1.6961   -7.5797 H   0  0  0  0  0  0  0  0  0  0  0  0
    1.1012   -1.6557  -10.4401 H   0  0  0  0  0  0  0  0  0  0  0  0
    1.1808   -0.2171  -11.5276 H   0  0  0  0  0  0  0  0  0  0  0  0
    3.0862   -2.4726  -11.5548 H   0  0  0  0  0  0  0  0  0  0  0  0
    1.7918   -2.2866  -12.6126 H   0  0  0  0  0  0  0  0  0  0  0  0
    8.2498    1.4003   -7.9676 H   0  0  0  0  0  0  0  0  0  0  0  0
  2  1  1  0
  3  2  1  0
  4  3  1  0
  5  4  1  0
  6  5  1  0
  6  1  1  0
  7  4  1  0
  8  1  1  0
  9  7  1  0
 10  8  1  0
 11  8  2  0
  1 12  1  0
  2 13  1  0
  2 14  1  0
  3 15  1  0
  3 16  1  0
  4 17  1  0
  5 18  1  0
  5 19  1  0
  6 20  1  0
  6 21  1  0
  7 22  1  0
  7 23  1  0
  9 24  1  0
  9 25  1  0
 10 26  1  0
M  END
>  <PDBID>  (1) 
1B2I

>  <PDB ID>  (1) 
1B2I

>  <Generic Name>  (1) 
Tranexamic Acid

>  <Brand Name>  (1) 
Cyklokapron#Cyklokapron 100 mg/ml#Cyklokapron 500 mg#Erfa-tranexamic#Gd-tranexamic Acid#Lysteda#Pure Whitenol Serum#Tranexamic Acid#Tranexamic Acid Injection#Tranexamic Acid Injection BP#Tranexamic Acid Tablets#Tranexamic Acid Tranexamic Acid#Cyclo-F#Espercil#Femstrual#Rikavarin#Transamin#Transcam#Traxyl

>  <DrugBank ID>  (1) 
DB00302

>  <ATC Codes>  (1) 
B02AA02

>  <Ligand ID>  (1) 
AMH

>  <Target Name>  (1) 
Plasminogen

>  <UniProt ID>  (1) 
P00747

>  <PDB ID.1>  (1) 
1B2I

>  <Seq. Identity>  (1) 
99%

$$$$
