PDB_DB06626_97
     RDKit          3D

140146  0  0  0  0  0  0  0  0999 V2000
   14.1460  158.8920   36.9950 O   0  0  0  0  0  0  0  0  0  0  0  0
   13.1110  158.9860   37.6350 C   0  0  0  0  0  0  0  0  0  0  0  0
   12.4620  160.2570   37.7450 N   0  0  0  0  0  0  0  0  0  0  0  0
   13.0120  161.4260   37.0760 C   0  0  0  0  0  0  0  0  0  0  0  0
   12.5590  157.7730   38.3130 C   0  0  0  0  0  0  0  0  0  0  0  0
   12.2660  157.8050   39.6760 C   0  0  0  0  0  0  0  0  0  0  0  0
   11.7670  156.6730   40.3080 C   0  0  0  0  0  0  0  0  0  0  0  0
   11.5580  155.5010   39.5740 C   0  0  0  0  0  0  0  0  0  0  0  0
   12.3520  156.5920   37.5790 C   0  0  0  0  0  0  0  0  0  0  0  0
   11.8560  155.4710   38.2080 C   0  0  0  0  0  0  0  0  0  0  0  0
   12.7010  156.5180   35.8190 S   0  0  0  0  0  0  0  0  0  0  0  0
   11.4490  155.4060   35.1740 C   0  0  0  0  0  0  0  0  0  0  0  0
   10.0940  155.6050   35.5100 C   0  0  0  0  0  0  0  0  0  0  0  0
    9.1060  154.7310   35.0210 C   0  0  0  0  0  0  0  0  0  0  0  0
   11.8290  154.3550   34.3550 C   0  0  0  0  0  0  0  0  0  0  0  0
   10.8200  153.4660   33.8530 C   0  0  0  0  0  0  0  0  0  0  0  0
   10.9130  152.3630   33.0240 N   0  0  0  0  0  0  0  0  0  0  0  0
    9.6460  151.8660   32.8370 N   0  0  0  0  0  0  0  0  0  0  0  0
    8.7500  152.6100   33.5180 C   0  0  0  0  0  0  0  0  0  0  0  0
    9.4900  153.6500   34.1780 C   0  0  0  0  0  0  0  0  0  0  0  0
    7.2670  152.3500   33.5450 C   0  0  0  0  0  0  0  0  0  0  0  0
    6.3800  153.1480   34.2220 C   0  0  0  0  0  0  0  0  0  0  0  0
    4.9250  152.7650   34.2910 C   0  0  0  0  0  0  0  0  0  0  0  0
    4.4220  151.8900   33.3980 N   0  0  0  0  0  0  0  0  0  0  0  0
    3.1180  151.5270   33.4310 C   0  0  0  0  0  0  0  0  0  0  0  0
    2.2730  152.0660   34.3980 C   0  0  0  0  0  0  0  0  0  0  0  0
    2.7710  152.9720   35.3270 C   0  0  0  0  0  0  0  0  0  0  0  0
    4.1180  153.3270   35.2680 C   0  0  0  0  0  0  0  0  0  0  0  0
   22.6350  130.1790   20.0690 O   0  0  0  0  0  0  0  0  0  0  0  0
   22.0790  130.4640   19.0140 C   0  0  0  0  0  0  0  0  0  0  0  0
   21.9110  131.8420   18.6780 N   0  0  0  0  0  0  0  0  0  0  0  0
   22.4140  132.8630   19.5840 C   0  0  0  0  0  0  0  0  0  0  0  0
   21.5500  129.3810   18.1230 C   0  0  0  0  0  0  0  0  0  0  0  0
   20.2050  129.3620   17.7580 C   0  0  0  0  0  0  0  0  0  0  0  0
   19.7020  128.3450   16.9480 C   0  0  0  0  0  0  0  0  0  0  0  0
   20.5410  127.3240   16.4900 C   0  0  0  0  0  0  0  0  0  0  0  0
   22.3890  128.3520   17.6750 C   0  0  0  0  0  0  0  0  0  0  0  0
   21.8930  127.3390   16.8620 C   0  0  0  0  0  0  0  0  0  0  0  0
   24.1140  128.3820   18.1480 S   0  0  0  0  0  0  0  0  0  0  0  0
   24.9600  127.2190   17.0740 C   0  0  0  0  0  0  0  0  0  0  0  0
   24.8620  127.3260   15.6720 C   0  0  0  0  0  0  0  0  0  0  0  0
   25.5300  126.3970   14.8310 C   0  0  0  0  0  0  0  0  0  0  0  0
   25.7140  126.2090   17.6660 C   0  0  0  0  0  0  0  0  0  0  0  0
   26.3980  125.2720   16.8160 C   0  0  0  0  0  0  0  0  0  0  0  0
   27.1840  124.1780   17.1260 N   0  0  0  0  0  0  0  0  0  0  0  0
   27.6060  123.5990   15.9540 N   0  0  0  0  0  0  0  0  0  0  0  0
   27.0970  124.2770   14.9060 C   0  0  0  0  0  0  0  0  0  0  0  0
   26.3050  125.3570   15.4380 C   0  0  0  0  0  0  0  0  0  0  0  0
   27.3390  123.8990   13.4720 C   0  0  0  0  0  0  0  0  0  0  0  0
   26.9370  124.6180   12.3720 C   0  0  0  0  0  0  0  0  0  0  0  0
   27.2380  124.0220   11.0240 C   0  0  0  0  0  0  0  0  0  0  0  0
   27.8850  122.8410   10.9660 N   0  0  0  0  0  0  0  0  0  0  0  0
   28.1970  122.2510    9.7900 C   0  0  0  0  0  0  0  0  0  0  0  0
   27.8500  122.8780    8.6010 C   0  0  0  0  0  0  0  0  0  0  0  0
   27.1890  124.0980    8.6300 C   0  0  0  0  0  0  0  0  0  0  0  0
   26.8710  124.6810    9.8590 C   0  0  0  0  0  0  0  0  0  0  0  0
   14.9133  158.8223   37.6167 H   0  0  0  0  0  0  0  0  0  0  0  0
   13.6923  159.2042   38.5430 H   0  0  0  0  0  0  0  0  0  0  0  0
   11.5056  160.1325   37.3834 H   0  0  0  0  0  0  0  0  0  0  0  0
   13.3536  162.1521   37.8283 H   0  0  0  0  0  0  0  0  0  0  0  0
   13.8618  161.1225   36.4469 H   0  0  0  0  0  0  0  0  0  0  0  0
   12.2364  161.8872   36.4469 H   0  0  0  0  0  0  0  0  0  0  0  0
   13.5808  157.4352   38.5406 H   0  0  0  0  0  0  0  0  0  0  0  0
   13.1984  158.0726   40.1946 H   0  0  0  0  0  0  0  0  0  0  0  0
   11.4296  158.5168   39.7371 H   0  0  0  0  0  0  0  0  0  0  0  0
   12.4717  156.4220   41.1145 H   0  0  0  0  0  0  0  0  0  0  0  0
   10.7507  156.9733   40.6027 H   0  0  0  0  0  0  0  0  0  0  0  0
   12.1646  154.7159   40.0491 H   0  0  0  0  0  0  0  0  0  0  0  0
   10.4652  155.3781   39.5980 H   0  0  0  0  0  0  0  0  0  0  0  0
   13.3774  156.2683   37.8107 H   0  0  0  0  0  0  0  0  0  0  0  0
   12.5995  154.6732   38.0643 H   0  0  0  0  0  0  0  0  0  0  0  0
   10.8690  155.3393   37.7406 H   0  0  0  0  0  0  0  0  0  0  0  0
   11.5719  154.7573   36.0538 H   0  0  0  0  0  0  0  0  0  0  0  0
   10.0320  155.5698   36.6077 H   0  0  0  0  0  0  0  0  0  0  0  0
    9.8515  156.5574   35.0160 H   0  0  0  0  0  0  0  0  0  0  0  0
    8.6028  154.2932   35.8957 H   0  0  0  0  0  0  0  0  0  0  0  0
    8.4940  155.3686   34.3661 H   0  0  0  0  0  0  0  0  0  0  0  0
   12.3363  154.7928   33.4827 H   0  0  0  0  0  0  0  0  0  0  0  0
   12.4414  153.7175   35.0097 H   0  0  0  0  0  0  0  0  0  0  0  0
   10.6854  154.1146   32.9749 H   0  0  0  0  0  0  0  0  0  0  0  0
   11.3175  152.6395   32.1180 H   0  0  0  0  0  0  0  0  0  0  0  0
    9.4156  151.8898   31.8334 H   0  0  0  0  0  0  0  0  0  0  0  0
    8.8787  151.9608   34.3966 H   0  0  0  0  0  0  0  0  0  0  0  0
    9.3633  154.2936   33.2950 H   0  0  0  0  0  0  0  0  0  0  0  0
    6.9393  152.3560   32.4950 H   0  0  0  0  0  0  0  0  0  0  0  0
    7.2176  151.4204   34.1311 H   0  0  0  0  0  0  0  0  0  0  0  0
    6.7405  153.2151   35.2591 H   0  0  0  0  0  0  0  0  0  0  0  0
    6.3702  154.0749   33.6298 H   0  0  0  0  0  0  0  0  0  0  0  0
    4.6740  153.5972   33.6169 H   0  0  0  0  0  0  0  0  0  0  0  0
    4.5889  152.2954   32.4660 H   0  0  0  0  0  0  0  0  0  0  0  0
    2.6898  151.7890   32.4523 H   0  0  0  0  0  0  0  0  0  0  0  0
    3.1574  150.4595   33.6937 H   0  0  0  0  0  0  0  0  0  0  0  0
    1.4598  152.5761   33.8609 H   0  0  0  0  0  0  0  0  0  0  0  0
    2.0031  151.1948   35.0129 H   0  0  0  0  0  0  0  0  0  0  0  0
    2.1881  153.8985   35.2186 H   0  0  0  0  0  0  0  0  0  0  0  0
    2.6785  152.4438   36.2874 H   0  0  0  0  0  0  0  0  0  0  0  0
    4.5617  153.0659   36.2401 H   0  0  0  0  0  0  0  0  0  0  0  0
    4.0950  154.3948   35.0047 H   0  0  0  0  0  0  0  0  0  0  0  0
   22.0699  130.4686   20.8286 H   0  0  0  0  0  0  0  0  0  0  0  0
   21.1067  130.4709   19.5283 H   0  0  0  0  0  0  0  0  0  0  0  0
   22.3771  131.9890   17.7713 H   0  0  0  0  0  0  0  0  0  0  0  0
   22.2553  132.5409   20.6238 H   0  0  0  0  0  0  0  0  0  0  0  0
   23.4892  133.0131   19.4067 H   0  0  0  0  0  0  0  0  0  0  0  0
   21.8778  133.8070   19.4067 H   0  0  0  0  0  0  0  0  0  0  0  0
   21.3190  128.7673   19.0061 H   0  0  0  0  0  0  0  0  0  0  0  0
   19.6260  129.3345   18.6929 H   0  0  0  0  0  0  0  0  0  0  0  0
   20.1114  130.2530   17.1197 H   0  0  0  0  0  0  0  0  0  0  0  0
   18.8950  127.8592   17.5161 H   0  0  0  0  0  0  0  0  0  0  0  0
   19.4295  128.8756   16.0238 H   0  0  0  0  0  0  0  0  0  0  0  0
   20.1182  126.3738   16.8484 H   0  0  0  0  0  0  0  0  0  0  0  0
   20.5648  127.4701   15.4000 H   0  0  0  0  0  0  0  0  0  0  0  0
   22.1380  127.7591   18.5669 H   0  0  0  0  0  0  0  0  0  0  0  0
   22.0866  126.3912   17.3856 H   0  0  0  0  0  0  0  0  0  0  0  0
   22.4109  127.5116   15.9070 H   0  0  0  0  0  0  0  0  0  0  0  0
   24.0758  126.5648   17.0859 H   0  0  0  0  0  0  0  0  0  0  0  0
   23.7920  127.2625   15.4249 H   0  0  0  0  0  0  0  0  0  0  0  0
   25.3815  128.2718   15.4586 H   0  0  0  0  0  0  0  0  0  0  0  0
   24.7623  125.9100   14.2117 H   0  0  0  0  0  0  0  0  0  0  0  0
   26.2723  127.0064   14.2946 H   0  0  0  0  0  0  0  0  0  0  0  0
   26.4769  126.6974   18.2901 H   0  0  0  0  0  0  0  0  0  0  0  0
   24.9710  125.5961   18.1973 H   0  0  0  0  0  0  0  0  0  0  0  0
   27.2901  125.9154   16.8246 H   0  0  0  0  0  0  0  0  0  0  0  0
   27.9996  124.4811   17.6773 H   0  0  0  0  0  0  0  0  0  0  0  0
   28.6348  123.6230   15.9108 H   0  0  0  0  0  0  0  0  0  0  0  0
   26.2118  123.6241   14.9136 H   0  0  0  0  0  0  0  0  0  0  0  0
   27.1924  126.0067   15.4182 H   0  0  0  0  0  0  0  0  0  0  0  0
   28.4313  123.8108   13.3765 H   0  0  0  0  0  0  0  0  0  0  0  0
   26.6662  123.0327   13.3883 H   0  0  0  0  0  0  0  0  0  0  0  0
   25.8472  124.7504   12.4413 H   0  0  0  0  0  0  0  0  0  0  0  0
   27.5186  125.5509   12.4101 H   0  0  0  0  0  0  0  0  0  0  0  0
   28.2022  124.5511   11.0053 H   0  0  0  0  0  0  0  0  0  0  0  0
   28.7754  122.9754   11.4661 H   0  0  0  0  0  0  0  0  0  0  0  0
   29.2891  122.1202    9.7767 H   0  0  0  0  0  0  0  0  0  0  0  0
   27.5873  121.3354    9.7887 H   0  0  0  0  0  0  0  0  0  0  0  0
   28.7831  123.0350    8.0400 H   0  0  0  0  0  0  0  0  0  0  0  0
   27.1066  122.1965    8.1618 H   0  0  0  0  0  0  0  0  0  0  0  0
   27.8218  124.8172    8.0893 H   0  0  0  0  0  0  0  0  0  0  0  0
   26.2064  123.8689    8.1919 H   0  0  0  0  0  0  0  0  0  0  0  0
   25.7781  124.8028    9.8865 H   0  0  0  0  0  0  0  0  0  0  0  0
   27.4650  125.6066    9.8772 H   0  0  0  0  0  0  0  0  0  0  0  0
  1  2  1  0
  2  3  1  0
  3  4  1  0
  2  5  1  0
  5  6  1  0
  6  7  1  0
  7  8  1  0
  5  9  1  0
  8 10  1  0
  9 10  1  0
  9 11  1  0
 11 12  1  0
 12 13  1  0
 13 14  1  0
 12 15  1  0
 15 16  1  0
 16 17  1  0
 17 18  1  0
 18 19  1  0
 14 20  1  0
 16 20  1  0
 19 20  1  0
 19 21  1  0
 21 22  1  0
 22 23  1  0
 23 24  1  0
 24 25  1  0
 25 26  1  0
 26 27  1  0
 23 28  1  0
 27 28  1  0
 29 30  1  0
 30 31  1  0
 31 32  1  0
 30 33  1  0
 33 34  1  0
 34 35  1  0
 35 36  1  0
 33 37  1  0
 36 38  1  0
 37 38  1  0
 37 39  1  0
 39 40  1  0
 40 41  1  0
 41 42  1  0
 40 43  1  0
 43 44  1  0
 44 45  1  0
 45 46  1  0
 46 47  1  0
 42 48  1  0
 44 48  1  0
 47 48  1  0
 47 49  1  0
 49 50  1  0
 50 51  1  0
 51 52  1  0
 52 53  1  0
 53 54  1  0
 54 55  1  0
 51 56  1  0
 55 56  1  0
  1 57  1  0
  2 58  1  0
  3 59  1  0
  4 60  1  0
  4 61  1  0
  4 62  1  0
  5 63  1  0
  6 64  1  0
  6 65  1  0
  7 66  1  0
  7 67  1  0
  8 68  1  0
  8 69  1  0
  9 70  1  0
 10 71  1  0
 10 72  1  0
 12 73  1  0
 13 74  1  0
 13 75  1  0
 14 76  1  0
 14 77  1  0
 15 78  1  0
 15 79  1  0
 16 80  1  0
 17 81  1  0
 18 82  1  0
 19 83  1  0
 20 84  1  0
 21 85  1  0
 21 86  1  0
 22 87  1  0
 22 88  1  0
 23 89  1  0
 24 90  1  0
 25 91  1  0
 25 92  1  0
 26 93  1  0
 26 94  1  0
 27 95  1  0
 27 96  1  0
 28 97  1  0
 28 98  1  0
 29 99  1  0
 30100  1  0
 31101  1  0
 32102  1  0
 32103  1  0
 32104  1  0
 33105  1  0
 34106  1  0
 34107  1  0
 35108  1  0
 35109  1  0
 36110  1  0
 36111  1  0
 37112  1  0
 38113  1  0
 38114  1  0
 40115  1  0
 41116  1  0
 41117  1  0
 42118  1  0
 42119  1  0
 43120  1  0
 43121  1  0
 44122  1  0
 45123  1  0
 46124  1  0
 47125  1  0
 48126  1  0
 49127  1  0
 49128  1  0
 50129  1  0
 50130  1  0
 51131  1  0
 52132  1  0
 53133  1  0
 53134  1  0
 54135  1  0
 54136  1  0
 55137  1  0
 55138  1  0
 56139  1  0
 56140  1  0
M  END
>  <PDBID>  (1) 
4WA9

>  <PDB ID>  (1) 
4WA9

>  <Generic Name>  (1) 
Axitinib

>  <Brand Name>  (1) 
Inlyta

>  <DrugBank ID>  (1) 
DB06626

>  <ATC Codes>  (1) 
L01XE17

>  <Ligand ID>  (1) 
AXI

>  <Target Name>  (1) 
Vascular endothelial growth factor receptor 3

>  <UniProt ID>  (1) 
P35916

>  <PDB ID.1>  (1) 
4WA9

>  <Seq. Identity>  (1) 
42%

$$$$
