PDB_DB02546_99
     RDKit          3D

147147  0  0  0  0  0  0  0  0999 V2000
   19.6360  -19.8860   -2.0940 O   0  0  0  0  0  0  0  0  0  0  0  0
   20.4930  -17.6630   -0.9360 O   0  0  0  0  0  0  0  0  0  0  0  0
   20.8830  -19.7820   -1.4560 N   0  0  0  0  0  0  0  0  0  0  0  0
   21.2570  -18.6200   -0.8860 C   0  0  0  0  0  0  0  0  0  0  0  0
   22.5970  -18.5460   -0.1950 C   0  0  0  0  0  0  0  0  0  0  0  0
   23.5580  -17.4830   -0.7890 C   0  0  0  0  0  0  0  0  0  0  0  0
   24.9330  -17.7010   -0.1330 C   0  0  0  0  0  0  0  0  0  0  0  0
   25.9720  -16.7150   -0.7010 C   0  0  0  0  0  0  0  0  0  0  0  0
   27.3250  -17.0050   -0.0240 C   0  0  0  0  0  0  0  0  0  0  0  0
   28.3040  -15.8280   -0.1830 C   0  0  0  0  0  0  0  0  0  0  0  0
   28.0100  -14.7020    0.7790 C   0  0  0  0  0  0  0  0  0  0  0  0
   27.4610  -13.7120    0.3330 O   0  0  0  0  0  0  0  0  0  0  0  0
   28.3770  -14.8320    2.0940 N   0  0  0  0  0  0  0  0  0  0  0  0
   28.2700  -13.8990    3.1580 C   0  0  1  0  0  0  0  0  0  0  0  0
   28.0050  -12.5340    2.9690 C   0  0  0  0  0  0  0  0  0  0  0  0
   28.0010  -11.6580    4.0550 C   0  0  0  0  0  0  0  0  0  0  0  0
   28.2660  -12.1300    5.3400 C   0  0  0  0  0  0  0  0  0  0  0  0
   28.5530  -13.4780    5.5370 C   0  0  0  0  0  0  0  0  0  0  0  0
   28.5810  -14.3460    4.4510 C   0  0  0  0  0  0  0  0  0  0  0  0
   44.0540   -3.4540  -37.5880 O   0  0  0  0  0  0  0  0  0  0  0  0
   41.8170   -2.5100  -36.4020 O   0  0  0  0  0  0  0  0  0  0  0  0
   43.9490   -2.1680  -37.0260 N   0  0  0  0  0  0  0  0  0  0  0  0
   42.8050   -1.7680  -36.4420 C   0  0  0  0  0  0  0  0  0  0  0  0
   42.7800   -0.3760  -35.8640 C   0  0  0  0  0  0  0  0  0  0  0  0
   41.8350    0.5490  -36.6510 C   0  0  0  0  0  0  0  0  0  0  0  0
   42.0300    1.9680  -36.0820 C   0  0  0  0  0  0  0  0  0  0  0  0
   40.8570    2.8880  -36.4480 C   0  0  0  0  0  0  0  0  0  0  0  0
   41.1620    4.3150  -35.9460 C   0  0  0  0  0  0  0  0  0  0  0  0
   39.9370    5.2070  -36.1460 C   0  0  0  0  0  0  0  0  0  0  0  0
   38.9140    4.9770  -35.0470 C   0  0  0  0  0  0  0  0  0  0  0  0
   37.8980    4.3740  -35.3280 O   0  0  0  0  0  0  0  0  0  0  0  0
   39.1480    5.4650  -33.7960 N   0  0  0  0  0  0  0  0  0  0  0  0
   38.3250    5.3940  -32.6410 C   0  0  1  0  0  0  0  0  0  0  0  0
   38.8850    5.7550  -31.4080 C   0  0  0  0  0  0  0  0  0  0  0  0
   38.1150    5.7580  -30.2390 C   0  0  0  0  0  0  0  0  0  0  0  0
   36.7570    5.4480  -30.3030 C   0  0  0  0  0  0  0  0  0  0  0  0
   36.1770    5.1300  -31.5330 C   0  0  0  0  0  0  0  0  0  0  0  0
   36.9610    5.0720  -32.6830 C   0  0  0  0  0  0  0  0  0  0  0  0
    0.9970  -30.1380  -42.7340 O   0  0  0  0  0  0  0  0  0  0  0  0
    0.0880  -32.5840  -43.3460 O   0  0  0  0  0  0  0  0  0  0  0  0
    1.2750  -31.2830  -41.9730 N   0  0  0  0  0  0  0  0  0  0  0  0
    0.7780  -32.4840  -42.3370 C   0  0  2  0  0  0  0  0  0  0  0  0
    1.1740  -33.6840  -41.5100 C   0  0  0  0  0  0  0  0  0  0  0  0
    0.0410  -34.2430  -40.6480 C   0  0  0  0  0  0  0  0  0  0  0  0
    0.6410  -35.2300  -39.6370 C   0  0  0  0  0  0  0  0  0  0  0  0
   -0.4510  -36.1020  -38.9860 C   0  0  0  0  0  0  0  0  0  0  0  0
    0.2100  -37.1890  -38.1310 C   0  0  0  0  0  0  0  0  0  0  0  0
   -0.8270  -38.2150  -37.6540 C   0  0  0  0  0  0  0  0  0  0  0  0
   -0.9970  -39.3090  -38.6860 C   0  0  0  0  0  0  0  0  0  0  0  0
   -1.9650  -39.2420  -39.4180 O   0  0  0  0  0  0  0  0  0  0  0  0
   -0.0710  -40.3130  -38.7690 N   0  0  0  0  0  0  0  0  0  0  0  0
   -0.0590  -41.4320  -39.6410 C   0  0  1  0  0  0  0  0  0  0  0  0
    1.1330  -42.1640  -39.7670 C   0  0  0  0  0  0  0  0  0  0  0  0
    1.1900  -43.3000  -40.5770 C   0  0  0  0  0  0  0  0  0  0  0  0
    0.0460  -43.7360  -41.2500 C   0  0  0  0  0  0  0  0  0  0  0  0
   -1.1560  -43.0330  -41.1170 C   0  0  0  0  0  0  0  0  0  0  0  0
   -1.2110  -41.8970  -40.3110 C   0  0  0  0  0  0  0  0  0  0  0  0
   18.9205  -19.9457   -1.4124 H   0  0  0  0  0  0  0  0  0  0  0  0
   20.2635  -17.3756   -0.0169 H   0  0  0  0  0  0  0  0  0  0  0  0
   20.8962  -20.4948   -0.7126 H   0  0  0  0  0  0  0  0  0  0  0  0
   21.7163  -18.3029   -1.8339 H   0  0  0  0  0  0  0  0  0  0  0  0
   22.4265  -18.3040    0.8644 H   0  0  0  0  0  0  0  0  0  0  0  0
   23.0805  -19.5241   -0.3348 H   0  0  0  0  0  0  0  0  0  0  0  0
   23.6351  -17.6108   -1.8788 H   0  0  0  0  0  0  0  0  0  0  0  0
   23.1870  -16.4661   -0.5932 H   0  0  0  0  0  0  0  0  0  0  0  0
   24.8437  -17.5454    0.9523 H   0  0  0  0  0  0  0  0  0  0  0  0
   25.2670  -18.7272   -0.3462 H   0  0  0  0  0  0  0  0  0  0  0  0
   26.0618  -16.8531   -1.7886 H   0  0  0  0  0  0  0  0  0  0  0  0
   25.6614  -15.6782   -0.5046 H   0  0  0  0  0  0  0  0  0  0  0  0
   27.1560  -17.1860    1.0478 H   0  0  0  0  0  0  0  0  0  0  0  0
   27.7684  -17.8880   -0.5074 H   0  0  0  0  0  0  0  0  0  0  0  0
   29.3261  -16.1913   -0.0002 H   0  0  0  0  0  0  0  0  0  0  0  0
   28.1932  -15.4347   -1.2043 H   0  0  0  0  0  0  0  0  0  0  0  0
   28.9915  -14.2571    0.5583 H   0  0  0  0  0  0  0  0  0  0  0  0
   27.1462  -13.1443    1.0805 H   0  0  0  0  0  0  0  0  0  0  0  0
   27.8514  -15.6541    2.4238 H   0  0  0  0  0  0  0  0  0  0  0  0
   29.3495  -13.6987    3.0909 H   0  0  0  0  0  0  0  0  0  0  0  0
   28.7628  -12.1600    2.2648 H   0  0  0  0  0  0  0  0  0  0  0  0
   26.9549  -12.5281    2.6415 H   0  0  0  0  0  0  0  0  0  0  0  0
   28.7537  -10.8851    3.8406 H   0  0  0  0  0  0  0  0  0  0  0  0
   26.9492  -11.3418    4.1170 H   0  0  0  0  0  0  0  0  0  0  0  0
   29.1300  -11.5623    5.7158 H   0  0  0  0  0  0  0  0  0  0  0  0
   27.3083  -11.9942    5.8638 H   0  0  0  0  0  0  0  0  0  0  0  0
   29.5456  -13.5264    6.0086 H   0  0  0  0  0  0  0  0  0  0  0  0
   27.6968  -13.8367    6.1271 H   0  0  0  0  0  0  0  0  0  0  0  0
   27.8728  -15.1559    4.6802 H   0  0  0  0  0  0  0  0  0  0  0  0
   29.6493  -14.5952    4.3693 H   0  0  0  0  0  0  0  0  0  0  0  0
   44.1090   -4.1270  -36.8640 H   0  0  0  0  0  0  0  0  0  0  0  0
   41.5774   -2.6899  -35.4584 H   0  0  0  0  0  0  0  0  0  0  0  0
   44.6858   -2.0983  -36.3096 H   0  0  0  0  0  0  0  0  0  0  0  0
   42.4582   -1.3580  -37.4020 H   0  0  0  0  0  0  0  0  0  0  0  0
   42.4387   -0.4295  -34.8197 H   0  0  0  0  0  0  0  0  0  0  0  0
   43.7967    0.0395  -35.9251 H   0  0  0  0  0  0  0  0  0  0  0  0
   42.0907    0.5309  -37.7207 H   0  0  0  0  0  0  0  0  0  0  0  0
   40.7890    0.2231  -36.5523 H   0  0  0  0  0  0  0  0  0  0  0  0
   42.1072    1.9061  -34.9865 H   0  0  0  0  0  0  0  0  0  0  0  0
   42.9480    2.3905  -36.5165 H   0  0  0  0  0  0  0  0  0  0  0  0
   40.7257    2.9014  -37.5401 H   0  0  0  0  0  0  0  0  0  0  0  0
   39.9339    2.5181  -35.9779 H   0  0  0  0  0  0  0  0  0  0  0  0
   41.4170    4.2792  -34.8766 H   0  0  0  0  0  0  0  0  0  0  0  0
   42.0083    4.7272  -36.5152 H   0  0  0  0  0  0  0  0  0  0  0  0
   40.2522    6.2607  -36.1298 H   0  0  0  0  0  0  0  0  0  0  0  0
   39.4756    4.9589  -37.1132 H   0  0  0  0  0  0  0  0  0  0  0  0
   38.4223    5.9263  -35.3061 H   0  0  0  0  0  0  0  0  0  0  0  0
   37.4362    4.0999  -34.4963 H   0  0  0  0  0  0  0  0  0  0  0  0
   40.0314    5.0201  -33.5087 H   0  0  0  0  0  0  0  0  0  0  0  0
   38.6411    4.3528  -32.4797 H   0  0  0  0  0  0  0  0  0  0  0  0
   39.7211    5.0628  -31.2298 H   0  0  0  0  0  0  0  0  0  0  0  0
   39.1135    6.8217  -31.5495 H   0  0  0  0  0  0  0  0  0  0  0  0
   38.5754    5.0322  -29.5525 H   0  0  0  0  0  0  0  0  0  0  0  0
   38.1213    6.8143  -29.9321 H   0  0  0  0  0  0  0  0  0  0  0  0
   36.5955    4.5842  -29.6414 H   0  0  0  0  0  0  0  0  0  0  0  0
   36.2655    6.3918  -30.0245 H   0  0  0  0  0  0  0  0  0  0  0  0
   35.7113    4.1402  -31.4170 H   0  0  0  0  0  0  0  0  0  0  0  0
   35.5124    5.9851  -31.7254 H   0  0  0  0  0  0  0  0  0  0  0  0
   36.5000    5.7554  -33.4113 H   0  0  0  0  0  0  0  0  0  0  0  0
   36.9719    3.9970  -32.9159 H   0  0  0  0  0  0  0  0  0  0  0  0
    0.8121  -29.3765  -42.1290 H   0  0  0  0  0  0  0  0  0  0  0  0
   -0.8576  -32.7210  -43.0869 H   0  0  0  0  0  0  0  0  0  0  0  0
    2.3000  -31.3818  -41.9519 H   0  0  0  0  0  0  0  0  0  0  0  0
   -0.1248  -32.2917  -41.7387 H   0  0  0  0  0  0  0  0  0  0  0  0
    1.5146  -34.4774  -42.1916 H   0  0  0  0  0  0  0  0  0  0  0  0
    1.9647  -33.3509  -40.8217 H   0  0  0  0  0  0  0  0  0  0  0  0
   -0.4586  -33.4217  -40.1133 H   0  0  0  0  0  0  0  0  0  0  0  0
   -0.6981  -34.7548  -41.2819 H   0  0  0  0  0  0  0  0  0  0  0  0
    1.3579  -35.8829  -40.1565 H   0  0  0  0  0  0  0  0  0  0  0  0
    1.1411  -34.6531  -38.8451 H   0  0  0  0  0  0  0  0  0  0  0  0
   -1.0920  -35.4738  -38.3501 H   0  0  0  0  0  0  0  0  0  0  0  0
   -1.0628  -36.5719  -39.7701 H   0  0  0  0  0  0  0  0  0  0  0  0
    0.9760  -37.7028  -38.7304 H   0  0  0  0  0  0  0  0  0  0  0  0
    0.6668  -36.7145  -37.2499 H   0  0  0  0  0  0  0  0  0  0  0  0
   -0.4884  -38.6595  -36.7065 H   0  0  0  0  0  0  0  0  0  0  0  0
   -1.7919  -37.7073  -37.5086 H   0  0  0  0  0  0  0  0  0  0  0  0
   -1.5829  -39.8980  -37.9651 H   0  0  0  0  0  0  0  0  0  0  0  0
   -2.7886  -39.1850  -38.8716 H   0  0  0  0  0  0  0  0  0  0  0  0
    0.8188  -39.8293  -38.9567 H   0  0  0  0  0  0  0  0  0  0  0  0
    0.2527  -40.7815  -40.4715 H   0  0  0  0  0  0  0  0  0  0  0  0
    1.8912  -41.4658  -40.1513 H   0  0  0  0  0  0  0  0  0  0  0  0
    1.2756  -42.5758  -38.7570 H   0  0  0  0  0  0  0  0  0  0  0  0
    1.9546  -43.1055  -41.3435 H   0  0  0  0  0  0  0  0  0  0  0  0
    1.3869  -44.1115  -39.8610 H   0  0  0  0  0  0  0  0  0  0  0  0
    0.2922  -43.7435  -42.3221 H   0  0  0  0  0  0  0  0  0  0  0  0
   -0.1735  -44.7030  -40.7738 H   0  0  0  0  0  0  0  0  0  0  0  0
   -1.4551  -42.7202  -42.1283 H   0  0  0  0  0  0  0  0  0  0  0  0
   -1.8111  -43.7464  -40.5955 H   0  0  0  0  0  0  0  0  0  0  0  0
   -1.9655  -42.0979  -39.5361 H   0  0  0  0  0  0  0  0  0  0  0  0
   -1.4152  -41.0934  -41.0338 H   0  0  0  0  0  0  0  0  0  0  0  0
  1  3  1  0
  3  4  1  0
  4  2  1  0
  4  5  1  0
  5  6  1  0
  6  7  1  0
  7  8  1  0
  8  9  1  0
  9 10  1  0
 10 11  1  0
 11 12  1  0
 11 13  1  0
 13 14  1  0
 14 15  1  0
 15 16  1  0
 16 17  1  0
 17 18  1  0
 14 19  1  0
 18 19  1  0
 20 22  1  0
 22 23  1  0
 23 21  1  0
 23 24  1  0
 24 25  1  0
 25 26  1  0
 26 27  1  0
 27 28  1  0
 28 29  1  0
 29 30  1  0
 30 31  1  0
 30 32  1  0
 32 33  1  0
 33 34  1  0
 34 35  1  0
 35 36  1  0
 36 37  1  0
 33 38  1  0
 37 38  1  0
 39 41  1  0
 41 42  1  0
 42 40  1  0
 42 43  1  0
 43 44  1  0
 44 45  1  0
 45 46  1  0
 46 47  1  0
 47 48  1  0
 48 49  1  0
 49 50  1  0
 49 51  1  0
 51 52  1  0
 52 53  1  0
 53 54  1  0
 54 55  1  0
 55 56  1  0
 52 57  1  0
 56 57  1  0
  1 58  1  0
  2 59  1  0
  3 60  1  0
  4 61  1  0
  5 62  1  0
  5 63  1  0
  6 64  1  0
  6 65  1  0
  7 66  1  0
  7 67  1  0
  8 68  1  0
  8 69  1  0
  9 70  1  0
  9 71  1  0
 10 72  1  0
 10 73  1  0
 11 74  1  0
 12 75  1  0
 13 76  1  0
 14 77  1  1
 15 78  1  0
 15 79  1  0
 16 80  1  0
 16 81  1  0
 17 82  1  0
 17 83  1  0
 18 84  1  0
 18 85  1  0
 19 86  1  0
 19 87  1  0
 20 88  1  0
 21 89  1  0
 22 90  1  0
 23 91  1  0
 24 92  1  0
 24 93  1  0
 25 94  1  0
 25 95  1  0
 26 96  1  0
 26 97  1  0
 27 98  1  0
 27 99  1  0
 28100  1  0
 28101  1  0
 29102  1  0
 29103  1  0
 30104  1  0
 31105  1  0
 32106  1  0
 33107  1  1
 34108  1  0
 34109  1  0
 35110  1  0
 35111  1  0
 36112  1  0
 36113  1  0
 37114  1  0
 37115  1  0
 38116  1  0
 38117  1  0
 39118  1  0
 40119  1  0
 41120  1  0
 42121  1  1
 43122  1  0
 43123  1  0
 44124  1  0
 44125  1  0
 45126  1  0
 45127  1  0
 46128  1  0
 46129  1  0
 47130  1  0
 47131  1  0
 48132  1  0
 48133  1  0
 49134  1  0
 50135  1  0
 51136  1  0
 52137  1  6
 53138  1  0
 53139  1  0
 54140  1  0
 54141  1  0
 55142  1  0
 55143  1  0
 56144  1  0
 56145  1  0
 57146  1  0
 57147  1  0
M  END
>  <PDBID>  (1) 
4LXZ

>  <PDB ID>  (1) 
4LXZ

>  <Generic Name>  (1) 
Vorinostat

>  <Brand Name>  (1) 
Zolinza

>  <DrugBank ID>  (1) 
DB02546

>  <ATC Codes>  (1) 
L01XX38

>  <Ligand ID>  (1) 
SHH

>  <Target Name>  (1) 
Histone deacetylase 1

>  <UniProt ID>  (1) 
Q13547

>  <PDB ID.1>  (1) 
4LXZ

>  <Seq. Identity>  (1) 
90%

$$$$
