PDB_DB00273_94
     RDKit          3D

 43 45  0  0  0  0  0  0  0  0999 V2000
    3.1010   22.6570  -14.8510 C   0  0  0  0  0  0  0  0  0  0  0  0
    3.0130   21.4610  -15.7930 C   0  0  0  0  0  0  0  0  0  0  0  0
    1.7530   20.6560  -15.5180 C   0  0  0  0  0  0  0  0  0  0  0  0
    4.1810   20.6400  -15.6790 O   0  0  0  0  0  0  0  0  0  0  0  0
    2.9890   21.8680  -17.1670 O   0  0  0  0  0  0  0  0  0  0  0  0
    3.8090   20.9790  -17.9230 C   0  0  1  0  0  0  0  0  0  0  0  0
    4.4130   21.7240  -19.1010 C   0  0  2  0  0  0  0  0  0  0  0  0
    4.9690   20.7560  -19.9750 O   0  0  0  0  0  0  0  0  0  0  0  0
    6.0740   21.3590  -20.6430 C   0  0  0  0  0  0  0  0  0  0  0  0
    5.5900   22.0250  -21.9390 C   0  0  0  0  0  0  0  0  0  0  0  0
    7.1270   20.2930  -20.9160 C   0  0  0  0  0  0  0  0  0  0  0  0
    6.5810   22.3510  -19.7400 O   0  0  0  0  0  0  0  0  0  0  0  0
    5.5670   22.6740  -18.7710 C   0  0  2  0  0  0  0  0  0  0  0  0
    6.1060   22.4950  -17.3440 C   0  0  0  0  0  0  0  0  0  0  0  0
    6.0920   21.0970  -16.9890 O   0  0  0  0  0  0  0  0  0  0  0  0
    4.8220   20.4090  -16.9270 C   0  0  1  0  0  0  0  0  0  0  0  0
    5.0970   18.9060  -17.1060 C   0  0  0  0  0  0  0  0  0  0  0  0
    3.9040   18.1100  -17.2360 O   0  0  0  0  0  0  0  0  0  0  0  0
    3.9900   16.5640  -17.2410 S   0  0  0  0  0  0  0  0  0  0  0  0
    4.3160   16.0790  -15.8780 O   0  0  0  0  0  0  0  0  0  0  0  0
    2.6970   16.1050  -17.7800 O   0  0  0  0  0  0  0  0  0  0  0  0
    5.1490   16.0710  -18.0970 N   0  0  0  0  0  0  0  0  0  0  0  0
    3.0751   22.3057  -13.8089 H   0  0  0  0  0  0  0  0  0  0  0  0
    4.0414   23.1981  -15.0323 H   0  0  0  0  0  0  0  0  0  0  0  0
    2.2499   23.3299  -15.0323 H   0  0  0  0  0  0  0  0  0  0  0  0
    1.6072   20.5628  -14.4317 H   0  0  0  0  0  0  0  0  0  0  0  0
    0.8865   21.1682  -15.9617 H   0  0  0  0  0  0  0  0  0  0  0  0
    1.8536   19.6545  -15.9617 H   0  0  0  0  0  0  0  0  0  0  0  0
    3.2618   20.1417  -18.3807 H   0  0  0  0  0  0  0  0  0  0  0  0
    3.5921   22.3301  -19.5119 H   0  0  0  0  0  0  0  0  0  0  0  0
    4.9598   22.8922  -21.6924 H   0  0  0  0  0  0  0  0  0  0  0  0
    6.4583   22.3580  -22.5265 H   0  0  0  0  0  0  0  0  0  0  0  0
    5.0052   21.3020  -22.5265 H   0  0  0  0  0  0  0  0  0  0  0  0
    7.5111   19.9041  -19.9614 H   0  0  0  0  0  0  0  0  0  0  0  0
    6.6762   19.4713  -21.4919 H   0  0  0  0  0  0  0  0  0  0  0  0
    7.9542   20.7337  -21.4919 H   0  0  0  0  0  0  0  0  0  0  0  0
    5.2381   23.7228  -18.8149 H   0  0  0  0  0  0  0  0  0  0  0  0
    7.1371   22.8746  -17.2927 H   0  0  0  0  0  0  0  0  0  0  0  0
    5.4700   23.0546  -16.6423 H   0  0  0  0  0  0  0  0  0  0  0  0
    5.7056   18.7699  -18.0122 H   0  0  0  0  0  0  0  0  0  0  0  0
    5.6140   18.5637  -16.1974 H   0  0  0  0  0  0  0  0  0  0  0  0
    5.9126   15.7462  -17.4868 H   0  0  0  0  0  0  0  0  0  0  0  0
    4.8300   15.2928  -18.6916 H   0  0  0  0  0  0  0  0  0  0  0  0
  1  2  1  0
  2  3  1  0
  2  4  1  0
  2  5  1  0
  5  6  1  0
  6  7  1  0
  7  8  1  0
  8  9  1  0
  9 10  1  0
  9 11  1  0
  9 12  1  0
  7 13  1  0
 12 13  1  0
 13 14  1  0
 14 15  1  0
  4 16  1  0
  6 16  1  0
 15 16  1  0
 16 17  1  6
 17 18  1  0
 18 19  1  0
 19 20  2  0
 19 21  2  0
 19 22  1  0
  1 23  1  0
  1 24  1  0
  1 25  1  0
  3 26  1  0
  3 27  1  0
  3 28  1  0
  6 29  1  6
  7 30  1  6
 10 31  1  0
 10 32  1  0
 10 33  1  0
 11 34  1  0
 11 35  1  0
 11 36  1  0
 13 37  1  1
 14 38  1  0
 14 39  1  0
 17 40  1  0
 17 41  1  0
 22 42  1  0
 22 43  1  0
M  END
$$$$
