PDB_DB00188_88
     RDKit          3D

 53 54  0  0  0  0  0  0  0  0999 V2000
   20.3210 -164.5310   53.5870 N   0  0  0  0  0  0  0  0  0  0  0  0
   20.7300 -163.3830   54.1530 C   0  0  0  0  0  0  0  0  0  0  0  0
   19.8400 -162.3120   54.2550 C   0  0  0  0  0  0  0  0  0  0  0  0
   18.5300 -162.4180   53.7800 N   0  0  0  0  0  0  0  0  0  0  0  0
   18.1160 -163.6130   53.1940 C   0  0  0  0  0  0  0  0  0  0  0  0
   19.0120 -164.6690   53.0980 C   0  0  0  0  0  0  0  0  0  0  0  0
   22.0390 -163.2750   54.6300 C   0  0  0  0  0  0  0  0  0  0  0  0
   22.8560 -164.1710   54.4180 O   0  0  0  0  0  0  0  0  0  0  0  0
   22.3180 -162.1500   55.3130 N   0  0  0  0  0  0  0  0  0  0  0  0
   23.6310 -161.8660   55.9010 C   0  0  1  0  0  0  0  0  0  0  0  0
   24.0070 -160.4790   55.4290 C   0  0  0  0  0  0  0  0  0  0  0  0
   25.1780 -160.0620   56.0900 C   0  0  0  0  0  0  0  0  0  0  0  0
   26.4080 -160.6420   55.7680 C   0  0  0  0  0  0  0  0  0  0  0  0
   27.5740 -160.2250   56.4110 C   0  0  0  0  0  0  0  0  0  0  0  0
   27.5210 -159.2190   57.3760 C   0  0  0  0  0  0  0  0  0  0  0  0
   26.3000 -158.6290   57.6980 C   0  0  0  0  0  0  0  0  0  0  0  0
   25.1340 -159.0470   57.0550 C   0  0  0  0  0  0  0  0  0  0  0  0
   23.4550 -161.9470   57.4260 C   0  0  0  0  0  0  0  0  0  0  0  0
   22.4720 -161.4310   57.9590 O   0  0  0  0  0  0  0  0  0  0  0  0
   24.4070 -162.6360   58.0890 N   0  0  0  0  0  0  0  0  0  0  0  0
   24.3780 -162.8090   59.5570 C   0  0  1  0  0  0  0  0  0  0  0  0
   24.7660 -164.2190   59.9620 C   0  0  0  0  0  0  0  0  0  0  0  0
   23.9110 -165.2560   59.1970 C   0  0  0  0  0  0  0  0  0  0  0  0
   24.5360 -166.6510   59.3820 C   0  0  0  0  0  0  0  0  0  0  0  0
   22.4510 -165.2620   59.6810 C   0  0  0  0  0  0  0  0  0  0  0  0
   25.3830 -161.8330   60.2220 B   0  0  0  0  0  0  0  0  0  0  0  0
   25.0370 -160.4800   59.9020 O   0  0  0  0  0  0  0  0  0  0  0  0
   26.7110 -162.1090   59.7410 O   0  0  0  0  0  0  0  0  0  0  0  0
   20.1749 -161.3711   54.7160 H   0  0  0  0  0  0  0  0  0  0  0  0
   17.0900 -163.7182   52.8116 H   0  0  0  0  0  0  0  0  0  0  0  0
   18.6956 -165.6166   52.6375 H   0  0  0  0  0  0  0  0  0  0  0  0
   21.5700 -161.4514   55.4290 H   0  0  0  0  0  0  0  0  0  0  0  0
   24.4269 -162.5671   55.6093 H   0  0  0  0  0  0  0  0  0  0  0  0
   24.1845 -160.4962   54.3436 H   0  0  0  0  0  0  0  0  0  0  0  0
   23.1886 -159.7795   55.6546 H   0  0  0  0  0  0  0  0  0  0  0  0
   26.4572 -161.4315   55.0036 H   0  0  0  0  0  0  0  0  0  0  0  0
   28.5375 -160.6907   56.1563 H   0  0  0  0  0  0  0  0  0  0  0  0
   28.4413 -158.8919   57.8820 H   0  0  0  0  0  0  0  0  0  0  0  0
   26.2554 -157.8349   58.4579 H   0  0  0  0  0  0  0  0  0  0  0  0
   24.1727 -158.5759   57.3078 H   0  0  0  0  0  0  0  0  0  0  0  0
   25.1805 -163.0559   57.5540 H   0  0  0  0  0  0  0  0  0  0  0  0
   23.3490 -162.6053   59.8882 H   0  0  0  0  0  0  0  0  0  0  0  0
   25.8285 -164.3832   59.7292 H   0  0  0  0  0  0  0  0  0  0  0  0
   24.5915 -164.3403   61.0413 H   0  0  0  0  0  0  0  0  0  0  0  0
   23.9000 -164.9817   58.1318 H   0  0  0  0  0  0  0  0  0  0  0  0
   24.6339 -166.8695   60.4556 H   0  0  0  0  0  0  0  0  0  0  0  0
   23.8907 -167.4073   58.9113 H   0  0  0  0  0  0  0  0  0  0  0  0
   25.5299 -166.6728   58.9113 H   0  0  0  0  0  0  0  0  0  0  0  0
   22.4293 -165.2621   60.7808 H   0  0  0  0  0  0  0  0  0  0  0  0
   21.9361 -164.3660   59.3042 H   0  0  0  0  0  0  0  0  0  0  0  0
   21.9435 -166.1622   59.3042 H   0  0  0  0  0  0  0  0  0  0  0  0
   24.9057 -159.9664   60.7381 H   0  0  0  0  0  0  0  0  0  0  0  0
   27.3209 -162.2358   60.5104 H   0  0  0  0  0  0  0  0  0  0  0  0
  1  2  2  0
  2  3  1  0
  3  4  2  0
  4  5  1  0
  1  6  1  0
  5  6  2  0
  2  7  1  0
  7  8  2  0
  7  9  1  0
  9 10  1  0
 10 11  1  0
 11 12  1  0
 12 13  2  0
 13 14  1  0
 14 15  2  0
 15 16  1  0
 12 17  1  0
 16 17  2  0
 10 18  1  0
 18 19  2  0
 18 20  1  0
 20 21  1  0
 21 22  1  0
 22 23  1  0
 23 24  1  0
 23 25  1  0
 21 26  1  0
 26 27  1  0
 26 28  1  0
  3 29  1  0
  5 30  1  0
  6 31  1  0
  9 32  1  0
 10 33  1  6
 11 34  1  0
 11 35  1  0
 13 36  1  0
 14 37  1  0
 15 38  1  0
 16 39  1  0
 17 40  1  0
 20 41  1  0
 21 42  1  1
 22 43  1  0
 22 44  1  0
 23 45  1  0
 24 46  1  0
 24 47  1  0
 24 48  1  0
 25 49  1  0
 25 50  1  0
 25 51  1  0
 27 52  1  0
 28 53  1  0
M  END
$$$$
