PDB_DB00396_90
     RDKit          3D

 53 56  0  0  0  0  0  0  0  0999 V2000
  124.5740   49.2290   -6.4920 C   0  0  0  0  0  0  0  0  0  0  0  0
  123.9920   50.5860   -6.8680 C   0  0  0  0  0  0  0  0  0  0  0  0
  122.7480   50.4690   -7.7740 C   0  0  0  0  0  0  0  0  0  0  0  0
  122.6290   51.3430   -8.6230 O   0  0  0  0  0  0  0  0  0  0  0  0
  121.7830   49.3530   -7.6830 C   0  0  0  0  0  0  0  0  0  0  0  0
  122.0700   48.2710   -6.6590 C   0  0  0  0  0  0  0  0  0  0  0  0
  121.0610   47.1060   -6.4400 C   0  0  0  0  0  0  0  0  0  0  0  0
  121.7700   45.7720   -6.2870 C   0  0  0  0  0  0  0  0  0  0  0  0
  122.8950   45.6790   -5.3080 C   0  0  2  0  0  0  0  0  0  0  0  0
  124.0840   46.7830   -5.7610 C   0  0  1  0  0  0  0  0  0  0  0  0
  123.5350   48.2120   -5.8040 C   0  0  1  0  0  0  0  0  0  0  0  0
  125.4460   46.6400   -4.8700 C   0  0  0  0  0  0  0  0  0  0  0  0
  125.9480   45.2220   -4.7680 C   0  0  0  0  0  0  0  0  0  0  0  0
  124.7730   44.1290   -4.2030 C   0  0  1  0  0  0  0  0  0  0  0  0
  123.5550   44.1730   -5.2450 C   0  0  1  0  0  0  0  0  0  0  0  0
  122.6480   42.9420   -4.7540 C   0  0  0  0  0  0  0  0  0  0  0  0
  123.6490   41.9520   -4.2390 C   0  0  0  0  0  0  0  0  0  0  0  0
  125.0450   42.6140   -4.3980 C   0  0  2  0  0  0  0  0  0  0  0  0
  124.3590   44.5210   -2.6170 C   0  0  0  0  0  0  0  0  0  0  0  0
  123.1600   48.7370   -4.2420 C   0  0  0  0  0  0  0  0  0  0  0  0
  126.2140   41.9500   -3.6090 C   0  0  0  0  0  0  0  0  0  0  0  0
  125.9580   41.1560   -2.6740 O   0  0  0  0  0  0  0  0  0  0  0  0
  127.7050   42.2790   -3.9120 C   0  0  0  0  0  0  0  0  0  0  0  0
  124.9583   48.7566   -7.4081 H   0  0  0  0  0  0  0  0  0  0  0  0
  125.3545   49.4258   -5.7423 H   0  0  0  0  0  0  0  0  0  0  0  0
  123.7078   51.1149   -5.9463 H   0  0  0  0  0  0  0  0  0  0  0  0
  124.7625   51.1343   -7.4299 H   0  0  0  0  0  0  0  0  0  0  0  0
  120.8946   49.3089   -8.3302 H   0  0  0  0  0  0  0  0  0  0  0  0
  120.4772   47.3062   -5.5295 H   0  0  0  0  0  0  0  0  0  0  0  0
  120.4066   47.0480   -7.3223 H   0  0  0  0  0  0  0  0  0  0  0  0
  121.0131   45.0330   -5.9854 H   0  0  0  0  0  0  0  0  0  0  0  0
  122.2444   45.6016   -7.2647 H   0  0  0  0  0  0  0  0  0  0  0  0
  122.4953   45.9022   -4.3078 H   0  0  0  0  0  0  0  0  0  0  0  0
  124.3857   46.5342   -6.7892 H   0  0  0  0  0  0  0  0  0  0  0  0
  126.2316   47.2557   -5.3324 H   0  0  0  0  0  0  0  0  0  0  0  0
  125.2036   46.9731   -3.8501 H   0  0  0  0  0  0  0  0  0  0  0  0
  126.2767   44.8958   -5.7657 H   0  0  0  0  0  0  0  0  0  0  0  0
  126.7711   45.2203   -4.0382 H   0  0  0  0  0  0  0  0  0  0  0  0
  123.7944   44.0323   -6.3094 H   0  0  0  0  0  0  0  0  0  0  0  0
  121.9588   43.2554   -3.9560 H   0  0  0  0  0  0  0  0  0  0  0  0
  122.0132   42.5324   -5.5535 H   0  0  0  0  0  0  0  0  0  0  0  0
  123.4526   41.7287   -3.1800 H   0  0  0  0  0  0  0  0  0  0  0  0
  123.5926   41.0037   -4.7937 H   0  0  0  0  0  0  0  0  0  0  0  0
  125.4841   42.4457   -5.3924 H   0  0  0  0  0  0  0  0  0  0  0  0
  124.9776   43.9353   -1.9211 H   0  0  0  0  0  0  0  0  0  0  0  0
  124.5321   45.5940   -2.4474 H   0  0  0  0  0  0  0  0  0  0  0  0
  123.2971   44.2896   -2.4474 H   0  0  0  0  0  0  0  0  0  0  0  0
  123.6358   48.0709   -3.5072 H   0  0  0  0  0  0  0  0  0  0  0  0
  123.5309   49.7629   -4.1011 H   0  0  0  0  0  0  0  0  0  0  0  0
  122.0692   48.7189   -4.1011 H   0  0  0  0  0  0  0  0  0  0  0  0
  128.2533   42.4000   -2.9661 H   0  0  0  0  0  0  0  0  0  0  0  0
  128.1512   41.4577   -4.4920 H   0  0  0  0  0  0  0  0  0  0  0  0
  127.7641   43.2118   -4.4920 H   0  0  0  0  0  0  0  0  0  0  0  0
  1  2  1  0
  2  3  1  0
  3  4  2  0
  3  5  1  0
  5  6  2  0
  6  7  1  0
  7  8  1  0
  8  9  1  0
  9 10  1  0
  1 11  1  0
  6 11  1  0
 10 11  1  0
 10 12  1  0
 12 13  1  0
 13 14  1  0
  9 15  1  0
 14 15  1  0
 15 16  1  0
 16 17  1  0
 14 18  1  0
 17 18  1  0
 14 19  1  1
 11 20  1  1
 18 21  1  0
 21 22  2  0
 21 23  1  0
  1 24  1  0
  1 25  1  0
  2 26  1  0
  2 27  1  0
  5 28  1  0
  7 29  1  0
  7 30  1  0
  8 31  1  0
  8 32  1  0
  9 33  1  1
 10 34  1  6
 12 35  1  0
 12 36  1  0
 13 37  1  0
 13 38  1  0
 15 39  1  6
 16 40  1  0
 16 41  1  0
 17 42  1  0
 17 43  1  0
 18 44  1  6
 19 45  1  0
 19 46  1  0
 19 47  1  0
 20 48  1  0
 20 49  1  0
 20 50  1  0
 23 51  1  0
 23 52  1  0
 23 53  1  0
M  END
$$$$
