PDB_DB00147_99
     RDKit          3D

 58 58  0  0  0  0  0  0  0  0999 V2000
   28.1110    3.9630   39.7420 O   0  0  0  0  0  0  0  0  0  0  0  0
   28.9840    4.8050   40.4600 C   0  0  0  0  0  0  0  0  0  0  0  0
   29.4290    5.9770   39.5890 C   0  0  0  0  0  0  0  0  0  0  0  0
   28.8690    7.2800   39.8150 C   0  0  0  0  0  0  0  0  0  0  0  0
   29.2840    8.3750   39.0030 N   0  0  0  0  0  0  0  0  0  0  0  0
   30.2480    8.2130   37.9620 C   0  0  0  0  0  0  0  0  0  0  0  0
   30.8310    6.9110   37.7080 C   0  0  0  0  0  0  0  0  0  0  0  0
   30.4170    5.7670   38.5340 C   0  0  0  0  0  0  0  0  0  0  0  0
   30.9940    4.3260   38.3290 C   0  0  0  0  0  0  0  0  0  0  0  0
   31.8450    4.1180   37.4270 O   0  0  0  0  0  0  0  0  0  0  0  0
   31.7740    6.7650   36.6870 O   0  0  0  0  0  0  0  0  0  0  0  0
   30.6510    9.4310   37.1260 C   0  0  0  0  0  0  0  0  0  0  0  0
   11.8660   27.6840   29.8590 O   0  0  0  0  0  0  0  0  0  0  0  0
   13.1180   27.9420   29.2590 C   0  0  0  0  0  0  0  0  0  0  0  0
   14.2310   28.0450   30.2820 C   0  0  0  0  0  0  0  0  0  0  0  0
   15.4440   27.3410   30.0130 C   0  0  0  0  0  0  0  0  0  0  0  0
   16.5090   27.4080   30.9430 N   0  0  0  0  0  0  0  0  0  0  0  0
   16.3990   28.1670   32.1490 C   0  0  0  0  0  0  0  0  0  0  0  0
   15.1970   28.8880   32.4460 C   0  0  0  0  0  0  0  0  0  0  0  0
   14.0850   28.8430   31.5160 C   0  0  0  0  0  0  0  0  0  0  0  0
   12.7620   29.6150   31.7980 C   0  0  0  0  0  0  0  0  0  0  0  0
   12.6260   30.2980   32.8280 O   0  0  0  0  0  0  0  0  0  0  0  0
   15.1220   29.6130   33.6130 O   0  0  0  0  0  0  0  0  0  0  0  0
   17.5790   28.2030   33.1170 C   0  0  0  0  0  0  0  0  0  0  0  0
   27.5644    3.4358   40.3771 H   0  0  0  0  0  0  0  0  0  0  0  0
   28.4650    5.1911   41.3497 H   0  0  0  0  0  0  0  0  0  0  0  0
   29.8704    4.2270   40.7606 H   0  0  0  0  0  0  0  0  0  0  0  0
   28.6217    5.7537   38.8760 H   0  0  0  0  0  0  0  0  0  0  0  0
   27.7800    7.1855   39.6916 H   0  0  0  0  0  0  0  0  0  0  0  0
   29.2373    7.5481   40.8162 H   0  0  0  0  0  0  0  0  0  0  0  0
   28.4325    8.7426   38.5549 H   0  0  0  0  0  0  0  0  0  0  0  0
   31.0555    8.4354   38.6751 H   0  0  0  0  0  0  0  0  0  0  0  0
   31.6386    7.1335   38.4210 H   0  0  0  0  0  0  0  0  0  0  0  0
   29.6089    5.5449   37.8215 H   0  0  0  0  0  0  0  0  0  0  0  0
   31.4594    4.0304   39.2809 H   0  0  0  0  0  0  0  0  0  0  0  0
   30.1209    3.7456   37.9960 H   0  0  0  0  0  0  0  0  0  0  0  0
   32.7188    3.9044   37.8406 H   0  0  0  0  0  0  0  0  0  0  0  0
   32.6706    6.6262   37.0832 H   0  0  0  0  0  0  0  0  0  0  0  0
   30.9254   10.2602   37.7947 H   0  0  0  0  0  0  0  0  0  0  0  0
   31.5113    9.1718   36.4914 H   0  0  0  0  0  0  0  0  0  0  0  0
   29.8059    9.7360   36.4914 H   0  0  0  0  0  0  0  0  0  0  0  0
   11.9618   27.7038   30.8442 H   0  0  0  0  0  0  0  0  0  0  0  0
   13.3521   27.1242   28.5615 H   0  0  0  0  0  0  0  0  0  0  0  0
   13.0497   28.9068   28.7351 H   0  0  0  0  0  0  0  0  0  0  0  0
   13.8338   27.1615   30.8031 H   0  0  0  0  0  0  0  0  0  0  0  0
   15.1802   26.2786   29.9045 H   0  0  0  0  0  0  0  0  0  0  0  0
   15.8454   27.8480   29.1232 H   0  0  0  0  0  0  0  0  0  0  0  0
   16.7087   26.4382   31.2269 H   0  0  0  0  0  0  0  0  0  0  0  0
   16.8003   29.0499   31.6300 H   0  0  0  0  0  0  0  0  0  0  0  0
   15.5973   29.7701   31.9247 H   0  0  0  0  0  0  0  0  0  0  0  0
   13.6838   27.9619   32.0383 H   0  0  0  0  0  0  0  0  0  0  0  0
   12.6108   30.2970   30.9483 H   0  0  0  0  0  0  0  0  0  0  0  0
   12.0356   28.8028   31.9488 H   0  0  0  0  0  0  0  0  0  0  0  0
   12.7409   29.7209   33.6242 H   0  0  0  0  0  0  0  0  0  0  0  0
   15.1855   28.9994   34.3873 H   0  0  0  0  0  0  0  0  0  0  0  0
   17.2051   28.1916   34.1515 H   0  0  0  0  0  0  0  0  0  0  0  0
   18.2184   27.3239   32.9485 H   0  0  0  0  0  0  0  0  0  0  0  0
   18.1637   29.1194   32.9485 H   0  0  0  0  0  0  0  0  0  0  0  0
  1  2  1  0
  2  3  1  0
  3  4  1  0
  4  5  1  0
  5  6  1  0
  6  7  1  0
  3  8  1  0
  7  8  1  0
  8  9  1  0
  9 10  1  0
  7 11  1  0
  6 12  1  0
 13 14  1  0
 14 15  1  0
 15 16  1  0
 16 17  1  0
 17 18  1  0
 18 19  1  0
 15 20  1  0
 19 20  1  0
 20 21  1  0
 21 22  1  0
 19 23  1  0
 18 24  1  0
  1 25  1  0
  2 26  1  0
  2 27  1  0
  3 28  1  0
  4 29  1  0
  4 30  1  0
  5 31  1  0
  6 32  1  0
  7 33  1  0
  8 34  1  0
  9 35  1  0
  9 36  1  0
 10 37  1  0
 11 38  1  0
 12 39  1  0
 12 40  1  0
 12 41  1  0
 13 42  1  0
 14 43  1  0
 14 44  1  0
 15 45  1  0
 16 46  1  0
 16 47  1  0
 17 48  1  0
 18 49  1  0
 19 50  1  0
 20 51  1  0
 21 52  1  0
 21 53  1  0
 22 54  1  0
 23 55  1  0
 24 56  1  0
 24 57  1  0
 24 58  1  0
M  END
>  <PDBID>  (1) 
3FHX

>  <PDB ID>  (1) 
3FHX

>  <Generic Name>  (1) 
Pyridoxal

>  <Brand Name>  (1) 
nan

>  <DrugBank ID>  (1) 
DB00147

>  <ATC Codes>  (1) 
nan

>  <Ligand ID>  (1) 
PXL

>  <Target Name>  (1) 
Pyridoxal kinase

>  <UniProt ID>  (1) 
O00764

>  <PDB ID.1>  (1) 
3FHX

>  <Seq. Identity>  (1) 
100%

$$$$
