PDB_DB00819_84
     RDKit          3D

 19 19  0  0  0  0  0  0  0  0999 V2000
   42.9740   58.4670   38.0890 C   0  0  0  0  0  0  0  0  0  0  0  0
   41.5570   59.4150   36.4870 C   0  0  0  0  0  0  0  0  0  0  0  0
   41.2780   61.3930   35.0420 C   0  0  0  0  0  0  0  0  0  0  0  0
   40.2750   62.0910   34.1830 C   0  0  0  0  0  0  0  0  0  0  0  0
   43.6500   58.0400   40.6920 N   0  0  0  0  0  0  0  0  0  0  0  0
   41.1160   58.2530   36.9150 N   0  0  0  0  0  0  0  0  0  0  0  0
   41.9610   57.7010   37.8610 N   0  0  0  0  0  0  0  0  0  0  0  0
   40.8740   60.1540   35.5390 N   0  0  0  0  0  0  0  0  0  0  0  0
   44.6370   56.7280   38.8980 O   0  0  0  0  0  0  0  0  0  0  0  0
   45.1950   59.1300   39.1600 O   0  0  0  0  0  0  0  0  0  0  0  0
   42.3760   61.8510   35.3060 O   0  0  0  0  0  0  0  0  0  0  0  0
   44.2580   58.0570   39.2490 S   0  0  0  0  0  0  0  0  0  0  0  0
   43.0290   59.9230   37.2020 S   0  0  0  0  0  0  0  0  0  0  0  0
   39.5392   62.6030   34.8206 H   0  0  0  0  0  0  0  0  0  0  0  0
   40.7866   62.8292   33.5479 H   0  0  0  0  0  0  0  0  0  0  0  0
   39.7605   61.3548   33.5479 H   0  0  0  0  0  0  0  0  0  0  0  0
   44.4112   58.0613   41.3856 H   0  0  0  0  0  0  0  0  0  0  0  0
   43.0459   58.8644   40.8198 H   0  0  0  0  0  0  0  0  0  0  0  0
   39.9973   59.7582   35.1705 H   0  0  0  0  0  0  0  0  0  0  0  0
  3  4  1  0
  2  6  2  0
  1  7  2  0
  6  7  1  0
  2  8  1  0
  3  8  1  0
  3 11  2  0
  1 12  1  0
  5 12  1  0
  9 12  2  0
 10 12  2  0
  1 13  1  0
  2 13  1  0
  4 14  1  0
  4 15  1  0
  4 16  1  0
  5 17  1  0
  5 18  1  0
  8 19  1  0
M  END
$$$$
