PDB_DB00421_92
     RDKit          3D

 61 65  0  0  0  0  0  0  0  0999 V2000
  -22.8190   56.1280   49.2890 C   0  0  0  0  0  0  0  0  0  0  0  0
  -21.6140   59.8610   50.0690 C   0  0  0  0  0  0  0  0  0  0  0  0
  -21.7310   58.3780   49.2640 C   0  0  1  0  0  0  0  0  0  0  0  0
  -17.6950   59.7910   51.0080 C   0  0  1  0  0  0  0  0  0  0  0  0
  -20.9020   57.3450   50.1850 C   0  0  1  0  0  0  0  0  0  0  0  0
  -17.5800   61.2670   51.7960 C   0  0  0  0  0  0  0  0  0  0  0  0
  -20.1670   60.3430   50.2060 C   0  0  0  0  0  0  0  0  0  0  0  0
  -21.3430   55.9030   49.7280 C   0  0  0  0  0  0  0  0  0  0  0  0
  -23.1680   57.6360   49.3210 C   0  0  2  0  0  0  0  0  0  0  0  0
  -21.1630   58.4930   47.7070 C   0  0  0  0  0  0  0  0  0  0  0  0
  -17.0350   59.9130   49.5270 C   0  0  0  0  0  0  0  0  0  0  0  0
  -16.1850   61.6470   52.3100 C   0  0  0  0  0  0  0  0  0  0  0  0
  -24.1770   57.9720   50.5110 C   0  0  0  0  0  0  0  0  0  0  0  0
  -25.4360   58.6590   49.8050 C   0  0  0  0  0  0  0  0  0  0  0  0
  -24.9550   58.8250   48.3360 C   0  0  0  0  0  0  0  0  0  0  0  0
  -18.4490   54.9950   53.6090 C   0  0  0  0  0  0  0  0  0  0  0  0
  -18.5000   54.5230   55.0860 C   0  0  0  0  0  0  0  0  0  0  0  0
  -15.4890   60.3640   53.0980 C   0  0  0  0  0  0  0  0  0  0  0  0
  -15.8470   58.9640   52.7600 C   0  0  0  0  0  0  0  0  0  0  0  0
  -16.7880   58.6620   51.7250 C   0  0  0  0  0  0  0  0  0  0  0  0
  -17.0210   57.1060   51.3200 C   0  0  0  0  0  0  0  0  0  0  0  0
  -18.5080   56.7410   51.1730 C   0  0  2  0  0  0  0  0  0  0  0  0
  -19.3510   57.7360   50.3260 C   0  0  2  0  0  0  0  0  0  0  0  0
  -19.2020   59.2960   50.9130 C   0  0  1  0  0  0  0  0  0  0  0  0
  -25.3210   59.7280   47.5410 O   0  0  0  0  0  0  0  0  0  0  0  0
  -24.0530   57.9110   48.0770 O   0  0  0  0  0  0  0  0  0  0  0  0
  -17.7770   54.3310   52.8500 O   0  0  0  0  0  0  0  0  0  0  0  0
  -14.6730   60.5780   54.0400 O   0  0  0  0  0  0  0  0  0  0  0  0
  -19.2570   56.4470   52.9580 S   0  0  0  0  0  0  0  0  0  0  0  0
  -22.9552   55.7461   48.2664 H   0  0  0  0  0  0  0  0  0  0  0  0
  -23.4833   55.5933   49.9839 H   0  0  0  0  0  0  0  0  0  0  0  0
  -22.1845   60.6140   49.5054 H   0  0  0  0  0  0  0  0  0  0  0  0
  -22.0170   59.7228   51.0831 H   0  0  0  0  0  0  0  0  0  0  0  0
  -21.1409   57.3885   51.2579 H   0  0  0  0  0  0  0  0  0  0  0  0
  -17.9051   62.0495   51.0945 H   0  0  0  0  0  0  0  0  0  0  0  0
  -18.2119   61.1755   52.6918 H   0  0  0  0  0  0  0  0  0  0  0  0
  -19.7746   60.5505   49.1995 H   0  0  0  0  0  0  0  0  0  0  0  0
  -20.1885   61.2384   50.8446 H   0  0  0  0  0  0  0  0  0  0  0  0
  -21.2801   55.1855   50.5594 H   0  0  0  0  0  0  0  0  0  0  0  0
  -20.7084   55.4801   48.9353 H   0  0  0  0  0  0  0  0  0  0  0  0
  -20.0850   58.7113   47.7251 H   0  0  0  0  0  0  0  0  0  0  0  0
  -21.3357   57.5417   47.1825 H   0  0  0  0  0  0  0  0  0  0  0  0
  -21.6922   59.3022   47.1825 H   0  0  0  0  0  0  0  0  0  0  0  0
  -15.9573   60.1122   49.6211 H   0  0  0  0  0  0  0  0  0  0  0  0
  -17.1874   58.9715   48.9790 H   0  0  0  0  0  0  0  0  0  0  0  0
  -17.5139   60.7378   48.9790 H   0  0  0  0  0  0  0  0  0  0  0  0
  -15.5515   61.9361   51.4585 H   0  0  0  0  0  0  0  0  0  0  0  0
  -16.2808   62.4877   53.0129 H   0  0  0  0  0  0  0  0  0  0  0  0
  -24.4804   57.0519   51.0320 H   0  0  0  0  0  0  0  0  0  0  0  0
  -23.7198   58.6265   51.2677 H   0  0  0  0  0  0  0  0  0  0  0  0
  -26.3240   58.0123   49.8610 H   0  0  0  0  0  0  0  0  0  0  0  0
  -25.7373   59.6065   50.2756 H   0  0  0  0  0  0  0  0  0  0  0  0
  -18.4060   55.3931   55.7524 H   0  0  0  0  0  0  0  0  0  0  0  0
  -19.4580   54.0171   55.2764 H   0  0  0  0  0  0  0  0  0  0  0  0
  -17.6721   53.8241   55.2764 H   0  0  0  0  0  0  0  0  0  0  0  0
  -15.3784   58.1397   53.3177 H   0  0  0  0  0  0  0  0  0  0  0  0
  -16.5161   56.9135   50.3618 H   0  0  0  0  0  0  0  0  0  0  0  0
  -16.6087   56.4887   52.1318 H   0  0  0  0  0  0  0  0  0  0  0  0
  -18.5616   55.8140   50.5832 H   0  0  0  0  0  0  0  0  0  0  0  0
  -18.9305   57.6746   49.3114 H   0  0  0  0  0  0  0  0  0  0  0  0
  -19.5584   59.2425   51.9523 H   0  0  0  0  0  0  0  0  0  0  0  0
  2  3  1  0
  3  5  1  0
  4  6  1  0
  2  7  1  0
  1  8  1  0
  5  8  1  0
  1  9  1  0
  3  9  1  0
  3 10  1  6
  4 11  1  6
  6 12  1  0
  9 13  1  0
 13 14  1  0
 14 15  1  0
 16 17  1  0
 12 18  1  0
 18 19  1  0
  4 20  1  0
 19 20  2  0
 20 21  1  0
 21 22  1  0
  5 23  1  0
 22 23  1  0
  4 24  1  0
  7 24  1  0
 23 24  1  0
 15 25  2  0
  9 26  1  6
 15 26  1  0
 16 27  2  0
 18 28  2  0
 16 29  1  0
 22 29  1  0
  1 30  1  0
  1 31  1  0
  2 32  1  0
  2 33  1  0
  5 34  1  1
  6 35  1  0
  6 36  1  0
  7 37  1  0
  7 38  1  0
  8 39  1  0
  8 40  1  0
 10 41  1  0
 10 42  1  0
 10 43  1  0
 11 44  1  0
 11 45  1  0
 11 46  1  0
 12 47  1  0
 12 48  1  0
 13 49  1  0
 13 50  1  0
 14 51  1  0
 14 52  1  0
 17 53  1  0
 17 54  1  0
 17 55  1  0
 19 56  1  0
 21 57  1  0
 21 58  1  0
 22 59  1  6
 23 60  1  6
 24 61  1  1
M  END
$$$$
