PDB_DB00481_99
     RDKit          3D

166174  0  0  0  0  0  0  0  0999 V2000
   44.5780   -0.5720   16.5810 C   0  0  0  0  0  0  0  0  0  0  0  0
   44.6000    0.8200   16.6580 C   0  0  0  0  0  0  0  0  0  0  0  0
   43.4920    1.6080   16.3280 C   0  0  0  0  0  0  0  0  0  0  0  0
   43.6390    2.9510   16.4490 O   0  0  0  0  0  0  0  0  0  0  0  0
   42.2740    1.0600   15.8750 C   0  0  0  0  0  0  0  0  0  0  0  0
   42.1870   -0.3310   15.7770 C   0  0  0  0  0  0  0  0  0  0  0  0
   40.8350   -1.2030   15.2450 S   0  0  0  0  0  0  0  0  0  0  0  0
   41.6150   -2.7420   15.4440 C   0  0  1  0  0  0  0  0  0  0  0  0
   40.9560   -4.0190   15.0780 C   0  0  1  0  0  0  0  0  0  0  0  0
   40.3770   -4.1010   13.7960 C   0  0  0  0  0  0  0  0  0  0  0  0
   39.8080   -5.3010   13.3730 C   0  0  0  0  0  0  0  0  0  0  0  0
   39.8370   -6.3980   14.2340 C   0  0  0  0  0  0  0  0  0  0  0  0
   39.3030   -7.5710   13.8110 O   0  0  0  0  0  0  0  0  0  0  0  0
   40.4300   -6.3280   15.4890 C   0  0  0  0  0  0  0  0  0  0  0  0
   41.0140   -5.1360   15.9180 C   0  0  0  0  0  0  0  0  0  0  0  0
   43.3780   -1.1430   16.1280 C   0  0  0  0  0  0  0  0  0  0  0  0
   42.9930   -2.5390   15.9020 C   0  0  0  0  0  0  0  0  0  0  0  0
   43.9500   -3.6370   16.1760 C   0  0  0  0  0  0  0  0  0  0  0  0
   44.4080   -4.2840   15.2640 O   0  0  0  0  0  0  0  0  0  0  0  0
   44.2820   -3.9200   17.5960 C   0  0  0  0  0  0  0  0  0  0  0  0
   45.3870   -4.7040   17.9090 C   0  0  0  0  0  0  0  0  0  0  0  0
   45.6890   -4.9620   19.2460 C   0  0  0  0  0  0  0  0  0  0  0  0
   44.8970   -4.3980   20.2570 C   0  0  0  0  0  0  0  0  0  0  0  0
   43.7950   -3.6120   19.9210 C   0  0  0  0  0  0  0  0  0  0  0  0
   43.4860   -3.3580   18.5960 C   0  0  0  0  0  0  0  0  0  0  0  0
   45.1570   -4.6330   21.5920 O   0  0  0  0  0  0  0  0  0  0  0  0
   46.4230   -5.1250   21.9940 C   0  0  0  0  0  0  0  0  0  0  0  0
   46.3410   -5.4820   23.4650 C   0  0  0  0  0  0  0  0  0  0  0  0
   46.6310   -4.3010   24.2730 N   0  0  0  0  0  0  0  0  0  0  0  0
   46.9840   -4.8140   25.6160 C   0  0  0  0  0  0  0  0  0  0  0  0
   47.2830   -3.7070   26.6130 C   0  0  0  0  0  0  0  0  0  0  0  0
   46.0790   -2.7680   26.6700 C   0  0  0  0  0  0  0  0  0  0  0  0
   45.6560   -2.2640   25.2850 C   0  0  0  0  0  0  0  0  0  0  0  0
   45.4260   -3.4410   24.3200 C   0  0  0  0  0  0  0  0  0  0  0  0
   14.2520  -16.7940   24.2330 C   0  0  0  0  0  0  0  0  0  0  0  0
   13.0510  -16.1320   23.9550 C   0  0  0  0  0  0  0  0  0  0  0  0
   12.8980  -14.7420   24.1330 C   0  0  0  0  0  0  0  0  0  0  0  0
   11.6900  -14.1650   23.8190 O   0  0  0  0  0  0  0  0  0  0  0  0
   13.9530  -13.9330   24.6050 C   0  0  0  0  0  0  0  0  0  0  0  0
   15.1740  -14.5470   24.9110 C   0  0  0  0  0  0  0  0  0  0  0  0
   16.5720  -13.7440   25.4910 S   0  0  0  0  0  0  0  0  0  0  0  0
   17.4880  -15.2090   25.5430 C   0  0  1  0  0  0  0  0  0  0  0  0
   18.8760  -15.2210   26.0600 C   0  0  1  0  0  0  0  0  0  0  0  0
   19.1340  -14.5840   27.2960 C   0  0  0  0  0  0  0  0  0  0  0  0
   20.4220  -14.6540   27.8420 C   0  0  0  0  0  0  0  0  0  0  0  0
   21.4220  -15.3680   27.1620 C   0  0  0  0  0  0  0  0  0  0  0  0
   22.6870  -15.4410   27.6830 O   0  0  0  0  0  0  0  0  0  0  0  0
   21.1480  -16.0240   25.9600 C   0  0  0  0  0  0  0  0  0  0  0  0
   19.8640  -15.9580   25.4140 C   0  0  0  0  0  0  0  0  0  0  0  0
   15.3020  -16.0120   24.7010 C   0  0  0  0  0  0  0  0  0  0  0  0
   16.6700  -16.3570   25.1070 C   0  0  1  0  0  0  0  0  0  0  0  0
   17.1810  -17.7460   25.0170 C   0  0  1  0  0  0  0  0  0  0  0  0
   17.4890  -18.3580   26.0240 O   0  0  0  0  0  0  0  0  0  0  0  0
   17.4160  -18.3030   23.6450 C   0  0  0  0  0  0  0  0  0  0  0  0
   17.6080  -19.6740   23.4650 C   0  0  0  0  0  0  0  0  0  0  0  0
   17.8360  -20.1860   22.1860 C   0  0  0  0  0  0  0  0  0  0  0  0
   17.8740  -19.3200   21.0910 C   0  0  0  0  0  0  0  0  0  0  0  0
   17.6820  -17.9380   21.2670 C   0  0  0  0  0  0  0  0  0  0  0  0
   17.4590  -17.4210   22.5370 C   0  0  0  0  0  0  0  0  0  0  0  0
   18.1150  -19.8000   19.8340 O   0  0  0  0  0  0  0  0  0  0  0  0
   17.7890  -21.1580   19.5400 C   0  0  0  0  0  0  0  0  0  0  0  0
   18.2100  -21.5090   18.1270 C   0  0  0  0  0  0  0  0  0  0  0  0
   17.1250  -21.2670   17.1770 N   0  0  0  0  0  0  0  0  0  0  0  0
   17.5450  -21.8500   15.8840 C   0  0  0  0  0  0  0  0  0  0  0  0
   16.4780  -21.6820   14.8090 C   0  0  0  0  0  0  0  0  0  0  0  0
   16.1520  -20.2020   14.6450 C   0  0  0  0  0  0  0  0  0  0  0  0
   15.7770  -19.5460   15.9760 C   0  0  0  0  0  0  0  0  0  0  0  0
   16.8300  -19.8250   17.0510 C   0  0  0  0  0  0  0  0  0  0  0  0
   45.3795   -0.8842   15.8953 H   0  0  0  0  0  0  0  0  0  0  0  0
   44.7058   -0.9289   17.6136 H   0  0  0  0  0  0  0  0  0  0  0  0
   44.8492    1.0645   17.7011 H   0  0  0  0  0  0  0  0  0  0  0  0
   45.3082    1.0793   15.8572 H   0  0  0  0  0  0  0  0  0  0  0  0
   43.1423    1.5524   17.3695 H   0  0  0  0  0  0  0  0  0  0  0  0
   43.6657    3.1950   17.4081 H   0  0  0  0  0  0  0  0  0  0  0  0
   41.4864    1.3909   16.5679 H   0  0  0  0  0  0  0  0  0  0  0  0
   42.1738    1.4196   14.8403 H   0  0  0  0  0  0  0  0  0  0  0  0
   41.8123   -0.3803   16.8100 H   0  0  0  0  0  0  0  0  0  0  0  0
   41.2017   -2.8200   16.4604 H   0  0  0  0  0  0  0  0  0  0  0  0
   40.0047   -3.6443   15.4837 H   0  0  0  0  0  0  0  0  0  0  0  0
   39.5844   -3.3394   13.7541 H   0  0  0  0  0  0  0  0  0  0  0  0
   41.2333   -3.9693   13.1182 H   0  0  0  0  0  0  0  0  0  0  0  0
   38.7514   -5.0957   13.1462 H   0  0  0  0  0  0  0  0  0  0  0  0
   40.4380   -5.6105   12.5260 H   0  0  0  0  0  0  0  0  0  0  0  0
   38.8605   -6.1015   14.6446 H   0  0  0  0  0  0  0  0  0  0  0  0
   39.0525   -8.1213   14.5949 H   0  0  0  0  0  0  0  0  0  0  0  0
   39.6513   -6.5825   16.2230 H   0  0  0  0  0  0  0  0  0  0  0  0
   41.2863   -7.0131   15.4031 H   0  0  0  0  0  0  0  0  0  0  0  0
   42.0775   -5.3455   16.1051 H   0  0  0  0  0  0  0  0  0  0  0  0
   40.4137   -4.8441   16.7923 H   0  0  0  0  0  0  0  0  0  0  0  0
   43.0215   -1.2172   17.1660 H   0  0  0  0  0  0  0  0  0  0  0  0
   43.3289   -2.4625   14.8573 H   0  0  0  0  0  0  0  0  0  0  0  0
   43.1130   -4.3459   16.2586 H   0  0  0  0  0  0  0  0  0  0  0  0
   44.9401   -5.0357   15.6273 H   0  0  0  0  0  0  0  0  0  0  0  0
   43.6518   -4.8210   17.5638 H   0  0  0  0  0  0  0  0  0  0  0  0
   45.2367   -5.6783   17.4211 H   0  0  0  0  0  0  0  0  0  0  0  0
   46.2388   -4.0999   17.5635 H   0  0  0  0  0  0  0  0  0  0  0  0
   45.6463   -6.0532   19.3782 H   0  0  0  0  0  0  0  0  0  0  0  0
   46.6672   -4.4789   19.3863 H   0  0  0  0  0  0  0  0  0  0  0  0
   45.5356   -3.5024   20.2576 H   0  0  0  0  0  0  0  0  0  0  0  0
   42.9138   -4.1020   20.3608 H   0  0  0  0  0  0  0  0  0  0  0  0
   44.0767   -2.6192   20.3018 H   0  0  0  0  0  0  0  0  0  0  0  0
   43.5203   -2.2669   18.4603 H   0  0  0  0  0  0  0  0  0  0  0  0
   42.5071   -3.8398   18.4562 H   0  0  0  0  0  0  0  0  0  0  0  0
   46.6798   -6.0189   21.4066 H   0  0  0  0  0  0  0  0  0  0  0  0
   47.1993   -4.3635   21.8282 H   0  0  0  0  0  0  0  0  0  0  0  0
   45.3291   -5.8451   23.6976 H   0  0  0  0  0  0  0  0  0  0  0  0
   47.0758   -6.2686   23.6913 H   0  0  0  0  0  0  0  0  0  0  0  0
   46.1416   -5.4105   25.9963 H   0  0  0  0  0  0  0  0  0  0  0  0
   47.8978   -5.4169   25.5089 H   0  0  0  0  0  0  0  0  0  0  0  0
   47.4620   -4.1417   27.6075 H   0  0  0  0  0  0  0  0  0  0  0  0
   48.1799   -3.1515   26.3017 H   0  0  0  0  0  0  0  0  0  0  0  0
   45.2333   -3.3071   27.1218 H   0  0  0  0  0  0  0  0  0  0  0  0
   46.3689   -1.8917   27.2684 H   0  0  0  0  0  0  0  0  0  0  0  0
   44.7233   -1.6886   25.3803 H   0  0  0  0  0  0  0  0  0  0  0  0
   46.4587   -1.6295   24.8811 H   0  0  0  0  0  0  0  0  0  0  0  0
   45.2175   -3.0508   23.3129 H   0  0  0  0  0  0  0  0  0  0  0  0
   44.5714   -4.0362   24.6740 H   0  0  0  0  0  0  0  0  0  0  0  0
   14.0420  -17.5601   24.9939 H   0  0  0  0  0  0  0  0  0  0  0  0
   14.5949  -17.1895   23.2655 H   0  0  0  0  0  0  0  0  0  0  0  0
   12.8291  -16.3315   22.8962 H   0  0  0  0  0  0  0  0  0  0  0  0
   12.3839  -16.5355   24.7310 H   0  0  0  0  0  0  0  0  0  0  0  0
   13.2468  -14.5718   23.1038 H   0  0  0  0  0  0  0  0  0  0  0  0
   11.2078  -13.9347   24.6524 H   0  0  0  0  0  0  0  0  0  0  0  0
   14.1536  -13.1758   23.8327 H   0  0  0  0  0  0  0  0  0  0  0  0
   13.5913  -13.5510   25.5710 H   0  0  0  0  0  0  0  0  0  0  0  0
   15.5126  -14.3892   23.8764 H   0  0  0  0  0  0  0  0  0  0  0  0
   17.8670  -15.0080   24.5301 H   0  0  0  0  0  0  0  0  0  0  0  0
   19.0810  -14.2784   25.5314 H   0  0  0  0  0  0  0  0  0  0  0  0
   18.8976  -13.5178   27.1643 H   0  0  0  0  0  0  0  0  0  0  0  0
   18.5136  -15.1410   28.0135 H   0  0  0  0  0  0  0  0  0  0  0  0
   20.7820  -13.6199   27.9470 H   0  0  0  0  0  0  0  0  0  0  0  0
   20.2793  -15.2278   28.7696 H   0  0  0  0  0  0  0  0  0  0  0  0
   21.7004  -14.4559   26.6138 H   0  0  0  0  0  0  0  0  0  0  0  0
   22.6373  -15.4381   28.6717 H   0  0  0  0  0  0  0  0  0  0  0  0
   21.8365  -15.6122   25.2074 H   0  0  0  0  0  0  0  0  0  0  0  0
   21.2639  -17.0876   26.2158 H   0  0  0  0  0  0  0  0  0  0  0  0
   19.4948  -16.9917   25.3419 H   0  0  0  0  0  0  0  0  0  0  0  0
   20.0149  -15.4119   24.4712 H   0  0  0  0  0  0  0  0  0  0  0  0
   15.6312  -15.8349   23.6665 H   0  0  0  0  0  0  0  0  0  0  0  0
   16.3258  -16.5046   26.1413 H   0  0  0  0  0  0  0  0  0  0  0  0
   18.2088  -17.3626   24.9356 H   0  0  0  0  0  0  0  0  0  0  0  0
   17.2255  -17.8345   26.8219 H   0  0  0  0  0  0  0  0  0  0  0  0
   18.4998  -18.1684   23.7760 H   0  0  0  0  0  0  0  0  0  0  0  0
   18.4758  -19.9562   24.0792 H   0  0  0  0  0  0  0  0  0  0  0  0
   16.6330  -20.1035   23.7387 H   0  0  0  0  0  0  0  0  0  0  0  0
   18.8064  -20.7031   22.2176 H   0  0  0  0  0  0  0  0  0  0  0  0
   16.9455  -20.8026   21.9943 H   0  0  0  0  0  0  0  0  0  0  0  0
   16.7913  -19.4523   20.9488 H   0  0  0  0  0  0  0  0  0  0  0  0
   18.5819  -17.4407   20.8759 H   0  0  0  0  0  0  0  0  0  0  0  0
   16.7310  -17.7482   20.7478 H   0  0  0  0  0  0  0  0  0  0  0  0
   16.4922  -16.8973   22.5055 H   0  0  0  0  0  0  0  0  0  0  0  0
   18.3495  -16.8042   22.7282 H   0  0  0  0  0  0  0  0  0  0  0  0
   18.3117  -21.8176   20.2483 H   0  0  0  0  0  0  0  0  0  0  0  0
   16.7009  -21.2913   19.6314 H   0  0  0  0  0  0  0  0  0  0  0  0
   19.0765  -20.8920   17.8469 H   0  0  0  0  0  0  0  0  0  0  0  0
   18.4688  -22.5777   18.0957 H   0  0  0  0  0  0  0  0  0  0  0  0
   18.4663  -21.3496   15.5513 H   0  0  0  0  0  0  0  0  0  0  0  0
   17.7095  -22.9272   16.0342 H   0  0  0  0  0  0  0  0  0  0  0  0
   16.8517  -22.0832   13.8554 H   0  0  0  0  0  0  0  0  0  0  0  0
   15.5697  -22.2274   15.1049 H   0  0  0  0  0  0  0  0  0  0  0  0
   17.0324  -19.6882   14.2316 H   0  0  0  0  0  0  0  0  0  0  0  0
   15.2880  -20.1175   13.9695 H   0  0  0  0  0  0  0  0  0  0  0  0
   15.6948  -18.4590   15.8289 H   0  0  0  0  0  0  0  0  0  0  0  0
   14.8182  -19.9675   16.3122 H   0  0  0  0  0  0  0  0  0  0  0  0
   16.4582  -19.4530   18.0171 H   0  0  0  0  0  0  0  0  0  0  0  0
   17.7584  -19.3131   16.7576 H   0  0  0  0  0  0  0  0  0  0  0  0
  1  2  1  0
  2  3  1  0
  3  4  1  0
  3  5  1  0
  5  6  1  0
  6  7  1  0
  7  8  1  0
  8  9  1  0
  9 10  1  0
 10 11  1  0
 11 12  1  0
 12 13  1  0
 12 14  1  0
  9 15  1  0
 14 15  1  0
  1 16  1  0
  6 16  1  0
  8 17  1  0
 16 17  1  0
 17 18  1  0
 18 19  1  0
 18 20  1  0
 20 21  1  0
 21 22  1  0
 22 23  1  0
 23 24  1  0
 20 25  1  0
 24 25  1  0
 23 26  1  0
 26 27  1  0
 27 28  1  0
 28 29  1  0
 29 30  1  0
 30 31  1  0
 31 32  1  0
 32 33  1  0
 29 34  1  0
 33 34  1  0
 35 36  1  0
 36 37  1  0
 37 38  1  0
 37 39  1  0
 39 40  1  0
 40 41  1  0
 41 42  1  0
 42 43  1  0
 43 44  1  0
 44 45  1  0
 45 46  1  0
 46 47  1  0
 46 48  1  0
 43 49  1  0
 48 49  1  0
 35 50  1  0
 40 50  1  0
 42 51  1  0
 50 51  1  0
 51 52  1  0
 52 53  1  0
 52 54  1  0
 54 55  1  0
 55 56  1  0
 56 57  1  0
 57 58  1  0
 54 59  1  0
 58 59  1  0
 57 60  1  0
 60 61  1  0
 61 62  1  0
 62 63  1  0
 63 64  1  0
 64 65  1  0
 65 66  1  0
 66 67  1  0
 63 68  1  0
 67 68  1  0
  1 69  1  0
  1 70  1  0
  2 71  1  0
  2 72  1  0
  3 73  1  0
  4 74  1  0
  5 75  1  0
  5 76  1  0
  6 77  1  0
  8 78  1  1
  9 79  1  1
 10 80  1  0
 10 81  1  0
 11 82  1  0
 11 83  1  0
 12 84  1  0
 13 85  1  0
 14 86  1  0
 14 87  1  0
 15 88  1  0
 15 89  1  0
 16 90  1  0
 17 91  1  0
 18 92  1  0
 19 93  1  0
 20 94  1  0
 21 95  1  0
 21 96  1  0
 22 97  1  0
 22 98  1  0
 23 99  1  0
 24100  1  0
 24101  1  0
 25102  1  0
 25103  1  0
 27104  1  0
 27105  1  0
 28106  1  0
 28107  1  0
 30108  1  0
 30109  1  0
 31110  1  0
 31111  1  0
 32112  1  0
 32113  1  0
 33114  1  0
 33115  1  0
 34116  1  0
 34117  1  0
 35118  1  0
 35119  1  0
 36120  1  0
 36121  1  0
 37122  1  0
 38123  1  0
 39124  1  0
 39125  1  0
 40126  1  0
 42127  1  6
 43128  1  6
 44129  1  0
 44130  1  0
 45131  1  0
 45132  1  0
 46133  1  0
 47134  1  0
 48135  1  0
 48136  1  0
 49137  1  0
 49138  1  0
 50139  1  0
 51140  1  1
 52141  1  1
 53142  1  0
 54143  1  0
 55144  1  0
 55145  1  0
 56146  1  0
 56147  1  0
 57148  1  0
 58149  1  0
 58150  1  0
 59151  1  0
 59152  1  0
 61153  1  0
 61154  1  0
 62155  1  0
 62156  1  0
 64157  1  0
 64158  1  0
 65159  1  0
 65160  1  0
 66161  1  0
 66162  1  0
 67163  1  0
 67164  1  0
 68165  1  0
 68166  1  0
M  END
>  <PDBID>  (1) 
2QXS

>  <PDB ID>  (1) 
2QXS

>  <Generic Name>  (1) 
Raloxifene

>  <Brand Name>  (1) 
Act Raloxifene#Apo-raloxifene#Evista#Evista (60mg)#PMS-raloxifene#Raloxifene#Raloxifene Hydrochloride#Teva-raloxifene#Keoxifene

>  <DrugBank ID>  (1) 
DB00481

>  <ATC Codes>  (1) 
G03XC01

>  <Ligand ID>  (1) 
RAL

>  <Target Name>  (1) 
Estrogen receptor

>  <UniProt ID>  (1) 
P03372

>  <PDB ID.1>  (1) 
2QXS

>  <Seq. Identity>  (1) 
93%

$$$$
