PDB_DB00188_74
     RDKit          3D

 53 54  0  0  0  0  0  0  0  0999 V2000
    9.6200 -138.2780   19.2370 N   0  0  0  0  0  0  0  0  0  0  0  0
    9.9470 -137.1100   18.6560 C   0  0  0  0  0  0  0  0  0  0  0  0
    9.1930 -135.9650   18.9040 C   0  0  0  0  0  0  0  0  0  0  0  0
    8.1030 -136.0240   19.7800 N   0  0  0  0  0  0  0  0  0  0  0  0
    7.7740 -137.2390   20.3920 C   0  0  0  0  0  0  0  0  0  0  0  0
    8.5350 -138.3680   20.1170 C   0  0  0  0  0  0  0  0  0  0  0  0
   11.0160 -137.0580   17.7700 C   0  0  0  0  0  0  0  0  0  0  0  0
   11.5910 -135.9990   17.5140 O   0  0  0  0  0  0  0  0  0  0  0  0
   11.3070 -138.2360   17.2020 N   0  0  0  0  0  0  0  0  0  0  0  0
   12.3350 -138.3830   16.1750 C   0  0  1  0  0  0  0  0  0  0  0  0
   13.0390 -139.6910   16.4290 C   0  0  0  0  0  0  0  0  0  0  0  0
   13.8370 -140.0100   15.3180 C   0  0  0  0  0  0  0  0  0  0  0  0
   14.9300 -139.2140   14.9790 C   0  0  0  0  0  0  0  0  0  0  0  0
   15.7280 -139.5390   13.8830 C   0  0  0  0  0  0  0  0  0  0  0  0
   15.4430 -140.6690   13.1210 C   0  0  0  0  0  0  0  0  0  0  0  0
   14.3560 -141.4700   13.4590 C   0  0  0  0  0  0  0  0  0  0  0  0
   13.5600 -141.1430   14.5540 C   0  0  0  0  0  0  0  0  0  0  0  0
   11.5620 -138.4030   14.8550 C   0  0  0  0  0  0  0  0  0  0  0  0
   10.6290 -139.1910   14.7070 O   0  0  0  0  0  0  0  0  0  0  0  0
   11.9330 -137.4970   13.9370 N   0  0  0  0  0  0  0  0  0  0  0  0
   11.2540 -137.4150   12.6330 C   0  0  1  0  0  0  0  0  0  0  0  0
   11.0660 -135.9770   12.1790 C   0  0  0  0  0  0  0  0  0  0  0  0
   10.5110 -135.1120   13.3280 C   0  0  0  0  0  0  0  0  0  0  0  0
   10.2760 -133.6920   12.7870 C   0  0  0  0  0  0  0  0  0  0  0  0
    9.1960 -135.6780   13.8980 C   0  0  0  0  0  0  0  0  0  0  0  0
   12.0830 -138.1470   11.5680 B   0  0  0  0  0  0  0  0  0  0  0  0
   13.4410 -137.6790   11.6070 O   0  0  0  0  0  0  0  0  0  0  0  0
   12.0510 -139.5590   11.8040 O   0  0  0  0  0  0  0  0  0  0  0  0
    9.4539 -135.0163   18.4122 H   0  0  0  0  0  0  0  0  0  0  0  0
    6.9211 -137.2992   21.0840 H   0  0  0  0  0  0  0  0  0  0  0  0
    8.2859 -139.3298   20.5892 H   0  0  0  0  0  0  0  0  0  0  0  0
   10.7847 -139.0716   17.5017 H   0  0  0  0  0  0  0  0  0  0  0  0
   13.0929 -137.5858   16.1659 H   0  0  0  0  0  0  0  0  0  0  0  0
   13.6731 -139.5998   17.3232 H   0  0  0  0  0  0  0  0  0  0  0  0
   12.2954 -140.4855   16.5899 H   0  0  0  0  0  0  0  0  0  0  0  0
   15.1645 -138.3233   15.5804 H   0  0  0  0  0  0  0  0  0  0  0  0
   16.5847 -138.9013   13.6196 H   0  0  0  0  0  0  0  0  0  0  0  0
   16.0731 -140.9271   12.2571 H   0  0  0  0  0  0  0  0  0  0  0  0
   14.1252 -142.3632   12.8599 H   0  0  0  0  0  0  0  0  0  0  0  0
   12.7058 -141.7838   14.8183 H   0  0  0  0  0  0  0  0  0  0  0  0
   12.7050 -136.8487   14.1480 H   0  0  0  0  0  0  0  0  0  0  0  0
   10.2651 -137.8814   12.7534 H   0  0  0  0  0  0  0  0  0  0  0  0
   12.0358 -135.5702   11.8565 H   0  0  0  0  0  0  0  0  0  0  0  0
   10.3491 -135.9599   11.3448 H   0  0  0  0  0  0  0  0  0  0  0  0
   11.2416 -135.1064   14.1503 H   0  0  0  0  0  0  0  0  0  0  0  0
   10.1604 -132.9934   13.6288 H   0  0  0  0  0  0  0  0  0  0  0  0
   11.1358 -133.3867   12.1726 H   0  0  0  0  0  0  0  0  0  0  0  0
    9.3637 -133.6800   12.1726 H   0  0  0  0  0  0  0  0  0  0  0  0
    9.2355 -135.6610   14.9972 H   0  0  0  0  0  0  0  0  0  0  0  0
    8.3518 -135.0635   13.5519 H   0  0  0  0  0  0  0  0  0  0  0  0
    9.0620 -136.7135   13.5519 H   0  0  0  0  0  0  0  0  0  0  0  0
   13.7289 -137.5798   12.5490 H   0  0  0  0  0  0  0  0  0  0  0  0
   12.0471 -139.7306   12.7790 H   0  0  0  0  0  0  0  0  0  0  0  0
  1  2  2  0
  2  3  1  0
  3  4  2  0
  4  5  1  0
  1  6  1  0
  5  6  2  0
  2  7  1  0
  7  8  2  0
  7  9  1  0
  9 10  1  0
 10 11  1  0
 11 12  1  0
 12 13  2  0
 13 14  1  0
 14 15  2  0
 15 16  1  0
 12 17  1  0
 16 17  2  0
 10 18  1  0
 18 19  2  0
 18 20  1  0
 20 21  1  0
 21 22  1  0
 22 23  1  0
 23 24  1  0
 23 25  1  0
 21 26  1  0
 26 27  1  0
 26 28  1  0
  3 29  1  0
  5 30  1  0
  6 31  1  0
  9 32  1  0
 10 33  1  6
 11 34  1  0
 11 35  1  0
 13 36  1  0
 14 37  1  0
 15 38  1  0
 16 39  1  0
 17 40  1  0
 20 41  1  0
 21 42  1  1
 22 43  1  0
 22 44  1  0
 23 45  1  0
 24 46  1  0
 24 47  1  0
 24 48  1  0
 25 49  1  0
 25 50  1  0
 25 51  1  0
 27 52  1  0
 28 53  1  0
M  END
$$$$
