PDB_DB00188_94
     RDKit          3D

 53 54  0  0  0  0  0  0  0  0999 V2000
   21.4930  232.7180   60.6690 N   0  0  0  0  0  0  0  0  0  0  0  0
   22.0690  232.9880   61.8510 C   0  0  0  0  0  0  0  0  0  0  0  0
   21.2790  233.0780   62.9620 C   0  0  0  0  0  0  0  0  0  0  0  0
   19.9550  232.8780   62.8870 N   0  0  0  0  0  0  0  0  0  0  0  0
   19.3720  232.6080   61.7510 C   0  0  0  0  0  0  0  0  0  0  0  0
   20.1600  232.5290   60.6130 C   0  0  0  0  0  0  0  0  0  0  0  0
   23.5230  233.2300   61.9330 C   0  0  0  0  0  0  0  0  0  0  0  0
   24.0530  233.0140   62.9770 O   0  0  0  0  0  0  0  0  0  0  0  0
   24.1520  233.6790   60.8610 N   0  0  0  0  0  0  0  0  0  0  0  0
   25.5610  234.0170   60.7860 C   0  0  1  0  0  0  0  0  0  0  0  0
   26.1330  233.3800   59.5180 C   0  0  0  0  0  0  0  0  0  0  0  0
   27.6010  233.7080   59.2040 C   0  0  0  0  0  0  0  0  0  0  0  0
   28.6370  233.2200   60.0470 C   0  0  0  0  0  0  0  0  0  0  0  0
   29.9780  233.4930   59.7660 C   0  0  0  0  0  0  0  0  0  0  0  0
   30.2980  234.2490   58.6040 C   0  0  0  0  0  0  0  0  0  0  0  0
   29.3020  234.7440   57.7690 C   0  0  0  0  0  0  0  0  0  0  0  0
   27.9540  234.4760   58.0670 C   0  0  0  0  0  0  0  0  0  0  0  0
   25.6650  235.5240   60.7390 C   0  0  0  0  0  0  0  0  0  0  0  0
   24.8950  236.1820   60.0390 O   0  0  0  0  0  0  0  0  0  0  0  0
   26.6260  236.0890   61.4740 N   0  0  0  0  0  0  0  0  0  0  0  0
   26.8830  237.5100   61.5820 C   0  0  1  0  0  0  0  0  0  0  0  0
   27.0170  237.9450   63.0520 C   0  0  0  0  0  0  0  0  0  0  0  0
   25.9500  237.4340   64.0130 C   0  0  0  0  0  0  0  0  0  0  0  0
   24.6030  238.0670   63.7830 C   0  0  0  0  0  0  0  0  0  0  0  0
   26.3540  237.8410   65.4200 C   0  0  0  0  0  0  0  0  0  0  0  0
   28.2830  237.8460   60.8280 B   0  0  0  0  0  0  0  0  0  0  0  0
   28.1450  237.5510   59.3490 O   0  0  0  0  0  0  0  0  0  0  0  0
   29.4280  236.9680   61.3870 O   0  0  0  0  0  0  0  0  0  0  0  0
   21.7361  233.3183   63.9333 H   0  0  0  0  0  0  0  0  0  0  0  0
   18.2851  232.4475   61.6979 H   0  0  0  0  0  0  0  0  0  0  0  0
   19.6874  232.3075   59.6447 H   0  0  0  0  0  0  0  0  0  0  0  0
   23.5933  233.7995   60.0041 H   0  0  0  0  0  0  0  0  0  0  0  0
   26.1274  233.6442   61.6522 H   0  0  0  0  0  0  0  0  0  0  0  0
   26.0465  232.2883   59.6211 H   0  0  0  0  0  0  0  0  0  0  0  0
   25.5500  233.8005   58.6854 H   0  0  0  0  0  0  0  0  0  0  0  0
   28.3792  232.6197   60.9320 H   0  0  0  0  0  0  0  0  0  0  0  0
   30.7738  233.1292   60.4326 H   0  0  0  0  0  0  0  0  0  0  0  0
   31.3528  234.4457   58.3615 H   0  0  0  0  0  0  0  0  0  0  0  0
   29.5664  235.3400   56.8831 H   0  0  0  0  0  0  0  0  0  0  0  0
   27.1640  234.8675   57.4092 H   0  0  0  0  0  0  0  0  0  0  0  0
   27.2383  235.4587   62.0114 H   0  0  0  0  0  0  0  0  0  0  0  0
   26.0391  238.0484   61.1259 H   0  0  0  0  0  0  0  0  0  0  0  0
   27.9925  237.5916   63.4174 H   0  0  0  0  0  0  0  0  0  0  0  0
   26.9009  239.0388   63.0434 H   0  0  0  0  0  0  0  0  0  0  0  0
   25.8741  236.3472   63.8613 H   0  0  0  0  0  0  0  0  0  0  0  0
   24.1317  238.2885   64.7519 H   0  0  0  0  0  0  0  0  0  0  0  0
   24.7287  239.0003   63.2145 H   0  0  0  0  0  0  0  0  0  0  0  0
   23.9647  237.3746   63.2145 H   0  0  0  0  0  0  0  0  0  0  0  0
   25.7749  237.2576   66.1510 H   0  0  0  0  0  0  0  0  0  0  0  0
   27.4272  237.6473   65.5638 H   0  0  0  0  0  0  0  0  0  0  0  0
   26.1524  238.9128   65.5638 H   0  0  0  0  0  0  0  0  0  0  0  0
   27.7287  236.6611   59.2275 H   0  0  0  0  0  0  0  0  0  0  0  0
   29.4046  236.9859   62.3766 H   0  0  0  0  0  0  0  0  0  0  0  0
  1  2  2  0
  2  3  1  0
  3  4  2  0
  4  5  1  0
  1  6  1  0
  5  6  2  0
  2  7  1  0
  7  8  2  0
  7  9  1  0
  9 10  1  0
 10 11  1  0
 11 12  1  0
 12 13  2  0
 13 14  1  0
 14 15  2  0
 15 16  1  0
 12 17  1  0
 16 17  2  0
 10 18  1  0
 18 19  2  0
 18 20  1  0
 20 21  1  0
 21 22  1  0
 22 23  1  0
 23 24  1  0
 23 25  1  0
 21 26  1  0
 26 27  1  0
 26 28  1  0
  3 29  1  0
  5 30  1  0
  6 31  1  0
  9 32  1  0
 10 33  1  1
 11 34  1  0
 11 35  1  0
 13 36  1  0
 14 37  1  0
 15 38  1  0
 16 39  1  0
 17 40  1  0
 20 41  1  0
 21 42  1  6
 22 43  1  0
 22 44  1  0
 23 45  1  0
 24 46  1  0
 24 47  1  0
 24 48  1  0
 25 49  1  0
 25 50  1  0
 25 51  1  0
 27 52  1  0
 28 53  1  0
M  END
$$$$
