PDB_DB01082_99
     RDKit          3D

 79 81  0  0  0  0  0  0  0  0999 V2000
  179.5190   93.9120   -7.4200 C   0  0  2  0  0  0  0  0  0  0  0  0
  180.2250   92.9530   -8.2050 N   0  0  0  0  0  0  0  0  0  0  0  0
  179.6320   92.5050   -9.4430 C   0  0  0  0  0  0  0  0  0  0  0  0
  178.3510   93.0620   -9.8330 N   0  0  0  0  0  0  0  0  0  0  0  0
  180.2410   91.6280  -10.1880 N   0  0  0  0  0  0  0  0  0  0  0  0
  180.0200   95.2890   -7.6390 C   0  0  1  0  0  0  0  0  0  0  0  0
  179.8290   95.6550   -8.9630 O   0  0  0  0  0  0  0  0  0  0  0  0
  179.2440   96.1790   -6.7310 C   0  0  2  0  0  0  0  0  0  0  0  0
  179.4230   97.5930   -7.0610 N   0  0  0  0  0  0  0  0  0  0  0  0
  178.5860   98.1650   -8.1450 C   0  0  0  0  0  0  0  0  0  0  0  0
  177.6630   97.2970   -8.8360 N   0  0  0  0  0  0  0  0  0  0  0  0
  178.6630   99.4510   -8.5130 N   0  0  0  0  0  0  0  0  0  0  0  0
  179.5130   95.8490   -5.2940 C   0  0  1  0  0  0  0  0  0  0  0  0
  178.7050   96.7830   -4.5890 O   0  0  0  0  0  0  0  0  0  0  0  0
  179.0710   94.4290   -5.0460 C   0  0  2  0  0  0  0  0  0  0  0  0
  179.3820   94.0740   -3.7700 O   0  0  0  0  0  0  0  0  0  0  0  0
  179.7380   93.4880   -6.0040 C   0  0  1  0  0  0  0  0  0  0  0  0
  179.2430   92.1870   -5.8120 O   0  0  0  0  0  0  0  0  0  0  0  0
  179.4450   97.6240   -3.7470 C   0  0  1  0  0  0  0  0  0  0  0  0
  178.5700   98.6990   -3.0930 C   0  0  1  0  0  0  0  0  0  0  0  0
  178.1880   98.0580   -1.7680 C   0  0  1  0  0  0  0  0  0  0  0  0
  178.8230   98.6160   -0.6520 O   0  0  0  0  0  0  0  0  0  0  0  0
  176.7240   98.1100   -1.5330 C   0  0  0  0  0  0  0  0  0  0  0  0
  176.2250   97.5350   -0.5830 O   0  0  0  0  0  0  0  0  0  0  0  0
  178.7310   96.6710   -1.9250 C   0  0  2  0  0  0  0  0  0  0  0  0
  179.0250   95.9560   -0.6200 C   0  0  0  0  0  0  0  0  0  0  0  0
  179.9050   96.7930   -2.7110 O   0  0  0  0  0  0  0  0  0  0  0  0
  179.1790   99.9830   -3.0100 O   0  0  0  0  0  0  0  0  0  0  0  0
  178.5390  100.8670   -3.9060 C   0  0  1  0  0  0  0  0  0  0  0  0
  178.5460  102.3290   -3.4530 C   0  0  1  0  0  0  0  0  0  0  0  0
  177.9010  102.5700   -2.2050 N   0  0  0  0  0  0  0  0  0  0  0  0
  176.7470  101.7480   -2.1330 C   0  0  0  0  0  0  0  0  0  0  0  0
  180.0020  102.7750   -3.3510 C   0  0  2  0  0  0  0  0  0  0  0  0
  180.1190  104.0810   -2.9210 O   0  0  0  0  0  0  0  0  0  0  0  0
  180.5700  102.5550   -4.7070 C   0  0  1  0  0  0  0  0  0  0  0  0
  181.8790  102.9580   -4.7820 O   0  0  0  0  0  0  0  0  0  0  0  0
  180.4800  101.0870   -4.9780 C   0  0  1  0  0  0  0  0  0  0  0  0
  179.1800  100.7390   -5.1410 O   0  0  0  0  0  0  0  0  0  0  0  0
  181.2430  100.7040   -6.2040 C   0  0  0  0  0  0  0  0  0  0  0  0
  181.6000   99.3170   -6.0900 O   0  0  0  0  0  0  0  0  0  0  0  0
  178.4534   93.9411   -7.6913 H   0  0  0  0  0  0  0  0  0  0  0  0
  181.1373   92.5883   -7.8958 H   0  0  0  0  0  0  0  0  0  0  0  0
  177.9043   92.7610  -10.7109 H   0  0  0  0  0  0  0  0  0  0  0  0
  177.8879   93.7586   -9.2320 H   0  0  0  0  0  0  0  0  0  0  0  0
  179.8110   91.3138  -11.0696 H   0  0  0  0  0  0  0  0  0  0  0  0
  181.0967   95.3625   -7.4259 H   0  0  0  0  0  0  0  0  0  0  0  0
  179.3713   96.5321   -9.0002 H   0  0  0  0  0  0  0  0  0  0  0  0
  178.1732   95.9853   -6.8919 H   0  0  0  0  0  0  0  0  0  0  0  0
  180.1084   98.1734   -6.5568 H   0  0  0  0  0  0  0  0  0  0  0  0
  177.0717   97.6712   -9.5918 H   0  0  0  0  0  0  0  0  0  0  0  0
  177.5956   96.3033   -8.5734 H   0  0  0  0  0  0  0  0  0  0  0  0
  178.0631   99.8066   -9.2710 H   0  0  0  0  0  0  0  0  0  0  0  0
  180.5685   95.9147   -4.9912 H   0  0  0  0  0  0  0  0  0  0  0  0
  177.9831   94.3690   -5.1974 H   0  0  0  0  0  0  0  0  0  0  0  0
  178.8806   94.6464   -3.1367 H   0  0  0  0  0  0  0  0  0  0  0  0
  180.8200   93.5047   -5.8067 H   0  0  0  0  0  0  0  0  0  0  0  0
  179.1721   92.0007   -4.8423 H   0  0  0  0  0  0  0  0  0  0  0  0
  180.2357   98.1260   -4.3238 H   0  0  0  0  0  0  0  0  0  0  0  0
  177.6836   98.9610   -3.6894 H   0  0  0  0  0  0  0  0  0  0  0  0
  178.4138   98.2564    0.1746 H   0  0  0  0  0  0  0  0  0  0  0  0
  176.0820   98.6746   -2.2251 H   0  0  0  0  0  0  0  0  0  0  0  0
  177.9649   96.0426   -2.4026 H   0  0  0  0  0  0  0  0  0  0  0  0
  178.7567   96.6084    0.2240 H   0  0  0  0  0  0  0  0  0  0  0  0
  178.4351   95.0290   -0.5688 H   0  0  0  0  0  0  0  0  0  0  0  0
  180.0964   95.7121   -0.5688 H   0  0  0  0  0  0  0  0  0  0  0  0
  177.4755  100.5914   -3.9602 H   0  0  0  0  0  0  0  0  0  0  0  0
  177.9726  102.8989   -4.1989 H   0  0  0  0  0  0  0  0  0  0  0  0
  178.5414  102.3395   -1.4319 H   0  0  0  0  0  0  0  0  0  0  0  0
  176.4916  101.5661   -1.0786 H   0  0  0  0  0  0  0  0  0  0  0  0
  175.9062  102.2518   -2.6323 H   0  0  0  0  0  0  0  0  0  0  0  0
  176.9484  100.7887   -2.6323 H   0  0  0  0  0  0  0  0  0  0  0  0
  180.5550  102.2004   -2.5934 H   0  0  0  0  0  0  0  0  0  0  0  0
  180.1210  104.1036   -1.9313 H   0  0  0  0  0  0  0  0  0  0  0  0
  180.0098  103.1456   -5.4469 H   0  0  0  0  0  0  0  0  0  0  0  0
  182.2427  103.0700   -3.8681 H   0  0  0  0  0  0  0  0  0  0  0  0
  180.9186  100.5575   -4.1194 H   0  0  0  0  0  0  0  0  0  0  0  0
  180.6173  100.8563   -7.0958 H   0  0  0  0  0  0  0  0  0  0  0  0
  182.1463  101.3242   -6.3010 H   0  0  0  0  0  0  0  0  0  0  0  0
  181.6635   99.0702   -5.1334 H   0  0  0  0  0  0  0  0  0  0  0  0
  1  2  1  0
  2  3  1  0
  3  4  1  0
  3  5  2  0
  1  6  1  0
  6  7  1  0
  6  8  1  0
  8  9  1  0
  9 10  1  0
 10 11  1  0
 10 12  2  0
  8 13  1  0
 13 14  1  0
 13 15  1  0
 15 16  1  0
  1 17  1  0
 15 17  1  0
 17 18  1  0
 14 19  1  0
 19 20  1  0
 20 21  1  0
 21 22  1  1
 21 23  1  0
 23 24  2  0
 21 25  1  0
 25 26  1  0
 19 27  1  0
 25 27  1  0
 20 28  1  0
 28 29  1  0
 29 30  1  0
 30 31  1  0
 31 32  1  0
 30 33  1  0
 33 34  1  0
 33 35  1  0
 35 36  1  0
 35 37  1  0
 29 38  1  0
 37 38  1  0
 37 39  1  0
 39 40  1  0
  1 41  1  6
  2 42  1  0
  4 43  1  0
  4 44  1  0
  5 45  1  0
  6 46  1  1
  7 47  1  0
  8 48  1  6
  9 49  1  0
 11 50  1  0
 11 51  1  0
 12 52  1  0
 13 53  1  1
 15 54  1  1
 16 55  1  0
 17 56  1  1
 18 57  1  0
 19 58  1  6
 20 59  1  6
 22 60  1  0
 23 61  1  0
 25 62  1  6
 26 63  1  0
 26 64  1  0
 26 65  1  0
 29 66  1  6
 30 67  1  6
 31 68  1  0
 32 69  1  0
 32 70  1  0
 32 71  1  0
 33 72  1  1
 34 73  1  0
 35 74  1  6
 36 75  1  0
 37 76  1  1
 39 77  1  0
 39 78  1  0
 40 79  1  0
M  END
>  <PDBID>  (1) 
4DV7

>  <PDB ID>  (1) 
4DV7

>  <Generic Name>  (1) 
Streptomycin

>  <Brand Name>  (1) 
Streptomycin#Streptomycin Sulfate Injection USP 1g/2.5ml#Streptomycin for Injection USP

>  <DrugBank ID>  (1) 
DB01082

>  <ATC Codes>  (1) 
J01GA01#J04AM01#A07AA04#A07AA54

>  <Ligand ID>  (1) 
SRY

>  <Target Name>  (1) 
30S ribosomal protein S12

>  <UniProt ID>  (1) 
P0A7S3

>  <PDB ID.1>  (1) 
4DV7

>  <Seq. Identity>  (1) 
72%

$$$$
