PDB_DB00755_96
     RDKit          3D

 62 62  0  0  0  0  0  0  0  0999 V2000
   43.4480   13.5960   80.8680 C   0  0  2  0  0  0  0  0  0  0  0  0
   44.8810   13.7290   80.3060 C   0  0  0  0  0  0  0  0  0  0  0  0
   45.3390   15.1390   80.0840 C   0  0  0  0  0  0  0  0  0  0  0  0
   45.2850   16.0050   81.3140 C   0  0  0  0  0  0  0  0  0  0  0  0
   44.1500   15.6240   82.2890 C   0  0  0  0  0  0  0  0  0  0  0  0
   43.3240   14.5220   82.1100 C   0  0  0  0  0  0  0  0  0  0  0  0
   42.2690   14.1000   83.0490 C   0  0  0  0  0  0  0  0  0  0  0  0
   41.3630   14.8890   83.6470 C   0  0  0  0  0  0  0  0  0  0  0  0
   40.3520   14.5420   84.6120 C   0  0  0  0  0  0  0  0  0  0  0  0
   39.5830   15.5580   85.0310 C   0  0  0  0  0  0  0  0  0  0  0  0
   38.5310   15.4760   85.9980 C   0  0  0  0  0  0  0  0  0  0  0  0
   37.8300   16.5880   86.1850 C   0  0  0  0  0  0  0  0  0  0  0  0
   36.7510   16.7220   87.1170 C   0  0  0  0  0  0  0  0  0  0  0  0
   36.1150   17.9010   87.1220 C   0  0  0  0  0  0  0  0  0  0  0  0
   34.9830   18.3360   87.8940 C   0  0  0  0  0  0  0  0  0  0  0  0
   43.1960   12.1360   81.2870 C   0  0  0  0  0  0  0  0  0  0  0  0
   42.4490   14.0240   79.7660 C   0  0  0  0  0  0  0  0  0  0  0  0
   44.1180   16.6370   83.4360 C   0  0  0  0  0  0  0  0  0  0  0  0
   40.1800   13.1080   85.1060 C   0  0  0  0  0  0  0  0  0  0  0  0
   36.3710   15.5360   88.0270 C   0  0  0  0  0  0  0  0  0  0  0  0
   34.5200   19.4360   87.6610 O   0  0  0  0  0  0  0  0  0  0  0  0
   34.4800   17.6140   88.7450 O   0  0  0  0  0  0  0  0  0  0  0  0
   45.5729   13.2518   81.0156 H   0  0  0  0  0  0  0  0  0  0  0  0
   44.8729   13.2460   79.3178 H   0  0  0  0  0  0  0  0  0  0  0  0
   46.3789   15.1119   79.7263 H   0  0  0  0  0  0  0  0  0  0  0  0
   44.6488   15.5846   79.3525 H   0  0  0  0  0  0  0  0  0  0  0  0
   46.2442   15.9152   81.8449 H   0  0  0  0  0  0  0  0  0  0  0  0
   45.0884   17.0332   80.9762 H   0  0  0  0  0  0  0  0  0  0  0  0
   43.4473   16.2443   81.7133 H   0  0  0  0  0  0  0  0  0  0  0  0
   44.0461   13.8929   82.6511 H   0  0  0  0  0  0  0  0  0  0  0  0
   41.6772   13.3556   82.4961 H   0  0  0  0  0  0  0  0  0  0  0  0
   42.8933   13.8521   83.9201 H   0  0  0  0  0  0  0  0  0  0  0  0
   41.9633   15.6633   84.1472 H   0  0  0  0  0  0  0  0  0  0  0  0
   40.7023   15.0482   82.7820 H   0  0  0  0  0  0  0  0  0  0  0  0
   41.0619   14.7428   85.4279 H   0  0  0  0  0  0  0  0  0  0  0  0
   40.2849   16.3041   85.4318 H   0  0  0  0  0  0  0  0  0  0  0  0
   38.9877   15.7286   84.1219 H   0  0  0  0  0  0  0  0  0  0  0  0
   37.8347   14.6887   85.6733 H   0  0  0  0  0  0  0  0  0  0  0  0
   39.0242   15.2686   86.9591 H   0  0  0  0  0  0  0  0  0  0  0  0
   38.5644   17.3553   86.4713 H   0  0  0  0  0  0  0  0  0  0  0  0
   37.2831   16.6454   85.2323 H   0  0  0  0  0  0  0  0  0  0  0  0
   37.4532   17.0976   87.8759 H   0  0  0  0  0  0  0  0  0  0  0  0
   36.9022   18.6298   87.3653 H   0  0  0  0  0  0  0  0  0  0  0  0
   35.5994   17.7922   86.1565 H   0  0  0  0  0  0  0  0  0  0  0  0
   35.6609   18.7790   88.6384 H   0  0  0  0  0  0  0  0  0  0  0  0
   43.1840   12.0664   82.3847 H   0  0  0  0  0  0  0  0  0  0  0  0
   42.2269   11.8020   80.8878 H   0  0  0  0  0  0  0  0  0  0  0  0
   43.9970   11.4965   80.8878 H   0  0  0  0  0  0  0  0  0  0  0  0
   41.5336   14.4162   80.2332 H   0  0  0  0  0  0  0  0  0  0  0  0
   42.9054   14.8056   79.1408 H   0  0  0  0  0  0  0  0  0  0  0  0
   42.1980   13.1544   79.1408 H   0  0  0  0  0  0  0  0  0  0  0  0
   44.1349   16.1029   84.3975 H   0  0  0  0  0  0  0  0  0  0  0  0
   44.9958   17.2964   83.3674 H   0  0  0  0  0  0  0  0  0  0  0  0
   43.2004   17.2397   83.3674 H   0  0  0  0  0  0  0  0  0  0  0  0
   40.1787   13.0968   86.2059 H   0  0  0  0  0  0  0  0  0  0  0  0
   39.2269   12.7039   84.7340 H   0  0  0  0  0  0  0  0  0  0  0  0
   41.0105   12.4899   84.7340 H   0  0  0  0  0  0  0  0  0  0  0  0
   36.4674   15.8367   89.0807 H   0  0  0  0  0  0  0  0  0  0  0  0
   35.3320   15.2368   87.8246 H   0  0  0  0  0  0  0  0  0  0  0  0
   37.0426   14.6887   87.8246 H   0  0  0  0  0  0  0  0  0  0  0  0
   34.3250   19.8994   88.5139 H   0  0  0  0  0  0  0  0  0  0  0  0
   34.7153   17.9518   89.6454 H   0  0  0  0  0  0  0  0  0  0  0  0
  1  2  1  0
  2  3  1  0
  3  4  1  0
  4  5  1  0
  1  6  1  0
  5  6  1  0
  6  7  1  0
  7  8  1  0
  8  9  1  0
  9 10  1  0
 10 11  1  0
 11 12  1  0
 12 13  1  0
 13 14  1  0
 14 15  1  0
  1 16  1  1
  1 17  1  0
  5 18  1  0
  9 19  1  0
 13 20  1  0
 15 21  1  0
 15 22  1  0
  2 23  1  0
  2 24  1  0
  3 25  1  0
  3 26  1  0
  4 27  1  0
  4 28  1  0
  5 29  1  0
  6 30  1  0
  7 31  1  0
  7 32  1  0
  8 33  1  0
  8 34  1  0
  9 35  1  0
 10 36  1  0
 10 37  1  0
 11 38  1  0
 11 39  1  0
 12 40  1  0
 12 41  1  0
 13 42  1  0
 14 43  1  0
 14 44  1  0
 15 45  1  0
 16 46  1  0
 16 47  1  0
 16 48  1  0
 17 49  1  0
 17 50  1  0
 17 51  1  0
 18 52  1  0
 18 53  1  0
 18 54  1  0
 19 55  1  0
 19 56  1  0
 19 57  1  0
 20 58  1  0
 20 59  1  0
 20 60  1  0
 21 61  1  0
 22 62  1  0
M  END
>  <PDBID>  (1) 
2LBD

>  <PDB ID>  (1) 
2LBD

>  <Generic Name>  (1) 
Tretinoin

>  <Brand Name>  (1) 
Atralin#Avita#Biacna Topical Gel#Clindamycin Phosphate and Tretinoin#Dr. Throwers Hydrotet#Dr. Throwers Pbc No. 1#Obagi#Refissa#Rejuva-A#Renova#Retin-A#Retin-A Micro#Retisol-A#Solagé#Stie Vaa Sol 0.05%#Stieva-A Cream#Stieva-A Gel#Stieva-A Solution#Stievaa Gel 0.01%#Stievamycin Forte#Stievamycin Mild#Stievamycin Regular#Tretin.x#Tretinoin#Tretinoin Cream#Tretinoin Gel#Tretinoin Gel Microsphere#Tretinx#Tri-luma#Veltin#Vesanoid#Vitamin A Acid 0.01% Cream#Vitamin A Acid 0.01% Gel#Vitamin A Acid 0.025% Cream#Vitamin A Acid 0.025% Gel#Vitamin A Acid 0.05% Cream#Vitamin A Acid 0.05% Gel#Vitamin A Acid 0.1% Cream#Vitinoin - Crm 0.025%#Vitinoin - Crm 0.05%#Vitinoin - Crm 0.1%#Vitinoin Gel - 0.025%#Ziana#Aberel#Aberela#Airol#Dermairol#Eudyna#Kétrel#Retisol-A#Sotret#Stieva-A#Vitinoin

>  <DrugBank ID>  (1) 
DB00755

>  <ATC Codes>  (1) 
L01XX14#D10AD01#D10AD51

>  <Ligand ID>  (1) 
3KV,REA

>  <Target Name>  (1) 
Retinoic acid receptor gamma

>  <UniProt ID>  (1) 
P13631

>  <PDB ID.1>  (1) 
2LBD

>  <Seq. Identity>  (1) 
93%

$$$$
