PDB_DB00482_92
     RDKit          3D

 40 42  0  0  0  0  0  0  0  0999 V2000
  -19.4390   49.4610   46.5900 S   0  0  0  0  0  0  0  0  0  0  0  0
  -19.1910   49.5590   44.7030 C   0  0  0  0  0  0  0  0  0  0  0  0
  -19.2450   50.6820   43.9710 C   0  0  0  0  0  0  0  0  0  0  0  0
  -19.3220   50.5870   42.5860 C   0  0  0  0  0  0  0  0  0  0  0  0
  -19.2730   49.3300   41.9600 C   0  0  0  0  0  0  0  0  0  0  0  0
  -19.0550   48.1970   42.6990 C   0  0  0  0  0  0  0  0  0  0  0  0
  -19.0890   48.2630   44.0390 C   0  0  0  0  0  0  0  0  0  0  0  0
  -19.1510   49.2100   40.5570 N   0  0  0  0  0  0  0  0  0  0  0  0
  -19.8450   49.7810   39.6300 C   0  0  0  0  0  0  0  0  0  0  0  0
  -20.9880   50.7270   39.7830 C   0  0  0  0  0  0  0  0  0  0  0  0
  -20.8990   51.9020   39.1740 C   0  0  0  0  0  0  0  0  0  0  0  0
  -21.9210   52.8240   39.2740 C   0  0  0  0  0  0  0  0  0  0  0  0
  -23.0630   52.5090   40.0120 C   0  0  0  0  0  0  0  0  0  0  0  0
  -24.1640   53.5260   40.0940 C   0  0  0  0  0  0  0  0  0  0  0  0
  -23.1590   51.2790   40.6430 C   0  0  0  0  0  0  0  0  0  0  0  0
  -22.1650   50.3880   40.5520 C   0  0  0  0  0  0  0  0  0  0  0  0
  -19.3260   49.3590   38.3830 C   0  0  0  0  0  0  0  0  0  0  0  0
  -18.3320   48.5470   38.6240 C   0  0  0  0  0  0  0  0  0  0  0  0
  -17.4960   47.8560   37.6110 C   0  0  0  0  0  0  0  0  0  0  0  0
  -17.1070   48.6660   36.6440 F   0  0  0  0  0  0  0  0  0  0  0  0
  -18.1860   46.8560   37.1030 F   0  0  0  0  0  0  0  0  0  0  0  0
  -16.4060   47.3840   38.1770 F   0  0  0  0  0  0  0  0  0  0  0  0
  -18.1990   48.4260   39.9640 N   0  0  0  0  0  0  0  0  0  0  0  0
  -18.3080   50.5290   47.1870 N   0  0  0  0  0  0  0  0  0  0  0  0
  -19.1650   48.0450   47.2830 O   0  0  0  0  0  0  0  0  0  0  0  0
  -20.9330   50.0140   46.8580 O   0  0  0  0  0  0  0  0  0  0  0  0
  -19.2285   51.6667   44.4610 H   0  0  0  0  0  0  0  0  0  0  0  0
  -19.4216   51.4986   41.9785 H   0  0  0  0  0  0  0  0  0  0  0  0
  -18.8534   47.2392   42.1971 H   0  0  0  0  0  0  0  0  0  0  0  0
  -19.0400   47.3409   44.6367 H   0  0  0  0  0  0  0  0  0  0  0  0
  -20.0026   52.1437   38.5840 H   0  0  0  0  0  0  0  0  0  0  0  0
  -21.8361   53.8008   38.7753 H   0  0  0  0  0  0  0  0  0  0  0  0
  -24.3913   53.7360   41.1496 H   0  0  0  0  0  0  0  0  0  0  0  0
  -23.8443   54.4534   39.5963 H   0  0  0  0  0  0  0  0  0  0  0  0
  -25.0632   53.1339   39.5963 H   0  0  0  0  0  0  0  0  0  0  0  0
  -24.0602   51.0330   41.2237 H   0  0  0  0  0  0  0  0  0  0  0  0
  -22.2418   49.4125   41.0544 H   0  0  0  0  0  0  0  0  0  0  0  0
  -19.6932   49.6602   37.3908 H   0  0  0  0  0  0  0  0  0  0  0  0
  -18.3279   50.5102   48.2166 H   0  0  0  0  0  0  0  0  0  0  0  0
  -17.3711   50.2571   46.8567 H   0  0  0  0  0  0  0  0  0  0  0  0
  1  2  1  0
  2  3  2  0
  3  4  1  0
  4  5  2  0
  5  6  1  0
  2  7  1  0
  6  7  2  0
  5  8  1  0
  8  9  1  0
  9 10  1  0
 10 11  2  0
 11 12  1  0
 12 13  2  0
 13 14  1  0
 13 15  1  0
 10 16  1  0
 15 16  2  0
  9 17  2  0
 17 18  1  0
 18 19  1  0
 19 20  1  0
 19 21  1  0
 19 22  1  0
  8 23  1  0
 18 23  2  0
  1 24  1  0
  1 25  2  0
  1 26  2  0
  3 27  1  0
  4 28  1  0
  6 29  1  0
  7 30  1  0
 11 31  1  0
 12 32  1  0
 14 33  1  0
 14 34  1  0
 14 35  1  0
 15 36  1  0
 16 37  1  0
 17 38  1  0
 24 39  1  0
 24 40  1  0
M  END
$$$$
