PDB_DB09078_99
     RDKit          3D

 69 72  0  0  0  0  0  0  0  0999 V2000
    0.6530  -10.0590   23.2490 C   0  0  0  0  0  0  0  0  0  0  0  0
    0.2630   -8.8490   22.5910 O   0  0  0  0  0  0  0  0  0  0  0  0
    0.4880   -8.6700   21.2500 C   0  0  0  0  0  0  0  0  0  0  0  0
    1.3110   -9.4980   20.5030 C   0  0  0  0  0  0  0  0  0  0  0  0
    1.5080   -9.2940   19.1280 C   0  0  0  0  0  0  0  0  0  0  0  0
    2.3330  -10.1050   18.4270 N   0  0  0  0  0  0  0  0  0  0  0  0
    2.5520   -9.8650   17.1520 C   0  0  0  0  0  0  0  0  0  0  0  0
    1.8960   -8.8720   16.4280 C   0  0  0  0  0  0  0  0  0  0  0  0
    1.0270   -8.0230   17.0730 C   0  0  1  0  0  0  0  0  0  0  0  0
    0.8230   -8.2380   18.4680 C   0  0  0  0  0  0  0  0  0  0  0  0
   -0.0030   -7.3920   19.2240 C   0  0  0  0  0  0  0  0  0  0  0  0
   -0.1680   -7.5900   20.5970 C   0  0  1  0  0  0  0  0  0  0  0  0
   -0.9670   -6.5940   21.3450 C   0  0  2  0  0  0  0  0  0  0  0  0
   -1.1540   -5.4960   20.8250 O   0  0  0  0  0  0  0  0  0  0  0  0
   -1.3120   -6.7410   22.6380 N   0  0  0  0  0  0  0  0  0  0  0  0
    0.3060   -7.0350   16.4720 O   0  0  0  0  0  0  0  0  0  0  0  0
    0.5420   -6.6780   15.1650 C   0  0  1  0  0  0  0  0  0  0  0  0
    0.0590   -7.4300   14.1070 C   0  0  0  0  0  0  0  0  0  0  0  0
    0.2810   -6.9860   12.7950 C   0  0  1  0  0  0  0  0  0  0  0  0
    1.0510   -5.8290   12.5900 C   0  0  2  0  0  0  0  0  0  0  0  0
    1.4420   -5.0470   13.6720 C   0  0  0  0  0  0  0  0  0  0  0  0
    1.2210   -5.5080   14.9600 C   0  0  0  0  0  0  0  0  0  0  0  0
    1.2100   -5.3560   11.2640 N   0  0  0  0  0  0  0  0  0  0  0  0
    2.2850   -4.6180   10.8340 C   0  0  0  0  0  0  0  0  0  0  0  0
    3.2670   -4.4220   11.5240 O   0  0  0  0  0  0  0  0  0  0  0  0
    2.1180   -4.1480    9.5630 N   0  0  0  0  0  0  0  0  0  0  0  0
    3.0380   -3.2160    8.9030 C   0  0  1  0  0  0  0  0  0  0  0  0
    4.3850   -3.7080    8.4680 C   0  0  0  0  0  0  0  0  0  0  0  0
    3.3040   -3.4620    7.4280 C   0  0  0  0  0  0  0  0  0  0  0  0
   -0.2830   -7.9180   11.4650 Cl  0  0  0  0  0  0  0  0  0  0  0  0
    0.6067   -9.9152   24.3386 H   0  0  0  0  0  0  0  0  0  0  0  0
   -0.0288  -10.8713   22.9570 H   0  0  0  0  0  0  0  0  0  0  0  0
    1.6809  -10.3203   22.9570 H   0  0  0  0  0  0  0  0  0  0  0  0
    1.3476   -8.0235   21.4805 H   0  0  0  0  0  0  0  0  0  0  0  0
    2.3061   -9.4480   20.9692 H   0  0  0  0  0  0  0  0  0  0  0  0
    0.7647  -10.4525   20.5231 H   0  0  0  0  0  0  0  0  0  0  0  0
    2.3529   -8.6250   19.3483 H   0  0  0  0  0  0  0  0  0  0  0  0
    3.2488  -10.0791   18.8977 H   0  0  0  0  0  0  0  0  0  0  0  0
    3.6248   -9.6360   17.0703 H   0  0  0  0  0  0  0  0  0  0  0  0
    2.1365  -10.7732   16.6909 H   0  0  0  0  0  0  0  0  0  0  0  0
    2.6741   -8.2445   15.9689 H   0  0  0  0  0  0  0  0  0  0  0  0
    1.2442   -9.4384   15.7466 H   0  0  0  0  0  0  0  0  0  0  0  0
    0.1934   -8.7039   16.8462 H   0  0  0  0  0  0  0  0  0  0  0  0
    1.6557   -7.5560   18.6949 H   0  0  0  0  0  0  0  0  0  0  0  0
    0.3941   -6.3737   19.0999 H   0  0  0  0  0  0  0  0  0  0  0  0
   -1.0046   -7.6102   18.8249 H   0  0  0  0  0  0  0  0  0  0  0  0
    0.6998   -6.9435   20.7945 H   0  0  0  0  0  0  0  0  0  0  0  0
   -1.7935   -7.2916   21.1444 H   0  0  0  0  0  0  0  0  0  0  0  0
   -1.2705   -4.8120   21.5312 H   0  0  0  0  0  0  0  0  0  0  0  0
   -0.5420   -6.4129   23.2382 H   0  0  0  0  0  0  0  0  0  0  0  0
   -2.1587   -6.1876   22.8325 H   0  0  0  0  0  0  0  0  0  0  0  0
    1.4653   -7.2759   15.1684 H   0  0  0  0  0  0  0  0  0  0  0  0
    0.5121   -8.4290   14.1893 H   0  0  0  0  0  0  0  0  0  0  0  0
   -1.0335   -7.3721   14.2218 H   0  0  0  0  0  0  0  0  0  0  0  0
   -0.6292   -6.3707   12.8492 H   0  0  0  0  0  0  0  0  0  0  0  0
    2.0448   -6.2939   12.6682 H   0  0  0  0  0  0  0  0  0  0  0  0
    2.5248   -4.8810   13.5726 H   0  0  0  0  0  0  0  0  0  0  0  0
    0.7942   -4.1610   13.5990 H   0  0  0  0  0  0  0  0  0  0  0  0
    0.6614   -4.7208   15.4864 H   0  0  0  0  0  0  0  0  0  0  0  0
    2.2341   -5.7395   15.3207 H   0  0  0  0  0  0  0  0  0  0  0  0
    1.1893   -6.1936   10.6649 H   0  0  0  0  0  0  0  0  0  0  0  0
    1.8200   -3.7061   11.2367 H   0  0  0  0  0  0  0  0  0  0  0  0
    3.0141   -4.4725   12.4798 H   0  0  0  0  0  0  0  0  0  0  0  0
    2.0859   -4.9821    8.9595 H   0  0  0  0  0  0  0  0  0  0  0  0
    2.7010   -2.3665    9.5152 H   0  0  0  0  0  0  0  0  0  0  0  0
    5.2571   -3.0397    8.5218 H   0  0  0  0  0  0  0  0  0  0  0  0
    5.0220   -4.5636    8.7369 H   0  0  0  0  0  0  0  0  0  0  0  0
    2.8278   -4.3104    6.9147 H   0  0  0  0  0  0  0  0  0  0  0  0
    3.2241   -2.8649    6.5076 H   0  0  0  0  0  0  0  0  0  0  0  0
  1  2  1  0
  2  3  1  0
  3  4  1  0
  4  5  1  0
  5  6  1  0
  6  7  1  0
  7  8  1  0
  8  9  1  0
  5 10  1  0
  9 10  1  0
 10 11  1  0
  3 12  1  0
 11 12  1  0
 12 13  1  0
 13 14  1  0
 13 15  1  0
  9 16  1  0
 16 17  1  0
 17 18  1  0
 18 19  1  0
 19 20  1  0
 20 21  1  0
 17 22  1  0
 21 22  1  0
 20 23  1  0
 23 24  1  0
 24 25  1  0
 24 26  1  0
 26 27  1  0
 27 28  1  0
 27 29  1  0
 28 29  1  0
 19 30  1  0
  1 31  1  0
  1 32  1  0
  1 33  1  0
  3 34  1  0
  4 35  1  0
  4 36  1  0
  5 37  1  0
  6 38  1  0
  7 39  1  0
  7 40  1  0
  8 41  1  0
  8 42  1  0
  9 43  1  1
 10 44  1  0
 11 45  1  0
 11 46  1  0
 12 47  1  6
 13 48  1  6
 14 49  1  0
 15 50  1  0
 15 51  1  0
 17 52  1  1
 18 53  1  0
 18 54  1  0
 19 55  1  1
 20 56  1  6
 21 57  1  0
 21 58  1  0
 22 59  1  0
 22 60  1  0
 23 61  1  0
 24 62  1  0
 25 63  1  0
 26 64  1  0
 27 65  1  6
 28 66  1  0
 28 67  1  0
 29 68  1  0
 29 69  1  0
M  END
>  <PDBID>  (1) 
3WZD

>  <PDB ID>  (1) 
3WZD

>  <Generic Name>  (1) 
Lenvatinib

>  <Brand Name>  (1) 
Lenvima

>  <DrugBank ID>  (1) 
DB09078

>  <ATC Codes>  (1) 
L01XE29

>  <Ligand ID>  (1) 
LEV

>  <Target Name>  (1) 
Vascular endothelial growth factor receptor 3

>  <UniProt ID>  (1) 
P35916

>  <PDB ID.1>  (1) 
3WZD

>  <Seq. Identity>  (1) 
67%

$$$$
