PDB_DB05990_98
     RDKit          3D

152158  0  0  0  0  0  0  0  0999 V2000
    8.1840   35.1620   16.2230 C   0  0  0  0  0  0  0  0  0  0  0  0
    8.4170   34.1640   17.4020 C   0  0  0  0  0  0  0  0  0  0  0  0
    7.6930   34.7220   18.7130 C   0  0  1  0  0  0  0  0  0  0  0  0
    7.8730   33.8450   19.7620 O   0  0  0  0  0  0  0  0  0  0  0  0
    8.2630   36.1690   19.1190 C   0  0  0  0  0  0  0  0  0  0  0  0
    8.0750   37.2330   17.8970 C   0  0  1  0  0  0  0  0  0  0  0  0
    8.6470   38.6960   18.1960 C   0  0  2  0  0  0  0  0  0  0  0  0
   10.2460   38.7190   18.2750 C   0  0  1  0  0  0  0  0  0  0  0  0
   10.7480   37.9790   19.4540 O   0  0  0  0  0  0  0  0  0  0  0  0
   10.9310   38.1380   16.9810 C   0  0  2  0  0  0  0  0  0  0  0  0
   10.4430   36.6090   16.7030 C   0  0  1  0  0  0  0  0  0  0  0  0
    8.7680   36.6150   16.5080 C   0  0  1  0  0  0  0  0  0  0  0  0
   11.1790   36.0700   15.4650 C   0  0  0  0  0  0  0  0  0  0  0  0
   12.7550   36.0600   15.5890 C   0  0  0  0  0  0  0  0  0  0  0  0
   13.2940   37.5270   15.8220 C   0  0  1  0  0  0  0  0  0  0  0  0
   12.5310   38.1110   17.0740 C   0  0  1  0  0  0  0  0  0  0  0  0
   13.2940   39.4950   17.3090 C   0  0  0  0  0  0  0  0  0  0  0  0
   14.7170   38.9970   17.2980 C   0  0  0  0  0  0  0  0  0  0  0  0
   14.8150   37.6990   16.3720 C   0  0  2  0  0  0  0  0  0  0  0  0
   12.9790   38.3930   14.4630 C   0  0  0  0  0  0  0  0  0  0  0  0
    8.3320   37.3690   15.2560 C   0  0  0  0  0  0  0  0  0  0  0  0
   15.9590   37.8080   15.2380 C   0  0  2  0  0  0  0  0  0  0  0  0
   15.9720   36.4330   14.3830 C   0  0  0  0  0  0  0  0  0  0  0  0
   17.3610   38.0110   15.8150 C   0  0  0  0  0  0  0  0  0  0  0  0
   18.4670   38.1220   14.6950 C   0  0  0  0  0  0  0  0  0  0  0  0
   19.8820   38.3250   15.1140 C   0  0  0  0  0  0  0  0  0  0  0  0
    6.7350   39.2900   19.9220 C   0  0  0  0  0  0  0  0  0  0  0  0
    8.2140   39.1380   19.5640 C   0  0  0  0  0  0  0  0  0  0  0  0
   20.3510   39.4660   15.0030 O   0  0  0  0  0  0  0  0  0  0  0  0
   20.5410   37.3480   15.5400 O   0  0  0  0  0  0  0  0  0  0  0  0
   18.0430   15.4160   56.7720 C   0  0  0  0  0  0  0  0  0  0  0  0
   17.8900   15.6840   55.2310 C   0  0  0  0  0  0  0  0  0  0  0  0
   18.8490   16.8740   54.7820 C   0  0  1  0  0  0  0  0  0  0  0  0
   18.7140   17.1180   53.4180 O   0  0  0  0  0  0  0  0  0  0  0  0
   18.5510   18.2260   55.6140 C   0  0  0  0  0  0  0  0  0  0  0  0
   18.7010   17.9630   57.2200 C   0  0  1  0  0  0  0  0  0  0  0  0
   18.3940   19.2380   58.1100 C   0  0  2  0  0  0  0  0  0  0  0  0
   16.8660   19.7030   58.0070 C   0  0  1  0  0  0  0  0  0  0  0  0
   16.5170   20.2490   56.6810 O   0  0  0  0  0  0  0  0  0  0  0  0
   15.8720   18.5390   58.3950 C   0  0  2  0  0  0  0  0  0  0  0  0
   16.1140   17.2220   57.4700 C   0  0  1  0  0  0  0  0  0  0  0  0
   17.7040   16.7030   57.6590 C   0  0  1  0  0  0  0  0  0  0  0  0
   15.0980   16.1390   57.8630 C   0  0  0  0  0  0  0  0  0  0  0  0
   13.5900   16.5790   57.7260 C   0  0  0  0  0  0  0  0  0  0  0  0
   13.2840   17.8540   58.6080 C   0  0  1  0  0  0  0  0  0  0  0  0
   14.3430   18.9540   58.2330 C   0  0  1  0  0  0  0  0  0  0  0  0
   13.8210   20.2080   59.0570 C   0  0  0  0  0  0  0  0  0  0  0  0
   12.3830   20.2090   58.6170 C   0  0  0  0  0  0  0  0  0  0  0  0
   11.9490   18.7100   58.2760 C   0  0  2  0  0  0  0  0  0  0  0  0
   13.3990   17.4170   60.1910 C   0  0  0  0  0  0  0  0  0  0  0  0
   17.9880   16.1790   59.0530 C   0  0  0  0  0  0  0  0  0  0  0  0
   10.6020   18.2750   59.0400 C   0  0  2  0  0  0  0  0  0  0  0  0
   10.2400   16.7600   58.6320 C   0  0  0  0  0  0  0  0  0  0  0  0
    9.4400   19.1820   58.6560 C   0  0  0  0  0  0  0  0  0  0  0  0
    8.0860   18.8360   59.3660 C   0  0  0  0  0  0  0  0  0  0  0  0
    6.9100   19.6920   59.0250 C   0  0  0  0  0  0  0  0  0  0  0  0
   20.7260   20.4440   57.7520 C   0  0  0  0  0  0  0  0  0  0  0  0
   19.1950   20.4080   57.6010 C   0  0  0  0  0  0  0  0  0  0  0  0
    6.4500   20.4230   59.9220 O   0  0  0  0  0  0  0  0  0  0  0  0
    6.4330   19.6450   57.8600 O   0  0  0  0  0  0  0  0  0  0  0  0
    8.6712   34.7596   15.3226 H   0  0  0  0  0  0  0  0  0  0  0  0
    7.0968   35.2661   16.0923 H   0  0  0  0  0  0  0  0  0  0  0  0
    7.9981   33.1811   17.1404 H   0  0  0  0  0  0  0  0  0  0  0  0
    9.4957   34.0603   17.5910 H   0  0  0  0  0  0  0  0  0  0  0  0
    6.6197   34.8190   18.4923 H   0  0  0  0  0  0  0  0  0  0  0  0
    7.7733   34.3306   20.6189 H   0  0  0  0  0  0  0  0  0  0  0  0
    7.7193   36.5353   20.0023 H   0  0  0  0  0  0  0  0  0  0  0  0
    9.3363   36.0743   19.3403 H   0  0  0  0  0  0  0  0  0  0  0  0
    6.9904   37.3640   17.7690 H   0  0  0  0  0  0  0  0  0  0  0  0
    8.2755   39.3347   17.3811 H   0  0  0  0  0  0  0  0  0  0  0  0
   10.5161   39.7816   18.3641 H   0  0  0  0  0  0  0  0  0  0  0  0
   10.4425   38.4294   20.2810 H   0  0  0  0  0  0  0  0  0  0  0  0
   10.6279   38.8122   16.1664 H   0  0  0  0  0  0  0  0  0  0  0  0
   10.6846   35.9443   17.5455 H   0  0  0  0  0  0  0  0  0  0  0  0
   10.8422   35.0379   15.2879 H   0  0  0  0  0  0  0  0  0  0  0  0
   10.9357   36.7514   14.6364 H   0  0  0  0  0  0  0  0  0  0  0  0
   13.0485   35.4260   16.4386 H   0  0  0  0  0  0  0  0  0  0  0  0
   13.1855   35.6634   14.6577 H   0  0  0  0  0  0  0  0  0  0  0  0
   12.5779   37.4639   17.9623 H   0  0  0  0  0  0  0  0  0  0  0  0
   13.1035   40.2121   16.4969 H   0  0  0  0  0  0  0  0  0  0  0  0
   12.9971   40.0467   18.2132 H   0  0  0  0  0  0  0  0  0  0  0  0
   15.3779   39.7819   16.9016 H   0  0  0  0  0  0  0  0  0  0  0  0
   15.0264   38.7429   18.3226 H   0  0  0  0  0  0  0  0  0  0  0  0
   15.1498   36.7986   16.9079 H   0  0  0  0  0  0  0  0  0  0  0  0
   12.6152   39.3930   14.7416 H   0  0  0  0  0  0  0  0  0  0  0  0
   13.8994   38.4901   13.8685 H   0  0  0  0  0  0  0  0  0  0  0  0
   12.2113   37.8760   13.8685 H   0  0  0  0  0  0  0  0  0  0  0  0
    7.8010   38.2873   15.5473 H   0  0  0  0  0  0  0  0  0  0  0  0
    9.2178   37.6314   14.6589 H   0  0  0  0  0  0  0  0  0  0  0  0
    7.6628   36.7322   14.6589 H   0  0  0  0  0  0  0  0  0  0  0  0
   15.7172   38.6856   14.6205 H   0  0  0  0  0  0  0  0  0  0  0  0
   15.9801   35.5740   15.0701 H   0  0  0  0  0  0  0  0  0  0  0  0
   15.0743   36.3869   13.7490 H   0  0  0  0  0  0  0  0  0  0  0  0
   16.8705   36.4039   13.7490 H   0  0  0  0  0  0  0  0  0  0  0  0
   17.3670   38.9367   16.4092 H   0  0  0  0  0  0  0  0  0  0  0  0
   17.5982   37.1318   16.4320 H   0  0  0  0  0  0  0  0  0  0  0  0
   18.4315   37.1914   14.1096 H   0  0  0  0  0  0  0  0  0  0  0  0
   18.2108   39.0440   14.1526 H   0  0  0  0  0  0  0  0  0  0  0  0
   20.2181   38.0876   14.0939 H   0  0  0  0  0  0  0  0  0  0  0  0
    6.6219   39.3016   21.0161 H   0  0  0  0  0  0  0  0  0  0  0  0
    6.3515   40.2323   19.5037 H   0  0  0  0  0  0  0  0  0  0  0  0
    6.1678   38.4454   19.5037 H   0  0  0  0  0  0  0  0  0  0  0  0
    8.6318   38.4081   20.2730 H   0  0  0  0  0  0  0  0  0  0  0  0
    8.5754   40.1762   19.6033 H   0  0  0  0  0  0  0  0  0  0  0  0
   20.5078   39.8474   15.9031 H   0  0  0  0  0  0  0  0  0  0  0  0
   20.5371   37.3538   16.5300 H   0  0  0  0  0  0  0  0  0  0  0  0
   17.3600   14.6022   57.0572 H   0  0  0  0  0  0  0  0  0  0  0  0
   19.0936   15.1501   56.9603 H   0  0  0  0  0  0  0  0  0  0  0  0
   18.1569   14.7729   54.6754 H   0  0  0  0  0  0  0  0  0  0  0  0
   16.8476   15.9626   55.0168 H   0  0  0  0  0  0  0  0  0  0  0  0
   19.8825   16.5637   54.9958 H   0  0  0  0  0  0  0  0  0  0  0  0
   18.2393   17.9760   53.2816 H   0  0  0  0  0  0  0  0  0  0  0  0
   19.2663   19.0034   55.3074 H   0  0  0  0  0  0  0  0  0  0  0  0
   17.5209   18.5498   55.4041 H   0  0  0  0  0  0  0  0  0  0  0  0
   19.7558   17.7137   57.4080 H   0  0  0  0  0  0  0  0  0  0  0  0
   18.6401   18.9560   59.1444 H   0  0  0  0  0  0  0  0  0  0  0  0
   16.7559   20.5187   58.7367 H   0  0  0  0  0  0  0  0  0  0  0  0
   15.9873   21.0777   56.7943 H   0  0  0  0  0  0  0  0  0  0  0  0
   16.0821   18.3213   59.4526 H   0  0  0  0  0  0  0  0  0  0  0  0
   15.9611   17.4540   56.4057 H   0  0  0  0  0  0  0  0  0  0  0  0
   15.2610   15.2639   57.2168 H   0  0  0  0  0  0  0  0  0  0  0  0
   15.2661   15.9231   58.9284 H   0  0  0  0  0  0  0  0  0  0  0  0
   13.3788   16.8128   56.6721 H   0  0  0  0  0  0  0  0  0  0  0  0
   12.9532   15.7529   58.0754 H   0  0  0  0  0  0  0  0  0  0  0  0
   14.3957   19.1684   57.1554 H   0  0  0  0  0  0  0  0  0  0  0  0
   13.9185   20.0561   60.1421 H   0  0  0  0  0  0  0  0  0  0  0  0
   14.3668   21.1464   58.8796 H   0  0  0  0  0  0  0  0  0  0  0  0
   11.7492   20.6028   59.4252 H   0  0  0  0  0  0  0  0  0  0  0  0
   12.2645   20.8445   57.7270 H   0  0  0  0  0  0  0  0  0  0  0  0
   11.6469   18.5466   57.2310 H   0  0  0  0  0  0  0  0  0  0  0  0
   13.1708   18.2841   60.8283 H   0  0  0  0  0  0  0  0  0  0  0  0
   12.6829   16.6089   60.4012 H   0  0  0  0  0  0  0  0  0  0  0  0
   14.4201   17.0660   60.4012 H   0  0  0  0  0  0  0  0  0  0  0  0
   17.6023   16.8906   59.7979 H   0  0  0  0  0  0  0  0  0  0  0  0
   17.4943   15.2051   59.1863 H   0  0  0  0  0  0  0  0  0  0  0  0
   19.0735   16.0610   59.1863 H   0  0  0  0  0  0  0  0  0  0  0  0
   10.7681   18.3580   60.1242 H   0  0  0  0  0  0  0  0  0  0  0  0
   10.0965   16.1594   59.5423 H   0  0  0  0  0  0  0  0  0  0  0  0
    9.3145   16.7515   58.0375 H   0  0  0  0  0  0  0  0  0  0  0  0
   11.0617   16.3341   58.0375 H   0  0  0  0  0  0  0  0  0  0  0  0
    9.7103   20.2161   58.9160 H   0  0  0  0  0  0  0  0  0  0  0  0
    9.2742   19.0401   57.5779 H   0  0  0  0  0  0  0  0  0  0  0  0
    7.8293   17.7985   59.1060 H   0  0  0  0  0  0  0  0  0  0  0  0
    8.2689   19.0104   60.4366 H   0  0  0  0  0  0  0  0  0  0  0  0
    6.2316   18.8838   59.3357 H   0  0  0  0  0  0  0  0  0  0  0  0
   20.9891   20.4502   58.8201 H   0  0  0  0  0  0  0  0  0  0  0  0
   21.1628   19.5559   57.2719 H   0  0  0  0  0  0  0  0  0  0  0  0
   21.1206   21.3517   57.2719 H   0  0  0  0  0  0  0  0  0  0  0  0
   18.9847   20.4866   56.5242 H   0  0  0  0  0  0  0  0  0  0  0  0
   18.8673   21.2294   58.2552 H   0  0  0  0  0  0  0  0  0  0  0  0
    6.6862   20.0477   60.8071 H   0  0  0  0  0  0  0  0  0  0  0  0
    5.4490   19.5480   57.9100 H   0  0  0  0  0  0  0  0  0  0  0  0
  1  2  1  0
  2  3  1  0
  3  4  1  0
  3  5  1  0
  5  6  1  0
  6  7  1  0
  7  8  1  0
  8  9  1  0
  8 10  1  0
 10 11  1  0
  1 12  1  0
  6 12  1  0
 11 12  1  0
 11 13  1  0
 13 14  1  0
 14 15  1  0
 10 16  1  0
 15 16  1  0
 16 17  1  0
 17 18  1  0
 15 19  1  0
 18 19  1  0
 15 20  1  6
 12 21  1  6
 19 22  1  0
 22 23  1  0
 22 24  1  0
 24 25  1  0
 25 26  1  0
  7 28  1  0
 27 28  1  0
 26 29  1  0
 26 30  1  0
 31 32  1  0
 32 33  1  0
 33 34  1  0
 33 35  1  0
 35 36  1  0
 36 37  1  0
 37 38  1  0
 38 39  1  0
 38 40  1  0
 40 41  1  0
 31 42  1  0
 36 42  1  0
 41 42  1  0
 41 43  1  0
 43 44  1  0
 44 45  1  0
 40 46  1  0
 45 46  1  0
 46 47  1  0
 47 48  1  0
 45 49  1  0
 48 49  1  0
 45 50  1  1
 42 51  1  1
 49 52  1  0
 52 53  1  0
 52 54  1  0
 54 55  1  0
 55 56  1  0
 37 58  1  0
 57 58  1  0
 56 59  1  0
 56 60  1  0
  1 61  1  0
  1 62  1  0
  2 63  1  0
  2 64  1  0
  3 65  1  6
  4 66  1  0
  5 67  1  0
  5 68  1  0
  6 69  1  6
  7 70  1  6
  8 71  1  1
  9 72  1  0
 10 73  1  6
 11 74  1  1
 13 75  1  0
 13 76  1  0
 14 77  1  0
 14 78  1  0
 16 79  1  1
 17 80  1  0
 17 81  1  0
 18 82  1  0
 18 83  1  0
 19 84  1  1
 20 85  1  0
 20 86  1  0
 20 87  1  0
 21 88  1  0
 21 89  1  0
 21 90  1  0
 22 91  1  6
 23 92  1  0
 23 93  1  0
 23 94  1  0
 24 95  1  0
 24 96  1  0
 25 97  1  0
 25 98  1  0
 26 99  1  0
 27100  1  0
 27101  1  0
 27102  1  0
 28103  1  0
 28104  1  0
 29105  1  0
 30106  1  0
 31107  1  0
 31108  1  0
 32109  1  0
 32110  1  0
 33111  1  6
 34112  1  0
 35113  1  0
 35114  1  0
 36115  1  6
 37116  1  1
 38117  1  1
 39118  1  0
 40119  1  1
 41120  1  6
 43121  1  0
 43122  1  0
 44123  1  0
 44124  1  0
 46125  1  6
 47126  1  0
 47127  1  0
 48128  1  0
 48129  1  0
 49130  1  6
 50131  1  0
 50132  1  0
 50133  1  0
 51134  1  0
 51135  1  0
 51136  1  0
 52137  1  1
 53138  1  0
 53139  1  0
 53140  1  0
 54141  1  0
 54142  1  0
 55143  1  0
 55144  1  0
 56145  1  0
 57146  1  0
 57147  1  0
 57148  1  0
 58149  1  0
 58150  1  0
 59151  1  0
 60152  1  0
M  END
>  <PDBID>  (1) 
1OSV

>  <PDB ID>  (1) 
1OSV

>  <Generic Name>  (1) 
Obeticholic acid

>  <Brand Name>  (1) 
Ocaliva

>  <DrugBank ID>  (1) 
DB05990

>  <ATC Codes>  (1) 
A05AA04

>  <Ligand ID>  (1) 
CHC

>  <Target Name>  (1) 
Bile acid receptor

>  <UniProt ID>  (1) 
Q96RI1

>  <PDB ID.1>  (1) 
1OSV

>  <Seq. Identity>  (1) 
94%

$$$$
