PDB_DB00624_98
     RDKit          3D

 49 52  0  0  0  0  0  0  0  0999 V2000
   27.7190    5.0370    4.3680 C   0  0  0  0  0  0  0  0  0  0  0  0
   26.9410    6.3070    4.6850 C   0  0  0  0  0  0  0  0  0  0  0  0
   25.5040    6.1850    4.2570 C   0  0  0  0  0  0  0  0  0  0  0  0
   24.8890    7.1710    3.8720 O   0  0  0  0  0  0  0  0  0  0  0  0
   24.8540    4.8660    4.2720 C   0  0  0  0  0  0  0  0  0  0  0  0
   25.5520    3.7560    4.5490 C   0  0  0  0  0  0  0  0  0  0  0  0
   24.7980    2.4500    4.5400 C   0  0  0  0  0  0  0  0  0  0  0  0
   25.5980    1.3730    3.8350 C   0  0  0  0  0  0  0  0  0  0  0  0
   26.9940    1.2290    4.4360 C   0  0  2  0  0  0  0  0  0  0  0  0
   27.7640    2.5480    4.3140 C   0  0  1  0  0  0  0  0  0  0  0  0
   27.0330    3.7720    4.9140 C   0  0  1  0  0  0  0  0  0  0  0  0
   29.1980    2.3970    4.8330 C   0  0  0  0  0  0  0  0  0  0  0  0
   29.9520    1.2710    4.1300 C   0  0  0  0  0  0  0  0  0  0  0  0
   29.2090   -0.0490    4.2730 C   0  0  1  0  0  0  0  0  0  0  0  0
   27.7940    0.1210    3.7330 C   0  0  1  0  0  0  0  0  0  0  0  0
   27.2670   -1.3140    3.6960 C   0  0  0  0  0  0  0  0  0  0  0  0
   28.4990   -2.1190    3.2490 C   0  0  0  0  0  0  0  0  0  0  0  0
   29.7100   -1.1810    3.3800 C   0  0  2  0  0  0  0  0  0  0  0  0
   30.8500   -1.8630    3.9060 O   0  0  0  0  0  0  0  0  0  0  0  0
   29.2330   -0.5170    5.7320 C   0  0  0  0  0  0  0  0  0  0  0  0
   27.0800    3.7880    6.4450 C   0  0  0  0  0  0  0  0  0  0  0  0
   27.8121    4.9440    3.2759 H   0  0  0  0  0  0  0  0  0  0  0  0
   28.7029    5.1187    4.8531 H   0  0  0  0  0  0  0  0  0  0  0  0
   26.9784    6.4896    5.7691 H   0  0  0  0  0  0  0  0  0  0  0  0
   27.3987    7.1426    4.1352 H   0  0  0  0  0  0  0  0  0  0  0  0
   23.7788    4.7893    4.0526 H   0  0  0  0  0  0  0  0  0  0  0  0
   24.6064    2.1368    5.5769 H   0  0  0  0  0  0  0  0  0  0  0  0
   23.8490    2.5938    4.0026 H   0  0  0  0  0  0  0  0  0  0  0  0
   25.0675    0.4140    3.9296 H   0  0  0  0  0  0  0  0  0  0  0  0
   25.7051    1.6588    2.7782 H   0  0  0  0  0  0  0  0  0  0  0  0
   26.8702    0.9622    5.4960 H   0  0  0  0  0  0  0  0  0  0  0  0
   27.8166    2.7723    3.2384 H   0  0  0  0  0  0  0  0  0  0  0  0
   29.7362    3.3416    4.6658 H   0  0  0  0  0  0  0  0  0  0  0  0
   29.1446    2.1497    5.9035 H   0  0  0  0  0  0  0  0  0  0  0  0
   30.0509    1.5152    3.0620 H   0  0  0  0  0  0  0  0  0  0  0  0
   30.9445    1.1687    4.5932 H   0  0  0  0  0  0  0  0  0  0  0  0
   27.7127    0.5439    2.7208 H   0  0  0  0  0  0  0  0  0  0  0  0
   26.9232   -1.6354    4.6902 H   0  0  0  0  0  0  0  0  0  0  0  0
   26.3993   -1.4419    3.0321 H   0  0  0  0  0  0  0  0  0  0  0  0
   28.6305   -3.0004    3.8939 H   0  0  0  0  0  0  0  0  0  0  0  0
   28.3848   -2.4761    2.2149 H   0  0  0  0  0  0  0  0  0  0  0  0
   30.0645   -0.7956    2.4126 H   0  0  0  0  0  0  0  0  0  0  0  0
   30.8184   -1.8441    4.8953 H   0  0  0  0  0  0  0  0  0  0  0  0
   29.1882    0.3571    6.3982 H   0  0  0  0  0  0  0  0  0  0  0  0
   28.3671   -1.1680    5.9225 H   0  0  0  0  0  0  0  0  0  0  0  0
   30.1610   -1.0760    5.9225 H   0  0  0  0  0  0  0  0  0  0  0  0
   26.1100    3.4578    6.8451 H   0  0  0  0  0  0  0  0  0  0  0  0
   27.8713    3.1086    6.7947 H   0  0  0  0  0  0  0  0  0  0  0  0
   27.2924    4.8091    6.7947 H   0  0  0  0  0  0  0  0  0  0  0  0
  1  2  1  0
  2  3  1  0
  3  4  2  0
  3  5  1  0
  5  6  2  0
  6  7  1  0
  7  8  1  0
  8  9  1  0
  9 10  1  0
  1 11  1  0
  6 11  1  0
 10 11  1  0
 10 12  1  0
 12 13  1  0
 13 14  1  0
  9 15  1  0
 14 15  1  0
 15 16  1  0
 16 17  1  0
 14 18  1  0
 17 18  1  0
 18 19  1  0
 14 20  1  1
 11 21  1  1
  1 22  1  0
  1 23  1  0
  2 24  1  0
  2 25  1  0
  5 26  1  0
  7 27  1  0
  7 28  1  0
  8 29  1  0
  8 30  1  0
  9 31  1  1
 10 32  1  6
 12 33  1  0
 12 34  1  0
 13 35  1  0
 13 36  1  0
 15 37  1  6
 16 38  1  0
 16 39  1  0
 17 40  1  0
 17 41  1  0
 18 42  1  6
 19 43  1  0
 20 44  1  0
 20 45  1  0
 20 46  1  0
 21 47  1  0
 21 48  1  0
 21 49  1  0
M  END
>  <PDBID>  (1) 
2Q7K

>  <PDB ID>  (1) 
2Q7K

>  <Generic Name>  (1) 
Testosterone

>  <Brand Name>  (1) 
Andriol#Androderm#Androgel#Aveed#Axiron#Delatestryl#Depo-testosterone#Depo-testosterone Inj 100mg/ml#Fortesta#Malogen Aqueous 100 Sus 100mg/ml#Malogex La200 Liq 200mg/ml#Natesto#Neo Pause Injection#PMS-testosterone#PMS-testosterone Enanthate Inj 200mg/ml USP#Scheinpharm Testone-cyp Inject.- Im 100mg/ml#Striant#Taro-testosterone#Testim#Testim 1%#Testopel#Testosterone#Testosterone Cypionate#Testosterone Cypionate Injection USP#Testosterone Cypionate Injection, USP#Testosterone Enanthate#Testosterone Enanthate Inj 200mg/ml#Vogelxo#Andronate 100#Andronate 200#Andropatch#Andropository 200#Andryl 200#Bio-T-Gel#Fortigel#Intrinsa#Livensa#Nebido#Sustanon#Testamone 100#Testaqua IM#Testoderm#Testoderm TTS#Testogel#Testolin#Testopatch#Testopel Pellets#Testrin-P.A#Testro AQ#Tostrelle#Tostrex#Virormone

>  <DrugBank ID>  (1) 
DB00624

>  <ATC Codes>  (1) 
G03EA02#G03BA03

>  <Ligand ID>  (1) 
TES

>  <Target Name>  (1) 
Androgen receptor

>  <UniProt ID>  (1) 
P10275

>  <PDB ID.1>  (1) 
2Q7K

>  <Seq. Identity>  (1) 
100%

$$$$
