PDB_DB00705_99
     RDKit          3D

 78 81  0  0  0  0  0  0  0  0999 V2000
   -1.4020  -35.2070   23.5790 C   0  0  0  0  0  0  0  0  0  0  0  0
   -0.7030  -34.6530   24.6770 C   0  0  0  0  0  0  0  0  0  0  0  0
    0.2490  -35.4580   25.2840 C   0  0  0  0  0  0  0  0  0  0  0  0
    0.4840  -36.7440   24.8300 C   0  0  0  0  0  0  0  0  0  0  0  0
   -0.2670  -37.1880   23.7330 C   0  0  0  0  0  0  0  0  0  0  0  0
   -2.5540  -34.6030   21.4860 C   0  0  0  0  0  0  0  0  0  0  0  0
   -3.3940  -33.4980   20.9040 C   0  0  0  0  0  0  0  0  0  0  0  0
   -4.6800  -33.4090   22.9670 C   0  0  0  0  0  0  0  0  0  0  0  0
   -3.7270  -34.4050   23.5850 C   0  0  0  0  0  0  0  0  0  0  0  0
   -5.7380  -34.1570   20.8450 C   0  0  0  0  0  0  0  0  0  0  0  0
   -7.0640  -34.3230   21.5580 C   0  0  0  0  0  0  0  0  0  0  0  0
   -7.6660  -33.6670   22.6090 C   0  0  0  0  0  0  0  0  0  0  0  0
   -9.9450  -34.0980   23.7990 C   0  0  0  0  0  0  0  0  0  0  0  0
  -11.0420  -34.9560   23.7540 C   0  0  0  0  0  0  0  0  0  0  0  0
  -11.1400  -35.9850   22.8280 C   0  0  0  0  0  0  0  0  0  0  0  0
  -10.1330  -36.2220   21.8990 C   0  0  0  0  0  0  0  0  0  0  0  0
   -9.0120  -35.3670   21.9290 C   0  0  0  0  0  0  0  0  0  0  0  0
   -8.9120  -34.3200   22.8650 C   0  0  0  0  0  0  0  0  0  0  0  0
   -0.1500  -32.5680   26.0560 C   0  0  2  0  0  0  0  0  0  0  0  0
    1.3120  -32.5680   25.6730 C   0  0  0  0  0  0  0  0  0  0  0  0
   -0.3340  -33.0810   27.4520 C   0  0  0  0  0  0  0  0  0  0  0  0
  -11.0570  -34.2950   27.1110 C   0  0  0  0  0  0  0  0  0  0  0  0
   -0.9720  -33.3400   25.0970 N   0  0  0  0  0  0  0  0  0  0  0  0
   -1.2000  -36.4390   23.1180 N   0  0  0  0  0  0  0  0  0  0  0  0
   -2.3860  -34.4100   22.9470 N   0  0  0  0  0  0  0  0  0  0  0  0
   -4.7230  -33.6310   21.5140 N   0  0  0  0  0  0  0  0  0  0  0  0
   -7.8870  -35.3440   21.1490 N   0  0  0  0  0  0  0  0  0  0  0  0
  -12.0940  -34.7800   24.6560 N   0  0  0  0  0  0  0  0  0  0  0  0
   -5.6410  -34.5230   19.6460 O   0  0  0  0  0  0  0  0  0  0  0  0
  -13.5120  -33.7540   26.4110 O   0  0  0  0  0  0  0  0  0  0  0  0
  -11.7450  -32.4330   25.4180 O   0  0  0  0  0  0  0  0  0  0  0  0
  -12.1850  -33.7140   25.8770 S   0  0  1  0  0  4  0  0  0  0  0  0
   -0.6304  -34.8244   22.8947 H   0  0  0  0  0  0  0  0  0  0  0  0
   -1.4699  -35.0433   25.3622 H   0  0  0  0  0  0  0  0  0  0  0  0
    1.2060  -34.9204   25.2124 H   0  0  0  0  0  0  0  0  0  0  0  0
   -0.1763  -35.6265   26.2844 H   0  0  0  0  0  0  0  0  0  0  0  0
    1.5459  -36.8061   24.5497 H   0  0  0  0  0  0  0  0  0  0  0  0
    0.1794  -37.3961   25.6619 H   0  0  0  0  0  0  0  0  0  0  0  0
    0.4648  -37.4537   22.9559 H   0  0  0  0  0  0  0  0  0  0  0  0
   -0.8904  -37.9642   24.2008 H   0  0  0  0  0  0  0  0  0  0  0  0
   -3.0477  -35.5687   21.3024 H   0  0  0  0  0  0  0  0  0  0  0  0
   -1.5635  -34.5879   21.0078 H   0  0  0  0  0  0  0  0  0  0  0  0
   -2.9582  -32.5181   21.1486 H   0  0  0  0  0  0  0  0  0  0  0  0
   -3.4466  -33.5687   19.8075 H   0  0  0  0  0  0  0  0  0  0  0  0
   -5.6853  -33.5469   23.3917 H   0  0  0  0  0  0  0  0  0  0  0  0
   -4.3382  -32.3850   23.1781 H   0  0  0  0  0  0  0  0  0  0  0  0
   -3.6059  -34.1576   24.6500 H   0  0  0  0  0  0  0  0  0  0  0  0
   -4.1610  -35.4050   23.4381 H   0  0  0  0  0  0  0  0  0  0  0  0
   -6.0412  -33.1524   20.5151 H   0  0  0  0  0  0  0  0  0  0  0  0
   -6.5965  -35.0251   22.2640 H   0  0  0  0  0  0  0  0  0  0  0  0
   -7.0245  -33.7186   23.5011 H   0  0  0  0  0  0  0  0  0  0  0  0
   -7.8270  -32.6069   22.3634 H   0  0  0  0  0  0  0  0  0  0  0  0
  -10.3186  -33.0754   23.6418 H   0  0  0  0  0  0  0  0  0  0  0  0
   -9.4829  -34.2813   24.7803 H   0  0  0  0  0  0  0  0  0  0  0  0
  -11.5453  -34.2757   23.0513 H   0  0  0  0  0  0  0  0  0  0  0  0
  -11.2542  -36.9137   23.4063 H   0  0  0  0  0  0  0  0  0  0  0  0
  -11.9756  -35.6546   22.1934 H   0  0  0  0  0  0  0  0  0  0  0  0
   -9.7705  -37.2481   22.0590 H   0  0  0  0  0  0  0  0  0  0  0  0
  -10.6019  -36.0391   20.9209 H   0  0  0  0  0  0  0  0  0  0  0  0
   -9.5112  -34.6877   21.2224 H   0  0  0  0  0  0  0  0  0  0  0  0
   -8.4127  -34.9934   23.5772 H   0  0  0  0  0  0  0  0  0  0  0  0
   -0.4991  -31.5255   26.0195 H   0  0  0  0  0  0  0  0  0  0  0  0
    1.6667  -33.6051   25.5801 H   0  0  0  0  0  0  0  0  0  0  0  0
    1.4391  -32.0495   24.7113 H   0  0  0  0  0  0  0  0  0  0  0  0
    1.8943  -32.0495   26.4489 H   0  0  0  0  0  0  0  0  0  0  0  0
   -0.0529  -32.2972   28.1707 H   0  0  0  0  0  0  0  0  0  0  0  0
   -1.3875  -33.3580   27.6050 H   0  0  0  0  0  0  0  0  0  0  0  0
    0.3033  -33.9644   27.6050 H   0  0  0  0  0  0  0  0  0  0  0  0
  -11.4661  -34.0843   28.1101 H   0  0  0  0  0  0  0  0  0  0  0  0
  -10.9132  -35.3794   26.9949 H   0  0  0  0  0  0  0  0  0  0  0  0
  -10.0907  -33.7825   26.9949 H   0  0  0  0  0  0  0  0  0  0  0  0
   -0.9915  -32.7752   24.2359 H   0  0  0  0  0  0  0  0  0  0  0  0
   -2.0950  -36.9442   23.1860 H   0  0  0  0  0  0  0  0  0  0  0  0
   -8.1546  -35.1956   20.1655 H   0  0  0  0  0  0  0  0  0  0  0  0
  -12.9134  -34.5745   24.0667 H   0  0  0  0  0  0  0  0  0  0  0  0
   -5.3875  -35.4794   19.6124 H   0  0  0  0  0  0  0  0  0  0  0  0
  -13.4699  -33.7527   27.4001 H   0  0  0  0  0  0  0  0  0  0  0  0
  -11.5462  -31.8541   26.1961 H   0  0  0  0  0  0  0  0  0  0  0  0
  1  2  1  0
  2  3  1  0
  3  4  1  0
  4  5  1  0
  6  7  1  0
  8  9  1  0
 10 11  1  0
 11 12  1  0
 13 14  1  0
 14 15  1  0
 15 16  1  0
 16 17  1  0
 12 18  1  0
 13 18  1  0
 17 18  1  0
 19 20  1  0
 19 21  1  0
  2 23  1  0
 19 23  1  0
  1 24  1  0
  5 24  1  0
  1 25  1  0
  6 25  1  0
  9 25  1  0
  7 26  1  0
  8 26  1  0
 10 26  1  0
 11 27  1  0
 17 27  1  0
 14 28  1  0
 10 29  1  0
 22 32  1  0
 28 32  1  0
 32 30  1  1
 31 32  1  0
  1 33  1  0
  2 34  1  0
  3 35  1  0
  3 36  1  0
  4 37  1  0
  4 38  1  0
  5 39  1  0
  5 40  1  0
  6 41  1  0
  6 42  1  0
  7 43  1  0
  7 44  1  0
  8 45  1  0
  8 46  1  0
  9 47  1  0
  9 48  1  0
 10 49  1  0
 11 50  1  0
 12 51  1  0
 12 52  1  0
 13 53  1  0
 13 54  1  0
 14 55  1  0
 15 56  1  0
 15 57  1  0
 16 58  1  0
 16 59  1  0
 17 60  1  0
 18 61  1  0
 19 62  1  1
 20 63  1  0
 20 64  1  0
 20 65  1  0
 21 66  1  0
 21 67  1  0
 21 68  1  0
 22 69  1  0
 22 70  1  0
 22 71  1  0
 23 72  1  0
 24 73  1  0
 27 74  1  0
 28 75  1  0
 29 76  1  0
 30 77  1  0
 31 78  1  0
M  END
>  <PDBID>  (1) 
1KLM

>  <PDB ID>  (1) 
1KLM

>  <Generic Name>  (1) 
Delavirdine

>  <Brand Name>  (1) 
Rescriptor

>  <DrugBank ID>  (1) 
DB00705

>  <ATC Codes>  (1) 
J05AG02

>  <Ligand ID>  (1) 
SPP

>  <Target Name>  (1) 
Reverse transcriptase/RNaseH

>  <UniProt ID>  (1) 
Q72547

>  <PDB ID.1>  (1) 
1KLM

>  <Seq. Identity>  (1) 
95%

$$$$
