PDB_DB00188_82
     RDKit          3D

 53 54  0  0  0  0  0  0  0  0999 V2000
   19.9570 -164.1580   53.6870 N   0  0  0  0  0  0  0  0  0  0  0  0
   20.4020 -162.9730   54.1400 C   0  0  0  0  0  0  0  0  0  0  0  0
   19.5450 -161.8710   54.1440 C   0  0  0  0  0  0  0  0  0  0  0  0
   18.2280 -161.9860   53.6900 N   0  0  0  0  0  0  0  0  0  0  0  0
   17.7760 -163.2210   53.2220 C   0  0  0  0  0  0  0  0  0  0  0  0
   18.6400 -164.3070   53.2210 C   0  0  0  0  0  0  0  0  0  0  0  0
   21.7180 -162.8650   54.5950 C   0  0  0  0  0  0  0  0  0  0  0  0
   22.5440 -163.7300   54.3070 O   0  0  0  0  0  0  0  0  0  0  0  0
   21.9960 -161.7850   55.3480 N   0  0  0  0  0  0  0  0  0  0  0  0
   23.3290 -161.5200   55.9050 C   0  0  1  0  0  0  0  0  0  0  0  0
   23.7700 -160.1900   55.3260 C   0  0  0  0  0  0  0  0  0  0  0  0
   24.8460 -159.6680   56.0710 C   0  0  0  0  0  0  0  0  0  0  0  0
   26.1240 -160.2170   55.9360 C   0  0  0  0  0  0  0  0  0  0  0  0
   27.1960 -159.6950   56.6630 C   0  0  0  0  0  0  0  0  0  0  0  0
   27.0020 -158.6150   57.5250 C   0  0  0  0  0  0  0  0  0  0  0  0
   25.7320 -158.0560   57.6600 C   0  0  0  0  0  0  0  0  0  0  0  0
   24.6600 -158.5770   56.9330 C   0  0  0  0  0  0  0  0  0  0  0  0
   23.1580 -161.5200   57.4330 C   0  0  0  0  0  0  0  0  0  0  0  0
   22.2120 -160.9250   57.9490 O   0  0  0  0  0  0  0  0  0  0  0  0
   24.0570 -162.2480   58.1220 N   0  0  0  0  0  0  0  0  0  0  0  0
   24.0010 -162.3550   59.5950 C   0  0  1  0  0  0  0  0  0  0  0  0
   24.2900 -163.7620   60.0860 C   0  0  0  0  0  0  0  0  0  0  0  0
   23.5320 -164.8210   59.2390 C   0  0  0  0  0  0  0  0  0  0  0  0
   24.2770 -166.1680   59.3200 C   0  0  0  0  0  0  0  0  0  0  0  0
   22.0780 -164.9980   59.7120 C   0  0  0  0  0  0  0  0  0  0  0  0
   25.0400 -161.3890   60.2350 B   0  0  0  0  0  0  0  0  0  0  0  0
   24.7310 -160.0320   59.8890 O   0  0  0  0  0  0  0  0  0  0  0  0
   26.3610 -161.7070   59.7600 O   0  0  0  0  0  0  0  0  0  0  0  0
   19.9108 -160.8999   54.5090 H   0  0  0  0  0  0  0  0  0  0  0  0
   16.7442 -163.3324   52.8573 H   0  0  0  0  0  0  0  0  0  0  0  0
   18.2936 -165.2848   52.8552 H   0  0  0  0  0  0  0  0  0  0  0  0
   21.2396 -161.1136   55.5426 H   0  0  0  0  0  0  0  0  0  0  0  0
   24.1032 -162.2612   55.6575 H   0  0  0  0  0  0  0  0  0  0  0  0
   24.0869 -160.3350   54.2827 H   0  0  0  0  0  0  0  0  0  0  0  0
   22.9281 -159.4833   55.3679 H   0  0  0  0  0  0  0  0  0  0  0  0
   26.2864 -161.0645   55.2538 H   0  0  0  0  0  0  0  0  0  0  0  0
   28.1975 -160.1371   56.5557 H   0  0  0  0  0  0  0  0  0  0  0  0
   27.8484 -158.2060   58.0962 H   0  0  0  0  0  0  0  0  0  0  0  0
   25.5747 -157.2049   58.3389 H   0  0  0  0  0  0  0  0  0  0  0  0
   23.6611 -158.1282   57.0370 H   0  0  0  0  0  0  0  0  0  0  0  0
   24.8017 -162.7423   57.6102 H   0  0  0  0  0  0  0  0  0  0  0  0
   22.9769 -162.0877   59.8945 H   0  0  0  0  0  0  0  0  0  0  0  0
   25.3711 -163.9520   60.0137 H   0  0  0  0  0  0  0  0  0  0  0  0
   23.9501 -163.8429   61.1290 H   0  0  0  0  0  0  0  0  0  0  0  0
   23.5014 -164.4676   58.1978 H   0  0  0  0  0  0  0  0  0  0  0  0
   24.4278 -166.4407   60.3749 H   0  0  0  0  0  0  0  0  0  0  0  0
   23.6815 -166.9470   58.8214 H   0  0  0  0  0  0  0  0  0  0  0  0
   25.2534 -166.0776   58.8214 H   0  0  0  0  0  0  0  0  0  0  0  0
   22.0480 -165.0017   60.8116 H   0  0  0  0  0  0  0  0  0  0  0  0
   21.4649 -164.1679   59.3312 H   0  0  0  0  0  0  0  0  0  0  0  0
   21.6820 -165.9510   59.3312 H   0  0  0  0  0  0  0  0  0  0  0  0
   24.6099 -159.5002   60.7152 H   0  0  0  0  0  0  0  0  0  0  0  0
   26.9633 -161.8520   60.5322 H   0  0  0  0  0  0  0  0  0  0  0  0
  1  2  2  0
  2  3  1  0
  3  4  2  0
  4  5  1  0
  1  6  1  0
  5  6  2  0
  2  7  1  0
  7  8  2  0
  7  9  1  0
  9 10  1  0
 10 11  1  0
 11 12  1  0
 12 13  2  0
 13 14  1  0
 14 15  2  0
 15 16  1  0
 12 17  1  0
 16 17  2  0
 10 18  1  0
 18 19  2  0
 18 20  1  0
 20 21  1  0
 21 22  1  0
 22 23  1  0
 23 24  1  0
 23 25  1  0
 21 26  1  0
 26 27  1  0
 26 28  1  0
  3 29  1  0
  5 30  1  0
  6 31  1  0
  9 32  1  0
 10 33  1  1
 11 34  1  0
 11 35  1  0
 13 36  1  0
 14 37  1  0
 15 38  1  0
 16 39  1  0
 17 40  1  0
 20 41  1  0
 21 42  1  1
 22 43  1  0
 22 44  1  0
 23 45  1  0
 24 46  1  0
 24 47  1  0
 24 48  1  0
 25 49  1  0
 25 50  1  0
 25 51  1  0
 27 52  1  0
 28 53  1  0
M  END
$$$$
