PDB_DB00328_94
     RDKit          3D

 41 43  0  0  0  0  0  0  0  0999 V2000
   26.0590   16.3190  -10.0740 C   0  0  0  0  0  0  0  0  0  0  0  0
   26.0650   15.0110   -9.2610 C   0  0  0  0  0  0  0  0  0  0  0  0
   24.9490   14.4810   -8.5260 C   0  0  0  0  0  0  0  0  0  0  0  0
   23.6890   15.2210   -8.5100 C   0  0  0  0  0  0  0  0  0  0  0  0
   23.6090   16.5150   -9.2830 C   0  0  0  0  0  0  0  0  0  0  0  0
   24.7800   17.0560  -10.0480 C   0  0  0  0  0  0  0  0  0  0  0  0
   21.4590   15.3150   -7.0750 C   0  0  0  0  0  0  0  0  0  0  0  0
   27.4250   14.4090   -9.4040 C   0  0  0  0  0  0  0  0  0  0  0  0
   28.2560   15.3520  -10.2910 C   0  0  0  0  0  0  0  0  0  0  0  0
   27.8940   17.6220  -11.5570 C   0  0  0  0  0  0  0  0  0  0  0  0
   27.2280   18.9900  -12.1650 C   0  0  0  0  0  0  0  0  0  0  0  0
   28.1260   19.7390  -12.9500 C   0  0  0  0  0  0  0  0  0  0  0  0
   27.7810   20.9570  -13.5790 C   0  0  0  0  0  0  0  0  0  0  0  0
   26.5040   21.6310  -13.5230 C   0  0  0  0  0  0  0  0  0  0  0  0
   25.5160   20.8900  -12.7060 C   0  0  0  0  0  0  0  0  0  0  0  0
   25.8620   19.5930  -12.0290 C   0  0  0  0  0  0  0  0  0  0  0  0
   29.7010   15.1110  -10.6780 C   0  0  0  0  0  0  0  0  0  0  0  0
   27.5780   13.1660   -8.7040 C   0  0  0  0  0  0  0  0  0  0  0  0
   27.7770   11.6600   -9.3140 C   0  0  0  0  0  0  0  0  0  0  0  0
   27.3720   16.4640  -10.6480 N   0  0  0  0  0  0  0  0  0  0  0  0
   22.6000   14.6660   -7.7640 O   0  0  0  0  0  0  0  0  0  0  0  0
   29.1370   17.5070  -11.9490 O   0  0  0  0  0  0  0  0  0  0  0  0
   28.0810   11.3340  -10.5470 O   0  0  0  0  0  0  0  0  0  0  0  0
   27.5520   10.6420   -8.2880 O   0  0  0  0  0  0  0  0  0  0  0  0
   26.3040   23.2750  -14.4670 Cl  0  0  0  0  0  0  0  0  0  0  0  0
   25.0424   13.5295   -7.9820 H   0  0  0  0  0  0  0  0  0  0  0  0
   22.6639   17.0778   -9.2853 H   0  0  0  0  0  0  0  0  0  0  0  0
   24.6854   18.0070  -10.5926 H   0  0  0  0  0  0  0  0  0  0  0  0
   21.5958   15.2372   -5.9863 H   0  0  0  0  0  0  0  0  0  0  0  0
   21.4114   16.3754   -7.3637 H   0  0  0  0  0  0  0  0  0  0  0  0
   20.5233   14.8140   -7.3637 H   0  0  0  0  0  0  0  0  0  0  0  0
   29.1490   19.3563  -13.0804 H   0  0  0  0  0  0  0  0  0  0  0  0
   28.5680   21.4433  -14.1741 H   0  0  0  0  0  0  0  0  0  0  0  0
   24.5015   21.2996  -12.5913 H   0  0  0  0  0  0  0  0  0  0  0  0
   25.1009   19.0782  -11.4243 H   0  0  0  0  0  0  0  0  0  0  0  0
   30.3119   15.0091   -9.7690 H   0  0  0  0  0  0  0  0  0  0  0  0
   29.7723   14.1886  -11.2730 H   0  0  0  0  0  0  0  0  0  0  0  0
   30.0678   15.9604  -11.2730 H   0  0  0  0  0  0  0  0  0  0  0  0
   28.4578   13.3198   -8.0619 H   0  0  0  0  0  0  0  0  0  0  0  0
   26.5417   13.0563   -8.3519 H   0  0  0  0  0  0  0  0  0  0  0  0
   27.6385    9.6824   -8.5155 H   0  0  0  0  0  0  0  0  0  0  0  0
  1  2  1  0
  2  3  2  0
  3  4  1  0
  4  5  2  0
  1  6  2  0
  5  6  1  0
  2  8  1  0
  8  9  2  0
 10 11  1  0
 11 12  2  0
 12 13  1  0
 13 14  2  0
 14 15  1  0
 11 16  1  0
 15 16  2  0
  9 17  1  0
  8 18  1  0
 18 19  1  0
  1 20  1  0
  9 20  1  0
 10 20  1  0
  4 21  1  0
  7 21  1  0
 10 22  2  0
 19 23  2  0
 19 24  1  0
 14 25  1  0
  3 26  1  0
  5 27  1  0
  6 28  1  0
  7 29  1  0
  7 30  1  0
  7 31  1  0
 12 32  1  0
 13 33  1  0
 15 34  1  0
 16 35  1  0
 17 36  1  0
 17 37  1  0
 17 38  1  0
 18 39  1  0
 18 40  1  0
 24 41  1  0
M  END
>  <PDBID>  (1) 
2OTH

>  <PDB ID>  (1) 
2OTH

>  <Generic Name>  (1) 
Indomethacin

>  <Brand Name>  (1) 
Apo Indomethacin Cap 25mg#Apo Indomethacin Cap 50mg#Ftp-indomethacin#Indocid Cap 25mg#Indocid Cap 50mg#Indocid SR 75mg#Indocid Sterile Oph Susp 1%#Indocid Sup 100mg#Indocid Sup 50mg#Indocin#Indocollyre#Indomethacin#Indomethacin ER#Indomethacin Extended-release#Mint-indomethacin#Novo-methacin - 100mg Sup#Novo-methacin - Sup 50mg#Ntp-indomethacin#Nu-indo Cap 25mg#Nu-indo Cap 50mg#Pro-indo 25 Cap 25mg#Pro-indo 50 Cap 50mg#Ratio-indomethacin#Rhodacine - Cap 25mg#Rhodacine - Cap 50mg#Rhodacine - Sup 100mg#Rhodacine - Sup 50mg#Sandoz Indomethacin#Teva-indomethacin#Tivorbex#Arthrexin#Elmetacin#Indaflex#Indocid#Indolar SR#Indomed#Indoxen#Metindol#Mikametan#Nu-Indo#Reumacide

>  <DrugBank ID>  (1) 
DB00328

>  <ATC Codes>  (1) 
S01CC02#M02AA23#M01AB01#M01AB51#S01BC01#C01EB03

>  <Ligand ID>  (1) 
IMN

>  <Target Name>  (1) 
Phospholipase A2, membrane associated

>  <UniProt ID>  (1) 
P14555

>  <PDB ID.1>  (1) 
2OTH

>  <Seq. Identity>  (1) 
53%

$$$$
