PDB_DB01254_94
     RDKit          3D

 77 80  0  0  0  0  0  0  0  0999 V2000
   16.7010   -8.0160   27.4590 C   0  0  0  0  0  0  0  0  0  0  0  0
   18.0480   -8.3480   27.6590 C   0  0  0  0  0  0  0  0  0  0  0  0
   19.0890   -7.9330   28.6560 C   0  0  0  0  0  0  0  0  0  0  0  0
   17.0400  -13.4530   17.9910 N   0  0  0  0  0  0  0  0  0  0  0  0
   21.2830   -6.3340   32.8480 C   0  0  0  0  0  0  0  0  0  0  0  0
   20.6620   -7.5800   32.7920 C   0  0  0  0  0  0  0  0  0  0  0  0
   19.7920   -7.8990   31.7470 C   0  0  0  0  0  0  0  0  0  0  0  0
   19.1410   -9.2630   31.7420 C   0  0  0  0  0  0  0  0  0  0  0  0
   17.4680  -10.8930   23.8000 C   0  0  0  0  0  0  0  0  0  0  0  0
   16.9700  -11.6170   22.7140 C   0  0  0  0  0  0  0  0  0  0  0  0
   17.8550  -12.3110   21.8780 C   0  0  0  0  0  0  0  0  0  0  0  0
   19.6600  -11.5620   23.2190 C   0  0  0  0  0  0  0  0  0  0  0  0
   21.1380  -11.5180   23.5120 C   0  0  0  0  0  0  0  0  0  0  0  0
   18.3180  -13.9660   20.0690 C   0  0  0  0  0  0  0  0  0  0  0  0
   16.0210  -13.0030   20.2880 C   0  0  0  0  0  0  0  0  0  0  0  0
   16.8720  -13.7150   16.5640 C   0  0  0  0  0  0  0  0  0  0  0  0
   16.8720  -15.2150   16.2760 C   0  0  0  0  0  0  0  0  0  0  0  0
   16.6120  -10.2060   24.6190 N   0  0  0  0  0  0  0  0  0  0  0  0
   16.9810   -9.4630   25.7230 C   0  0  0  0  0  0  0  0  0  0  0  0
   16.1170   -8.6460   26.3810 N   0  0  0  0  0  0  0  0  0  0  0  0
   18.5500   -9.4750   26.4460 S   0  0  0  0  0  0  0  0  0  0  0  0
   18.7040   -7.2170   29.7130 N   0  0  0  0  0  0  0  0  0  0  0  0
   19.5470   -6.9540   30.7470 C   0  0  0  0  0  0  0  0  0  0  0  0
   20.1690   -5.7100   30.8040 C   0  0  0  0  0  0  0  0  0  0  0  0
   21.0370   -5.3950   31.8470 C   0  0  0  0  0  0  0  0  0  0  0  0
   19.8590   -4.4920   29.5210 Cl  0  0  0  0  0  0  0  0  0  0  0  0
   20.2620   -8.2480   28.4890 O   0  0  0  0  0  0  0  0  0  0  0  0
   19.1860  -12.2640   22.1610 N   0  0  0  0  0  0  0  0  0  0  0  0
   18.8050  -10.8900   24.0200 N   0  0  0  0  0  0  0  0  0  0  0  0
   17.4010  -13.0680   20.7650 N   0  0  0  0  0  0  0  0  0  0  0  0
   18.3680  -13.6260   18.5840 C   0  0  0  0  0  0  0  0  0  0  0  0
   15.8780  -12.9990   18.7620 C   0  0  0  0  0  0  0  0  0  0  0  0
   15.7140  -15.8100   16.8760 O   0  0  0  0  0  0  0  0  0  0  0  0
   16.1400   -8.2909   28.3644 H   0  0  0  0  0  0  0  0  0  0  0  0
   16.6697   -6.9367   27.2489 H   0  0  0  0  0  0  0  0  0  0  0  0
   18.3498   -7.5209   26.9996 H   0  0  0  0  0  0  0  0  0  0  0  0
   19.2610   -7.0054   28.0903 H   0  0  0  0  0  0  0  0  0  0  0  0
   20.9846   -5.8711   33.8002 H   0  0  0  0  0  0  0  0  0  0  0  0
   22.3491   -6.5726   32.7197 H   0  0  0  0  0  0  0  0  0  0  0  0
   21.4659   -8.3305   32.7711 H   0  0  0  0  0  0  0  0  0  0  0  0
   19.9957   -7.5602   33.6670 H   0  0  0  0  0  0  0  0  0  0  0  0
   20.6361   -8.2997   31.1666 H   0  0  0  0  0  0  0  0  0  0  0  0
   18.9816   -9.5970   32.7779 H   0  0  0  0  0  0  0  0  0  0  0  0
   18.1732   -9.2055   31.2222 H   0  0  0  0  0  0  0  0  0  0  0  0
   19.7944   -9.9792   31.2222 H   0  0  0  0  0  0  0  0  0  0  0  0
   17.5698  -10.0038   23.1605 H   0  0  0  0  0  0  0  0  0  0  0  0
   16.2671  -12.3590   23.1206 H   0  0  0  0  0  0  0  0  0  0  0  0
   16.5534  -10.8393   22.0570 H   0  0  0  0  0  0  0  0  0  0  0  0
   17.9580  -11.4172   21.2451 H   0  0  0  0  0  0  0  0  0  0  0  0
   19.7596  -10.6703   22.5827 H   0  0  0  0  0  0  0  0  0  0  0  0
   21.2960  -11.5133   24.6006 H   0  0  0  0  0  0  0  0  0  0  0  0
   21.6250  -12.4020   23.0746 H   0  0  0  0  0  0  0  0  0  0  0  0
   21.5715  -10.6066   23.0746 H   0  0  0  0  0  0  0  0  0  0  0  0
   19.3249  -13.8609   20.4992 H   0  0  0  0  0  0  0  0  0  0  0  0
   17.9633  -15.0005   20.1869 H   0  0  0  0  0  0  0  0  0  0  0  0
   15.4794  -13.8756   20.6820 H   0  0  0  0  0  0  0  0  0  0  0  0
   15.6105  -12.0467   20.6442 H   0  0  0  0  0  0  0  0  0  0  0  0
   15.9161  -13.2852   16.2300 H   0  0  0  0  0  0  0  0  0  0  0  0
   17.7127  -13.2557   16.0234 H   0  0  0  0  0  0  0  0  0  0  0  0
   16.8494  -15.3809   15.1888 H   0  0  0  0  0  0  0  0  0  0  0  0
   17.7810  -15.6717   16.6944 H   0  0  0  0  0  0  0  0  0  0  0  0
   16.1143   -9.5482   24.0022 H   0  0  0  0  0  0  0  0  0  0  0  0
   17.2688   -8.6293   25.0657 H   0  0  0  0  0  0  0  0  0  0  0  0
   15.3227   -9.2085   26.7180 H   0  0  0  0  0  0  0  0  0  0  0  0
   18.4005   -6.3030   29.3479 H   0  0  0  0  0  0  0  0  0  0  0  0
   20.3886   -7.3542   30.1626 H   0  0  0  0  0  0  0  0  0  0  0  0
   19.3245   -5.3145   31.3874 H   0  0  0  0  0  0  0  0  0  0  0  0
   20.6303   -4.5006   32.3415 H   0  0  0  0  0  0  0  0  0  0  0  0
   22.0115   -5.2918   31.3472 H   0  0  0  0  0  0  0  0  0  0  0  0
   20.7005   -8.3658   29.3687 H   0  0  0  0  0  0  0  0  0  0  0  0
   19.4883  -13.2388   22.3000 H   0  0  0  0  0  0  0  0  0  0  0  0
   19.1000   -9.9035   23.9947 H   0  0  0  0  0  0  0  0  0  0  0  0
   18.8845  -14.4406   18.0552 H   0  0  0  0  0  0  0  0  0  0  0  0
   18.9002  -12.6686   18.4836 H   0  0  0  0  0  0  0  0  0  0  0  0
   15.6535  -11.9681   18.4508 H   0  0  0  0  0  0  0  0  0  0  0  0
   15.0834  -13.7277   18.5439 H   0  0  0  0  0  0  0  0  0  0  0  0
   15.7949  -15.7684   17.8618 H   0  0  0  0  0  0  0  0  0  0  0  0
  1  2  1  0
  2  3  1  0
  5  6  1  0
  6  7  1  0
  7  8  1  0
  9 10  1  0
 10 11  1  0
 12 13  1  0
  4 16  1  0
 16 17  1  0
  9 18  1  0
 18 19  1  0
  1 20  1  0
 19 20  1  0
  2 21  1  0
 19 21  1  0
  3 22  1  0
  7 23  1  0
 22 23  1  0
 23 24  1  0
  5 25  1  0
 24 25  1  0
 24 26  1  0
  3 27  1  0
 11 28  1  0
 12 28  1  0
  9 29  1  0
 12 29  1  0
 11 30  1  0
 14 30  1  0
 15 30  1  0
  4 31  1  0
 14 31  1  0
  4 32  1  0
 15 32  1  0
 17 33  1  0
  1 34  1  0
  1 35  1  0
  2 36  1  0
  3 37  1  0
  5 38  1  0
  5 39  1  0
  6 40  1  0
  6 41  1  0
  7 42  1  0
  8 43  1  0
  8 44  1  0
  8 45  1  0
  9 46  1  0
 10 47  1  0
 10 48  1  0
 11 49  1  0
 12 50  1  0
 13 51  1  0
 13 52  1  0
 13 53  1  0
 14 54  1  0
 14 55  1  0
 15 56  1  0
 15 57  1  0
 16 58  1  0
 16 59  1  0
 17 60  1  0
 17 61  1  0
 18 62  1  0
 19 63  1  0
 20 64  1  0
 22 65  1  0
 23 66  1  0
 24 67  1  0
 25 68  1  0
 25 69  1  0
 27 70  1  0
 28 71  1  0
 29 72  1  0
 31 73  1  0
 31 74  1  0
 32 75  1  0
 32 76  1  0
 33 77  1  0
M  END
>  <PDBID>  (1) 
2ZVA

>  <PDB ID>  (1) 
2ZVA

>  <Generic Name>  (1) 
Dasatinib

>  <Brand Name>  (1) 
Sprycel

>  <DrugBank ID>  (1) 
DB01254

>  <ATC Codes>  (1) 
L01XE06

>  <Ligand ID>  (1) 
1N1

>  <Target Name>  (1) 
Proto-oncogene tyrosine-protein kinase Src

>  <UniProt ID>  (1) 
P12931

>  <PDB ID.1>  (1) 
2ZVA

>  <Seq. Identity>  (1) 
66%

$$$$
