PDB_DB00360_96
     RDKit          3D

 76 78  0  0  0  0  0  0  0  0999 V2000
   19.8440  236.0790   23.3290 N   0  0  0  0  0  0  0  0  0  0  0  0
   19.5710  237.2980   23.8390 C   0  0  0  0  0  0  0  0  0  0  0  0
   20.5570  238.0180   24.4380 N   0  0  0  0  0  0  0  0  0  0  0  0
   18.3230  237.8080   23.7410 N   0  0  0  0  0  0  0  0  0  0  0  0
   17.3200  237.1160   23.1500 C   0  0  0  0  0  0  0  0  0  0  0  0
   16.1730  237.6440   23.0860 O   0  0  0  0  0  0  0  0  0  0  0  0
   17.5810  235.8510   22.6350 C   0  0  0  0  0  0  0  0  0  0  0  0
   18.8730  235.3420   22.7360 C   0  0  0  0  0  0  0  0  0  0  0  0
   16.6230  235.1000   22.0220 N   0  0  0  0  0  0  0  0  0  0  0  0
   19.1880  234.1140   22.2410 N   0  0  0  0  0  0  0  0  0  0  0  0
   16.8160  233.6630   22.0420 C   0  0  2  0  0  0  0  0  0  0  0  0
   18.2080  233.2970   21.5230 C   0  0  0  0  0  0  0  0  0  0  0  0
   15.7310  232.9390   21.2430 C   0  0  1  0  0  0  0  0  0  0  0  0
   15.6310  233.4900   19.9190 O   0  0  0  0  0  0  0  0  0  0  0  0
   16.0630  231.4460   21.1640 C   0  0  2  0  0  0  0  0  0  0  0  0
   14.9420  230.6800   20.4650 C   0  0  0  0  0  0  0  0  0  0  0  0
   16.2750  230.9100   22.4810 O   0  0  0  0  0  0  0  0  0  0  0  0
   28.6200  225.4330   16.4370 N   0  0  0  0  0  0  0  0  0  0  0  0
   29.1600  224.7980   15.3770 C   0  0  0  0  0  0  0  0  0  0  0  0
   28.4380  224.6450   14.2290 N   0  0  0  0  0  0  0  0  0  0  0  0
   30.4300  224.3350   15.4460 N   0  0  0  0  0  0  0  0  0  0  0  0
   31.1750  224.4810   16.5640 C   0  0  0  0  0  0  0  0  0  0  0  0
   32.3470  224.0290   16.5940 O   0  0  0  0  0  0  0  0  0  0  0  0
   30.6300  225.1120   17.6680 C   0  0  0  0  0  0  0  0  0  0  0  0
   29.3300  225.5900   17.5810 C   0  0  0  0  0  0  0  0  0  0  0  0
   31.3270  225.2730   18.8180 N   0  0  0  0  0  0  0  0  0  0  0  0
   28.7460  226.2160   18.6290 N   0  0  0  0  0  0  0  0  0  0  0  0
   30.5400  225.4080   20.0310 C   0  0  2  0  0  0  0  0  0  0  0  0
   29.4730  226.4910   19.8620 C   0  0  0  0  0  0  0  0  0  0  0  0
   31.4280  225.7070   21.2440 C   0  0  1  0  0  0  0  0  0  0  0  0
   32.2730  226.8270   20.9680 O   0  0  0  0  0  0  0  0  0  0  0  0
   30.5930  226.0080   22.4900 C   0  0  2  0  0  0  0  0  0  0  0  0
   31.4990  226.1190   23.7220 C   0  0  0  0  0  0  0  0  0  0  0  0
   29.6690  224.9240   22.6700 O   0  0  0  0  0  0  0  0  0  0  0  0
   20.5824  236.2142   22.6237 H   0  0  0  0  0  0  0  0  0  0  0  0
   19.3201  236.8373   24.8058 H   0  0  0  0  0  0  0  0  0  0  0  0
   20.4605  237.9475   25.4610 H   0  0  0  0  0  0  0  0  0  0  0  0
   21.4746  237.6467   24.1533 H   0  0  0  0  0  0  0  0  0  0  0  0
   18.0129  238.0041   24.7034 H   0  0  0  0  0  0  0  0  0  0  0  0
   17.0590  236.6664   24.1194 H   0  0  0  0  0  0  0  0  0  0  0  0
   15.8307  237.8016   24.0015 H   0  0  0  0  0  0  0  0  0  0  0  0
   17.8335  236.2990   21.6626 H   0  0  0  0  0  0  0  0  0  0  0  0
   18.6202  234.8931   23.7079 H   0  0  0  0  0  0  0  0  0  0  0  0
   15.7245  235.3015   22.4836 H   0  0  0  0  0  0  0  0  0  0  0  0
   19.9758  234.2568   21.5930 H   0  0  0  0  0  0  0  0  0  0  0  0
   16.7355  233.3304   23.0874 H   0  0  0  0  0  0  0  0  0  0  0  0
   18.2699  233.5021   20.4441 H   0  0  0  0  0  0  0  0  0  0  0  0
   18.4081  232.2279   21.6874 H   0  0  0  0  0  0  0  0  0  0  0  0
   14.7645  233.0724   21.7510 H   0  0  0  0  0  0  0  0  0  0  0  0
   15.4545  234.4623   19.9787 H   0  0  0  0  0  0  0  0  0  0  0  0
   16.9866  231.3306   20.5778 H   0  0  0  0  0  0  0  0  0  0  0  0
   14.2809  230.2283   21.2192 H   0  0  0  0  0  0  0  0  0  0  0  0
   14.3621  231.3715   19.8361 H   0  0  0  0  0  0  0  0  0  0  0  0
   15.3755  229.8884   19.8361 H   0  0  0  0  0  0  0  0  0  0  0  0
   16.0092  231.5821   23.1575 H   0  0  0  0  0  0  0  0  0  0  0  0
   28.3650  226.3780   16.1162 H   0  0  0  0  0  0  0  0  0  0  0  0
   28.7682  223.8406   15.7510 H   0  0  0  0  0  0  0  0  0  0  0  0
   27.4573  224.4372   14.4653 H   0  0  0  0  0  0  0  0  0  0  0  0
   28.4816  225.5139   13.6776 H   0  0  0  0  0  0  0  0  0  0  0  0
   30.3809  223.3232   15.2596 H   0  0  0  0  0  0  0  0  0  0  0  0
   30.7950  223.5207   16.9427 H   0  0  0  0  0  0  0  0  0  0  0  0
   32.6340  223.9183   17.5350 H   0  0  0  0  0  0  0  0  0  0  0  0
   31.0096  226.0779   17.3033 H   0  0  0  0  0  0  0  0  0  0  0  0
   28.9506  224.6252   17.9488 H   0  0  0  0  0  0  0  0  0  0  0  0
   31.9405  224.4534   18.9310 H   0  0  0  0  0  0  0  0  0  0  0  0
   28.4198  227.1271   18.2763 H   0  0  0  0  0  0  0  0  0  0  0  0
   30.0373  224.4469   20.2141 H   0  0  0  0  0  0  0  0  0  0  0  0
   29.9508  227.4800   19.8014 H   0  0  0  0  0  0  0  0  0  0  0  0
   28.7854  226.4884   20.7206 H   0  0  0  0  0  0  0  0  0  0  0  0
   32.0372  224.8118   21.4378 H   0  0  0  0  0  0  0  0  0  0  0  0
   32.5765  227.2293   21.8201 H   0  0  0  0  0  0  0  0  0  0  0  0
   30.0584  226.9613   22.3660 H   0  0  0  0  0  0  0  0  0  0  0  0
   30.8885  226.0442   24.6340 H   0  0  0  0  0  0  0  0  0  0  0  0
   32.2384  225.3047   23.7079 H   0  0  0  0  0  0  0  0  0  0  0  0
   32.0200  227.0877   23.7079 H   0  0  0  0  0  0  0  0  0  0  0  0
   29.5325  224.7639   23.6374 H   0  0  0  0  0  0  0  0  0  0  0  0
  1  2  1  0
  2  3  1  0
  2  4  1  0
  4  5  1  0
  5  6  1  0
  5  7  1  0
  1  8  1  0
  7  8  1  0
  7  9  1  0
  8 10  1  0
  9 11  1  0
 10 12  1  0
 11 12  1  0
 11 13  1  0
 13 14  1  0
 13 15  1  0
 15 16  1  0
 15 17  1  0
 18 19  1  0
 19 20  1  0
 19 21  1  0
 21 22  1  0
 22 23  1  0
 22 24  1  0
 18 25  1  0
 24 25  1  0
 24 26  1  0
 25 27  1  0
 26 28  1  0
 27 29  1  0
 28 29  1  0
 28 30  1  0
 30 31  1  0
 30 32  1  0
 32 33  1  0
 32 34  1  0
  1 35  1  0
  2 36  1  0
  3 37  1  0
  3 38  1  0
  4 39  1  0
  5 40  1  0
  6 41  1  0
  7 42  1  0
  8 43  1  0
  9 44  1  0
 10 45  1  0
 11 46  1  1
 12 47  1  0
 12 48  1  0
 13 49  1  1
 14 50  1  0
 15 51  1  6
 16 52  1  0
 16 53  1  0
 16 54  1  0
 17 55  1  0
 18 56  1  0
 19 57  1  0
 20 58  1  0
 20 59  1  0
 21 60  1  0
 22 61  1  0
 23 62  1  0
 24 63  1  0
 25 64  1  0
 26 65  1  0
 27 66  1  0
 28 67  1  1
 29 68  1  0
 29 69  1  0
 30 70  1  1
 31 71  1  0
 32 72  1  6
 33 73  1  0
 33 74  1  0
 33 75  1  0
 34 76  1  0
M  END
>  <PDBID>  (1) 
4D1P

>  <PDB ID>  (1) 
4D1P

>  <Generic Name>  (1) 
Sapropterin

>  <Brand Name>  (1) 
Kuvan#BH4#Biopten

>  <DrugBank ID>  (1) 
DB00360

>  <ATC Codes>  (1) 
A16AX07

>  <Ligand ID>  (1) 
BH4,BHS,H4B,THB

>  <Target Name>  (1) 
Nitric oxide synthase, endothelial

>  <UniProt ID>  (1) 
P29474

>  <PDB ID.1>  (1) 
4D1P

>  <Seq. Identity>  (1) 
94%

$$$$
