PDB_DB00877_98
     RDKit          3D

144147  0  0  0  0  0  0  0  0999 V2000
   -6.8160   26.0140   40.3650 C   0  0  0  0  0  0  0  0  0  0  0  0
   -7.7150   26.7390   39.5040 O   0  0  0  0  0  0  0  0  0  0  0  0
   -5.6590   25.8630   39.9530 O   0  0  0  0  0  0  0  0  0  0  0  0
   -7.2340   25.4720   41.7420 C   0  0  2  0  0  0  0  0  0  0  0  0
   -6.7480   24.0380   41.9630 C   0  0  0  0  0  0  0  0  0  0  0  0
   -7.5310   22.9680   41.2040 C   0  0  0  0  0  0  0  0  0  0  0  0
   -9.0270   23.0850   41.4300 C   0  0  0  0  0  0  0  0  0  0  0  0
   -9.4920   24.4850   41.1390 C   0  0  0  0  0  0  0  0  0  0  0  0
   -8.6850   25.3890   41.9850 N   0  0  0  0  0  0  0  0  0  0  0  0
   -9.2870   26.2230   42.8520 C   0  0  0  0  0  0  0  0  0  0  0  0
   -8.6530   27.0660   43.4840 O   0  0  0  0  0  0  0  0  0  0  0  0
  -10.6450   26.3090   43.1200 C   0  0  0  0  0  0  0  0  0  0  0  0
  -11.0260   25.6070   44.0550 O   0  0  0  0  0  0  0  0  0  0  0  0
  -11.6470   27.1890   42.3610 C   0  0  1  0  0  0  0  0  0  0  0  0
  -11.7490   26.6750   41.0290 O   0  0  0  0  0  0  0  0  0  0  0  0
  -12.8150   27.1950   43.2060 O   0  0  0  0  0  0  0  0  0  0  0  0
  -11.1020   28.6230   42.1770 C   0  0  1  0  0  0  0  0  0  0  0  0
  -12.1020   29.4530   41.3620 C   0  0  0  0  0  0  0  0  0  0  0  0
  -12.6610   28.7550   40.1170 C   0  0  0  0  0  0  0  0  0  0  0  0
  -12.7440   27.2250   40.1970 C   0  0  1  0  0  0  0  0  0  0  0  0
  -12.4760   26.5580   38.8440 C   0  0  0  0  0  0  0  0  0  0  0  0
  -13.4910   26.6880   37.7000 C   0  0  2  0  0  0  0  0  0  0  0  0
  -14.7640   26.2880   38.0700 O   0  0  0  0  0  0  0  0  0  0  0  0
  -13.0200   25.7940   36.5530 C   0  0  0  0  0  0  0  0  0  0  0  0
  -12.7020   26.3440   35.4000 C   0  0  0  0  0  0  0  0  0  0  0  0
  -12.1830   25.6940   34.1650 C   0  0  0  0  0  0  0  0  0  0  0  0
  -12.2640   26.3510   33.0030 C   0  0  0  0  0  0  0  0  0  0  0  0
  -11.7190   25.8290   31.7600 C   0  0  0  0  0  0  0  0  0  0  0  0
  -10.9670   26.4720   30.8900 C   0  0  0  0  0  0  0  0  0  0  0  0
  -10.5270   25.6960   29.6710 C   0  0  2  0  0  0  0  0  0  0  0  0
   -9.0090   25.7600   29.5460 C   0  0  0  0  0  0  0  0  0  0  0  0
   -8.2170   25.3540   30.7830 C   0  0  2  0  0  0  0  0  0  0  0  0
   -6.8530   26.0230   30.7510 C   0  0  0  0  0  0  0  0  0  0  0  0
   -5.9130   25.4750   30.1850 O   0  0  0  0  0  0  0  0  0  0  0  0
   -6.6840   27.4140   31.3560 C   0  0  2  0  0  0  0  0  0  0  0  0
   -5.5140   27.8840   30.7890 O   0  0  0  0  0  0  0  0  0  0  0  0
   -6.4260   27.3350   32.8580 C   0  0  2  0  0  0  0  0  0  0  0  0
   -5.3940   26.3690   33.0970 O   0  0  0  0  0  0  0  0  0  0  0  0
   -7.6570   26.9730   33.7030 C   0  0  0  0  0  0  0  0  0  0  0  0
   -7.8140   25.8040   34.2810 C   0  0  0  0  0  0  0  0  0  0  0  0
   -8.9140   25.3530   35.1710 C   0  0  2  0  0  0  0  0  0  0  0  0
   -8.5600   25.5570   36.6440 C   0  0  0  0  0  0  0  0  0  0  0  0
   -8.2350   24.5910   37.3340 O   0  0  0  0  0  0  0  0  0  0  0  0
   -8.6390   26.9610   37.2620 C   0  0  0  0  0  0  0  0  0  0  0  0
   -7.4550   27.2730   38.2050 C   0  0  1  0  0  0  0  0  0  0  0  0
   -7.3530   28.8080   38.5120 C   0  0  1  0  0  0  0  0  0  0  0  0
   -6.6180   29.5420   37.3930 C   0  0  0  0  0  0  0  0  0  0  0  0
   -5.2420   29.0570   36.9260 C   0  0  1  0  0  0  0  0  0  0  0  0
   -4.8390   29.8360   35.6670 C   0  0  0  0  0  0  0  0  0  0  0  0
   -3.4880   29.5080   35.0150 C   0  0  1  0  0  0  0  0  0  0  0  0
   -3.1170   30.5270   34.1260 O   0  0  0  0  0  0  0  0  0  0  0  0
   -2.3540   29.4910   36.0720 C   0  0  2  0  0  0  0  0  0  0  0  0
   -1.1670   28.9200   35.5070 O   0  0  0  0  0  0  0  0  0  0  0  0
   -2.7660   28.6820   37.3090 C   0  0  0  0  0  0  0  0  0  0  0  0
   -4.0780   29.1300   37.9140 C   0  0  0  0  0  0  0  0  0  0  0  0
  -10.8560   29.2870   43.5270 C   0  0  0  0  0  0  0  0  0  0  0  0
  -12.8820   24.3040   36.8170 C   0  0  0  0  0  0  0  0  0  0  0  0
  -11.1660   26.3030   28.4590 C   0  0  0  0  0  0  0  0  0  0  0  0
   -8.0660   23.8360   30.8250 C   0  0  0  0  0  0  0  0  0  0  0  0
   -8.6630   28.0830   33.8060 C   0  0  0  0  0  0  0  0  0  0  0  0
   -9.1090   23.8700   34.8640 C   0  0  0  0  0  0  0  0  0  0  0  0
   -8.7360   29.4250   38.6570 C   0  0  0  0  0  0  0  0  0  0  0  0
  -15.8190   26.9460   37.4570 C   0  0  0  0  0  0  0  0  0  0  0  0
   -5.7110   28.9190   29.9030 C   0  0  0  0  0  0  0  0  0  0  0  0
   -4.0020   31.0140   33.1400 C   0  0  0  0  0  0  0  0  0  0  0  0
   -6.7784   26.2109   42.4176 H   0  0  0  0  0  0  0  0  0  0  0  0
   -5.6963   23.9811   41.6456 H   0  0  0  0  0  0  0  0  0  0  0  0
   -6.8928   23.8251   43.0324 H   0  0  0  0  0  0  0  0  0  0  0  0
   -7.3257   23.0746   40.1286 H   0  0  0  0  0  0  0  0  0  0  0  0
   -7.2087   21.9847   41.5772 H   0  0  0  0  0  0  0  0  0  0  0  0
   -9.5504   22.3832   40.7640 H   0  0  0  0  0  0  0  0  0  0  0  0
   -9.2495   22.8457   42.4803 H   0  0  0  0  0  0  0  0  0  0  0  0
   -9.3365   24.7222   40.0762 H   0  0  0  0  0  0  0  0  0  0  0  0
  -10.5649   24.5967   41.3545 H   0  0  0  0  0  0  0  0  0  0  0  0
  -12.5353   27.1936   44.1557 H   0  0  0  0  0  0  0  0  0  0  0  0
  -10.1440   28.5679   41.6392 H   0  0  0  0  0  0  0  0  0  0  0  0
  -12.9471   29.7093   42.0178 H   0  0  0  0  0  0  0  0  0  0  0  0
  -11.5484   30.3316   40.9992 H   0  0  0  0  0  0  0  0  0  0  0  0
  -13.6759   29.1404   39.9397 H   0  0  0  0  0  0  0  0  0  0  0  0
  -11.9536   28.9763   39.3043 H   0  0  0  0  0  0  0  0  0  0  0  0
  -13.7612   27.0386   40.5719 H   0  0  0  0  0  0  0  0  0  0  0  0
  -11.5262   26.9695   38.4717 H   0  0  0  0  0  0  0  0  0  0  0  0
  -12.5086   25.4852   39.0848 H   0  0  0  0  0  0  0  0  0  0  0  0
  -13.5464   27.7477   37.4101 H   0  0  0  0  0  0  0  0  0  0  0  0
  -12.8385   27.4339   35.3408 H   0  0  0  0  0  0  0  0  0  0  0  0
  -11.7395   24.6883   34.2078 H   0  0  0  0  0  0  0  0  0  0  0  0
  -12.7653   27.3300   32.9868 H   0  0  0  0  0  0  0  0  0  0  0  0
  -11.9610   24.7832   31.5199 H   0  0  0  0  0  0  0  0  0  0  0  0
  -10.6743   27.5212   31.0436 H   0  0  0  0  0  0  0  0  0  0  0  0
  -10.8317   24.6430   29.7628 H   0  0  0  0  0  0  0  0  0  0  0  0
   -8.7112   25.0941   28.7227 H   0  0  0  0  0  0  0  0  0  0  0  0
   -8.7708   26.8206   29.3774 H   0  0  0  0  0  0  0  0  0  0  0  0
   -8.7527   25.6776   31.6876 H   0  0  0  0  0  0  0  0  0  0  0  0
   -7.5782   28.0300   31.1803 H   0  0  0  0  0  0  0  0  0  0  0  0
   -6.1306   28.3465   33.1735 H   0  0  0  0  0  0  0  0  0  0  0  0
   -5.2701   26.2530   34.0723 H   0  0  0  0  0  0  0  0  0  0  0  0
   -7.0276   25.0617   34.0794 H   0  0  0  0  0  0  0  0  0  0  0  0
   -9.8315   25.9332   34.9936 H   0  0  0  0  0  0  0  0  0  0  0  0
   -8.6444   27.7020   36.4491 H   0  0  0  0  0  0  0  0  0  0  0  0
   -9.5590   27.0046   37.8634 H   0  0  0  0  0  0  0  0  0  0  0  0
   -6.5634   26.8664   37.7053 H   0  0  0  0  0  0  0  0  0  0  0  0
   -6.7957   28.9123   39.4546 H   0  0  0  0  0  0  0  0  0  0  0  0
   -7.2773   29.5184   36.5128 H   0  0  0  0  0  0  0  0  0  0  0  0
   -6.3992   30.5234   37.8391 H   0  0  0  0  0  0  0  0  0  0  0  0
   -5.3975   27.9801   36.7646 H   0  0  0  0  0  0  0  0  0  0  0  0
   -5.6180   29.6599   34.9106 H   0  0  0  0  0  0  0  0  0  0  0  0
   -4.7317   30.8753   36.0110 H   0  0  0  0  0  0  0  0  0  0  0  0
   -3.6099   28.5335   34.5196 H   0  0  0  0  0  0  0  0  0  0  0  0
   -2.1590   30.5293   36.3783 H   0  0  0  0  0  0  0  0  0  0  0  0
   -0.5621   28.6290   36.2347 H   0  0  0  0  0  0  0  0  0  0  0  0
   -2.8595   27.6252   37.0185 H   0  0  0  0  0  0  0  0  0  0  0  0
   -1.9884   28.8381   38.0712 H   0  0  0  0  0  0  0  0  0  0  0  0
   -3.9708   30.1705   38.2544 H   0  0  0  0  0  0  0  0  0  0  0  0
   -4.3078   28.4494   38.7471 H   0  0  0  0  0  0  0  0  0  0  0  0
  -11.1159   28.5855   44.3334 H   0  0  0  0  0  0  0  0  0  0  0  0
   -9.7951   29.5653   43.6108 H   0  0  0  0  0  0  0  0  0  0  0  0
  -11.4795   30.1893   43.6108 H   0  0  0  0  0  0  0  0  0  0  0  0
  -12.8653   24.1239   37.9020 H   0  0  0  0  0  0  0  0  0  0  0  0
  -13.7347   23.7719   36.3700 H   0  0  0  0  0  0  0  0  0  0  0  0
  -11.9461   23.9376   36.3700 H   0  0  0  0  0  0  0  0  0  0  0  0
  -11.9305   27.0292   28.7724 H   0  0  0  0  0  0  0  0  0  0  0  0
  -10.3997   26.8139   27.8575 H   0  0  0  0  0  0  0  0  0  0  0  0
  -11.6369   25.5115   27.8575 H   0  0  0  0  0  0  0  0  0  0  0  0
   -8.0325   23.4997   31.8718 H   0  0  0  0  0  0  0  0  0  0  0  0
   -8.9220   23.3682   30.3167 H   0  0  0  0  0  0  0  0  0  0  0  0
   -7.1346   23.5460   30.3167 H   0  0  0  0  0  0  0  0  0  0  0  0
   -8.8609   28.3013   34.8658 H   0  0  0  0  0  0  0  0  0  0  0  0
   -8.2670   28.9835   33.3138 H   0  0  0  0  0  0  0  0  0  0  0  0
   -9.5980   27.7773   33.3138 H   0  0  0  0  0  0  0  0  0  0  0  0
   -9.1830   23.3072   35.8062 H   0  0  0  0  0  0  0  0  0  0  0  0
  -10.0327   23.7343   34.2823 H   0  0  0  0  0  0  0  0  0  0  0  0
   -8.2518   23.5002   34.2823 H   0  0  0  0  0  0  0  0  0  0  0  0
   -8.9791   29.5334   39.7243 H   0  0  0  0  0  0  0  0  0  0  0  0
   -8.7485   30.4141   38.1758 H   0  0  0  0  0  0  0  0  0  0  0  0
   -9.4804   28.7736   38.1758 H   0  0  0  0  0  0  0  0  0  0  0  0
  -16.4872   27.3627   38.2251 H   0  0  0  0  0  0  0  0  0  0  0  0
  -15.4282   27.7608   36.8298 H   0  0  0  0  0  0  0  0  0  0  0  0
  -16.3788   26.2366   36.8298 H   0  0  0  0  0  0  0  0  0  0  0  0
   -5.8883   29.8504   30.4607 H   0  0  0  0  0  0  0  0  0  0  0  0
   -4.8188   29.0348   29.2701 H   0  0  0  0  0  0  0  0  0  0  0  0
   -6.5834   28.6989   29.2701 H   0  0  0  0  0  0  0  0  0  0  0  0
   -4.8665   31.4897   33.6260 H   0  0  0  0  0  0  0  0  0  0  0  0
   -3.4815   31.7528   32.5128 H   0  0  0  0  0  0  0  0  0  0  0  0
   -4.3476   30.1790   32.5128 H   0  0  0  0  0  0  0  0  0  0  0  0
  1  2  1  0
  1  3  2  0
  1  4  1  0
  4  5  1  0
  5  6  1  0
  6  7  1  0
  7  8  1  0
  4  9  1  0
  8  9  1  0
  9 10  1  0
 10 11  2  0
 10 12  1  0
 12 13  2  0
 12 14  1  0
 14 15  1  0
 14 16  1  1
 14 17  1  0
 17 18  1  0
 18 19  1  0
 15 20  1  0
 19 20  1  0
 20 21  1  0
 21 22  1  0
 22 23  1  0
 22 24  1  0
 24 25  2  0
 25 26  1  0
 26 27  2  0
 27 28  1  0
 28 29  2  0
 29 30  1  0
 30 31  1  0
 31 32  1  0
 32 33  1  0
 33 34  2  0
 33 35  1  0
 35 36  1  0
 35 37  1  0
 37 38  1  0
 37 39  1  0
 39 40  2  0
 40 41  1  0
 41 42  1  0
 42 43  2  0
 42 44  1  0
  2 45  1  0
 44 45  1  0
 45 46  1  0
 46 47  1  0
 47 48  1  0
 48 49  1  0
 49 50  1  0
 50 51  1  0
 50 52  1  0
 52 53  1  0
 52 54  1  0
 48 55  1  0
 54 55  1  0
 17 56  1  0
 24 57  1  0
 30 58  1  0
 32 59  1  0
 39 60  1  0
 41 61  1  0
 46 62  1  0
 23 63  1  0
 36 64  1  0
 51 65  1  0
  4 66  1  1
  5 67  1  0
  5 68  1  0
  6 69  1  0
  6 70  1  0
  7 71  1  0
  7 72  1  0
  8 73  1  0
  8 74  1  0
 16 75  1  0
 17 76  1  6
 18 77  1  0
 18 78  1  0
 19 79  1  0
 19 80  1  0
 20 81  1  1
 21 82  1  0
 21 83  1  0
 22 84  1  6
 25 85  1  0
 26 86  1  0
 27 87  1  0
 28 88  1  0
 29 89  1  0
 30 90  1  1
 31 91  1  0
 31 92  1  0
 32 93  1  1
 35 94  1  1
 37 95  1  1
 38 96  1  0
 40 97  1  0
 41 98  1  6
 44 99  1  0
 44100  1  0
 45101  1  6
 46102  1  1
 47103  1  0
 47104  1  0
 48105  1  6
 49106  1  0
 49107  1  0
 50108  1  6
 52109  1  1
 53110  1  0
 54111  1  0
 54112  1  0
 55113  1  0
 55114  1  0
 56115  1  0
 56116  1  0
 56117  1  0
 57118  1  0
 57119  1  0
 57120  1  0
 58121  1  0
 58122  1  0
 58123  1  0
 59124  1  0
 59125  1  0
 59126  1  0
 60127  1  0
 60128  1  0
 60129  1  0
 61130  1  0
 61131  1  0
 61132  1  0
 62133  1  0
 62134  1  0
 62135  1  0
 63136  1  0
 63137  1  0
 63138  1  0
 64139  1  0
 64140  1  0
 64141  1  0
 65142  1  0
 65143  1  0
 65144  1  0
M  END
>  <PDBID>  (1) 
1FAP

>  <PDB ID>  (1) 
1FAP

>  <Generic Name>  (1) 
Sirolimus

>  <Brand Name>  (1) 
Gd-sirolimus#Rapamune#Rapamune Oral Solution#Sirolimus

>  <DrugBank ID>  (1) 
DB00877

>  <ATC Codes>  (1) 
S01XA23#L04AA10

>  <Ligand ID>  (1) 
RAP

>  <Target Name>  (1) 
Peptidyl-prolyl cis-trans isomerase FKBP1A

>  <UniProt ID>  (1) 
P62942

>  <PDB ID.1>  (1) 
1FAP

>  <Seq. Identity>  (1) 
100%

$$$$
