PDB_DB00712_94
     RDKit          3D

 31 32  0  0  0  0  0  0  0  0999 V2000
   32.5160  -42.0760   13.2460 C   0  0  0  0  0  0  0  0  0  0  0  0
   32.2470  -41.3080   12.1200 C   0  0  0  0  0  0  0  0  0  0  0  0
   31.3810  -41.7690   11.1320 C   0  0  0  0  0  0  0  0  0  0  0  0
   30.7900  -43.0100   11.2820 C   0  0  0  0  0  0  0  0  0  0  0  0
   31.0620  -43.7830   12.4080 C   0  0  0  0  0  0  0  0  0  0  0  0
   31.9280  -43.3240   13.3960 C   0  0  0  0  0  0  0  0  0  0  0  0
   32.2180  -44.1530   14.6120 C   0  0  0  0  0  0  0  0  0  0  0  0
   31.2160  -44.8730   15.2530 C   0  0  0  0  0  0  0  0  0  0  0  0
   31.4840  -45.6420   16.3790 C   0  0  0  0  0  0  0  0  0  0  0  0
   29.9860  -44.8280   14.7690 F   0  0  0  0  0  0  0  0  0  0  0  0
   33.4960  -44.1960   15.1200 C   0  0  0  0  0  0  0  0  0  0  0  0
   33.7760  -44.9530   16.2470 C   0  0  0  0  0  0  0  0  0  0  0  0
   32.7790  -45.6800   16.8770 C   0  0  0  0  0  0  0  0  0  0  0  0
   33.1340  -46.4780   18.0900 C   0  0  1  0  0  0  0  0  0  0  0  0
   32.1310  -46.2150   19.1480 C   0  0  0  0  0  0  0  0  0  0  0  0
   33.1650  -47.9440   17.8040 C   0  0  0  0  0  0  0  0  0  0  0  0
   32.1070  -48.5840   17.5580 O   0  0  0  0  0  0  0  0  0  0  0  0
   34.2730  -48.5480   17.8150 O   0  0  0  0  0  0  0  0  0  0  0  0
   33.1969  -41.6938   14.0208 H   0  0  0  0  0  0  0  0  0  0  0  0
   32.7242  -40.3233   12.0076 H   0  0  0  0  0  0  0  0  0  0  0  0
   31.1699  -41.1545   10.2444 H   0  0  0  0  0  0  0  0  0  0  0  0
   30.1033  -43.3876   10.5101 H   0  0  0  0  0  0  0  0  0  0  0  0
   30.5864  -44.7688   12.5179 H   0  0  0  0  0  0  0  0  0  0  0  0
   30.6811  -46.2126   16.8687 H   0  0  0  0  0  0  0  0  0  0  0  0
   34.2994  -43.6269   14.6294 H   0  0  0  0  0  0  0  0  0  0  0  0
   34.8010  -44.9767   16.6455 H   0  0  0  0  0  0  0  0  0  0  0  0
   34.1400  -46.1742   18.4150 H   0  0  0  0  0  0  0  0  0  0  0  0
   32.5992  -46.3378   20.1358 H   0  0  0  0  0  0  0  0  0  0  0  0
   31.7523  -45.1872   19.0469 H   0  0  0  0  0  0  0  0  0  0  0  0
   31.2967  -46.9247   19.0469 H   0  0  0  0  0  0  0  0  0  0  0  0
   32.1482  -49.5553   17.3709 H   0  0  0  0  0  0  0  0  0  0  0  0
  1  2  2  0
  2  3  1  0
  3  4  2  0
  4  5  1  0
  1  6  1  0
  5  6  2  0
  6  7  1  0
  7  8  2  0
  8  9  1  0
  8 10  1  0
  7 11  1  0
 11 12  2  0
  9 13  2  0
 12 13  1  0
 13 14  1  0
 14 15  1  0
 14 16  1  0
 16 17  1  0
 16 18  2  0
  1 19  1  0
  2 20  1  0
  3 21  1  0
  4 22  1  0
  5 23  1  0
  9 24  1  0
 11 25  1  0
 12 26  1  0
 14 27  1  1
 15 28  1  0
 15 29  1  0
 15 30  1  0
 17 31  1  0
M  END
$$$$
