PDB_DB00452_87
     RDKit          3D

 88 91  0  0  0  0  0  0  0  0999 V2000
  -59.8190  130.1820  216.4350 C   0  0  2  0  0  0  0  0  0  0  0  0
  -59.3680  131.4590  216.7320 O   0  0  0  0  0  0  0  0  0  0  0  0
  -59.7500  129.9960  214.9240 C   0  0  2  0  0  0  0  0  0  0  0  0
  -60.6930  130.8970  214.3240 N   0  0  0  0  0  0  0  0  0  0  0  0
  -60.0870  128.6160  214.5930 C   0  0  1  0  0  0  0  0  0  0  0  0
  -58.8690  127.9300  214.7680 O   0  0  0  0  0  0  0  0  0  0  0  0
  -61.0880  128.0660  215.4530 C   0  0  2  0  0  0  0  0  0  0  0  0
  -61.9530  127.3330  214.6400 O   0  0  0  0  0  0  0  0  0  0  0  0
  -61.9210  129.0650  216.2000 C   0  0  2  0  0  0  0  0  0  0  0  0
  -61.0910  130.0570  216.9220 O   0  0  0  0  0  0  0  0  0  0  0  0
  -62.8490  128.5170  217.2450 C   0  0  0  0  0  0  0  0  0  0  0  0
  -59.4570  133.5700  220.0320 C   0  0  1  0  0  0  0  0  0  0  0  0
  -59.2190  134.5670  221.0920 N   0  0  0  0  0  0  0  0  0  0  0  0
  -59.9350  132.1570  220.3590 C   0  0  1  0  0  0  0  0  0  0  0  0
  -59.8120  131.2400  219.1150 C   0  0  1  0  0  0  0  0  0  0  0  0
  -60.4650  129.9890  219.4290 O   0  0  0  0  0  0  0  0  0  0  0  0
  -60.1430  131.9530  217.7950 C   0  0  1  0  0  0  0  0  0  0  0  0
  -59.7650  133.4290  217.7390 C   0  0  1  0  0  0  0  0  0  0  0  0
  -60.0100  134.1410  216.5030 N   0  0  0  0  0  0  0  0  0  0  0  0
  -60.3620  134.0900  218.9690 C   0  0  0  0  0  0  0  0  0  0  0  0
  -59.5490  128.8650  219.5060 C   0  0  1  0  0  0  0  0  0  0  0  0
  -59.5580  127.8910  220.6590 C   0  0  1  0  0  0  0  0  0  0  0  0
  -59.2890  126.5600  220.1500 C   0  0  1  0  0  0  0  0  0  0  0  0
  -58.9960  126.8330  218.7090 C   0  0  2  0  0  0  0  0  0  0  0  0
  -59.6570  128.0050  218.3650 O   0  0  0  0  0  0  0  0  0  0  0  0
  -59.4800  125.7710  217.7590 C   0  0  0  0  0  0  0  0  0  0  0  0
  -55.2350  123.1520  220.4620 C   0  0  1  0  0  0  0  0  0  0  0  0
  -56.5310  122.6180  220.9310 C   0  0  1  0  0  0  0  0  0  0  0  0
  -57.4410  123.6140  221.3630 C   0  0  2  0  0  0  0  0  0  0  0  0
  -57.5890  124.8060  220.4450 C   0  0  1  0  0  0  0  0  0  0  0  0
  -58.2760  125.9420  220.9780 O   0  0  0  0  0  0  0  0  0  0  0  0
  -55.3770  124.3710  219.5730 C   0  0  1  0  0  0  0  0  0  0  0  0
  -56.2620  125.3290  220.0310 O   0  0  0  0  0  0  0  0  0  0  0  0
  -54.0430  125.0770  219.4460 C   0  0  0  0  0  0  0  0  0  0  0  0
  -64.1670  127.9720  216.9290 N   0  0  0  0  0  0  0  0  0  0  0  0
  -58.5110  128.3380  221.4240 O   0  0  0  0  0  0  0  0  0  0  0  0
  -57.1270  121.8970  219.8490 O   0  0  0  0  0  0  0  0  0  0  0  0
  -54.3990  123.4820  221.5560 O   0  0  0  0  0  0  0  0  0  0  0  0
  -60.8250  125.6270  217.6150 O   0  0  0  0  0  0  0  0  0  0  0  0
  -59.1370  131.6690  221.3290 O   0  0  0  0  0  0  0  0  0  0  0  0
  -53.5260  125.8230  220.5810 N   0  0  0  0  0  0  0  0  0  0  0  0
  -56.8370  124.0660  222.6070 N   0  0  0  0  0  0  0  0  0  0  0  0
  -59.2009  129.4001  216.9004 H   0  0  0  0  0  0  0  0  0  0  0  0
  -58.7384  130.2090  214.5482 H   0  0  0  0  0  0  0  0  0  0  0  0
  -61.2120  131.3928  215.0627 H   0  0  0  0  0  0  0  0  0  0  0  0
  -60.1908  131.5803  213.7394 H   0  0  0  0  0  0  0  0  0  0  0  0
  -60.5076  128.5368  213.5797 H   0  0  0  0  0  0  0  0  0  0  0  0
  -58.6847  127.8262  215.7351 H   0  0  0  0  0  0  0  0  0  0  0  0
  -60.5580  127.4801  216.2184 H   0  0  0  0  0  0  0  0  0  0  0  0
  -62.5726  126.8080  215.2062 H   0  0  0  0  0  0  0  0  0  0  0  0
  -62.5152  129.4967  215.3811 H   0  0  0  0  0  0  0  0  0  0  0  0
  -62.2979  127.7073  217.7457 H   0  0  0  0  0  0  0  0  0  0  0  0
  -63.1142  129.4266  217.8039 H   0  0  0  0  0  0  0  0  0  0  0  0
  -58.4086  133.4320  219.7289 H   0  0  0  0  0  0  0  0  0  0  0  0
  -59.3257  134.1201  222.0139 H   0  0  0  0  0  0  0  0  0  0  0  0
  -58.2645  134.9434  221.0013 H   0  0  0  0  0  0  0  0  0  0  0  0
  -60.9878  132.1873  220.6763 H   0  0  0  0  0  0  0  0  0  0  0  0
  -58.7685  130.9741  218.8907 H   0  0  0  0  0  0  0  0  0  0  0  0
  -61.2286  131.7899  217.7244 H   0  0  0  0  0  0  0  0  0  0  0  0
  -58.6664  133.4844  217.7489 H   0  0  0  0  0  0  0  0  0  0  0  0
  -60.3380  135.0941  216.7150 H   0  0  0  0  0  0  0  0  0  0  0  0
  -59.1380  134.1914  215.9572 H   0  0  0  0  0  0  0  0  0  0  0  0
  -60.3180  135.1870  218.9007 H   0  0  0  0  0  0  0  0  0  0  0  0
  -61.4279  133.8719  219.1313 H   0  0  0  0  0  0  0  0  0  0  0  0
  -58.6363  129.4691  219.6155 H   0  0  0  0  0  0  0  0  0  0  0  0
  -60.5070  127.8379  221.2127 H   0  0  0  0  0  0  0  0  0  0  0  0
  -60.0868  125.8040  220.1952 H   0  0  0  0  0  0  0  0  0  0  0  0
  -57.9010  126.8819  218.6159 H   0  0  0  0  0  0  0  0  0  0  0  0
  -59.0645  126.0013  216.7669 H   0  0  0  0  0  0  0  0  0  0  0  0
  -59.1407  124.8223  218.2004 H   0  0  0  0  0  0  0  0  0  0  0  0
  -54.7829  122.3476  219.8632 H   0  0  0  0  0  0  0  0  0  0  0  0
  -56.3240  121.9817  221.8041 H   0  0  0  0  0  0  0  0  0  0  0  0
  -58.4563  123.1950  221.4234 H   0  0  0  0  0  0  0  0  0  0  0  0
  -58.1881  124.3867  219.6233 H   0  0  0  0  0  0  0  0  0  0  0  0
  -55.7575  123.9671  218.6232 H   0  0  0  0  0  0  0  0  0  0  0  0
  -53.2952  124.3093  219.1981 H   0  0  0  0  0  0  0  0  0  0  0  0
  -54.2271  125.8505  218.6858 H   0  0  0  0  0  0  0  0  0  0  0  0
  -64.6709  127.7636  217.8028 H   0  0  0  0  0  0  0  0  0  0  0  0
  -64.7011  128.6612  216.3807 H   0  0  0  0  0  0  0  0  0  0  0  0
  -58.7379  128.2411  222.3828 H   0  0  0  0  0  0  0  0  0  0  0  0
  -57.7144  121.1864  220.2098 H   0  0  0  0  0  0  0  0  0  0  0  0
  -54.8750  123.2941  222.4035 H   0  0  0  0  0  0  0  0  0  0  0  0
  -61.2495  125.5815  218.5082 H   0  0  0  0  0  0  0  0  0  0  0  0
  -59.5148  131.9000  222.2144 H   0  0  0  0  0  0  0  0  0  0  0  0
  -53.8359  125.3759  221.4556 H   0  0  0  0  0  0  0  0  0  0  0  0
  -52.4966  125.8319  220.5459 H   0  0  0  0  0  0  0  0  0  0  0  0
  -57.3593  123.6752  223.4041 H   0  0  0  0  0  0  0  0  0  0  0  0
  -55.8582  123.7481  222.6488 H   0  0  0  0  0  0  0  0  0  0  0  0
  2  1  1  0
  3  1  1  0
  4  3  1  0
  5  3  1  0
  6  5  1  0
  7  5  1  0
  8  7  1  0
  9  7  1  0
 10  9  1  0
 10  1  1  0
 11  9  1  0
 13 12  1  0
 14 12  1  0
 15 14  1  0
 16 15  1  0
 17  2  1  0
 17 15  1  0
 18 17  1  0
 19 18  1  0
 20 18  1  0
 20 12  1  0
 21 16  1  0
 22 21  1  0
 23 22  1  0
 24 23  1  0
 25 24  1  0
 25 21  1  0
 26 24  1  0
 28 27  1  0
 29 28  1  0
 30 29  1  0
 31 30  1  0
 31 23  1  0
 32 27  1  0
 33 32  1  0
 33 30  1  0
 34 32  1  0
 35 11  1  0
 36 22  1  0
 37 28  1  0
 38 27  1  0
 39 26  1  0
 40 14  1  0
 41 34  1  0
 42 29  1  0
  1 43  1  1
  3 44  1  6
  4 45  1  0
  4 46  1  0
  5 47  1  6
  6 48  1  0
  7 49  1  1
  8 50  1  0
  9 51  1  6
 11 52  1  0
 11 53  1  0
 12 54  1  6
 13 55  1  0
 13 56  1  0
 14 57  1  1
 15 58  1  6
 17 59  1  6
 18 60  1  1
 19 61  1  0
 19 62  1  0
 20 63  1  0
 20 64  1  0
 21 65  1  6
 22 66  1  1
 23 67  1  6
 24 68  1  1
 26 69  1  0
 26 70  1  0
 27 71  1  6
 28 72  1  1
 29 73  1  1
 30 74  1  6
 32 75  1  6
 34 76  1  0
 34 77  1  0
 35 78  1  0
 35 79  1  0
 36 80  1  0
 37 81  1  0
 38 82  1  0
 39 83  1  0
 40 84  1  0
 41 85  1  0
 41 86  1  0
 42 87  1  0
 42 88  1  0
M  END
$$$$
