PDB_DB00819_95
     RDKit          3D

 19 19  0  0  0  0  0  0  0  0999 V2000
  -18.5690  -14.3080   24.6290 C   0  0  0  0  0  0  0  0  0  0  0  0
  -20.5780  -14.7300   23.5250 C   0  0  0  0  0  0  0  0  0  0  0  0
  -22.8370  -14.0780   23.3370 C   0  0  0  0  0  0  0  0  0  0  0  0
  -24.1210  -14.3500   22.6450 C   0  0  0  0  0  0  0  0  0  0  0  0
  -16.3500  -12.7130   24.5170 N   0  0  0  0  0  0  0  0  0  0  0  0
  -19.6090  -15.5180   23.0850 N   0  0  0  0  0  0  0  0  0  0  0  0
  -18.4700  -15.2870   23.8060 N   0  0  0  0  0  0  0  0  0  0  0  0
  -21.8180  -14.8710   22.9360 N   0  0  0  0  0  0  0  0  0  0  0  0
  -17.6930  -13.0370   26.5980 O   0  0  0  0  0  0  0  0  0  0  0  0
  -16.3060  -14.8650   25.7390 O   0  0  0  0  0  0  0  0  0  0  0  0
  -22.6520  -13.1970   24.1750 O   0  0  0  0  0  0  0  0  0  0  0  0
  -17.1420  -13.7570   25.4850 S   0  0  0  0  0  0  0  0  0  0  0  0
  -20.1340  -13.6390   24.7580 S   0  0  0  0  0  0  0  0  0  0  0  0
  -24.9115  -14.5175   23.3914 H   0  0  0  0  0  0  0  0  0  0  0  0
  -24.3878  -13.4885   22.0153 H   0  0  0  0  0  0  0  0  0  0  0  0
  -24.0156  -15.2457   22.0153 H   0  0  0  0  0  0  0  0  0  0  0  0
  -15.8344  -12.0333   25.0941 H   0  0  0  0  0  0  0  0  0  0  0  0
  -15.6874  -13.2311   23.9225 H   0  0  0  0  0  0  0  0  0  0  0  0
  -21.9659  -15.5739   22.1977 H   0  0  0  0  0  0  0  0  0  0  0  0
  3  4  1  0
  2  6  2  0
  1  7  2  0
  6  7  1  0
  2  8  1  0
  3  8  1  0
  3 11  2  0
  1 12  1  0
  5 12  1  0
  9 12  2  0
 10 12  2  0
  1 13  1  0
  2 13  1  0
  4 14  1  0
  4 15  1  0
  4 16  1  0
  5 17  1  0
  5 18  1  0
  8 19  1  0
M  END
$$$$
