PDB_DB00255_92
     RDKit          3D

 40 41  0  0  0  0  0  0  0  0999 V2000
   43.7130   70.4090   39.9230 C   0  0  0  0  0  0  0  0  0  0  0  0
   42.9180   70.1660   38.6770 C   0  0  0  0  0  0  0  0  0  0  0  0
   42.4060   71.4030   37.8800 C   0  0  0  0  0  0  0  0  0  0  0  0
   43.4770   72.4680   37.5760 C   0  0  0  0  0  0  0  0  0  0  0  0
   44.2540   72.4560   36.3730 C   0  0  0  0  0  0  0  0  0  0  0  0
   45.2310   73.4880   36.1380 C   0  0  0  0  0  0  0  0  0  0  0  0
   45.4190   74.5150   37.1100 C   0  0  0  0  0  0  0  0  0  0  0  0
   46.3350   75.5320   36.9480 O   0  0  0  0  0  0  0  0  0  0  0  0
   44.6590   74.5340   38.3000 C   0  0  0  0  0  0  0  0  0  0  0  0
   43.7050   73.5230   38.5180 C   0  0  0  0  0  0  0  0  0  0  0  0
   41.1250   71.5680   37.4690 C   0  0  0  0  0  0  0  0  0  0  0  0
   39.9900   70.5680   37.7550 C   0  0  0  0  0  0  0  0  0  0  0  0
   39.4030   70.5310   39.0530 C   0  0  0  0  0  0  0  0  0  0  0  0
   38.3430   69.6380   39.3620 C   0  0  0  0  0  0  0  0  0  0  0  0
   37.8510   68.7650   38.3630 C   0  0  0  0  0  0  0  0  0  0  0  0
   36.8130   67.8920   38.6290 O   0  0  0  0  0  0  0  0  0  0  0  0
   38.4110   68.7690   37.0520 C   0  0  0  0  0  0  0  0  0  0  0  0
   39.4810   69.6750   36.7620 C   0  0  0  0  0  0  0  0  0  0  0  0
   40.6140   72.7940   36.6630 C   0  0  0  0  0  0  0  0  0  0  0  0
   40.7530   72.6630   35.1550 C   0  0  0  0  0  0  0  0  0  0  0  0
   43.0826   70.2163   40.8036 H   0  0  0  0  0  0  0  0  0  0  0  0
   44.5827   69.7357   39.9402 H   0  0  0  0  0  0  0  0  0  0  0  0
   44.0576   71.4535   39.9402 H   0  0  0  0  0  0  0  0  0  0  0  0
   43.5502   69.5774   37.9958 H   0  0  0  0  0  0  0  0  0  0  0  0
   42.0019   69.6694   39.0295 H   0  0  0  0  0  0  0  0  0  0  0  0
   44.1048   71.6594   35.6292 H   0  0  0  0  0  0  0  0  0  0  0  0
   45.8286   73.4842   35.2145 H   0  0  0  0  0  0  0  0  0  0  0  0
   46.4337   76.2254   37.6477 H   0  0  0  0  0  0  0  0  0  0  0  0
   44.8107   75.3280   39.0460 H   0  0  0  0  0  0  0  0  0  0  0  0
   43.1130   73.5434   39.4449 H   0  0  0  0  0  0  0  0  0  0  0  0
   39.7794   71.2093   39.8329 H   0  0  0  0  0  0  0  0  0  0  0  0
   37.9070   69.6250   40.3718 H   0  0  0  0  0  0  0  0  0  0  0  0
   36.4803   67.2876   37.9190 H   0  0  0  0  0  0  0  0  0  0  0  0
   38.0280   68.0884   36.2773 H   0  0  0  0  0  0  0  0  0  0  0  0
   39.9206   69.6840   35.7537 H   0  0  0  0  0  0  0  0  0  0  0  0
   39.5493   72.9394   36.8980 H   0  0  0  0  0  0  0  0  0  0  0  0
   41.2422   73.6465   36.9609 H   0  0  0  0  0  0  0  0  0  0  0  0
   41.5353   71.9257   34.9216 H   0  0  0  0  0  0  0  0  0  0  0  0
   39.7962   72.3306   34.7261 H   0  0  0  0  0  0  0  0  0  0  0  0
   41.0282   73.6378   34.7261 H   0  0  0  0  0  0  0  0  0  0  0  0
  1  2  1  0
  2  3  1  0
  3  4  1  0
  4  5  2  0
  5  6  1  0
  6  7  2  0
  7  8  1  0
  7  9  1  0
  4 10  1  0
  9 10  2  0
  3 11  2  0
 11 12  1  0
 12 13  2  0
 13 14  1  0
 14 15  2  0
 15 16  1  0
 15 17  1  0
 12 18  1  0
 17 18  2  0
 11 19  1  0
 19 20  1  0
  1 21  1  0
  1 22  1  0
  1 23  1  0
  2 24  1  0
  2 25  1  0
  5 26  1  0
  6 27  1  0
  8 28  1  0
  9 29  1  0
 10 30  1  0
 13 31  1  0
 14 32  1  0
 16 33  1  0
 17 34  1  0
 18 35  1  0
 19 36  1  0
 19 37  1  0
 20 38  1  0
 20 39  1  0
 20 40  1  0
M  END
$$$$
