PDB_DB01263_98
     RDKit          3D

 93 99  0  0  0  0  0  0  0  0999 V2000
  185.1410   14.2170   68.6650 C   0  0  0  0  0  0  0  0  0  0  0  0
  181.7610   15.7680   70.8970 C   0  0  0  0  0  0  0  0  0  0  0  0
  183.0470   18.6880   68.3410 O   0  0  0  0  0  0  0  0  0  0  0  0
  183.1550   13.8410   70.4330 O   0  0  0  0  0  0  0  0  0  0  0  0
  189.9690   32.2280   79.9660 F   0  0  0  0  0  0  0  0  0  0  0  0
  191.1350   36.4000   81.8510 F   0  0  0  0  0  0  0  0  0  0  0  0
  190.5490   34.3090   80.9270 C   0  0  0  0  0  0  0  0  0  0  0  0
  189.5680   28.5400   73.6760 C   0  0  0  0  0  0  0  0  0  0  0  0
  187.4770   29.4810   72.9780 C   0  0  0  0  0  0  0  0  0  0  0  0
  189.3000   27.3950   72.9350 C   0  0  0  0  0  0  0  0  0  0  0  0
  187.2090   28.3330   72.2370 C   0  0  0  0  0  0  0  0  0  0  0  0
  186.0090   21.5020   71.5890 C   0  0  0  0  0  0  0  0  0  0  0  0
  185.5980   22.0870   69.3190 C   0  0  0  0  0  0  0  0  0  0  0  0
  185.5630   20.2160   71.3330 C   0  0  0  0  0  0  0  0  0  0  0  0
  185.1550   20.7830   69.0870 C   0  0  0  0  0  0  0  0  0  0  0  0
  190.9760   35.6210   80.7650 C   0  0  0  0  0  0  0  0  0  0  0  0
  194.7190   33.4900   78.4070 C   0  0  0  0  0  0  0  0  0  0  0  0
  190.6670   34.0400   78.4640 C   0  0  0  0  0  0  0  0  0  0  0  0
  193.7000   33.7480   76.4610 C   0  0  0  0  0  0  0  0  0  0  0  0
  185.3410   17.5520   70.6270 C   0  0  0  0  0  0  0  0  0  0  0  0
  183.8870   14.6210   67.9210 C   0  0  0  0  0  0  0  0  0  0  0  0
  189.2390   32.3110   77.4410 C   0  0  0  0  0  0  0  0  0  0  0  0
  186.7090   26.1060   70.6220 C   0  0  0  0  0  0  0  0  0  0  0  0
  187.9640   24.9400   72.3720 C   0  0  0  0  0  0  0  0  0  0  0  0
  186.5190   24.7670   69.9090 C   0  0  0  0  0  0  0  0  0  0  0  0
  187.8280   23.6660   71.5530 C   0  0  0  0  0  0  0  0  0  0  0  0
  188.1690   31.0310   75.5690 C   0  0  0  0  0  0  0  0  0  0  0  0
  191.6880   32.2650   77.0300 C   0  0  0  0  0  0  0  0  0  0  0  0
  194.7870   34.0830   77.1900 N   0  0  0  0  0  0  0  0  0  0  0  0
  193.5810   32.7650   78.4770 N   0  0  0  0  0  0  0  0  0  0  0  0
  184.7630   16.3810   70.2550 N   0  0  0  0  0  0  0  0  0  0  0  0
  188.9440   30.7300   74.4120 O   0  0  0  0  0  0  0  0  0  0  0  0
  190.2360   33.9690   76.0950 O   0  0  0  0  0  0  0  0  0  0  0  0
  190.3800   33.4990   79.8150 C   0  0  0  0  0  0  0  0  0  0  0  0
  191.0820   35.3590   78.3550 C   0  0  0  0  0  0  0  0  0  0  0  0
  188.6610   29.5920   73.6980 C   0  0  0  0  0  0  0  0  0  0  0  0
  188.1200   27.2800   72.2110 C   0  0  0  0  0  0  0  0  0  0  0  0
  186.0410   22.4520   70.5830 C   0  0  0  0  0  0  0  0  0  0  0  0
  185.1080   19.8050   70.0850 C   0  0  0  0  0  0  0  0  0  0  0  0
  191.2370   36.1340   79.4990 C   0  0  0  0  0  0  0  0  0  0  0  0
  183.8020   18.0180   69.1360 C   0  0  0  0  0  0  0  0  0  0  0  0
  182.2770   14.8030   69.8370 C   0  0  2  0  0  0  0  0  0  0  0  0
  183.0010   15.5620   68.7310 C   0  0  1  0  0  0  0  0  0  0  0  0
  187.9170   26.0980   71.4680 N   0  0  0  0  0  0  0  0  0  0  0  0
  186.4930   23.7320   70.9490 N   0  0  0  0  0  0  0  0  0  0  0  0
  192.9630   32.9530   77.2360 N   0  0  0  0  0  0  0  0  0  0  0  0
  184.7350   18.5250   69.9390 N   0  0  0  0  0  0  0  0  0  0  0  0
  183.7840   16.6940   69.2960 N   0  0  0  0  0  0  0  0  0  0  0  0
  190.4820   33.1720   77.2550 C   0  0  2  0  0  0  0  0  0  0  0  0
  189.2460   33.3490   75.2690 C   0  0  0  0  0  0  0  0  0  0  0  0
  188.4300   32.4170   76.1570 C   0  0  2  0  0  0  0  0  0  0  0  0
  184.9595   14.2755   69.7483 H   0  0  0  0  0  0  0  0  0  0  0  0
  185.4122   13.1860   68.3938 H   0  0  0  0  0  0  0  0  0  0  0  0
  185.9630   14.8958   68.3938 H   0  0  0  0  0  0  0  0  0  0  0  0
  181.9771   15.3639   71.8970 H   0  0  0  0  0  0  0  0  0  0  0  0
  182.2587   16.7419   70.7797 H   0  0  0  0  0  0  0  0  0  0  0  0
  180.6747   15.8949   70.7797 H   0  0  0  0  0  0  0  0  0  0  0  0
  183.0955   13.9062   71.4191 H   0  0  0  0  0  0  0  0  0  0  0  0
  190.3459   33.9146   81.9336 H   0  0  0  0  0  0  0  0  0  0  0  0
  190.5043   28.6136   74.2487 H   0  0  0  0  0  0  0  0  0  0  0  0
  186.7479   30.3045   72.9938 H   0  0  0  0  0  0  0  0  0  0  0  0
  190.0295   26.5718   72.9217 H   0  0  0  0  0  0  0  0  0  0  0  0
  186.2707   28.2573   71.6679 H   0  0  0  0  0  0  0  0  0  0  0  0
  186.3413   21.7711   72.6025 H   0  0  0  0  0  0  0  0  0  0  0  0
  185.5959   22.8234   68.5018 H   0  0  0  0  0  0  0  0  0  0  0  0
  185.5690   19.4856   72.1555 H   0  0  0  0  0  0  0  0  0  0  0  0
  184.8279   20.5129   68.0721 H   0  0  0  0  0  0  0  0  0  0  0  0
  195.4681   33.5837   79.2071 H   0  0  0  0  0  0  0  0  0  0  0  0
  193.4696   34.0674   75.4339 H   0  0  0  0  0  0  0  0  0  0  0  0
  186.1545   17.6766   71.3569 H   0  0  0  0  0  0  0  0  0  0  0  0
  184.1782   15.1269   66.9887 H   0  0  0  0  0  0  0  0  0  0  0  0
  183.3082   13.7067   67.7232 H   0  0  0  0  0  0  0  0  0  0  0  0
  189.5273   31.2648   77.6209 H   0  0  0  0  0  0  0  0  0  0  0  0
  188.6506   32.6517   78.3057 H   0  0  0  0  0  0  0  0  0  0  0  0
  186.8046   26.9021   69.8690 H   0  0  0  0  0  0  0  0  0  0  0  0
  185.8355   26.2820   71.2670 H   0  0  0  0  0  0  0  0  0  0  0  0
  187.1378   25.0032   73.0954 H   0  0  0  0  0  0  0  0  0  0  0  0
  188.9203   24.9318   72.9156 H   0  0  0  0  0  0  0  0  0  0  0  0
  185.5712   24.7665   69.3507 H   0  0  0  0  0  0  0  0  0  0  0  0
  187.3316   24.5839   69.1906 H   0  0  0  0  0  0  0  0  0  0  0  0
  188.6020   23.6258   70.7724 H   0  0  0  0  0  0  0  0  0  0  0  0
  187.9525   22.7659   72.1729 H   0  0  0  0  0  0  0  0  0  0  0  0
  187.1050   30.9667   75.2974 H   0  0  0  0  0  0  0  0  0  0  0  0
  188.4579   30.3019   76.3403 H   0  0  0  0  0  0  0  0  0  0  0  0
  191.6556   31.8873   75.9974 H   0  0  0  0  0  0  0  0  0  0  0  0
  191.6299   31.4493   77.7657 H   0  0  0  0  0  0  0  0  0  0  0  0
  191.2882   35.7914   77.3648 H   0  0  0  0  0  0  0  0  0  0  0  0
  191.5737   37.1765   79.4004 H   0  0  0  0  0  0  0  0  0  0  0  0
  181.4186   14.2764   69.3945 H   0  0  0  0  0  0  0  0  0  0  0  0
  182.2489   15.9832   68.0477 H   0  0  0  0  0  0  0  0  0  0  0  0
  188.5920   34.1150   74.8267 H   0  0  0  0  0  0  0  0  0  0  0  0
  189.7195   32.7886   74.4494 H   0  0  0  0  0  0  0  0  0  0  0  0
  187.4195   32.8288   76.2961 H   0  0  0  0  0  0  0  0  0  0  0  0
  8 10  2  0
  9 11  1  0
 12 14  2  0
 13 15  1  0
  6 16  1  0
  7 16  2  0
  1 21  1  0
 23 25  1  0
 24 26  1  0
 17 29  1  0
 19 29  2  0
 17 30  2  0
 20 31  2  0
 27 32  1  0
  5 34  1  0
  7 34  1  0
 18 34  2  0
 18 35  1  0
  8 36  1  0
  9 36  2  0
 32 36  1  0
 10 37  1  0
 11 37  2  0
 12 38  1  0
 13 38  2  0
 14 39  1  0
 15 39  2  0
 16 40  1  0
 35 40  2  0
  3 41  2  0
  2 42  1  0
  4 42  1  0
 21 43  1  0
 42 43  1  0
 23 44  1  0
 24 44  1  0
 37 44  1  0
 25 45  1  0
 26 45  1  0
 38 45  1  0
 19 46  1  0
 28 46  1  0
 30 46  1  0
 20 47  1  0
 39 47  1  0
 41 47  1  0
 31 48  1  0
 41 48  1  0
 43 48  1  0
 18 49  1  0
 22 49  1  0
 49 28  1  6
 33 49  1  0
 33 50  1  0
 22 51  1  0
 27 51  1  0
 50 51  1  0
  1 52  1  0
  1 53  1  0
  1 54  1  0
  2 55  1  0
  2 56  1  0
  2 57  1  0
  4 58  1  0
  7 59  1  0
  8 60  1  0
  9 61  1  0
 10 62  1  0
 11 63  1  0
 12 64  1  0
 13 65  1  0
 14 66  1  0
 15 67  1  0
 17 68  1  0
 19 69  1  0
 20 70  1  0
 21 71  1  0
 21 72  1  0
 22 73  1  0
 22 74  1  0
 23 75  1  0
 23 76  1  0
 24 77  1  0
 24 78  1  0
 25 79  1  0
 25 80  1  0
 26 81  1  0
 26 82  1  0
 27 83  1  0
 27 84  1  0
 28 85  1  0
 28 86  1  0
 35 87  1  0
 40 88  1  0
 42 89  1  6
 43 90  1  6
 50 91  1  0
 50 92  1  0
 51 93  1  1
M  END
$$$$
