PDB_DB01194_98
     RDKit          3D

 52 53  0  0  0  0  0  0  0  0999 V2000
    1.6400    8.3000   84.3460 C   0  0  0  0  0  0  0  0  0  0  0  0
   -0.2140    3.8410   85.0740 C   0  0  0  0  0  0  0  0  0  0  0  0
   -1.2870    4.5570   85.4550 C   0  0  0  0  0  0  0  0  0  0  0  0
    0.9490    4.0960   84.1630 C   0  0  2  0  0  0  0  0  0  0  0  0
    0.5350    5.3890   83.4140 C   0  0  0  0  0  0  0  0  0  0  0  0
   -1.9470    0.9640   87.5100 S   0  0  2  0  0  4  0  0  0  0  0  0
    0.7240    9.4680   84.4920 C   0  0  0  0  0  0  0  0  0  0  0  0
    2.3470    1.9880   81.3530 C   0  0  0  0  0  0  0  0  0  0  0  0
    2.1170    3.1300   82.2920 C   0  0  0  0  0  0  0  0  0  0  0  0
   -2.3230    3.7370   86.4750 S   0  0  0  0  0  0  0  0  0  0  0  0
   -1.3560   -0.3860   86.8720 N   0  0  0  0  0  0  0  0  0  0  0  0
   -1.4030    1.1870   88.8390 O   0  0  0  0  0  0  0  0  0  0  0  0
   -3.4040    1.0910   87.4970 O   0  0  0  0  0  0  0  0  0  0  0  0
   -1.4120    2.2920   86.5380 C   0  0  0  0  0  0  0  0  0  0  0  0
   -0.1670    2.4150   85.6700 C   0  0  0  0  0  0  0  0  0  0  0  0
   -1.5120    6.1680   84.9070 S   0  0  2  0  0  4  0  0  0  0  0  0
   -1.7720    7.0580   86.0420 O   0  0  0  0  0  0  0  0  0  0  0  0
   -2.5480    6.2810   83.8780 O   0  0  0  0  0  0  0  0  0  0  0  0
   -0.0200    6.4180   84.3100 N   0  0  0  0  0  0  0  0  0  0  0  0
    1.0170    3.0070   83.2040 N   0  0  0  0  0  0  0  0  0  0  0  0
    1.1610    6.9930   84.8810 C   0  0  0  0  0  0  0  0  0  0  0  0
    1.2680   10.7170   84.6820 O   0  0  0  0  0  0  0  0  0  0  0  0
    0.6640   11.8230   84.1200 C   0  0  0  0  0  0  0  0  0  0  0  0
    1.8388    8.1663   83.2724 H   0  0  0  0  0  0  0  0  0  0  0  0
    2.5222    8.5512   84.9531 H   0  0  0  0  0  0  0  0  0  0  0  0
   -0.7868    3.4325   84.2284 H   0  0  0  0  0  0  0  0  0  0  0  0
   -1.8462    4.1817   84.5853 H   0  0  0  0  0  0  0  0  0  0  0  0
    1.9150    4.1793   84.6825 H   0  0  0  0  0  0  0  0  0  0  0  0
    1.4217    5.8026   82.9114 H   0  0  0  0  0  0  0  0  0  0  0  0
   -0.2528    5.1167   82.6963 H   0  0  0  0  0  0  0  0  0  0  0  0
    0.1140    9.5167   83.5779 H   0  0  0  0  0  0  0  0  0  0  0  0
    0.1845    9.2674   85.4294 H   0  0  0  0  0  0  0  0  0  0  0  0
    2.5319    1.0701   81.9303 H   0  0  0  0  0  0  0  0  0  0  0  0
    1.4586    1.8498   80.7192 H   0  0  0  0  0  0  0  0  0  0  0  0
    3.2196    2.2045   80.7192 H   0  0  0  0  0  0  0  0  0  0  0  0
    3.0316    3.2587   82.8895 H   0  0  0  0  0  0  0  0  0  0  0  0
    1.8623    3.9847   81.6481 H   0  0  0  0  0  0  0  0  0  0  0  0
   -1.0749   -1.0280   87.6268 H   0  0  0  0  0  0  0  0  0  0  0  0
   -2.0774   -0.8352   86.2900 H   0  0  0  0  0  0  0  0  0  0  0  0
   -2.0693    0.9139   89.5184 H   0  0  0  0  0  0  0  0  0  0  0  0
   -3.7410    1.1204   88.4274 H   0  0  0  0  0  0  0  0  0  0  0  0
   -1.9810    1.8961   85.6839 H   0  0  0  0  0  0  0  0  0  0  0  0
   -0.1827    1.6628   84.8675 H   0  0  0  0  0  0  0  0  0  0  0  0
    0.7520    2.2470   86.2508 H   0  0  0  0  0  0  0  0  0  0  0  0
   -1.6278    6.5646   86.8881 H   0  0  0  0  0  0  0  0  0  0  0  0
   -3.4334    6.3776   84.3103 H   0  0  0  0  0  0  0  0  0  0  0  0
    1.1162    2.1212   83.7201 H   0  0  0  0  0  0  0  0  0  0  0  0
    1.9758    6.2667   84.7444 H   0  0  0  0  0  0  0  0  0  0  0  0
    0.8808    7.2118   85.9220 H   0  0  0  0  0  0  0  0  0  0  0  0
    0.3010   12.4876   84.9178 H   0  0  0  0  0  0  0  0  0  0  0  0
    1.3930   12.3620   83.4971 H   0  0  0  0  0  0  0  0  0  0  0  0
   -0.1835   11.5011   83.4971 H   0  0  0  0  0  0  0  0  0  0  0  0
  2  3  1  0
  2  4  1  0
  4  5  1  0
  1  7  1  0
  8  9  1  0
  3 10  1  0
  6 11  1  0
  6 12  1  1
  6 13  1  0
  6 14  1  0
 10 14  1  0
  2 15  1  0
 14 15  1  0
  3 16  1  0
 16 17  1  1
 16 18  1  0
  5 19  1  0
 16 19  1  0
  4 20  1  0
  9 20  1  0
  1 21  1  0
 19 21  1  0
  7 22  1  0
 22 23  1  0
  1 24  1  0
  1 25  1  0
  2 26  1  0
  3 27  1  0
  4 28  1  1
  5 29  1  0
  5 30  1  0
  7 31  1  0
  7 32  1  0
  8 33  1  0
  8 34  1  0
  8 35  1  0
  9 36  1  0
  9 37  1  0
 11 38  1  0
 11 39  1  0
 12 40  1  0
 13 41  1  0
 14 42  1  0
 15 43  1  0
 15 44  1  0
 17 45  1  0
 18 46  1  0
 20 47  1  0
 21 48  1  0
 21 49  1  0
 23 50  1  0
 23 51  1  0
 23 52  1  0
M  END
>  <PDBID>  (1) 
4M2V

>  <PDB ID>  (1) 
4M2V

>  <Generic Name>  (1) 
Brinzolamide

>  <Brand Name>  (1) 
Azarga#Azopt#Sandoz Brinzolamide#Simbrinza

>  <DrugBank ID>  (1) 
DB01194

>  <ATC Codes>  (1) 
S01EC54#S01EC04

>  <Ligand ID>  (1) 
BZ1

>  <Target Name>  (1) 
Carbonic anhydrase 2

>  <UniProt ID>  (1) 
P00918

>  <PDB ID.1>  (1) 
4M2V

>  <Seq. Identity>  (1) 
97%

$$$$
