PDB_DB08883_98
     RDKit          3D

 42 45  0  0  0  0  0  0  0  0999 V2000
  -39.4290  -19.7040  -49.9780 N   0  0  0  0  0  0  0  0  0  0  0  0
  -40.1630  -18.8540  -49.8350 C   0  0  0  0  0  0  0  0  0  0  0  0
  -41.1540  -17.7060  -49.6440 C   0  0  0  0  0  0  0  0  0  0  0  0
  -42.0110  -17.3550  -50.6750 C   0  0  0  0  0  0  0  0  0  0  0  0
  -42.9100  -16.3150  -50.5050 C   0  0  0  0  0  0  0  0  0  0  0  0
  -42.9540  -15.6260  -49.3030 C   0  0  0  0  0  0  0  0  0  0  0  0
  -42.0970  -15.9770  -48.2720 C   0  0  0  0  0  0  0  0  0  0  0  0
  -41.1970  -17.0170  -48.4410 C   0  0  0  0  0  0  0  0  0  0  0  0
  -40.3400  -17.3660  -47.4050 C   0  0  0  0  0  0  0  0  0  0  0  0
  -38.9520  -17.1990  -47.5120 C   0  0  0  0  0  0  0  0  0  0  0  0
  -38.5120  -16.7450  -48.5250 O   0  0  0  0  0  0  0  0  0  0  0  0
  -40.8610  -17.8920  -46.2340 C   0  0  0  0  0  0  0  0  0  0  0  0
  -40.0060  -18.2340  -45.2150 C   0  0  0  0  0  0  0  0  0  0  0  0
  -40.5100  -18.7620  -44.0360 C   0  0  0  0  0  0  0  0  0  0  0  0
  -41.4280  -18.0910  -43.3620 N   0  0  0  0  0  0  0  0  0  0  0  0
  -41.9380  -18.5540  -42.2340 C   0  0  0  0  0  0  0  0  0  0  0  0
  -41.5140  -19.7710  -41.7250 C   0  0  0  0  0  0  0  0  0  0  0  0
  -40.5530  -20.5040  -42.4020 C   0  0  0  0  0  0  0  0  0  0  0  0
  -40.0430  -19.9860  -43.5820 C   0  0  0  0  0  0  0  0  0  0  0  0
  -38.6510  -18.0530  -45.3630 C   0  0  0  0  0  0  0  0  0  0  0  0
  -38.1560  -17.5510  -46.4820 N   0  0  0  0  0  0  0  0  0  0  0  0
  -36.8340  -17.4140  -46.5300 C   0  0  0  0  0  0  0  0  0  0  0  0
  -36.1060  -18.0600  -47.5160 C   0  0  0  0  0  0  0  0  0  0  0  0
  -34.7280  -17.9170  -47.5660 C   0  0  0  0  0  0  0  0  0  0  0  0
  -34.0790  -17.1280  -46.6310 C   0  0  0  0  0  0  0  0  0  0  0  0
  -34.8060  -16.4820  -45.6460 C   0  0  0  0  0  0  0  0  0  0  0  0
  -36.1840  -16.6240  -45.5950 C   0  0  0  0  0  0  0  0  0  0  0  0
  -41.9773  -17.9024  -51.6285 H   0  0  0  0  0  0  0  0  0  0  0  0
  -43.5891  -16.0358  -51.3240 H   0  0  0  0  0  0  0  0  0  0  0  0
  -43.6688  -14.8010  -49.1675 H   0  0  0  0  0  0  0  0  0  0  0  0
  -42.1312  -15.4295  -47.3186 H   0  0  0  0  0  0  0  0  0  0  0  0
  -41.9460  -18.0340  -46.1218 H   0  0  0  0  0  0  0  0  0  0  0  0
  -42.7014  -17.9714  -41.6976 H   0  0  0  0  0  0  0  0  0  0  0  0
  -41.9394  -20.1541  -40.7857 H   0  0  0  0  0  0  0  0  0  0  0  0
  -40.2038  -21.4719  -42.0132 H   0  0  0  0  0  0  0  0  0  0  0  0
  -39.2792  -20.5376  -44.1498 H   0  0  0  0  0  0  0  0  0  0  0  0
  -37.9720  -18.3285  -44.5426 H   0  0  0  0  0  0  0  0  0  0  0  0
  -36.6213  -18.6863  -48.2591 H   0  0  0  0  0  0  0  0  0  0  0  0
  -34.1499  -18.4303  -48.3485 H   0  0  0  0  0  0  0  0  0  0  0  0
  -32.9856  -17.0146  -46.6711 H   0  0  0  0  0  0  0  0  0  0  0  0
  -34.2900  -15.8557  -44.9034 H   0  0  0  0  0  0  0  0  0  0  0  0
  -36.7614  -16.1098  -44.8126 H   0  0  0  0  0  0  0  0  0  0  0  0
  1  2  3  0
  2  3  1  0
  3  4  2  0
  4  5  1  0
  5  6  2  0
  6  7  1  0
  3  8  1  0
  7  8  2  0
  8  9  1  0
  9 10  1  0
 10 11  2  0
  9 12  2  0
 12 13  1  0
 13 14  1  0
 14 15  2  0
 15 16  1  0
 16 17  2  0
 17 18  1  0
 14 19  1  0
 18 19  2  0
 13 20  2  0
 10 21  1  0
 20 21  1  0
 21 22  1  0
 22 23  2  0
 23 24  1  0
 24 25  2  0
 25 26  1  0
 22 27  1  0
 26 27  2  0
  4 28  1  0
  5 29  1  0
  6 30  1  0
  7 31  1  0
 12 32  1  0
 16 33  1  0
 17 34  1  0
 18 35  1  0
 19 36  1  0
 20 37  1  0
 23 38  1  0
 24 39  1  0
 25 40  1  0
 26 41  1  0
 27 42  1  0
M  END
$$$$
