PDB_DB01254_88
     RDKit          3D

 59 62  0  0  0  0  0  0  0  0999 V2000
  -70.6820  -13.9890   44.6090 C   0  0  0  0  0  0  0  0  0  0  0  0
  -70.2230  -14.4390   45.7920 C   0  0  0  0  0  0  0  0  0  0  0  0
  -70.9090  -15.0190   46.8150 C   0  0  0  0  0  0  0  0  0  0  0  0
  -60.3690  -11.1110   42.1280 N   0  0  0  0  0  0  0  0  0  0  0  0
  -74.3690  -17.2310   49.6650 C   0  0  0  0  0  0  0  0  0  0  0  0
  -74.2670  -15.8460   49.6210 C   0  0  0  0  0  0  0  0  0  0  0  0
  -73.5430  -15.2260   48.6040 C   0  0  0  0  0  0  0  0  0  0  0  0
  -73.4690  -13.8370   48.5980 C   0  0  0  0  0  0  0  0  0  0  0  0
  -66.1730  -12.9950   44.0890 C   0  0  0  0  0  0  0  0  0  0  0  0
  -65.0860  -12.6810   43.2680 C   0  0  0  0  0  0  0  0  0  0  0  0
  -63.8130  -12.6770   43.8380 C   0  0  0  0  0  0  0  0  0  0  0  0
  -64.7090  -13.2650   45.9010 C   0  0  0  0  0  0  0  0  0  0  0  0
  -64.5330  -13.5680   47.2500 C   0  0  0  0  0  0  0  0  0  0  0  0
  -62.7490  -11.7810   41.8040 C   0  0  0  0  0  0  0  0  0  0  0  0
  -61.3910  -12.6530   43.7720 C   0  0  0  0  0  0  0  0  0  0  0  0
  -59.4310   -9.9810   42.0090 C   0  0  0  0  0  0  0  0  0  0  0  0
  -58.0090  -10.3870   42.4130 C   0  0  0  0  0  0  0  0  0  0  0  0
  -67.4210  -13.0060   43.5870 N   0  0  0  0  0  0  0  0  0  0  0  0
  -68.4870  -13.4800   44.2720 C   0  0  0  0  0  0  0  0  0  0  0  0
  -69.7360  -13.4640   43.7830 N   0  0  0  0  0  0  0  0  0  0  0  0
  -68.5490  -14.1670   45.8270 S   0  0  0  0  0  0  0  0  0  0  0  0
  -72.2070  -15.3970   46.6180 N   0  0  0  0  0  0  0  0  0  0  0  0
  -72.9070  -16.0050   47.6270 C   0  0  0  0  0  0  0  0  0  0  0  0
  -73.0190  -17.4040   47.6660 C   0  0  0  0  0  0  0  0  0  0  0  0
  -73.7490  -18.0040   48.6900 C   0  0  0  0  0  0  0  0  0  0  0  0
  -72.2840  -18.4420   46.4860 Cl  0  0  0  0  0  0  0  0  0  0  0  0
  -70.3230  -15.2240   47.8760 O   0  0  0  0  0  0  0  0  0  0  0  0
  -63.6560  -12.9680   45.1350 N   0  0  0  0  0  0  0  0  0  0  0  0
  -65.9330  -13.2730   45.3750 N   0  0  0  0  0  0  0  0  0  0  0  0
  -62.7030  -12.3820   43.1480 N   0  0  0  0  0  0  0  0  0  0  0  0
  -61.7040  -10.6720   41.6830 C   0  0  0  0  0  0  0  0  0  0  0  0
  -60.4250  -11.5140   43.5400 C   0  0  0  0  0  0  0  0  0  0  0  0
  -57.7070   -9.8810   43.7190 O   0  0  0  0  0  0  0  0  0  0  0  0
  -71.7447  -14.0418   44.3301 H   0  0  0  0  0  0  0  0  0  0  0  0
  -74.9400  -17.7155   50.4708 H   0  0  0  0  0  0  0  0  0  0  0  0
  -74.7599  -15.2360   50.3923 H   0  0  0  0  0  0  0  0  0  0  0  0
  -73.4493  -13.4664   49.6335 H   0  0  0  0  0  0  0  0  0  0  0  0
  -72.5527  -13.5209   48.0779 H   0  0  0  0  0  0  0  0  0  0  0  0
  -74.3465  -13.4253   48.0779 H   0  0  0  0  0  0  0  0  0  0  0  0
  -65.2304  -12.4440   42.2036 H   0  0  0  0  0  0  0  0  0  0  0  0
  -64.9909  -12.7797   47.8656 H   0  0  0  0  0  0  0  0  0  0  0  0
  -65.0112  -14.5328   47.4745 H   0  0  0  0  0  0  0  0  0  0  0  0
  -63.4580  -13.6306   47.4745 H   0  0  0  0  0  0  0  0  0  0  0  0
  -62.5432  -12.5571   41.0521 H   0  0  0  0  0  0  0  0  0  0  0  0
  -63.7479  -11.3512   41.6381 H   0  0  0  0  0  0  0  0  0  0  0  0
  -61.5307  -12.7891   44.8546 H   0  0  0  0  0  0  0  0  0  0  0  0
  -60.9713  -13.5616   43.3157 H   0  0  0  0  0  0  0  0  0  0  0  0
  -59.4207   -9.6333   40.9655 H   0  0  0  0  0  0  0  0  0  0  0  0
  -59.7668   -9.1807   42.6848 H   0  0  0  0  0  0  0  0  0  0  0  0
  -57.9318  -11.4843   42.4207 H   0  0  0  0  0  0  0  0  0  0  0  0
  -57.2945   -9.9677   41.6893 H   0  0  0  0  0  0  0  0  0  0  0  0
  -67.5719  -12.6366   42.6375 H   0  0  0  0  0  0  0  0  0  0  0  0
  -72.6603  -15.2246   45.7093 H   0  0  0  0  0  0  0  0  0  0  0  0
  -73.8356  -19.1000   48.7273 H   0  0  0  0  0  0  0  0  0  0  0  0
  -62.0202   -9.8189   42.3012 H   0  0  0  0  0  0  0  0  0  0  0  0
  -61.6303  -10.3931   40.6215 H   0  0  0  0  0  0  0  0  0  0  0  0
  -59.4208  -11.8312   43.8577 H   0  0  0  0  0  0  0  0  0  0  0  0
  -60.7760  -10.6501   44.1235 H   0  0  0  0  0  0  0  0  0  0  0  0
  -58.0735  -10.4950   44.4037 H   0  0  0  0  0  0  0  0  0  0  0  0
  1  2  2  0
  2  3  1  0
  5  6  2  0
  6  7  1  0
  7  8  1  0
  9 10  2  0
 10 11  1  0
 12 13  1  0
  4 16  1  0
 16 17  1  0
  9 18  1  0
 18 19  1  0
  1 20  1  0
 19 20  2  0
  2 21  1  0
 19 21  1  0
  3 22  1  0
  7 23  2  0
 22 23  1  0
 23 24  1  0
  5 25  1  0
 24 25  2  0
 24 26  1  0
  3 27  2  0
 11 28  2  0
 12 28  1  0
  9 29  1  0
 12 29  2  0
 11 30  1  0
 14 30  1  0
 15 30  1  0
  4 31  1  0
 14 31  1  0
  4 32  1  0
 15 32  1  0
 17 33  1  0
  1 34  1  0
  5 35  1  0
  6 36  1  0
  8 37  1  0
  8 38  1  0
  8 39  1  0
 10 40  1  0
 13 41  1  0
 13 42  1  0
 13 43  1  0
 14 44  1  0
 14 45  1  0
 15 46  1  0
 15 47  1  0
 16 48  1  0
 16 49  1  0
 17 50  1  0
 17 51  1  0
 18 52  1  0
 22 53  1  0
 25 54  1  0
 31 55  1  0
 31 56  1  0
 32 57  1  0
 32 58  1  0
 33 59  1  0
M  END
>  <PDBID>  (1) 
5I9Y

>  <PDB ID>  (1) 
5I9Y

>  <Generic Name>  (1) 
Dasatinib

>  <Brand Name>  (1) 
Sprycel

>  <DrugBank ID>  (1) 
DB01254

>  <ATC Codes>  (1) 
L01XE06

>  <Ligand ID>  (1) 
1N1

>  <Target Name>  (1) 
Ephrin type-A receptor 2

>  <UniProt ID>  (1) 
P29317

>  <PDB ID.1>  (1) 
5I9Y

>  <Seq. Identity>  (1) 
100%

$$$$
