PDB_DB08883_96
     RDKit          3D

 42 45  0  0  0  0  0  0  0  0999 V2000
  -27.6580    8.3890  -32.1150 N   0  0  0  0  0  0  0  0  0  0  0  0
  -27.2390    7.3850  -31.8010 C   0  0  0  0  0  0  0  0  0  0  0  0
  -26.6720    6.0310  -31.3770 C   0  0  0  0  0  0  0  0  0  0  0  0
  -25.3130    5.8950  -31.1380 C   0  0  0  0  0  0  0  0  0  0  0  0
  -24.7960    4.6690  -30.7540 C   0  0  0  0  0  0  0  0  0  0  0  0
  -25.6370    3.5770  -30.6090 C   0  0  0  0  0  0  0  0  0  0  0  0
  -26.9950    3.7120  -30.8480 C   0  0  0  0  0  0  0  0  0  0  0  0
  -27.5130    4.9380  -31.2320 C   0  0  0  0  0  0  0  0  0  0  0  0
  -28.8760    5.0690  -31.4710 C   0  0  0  0  0  0  0  0  0  0  0  0
  -29.3700    5.4020  -32.7400 C   0  0  0  0  0  0  0  0  0  0  0  0
  -28.5890    5.5720  -33.6260 O   0  0  0  0  0  0  0  0  0  0  0  0
  -29.7740    4.8690  -30.4350 C   0  0  0  0  0  0  0  0  0  0  0  0
  -31.1190    5.0010  -30.6800 C   0  0  0  0  0  0  0  0  0  0  0  0
  -32.0330    4.8040  -29.6560 C   0  0  0  0  0  0  0  0  0  0  0  0
  -32.0290    3.6610  -28.9910 N   0  0  0  0  0  0  0  0  0  0  0  0
  -32.8810    3.4280  -28.0070 C   0  0  0  0  0  0  0  0  0  0  0  0
  -33.8090    4.3910  -27.6460 C   0  0  0  0  0  0  0  0  0  0  0  0
  -33.8440    5.6010  -28.3190 C   0  0  0  0  0  0  0  0  0  0  0  0
  -32.9350    5.8090  -29.3440 C   0  0  0  0  0  0  0  0  0  0  0  0
  -31.5600    5.3280  -31.9410 C   0  0  0  0  0  0  0  0  0  0  0  0
  -30.7010    5.5190  -32.9280 N   0  0  0  0  0  0  0  0  0  0  0  0
  -31.2230    5.8320  -34.1110 C   0  0  0  0  0  0  0  0  0  0  0  0
  -30.8300    6.9940  -34.7560 C   0  0  0  0  0  0  0  0  0  0  0  0
  -31.3740    7.3200  -35.9880 C   0  0  0  0  0  0  0  0  0  0  0  0
  -32.3110    6.4850  -36.5750 C   0  0  0  0  0  0  0  0  0  0  0  0
  -32.7040    5.3240  -35.9300 C   0  0  0  0  0  0  0  0  0  0  0  0
  -32.1600    4.9970  -34.6980 C   0  0  0  0  0  0  0  0  0  0  0  0
  -24.6451    6.7614  -31.2535 H   0  0  0  0  0  0  0  0  0  0  0  0
  -23.7178    4.5619  -30.5641 H   0  0  0  0  0  0  0  0  0  0  0  0
  -25.2263    2.6031  -30.3042 H   0  0  0  0  0  0  0  0  0  0  0  0
  -27.6623    2.8451  -30.7328 H   0  0  0  0  0  0  0  0  0  0  0  0
  -29.4142    4.6078  -29.4289 H   0  0  0  0  0  0  0  0  0  0  0  0
  -32.8528    2.4665  -27.4734 H   0  0  0  0  0  0  0  0  0  0  0  0
  -34.5165    4.1952  -26.8268 H   0  0  0  0  0  0  0  0  0  0  0  0
  -34.5746    6.3770  -28.0468 H   0  0  0  0  0  0  0  0  0  0  0  0
  -32.9294    6.7572  -29.9015 H   0  0  0  0  0  0  0  0  0  0  0  0
  -32.6386    5.4317  -32.1305 H   0  0  0  0  0  0  0  0  0  0  0  0
  -30.0864    7.6573  -34.2900 H   0  0  0  0  0  0  0  0  0  0  0  0
  -31.0618    8.2421  -36.5002 H   0  0  0  0  0  0  0  0  0  0  0  0
  -32.7427    6.7441  -37.5530 H   0  0  0  0  0  0  0  0  0  0  0  0
  -33.4482    4.6612  -36.3958 H   0  0  0  0  0  0  0  0  0  0  0  0
  -32.4721    4.0747  -34.1862 H   0  0  0  0  0  0  0  0  0  0  0  0
  1  2  3  0
  2  3  1  0
  3  4  2  0
  4  5  1  0
  5  6  2  0
  6  7  1  0
  3  8  1  0
  7  8  2  0
  8  9  1  0
  9 10  1  0
 10 11  2  0
  9 12  2  0
 12 13  1  0
 13 14  1  0
 14 15  2  0
 15 16  1  0
 16 17  2  0
 17 18  1  0
 14 19  1  0
 18 19  2  0
 13 20  2  0
 10 21  1  0
 20 21  1  0
 21 22  1  0
 22 23  2  0
 23 24  1  0
 24 25  2  0
 25 26  1  0
 22 27  1  0
 26 27  2  0
  4 28  1  0
  5 29  1  0
  6 30  1  0
  7 31  1  0
 12 32  1  0
 16 33  1  0
 17 34  1  0
 18 35  1  0
 19 36  1  0
 20 37  1  0
 23 38  1  0
 24 39  1  0
 25 40  1  0
 26 41  1  0
 27 42  1  0
M  END
$$$$
