PDB_DB00481_96
     RDKit          3D

 83 87  0  0  0  0  0  0  0  0999 V2000
   16.9310   29.5250    8.7290 C   0  0  0  0  0  0  0  0  0  0  0  0
   15.8390   30.1280    8.1030 C   0  0  0  0  0  0  0  0  0  0  0  0
   15.1550   31.1320    8.7770 C   0  0  0  0  0  0  0  0  0  0  0  0
   14.0660   31.7180    8.1660 O   0  0  0  0  0  0  0  0  0  0  0  0
   15.5780   31.5290   10.0650 C   0  0  0  0  0  0  0  0  0  0  0  0
   16.6460   30.9470   10.6570 C   0  0  0  0  0  0  0  0  0  0  0  0
   17.3610   31.2370   12.1470 S   0  0  0  0  0  0  0  0  0  0  0  0
   18.5990   30.1110   12.0670 C   0  0  0  0  0  0  0  0  0  0  0  0
   19.6040   29.8810   13.1400 C   0  0  0  0  0  0  0  0  0  0  0  0
   19.2300   29.5540   14.4130 C   0  0  0  0  0  0  0  0  0  0  0  0
   20.1620   29.3210   15.4300 C   0  0  0  0  0  0  0  0  0  0  0  0
   21.5120   29.4270   15.1430 C   0  0  0  0  0  0  0  0  0  0  0  0
   22.4470   29.2040   16.1390 O   0  0  0  0  0  0  0  0  0  0  0  0
   21.9140   29.7600   13.8570 C   0  0  0  0  0  0  0  0  0  0  0  0
   20.9610   29.9850   12.8660 C   0  0  0  0  0  0  0  0  0  0  0  0
   17.3510   29.9080    9.9890 C   0  0  0  0  0  0  0  0  0  0  0  0
   18.4770   29.4450   10.8130 C   0  0  0  0  0  0  0  0  0  0  0  0
   19.3470   28.4220   10.4480 C   0  0  0  0  0  0  0  0  0  0  0  0
   19.2450   27.3330   11.0420 O   0  0  0  0  0  0  0  0  0  0  0  0
   20.3630   28.5880    9.4140 C   0  0  0  0  0  0  0  0  0  0  0  0
   21.1230   27.5080    8.9700 C   0  0  0  0  0  0  0  0  0  0  0  0
   22.1230   27.6120    7.9710 C   0  0  0  0  0  0  0  0  0  0  0  0
   22.3250   28.8770    7.4450 C   0  0  0  0  0  0  0  0  0  0  0  0
   21.5720   29.9490    7.8960 C   0  0  0  0  0  0  0  0  0  0  0  0
   20.6060   29.8300    8.8500 C   0  0  0  0  0  0  0  0  0  0  0  0
   23.2300   29.2790    6.4660 O   0  0  0  0  0  0  0  0  0  0  0  0
   23.4640   28.3530    5.4320 C   0  0  0  0  0  0  0  0  0  0  0  0
   24.7760   28.7900    4.7940 C   0  0  0  0  0  0  0  0  0  0  0  0
   24.7430   29.7120    3.6430 N   0  0  0  0  0  0  0  0  0  0  0  0
   26.0710   29.5940    2.9850 C   0  0  0  0  0  0  0  0  0  0  0  0
   26.1790   30.4500    1.7240 C   0  0  0  0  0  0  0  0  0  0  0  0
   25.9590   31.9320    2.0940 C   0  0  0  0  0  0  0  0  0  0  0  0
   24.6040   32.0420    2.7970 C   0  0  0  0  0  0  0  0  0  0  0  0
   24.5390   31.1170    4.0200 C   0  0  0  0  0  0  0  0  0  0  0  0
   16.6960   28.4524    8.7945 H   0  0  0  0  0  0  0  0  0  0  0  0
   17.7704   29.8475    8.0954 H   0  0  0  0  0  0  0  0  0  0  0  0
   16.2048   30.5617    7.1606 H   0  0  0  0  0  0  0  0  0  0  0  0
   15.1016   29.3169    8.0119 H   0  0  0  0  0  0  0  0  0  0  0  0
   15.8152   31.8861    8.3236 H   0  0  0  0  0  0  0  0  0  0  0  0
   13.4414   32.0541    8.8566 H   0  0  0  0  0  0  0  0  0  0  0  0
   15.8019   32.6042   10.0032 H   0  0  0  0  0  0  0  0  0  0  0  0
   14.7421   31.2082   10.7041 H   0  0  0  0  0  0  0  0  0  0  0  0
   17.3090   31.6925   10.1937 H   0  0  0  0  0  0  0  0  0  0  0  0
   19.2569   30.8666   11.6128 H   0  0  0  0  0  0  0  0  0  0  0  0
   19.5671   30.9484   13.4033 H   0  0  0  0  0  0  0  0  0  0  0  0
   18.5912   30.3772   14.7656 H   0  0  0  0  0  0  0  0  0  0  0  0
   18.7928   28.5545   14.2719 H   0  0  0  0  0  0  0  0  0  0  0  0
   19.9466   30.0393   16.2347 H   0  0  0  0  0  0  0  0  0  0  0  0
   20.0274   28.2562   15.6709 H   0  0  0  0  0  0  0  0  0  0  0  0
   21.4845   30.4943   15.4078 H   0  0  0  0  0  0  0  0  0  0  0  0
   22.0166   29.3066   17.0246 H   0  0  0  0  0  0  0  0  0  0  0  0
   22.5104   30.6806   13.9390 H   0  0  0  0  0  0  0  0  0  0  0  0
   22.4302   28.8526   13.5103 H   0  0  0  0  0  0  0  0  0  0  0  0
   21.1729   29.2670   12.0601 H   0  0  0  0  0  0  0  0  0  0  0  0
   21.0826   31.0574   12.6537 H   0  0  0  0  0  0  0  0  0  0  0  0
   18.0228   30.6535    9.5385 H   0  0  0  0  0  0  0  0  0  0  0  0
   17.8264   28.6895   11.2776 H   0  0  0  0  0  0  0  0  0  0  0  0
   20.0688   28.7664   11.2033 H   0  0  0  0  0  0  0  0  0  0  0  0
   19.2595   27.4878   12.0197 H   0  0  0  0  0  0  0  0  0  0  0  0
   21.1158   28.7997   10.1876 H   0  0  0  0  0  0  0  0  0  0  0  0
   21.6295   27.1103    9.8618 H   0  0  0  0  0  0  0  0  0  0  0  0
   20.3610   26.9100    8.4487 H   0  0  0  0  0  0  0  0  0  0  0  0
   23.0735   27.2739    8.4095 H   0  0  0  0  0  0  0  0  0  0  0  0
   21.7701   26.9943    7.1320 H   0  0  0  0  0  0  0  0  0  0  0  0
   21.5721   28.6746    6.6690 H   0  0  0  0  0  0  0  0  0  0  0  0
   22.2930   30.6830    8.2851 H   0  0  0  0  0  0  0  0  0  0  0  0
   20.9722   30.1861    7.0049 H   0  0  0  0  0  0  0  0  0  0  0  0
   19.6625   30.1670    8.3959 H   0  0  0  0  0  0  0  0  0  0  0  0
   20.9916   30.4277    9.6891 H   0  0  0  0  0  0  0  0  0  0  0  0
   23.5532   27.3349    5.8388 H   0  0  0  0  0  0  0  0  0  0  0  0
   22.6396   28.3326    4.7040 H   0  0  0  0  0  0  0  0  0  0  0  0
   25.3692   29.2789    5.5809 H   0  0  0  0  0  0  0  0  0  0  0  0
   25.1856   27.8598    4.3733 H   0  0  0  0  0  0  0  0  0  0  0  0
   26.8465   29.9147    3.6962 H   0  0  0  0  0  0  0  0  0  0  0  0
   26.2036   28.5434    2.6873 H   0  0  0  0  0  0  0  0  0  0  0  0
   27.1779   30.3263    1.2802 H   0  0  0  0  0  0  0  0  0  0  0  0
   25.4159   30.1341    0.9974 H   0  0  0  0  0  0  0  0  0  0  0  0
   26.7590   32.2723    2.7679 H   0  0  0  0  0  0  0  0  0  0  0  0
   25.9758   32.5602    1.1912 H   0  0  0  0  0  0  0  0  0  0  0  0
   24.4524   33.0812    3.1242 H   0  0  0  0  0  0  0  0  0  0  0  0
   23.8178   31.7408    2.0891 H   0  0  0  0  0  0  0  0  0  0  0  0
   23.5519   31.2202    4.4943 H   0  0  0  0  0  0  0  0  0  0  0  0
   25.3398   31.4077    4.7159 H   0  0  0  0  0  0  0  0  0  0  0  0
  1  2  1  0
  2  3  1  0
  3  4  1  0
  3  5  1  0
  5  6  1  0
  6  7  1  0
  7  8  1  0
  8  9  1  0
  9 10  1  0
 10 11  1  0
 11 12  1  0
 12 13  1  0
 12 14  1  0
  9 15  1  0
 14 15  1  0
  1 16  1  0
  6 16  1  0
  8 17  1  0
 16 17  1  0
 17 18  1  0
 18 19  1  0
 18 20  1  0
 20 21  1  0
 21 22  1  0
 22 23  1  0
 23 24  1  0
 20 25  1  0
 24 25  1  0
 23 26  1  0
 26 27  1  0
 27 28  1  0
 28 29  1  0
 29 30  1  0
 30 31  1  0
 31 32  1  0
 32 33  1  0
 29 34  1  0
 33 34  1  0
  1 35  1  0
  1 36  1  0
  2 37  1  0
  2 38  1  0
  3 39  1  0
  4 40  1  0
  5 41  1  0
  5 42  1  0
  6 43  1  0
  8 44  1  0
  9 45  1  0
 10 46  1  0
 10 47  1  0
 11 48  1  0
 11 49  1  0
 12 50  1  0
 13 51  1  0
 14 52  1  0
 14 53  1  0
 15 54  1  0
 15 55  1  0
 16 56  1  0
 17 57  1  0
 18 58  1  0
 19 59  1  0
 20 60  1  0
 21 61  1  0
 21 62  1  0
 22 63  1  0
 22 64  1  0
 23 65  1  0
 24 66  1  0
 24 67  1  0
 25 68  1  0
 25 69  1  0
 27 70  1  0
 27 71  1  0
 28 72  1  0
 28 73  1  0
 30 74  1  0
 30 75  1  0
 31 76  1  0
 31 77  1  0
 32 78  1  0
 32 79  1  0
 33 80  1  0
 33 81  1  0
 34 82  1  0
 34 83  1  0
M  END
>  <PDBID>  (1) 
1QKN

>  <PDB ID>  (1) 
1QKN

>  <Generic Name>  (1) 
Raloxifene

>  <Brand Name>  (1) 
Act Raloxifene#Apo-raloxifene#Evista#Evista (60mg)#PMS-raloxifene#Raloxifene#Raloxifene Hydrochloride#Teva-raloxifene#Keoxifene

>  <DrugBank ID>  (1) 
DB00481

>  <ATC Codes>  (1) 
G03XC01

>  <Ligand ID>  (1) 
RAL

>  <Target Name>  (1) 
Estrogen receptor beta

>  <UniProt ID>  (1) 
Q92731

>  <PDB ID.1>  (1) 
1QKN

>  <Seq. Identity>  (1) 
91%

$$$$
