PDB_DB01264_98
     RDKit          3D

 75 78  0  0  0  0  0  0  0  0999 V2000
   -8.7280   16.1900   18.4900 N   0  0  0  0  0  0  0  0  0  0  0  0
   -8.6590   15.9120   19.8190 C   0  0  0  0  0  0  0  0  0  0  0  0
   -9.8260   15.8320   20.5830 C   0  0  0  0  0  0  0  0  0  0  0  0
   -9.7470   15.5250   21.9410 C   0  0  0  0  0  0  0  0  0  0  0  0
   -8.5060   15.3090   22.5460 C   0  0  0  0  0  0  0  0  0  0  0  0
   -7.3390   15.3710   21.7760 C   0  0  0  0  0  0  0  0  0  0  0  0
   -7.4180   15.6730   20.4120 C   0  0  0  0  0  0  0  0  0  0  0  0
   -8.4250   14.9710   24.1160 S   0  0  0  0  0  0  0  0  0  0  0  0
   -9.5890   14.2270   24.4950 O   0  0  0  0  0  0  0  0  0  0  0  0
   -7.2730   14.1690   24.3740 O   0  0  0  0  0  0  0  0  0  0  0  0
   -8.3020   16.3060   25.0580 N   0  0  0  0  0  0  0  0  0  0  0  0
   -7.1690   17.1940   24.7030 C   0  0  0  0  0  0  0  0  0  0  0  0
   -6.5900   17.9220   25.9210 C   0  0  0  0  0  0  0  0  0  0  0  0
   -6.2160   16.9660   27.0530 C   0  0  0  0  0  0  0  0  0  0  0  0
   -5.3960   18.8010   25.5250 C   0  0  0  0  0  0  0  0  0  0  0  0
   -9.5550   17.0850   25.1760 C   0  0  0  0  0  0  0  0  0  0  0  0
  -10.0020   17.1050   26.6460 C   0  0  1  0  0  0  0  0  0  0  0  0
  -11.0830   18.0300   26.8900 O   0  0  0  0  0  0  0  0  0  0  0  0
  -10.4000   15.7310   27.1610 C   0  0  1  0  0  0  0  0  0  0  0  0
  -10.4980   15.9210   28.6040 N   0  0  0  0  0  0  0  0  0  0  0  0
   -9.7140   15.2600   29.4470 C   0  0  0  0  0  0  0  0  0  0  0  0
   -8.8440   14.4450   29.1150 O   0  0  0  0  0  0  0  0  0  0  0  0
   -9.9400   15.5810   30.8450 O   0  0  0  0  0  0  0  0  0  0  0  0
   -9.3450   14.7250   31.7950 C   0  0  1  0  0  0  0  0  0  0  0  0
   -9.0900   15.6300   32.9840 C   0  0  0  0  0  0  0  0  0  0  0  0
  -10.3190   15.6340   33.7110 O   0  0  0  0  0  0  0  0  0  0  0  0
  -11.1070   14.4780   33.3920 C   0  0  1  0  0  0  0  0  0  0  0  0
  -12.3680   14.8560   32.8400 O   0  0  0  0  0  0  0  0  0  0  0  0
  -12.7230   13.9900   31.7550 C   0  0  0  0  0  0  0  0  0  0  0  0
  -11.4400   13.3300   31.2910 C   0  0  0  0  0  0  0  0  0  0  0  0
  -10.3790   13.7390   32.3000 C   0  0  1  0  0  0  0  0  0  0  0  0
  -11.7920   15.2870   26.7040 C   0  0  0  0  0  0  0  0  0  0  0  0
  -13.2800   13.8750   28.1470 C   0  0  0  0  0  0  0  0  0  0  0  0
  -13.6490   12.6530   28.7060 C   0  0  0  0  0  0  0  0  0  0  0  0
  -12.8910   11.5160   28.4230 C   0  0  0  0  0  0  0  0  0  0  0  0
  -11.7820   11.6020   27.5810 C   0  0  0  0  0  0  0  0  0  0  0  0
  -11.4090   12.8190   27.0170 C   0  0  0  0  0  0  0  0  0  0  0  0
  -12.1600   13.9570   27.3060 C   0  0  0  0  0  0  0  0  0  0  0  0
   -7.8651   16.2480   17.9305 H   0  0  0  0  0  0  0  0  0  0  0  0
   -9.6431   16.3426   18.0426 H   0  0  0  0  0  0  0  0  0  0  0  0
  -10.8050   16.0108   20.1143 H   0  0  0  0  0  0  0  0  0  0  0  0
  -10.6670   15.4524   22.5395 H   0  0  0  0  0  0  0  0  0  0  0  0
   -6.3608   15.1825   22.2425 H   0  0  0  0  0  0  0  0  0  0  0  0
   -6.5011   15.7221   19.8062 H   0  0  0  0  0  0  0  0  0  0  0  0
   -6.3748   16.5864   24.2447 H   0  0  0  0  0  0  0  0  0  0  0  0
   -7.5476   17.9567   24.0065 H   0  0  0  0  0  0  0  0  0  0  0  0
   -7.3872   18.5744   26.3067 H   0  0  0  0  0  0  0  0  0  0  0  0
   -6.4062   17.4521   28.0213 H   0  0  0  0  0  0  0  0  0  0  0  0
   -6.8227   16.0517   26.9763 H   0  0  0  0  0  0  0  0  0  0  0  0
   -5.1499   16.7061   26.9763 H   0  0  0  0  0  0  0  0  0  0  0  0
   -4.8952   19.1697   26.4324 H   0  0  0  0  0  0  0  0  0  0  0  0
   -4.6860   18.2084   24.9294 H   0  0  0  0  0  0  0  0  0  0  0  0
   -5.7509   19.6550   24.9294 H   0  0  0  0  0  0  0  0  0  0  0  0
   -9.3818   18.1148   24.8303 H   0  0  0  0  0  0  0  0  0  0  0  0
  -10.3379   16.6208   24.5583 H   0  0  0  0  0  0  0  0  0  0  0  0
   -9.1144   17.4453   27.1996 H   0  0  0  0  0  0  0  0  0  0  0  0
  -11.2102   18.1389   27.8657 H   0  0  0  0  0  0  0  0  0  0  0  0
   -9.6788   14.9802   26.8058 H   0  0  0  0  0  0  0  0  0  0  0  0
  -11.1921   16.5839   28.9777 H   0  0  0  0  0  0  0  0  0  0  0  0
   -8.4684   14.2068   31.3791 H   0  0  0  0  0  0  0  0  0  0  0  0
   -8.2738   15.2326   33.6052 H   0  0  0  0  0  0  0  0  0  0  0  0
   -8.7862   16.6418   32.6775 H   0  0  0  0  0  0  0  0  0  0  0  0
  -11.2600   13.8831   34.3045 H   0  0  0  0  0  0  0  0  0  0  0  0
  -13.4399   13.2285   32.0959 H   0  0  0  0  0  0  0  0  0  0  0  0
  -13.1984   14.5521   30.9376 H   0  0  0  0  0  0  0  0  0  0  0  0
  -11.5547   12.2361   31.2771 H   0  0  0  0  0  0  0  0  0  0  0  0
  -11.1704   13.6392   30.2704 H   0  0  0  0  0  0  0  0  0  0  0  0
   -9.8518   12.8173   32.5874 H   0  0  0  0  0  0  0  0  0  0  0  0
  -12.5303   16.0399   27.0170 H   0  0  0  0  0  0  0  0  0  0  0  0
  -11.7849   15.1855   25.6087 H   0  0  0  0  0  0  0  0  0  0  0  0
  -13.8687   14.7781   28.3658 H   0  0  0  0  0  0  0  0  0  0  0  0
  -14.5284   12.5854   29.3633 H   0  0  0  0  0  0  0  0  0  0  0  0
  -13.1690   10.5481   28.8656 H   0  0  0  0  0  0  0  0  0  0  0  0
  -11.1956   10.6979   27.3602 H   0  0  0  0  0  0  0  0  0  0  0  0
  -10.5343   12.8815   26.3529 H   0  0  0  0  0  0  0  0  0  0  0  0
  1  2  1  0
  2  3  2  0
  3  4  1  0
  4  5  2  0
  5  6  1  0
  2  7  1  0
  6  7  2  0
  5  8  1  0
  8  9  2  0
  8 10  2  0
  8 11  1  0
 11 12  1  0
 12 13  1  0
 13 14  1  0
 13 15  1  0
 11 16  1  0
 16 17  1  0
 17 18  1  0
 17 19  1  0
 19 20  1  0
 20 21  1  0
 21 22  2  0
 21 23  1  0
 23 24  1  0
 24 25  1  0
 25 26  1  0
 26 27  1  0
 27 28  1  0
 28 29  1  0
 29 30  1  0
 24 31  1  0
 27 31  1  0
 30 31  1  0
 19 32  1  0
 33 34  2  0
 34 35  1  0
 35 36  2  0
 36 37  1  0
 32 38  1  0
 33 38  1  0
 37 38  2  0
  1 39  1  0
  1 40  1  0
  3 41  1  0
  4 42  1  0
  6 43  1  0
  7 44  1  0
 12 45  1  0
 12 46  1  0
 13 47  1  0
 14 48  1  0
 14 49  1  0
 14 50  1  0
 15 51  1  0
 15 52  1  0
 15 53  1  0
 16 54  1  0
 16 55  1  0
 17 56  1  1
 18 57  1  0
 19 58  1  1
 20 59  1  0
 24 60  1  6
 25 61  1  0
 25 62  1  0
 27 63  1  1
 29 64  1  0
 29 65  1  0
 30 66  1  0
 30 67  1  0
 31 68  1  1
 32 69  1  0
 32 70  1  0
 33 71  1  0
 34 72  1  0
 35 73  1  0
 36 74  1  0
 37 75  1  0
M  END
>  <PDBID>  (1) 
4LL3

>  <PDB ID>  (1) 
4LL3

>  <Generic Name>  (1) 
Darunavir

>  <Brand Name>  (1) 
Pat-darunavir#Prezcobix#Prezista

>  <DrugBank ID>  (1) 
DB01264

>  <ATC Codes>  (1) 
J05AE10#J05AR14

>  <Ligand ID>  (1) 
17

>  <Target Name>  (1) 
Pol polyprotein

>  <UniProt ID>  (1) 
Q72874

>  <PDB ID.1>  (1) 
4LL3

>  <Seq. Identity>  (1) 
98%

$$$$
