PDB_DB00819_91
     RDKit          3D

 19 19  0  0  0  0  0  0  0  0999 V2000
   34.9710    9.6660   19.5770 C   0  0  0  0  0  0  0  0  0  0  0  0
   37.2980    9.9740   19.8630 C   0  0  0  0  0  0  0  0  0  0  0  0
   39.1520   11.5070   19.6960 C   0  0  0  0  0  0  0  0  0  0  0  0
   40.5240   11.2920   19.1000 C   0  0  0  0  0  0  0  0  0  0  0  0
   33.0780    8.6430   18.1390 N   0  0  0  0  0  0  0  0  0  0  0  0
   36.9060    8.7040   20.1830 N   0  0  0  0  0  0  0  0  0  0  0  0
   35.4800    8.4980   20.0030 N   0  0  0  0  0  0  0  0  0  0  0  0
   38.5760   10.4370   20.2570 N   0  0  0  0  0  0  0  0  0  0  0  0
   32.4880    9.4420   20.4120 O   0  0  0  0  0  0  0  0  0  0  0  0
   32.9630   11.1030   18.6740 O   0  0  0  0  0  0  0  0  0  0  0  0
   38.5880   12.6210   19.6630 O   0  0  0  0  0  0  0  0  0  0  0  0
   33.2750    9.8000   19.2460 S   0  0  0  0  0  0  0  0  0  0  0  0
   36.1000   10.9430   19.3760 S   0  0  0  0  0  0  0  0  0  0  0  0
   41.2610   11.1765   19.9084 H   0  0  0  0  0  0  0  0  0  0  0  0
   40.5158   10.3842   18.4789 H   0  0  0  0  0  0  0  0  0  0  0  0
   40.7939   12.1588   18.4789 H   0  0  0  0  0  0  0  0  0  0  0  0
   32.9242    7.7399   18.6099 H   0  0  0  0  0  0  0  0  0  0  0  0
   32.2629    8.8664   17.5502 H   0  0  0  0  0  0  0  0  0  0  0  0
   39.0800    9.9334   21.0008 H   0  0  0  0  0  0  0  0  0  0  0  0
  3  4  1  0
  2  6  2  0
  1  7  2  0
  6  7  1  0
  2  8  1  0
  3  8  1  0
  3 11  2  0
  1 12  1  0
  5 12  1  0
  9 12  2  0
 10 12  2  0
  1 13  1  0
  2 13  1  0
  4 14  1  0
  4 15  1  0
  4 16  1  0
  5 17  1  0
  5 18  1  0
  8 19  1  0
M  END
$$$$
