PDB_DB01137_89
     RDKit          3D

 46 49  0  0  0  0  0  0  0  0999 V2000
   55.4880  -20.2750   76.9090 C   0  0  0  0  0  0  0  0  0  0  0  0
   59.4420  -14.0230   77.5030 F   0  0  0  0  0  0  0  0  0  0  0  0
   57.7190   -9.7290   76.4190 N   0  0  0  0  0  0  0  0  0  0  0  0
   54.4150  -20.5970   76.3310 O   0  0  0  0  0  0  0  0  0  0  0  0
   58.6450  -11.9370   76.1250 C   0  0  0  0  0  0  0  0  0  0  0  0
   57.3550  -12.5260   76.5130 N   0  0  0  0  0  0  0  0  0  0  0  0
   55.1100  -13.9240   75.8350 O   0  0  0  0  0  0  0  0  0  0  0  0
   56.3890  -11.6280   77.1540 C   0  0  0  0  0  0  0  0  0  0  0  0
   54.8840  -16.6880   76.2180 N   0  0  0  0  0  0  0  0  0  0  0  0
   58.0390  -18.9950   77.7250 O   0  0  0  0  0  0  0  0  0  0  0  0
   53.7170  -15.9040   75.7210 C   0  0  2  0  0  0  0  0  0  0  0  0
   56.3130  -21.0650   77.5180 O   0  0  0  0  0  0  0  0  0  0  0  0
   57.2600  -13.9210   76.6900 C   0  0  0  0  0  0  0  0  0  0  0  0
   56.0610  -16.0440   76.5570 C   0  0  0  0  0  0  0  0  0  0  0  0
   56.1150  -14.6390   76.3940 C   0  0  0  0  0  0  0  0  0  0  0  0
   58.5050  -10.5580   75.5320 C   0  0  0  0  0  0  0  0  0  0  0  0
   56.3770  -10.2820   76.4570 C   0  0  0  0  0  0  0  0  0  0  0  0
   53.8260  -14.4630   76.1220 C   0  0  0  0  0  0  0  0  0  0  0  0
   57.1380  -16.7930   77.0680 C   0  0  0  0  0  0  0  0  0  0  0  0
   58.3100  -14.7070   77.1960 C   0  0  0  0  0  0  0  0  0  0  0  0
   54.8030  -18.0160   76.3860 C   0  0  0  0  0  0  0  0  0  0  0  0
   58.3060  -16.0690   77.3660 C   0  0  0  0  0  0  0  0  0  0  0  0
   52.3960  -16.3850   76.3160 C   0  0  0  0  0  0  0  0  0  0  0  0
   57.0690  -18.2800   77.2570 C   0  0  0  0  0  0  0  0  0  0  0  0
   57.7370   -8.3270   76.0380 C   0  0  0  0  0  0  0  0  0  0  0  0
   55.8060  -18.8260   76.8680 C   0  0  0  0  0  0  0  0  0  0  0  0
   53.8598  -19.9027   75.8953 H   0  0  0  0  0  0  0  0  0  0  0  0
   59.2840  -11.8720   77.0180 H   0  0  0  0  0  0  0  0  0  0  0  0
   59.0854  -12.5853   75.3532 H   0  0  0  0  0  0  0  0  0  0  0  0
   55.3854  -12.0748   77.0971 H   0  0  0  0  0  0  0  0  0  0  0  0
   56.6788  -11.4833   78.2052 H   0  0  0  0  0  0  0  0  0  0  0  0
   53.7281  -16.0363   74.6290 H   0  0  0  0  0  0  0  0  0  0  0  0
   58.0036  -10.6280   74.5554 H   0  0  0  0  0  0  0  0  0  0  0  0
   59.5021  -10.1122   75.4013 H   0  0  0  0  0  0  0  0  0  0  0  0
   55.7154   -9.5945   77.0043 H   0  0  0  0  0  0  0  0  0  0  0  0
   56.0115  -10.4123   75.4277 H   0  0  0  0  0  0  0  0  0  0  0  0
   53.6402  -14.3806   77.2031 H   0  0  0  0  0  0  0  0  0  0  0  0
   53.0826  -13.8935   75.5449 H   0  0  0  0  0  0  0  0  0  0  0  0
   53.8529  -18.4997   76.1152 H   0  0  0  0  0  0  0  0  0  0  0  0
   59.2050  -16.5875   77.7307 H   0  0  0  0  0  0  0  0  0  0  0  0
   52.4585  -16.3622   77.4140 H   0  0  0  0  0  0  0  0  0  0  0  0
   51.5815  -15.7257   75.9814 H   0  0  0  0  0  0  0  0  0  0  0  0
   52.1961  -17.4136   75.9814 H   0  0  0  0  0  0  0  0  0  0  0  0
   57.7450   -7.7013   76.9427 H   0  0  0  0  0  0  0  0  0  0  0  0
   58.6379   -8.1207   75.4415 H   0  0  0  0  0  0  0  0  0  0  0  0
   56.8417   -8.0976   75.4415 H   0  0  0  0  0  0  0  0  0  0  0  0
  1  4  1  0
  5  6  1  0
  6  8  1  0
  9 11  1  0
  1 12  2  0
  6 13  1  0
  9 14  1  0
  7 15  1  0
 13 15  1  0
 14 15  2  0
  3 16  1  0
  5 16  1  0
  3 17  1  0
  8 17  1  0
  7 18  1  0
 11 18  1  0
 14 19  1  0
  2 20  1  0
 13 20  2  0
  9 21  1  0
 19 22  2  0
 20 22  1  0
 11 23  1  0
 19 24  1  0
 24 10  2  0
  3 25  1  0
  1 26  1  0
 21 26  2  0
 24 26  1  0
  4 27  1  0
  5 28  1  0
  5 29  1  0
  8 30  1  0
  8 31  1  0
 11 32  1  6
 16 33  1  0
 16 34  1  0
 17 35  1  0
 17 36  1  0
 18 37  1  0
 18 38  1  0
 21 39  1  0
 22 40  1  0
 23 41  1  0
 23 42  1  0
 23 43  1  0
 25 44  1  0
 25 45  1  0
 25 46  1  0
M  END
>  <PDBID>  (1) 
4JUO

>  <PDB ID>  (1) 
4JUO

>  <Generic Name>  (1) 
Levofloxacin

>  <Brand Name>  (1) 
Act Levofloxacin#Apo-levofloxacin#Auro-levofloxacin#Ava-levofloxacin#Dom-levofloxacin#Iquix#Levaquin#Levaquin 25mg/ml#Levaquin 500mg#Levaquin 5mg/ml#Levaquin 750mg#Levofloxacin#Levofloxacin In 5% Dextrose Injection#Levofloxacin Injection#Mylan-levofloxacin#Ntp-levofloxacin#PHL-levofloxacin#PMS-levofloxacin#Quinsair#Quixin#Sandoz Levofloxacin#Teva-levofloxacin#Cravit#Elequine#Floxel#Leroxacin#Levokacin#Levox#Levoxacin#Mosardal#Nofaxin#Reskuin#Tavanic

>  <DrugBank ID>  (1) 
DB01137

>  <ATC Codes>  (1) 
A02BD10#J01RA05#S01AE05#J01MA12

>  <Ligand ID>  (1) 
LFX

>  <Target Name>  (1) 
DNA topoisomerase 2-alpha

>  <UniProt ID>  (1) 
P11388

>  <PDB ID.1>  (1) 
4JUO

>  <Seq. Identity>  (1) 
34%

$$$$
