PDB_DB00276_99
     RDKit          3D

138144  0  0  0  0  0  0  0  0999 V2000
   23.3340  100.1970   29.5290 C   0  0  0  0  0  0  0  0  0  0  0  0
   24.0670  100.5630   30.6400 O   0  0  0  0  0  0  0  0  0  0  0  0
   24.4280   99.6010   31.5500 C   0  0  0  0  0  0  0  0  0  0  0  0
   24.0170   98.2900   31.3480 C   0  0  0  0  0  0  0  0  0  0  0  0
   24.3630   97.2850   32.2360 C   0  0  0  0  0  0  0  0  0  0  0  0
   23.9060   95.9420   31.9770 N   0  0  0  0  0  0  0  0  0  0  0  0
   24.9310   94.6730   31.9720 S   0  0  2  0  0  4  0  0  0  0  0  0
   24.0970   93.1920   31.4930 C   0  0  0  0  0  0  0  0  0  0  0  0
   25.5700   94.5100   33.2520 O   0  0  0  0  0  0  0  0  0  0  0  0
   26.0720   94.9220   31.1280 O   0  0  0  0  0  0  0  0  0  0  0  0
   25.1400   97.6010   33.3460 C   0  0  0  0  0  0  0  0  0  0  0  0
   25.5420   98.9150   33.5620 C   0  0  0  0  0  0  0  0  0  0  0  0
   25.1960   99.9290   32.6680 C   0  0  0  0  0  0  0  0  0  0  0  0
   25.6190  101.2960   32.8510 N   0  0  0  0  0  0  0  0  0  0  0  0
   26.8300  101.7320   33.5070 C   0  0  0  0  0  0  0  0  0  0  0  0
   26.7650  102.9080   34.3250 C   0  0  0  0  0  0  0  0  0  0  0  0
   25.5400  103.6010   34.4810 C   0  0  0  0  0  0  0  0  0  0  0  0
   25.4930  104.7350   35.2840 C   0  0  0  0  0  0  0  0  0  0  0  0
   26.6430  105.2000   35.9400 C   0  0  0  0  0  0  0  0  0  0  0  0
   27.8490  104.5240   35.7850 C   0  0  0  0  0  0  0  0  0  0  0  0
   27.8980  103.3590   34.9610 C   0  0  0  0  0  0  0  0  0  0  0  0
   29.1180  102.7170   34.8310 N   0  0  0  0  0  0  0  0  0  0  0  0
   29.2020  101.5910   34.0340 C   0  0  0  0  0  0  0  0  0  0  0  0
   30.4770  100.9830   33.9380 C   0  0  0  0  0  0  0  0  0  0  0  0
   30.6350   99.8500   33.1600 C   0  0  0  0  0  0  0  0  0  0  0  0
   29.5370   99.3270   32.4700 C   0  0  0  0  0  0  0  0  0  0  0  0
   28.2840   99.9260   32.5470 C   0  0  0  0  0  0  0  0  0  0  0  0
   28.1070  101.0760   33.3550 C   0  0  0  0  0  0  0  0  0  0  0  0
   35.8080   88.9700   50.1890 C   0  0  0  0  0  0  0  0  0  0  0  0
   35.0150   90.0630   49.8820 O   0  0  0  0  0  0  0  0  0  0  0  0
   34.6390   90.3220   48.5860 C   0  0  0  0  0  0  0  0  0  0  0  0
   35.1060   89.4950   47.5800 C   0  0  0  0  0  0  0  0  0  0  0  0
   34.7670   89.7210   46.2600 C   0  0  0  0  0  0  0  0  0  0  0  0
   35.2940   88.8250   45.2720 N   0  0  0  0  0  0  0  0  0  0  0  0
   34.3150   88.0990   44.1960 S   0  0  2  0  0  4  0  0  0  0  0  0
   35.2450   86.9580   43.2190 C   0  0  0  0  0  0  0  0  0  0  0  0
   33.6490   89.0920   43.3790 O   0  0  0  0  0  0  0  0  0  0  0  0
   33.2120   87.4060   44.8340 O   0  0  0  0  0  0  0  0  0  0  0  0
   33.9350   90.7900   45.9340 C   0  0  0  0  0  0  0  0  0  0  0  0
   33.4670   91.6280   46.9380 C   0  0  0  0  0  0  0  0  0  0  0  0
   33.8110   91.3990   48.2720 C   0  0  0  0  0  0  0  0  0  0  0  0
   33.3280   92.2330   49.3420 N   0  0  0  0  0  0  0  0  0  0  0  0
   32.1420   93.0630   49.3590 C   0  0  0  0  0  0  0  0  0  0  0  0
   32.2240   94.4030   49.8940 C   0  0  0  0  0  0  0  0  0  0  0  0
   33.4380   94.9290   50.3940 C   0  0  0  0  0  0  0  0  0  0  0  0
   33.4910   96.2120   50.9100 C   0  0  0  0  0  0  0  0  0  0  0  0
   32.3430   97.0020   50.9410 C   0  0  0  0  0  0  0  0  0  0  0  0
   31.1410   96.5000   50.4590 C   0  0  0  0  0  0  0  0  0  0  0  0
   31.1000   95.1810   49.9320 C   0  0  0  0  0  0  0  0  0  0  0  0
   29.8890   94.7170   49.4690 N   0  0  0  0  0  0  0  0  0  0  0  0
   29.7910   93.4340   48.9570 C   0  0  0  0  0  0  0  0  0  0  0  0
   28.5140   93.0220   48.4970 C   0  0  0  0  0  0  0  0  0  0  0  0
   28.3570   91.7410   47.9740 C   0  0  0  0  0  0  0  0  0  0  0  0
   29.4480   90.8680   47.9120 C   0  0  0  0  0  0  0  0  0  0  0  0
   30.6960   91.2790   48.3640 C   0  0  0  0  0  0  0  0  0  0  0  0
   30.8720   92.5820   48.8950 C   0  0  0  0  0  0  0  0  0  0  0  0
   22.3925   99.7269   29.8494 H   0  0  0  0  0  0  0  0  0  0  0  0
   23.1115  101.0898   28.9261 H   0  0  0  0  0  0  0  0  0  0  0  0
   23.9139   99.4827   28.9261 H   0  0  0  0  0  0  0  0  0  0  0  0
   23.5111   99.8000   32.1241 H   0  0  0  0  0  0  0  0  0  0  0  0
   22.9178   98.3098   31.3124 H   0  0  0  0  0  0  0  0  0  0  0  0
   24.5645   98.0046   30.4376 H   0  0  0  0  0  0  0  0  0  0  0  0
   23.4501   97.4837   32.8166 H   0  0  0  0  0  0  0  0  0  0  0  0
   23.1934   95.7358   32.6916 H   0  0  0  0  0  0  0  0  0  0  0  0
   23.7858   92.6394   32.3918 H   0  0  0  0  0  0  0  0  0  0  0  0
   23.2103   93.4477   30.8944 H   0  0  0  0  0  0  0  0  0  0  0  0
   24.7754   92.5663   30.8944 H   0  0  0  0  0  0  0  0  0  0  0  0
   24.9125   94.6777   33.9728 H   0  0  0  0  0  0  0  0  0  0  0  0
   26.8675   95.0956   31.6912 H   0  0  0  0  0  0  0  0  0  0  0  0
   24.5662   97.2946   34.2330 H   0  0  0  0  0  0  0  0  0  0  0  0
   26.0865   97.0759   33.1500 H   0  0  0  0  0  0  0  0  0  0  0  0
   25.1358   99.2093   34.5410 H   0  0  0  0  0  0  0  0  0  0  0  0
   26.6345   98.8552   33.4486 H   0  0  0  0  0  0  0  0  0  0  0  0
   24.2778  100.1219   33.2422 H   0  0  0  0  0  0  0  0  0  0  0  0
   25.6694  101.6919   31.9014 H   0  0  0  0  0  0  0  0  0  0  0  0
   27.0793  102.3530   32.6340 H   0  0  0  0  0  0  0  0  0  0  0  0
   27.0054  103.5299   33.4501 H   0  0  0  0  0  0  0  0  0  0  0  0
   25.2151  103.9071   33.4756 H   0  0  0  0  0  0  0  0  0  0  0  0
   24.9013  102.8807   35.0132 H   0  0  0  0  0  0  0  0  0  0  0  0
   25.1428  105.5581   34.6439 H   0  0  0  0  0  0  0  0  0  0  0  0
   24.8490  104.4171   36.1172 H   0  0  0  0  0  0  0  0  0  0  0  0
   26.8100  106.2317   35.5970 H   0  0  0  0  0  0  0  0  0  0  0  0
   26.4051  105.0558   37.0042 H   0  0  0  0  0  0  0  0  0  0  0  0
   28.5681  105.2433   35.3662 H   0  0  0  0  0  0  0  0  0  0  0  0
   28.0619  104.1383   36.7929 H   0  0  0  0  0  0  0  0  0  0  0  0
   28.1379  103.9856   34.0893 H   0  0  0  0  0  0  0  0  0  0  0  0
   29.7824  103.4060   34.4506 H   0  0  0  0  0  0  0  0  0  0  0  0
   29.4382  102.2234   33.1655 H   0  0  0  0  0  0  0  0  0  0  0  0
   31.1647  101.7433   33.5392 H   0  0  0  0  0  0  0  0  0  0  0  0
   30.6691  100.6234   34.9597 H   0  0  0  0  0  0  0  0  0  0  0  0
   31.4031  100.0835   32.4080 H   0  0  0  0  0  0  0  0  0  0  0  0
   30.8750   99.0660   33.8933 H   0  0  0  0  0  0  0  0  0  0  0  0
   29.8134   99.3187   31.4053 H   0  0  0  0  0  0  0  0  0  0  0  0
   29.3732   98.3642   32.9762 H   0  0  0  0  0  0  0  0  0  0  0  0
   28.0016  100.2090   31.5222 H   0  0  0  0  0  0  0  0  0  0  0  0
   27.6648   99.1646   33.0439 H   0  0  0  0  0  0  0  0  0  0  0  0
   28.3365  101.7221   32.4948 H   0  0  0  0  0  0  0  0  0  0  0  0
   35.8829   88.8667   51.2816 H   0  0  0  0  0  0  0  0  0  0  0  0
   35.3585   88.0601   49.7646 H   0  0  0  0  0  0  0  0  0  0  0  0
   36.8124   89.1150   49.7646 H   0  0  0  0  0  0  0  0  0  0  0  0
   35.5182   90.9710   48.4606 H   0  0  0  0  0  0  0  0  0  0  0  0
   36.2043   89.5291   47.6314 H   0  0  0  0  0  0  0  0  0  0  0  0
   34.6054   88.5403   47.7989 H   0  0  0  0  0  0  0  0  0  0  0  0
   35.6493   90.3677   46.1441 H   0  0  0  0  0  0  0  0  0  0  0  0
   35.9824   89.3625   44.7261 H   0  0  0  0  0  0  0  0  0  0  0  0
   35.8004   86.2766   43.8803 H   0  0  0  0  0  0  0  0  0  0  0  0
   34.5607   86.3760   42.5842 H   0  0  0  0  0  0  0  0  0  0  0  0
   35.9530   87.5109   42.5842 H   0  0  0  0  0  0  0  0  0  0  0  0
   33.2039   89.7556   43.9635 H   0  0  0  0  0  0  0  0  0  0  0  0
   33.3087   87.4667   45.8174 H   0  0  0  0  0  0  0  0  0  0  0  0
   34.4897   91.4212   45.2242 H   0  0  0  0  0  0  0  0  0  0  0  0
   33.0226   90.3008   45.5622 H   0  0  0  0  0  0  0  0  0  0  0  0
   33.8181   92.6409   46.6918 H   0  0  0  0  0  0  0  0  0  0  0  0
   32.3826   91.4435   46.9278 H   0  0  0  0  0  0  0  0  0  0  0  0
   34.6943   92.0440   48.1549 H   0  0  0  0  0  0  0  0  0  0  0  0
   33.2088   91.5916   50.1390 H   0  0  0  0  0  0  0  0  0  0  0  0
   31.8880   92.6796   50.3582 H   0  0  0  0  0  0  0  0  0  0  0  0
   31.9784   94.0184   50.8949 H   0  0  0  0  0  0  0  0  0  0  0  0
   33.7664   94.2531   51.1973 H   0  0  0  0  0  0  0  0  0  0  0  0
   34.0648   95.0002   49.4929 H   0  0  0  0  0  0  0  0  0  0  0  0
   33.8415   96.1215   51.9487 H   0  0  0  0  0  0  0  0  0  0  0  0
   34.1417   96.7421   50.1989 H   0  0  0  0  0  0  0  0  0  0  0  0
   32.1739   97.2752   51.9930 H   0  0  0  0  0  0  0  0  0  0  0  0
   32.5770   97.8155   50.2385 H   0  0  0  0  0  0  0  0  0  0  0  0
   30.4217   96.5359   51.2905 H   0  0  0  0  0  0  0  0  0  0  0  0
   30.9237   97.1356   49.5879 H   0  0  0  0  0  0  0  0  0  0  0  0
   30.8624   94.7889   50.9319 H   0  0  0  0  0  0  0  0  0  0  0  0
   29.2274   94.7747   50.2563 H   0  0  0  0  0  0  0  0  0  0  0  0
   29.5528   93.0517   49.9606 H   0  0  0  0  0  0  0  0  0  0  0  0
   27.8235   93.1072   49.3490 H   0  0  0  0  0  0  0  0  0  0  0  0
   28.3237   93.6793   47.6357 H   0  0  0  0  0  0  0  0  0  0  0  0
   27.5872   91.2430   48.5818 H   0  0  0  0  0  0  0  0  0  0  0  0
   28.1259   91.9291   46.9151 H   0  0  0  0  0  0  0  0  0  0  0  0
   29.1757   89.9781   48.4984 H   0  0  0  0  0  0  0  0  0  0  0  0
   29.6030   90.7352   46.8311 H   0  0  0  0  0  0  0  0  0  0  0  0
   30.9943   90.5733   49.1533 H   0  0  0  0  0  0  0  0  0  0  0  0
   31.2992   91.3012   47.4444 H   0  0  0  0  0  0  0  0  0  0  0  0
   30.6413   92.2157   49.9062 H   0  0  0  0  0  0  0  0  0  0  0  0
  1  2  1  0
  2  3  1  0
  3  4  1  0
  4  5  1  0
  5  6  1  0
  6  7  1  0
  7  8  1  0
  7  9  1  1
  7 10  1  0
  5 11  1  0
 11 12  1  0
  3 13  1  0
 12 13  1  0
 13 14  1  0
 14 15  1  0
 15 16  1  0
 16 17  1  0
 17 18  1  0
 18 19  1  0
 19 20  1  0
 16 21  1  0
 20 21  1  0
 21 22  1  0
 22 23  1  0
 23 24  1  0
 24 25  1  0
 25 26  1  0
 26 27  1  0
 15 28  1  0
 23 28  1  0
 27 28  1  0
 29 30  1  0
 30 31  1  0
 31 32  1  0
 32 33  1  0
 33 34  1  0
 34 35  1  0
 35 36  1  0
 35 37  1  6
 35 38  1  0
 33 39  1  0
 39 40  1  0
 31 41  1  0
 40 41  1  0
 41 42  1  0
 42 43  1  0
 43 44  1  0
 44 45  1  0
 45 46  1  0
 46 47  1  0
 47 48  1  0
 44 49  1  0
 48 49  1  0
 49 50  1  0
 50 51  1  0
 51 52  1  0
 52 53  1  0
 53 54  1  0
 54 55  1  0
 43 56  1  0
 51 56  1  0
 55 56  1  0
  1 57  1  0
  1 58  1  0
  1 59  1  0
  3 60  1  0
  4 61  1  0
  4 62  1  0
  5 63  1  0
  6 64  1  0
  8 65  1  0
  8 66  1  0
  8 67  1  0
  9 68  1  0
 10 69  1  0
 11 70  1  0
 11 71  1  0
 12 72  1  0
 12 73  1  0
 13 74  1  0
 14 75  1  0
 15 76  1  0
 16 77  1  0
 17 78  1  0
 17 79  1  0
 18 80  1  0
 18 81  1  0
 19 82  1  0
 19 83  1  0
 20 84  1  0
 20 85  1  0
 21 86  1  0
 22 87  1  0
 23 88  1  0
 24 89  1  0
 24 90  1  0
 25 91  1  0
 25 92  1  0
 26 93  1  0
 26 94  1  0
 27 95  1  0
 27 96  1  0
 28 97  1  0
 29 98  1  0
 29 99  1  0
 29100  1  0
 31101  1  0
 32102  1  0
 32103  1  0
 33104  1  0
 34105  1  0
 36106  1  0
 36107  1  0
 36108  1  0
 37109  1  0
 38110  1  0
 39111  1  0
 39112  1  0
 40113  1  0
 40114  1  0
 41115  1  0
 42116  1  0
 43117  1  0
 44118  1  0
 45119  1  0
 45120  1  0
 46121  1  0
 46122  1  0
 47123  1  0
 47124  1  0
 48125  1  0
 48126  1  0
 49127  1  0
 50128  1  0
 51129  1  0
 52130  1  0
 52131  1  0
 53132  1  0
 53133  1  0
 54134  1  0
 54135  1  0
 55136  1  0
 55137  1  0
 56138  1  0
M  END
>  <PDBID>  (1) 
4G0U

>  <PDB ID>  (1) 
4G0U

>  <Generic Name>  (1) 
Amsacrine

>  <Brand Name>  (1) 
Amsa Pd Inj 50mg/ml#AMSA P-D#Amekrin#Amsidine#Amsidyl

>  <DrugBank ID>  (1) 
DB00276

>  <ATC Codes>  (1) 
L01XX01

>  <Ligand ID>  (1) 
ASW

>  <Target Name>  (1) 
DNA topoisomerase 2-alpha

>  <UniProt ID>  (1) 
P11388

>  <PDB ID.1>  (1) 
4G0U

>  <Seq. Identity>  (1) 
78%

$$$$
