PDB_DB01601_99
     RDKit          3D

118121  0  0  0  0  0  0  0  0999 V2000
  -12.8260   12.8350   34.8630 C   0  0  0  0  0  0  0  0  0  0  0  0
  -10.6950   13.4560   33.6930 C   0  0  0  0  0  0  0  0  0  0  0  0
  -11.3120   14.7950   33.3690 N   0  0  0  0  0  0  0  0  0  0  0  0
  -12.6020   15.1110   33.7730 C   0  0  0  0  0  0  0  0  0  0  0  0
  -13.3030   14.1780   34.4780 N   0  0  0  0  0  0  0  0  0  0  0  0
   -6.2280   18.1490   27.5220 C   0  0  0  0  0  0  0  0  0  0  0  0
   -5.5330   18.8920   26.5370 C   0  0  0  0  0  0  0  0  0  0  0  0
   -4.2180   18.5350   26.1490 C   0  0  0  0  0  0  0  0  0  0  0  0
   -3.5830   17.4290   26.7450 C   0  0  0  0  0  0  0  0  0  0  0  0
   -4.2660   16.6810   27.7290 C   0  0  0  0  0  0  0  0  0  0  0  0
   -5.5790   17.0370   28.1160 C   0  0  0  0  0  0  0  0  0  0  0  0
  -13.1160   16.1860   33.5160 O   0  0  0  0  0  0  0  0  0  0  0  0
  -10.5260   15.8120   32.5870 C   0  0  2  0  0  0  0  0  0  0  0  0
  -10.3560   15.3130   31.1260 C   0  0  0  0  0  0  0  0  0  0  0  0
  -11.2180   15.9240   30.2550 N   0  0  0  0  0  0  0  0  0  0  0  0
  -11.2830   15.6520   28.8020 C   0  0  1  0  0  0  0  0  0  0  0  0
   -9.1410   16.1410   33.2720 C   0  0  1  0  0  0  0  0  0  0  0  0
   -8.3090   17.1860   32.5040 C   0  0  0  0  0  0  0  0  0  0  0  0
   -9.3490   16.6480   34.7180 C   0  0  0  0  0  0  0  0  0  0  0  0
   -9.5230   14.4560   30.8260 O   0  0  0  0  0  0  0  0  0  0  0  0
  -12.7040   11.1390   29.1350 C   0  0  0  0  0  0  0  0  0  0  0  0
  -13.3650   11.1000   30.3860 C   0  0  0  0  0  0  0  0  0  0  0  0
  -13.7730   12.3060   31.0020 C   0  0  0  0  0  0  0  0  0  0  0  0
  -13.5190   13.5420   30.3650 C   0  0  0  0  0  0  0  0  0  0  0  0
  -12.8550   13.5900   29.1090 C   0  0  0  0  0  0  0  0  0  0  0  0
  -12.4510   12.3790   28.5010 C   0  0  0  0  0  0  0  0  0  0  0  0
  -12.5910   14.9100   28.4420 C   0  0  0  0  0  0  0  0  0  0  0  0
  -11.2870   16.9600   27.9810 C   0  0  0  0  0  0  0  0  0  0  0  0
  -10.1160   17.9510   28.1120 C   0  0  1  0  0  0  0  0  0  0  0  0
   -8.7120   17.4430   27.6950 C   0  0  1  0  0  0  0  0  0  0  0  0
   -8.7530   17.0970   26.2550 N   0  0  0  0  0  0  0  0  0  0  0  0
   -8.2660   15.9270   25.7320 C   0  0  0  0  0  0  0  0  0  0  0  0
   -8.3990   15.8070   24.2010 C   0  0  0  0  0  0  0  0  0  0  0  0
   -8.7210   17.0700   23.5900 O   0  0  0  0  0  0  0  0  0  0  0  0
   -8.2970   17.1830   22.2520 C   0  0  0  0  0  0  0  0  0  0  0  0
  -10.4330   19.0340   27.2710 O   0  0  0  0  0  0  0  0  0  0  0  0
   -7.6370   18.5480   27.9160 C   0  0  0  0  0  0  0  0  0  0  0  0
   -7.7420   15.0210   26.3890 O   0  0  0  0  0  0  0  0  0  0  0  0
   -9.0670   16.6400   21.1650 C   0  0  0  0  0  0  0  0  0  0  0  0
   -8.5870   16.7880   19.8360 C   0  0  0  0  0  0  0  0  0  0  0  0
   -7.3740   17.4590   19.5740 C   0  0  0  0  0  0  0  0  0  0  0  0
   -6.6140   17.9970   20.6320 C   0  0  0  0  0  0  0  0  0  0  0  0
   -7.0610   17.8680   21.9690 C   0  0  0  0  0  0  0  0  0  0  0  0
   -6.2340   18.4510   23.0640 C   0  0  0  0  0  0  0  0  0  0  0  0
  -10.3740   15.9150   21.3830 C   0  0  0  0  0  0  0  0  0  0  0  0
  -11.2960   12.7740   34.9400 C   0  0  0  0  0  0  0  0  0  0  0  0
  -13.2425   12.5782   35.8482 H   0  0  0  0  0  0  0  0  0  0  0  0
  -13.1582   12.1212   34.0948 H   0  0  0  0  0  0  0  0  0  0  0  0
  -10.8411   12.7898   32.8300 H   0  0  0  0  0  0  0  0  0  0  0  0
   -9.6325   13.6392   33.9111 H   0  0  0  0  0  0  0  0  0  0  0  0
  -12.9975   14.6980   32.8333 H   0  0  0  0  0  0  0  0  0  0  0  0
  -14.1581   14.0122   33.9283 H   0  0  0  0  0  0  0  0  0  0  0  0
   -6.6359   17.4927   26.7391 H   0  0  0  0  0  0  0  0  0  0  0  0
   -6.1486   18.8570   25.6261 H   0  0  0  0  0  0  0  0  0  0  0  0
   -5.3857   19.8660   27.0266 H   0  0  0  0  0  0  0  0  0  0  0  0
   -4.2487   18.3383   25.0672 H   0  0  0  0  0  0  0  0  0  0  0  0
   -3.6135   19.3878   26.4916 H   0  0  0  0  0  0  0  0  0  0  0  0
   -3.3271   16.7317   25.9336 H   0  0  0  0  0  0  0  0  0  0  0  0
   -2.7459   17.8796   27.2984 H   0  0  0  0  0  0  0  0  0  0  0  0
   -4.3154   15.6457   27.3606 H   0  0  0  0  0  0  0  0  0  0  0  0
   -3.6784   16.8728   28.6389 H   0  0  0  0  0  0  0  0  0  0  0  0
   -5.5466   17.2321   29.1981 H   0  0  0  0  0  0  0  0  0  0  0  0
   -6.1796   16.1844   27.7663 H   0  0  0  0  0  0  0  0  0  0  0  0
  -13.3400   16.6546   34.3588 H   0  0  0  0  0  0  0  0  0  0  0  0
  -11.0833   16.7602   32.5717 H   0  0  0  0  0  0  0  0  0  0  0  0
  -11.1002   14.5239   31.3089 H   0  0  0  0  0  0  0  0  0  0  0  0
  -12.1619   15.7239   30.6154 H   0  0  0  0  0  0  0  0  0  0  0  0
  -10.3972   15.0454   28.5625 H   0  0  0  0  0  0  0  0  0  0  0  0
   -8.5816   15.1939   33.2684 H   0  0  0  0  0  0  0  0  0  0  0  0
   -7.7890   17.8391   33.2203 H   0  0  0  0  0  0  0  0  0  0  0  0
   -7.5694   16.6731   31.8717 H   0  0  0  0  0  0  0  0  0  0  0  0
   -8.9746   17.7919   31.8717 H   0  0  0  0  0  0  0  0  0  0  0  0
   -9.0302   15.8710   35.4284 H   0  0  0  0  0  0  0  0  0  0  0  0
   -8.7514   17.5577   34.8771 H   0  0  0  0  0  0  0  0  0  0  0  0
  -10.4133   16.8759   34.8771 H   0  0  0  0  0  0  0  0  0  0  0  0
   -9.1415   14.0635   31.6510 H   0  0  0  0  0  0  0  0  0  0  0  0
  -11.7283   10.6515   29.2773 H   0  0  0  0  0  0  0  0  0  0  0  0
  -13.4216   10.6533   28.4575 H   0  0  0  0  0  0  0  0  0  0  0  0
  -14.2700   10.4898   30.2495 H   0  0  0  0  0  0  0  0  0  0  0  0
  -12.5958   10.7113   31.0695 H   0  0  0  0  0  0  0  0  0  0  0  0
  -14.8618   12.2387   31.1436 H   0  0  0  0  0  0  0  0  0  0  0  0
  -13.1497   12.3532   31.9071 H   0  0  0  0  0  0  0  0  0  0  0  0
  -14.4954   14.0281   30.2226 H   0  0  0  0  0  0  0  0  0  0  0  0
  -12.7967   14.0218   31.0418 H   0  0  0  0  0  0  0  0  0  0  0  0
  -11.8853   13.6549   29.6241 H   0  0  0  0  0  0  0  0  0  0  0  0
  -11.3621   12.4448   28.3599 H   0  0  0  0  0  0  0  0  0  0  0  0
  -13.0818   12.3307   27.6011 H   0  0  0  0  0  0  0  0  0  0  0  0
  -13.4273   15.5783   28.6950 H   0  0  0  0  0  0  0  0  0  0  0  0
  -12.4849   14.6644   27.3750 H   0  0  0  0  0  0  0  0  0  0  0  0
  -11.3417   16.6703   26.9212 H   0  0  0  0  0  0  0  0  0  0  0  0
  -12.1398   17.5178   28.3954 H   0  0  0  0  0  0  0  0  0  0  0  0
  -10.0257   18.1784   29.1844 H   0  0  0  0  0  0  0  0  0  0  0  0
   -8.4472   16.5676   28.3061 H   0  0  0  0  0  0  0  0  0  0  0  0
   -9.7475   17.1288   25.9888 H   0  0  0  0  0  0  0  0  0  0  0  0
   -9.2547   15.4607   25.8544 H   0  0  0  0  0  0  0  0  0  0  0  0
   -7.4457   15.4450   23.7884 H   0  0  0  0  0  0  0  0  0  0  0  0
   -9.2171   15.1045   23.9837 H   0  0  0  0  0  0  0  0  0  0  0  0
   -7.7544   16.2305   22.3435 H   0  0  0  0  0  0  0  0  0  0  0  0
  -10.6640   19.8232   27.8222 H   0  0  0  0  0  0  0  0  0  0  0  0
   -7.6323   18.8128   28.9836 H   0  0  0  0  0  0  0  0  0  0  0  0
   -7.9161   19.3881   27.2630 H   0  0  0  0  0  0  0  0  0  0  0  0
   -7.8505   15.2086   27.3550 H   0  0  0  0  0  0  0  0  0  0  0  0
   -9.6107   17.5919   21.0746 H   0  0  0  0  0  0  0  0  0  0  0  0
   -8.4776   15.7725   19.4276 H   0  0  0  0  0  0  0  0  0  0  0  0
   -9.3356   17.4527   19.3801 H   0  0  0  0  0  0  0  0  0  0  0  0
   -6.7237   16.7427   19.0505 H   0  0  0  0  0  0  0  0  0  0  0  0
   -7.6987   18.3530   19.0214 H   0  0  0  0  0  0  0  0  0  0  0  0
   -5.6229   17.5224   20.5827 H   0  0  0  0  0  0  0  0  0  0  0  0
   -6.6692   19.0810   20.4534 H   0  0  0  0  0  0  0  0  0  0  0  0
   -6.5137   16.9182   22.0603 H   0  0  0  0  0  0  0  0  0  0  0  0
   -6.6532   18.1555   24.0371 H   0  0  0  0  0  0  0  0  0  0  0  0
   -5.2018   18.0797   22.9814 H   0  0  0  0  0  0  0  0  0  0  0  0
   -6.2368   19.5479   22.9814 H   0  0  0  0  0  0  0  0  0  0  0  0
  -10.5604   15.8116   22.4622 H   0  0  0  0  0  0  0  0  0  0  0  0
  -11.1924   16.4881   20.9228 H   0  0  0  0  0  0  0  0  0  0  0  0
  -10.3211   14.9173   20.9228 H   0  0  0  0  0  0  0  0  0  0  0  0
  -10.9526   13.2956   35.8455 H   0  0  0  0  0  0  0  0  0  0  0  0
  -10.9706   11.7240   34.9786 H   0  0  0  0  0  0  0  0  0  0  0  0
  2  3  1  0
  3  4  1  0
  1  5  1  0
  4  5  1  0
  6  7  1  0
  7  8  1  0
  8  9  1  0
  9 10  1  0
  6 11  1  0
 10 11  1  0
  4 12  1  0
  3 13  1  0
 13 14  1  0
 14 15  1  0
 15 16  1  0
 13 17  1  0
 17 18  1  0
 17 19  1  0
 14 20  1  0
 21 22  1  0
 22 23  1  0
 23 24  1  0
 24 25  1  0
 21 26  1  0
 25 26  1  0
 16 27  1  0
 25 27  1  0
 16 28  1  0
 28 29  1  0
 29 30  1  0
 30 31  1  0
 31 32  1  0
 32 33  1  0
 33 34  1  0
 34 35  1  0
 29 36  1  0
  6 37  1  0
 30 37  1  0
 32 38  1  0
 35 39  1  0
 39 40  1  0
 40 41  1  0
 41 42  1  0
 35 43  1  0
 42 43  1  0
 43 44  1  0
 39 45  1  0
  1 46  1  0
  2 46  1  0
  1 47  1  0
  1 48  1  0
  2 49  1  0
  2 50  1  0
  4 51  1  0
  5 52  1  0
  6 53  1  0
  7 54  1  0
  7 55  1  0
  8 56  1  0
  8 57  1  0
  9 58  1  0
  9 59  1  0
 10 60  1  0
 10 61  1  0
 11 62  1  0
 11 63  1  0
 12 64  1  0
 13 65  1  6
 14 66  1  0
 15 67  1  0
 16 68  1  6
 17 69  1  1
 18 70  1  0
 18 71  1  0
 18 72  1  0
 19 73  1  0
 19 74  1  0
 19 75  1  0
 20 76  1  0
 21 77  1  0
 21 78  1  0
 22 79  1  0
 22 80  1  0
 23 81  1  0
 23 82  1  0
 24 83  1  0
 24 84  1  0
 25 85  1  0
 26 86  1  0
 26 87  1  0
 27 88  1  0
 27 89  1  0
 28 90  1  0
 28 91  1  0
 29 92  1  1
 30 93  1  1
 31 94  1  0
 32 95  1  0
 33 96  1  0
 33 97  1  0
 35 98  1  0
 36 99  1  0
 37100  1  0
 37101  1  0
 38102  1  0
 39103  1  0
 40104  1  0
 40105  1  0
 41106  1  0
 41107  1  0
 42108  1  0
 42109  1  0
 43110  1  0
 44111  1  0
 44112  1  0
 44113  1  0
 45114  1  0
 45115  1  0
 45116  1  0
 46117  1  0
 46118  1  0
M  END
>  <PDBID>  (1) 
1MUI

>  <PDB ID>  (1) 
1MUI

>  <Generic Name>  (1) 
Lopinavir

>  <Brand Name>  (1) 
Kaletra#Lopinavir-ritonavir#Aluviran#Koletra

>  <DrugBank ID>  (1) 
DB01601

>  <ATC Codes>  (1) 
J05AR10

>  <Ligand ID>  (1) 
AB1

>  <Target Name>  (1) 
Pol polyprotein

>  <UniProt ID>  (1) 
Q72874

>  <PDB ID.1>  (1) 
1MUI

>  <Seq. Identity>  (1) 
99%

$$$$
