PDB_DB00412_98
     RDKit          3D

 44 46  0  0  0  0  0  0  0  0999 V2000
   33.2740   -2.1370   27.6560 S   0  0  0  0  0  0  0  0  0  0  0  0
   34.7450   -3.9680   28.8790 O   0  0  0  0  0  0  0  0  0  0  0  0
   32.6000   -4.8780   25.0490 O   0  0  0  0  0  0  0  0  0  0  0  0
   30.5660    3.5910   25.8980 O   0  0  0  0  0  0  0  0  0  0  0  0
   33.7730   -4.6340   26.9640 N   0  0  0  0  0  0  0  0  0  0  0  0
   28.8930    5.0360   28.2980 N   0  0  0  0  0  0  0  0  0  0  0  0
   26.7060    3.6320   28.3980 N   0  0  0  0  0  0  0  0  0  0  0  0
   34.0440   -3.7150   27.8970 C   0  0  0  0  0  0  0  0  0  0  0  0
   32.9600   -4.1540   25.9690 C   0  0  0  0  0  0  0  0  0  0  0  0
   32.4730   -2.6660   26.1070 C   0  0  2  0  0  0  0  0  0  0  0  0
   32.9140   -1.6840   24.8510 C   0  0  0  0  0  0  0  0  0  0  0  0
   32.2820   -0.2640   25.0220 C   0  0  0  0  0  0  0  0  0  0  0  0
   30.9410    0.0080   24.5450 C   0  0  0  0  0  0  0  0  0  0  0  0
   30.3320    1.2760   24.7730 C   0  0  0  0  0  0  0  0  0  0  0  0
   31.0630    2.3130   25.5140 C   0  0  0  0  0  0  0  0  0  0  0  0
   32.4000    2.0510   25.9500 C   0  0  0  0  0  0  0  0  0  0  0  0
   33.0030    0.7900   25.7130 C   0  0  0  0  0  0  0  0  0  0  0  0
   29.1160    3.7690   26.0650 C   0  0  0  0  0  0  0  0  0  0  0  0
   28.8850    5.1300   26.7750 C   0  0  0  0  0  0  0  0  0  0  0  0
   30.0090    5.7310   29.0460 C   0  0  0  0  0  0  0  0  0  0  0  0
   27.7710    4.2640   29.0830 C   0  0  0  0  0  0  0  0  0  0  0  0
   25.7270    2.9500   29.0790 C   0  0  0  0  0  0  0  0  0  0  0  0
   25.7180    2.8630   30.4960 C   0  0  0  0  0  0  0  0  0  0  0  0
   26.7610    3.4660   31.2350 C   0  0  0  0  0  0  0  0  0  0  0  0
   27.7850    4.1660   30.5550 C   0  0  0  0  0  0  0  0  0  0  0  0
   34.1355   -5.5978   26.9898 H   0  0  0  0  0  0  0  0  0  0  0  0
   31.3751   -2.5981   26.1038 H   0  0  0  0  0  0  0  0  0  0  0  0
   34.0100   -1.5928   24.8296 H   0  0  0  0  0  0  0  0  0  0  0  0
   32.5531   -2.1244   23.9098 H   0  0  0  0  0  0  0  0  0  0  0  0
   30.3877   -0.7720   24.0015 H   0  0  0  0  0  0  0  0  0  0  0  0
   29.3186    1.4776   24.3957 H   0  0  0  0  0  0  0  0  0  0  0  0
   32.9656    2.8354   26.4742 H   0  0  0  0  0  0  0  0  0  0  0  0
   34.0316    0.6075   26.0575 H   0  0  0  0  0  0  0  0  0  0  0  0
   28.6233    3.7714   25.0815 H   0  0  0  0  0  0  0  0  0  0  0  0
   28.6937    2.9471   26.6618 H   0  0  0  0  0  0  0  0  0  0  0  0
   27.9097    5.5268   26.4566 H   0  0  0  0  0  0  0  0  0  0  0  0
   29.7191    5.7877   26.4889 H   0  0  0  0  0  0  0  0  0  0  0  0
   29.8442    5.6284   30.1287 H   0  0  0  0  0  0  0  0  0  0  0  0
   30.9720    5.2726   28.7766 H   0  0  0  0  0  0  0  0  0  0  0  0
   30.0224    6.7974   28.7766 H   0  0  0  0  0  0  0  0  0  0  0  0
   24.9259    2.4564   28.5092 H   0  0  0  0  0  0  0  0  0  0  0  0
   24.9065    2.3310   31.0141 H   0  0  0  0  0  0  0  0  0  0  0  0
   26.7764    3.3914   32.3324 H   0  0  0  0  0  0  0  0  0  0  0  0
   28.5963    4.6399   31.1270 H   0  0  0  0  0  0  0  0  0  0  0  0
  1  8  1  0
  2  8  2  0
  5  8  1  0
  3  9  2  0
  5  9  1  0
  1 10  1  0
  9 10  1  0
 10 11  1  0
 11 12  1  0
 12 13  2  0
 13 14  1  0
  4 15  1  0
 14 15  2  0
 15 16  1  0
 12 17  1  0
 16 17  2  0
  4 18  1  0
  6 19  1  0
 18 19  1  0
  6 20  1  0
  6 21  1  0
  7 21  2  0
  7 22  1  0
 22 23  2  0
 23 24  1  0
 21 25  1  0
 24 25  2  0
  5 26  1  0
 10 27  1  1
 11 28  1  0
 11 29  1  0
 13 30  1  0
 14 31  1  0
 16 32  1  0
 17 33  1  0
 18 34  1  0
 18 35  1  0
 19 36  1  0
 19 37  1  0
 20 38  1  0
 20 39  1  0
 20 40  1  0
 22 41  1  0
 23 42  1  0
 24 43  1  0
 25 44  1  0
M  END
>  <PDBID>  (1) 
1ZGY

>  <PDB ID>  (1) 
1ZGY

>  <Generic Name>  (1) 
Rosiglitazone

>  <Brand Name>  (1) 
Apo-rosiglitazone#Avandamet#Avandaryl#Avandia#Avandia 2mg#Avandia 4mg#Avandia 8mg#Dom-rosiglitazone#Mylan-rosiglitazone#PHL-rosiglitazone#PMS-rosiglitazone#PMS-rosiglitazone-metformin#Teva-rosiglitazone#Blutab#DH-Rosidia#Diaben#Diaglinex#Gaudil#Gliximina#Naidi#Rogelin#Roglit#Romerol#Rosit#Rosix#Rossini#Sensulin#Sheng Ao#Sheng Min

>  <DrugBank ID>  (1) 
DB00412

>  <ATC Codes>  (1) 
A10BD03#A10BG02#A10BD04

>  <Ligand ID>  (1) 
BRL,RGZ

>  <Target Name>  (1) 
Peroxisome proliferator-activated receptor gamma

>  <UniProt ID>  (1) 
P37231

>  <PDB ID.1>  (1) 
1ZGY

>  <Seq. Identity>  (1) 
95%

$$$$
