PDB_DB06401_99
     RDKit          3D

 67 72  0  0  0  0  0  0  0  0999 V2000
  -10.2670  -10.0420   29.1670 C   0  0  1  0  0  0  0  0  0  0  0  0
  -10.9010   -9.8030   27.8310 C   0  0  0  0  0  0  0  0  0  0  0  0
  -10.3700   -9.0780   26.5430 C   0  0  0  0  0  0  0  0  0  0  0  0
   -9.1590   -9.7780   26.2080 C   0  0  0  0  0  0  0  0  0  0  0  0
   -8.4140   -9.3490   27.6090 C   0  0  0  0  0  0  0  0  0  0  0  0
   -8.6240   -9.5030   29.1800 C   0  0  1  0  0  0  0  0  0  0  0  0
   -9.8160   -8.9990   29.9780 N   0  0  0  0  0  0  0  0  0  0  0  0
   -9.2840   -9.4930   31.2970 C   0  0  0  0  0  0  0  0  0  0  0  0
   -8.1620  -10.5600   31.5350 C   0  0  0  0  0  0  0  0  0  0  0  0
   -6.8220  -10.3030   31.0630 O   0  0  0  0  0  0  0  0  0  0  0  0
   -6.0130   -9.5220   31.8240 C   0  0  0  0  0  0  0  0  0  0  0  0
   -6.4280   -8.9900   33.0390 C   0  0  0  0  0  0  0  0  0  0  0  0
   -5.5490   -8.2060   33.7760 C   0  0  0  0  0  0  0  0  0  0  0  0
   -4.7280   -9.2820   31.3570 C   0  0  0  0  0  0  0  0  0  0  0  0
   -3.8540   -8.4990   32.0920 C   0  0  0  0  0  0  0  0  0  0  0  0
   -4.2660   -7.9580   33.3010 C   0  0  0  0  0  0  0  0  0  0  0  0
   -3.3930   -7.1710   34.0400 C   0  0  0  0  0  0  0  0  0  0  0  0
   -2.0010   -7.2740   33.4920 N   0  0  0  0  0  0  0  0  0  0  0  0
   -1.6810   -6.2300   32.7290 C   0  0  0  0  0  0  0  0  0  0  0  0
   -2.4190   -5.1880   32.3440 C   0  0  0  0  0  0  0  0  0  0  0  0
   -1.9020   -4.2160   31.5010 C   0  0  0  0  0  0  0  0  0  0  0  0
   -0.5940   -4.3680   31.0720 C   0  0  0  0  0  0  0  0  0  0  0  0
   -0.0400   -3.4420   30.2430 O   0  0  0  0  0  0  0  0  0  0  0  0
    0.1310   -5.4770   31.5020 C   0  0  0  0  0  0  0  0  0  0  0  0
   -0.4280   -6.3770   32.3160 C   0  0  0  0  0  0  0  0  0  0  0  0
    0.0330   -7.5000   32.8610 C   0  0  0  0  0  0  0  0  0  0  0  0
    1.4720   -7.9570   32.5740 C   0  0  0  0  0  0  0  0  0  0  0  0
   -0.9080   -8.0440   33.6660 C   0  0  0  0  0  0  0  0  0  0  0  0
   -0.8690   -9.2330   34.3340 C   0  0  0  0  0  0  0  0  0  0  0  0
    0.3080   -9.8140   34.8130 C   0  0  0  0  0  0  0  0  0  0  0  0
    0.2980  -10.9980   35.5500 C   0  0  0  0  0  0  0  0  0  0  0  0
   -0.8880  -11.6340   35.8940 C   0  0  0  0  0  0  0  0  0  0  0  0
   -0.9110  -12.7950   36.6210 O   0  0  0  0  0  0  0  0  0  0  0  0
   -2.0690  -11.0520   35.4780 C   0  0  0  0  0  0  0  0  0  0  0  0
   -2.0380   -9.8620   34.7630 C   0  0  0  0  0  0  0  0  0  0  0  0
  -10.8836  -10.9259   29.3871 H   0  0  0  0  0  0  0  0  0  0  0  0
  -11.1525  -10.8136   27.4768 H   0  0  0  0  0  0  0  0  0  0  0  0
  -11.5884   -9.0073   28.1539 H   0  0  0  0  0  0  0  0  0  0  0  0
  -11.1015   -9.1535   25.7250 H   0  0  0  0  0  0  0  0  0  0  0  0
  -10.1998   -8.0039   26.7082 H   0  0  0  0  0  0  0  0  0  0  0  0
   -9.2978  -10.8641   26.1025 H   0  0  0  0  0  0  0  0  0  0  0  0
   -8.6625   -9.5469   25.2540 H   0  0  0  0  0  0  0  0  0  0  0  0
   -7.4160   -9.7914   27.4741 H   0  0  0  0  0  0  0  0  0  0  0  0
   -8.8433   -8.3364   27.5936 H   0  0  0  0  0  0  0  0  0  0  0  0
   -7.5709   -9.5796   29.4884 H   0  0  0  0  0  0  0  0  0  0  0  0
   -8.9252   -8.5891   31.8111 H   0  0  0  0  0  0  0  0  0  0  0  0
  -10.1532  -10.0842   31.6209 H   0  0  0  0  0  0  0  0  0  0  0  0
   -8.0937  -10.7148   32.6219 H   0  0  0  0  0  0  0  0  0  0  0  0
   -8.4888  -11.4169   30.9276 H   0  0  0  0  0  0  0  0  0  0  0  0
   -7.4431   -9.1878   33.4138 H   0  0  0  0  0  0  0  0  0  0  0  0
   -5.8692   -7.7801   34.7384 H   0  0  0  0  0  0  0  0  0  0  0  0
   -4.4029   -9.7154   30.3997 H   0  0  0  0  0  0  0  0  0  0  0  0
   -2.8373   -8.3068   31.7188 H   0  0  0  0  0  0  0  0  0  0  0  0
   -3.7234   -6.1228   33.9942 H   0  0  0  0  0  0  0  0  0  0  0  0
   -3.3920   -7.5231   35.0821 H   0  0  0  0  0  0  0  0  0  0  0  0
   -3.4555   -5.0981   32.7013 H   0  0  0  0  0  0  0  0  0  0  0  0
   -2.5090   -3.3550   31.1843 H   0  0  0  0  0  0  0  0  0  0  0  0
    0.8949   -3.5492   29.9355 H   0  0  0  0  0  0  0  0  0  0  0  0
    1.1706   -5.6127   31.1692 H   0  0  0  0  0  0  0  0  0  0  0  0
    1.9999   -8.1247   33.5244 H   0  0  0  0  0  0  0  0  0  0  0  0
    1.4512   -8.8927   31.9961 H   0  0  0  0  0  0  0  0  0  0  0  0
    1.9949   -7.1807   31.9961 H   0  0  0  0  0  0  0  0  0  0  0  0
    1.2699   -9.3236   34.6028 H   0  0  0  0  0  0  0  0  0  0  0  0
    1.2542  -11.4397   35.8671 H   0  0  0  0  0  0  0  0  0  0  0  0
   -1.7759  -13.2201   36.8476 H   0  0  0  0  0  0  0  0  0  0  0  0
   -3.0318  -11.5297   35.7123 H   0  0  0  0  0  0  0  0  0  0  0  0
   -2.9981   -9.3840   34.5189 H   0  0  0  0  0  0  0  0  0  0  0  0
  1  2  1  0
  2  3  1  0
  3  4  1  0
  4  5  1  0
  5  6  1  0
  6  1  1  0
  1  7  1  0
  6  7  1  0
  7  8  1  0
  8  9  1  0
  9 10  1  0
 10 11  1  0
 11 12  2  0
 12 13  1  0
 11 14  1  0
 14 15  2  0
 13 16  2  0
 15 16  1  0
 16 17  1  0
 17 18  1  0
 18 19  1  0
 19 20  2  0
 20 21  1  0
 21 22  2  0
 22 23  1  0
 22 24  1  0
 19 25  1  0
 24 25  2  0
 25 26  1  0
 26 27  1  0
 18 28  1  0
 26 28  2  0
 28 29  1  0
 29 30  2  0
 30 31  1  0
 31 32  2  0
 32 33  1  0
 32 34  1  0
 29 35  1  0
 34 35  2  0
  1 36  1  1
  2 37  1  0
  2 38  1  0
  3 39  1  0
  3 40  1  0
  4 41  1  0
  4 42  1  0
  5 43  1  0
  5 44  1  0
  6 45  1  1
  8 46  1  0
  8 47  1  0
  9 48  1  0
  9 49  1  0
 12 50  1  0
 13 51  1  0
 14 52  1  0
 15 53  1  0
 17 54  1  0
 17 55  1  0
 20 56  1  0
 21 57  1  0
 23 58  1  0
 24 59  1  0
 27 60  1  0
 27 61  1  0
 27 62  1  0
 30 63  1  0
 31 64  1  0
 33 65  1  0
 34 66  1  0
 35 67  1  0
M  END
$$$$
