PDB_DB08915_98
     RDKit          3D

 74 77  0  0  0  0  0  0  0  0999 V2000
    8.6760   27.4020   16.8050 C   0  0  0  0  0  0  0  0  0  0  0  0
    8.0010   26.0540   16.6370 C   0  0  0  0  0  0  0  0  0  0  0  0
    7.7850   25.6650   15.3460 O   0  0  0  0  0  0  0  0  0  0  0  0
    7.2280   24.4250   15.4530 C   0  0  0  0  0  0  0  0  0  0  0  0
    6.8410   23.5540   14.2800 C   0  0  0  0  0  0  0  0  0  0  0  0
    6.1470   22.3510   14.5440 C   0  0  0  0  0  0  0  0  0  0  0  0
    5.7850   21.5090   13.4830 C   0  0  0  0  0  0  0  0  0  0  0  0
    6.1150   21.8640   12.1420 C   0  0  0  0  0  0  0  0  0  0  0  0
    6.8080   23.0710   11.8810 C   0  0  0  0  0  0  0  0  0  0  0  0
    7.1610   23.9060   12.9700 C   0  0  0  0  0  0  0  0  0  0  0  0
    7.0920   24.0920   16.7170 N   0  0  0  0  0  0  0  0  0  0  0  0
    7.5200   25.0790   17.4540 C   0  0  0  0  0  0  0  0  0  0  0  0
    7.3280   24.8050   18.9150 C   0  0  0  0  0  0  0  0  0  0  0  0
    7.3100   25.9360   19.7640 C   0  0  0  0  0  0  0  0  0  0  0  0
    6.4130   26.9610   19.3420 O   0  0  0  0  0  0  0  0  0  0  0  0
    5.1160   27.2920   19.7290 C   0  0  0  0  0  0  0  0  0  0  0  0
    4.0430   26.4380   20.0400 C   0  0  0  0  0  0  0  0  0  0  0  0
    2.7830   26.9990   20.3740 C   0  0  0  0  0  0  0  0  0  0  0  0
    4.9770   28.6840   19.7630 C   0  0  0  0  0  0  0  0  0  0  0  0
    6.0040   29.6560   19.5620 C   0  0  0  0  0  0  0  0  0  0  0  0
    5.5570   30.9400   19.6120 C   0  0  0  0  0  0  0  0  0  0  0  0
    3.7380   29.2420   20.0230 C   0  0  0  0  0  0  0  0  0  0  0  0
    3.8430   30.9980   19.8180 S   0  0  0  0  0  0  0  0  0  0  0  0
    2.6360   28.3910   20.4070 C   0  0  0  0  0  0  0  0  0  0  0  0
    1.3790   29.0180   20.8410 C   0  0  0  0  0  0  0  0  0  0  0  0
    0.4490   29.2260   19.6160 C   0  0  2  0  0  0  0  0  0  0  0  0
    0.9730   30.2260   18.7800 O   0  0  0  0  0  0  0  0  0  0  0  0
    0.5930   30.0560   17.4000 C   0  0  0  0  0  0  0  0  0  0  0  0
   -0.9340   29.5870   20.0830 C   0  0  0  0  0  0  0  0  0  0  0  0
   -1.3170   30.7370   19.9340 O   0  0  0  0  0  0  0  0  0  0  0  0
   -1.6310   28.7040   20.6010 O   0  0  0  0  0  0  0  0  0  0  0  0
    8.7877   27.6251   17.8763 H   0  0  0  0  0  0  0  0  0  0  0  0
    9.6680   27.3771   16.3303 H   0  0  0  0  0  0  0  0  0  0  0  0
    8.0618   28.1813   16.3303 H   0  0  0  0  0  0  0  0  0  0  0  0
    7.0167   26.5448   16.6538 H   0  0  0  0  0  0  0  0  0  0  0  0
    6.2245   24.8755   15.4496 H   0  0  0  0  0  0  0  0  0  0  0  0
    7.7988   23.0192   14.3611 H   0  0  0  0  0  0  0  0  0  0  0  0
    6.7821   21.7583   15.2188 H   0  0  0  0  0  0  0  0  0  0  0  0
    5.1796   22.6955   14.9382 H   0  0  0  0  0  0  0  0  0  0  0  0
    6.2557   20.5340   13.6776 H   0  0  0  0  0  0  0  0  0  0  0  0
    4.6859   21.5531   13.4912 H   0  0  0  0  0  0  0  0  0  0  0  0
    6.7345   21.0485   11.7405 H   0  0  0  0  0  0  0  0  0  0  0  0
    5.1331   22.0290   11.6743 H   0  0  0  0  0  0  0  0  0  0  0  0
    7.7411   22.8025   11.3641 H   0  0  0  0  0  0  0  0  0  0  0  0
    6.0869   23.6725   11.3082 H   0  0  0  0  0  0  0  0  0  0  0  0
    6.6856   24.8803   12.7834 H   0  0  0  0  0  0  0  0  0  0  0  0
    8.2597   23.8531   12.9679 H   0  0  0  0  0  0  0  0  0  0  0  0
    6.0995   23.9095   16.9232 H   0  0  0  0  0  0  0  0  0  0  0  0
    6.5219   25.5399   17.4164 H   0  0  0  0  0  0  0  0  0  0  0  0
    6.3691   24.2796   19.0350 H   0  0  0  0  0  0  0  0  0  0  0  0
    8.2063   24.2188   19.2231 H   0  0  0  0  0  0  0  0  0  0  0  0
    7.0125   25.6084   20.7711 H   0  0  0  0  0  0  0  0  0  0  0  0
    8.3214   26.3679   19.7420 H   0  0  0  0  0  0  0  0  0  0  0  0
    4.8035   27.3006   18.6744 H   0  0  0  0  0  0  0  0  0  0  0  0
    3.8842   25.7906   19.1650 H   0  0  0  0  0  0  0  0  0  0  0  0
    4.3634   25.9452   20.9698 H   0  0  0  0  0  0  0  0  0  0  0  0
    2.0581   26.6178   19.6397 H   0  0  0  0  0  0  0  0  0  0  0  0
    2.6354   26.6983   21.4218 H   0  0  0  0  0  0  0  0  0  0  0  0
    5.1927   28.6792   20.8416 H   0  0  0  0  0  0  0  0  0  0  0  0
    6.7665   29.5227   20.3435 H   0  0  0  0  0  0  0  0  0  0  0  0
    6.4073   29.4943   18.5515 H   0  0  0  0  0  0  0  0  0  0  0  0
    6.0375   31.4544   20.4573 H   0  0  0  0  0  0  0  0  0  0  0  0
    5.8103   31.4339   18.6623 H   0  0  0  0  0  0  0  0  0  0  0  0
    4.0090   29.3496   21.0836 H   0  0  0  0  0  0  0  0  0  0  0  0
    2.9892   28.4036   21.4487 H   0  0  0  0  0  0  0  0  0  0  0  0
    0.8792   28.3669   21.5733 H   0  0  0  0  0  0  0  0  0  0  0  0
    1.5978   29.9923   21.3023 H   0  0  0  0  0  0  0  0  0  0  0  0
    0.3890   28.2913   19.0392 H   0  0  0  0  0  0  0  0  0  0  0  0
   -0.4100   29.6073   17.3485 H   0  0  0  0  0  0  0  0  0  0  0  0
    0.5827   31.0353   16.8992 H   0  0  0  0  0  0  0  0  0  0  0  0
    1.3163   29.3956   16.8992 H   0  0  0  0  0  0  0  0  0  0  0  0
   -0.5314   29.8493   21.0725 H   0  0  0  0  0  0  0  0  0  0  0  0
   -1.4565   31.1558   20.8201 H   0  0  0  0  0  0  0  0  0  0  0  0
   -1.5748   28.7752   21.5868 H   0  0  0  0  0  0  0  0  0  0  0  0
  1  2  1  0
  2  3  1  0
  3  4  1  0
  4  5  1  0
  5  6  1  0
  6  7  1  0
  7  8  1  0
  8  9  1  0
  5 10  1  0
  9 10  1  0
  4 11  1  0
  2 12  1  0
 11 12  1  0
 12 13  1  0
 13 14  1  0
 14 15  1  0
 15 16  1  0
 16 17  1  0
 17 18  1  0
 16 19  1  0
 19 20  1  0
 20 21  1  0
 19 22  1  0
 21 23  1  0
 22 23  1  0
 18 24  1  0
 22 24  1  0
 24 25  1  0
 25 26  1  0
 26 27  1  0
 27 28  1  0
 26 29  1  0
 29 30  1  0
 29 31  1  0
  1 32  1  0
  1 33  1  0
  1 34  1  0
  2 35  1  0
  4 36  1  0
  5 37  1  0
  6 38  1  0
  6 39  1  0
  7 40  1  0
  7 41  1  0
  8 42  1  0
  8 43  1  0
  9 44  1  0
  9 45  1  0
 10 46  1  0
 10 47  1  0
 11 48  1  0
 12 49  1  0
 13 50  1  0
 13 51  1  0
 14 52  1  0
 14 53  1  0
 16 54  1  0
 17 55  1  0
 17 56  1  0
 18 57  1  0
 18 58  1  0
 19 59  1  0
 20 60  1  0
 20 61  1  0
 21 62  1  0
 21 63  1  0
 22 64  1  0
 24 65  1  0
 25 66  1  0
 25 67  1  0
 26 68  1  6
 28 69  1  0
 28 70  1  0
 28 71  1  0
 29 72  1  0
 30 73  1  0
 31 74  1  0
M  END
>  <PDBID>  (1) 
3G9E

>  <PDB ID>  (1) 
3G9E

>  <Generic Name>  (1) 
Aleglitazar

>  <Brand Name>  (1) 
nan

>  <DrugBank ID>  (1) 
DB08915

>  <ATC Codes>  (1) 
nan

>  <Ligand ID>  (1) 
RO7

>  <Target Name>  (1) 
Peroxisome proliferator-activated receptor alpha

>  <UniProt ID>  (1) 
Q07869

>  <PDB ID.1>  (1) 
3G9E

>  <Seq. Identity>  (1) 
62%

$$$$
