PDB_DB04729_87
     RDKit          3D

 70 72  0  0  0  0  0  0  0  0999 V2000
  191.3660   87.4010  -10.3040 C   0  0  2  0  0  0  0  0  0  0  0  0
  192.0480   88.6360  -10.4130 O   0  0  0  0  0  0  0  0  0  0  0  0
  190.0430   87.6730   -9.5350 C   0  0  2  0  0  0  0  0  0  0  0  0
  189.3530   88.8050  -10.1720 N   0  0  0  0  0  0  0  0  0  0  0  0
  190.3580   88.0330   -8.0750 C   0  0  0  0  0  0  0  0  0  0  0  0
  191.2040   86.9350   -7.4550 C   0  0  0  0  0  0  0  0  0  0  0  0
  192.4810   86.7840   -8.2880 C   0  0  2  0  0  0  0  0  0  0  0  0
  192.1930   86.4840   -9.6510 O   0  0  0  0  0  0  0  0  0  0  0  0
  193.3460   85.6440   -7.6690 C   0  0  0  0  0  0  0  0  0  0  0  0
  194.4860   85.4730   -8.5790 N   0  0  0  0  0  0  0  0  0  0  0  0
  194.4890   90.7600  -13.1220 C   0  0  2  0  0  0  0  0  0  0  0  0
  195.4410   91.2250  -14.1270 N   0  0  0  0  0  0  0  0  0  0  0  0
  195.1480   90.0680  -11.9210 C   0  0  0  0  0  0  0  0  0  0  0  0
  194.1070   89.7770  -10.8290 C   0  0  2  0  0  0  0  0  0  0  0  0
  194.7760   89.2160   -9.6450 N   0  0  0  0  0  0  0  0  0  0  0  0
  193.0750   88.7570  -11.3670 C   0  0  2  0  0  0  0  0  0  0  0  0
  192.4670   89.3370  -12.6880 C   0  0  2  0  0  0  0  0  0  0  0  0
  191.5800   88.4150  -13.2240 O   0  0  0  0  0  0  0  0  0  0  0  0
  193.5290   89.7350  -13.7590 C   0  0  1  0  0  0  0  0  0  0  0  0
  192.8550   90.3680  -14.8110 O   0  0  0  0  0  0  0  0  0  0  0  0
  192.9590   89.7950  -16.0910 C   0  0  2  0  0  0  0  0  0  0  0  0
  192.7460   90.8960  -17.1490 C   0  0  2  0  0  0  0  0  0  0  0  0
  193.5330   91.9770  -16.8440 O   0  0  0  0  0  0  0  0  0  0  0  0
  191.2280   91.2890  -17.2020 C   0  0  1  0  0  0  0  0  0  0  0  0
  190.9470   92.4030  -18.1140 N   0  0  0  0  0  0  0  0  0  0  0  0
  190.3670   90.0380  -17.5800 C   0  0  1  0  0  0  0  0  0  0  0  0
  190.0530   90.1530  -18.9230 O   0  0  0  0  0  0  0  0  0  0  0  0
  191.1940   88.7470  -17.3150 C   0  0  0  0  0  0  0  0  0  0  0  0
  191.9260   88.8390  -16.1020 O   0  0  0  0  0  0  0  0  0  0  0  0
  189.1210   90.0130  -16.6800 C   0  0  0  0  0  0  0  0  0  0  0  0
  190.4850   93.5940  -17.3930 C   0  0  0  0  0  0  0  0  0  0  0  0
  191.1192   86.9676  -11.2844 H   0  0  0  0  0  0  0  0  0  0  0  0
  189.4074   86.7756   -9.5593 H   0  0  0  0  0  0  0  0  0  0  0  0
  188.9730   89.4284   -9.4454 H   0  0  0  0  0  0  0  0  0  0  0  0
  190.0195   89.3274  -10.7583 H   0  0  0  0  0  0  0  0  0  0  0  0
  190.9100   88.9839   -8.0426 H   0  0  0  0  0  0  0  0  0  0  0  0
  189.4189   88.1352   -7.5114 H   0  0  0  0  0  0  0  0  0  0  0  0
  191.4641   87.2049   -6.4208 H   0  0  0  0  0  0  0  0  0  0  0  0
  190.6454   85.9875   -7.4421 H   0  0  0  0  0  0  0  0  0  0  0  0
  193.0258   87.7394   -8.2701 H   0  0  0  0  0  0  0  0  0  0  0  0
  193.6953   85.9290   -6.6656 H   0  0  0  0  0  0  0  0  0  0  0  0
  192.7715   84.7126   -7.5576 H   0  0  0  0  0  0  0  0  0  0  0  0
  195.3475   85.3438   -8.0295 H   0  0  0  0  0  0  0  0  0  0  0  0
  194.3302   84.6460   -9.1728 H   0  0  0  0  0  0  0  0  0  0  0  0
  193.9706   91.6608  -12.7618 H   0  0  0  0  0  0  0  0  0  0  0  0
  196.2653   91.6276  -13.6587 H   0  0  0  0  0  0  0  0  0  0  0  0
  195.7337   90.4320  -14.7156 H   0  0  0  0  0  0  0  0  0  0  0  0
  195.5997   89.1212  -12.2519 H   0  0  0  0  0  0  0  0  0  0  0  0
  195.9206   90.7329  -11.5075 H   0  0  0  0  0  0  0  0  0  0  0  0
  193.5964   90.7108  -10.5509 H   0  0  0  0  0  0  0  0  0  0  0  0
  194.3333   89.5873   -8.7923 H   0  0  0  0  0  0  0  0  0  0  0  0
  194.6912   88.1896   -9.6568 H   0  0  0  0  0  0  0  0  0  0  0  0
  193.5427   87.7794  -11.5555 H   0  0  0  0  0  0  0  0  0  0  0  0
  191.9530   90.2700  -12.4138 H   0  0  0  0  0  0  0  0  0  0  0  0
  191.1189   87.9357  -12.4906 H   0  0  0  0  0  0  0  0  0  0  0  0
  194.0813   88.8531  -14.1158 H   0  0  0  0  0  0  0  0  0  0  0  0
  193.9347   89.3387  -16.3140 H   0  0  0  0  0  0  0  0  0  0  0  0
  193.0365   90.5270  -18.1437 H   0  0  0  0  0  0  0  0  0  0  0  0
  193.6002   92.0693  -15.8606 H   0  0  0  0  0  0  0  0  0  0  0  0
  190.9543   91.6411  -16.1964 H   0  0  0  0  0  0  0  0  0  0  0  0
  191.8078   92.6378  -18.6286 H   0  0  0  0  0  0  0  0  0  0  0  0
  189.1276   90.4919  -19.0177 H   0  0  0  0  0  0  0  0  0  0  0  0
  190.5082   87.8891  -17.2547 H   0  0  0  0  0  0  0  0  0  0  0  0
  191.9089   88.6189  -18.1412 H   0  0  0  0  0  0  0  0  0  0  0  0
  189.4309   90.0192  -15.6246 H   0  0  0  0  0  0  0  0  0  0  0  0
  188.5023   90.8989  -16.8857 H   0  0  0  0  0  0  0  0  0  0  0  0
  188.5383   89.1030  -16.8857 H   0  0  0  0  0  0  0  0  0  0  0  0
  190.5539   93.4165  -16.3096 H   0  0  0  0  0  0  0  0  0  0  0  0
  191.1147   94.4541  -17.6644 H   0  0  0  0  0  0  0  0  0  0  0  0
  189.4400   93.8045  -17.6644 H   0  0  0  0  0  0  0  0  0  0  0  0
  1  2  1  0
  1  3  1  0
  3  4  1  0
  3  5  1  0
  5  6  1  0
  6  7  1  0
  1  8  1  0
  7  8  1  0
  7  9  1  0
  9 10  1  0
 11 12  1  0
 11 13  1  0
 13 14  1  0
 14 15  1  0
  2 16  1  0
 14 16  1  0
 16 17  1  0
 17 18  1  0
 11 19  1  0
 17 19  1  0
 19 20  1  0
 20 21  1  0
 21 22  1  0
 22 23  1  0
 22 24  1  0
 24 25  1  0
 24 26  1  0
 26 27  1  6
 26 28  1  0
 21 29  1  0
 28 29  1  0
 26 30  1  0
 25 31  1  0
  1 32  1  6
  3 33  1  1
  4 34  1  0
  4 35  1  0
  5 36  1  0
  5 37  1  0
  6 38  1  0
  6 39  1  0
  7 40  1  6
  9 41  1  0
  9 42  1  0
 10 43  1  0
 10 44  1  0
 11 45  1  1
 12 46  1  0
 12 47  1  0
 13 48  1  0
 13 49  1  0
 14 50  1  1
 15 51  1  0
 15 52  1  0
 16 53  1  6
 17 54  1  1
 18 55  1  0
 19 56  1  6
 21 57  1  6
 22 58  1  6
 23 59  1  0
 24 60  1  1
 25 61  1  0
 27 62  1  0
 28 63  1  0
 28 64  1  0
 30 65  1  0
 30 66  1  0
 30 67  1  0
 31 68  1  0
 31 69  1  0
 31 70  1  0
M  END
>  <PDBID>  (1) 
4LF9

>  <PDB ID>  (1) 
4LF9

>  <Generic Name>  (1) 
GENTAMICIN C1A

>  <Brand Name>  (1) 
nan

>  <DrugBank ID>  (1) 
DB04729

>  <ATC Codes>  (1) 
nan

>  <Ligand ID>  (1) 
LLL

>  <Target Name>  (1) 
30S ribosomal protein S12

>  <UniProt ID>  (1) 
P0A7S3

>  <PDB ID.1>  (1) 
4LF9

>  <Seq. Identity>  (1) 
72%

$$$$
