PDB_DB08864_97
     RDKit          3D

 74 76  0  0  0  0  0  0  0  0999 V2000
   49.5500  -24.9790   37.9750 C   0  0  0  0  0  0  0  0  0  0  0  0
   52.4450  -25.5190   33.0120 N   0  0  0  0  0  0  0  0  0  0  0  0
   49.0680  -27.0160   39.1510 C   0  0  0  0  0  0  0  0  0  0  0  0
   50.3470  -27.4710   38.9030 C   0  0  0  0  0  0  0  0  0  0  0  0
   51.2370  -26.7000   38.1990 C   0  0  0  0  0  0  0  0  0  0  0  0
   50.8230  -25.4500   37.7200 C   0  0  0  0  0  0  0  0  0  0  0  0
   49.1340  -23.6300   37.4530 C   0  0  0  0  0  0  0  0  0  0  0  0
   48.6540  -25.7710   38.6920 C   0  0  0  0  0  0  0  0  0  0  0  0
   52.6030  -27.2360   37.9590 C   0  0  0  0  0  0  0  0  0  0  0  0
   51.7390  -24.6400   36.9950 N   0  0  0  0  0  0  0  0  0  0  0  0
   52.9930  -24.3760   33.4720 C   0  0  0  0  0  0  0  0  0  0  0  0
   52.7700  -24.0720   34.8210 C   0  0  0  0  0  0  0  0  0  0  0  0
   52.0090  -24.9210   35.6220 C   0  0  0  0  0  0  0  0  0  0  0  0
   51.4970  -26.0600   35.1040 N   0  0  0  0  0  0  0  0  0  0  0  0
   51.7400  -26.3220   33.8190 C   0  0  0  0  0  0  0  0  0  0  0  0
   51.2150  -27.5040   33.2200 N   0  0  0  0  0  0  0  0  0  0  0  0
   49.2330  -30.8180   34.8620 C   0  0  0  0  0  0  0  0  0  0  0  0
   49.4230  -29.7180   35.6850 C   0  0  0  0  0  0  0  0  0  0  0  0
   50.0770  -28.6010   35.1730 C   0  0  0  0  0  0  0  0  0  0  0  0
   50.5560  -28.5870   33.8680 C   0  0  1  0  0  0  0  0  0  0  0  0
   50.3450  -29.6960   33.0490 C   0  0  0  0  0  0  0  0  0  0  0  0
   49.6880  -30.7930   33.5610 C   0  0  0  0  0  0  0  0  0  0  0  0
   48.0320  -32.9930   35.7310 N   0  0  0  0  0  0  0  0  0  0  0  0
   48.5570  -32.0490   35.3610 C   0  0  0  0  0  0  0  0  0  0  0  0
   47.0570  -27.4730   40.5310 C   0  0  0  0  0  0  0  0  0  0  0  0
   48.1810  -27.9240   39.9310 C   0  0  0  0  0  0  0  0  0  0  0  0
   45.6110  -29.1410   41.9840 N   0  0  0  0  0  0  0  0  0  0  0  0
   46.2480  -28.4390   41.3350 C   0  0  0  0  0  0  0  0  0  0  0  0
   49.9096  -24.5093   38.9024 H   0  0  0  0  0  0  0  0  0  0  0  0
   51.8149  -25.2520   32.2422 H   0  0  0  0  0  0  0  0  0  0  0  0
   49.4136  -26.5555   40.0883 H   0  0  0  0  0  0  0  0  0  0  0  0
   50.8068  -27.6676   39.8827 H   0  0  0  0  0  0  0  0  0  0  0  0
   50.1789  -28.3275   38.2336 H   0  0  0  0  0  0  0  0  0  0  0  0
   50.9028  -27.1697   37.2621 H   0  0  0  0  0  0  0  0  0  0  0  0
   51.1836  -24.9762   38.6449 H   0  0  0  0  0  0  0  0  0  0  0  0
   48.9267  -22.9577   38.2986 H   0  0  0  0  0  0  0  0  0  0  0  0
   49.9439  -23.2085   36.8395 H   0  0  0  0  0  0  0  0  0  0  0  0
   48.2274  -23.7379   36.8395 H   0  0  0  0  0  0  0  0  0  0  0  0
   48.3450  -25.1898   39.5733 H   0  0  0  0  0  0  0  0  0  0  0  0
   47.8699  -26.0096   37.9583 H   0  0  0  0  0  0  0  0  0  0  0  0
   53.0957  -27.4293   38.9233 H   0  0  0  0  0  0  0  0  0  0  0  0
   52.5339  -28.1737   37.3881 H   0  0  0  0  0  0  0  0  0  0  0  0
   53.1900  -26.5015   37.3881 H   0  0  0  0  0  0  0  0  0  0  0  0
   51.3798  -23.6755   37.0360 H   0  0  0  0  0  0  0  0  0  0  0  0
   54.0804  -24.4426   33.3203 H   0  0  0  0  0  0  0  0  0  0  0  0
   52.5000  -23.5705   32.9079 H   0  0  0  0  0  0  0  0  0  0  0  0
   53.7600  -23.9959   35.2944 H   0  0  0  0  0  0  0  0  0  0  0  0
   52.1536  -23.1623   34.7703 H   0  0  0  0  0  0  0  0  0  0  0  0
   51.0975  -24.3780   35.3316 H   0  0  0  0  0  0  0  0  0  0  0  0
   51.8742  -26.8447   35.6544 H   0  0  0  0  0  0  0  0  0  0  0  0
   52.6633  -26.8492   34.1011 H   0  0  0  0  0  0  0  0  0  0  0  0
   50.5388  -27.1658   32.5205 H   0  0  0  0  0  0  0  0  0  0  0  0
   48.2682  -30.4049   34.5325 H   0  0  0  0  0  0  0  0  0  0  0  0
   48.4277  -29.3862   36.0157 H   0  0  0  0  0  0  0  0  0  0  0  0
   50.1013  -30.0868   36.4685 H   0  0  0  0  0  0  0  0  0  0  0  0
   49.3723  -27.7605   35.2564 H   0  0  0  0  0  0  0  0  0  0  0  0
   51.0004  -28.5669   35.7698 H   0  0  0  0  0  0  0  0  0  0  0  0
   51.5264  -28.9668   34.2201 H   0  0  0  0  0  0  0  0  0  0  0  0
   49.7643  -29.3493   32.1815 H   0  0  0  0  0  0  0  0  0  0  0  0
   51.3598  -30.0692   32.8465 H   0  0  0  0  0  0  0  0  0  0  0  0
   50.3773  -31.6439   33.4570 H   0  0  0  0  0  0  0  0  0  0  0  0
   48.7520  -30.7987   32.9832 H   0  0  0  0  0  0  0  0  0  0  0  0
   48.0271  -33.0018   36.7610 H   0  0  0  0  0  0  0  0  0  0  0  0
   47.0627  -33.0056   35.3829 H   0  0  0  0  0  0  0  0  0  0  0  0
   49.5354  -32.5086   35.5645 H   0  0  0  0  0  0  0  0  0  0  0  0
   47.7484  -31.4340   35.7828 H   0  0  0  0  0  0  0  0  0  0  0  0
   47.3528  -26.6555   41.2050 H   0  0  0  0  0  0  0  0  0  0  0  0
   46.3967  -27.1934   39.6968 H   0  0  0  0  0  0  0  0  0  0  0  0
   47.8652  -28.7184   39.2388 H   0  0  0  0  0  0  0  0  0  0  0  0
   48.8147  -28.1915   40.7894 H   0  0  0  0  0  0  0  0  0  0  0  0
   45.7893  -28.9445   42.9792 H   0  0  0  0  0  0  0  0  0  0  0  0
   44.6135  -28.9888   41.7773 H   0  0  0  0  0  0  0  0  0  0  0  0
   45.7232  -28.7763   40.4290 H   0  0  0  0  0  0  0  0  0  0  0  0
   47.1128  -28.6173   41.9909 H   0  0  0  0  0  0  0  0  0  0  0  0
  3  4  1  0
  4  5  1  0
  1  6  1  0
  5  6  1  0
  1  7  1  0
  1  8  1  0
  3  8  1  0
  5  9  1  0
  6 10  1  0
  2 11  1  0
 11 12  1  0
 10 13  1  0
 12 13  1  0
 13 14  1  0
  2 15  1  0
 14 15  1  0
 15 16  1  0
 17 18  1  0
 18 19  1  0
 16 20  1  0
 19 20  1  0
 20 21  1  0
 17 22  1  0
 21 22  1  0
 17 24  1  0
 23 24  1  0
  3 26  1  0
 25 26  1  0
 25 28  1  0
 27 28  1  0
  1 29  1  0
  2 30  1  0
  3 31  1  0
  4 32  1  0
  4 33  1  0
  5 34  1  0
  6 35  1  0
  7 36  1  0
  7 37  1  0
  7 38  1  0
  8 39  1  0
  8 40  1  0
  9 41  1  0
  9 42  1  0
  9 43  1  0
 10 44  1  0
 11 45  1  0
 11 46  1  0
 12 47  1  0
 12 48  1  0
 13 49  1  0
 14 50  1  0
 15 51  1  0
 16 52  1  0
 17 53  1  0
 18 54  1  0
 18 55  1  0
 19 56  1  0
 19 57  1  0
 20 58  1  1
 21 59  1  0
 21 60  1  0
 22 61  1  0
 22 62  1  0
 23 63  1  0
 23 64  1  0
 24 65  1  0
 24 66  1  0
 25 67  1  0
 25 68  1  0
 26 69  1  0
 26 70  1  0
 27 71  1  0
 27 72  1  0
 28 73  1  0
 28 74  1  0
M  END
>  <PDBID>  (1) 
4KFB

>  <PDB ID>  (1) 
4KFB

>  <Generic Name>  (1) 
Rilpivirine

>  <Brand Name>  (1) 
Complera#Edurant#Odefsey

>  <DrugBank ID>  (1) 
DB08864

>  <ATC Codes>  (1) 
nan

>  <Ligand ID>  (1) 
T27

>  <Target Name>  (1) 
Reverse transcriptase/RNaseH

>  <UniProt ID>  (1) 
Q72547

>  <PDB ID.1>  (1) 
4KFB

>  <Seq. Identity>  (1) 
95%

$$$$
