PDB_DB02546_91
     RDKit          3D

 39 39  0  0  0  0  0  0  0  0999 V2000
   22.1070   -3.7990   39.3180 O   0  0  0  0  0  0  0  0  0  0  0  0
   22.0560   -5.4300   37.3690 O   0  0  0  0  0  0  0  0  0  0  0  0
   23.1940   -4.6020   39.0790 N   0  0  0  0  0  0  0  0  0  0  0  0
   23.0800   -5.4200   38.0520 C   0  0  0  0  0  0  0  0  0  0  0  0
   24.2680   -6.3160   37.7800 C   0  0  0  0  0  0  0  0  0  0  0  0
   24.8090   -6.9080   39.0490 C   0  0  0  0  0  0  0  0  0  0  0  0
   25.8750   -7.9390   38.7440 C   0  0  0  0  0  0  0  0  0  0  0  0
   25.3340   -9.3230   39.0490 C   0  0  0  0  0  0  0  0  0  0  0  0
   26.4960  -10.2680   39.2520 C   0  0  0  0  0  0  0  0  0  0  0  0
   25.9470  -11.6310   39.6150 C   0  0  0  0  0  0  0  0  0  0  0  0
   25.2190  -12.2040   38.4210 C   0  0  0  0  0  0  0  0  0  0  0  0
   24.0070  -12.3460   38.4530 O   0  0  0  0  0  0  0  0  0  0  0  0
   26.0160  -12.4870   37.3910 N   0  0  0  0  0  0  0  0  0  0  0  0
   25.6560  -13.0430   36.1530 C   0  0  0  0  0  0  0  0  0  0  0  0
   26.5940  -12.9620   35.1300 C   0  0  0  0  0  0  0  0  0  0  0  0
   26.3340  -13.5170   33.8890 C   0  0  0  0  0  0  0  0  0  0  0  0
   25.1350  -14.1930   33.6640 C   0  0  0  0  0  0  0  0  0  0  0  0
   24.1930  -14.2830   34.6750 C   0  0  0  0  0  0  0  0  0  0  0  0
   24.4560  -13.7230   35.9170 C   0  0  0  0  0  0  0  0  0  0  0  0
   21.9764   -3.7025   40.2946 H   0  0  0  0  0  0  0  0  0  0  0  0
   24.0418   -4.5677   39.6629 H   0  0  0  0  0  0  0  0  0  0  0  0
   23.9561   -7.1304   37.1096 H   0  0  0  0  0  0  0  0  0  0  0  0
   25.0598   -5.7099   37.3155 H   0  0  0  0  0  0  0  0  0  0  0  0
   25.2459   -6.1073   39.6639 H   0  0  0  0  0  0  0  0  0  0  0  0
   23.9864   -7.3980   39.5906 H   0  0  0  0  0  0  0  0  0  0  0  0
   26.1517   -7.8784   37.6811 H   0  0  0  0  0  0  0  0  0  0  0  0
   26.7635   -7.7454   39.3630 H   0  0  0  0  0  0  0  0  0  0  0  0
   24.7226   -9.2876   39.9628 H   0  0  0  0  0  0  0  0  0  0  0  0
   24.7105   -9.6725   38.2129 H   0  0  0  0  0  0  0  0  0  0  0  0
   27.0831  -10.3392   38.3245 H   0  0  0  0  0  0  0  0  0  0  0  0
   27.1480   -9.8972   40.0566 H   0  0  0  0  0  0  0  0  0  0  0  0
   26.7746  -12.2984   39.8971 H   0  0  0  0  0  0  0  0  0  0  0  0
   25.2526  -11.5374   40.4630 H   0  0  0  0  0  0  0  0  0  0  0  0
   27.0153  -12.2722   37.5183 H   0  0  0  0  0  0  0  0  0  0  0  0
   27.5521  -12.4519   35.3086 H   0  0  0  0  0  0  0  0  0  0  0  0
   27.0734  -13.4249   33.0798 H   0  0  0  0  0  0  0  0  0  0  0  0
   24.9379  -14.6540   32.6849 H   0  0  0  0  0  0  0  0  0  0  0  0
   23.2378  -14.7976   34.4938 H   0  0  0  0  0  0  0  0  0  0  0  0
   23.7140  -13.8145   36.7239 H   0  0  0  0  0  0  0  0  0  0  0  0
  1  3  1  0
  2  4  2  0
  3  4  1  0
  4  5  1  0
  5  6  1  0
  6  7  1  0
  7  8  1  0
  8  9  1  0
  9 10  1  0
 10 11  1  0
 11 12  2  0
 11 13  1  0
 13 14  1  0
 14 15  2  0
 15 16  1  0
 16 17  2  0
 17 18  1  0
 14 19  1  0
 18 19  2  0
  1 20  1  0
  3 21  1  0
  5 22  1  0
  5 23  1  0
  6 24  1  0
  6 25  1  0
  7 26  1  0
  7 27  1  0
  8 28  1  0
  8 29  1  0
  9 30  1  0
  9 31  1  0
 10 32  1  0
 10 33  1  0
 13 34  1  0
 15 35  1  0
 16 36  1  0
 17 37  1  0
 18 38  1  0
 19 39  1  0
M  END
$$$$
