PDB_DB01361_99
     RDKit          3D

134137  0  0  0  0  0  0  0  0999 V2000
   44.3090  138.0770  123.4420 C   0  0  0  0  0  0  0  0  0  0  0  0
   43.4340  137.0550  122.8510 O   0  0  0  0  0  0  0  0  0  0  0  0
   44.1020  135.7940  122.2790 C   0  0  1  0  0  0  0  0  0  0  0  0
   43.6150  134.5000  123.0750 C   0  0  0  0  0  0  0  0  0  0  0  0
   42.9940  133.4730  122.1550 C   0  0  1  0  0  0  0  0  0  0  0  0
   44.0540  133.1890  121.2850 O   0  0  0  0  0  0  0  0  0  0  0  0
   44.2980  134.1050  120.2310 C   0  0  1  0  0  0  0  0  0  0  0  0
   43.5890  133.3920  119.0040 C   0  0  0  0  0  0  0  0  0  0  0  0
   43.9270  135.6800  120.6370 C   0  0  2  0  0  0  0  0  0  0  0  0
   44.9110  136.6430  119.9940 O   0  0  0  0  0  0  0  0  0  0  0  0
   44.3040  137.7320  119.2630 C   0  0  1  0  0  0  0  0  0  0  0  0
   43.6920  138.5310  119.8730 O   0  0  0  0  0  0  0  0  0  0  0  0
   44.6250  138.0560  117.7930 C   0  0  0  0  0  0  0  0  0  0  0  0
   42.5870  132.2170  122.7630 O   0  0  0  0  0  0  0  0  0  0  0  0
   41.3690  132.0970  123.5970 C   0  0  2  0  0  0  0  0  0  0  0  0
   40.9020  133.5550  124.5850 C   0  0  2  0  0  0  0  0  0  0  0  0
   39.7690  133.7930  125.8410 C   0  0  0  0  0  0  0  0  0  0  0  0
   40.0180  134.8390  126.5380 O   0  0  0  0  0  0  0  0  0  0  0  0
   38.5590  133.0950  126.3790 O   0  0  0  0  0  0  0  0  0  0  0  0
   38.1290  131.9280  125.8440 C   0  0  2  0  0  0  0  0  0  0  0  0
   37.8560  132.1740  124.3040 C   0  0  0  0  0  0  0  0  0  0  0  0
   36.7930  131.4390  126.3580 C   0  0  2  0  0  0  0  0  0  0  0  0
   36.7570  132.2890  127.6950 C   0  0  0  0  0  0  0  0  0  0  0  0
   36.9070  129.9980  127.0590 C   0  0  1  0  0  0  0  0  0  0  0  0
   36.4750  129.7950  128.5840 O   0  0  0  0  0  0  0  0  0  0  0  0
   37.3060  129.9110  129.8900 C   0  0  2  0  0  0  0  0  0  0  0  0
   37.4240  128.8560  130.5880 O   0  0  0  0  0  0  0  0  0  0  0  0
   37.6920  131.2160  130.5690 C   0  0  0  0  0  0  0  0  0  0  0  0
   36.3380  128.7850  126.1190 C   0  0  2  0  0  0  0  0  0  0  0  0
   37.3190  127.6280  125.8260 C   0  0  2  0  0  0  0  0  0  0  0  0
   37.0720  126.5940  126.4940 O   0  0  0  0  0  0  0  0  0  0  0  0
   38.6510  127.6180  125.1330 C   0  0  2  0  0  0  0  0  0  0  0  0
   39.4360  126.4620  125.2210 O   0  0  0  0  0  0  0  0  0  0  0  0
   39.6670  127.4490  126.2440 C   0  0  0  0  0  0  0  0  0  0  0  0
   39.1910  128.7070  124.2200 C   0  0  0  0  0  0  0  0  0  0  0  0
   40.3090  128.4650  123.3020 C   0  0  1  0  0  0  0  0  0  0  0  0
   39.6250  128.1670  121.9030 C   0  0  0  0  0  0  0  0  0  0  0  0
   41.0390  129.6890  122.9510 C   0  0  2  0  0  0  0  0  0  0  0  0
   42.0240  129.4510  121.8170 O   0  0  0  0  0  0  0  0  0  0  0  0
   43.5320  128.7750  121.8090 C   0  0  2  0  0  0  0  0  0  0  0  0
   44.1810  129.5500  120.7930 O   0  0  0  0  0  0  0  0  0  0  0  0
   45.5990  129.2620  120.6170 C   0  0  2  0  0  0  0  0  0  0  0  0
   46.1770  130.3030  119.6690 C   0  0  0  0  0  0  0  0  0  0  0  0
   45.8400  127.8640  119.9940 C   0  0  0  0  0  0  0  0  0  0  0  0
   45.2780  126.7780  120.9350 C   0  0  2  0  0  0  0  0  0  0  0  0
   45.4780  125.3860  120.2880 N   0  0  0  0  0  0  0  0  0  0  0  0
   46.4660  125.4090  119.2250 C   0  0  0  0  0  0  0  0  0  0  0  0
   46.0550  124.4060  121.2820 C   0  0  0  0  0  0  0  0  0  0  0  0
   43.7150  127.1670  121.2410 C   0  0  1  0  0  0  0  0  0  0  0  0
   43.1440  126.1150  122.1230 O   0  0  0  0  0  0  0  0  0  0  0  0
   43.5970  126.0070  123.5740 C   0  0  2  0  0  0  0  0  0  0  0  0
   44.8090  125.9100  123.7940 O   0  0  0  0  0  0  0  0  0  0  0  0
   42.6500  125.7920  124.7770 C   0  0  0  0  0  0  0  0  0  0  0  0
   41.4680  130.5890  124.2130 C   0  0  1  0  0  0  0  0  0  0  0  0
   42.7790  130.2310  125.0150 C   0  0  0  0  0  0  0  0  0  0  0  0
   35.7580  129.2450  124.7550 C   0  0  0  0  0  0  0  0  0  0  0  0
   40.6940  134.7900  123.6110 C   0  0  0  0  0  0  0  0  0  0  0  0
   44.2561  138.0152  124.5390 H   0  0  0  0  0  0  0  0  0  0  0  0
   45.3452  137.9063  123.1147 H   0  0  0  0  0  0  0  0  0  0  0  0
   43.9807  139.0746  123.1147 H   0  0  0  0  0  0  0  0  0  0  0  0
   45.1883  135.8708  122.4345 H   0  0  0  0  0  0  0  0  0  0  0  0
   44.4803  134.0471  123.5811 H   0  0  0  0  0  0  0  0  0  0  0  0
   42.8507  134.8139  123.8012 H   0  0  0  0  0  0  0  0  0  0  0  0
   42.0642  133.8792  121.7303 H   0  0  0  0  0  0  0  0  0  0  0  0
   45.3484  134.2942  119.9646 H   0  0  0  0  0  0  0  0  0  0  0  0
   42.8595  132.6584  119.3778 H   0  0  0  0  0  0  0  0  0  0  0  0
   43.0711  134.1449  118.3917 H   0  0  0  0  0  0  0  0  0  0  0  0
   44.3448  132.8783  118.3917 H   0  0  0  0  0  0  0  0  0  0  0  0
   42.9112  135.9314  120.2981 H   0  0  0  0  0  0  0  0  0  0  0  0
   43.6660  136.9331  118.8572 H   0  0  0  0  0  0  0  0  0  0  0  0
   43.8146  138.3710  120.8423 H   0  0  0  0  0  0  0  0  0  0  0  0
   45.3986  138.8368  117.7501 H   0  0  0  0  0  0  0  0  0  0  0  0
   44.9909  137.1492  117.2891 H   0  0  0  0  0  0  0  0  0  0  0  0
   43.7149  138.4135  117.2891 H   0  0  0  0  0  0  0  0  0  0  0  0
   40.4146  132.1622  123.0540 H   0  0  0  0  0  0  0  0  0  0  0  0
   41.7559  133.3684  125.2529 H   0  0  0  0  0  0  0  0  0  0  0  0
   40.3940  133.1927  126.5185 H   0  0  0  0  0  0  0  0  0  0  0  0
   39.9646  134.6145  127.5007 H   0  0  0  0  0  0  0  0  0  0  0  0
   38.9091  131.1943  126.0953 H   0  0  0  0  0  0  0  0  0  0  0  0
   37.0434  132.9063  124.1881 H   0  0  0  0  0  0  0  0  0  0  0  0
   38.7687  132.5606  123.8270 H   0  0  0  0  0  0  0  0  0  0  0  0
   37.5662  131.2261  123.8270 H   0  0  0  0  0  0  0  0  0  0  0  0
   36.0192  131.4700  125.5768 H   0  0  0  0  0  0  0  0  0  0  0  0
   36.7857  131.6115  128.5611 H   0  0  0  0  0  0  0  0  0  0  0  0
   37.6275  132.9608  127.7260 H   0  0  0  0  0  0  0  0  0  0  0  0
   35.8328  132.8848  127.7260 H   0  0  0  0  0  0  0  0  0  0  0  0
   38.0024  129.9522  127.1486 H   0  0  0  0  0  0  0  0  0  0  0  0
   38.1416  130.1194  129.2056 H   0  0  0  0  0  0  0  0  0  0  0  0
   37.3976  129.0916  131.5492 H   0  0  0  0  0  0  0  0  0  0  0  0
   37.6537  131.0866  131.6607 H   0  0  0  0  0  0  0  0  0  0  0  0
   38.7120  131.4979  130.2687 H   0  0  0  0  0  0  0  0  0  0  0  0
   36.9895  132.0074  130.2687 H   0  0  0  0  0  0  0  0  0  0  0  0
   35.5365  128.4051  126.7696 H   0  0  0  0  0  0  0  0  0  0  0  0
   37.0999  127.9496  124.7971 H   0  0  0  0  0  0  0  0  0  0  0  0
   37.1225  126.8052  127.4599 H   0  0  0  0  0  0  0  0  0  0  0  0
   40.5933  128.0423  126.2501 H   0  0  0  0  0  0  0  0  0  0  0  0
   39.6586  127.4753  127.3437 H   0  0  0  0  0  0  0  0  0  0  0  0
   38.3456  129.0343  123.5969 H   0  0  0  0  0  0  0  0  0  0  0  0
   39.6296  129.4155  124.9381 H   0  0  0  0  0  0  0  0  0  0  0  0
   40.9591  127.7078  123.7647 H   0  0  0  0  0  0  0  0  0  0  0  0
   38.6279  127.7326  122.0675 H   0  0  0  0  0  0  0  0  0  0  0  0
   39.5276  129.1042  121.3355 H   0  0  0  0  0  0  0  0  0  0  0  0
   40.2450  127.4574  121.3355 H   0  0  0  0  0  0  0  0  0  0  0  0
   40.3450  130.4060  122.4881 H   0  0  0  0  0  0  0  0  0  0  0  0
   43.8870  128.7627  122.8501 H   0  0  0  0  0  0  0  0  0  0  0  0
   46.0780  129.2847  121.6070 H   0  0  0  0  0  0  0  0  0  0  0  0
   46.6298  131.1185  120.2520 H   0  0  0  0  0  0  0  0  0  0  0  0
   46.9447  129.8354  119.0349 H   0  0  0  0  0  0  0  0  0  0  0  0
   45.3742  130.7074  119.0349 H   0  0  0  0  0  0  0  0  0  0  0  0
   45.3321  127.8040  119.0201 H   0  0  0  0  0  0  0  0  0  0  0  0
   46.9196  127.7057  119.8547 H   0  0  0  0  0  0  0  0  0  0  0  0
   45.8052  126.7300  121.8992 H   0  0  0  0  0  0  0  0  0  0  0  0
   47.4749  125.4325  119.6626 H   0  0  0  0  0  0  0  0  0  0  0  0
   46.3568  124.5081  118.6034 H   0  0  0  0  0  0  0  0  0  0  0  0
   46.3150  126.3039  118.6034 H   0  0  0  0  0  0  0  0  0  0  0  0
   45.8488  124.7562  122.3042 H   0  0  0  0  0  0  0  0  0  0  0  0
   45.5943  123.4183  121.1329 H   0  0  0  0  0  0  0  0  0  0  0  0
   47.1422  124.3297  121.1329 H   0  0  0  0  0  0  0  0  0  0  0  0
   43.1306  127.1762  120.3091 H   0  0  0  0  0  0  0  0  0  0  0  0
   43.1174  126.9966  123.5470 H   0  0  0  0  0  0  0  0  0  0  0  0
   44.9670  125.8974  124.7712 H   0  0  0  0  0  0  0  0  0  0  0  0
   43.2124  125.9197  125.7137 H   0  0  0  0  0  0  0  0  0  0  0  0
   41.8331  126.5275  124.7366 H   0  0  0  0  0  0  0  0  0  0  0  0
   42.2308  124.7758  124.7366 H   0  0  0  0  0  0  0  0  0  0  0  0
   40.8061  130.4081  125.0728 H   0  0  0  0  0  0  0  0  0  0  0  0
   42.5752  130.2867  126.0945 H   0  0  0  0  0  0  0  0  0  0  0  0
   43.1013  129.2120  124.7548 H   0  0  0  0  0  0  0  0  0  0  0  0
   43.5745  130.9448  124.7548 H   0  0  0  0  0  0  0  0  0  0  0  0
   34.9068  129.9201  124.9274 H   0  0  0  0  0  0  0  0  0  0  0  0
   36.5361  129.7742  124.1854 H   0  0  0  0  0  0  0  0  0  0  0  0
   35.4199  128.3668  124.1854 H   0  0  0  0  0  0  0  0  0  0  0  0
   40.5402  135.7033  124.2046 H   0  0  0  0  0  0  0  0  0  0  0  0
   41.5845  134.9107  122.9766 H   0  0  0  0  0  0  0  0  0  0  0  0
   39.8131  134.6123  122.9766 H   0  0  0  0  0  0  0  0  0  0  0  0
  1  2  1  0
  2  3  1  0
  3  4  1  0
  4  5  1  0
  5  6  1  0
  6  7  1  0
  7  8  1  0
  3  9  1  0
  7  9  1  0
  9 10  1  0
 10 11  1  0
 11 12  1  0
 11 13  1  0
  5 14  1  0
 14 15  1  0
 15 16  1  0
 16 17  1  0
 17 18  1  0
 17 19  1  0
 19 20  1  0
 20 21  1  0
 20 22  1  0
 22 23  1  0
 22 24  1  0
 24 25  1  0
 25 26  1  0
 26 27  1  0
 26 28  1  0
 24 29  1  0
 29 30  1  0
 30 31  1  0
 30 32  1  0
 32 33  1  6
 32 34  1  0
 33 34  1  0
 32 35  1  0
 35 36  1  0
 36 37  1  0
 36 38  1  0
 38 39  1  0
 39 40  1  0
 40 41  1  0
 41 42  1  0
 42 43  1  0
 42 44  1  0
 44 45  1  0
 45 46  1  0
 46 47  1  0
 46 48  1  0
 40 49  1  0
 45 49  1  0
 49 50  1  0
 50 51  1  0
 51 52  1  0
 51 53  1  0
 15 54  1  0
 38 54  1  0
 54 55  1  0
 29 56  1  0
 16 57  1  0
  1 58  1  0
  1 59  1  0
  1 60  1  0
  3 61  1  6
  4 62  1  0
  4 63  1  0
  5 64  1  6
  7 65  1  6
  8 66  1  0
  8 67  1  0
  8 68  1  0
  9 69  1  1
 11 70  1  6
 12 71  1  0
 13 72  1  0
 13 73  1  0
 13 74  1  0
 15 75  1  6
 16 76  1  1
 17 77  1  0
 18 78  1  0
 20 79  1  6
 21 80  1  0
 21 81  1  0
 21 82  1  0
 22 83  1  6
 23 84  1  0
 23 85  1  0
 23 86  1  0
 24 87  1  1
 26 88  1  6
 27 89  1  0
 28 90  1  0
 28 91  1  0
 28 92  1  0
 29 93  1  1
 30 94  1  6
 31 95  1  0
 34 96  1  0
 34 97  1  0
 35 98  1  0
 35 99  1  0
 36100  1  1
 37101  1  0
 37102  1  0
 37103  1  0
 38104  1  6
 40105  1  1
 42106  1  1
 43107  1  0
 43108  1  0
 43109  1  0
 44110  1  0
 44111  1  0
 45112  1  1
 47113  1  0
 47114  1  0
 47115  1  0
 48116  1  0
 48117  1  0
 48118  1  0
 49119  1  6
 51120  1  1
 52121  1  0
 53122  1  0
 53123  1  0
 53124  1  0
 54125  1  1
 55126  1  0
 55127  1  0
 55128  1  0
 56129  1  0
 56130  1  0
 56131  1  0
 57132  1  0
 57133  1  0
 57134  1  0
M  END
>  <PDBID>  (1) 
1OND

>  <PDB ID>  (1) 
1OND

>  <Generic Name>  (1) 
Troleandomycin

>  <Brand Name>  (1) 
Tao#Triocetin

>  <DrugBank ID>  (1) 
DB01361

>  <ATC Codes>  (1) 
J01FA08

>  <Ligand ID>  (1) 
TAO

>  <Target Name>  (1) 
50S ribosomal protein L32

>  <UniProt ID>  (1) 
P49228

>  <PDB ID.1>  (1) 
1OND

>  <Seq. Identity>  (1) 
100%

$$$$
