PDB_DB00218_92
     RDKit          3D

 53 57  0  0  0  0  0  0  0  0999 V2000
   90.2580    9.6120  320.0850 F   0  0  0  0  0  0  0  0  0  0  0  0
   88.2870   11.5060  316.0740 O   0  0  0  0  0  0  0  0  0  0  0  0
   90.6550    6.0190  316.7080 O   0  0  0  0  0  0  0  0  0  0  0  0
   89.6430    5.5110  312.7120 O   0  0  0  0  0  0  0  0  0  0  0  0
   90.5840    4.4500  314.4080 O   0  0  0  0  0  0  0  0  0  0  0  0
   89.0010   11.7610  318.7530 N   0  0  0  0  0  0  0  0  0  0  0  0
   90.0250   14.9760  320.0800 N   0  0  0  0  0  0  0  0  0  0  0  0
   88.8350    9.0110  314.6440 N   0  0  0  0  0  0  0  0  0  0  0  0
   87.9040   13.5270  319.9410 C   0  0  2  0  0  0  0  0  0  0  0  0
   89.4460   13.6110  320.1650 C   0  0  1  0  0  0  0  0  0  0  0  0
   87.6790   12.3320  318.9750 C   0  0  0  0  0  0  0  0  0  0  0  0
   90.0900   12.6400  319.1420 C   0  0  0  0  0  0  0  0  0  0  0  0
   87.3140   14.8610  319.4090 C   0  0  0  0  0  0  0  0  0  0  0  0
   88.1820    9.9650  313.7470 C   0  0  0  0  0  0  0  0  0  0  0  0
   88.2350   15.5320  318.3560 C   0  0  0  0  0  0  0  0  0  0  0  0
   86.5980    9.9810  313.7010 C   0  0  0  0  0  0  0  0  0  0  0  0
   87.4090    9.3750  312.4950 C   0  0  0  0  0  0  0  0  0  0  0  0
   89.7280   15.6260  318.7810 C   0  0  0  0  0  0  0  0  0  0  0  0
   89.2510   10.5660  318.0250 C   0  0  0  0  0  0  0  0  0  0  0  0
   89.1480    9.2230  315.9390 C   0  0  0  0  0  0  0  0  0  0  0  0
   88.8900   10.4310  316.6600 C   0  0  0  0  0  0  0  0  0  0  0  0
   89.7860    8.1670  316.6560 C   0  0  0  0  0  0  0  0  0  0  0  0
   89.8770    9.5040  318.6910 C   0  0  0  0  0  0  0  0  0  0  0  0
   89.1110    7.8570  314.0490 C   0  0  0  0  0  0  0  0  0  0  0  0
   90.1420    8.3150  318.0070 C   0  0  0  0  0  0  0  0  0  0  0  0
   89.7360    6.7800  314.6910 C   0  0  0  0  0  0  0  0  0  0  0  0
   90.0880    6.9330  316.0450 C   0  0  0  0  0  0  0  0  0  0  0  0
   89.9840    5.5520  313.8960 C   0  0  0  0  0  0  0  0  0  0  0  0
   89.0430   12.6010  315.6330 C   0  0  0  0  0  0  0  0  0  0  0  0
   89.2013    6.2936  312.2967 H   0  0  0  0  0  0  0  0  0  0  0  0
   89.6311   15.5519  320.8377 H   0  0  0  0  0  0  0  0  0  0  0  0
   87.3696   13.3614  320.8881 H   0  0  0  0  0  0  0  0  0  0  0  0
   89.6668   13.3226  321.2033 H   0  0  0  0  0  0  0  0  0  0  0  0
   87.2457   12.6804  318.0259 H   0  0  0  0  0  0  0  0  0  0  0  0
   86.9790   11.5937  319.3931 H   0  0  0  0  0  0  0  0  0  0  0  0
   90.9063   12.0679  319.6072 H   0  0  0  0  0  0  0  0  0  0  0  0
   90.5353   13.1653  318.2842 H   0  0  0  0  0  0  0  0  0  0  0  0
   86.3373   14.6565  318.9461 H   0  0  0  0  0  0  0  0  0  0  0  0
   87.2175   15.5504  320.2607 H   0  0  0  0  0  0  0  0  0  0  0  0
   88.9621   10.7250  313.9012 H   0  0  0  0  0  0  0  0  0  0  0  0
   88.1775   14.9481  317.4256 H   0  0  0  0  0  0  0  0  0  0  0  0
   87.8757   16.5646  318.2346 H   0  0  0  0  0  0  0  0  0  0  0  0
   86.0224    9.3184  314.3641 H   0  0  0  0  0  0  0  0  0  0  0  0
   85.8260   10.7576  313.8054 H   0  0  0  0  0  0  0  0  0  0  0  0
   87.4386    9.9047  311.5314 H   0  0  0  0  0  0  0  0  0  0  0  0
   87.4094    8.4107  311.9658 H   0  0  0  0  0  0  0  0  0  0  0  0
   90.0006   16.6891  318.8553 H   0  0  0  0  0  0  0  0  0  0  0  0
   90.3118   15.0927  318.0163 H   0  0  0  0  0  0  0  0  0  0  0  0
   88.8331    7.7396  312.9912 H   0  0  0  0  0  0  0  0  0  0  0  0
   90.6355    7.4843  318.5328 H   0  0  0  0  0  0  0  0  0  0  0  0
   89.4261   13.1559  316.5021 H   0  0  0  0  0  0  0  0  0  0  0  0
   89.8872   12.2429  315.0254 H   0  0  0  0  0  0  0  0  0  0  0  0
   88.4090   13.2635  315.0254 H   0  0  0  0  0  0  0  0  0  0  0  0
  7 10  1  0
  9 10  1  0
  6 11  1  0
  9 11  1  0
  6 12  1  0
 10 12  1  0
  9 13  1  0
  8 14  1  0
 13 15  1  0
 14 16  1  0
 14 17  1  0
 16 17  1  0
  7 18  1  0
 15 18  1  0
  6 19  1  0
  8 20  1  0
  2 21  1  0
 19 21  2  0
 20 21  1  0
 20 22  2  0
  1 23  1  0
 19 23  1  0
  8 24  1  0
 22 25  1  0
 23 25  2  0
 24 26  2  0
  3 27  2  0
 22 27  1  0
 26 27  1  0
  4 28  1  0
  5 28  2  0
 26 28  1  0
  2 29  1  0
  4 30  1  0
  7 31  1  0
  9 32  1  1
 10 33  1  1
 11 34  1  0
 11 35  1  0
 12 36  1  0
 12 37  1  0
 13 38  1  0
 13 39  1  0
 14 40  1  0
 15 41  1  0
 15 42  1  0
 16 43  1  0
 16 44  1  0
 17 45  1  0
 17 46  1  0
 18 47  1  0
 18 48  1  0
 24 49  1  0
 25 50  1  0
 29 51  1  0
 29 52  1  0
 29 53  1  0
M  END
$$$$
