PDB_DB09053_98
     RDKit          3D

320336  0  0  0  0  0  0  0  0999 V2000
    1.0820  -25.5390   51.4520 N   0  0  0  0  0  0  0  0  0  0  0  0
    0.8280  -24.6120   50.4530 C   0  0  0  0  0  0  0  0  0  0  0  0
   -0.4930  -24.2990   50.1720 N   0  0  0  0  0  0  0  0  0  0  0  0
   -1.4640  -24.8710   50.8840 C   0  0  0  0  0  0  0  0  0  0  0  0
   -1.1980  -25.7430   51.8450 C   0  0  0  0  0  0  0  0  0  0  0  0
    0.0630  -26.0750   52.1260 C   0  0  0  0  0  0  0  0  0  0  0  0
   -6.1490  -24.6570   45.5030 C   0  0  0  0  0  3  0  0  0  0  0  0
    0.2620  -26.9860   53.0700 N   0  0  0  0  0  0  0  0  0  0  0  0
   -6.6020  -22.3380   46.9530 O   0  0  0  0  0  0  0  0  0  0  0  0
   -6.1270  -24.6830   47.0240 C   0  0  0  0  0  0  0  0  0  0  0  0
   -5.1850  -33.0120   56.4460 C   0  0  0  0  0  0  0  0  0  0  0  0
   -6.0160  -31.9820   56.8380 C   0  0  0  0  0  0  0  0  0  0  0  0
   -3.8690  -32.7400   56.1290 C   0  0  0  0  0  0  0  0  0  0  0  0
   -5.5440  -30.6800   56.8930 C   0  0  0  0  0  0  0  0  0  0  0  0
   -3.3950  -31.4430   56.1830 C   0  0  0  0  0  0  0  0  0  0  0  0
   -3.9750  -28.7240   54.2500 C   0  0  0  0  0  0  0  0  0  0  0  0
   -2.6200  -27.3460   55.6460 C   0  0  0  0  0  0  0  0  0  0  0  0
   -3.6300  -27.9450   53.1440 C   0  0  0  0  0  0  0  0  0  0  0  0
   -2.2790  -26.5770   54.5500 C   0  0  0  0  0  0  0  0  0  0  0  0
   -3.8910  -21.3830   49.4880 C   0  0  0  0  0  0  0  0  0  0  0  0
   -3.2770  -22.4140   50.4130 C   0  0  0  0  0  0  0  0  0  0  0  0
   -5.3360  -21.7270   49.2510 C   0  0  0  0  0  0  0  0  0  0  0  0
   -4.7740  -24.1840   49.4470 C   0  0  0  0  0  0  0  0  0  0  0  0
   -3.2790  -25.3620   51.5700 N   0  0  0  0  0  0  0  0  0  0  0  0
   -3.7680  -29.1330   56.6360 O   0  0  0  0  0  0  0  0  0  0  0  0
   -6.0670  -23.2570   47.5580 C   0  0  0  0  0  0  0  0  0  0  0  0
   -4.2320  -30.4040   56.5560 C   0  0  0  0  0  0  0  0  0  0  0  0
   -3.4690  -28.4300   55.5110 C   0  0  0  0  0  0  0  0  0  0  0  0
   -2.7550  -26.8710   53.2820 C   0  0  1  0  0  0  0  0  0  0  0  0
   -2.4060  -26.0660   52.2740 C   0  0  1  0  0  0  0  0  0  0  0  0
   -3.3500  -23.8210   49.8340 C   0  0  2  0  0  0  0  0  0  0  0  0
   -2.7750  -24.7430   50.8160 N   0  0  0  0  0  0  0  0  0  0  0  0
   -5.4220  -23.0780   48.7110 N   0  0  0  0  0  0  0  0  0  0  0  0
  -29.4130   -5.8770    2.3030 N   0  0  0  0  0  0  0  0  0  0  0  0
  -29.1850   -5.0730    3.4070 C   0  0  0  0  0  0  0  0  0  0  0  0
  -27.8780   -4.8830    3.8120 N   0  0  0  0  0  0  0  0  0  0  0  0
  -26.8850   -5.4070    3.0970 C   0  0  0  0  0  0  0  0  0  0  0  0
  -27.1190   -6.1490    2.0300 C   0  0  0  0  0  0  0  0  0  0  0  0
  -28.3770   -6.3910    1.6400 C   0  0  0  0  0  0  0  0  0  0  0  0
  -22.0600   -5.8990    8.6300 C   0  0  0  0  0  3  0  0  0  0  0  0
  -28.5860   -7.1620    0.5790 N   0  0  0  0  0  0  0  0  0  0  0  0
  -22.0280   -3.4290    7.6610 O   0  0  0  0  0  0  0  0  0  0  0  0
  -22.3040   -5.7160    7.1160 C   0  0  0  0  0  0  0  0  0  0  0  0
  -23.3290  -13.1270   -3.1920 C   0  0  0  0  0  0  0  0  0  0  0  0
  -22.4100  -12.1270   -3.4350 C   0  0  0  0  0  0  0  0  0  0  0  0
  -24.6260  -12.7870   -2.8630 C   0  0  0  0  0  0  0  0  0  0  0  0
  -22.7920  -10.7960   -3.3490 C   0  0  0  0  0  0  0  0  0  0  0  0
  -25.0100  -11.4580   -2.7780 C   0  0  0  0  0  0  0  0  0  0  0  0
  -24.2700   -8.9370   -0.5410 C   0  0  0  0  0  0  0  0  0  0  0  0
  -25.6270   -7.4590   -1.8210 C   0  0  0  0  0  0  0  0  0  0  0  0
  -24.6410   -8.2470    0.6160 C   0  0  0  0  0  0  0  0  0  0  0  0
  -25.9870   -6.7780   -0.6740 C   0  0  0  0  0  0  0  0  0  0  0  0
  -24.7470   -2.2100    5.2480 C   0  0  0  0  0  0  0  0  0  0  0  0
  -25.2630   -3.0660    4.1230 C   0  0  0  0  0  0  0  0  0  0  0  0
  -23.2730   -2.4670    5.4160 C   0  0  0  0  0  0  0  0  0  0  0  0
  -23.6190   -4.8650    4.7550 C   0  0  0  0  0  0  0  0  0  0  0  0
  -25.0420   -5.8640    2.4720 N   0  0  0  0  0  0  0  0  0  0  0  0
  -24.4500   -9.1490   -2.9610 O   0  0  0  0  0  0  0  0  0  0  0  0
  -22.4590   -4.2330    6.8420 C   0  0  0  0  0  0  0  0  0  0  0  0
  -24.0900  -10.4540   -3.0140 C   0  0  0  0  0  0  0  0  0  0  0  0
  -24.7710   -8.5480   -1.7780 C   0  0  0  0  0  0  0  0  0  0  0  0
  -25.5210   -7.1660    0.5630 C   0  0  0  0  0  0  0  0  0  0  0  0
  -25.8930   -6.4530    1.6340 C   0  0  0  0  0  0  0  0  0  0  0  0
  -25.0800   -4.5390    4.4050 C   0  0  2  0  0  0  0  0  0  0  0  0
  -25.5810   -5.3230    3.2610 N   0  0  0  0  0  0  0  0  0  0  0  0
  -23.0710   -3.8830    5.7040 N   0  0  0  0  0  0  0  0  0  0  0  0
    2.9300   12.4870   51.2810 N   0  0  0  0  0  0  0  0  0  0  0  0
    2.7950   13.3370   50.2020 C   0  0  0  0  0  0  0  0  0  0  0  0
    1.5160   13.7590   49.8520 N   0  0  0  0  0  0  0  0  0  0  0  0
    0.4680   13.3760   50.5850 C   0  0  0  0  0  0  0  0  0  0  0  0
    0.6320   12.5750   51.6280 C   0  0  0  0  0  0  0  0  0  0  0  0
    1.8500   12.1330   51.9710 C   0  0  0  0  0  0  0  0  0  0  0  0
   -3.5490   13.8880   44.1870 C   0  0  0  0  0  3  0  0  0  0  0  0
    1.9600   11.3110   53.0060 N   0  0  0  0  0  0  0  0  0  0  0  0
   -0.8160   13.8800   45.5300 O   0  0  0  0  0  0  0  0  0  0  0  0
   -2.7990   15.0260   44.8690 C   0  0  0  0  0  0  0  0  0  0  0  0
   -3.8590    6.1990   56.9880 C   0  0  0  0  0  0  0  0  0  0  0  0
   -4.7080    7.2820   57.1140 C   0  0  0  0  0  0  0  0  0  0  0  0
   -2.5140    6.4160   56.7490 C   0  0  0  0  0  0  0  0  0  0  0  0
   -4.2180    8.5750   56.9960 C   0  0  0  0  0  0  0  0  0  0  0  0
   -2.0180    7.7010   56.6300 C   0  0  0  0  0  0  0  0  0  0  0  0
   -2.4530   10.1090   54.2210 C   0  0  0  0  0  0  0  0  0  0  0  0
   -1.1200   11.6100   55.5100 C   0  0  0  0  0  0  0  0  0  0  0  0
   -1.9910   10.7260   53.0550 C   0  0  0  0  0  0  0  0  0  0  0  0
   -0.6630   12.2100   54.3540 C   0  0  0  0  0  0  0  0  0  0  0  0
   -3.2930   15.9790   48.5710 C   0  0  0  0  0  0  0  0  0  0  0  0
   -2.6680   15.2470   49.7670 C   0  0  0  0  0  0  0  0  0  0  0  0
   -3.6000   14.9820   47.4770 C   0  0  0  0  0  0  0  0  0  0  0  0
   -1.5510   13.6870   48.1730 C   0  0  0  0  0  0  0  0  0  0  0  0
   -1.3970   13.1550   51.2630 N   0  0  0  0  0  0  0  0  0  0  0  0
   -2.4060   10.0420   56.6500 O   0  0  0  0  0  0  0  0  0  0  0  0
   -1.8790   14.3680   45.8810 C   0  0  0  0  0  0  0  0  0  0  0  0
   -2.8730    8.7830   56.7450 C   0  0  0  0  0  0  0  0  0  0  0  0
   -2.0050   10.5540   55.4610 C   0  0  0  0  0  0  0  0  0  0  0  0
   -1.0730   11.7690   53.1110 C   0  0  1  0  0  0  0  0  0  0  0  0
   -0.6120   12.4290   52.0490 C   0  0  1  0  0  0  0  0  0  0  0  0
   -1.3640   14.5290   49.3920 C   0  0  2  0  0  0  0  0  0  0  0  0
   -0.8290   13.6540   50.4820 N   0  0  0  0  0  0  0  0  0  0  0  0
   -2.3440   14.3330   47.1290 N   0  0  0  0  0  0  0  0  0  0  0  0
  -31.5700  -41.9280    0.7280 N   0  0  0  0  0  0  0  0  0  0  0  0
  -31.3900  -40.9690    1.7080 C   0  0  0  0  0  0  0  0  0  0  0  0
  -30.0980  -40.5620    1.9920 N   0  0  0  0  0  0  0  0  0  0  0  0
  -29.0860  -41.0560    1.2820 C   0  0  0  0  0  0  0  0  0  0  0  0
  -29.2780  -41.9590    0.3340 C   0  0  0  0  0  0  0  0  0  0  0  0
  -30.5120  -42.4000    0.0630 C   0  0  0  0  0  0  0  0  0  0  0  0
  -24.8440  -39.8360    7.3090 C   0  0  0  0  0  3  0  0  0  0  0  0
  -30.6660  -43.3240   -0.8840 N   0  0  0  0  0  0  0  0  0  0  0  0
  -27.8500  -39.6070    6.2950 O   0  0  0  0  0  0  0  0  0  0  0  0
  -25.6550  -38.7320    6.6520 C   0  0  0  0  0  0  0  0  0  0  0  0
  -24.7140  -48.7820   -4.3510 C   0  0  0  0  0  0  0  0  0  0  0  0
  -23.9530  -47.7270   -4.8210 C   0  0  0  0  0  0  0  0  0  0  0  0
  -26.0100  -48.5510   -3.9200 C   0  0  0  0  0  0  0  0  0  0  0  0
  -24.4790  -46.4510   -4.8490 C   0  0  0  0  0  0  0  0  0  0  0  0
  -26.5420  -47.2740   -3.9510 C   0  0  0  0  0  0  0  0  0  0  0  0
  -26.1750  -44.6370   -2.0780 C   0  0  0  0  0  0  0  0  0  0  0  0
  -27.5940  -43.3180   -3.4630 C   0  0  0  0  0  0  0  0  0  0  0  0
  -26.6210  -43.9240   -0.9640 C   0  0  0  0  0  0  0  0  0  0  0  0
  -28.0400  -42.6210   -2.3600 C   0  0  0  0  0  0  0  0  0  0  0  0
  -25.1700  -38.5650    2.9930 C   0  0  0  0  0  0  0  0  0  0  0  0
  -25.8640  -39.3530    1.8820 C   0  0  0  0  0  0  0  0  0  0  0  0
  -24.9990  -39.4620    4.1720 C   0  0  0  0  0  0  0  0  0  0  0  0
  -27.2540  -40.4390    3.6770 C   0  0  0  0  0  0  0  0  0  0  0  0
  -27.2390  -41.3830    0.6000 N   0  0  0  0  0  0  0  0  0  0  0  0
  -26.2700  -44.9640   -4.4710 O   0  0  0  0  0  0  0  0  0  0  0  0
  -26.7360  -39.4020    5.8320 C   0  0  0  0  0  0  0  0  0  0  0  0
  -25.7700  -46.2170   -4.4110 C   0  0  0  0  0  0  0  0  0  0  0  0
  -26.6670  -44.3340   -3.3390 C   0  0  0  0  0  0  0  0  0  0  0  0
  -27.5860  -42.9290   -1.0920 C   0  0  1  0  0  0  0  0  0  0  0  0
  -28.0400  -42.1720   -0.0920 C   0  0  1  0  0  0  0  0  0  0  0  0
  -27.2510  -39.8290    2.3030 C   0  0  2  0  0  0  0  0  0  0  0  0
  -27.7890  -40.8070    1.3310 N   0  0  0  0  0  0  0  0  0  0  0  0
  -26.3370  -39.7790    4.6160 N   0  0  0  0  0  0  0  0  0  0  0  0
    1.5944  -26.3180   51.0144 H   0  0  0  0  0  0  0  0  0  0  0  0
    1.3311  -23.6768   50.7399 H   0  0  0  0  0  0  0  0  0  0  0  0
    1.1963  -25.0924   49.5345 H   0  0  0  0  0  0  0  0  0  0  0  0
   -0.5926  -23.2808   50.2913 H   0  0  0  0  0  0  0  0  0  0  0  0
   -1.5160  -25.6918   50.1536 H   0  0  0  0  0  0  0  0  0  0  0  0
   -1.2514  -26.5640   51.1148 H   0  0  0  0  0  0  0  0  0  0  0  0
    0.1158  -25.2553   52.8577 H   0  0  0  0  0  0  0  0  0  0  0  0
   -6.8240  -23.8592   45.1596 H   0  0  0  0  0  0  0  0  0  0  0  0
   -5.1338  -24.4663   45.1248 H   0  0  0  0  0  0  0  0  0  0  0  0
    0.1661  -26.5468   53.9967 H   0  0  0  0  0  0  0  0  0  0  0  0
   -0.4344  -27.7387   52.9730 H   0  0  0  0  0  0  0  0  0  0  0  0
   -6.9785  -21.6912   47.6011 H   0  0  0  0  0  0  0  0  0  0  0  0
   -7.0382  -25.1750   47.3951 H   0  0  0  0  0  0  0  0  0  0  0  0
   -5.2425  -25.2396   47.3674 H   0  0  0  0  0  0  0  0  0  0  0  0
   -5.1717  -33.7430   57.2679 H   0  0  0  0  0  0  0  0  0  0  0  0
   -5.6177  -33.3441   55.4908 H   0  0  0  0  0  0  0  0  0  0  0  0
   -6.8662  -31.9799   56.1400 H   0  0  0  0  0  0  0  0  0  0  0  0
   -6.2198  -32.2163   57.8933 H   0  0  0  0  0  0  0  0  0  0  0  0
   -3.2485  -33.3328   56.8172 H   0  0  0  0  0  0  0  0  0  0  0  0
   -3.8138  -32.9828   55.0575 H   0  0  0  0  0  0  0  0  0  0  0  0
   -6.1768  -30.0845   56.2185 H   0  0  0  0  0  0  0  0  0  0  0  0
   -5.5838  -30.4426   57.9663 H   0  0  0  0  0  0  0  0  0  0  0  0
   -2.5563  -31.4432   56.8948 H   0  0  0  0  0  0  0  0  0  0  0  0
   -3.1732  -31.2164   55.1297 H   0  0  0  0  0  0  0  0  0  0  0  0
   -5.0710  -28.6826   54.3338 H   0  0  0  0  0  0  0  0  0  0  0  0
   -3.5116  -29.6948   54.0202 H   0  0  0  0  0  0  0  0  0  0  0  0
   -1.6789  -27.7339   56.0629 H   0  0  0  0  0  0  0  0  0  0  0  0
   -3.2077  -26.6491   56.2615 H   0  0  0  0  0  0  0  0  0  0  0  0
   -3.1794  -28.6260   52.4070 H   0  0  0  0  0  0  0  0  0  0  0  0
   -4.5798  -27.4579   52.8783 H   0  0  0  0  0  0  0  0  0  0  0  0
   -2.6091  -25.5522   54.7753 H   0  0  0  0  0  0  0  0  0  0  0  0
   -1.2015  -26.7742   54.4493 H   0  0  0  0  0  0  0  0  0  0  0  0
   -3.8212  -20.3870   49.9496 H   0  0  0  0  0  0  0  0  0  0  0  0
   -3.3508  -21.3789   48.5298 H   0  0  0  0  0  0  0  0  0  0  0  0
   -2.2215  -22.1546   50.5820 H   0  0  0  0  0  0  0  0  0  0  0  0
   -3.8464  -22.4057   51.3541 H   0  0  0  0  0  0  0  0  0  0  0  0
   -5.8879  -21.6742   50.2011 H   0  0  0  0  0  0  0  0  0  0  0  0
   -5.7746  -21.0140   48.5374 H   0  0  0  0  0  0  0  0  0  0  0  0
   -4.7559  -25.0792   48.8080 H   0  0  0  0  0  0  0  0  0  0  0  0
   -5.3480  -24.3771   50.3653 H   0  0  0  0  0  0  0  0  0  0  0  0
   -3.9268  -26.0075   51.0961 H   0  0  0  0  0  0  0  0  0  0  0  0
   -6.9969  -23.4283   48.1200 H   0  0  0  0  0  0  0  0  0  0  0  0
   -3.9336  -30.5405   57.6059 H   0  0  0  0  0  0  0  0  0  0  0  0
   -2.6050  -29.0824   55.3164 H   0  0  0  0  0  0  0  0  0  0  0  0
   -3.6085  -26.1967   53.4461 H   0  0  0  0  0  0  0  0  0  0  0  0
   -2.3568  -25.2591   53.0200 H   0  0  0  0  0  0  0  0  0  0  0  0
   -2.7688  -23.8857   48.9023 H   0  0  0  0  0  0  0  0  0  0  0  0
  -29.9869   -6.6700    2.6233 H   0  0  0  0  0  0  0  0  0  0  0  0
  -29.6052   -4.0816    3.1820 H   0  0  0  0  0  0  0  0  0  0  0  0
  -29.6557   -5.6128    4.2419 H   0  0  0  0  0  0  0  0  0  0  0  0
  -27.7195   -3.8658    3.8434 H   0  0  0  0  0  0  0  0  0  0  0  0
  -26.9060   -6.3078    3.7280 H   0  0  0  0  0  0  0  0  0  0  0  0
  -27.1414   -7.0496    2.6612 H   0  0  0  0  0  0  0  0  0  0  0  0
  -28.3482   -5.5006    0.9947 H   0  0  0  0  0  0  0  0  0  0  0  0
  -22.8154   -5.3324    9.1943 H   0  0  0  0  0  0  0  0  0  0  0  0
  -22.1343   -6.9660    8.8870 H   0  0  0  0  0  0  0  0  0  0  0  0
  -28.8430   -8.1101    0.8888 H   0  0  0  0  0  0  0  0  0  0  0  0
  -29.3502   -6.7669    0.0127 H   0  0  0  0  0  0  0  0  0  0  0  0
  -22.2066   -3.7621    8.5760 H   0  0  0  0  0  0  0  0  0  0  0  0
  -21.4487   -6.1128    6.5495 H   0  0  0  0  0  0  0  0  0  0  0  0
  -23.2097   -6.2583    6.8068 H   0  0  0  0  0  0  0  0  0  0  0  0
  -23.3798  -13.7441   -4.1012 H   0  0  0  0  0  0  0  0  0  0  0  0
  -22.9488  -13.6150   -2.2824 H   0  0  0  0  0  0  0  0  0  0  0  0
  -21.5895  -12.2686   -2.7161 H   0  0  0  0  0  0  0  0  0  0  0  0
  -22.1759  -12.2536   -4.5023 H   0  0  0  0  0  0  0  0  0  0  0  0
  -25.2744  -13.2534   -3.6193 H   0  0  0  0  0  0  0  0  0  0  0  0
  -24.7138  -13.1342   -1.8229 H   0  0  0  0  0  0  0  0  0  0  0  0
  -22.1399  -10.3300   -2.5956 H   0  0  0  0  0  0  0  0  0  0  0  0
  -22.7077  -10.4490   -4.3894 H   0  0  0  0  0  0  0  0  0  0  0  0
  -25.8260  -11.3169   -3.5021 H   0  0  0  0  0  0  0  0  0  0  0  0
  -25.2506  -11.3333   -1.7119 H   0  0  0  0  0  0  0  0  0  0  0  0
  -23.1739   -8.8742   -0.6094 H   0  0  0  0  0  0  0  0  0  0  0  0
  -24.7140   -9.9324   -0.3925 H   0  0  0  0  0  0  0  0  0  0  0  0
  -26.5624   -7.8173   -2.2757 H   0  0  0  0  0  0  0  0  0  0  0  0
  -25.0303   -6.7105   -2.3629 H   0  0  0  0  0  0  0  0  0  0  0  0
  -25.0983   -8.9884    1.2877 H   0  0  0  0  0  0  0  0  0  0  0  0
  -23.6977   -7.7726    0.9244 H   0  0  0  0  0  0  0  0  0  0  0  0
  -25.6641   -5.7361   -0.8159 H   0  0  0  0  0  0  0  0  0  0  0  0
  -27.0645   -6.9865   -0.6001 H   0  0  0  0  0  0  0  0  0  0  0  0
  -24.9127   -1.1487    5.0111 H   0  0  0  0  0  0  0  0  0  0  0  0
  -25.2780   -2.4565    6.1793 H   0  0  0  0  0  0  0  0  0  0  0  0
  -26.3347   -2.8613    3.9833 H   0  0  0  0  0  0  0  0  0  0  0  0
  -24.6902   -2.8191    3.2169 H   0  0  0  0  0  0  0  0  0  0  0  0
  -22.7434   -2.1991    4.4899 H   0  0  0  0  0  0  0  0  0  0  0  0
  -22.8800   -1.8581    6.2436 H   0  0  0  0  0  0  0  0  0  0  0  0
  -23.5726   -5.8666    5.2073 H   0  0  0  0  0  0  0  0  0  0  0  0
  -23.0219   -4.8303    3.8318 H   0  0  0  0  0  0  0  0  0  0  0  0
  -24.4428   -6.5818    2.9040 H   0  0  0  0  0  0  0  0  0  0  0  0
  -21.4880   -4.2270    6.3251 H   0  0  0  0  0  0  0  0  0  0  0  0
  -24.3646  -10.4528   -4.0792 H   0  0  0  0  0  0  0  0  0  0  0  0
  -25.6317   -9.2191   -1.6405 H   0  0  0  0  0  0  0  0  0  0  0  0
  -24.6693   -6.4778    0.4580 H   0  0  0  0  0  0  0  0  0  0  0  0
  -25.8789   -5.5599    0.9920 H   0  0  0  0  0  0  0  0  0  0  0  0
  -25.6700   -4.8177    5.2906 H   0  0  0  0  0  0  0  0  0  0  0  0
    3.3584   11.6194   50.9280 H   0  0  0  0  0  0  0  0  0  0  0  0
    3.3870   14.2379   50.4208 H   0  0  0  0  0  0  0  0  0  0  0  0
    3.1292   12.7391   49.3413 H   0  0  0  0  0  0  0  0  0  0  0  0
    1.5279   14.7889   49.8637 H   0  0  0  0  0  0  0  0  0  0  0  0
    0.3325   12.5000   49.9336 H   0  0  0  0  0  0  0  0  0  0  0  0
    0.4976   11.6990   50.9764 H   0  0  0  0  0  0  0  0  0  0  0  0
    1.9824   13.0065   52.6264 H   0  0  0  0  0  0  0  0  0  0  0  0
   -3.9848   13.2267   44.9504 H   0  0  0  0  0  0  0  0  0  0  0  0
   -4.3517   14.3022   43.5592 H   0  0  0  0  0  0  0  0  0  0  0  0
    1.8880   11.8493   53.8812 H   0  0  0  0  0  0  0  0  0  0  0  0
    1.2052   10.6111   52.9703 H   0  0  0  0  0  0  0  0  0  0  0  0
   -0.2849   13.6362   46.3291 H   0  0  0  0  0  0  0  0  0  0  0  0
   -2.2131   15.5945   44.1317 H   0  0  0  0  0  0  0  0  0  0  0  0
   -3.4894   15.7343   45.3504 H   0  0  0  0  0  0  0  0  0  0  0  0
   -3.9299    5.6254   57.9239 H   0  0  0  0  0  0  0  0  0  0  0  0
   -4.2085    5.6999   56.0721 H   0  0  0  0  0  0  0  0  0  0  0  0
   -5.4837    7.1666   56.3426 H   0  0  0  0  0  0  0  0  0  0  0  0
   -5.0227    7.2303   58.1667 H   0  0  0  0  0  0  0  0  0  0  0  0
   -1.9670    5.9433   57.5780 H   0  0  0  0  0  0  0  0  0  0  0  0
   -2.3741    6.0039   55.7387 H   0  0  0  0  0  0  0  0  0  0  0  0
   -4.7723    9.0513   56.1739 H   0  0  0  0  0  0  0  0  0  0  0  0
   -4.3554    8.9916   58.0048 H   0  0  0  0  0  0  0  0  0  0  0  0
   -1.2494    7.8187   57.4080 H   0  0  0  0  0  0  0  0  0  0  0  0
   -1.6859    7.7495   55.5824 H   0  0  0  0  0  0  0  0  0  0  0  0
   -3.5484   10.2100   54.2227 H   0  0  0  0  0  0  0  0  0  0  0  0
   -2.0431    9.0906   54.1512 H   0  0  0  0  0  0  0  0  0  0  0  0
   -0.2307   11.2478   56.0467 H   0  0  0  0  0  0  0  0  0  0  0  0
   -1.7200   12.4064   55.9744 H   0  0  0  0  0  0  0  0  0  0  0  0
   -1.5292    9.9356   52.4451 H   0  0  0  0  0  0  0  0  0  0  0  0
   -2.8947   11.2203   52.6691 H   0  0  0  0  0  0  0  0  0  0  0  0
   -0.9483   13.2704   54.4188 H   0  0  0  0  0  0  0  0  0  0  0  0
    0.4074   11.9567   54.3583 H   0  0  0  0  0  0  0  0  0  0  0  0
   -4.2229   16.4735   48.8885 H   0  0  0  0  0  0  0  0  0  0  0  0
   -2.5880   16.7340   48.1929 H   0  0  0  0  0  0  0  0  0  0  0  0
   -2.4534   15.9805   50.5582 H   0  0  0  0  0  0  0  0  0  0  0  0
   -3.3853   14.4865   50.1092 H   0  0  0  0  0  0  0  0  0  0  0  0
   -4.3236   14.2361   47.8376 H   0  0  0  0  0  0  0  0  0  0  0  0
   -4.0395   15.4823   46.6015 H   0  0  0  0  0  0  0  0  0  0  0  0
   -0.5597   13.4496   47.7594 H   0  0  0  0  0  0  0  0  0  0  0  0
   -2.1019   12.7874   48.4850 H   0  0  0  0  0  0  0  0  0  0  0  0
   -2.0957   12.5373   50.8257 H   0  0  0  0  0  0  0  0  0  0  0  0
   -1.3792   15.3325   46.0537 H   0  0  0  0  0  0  0  0  0  0  0  0
   -2.6773    8.8227   57.8267 H   0  0  0  0  0  0  0  0  0  0  0  0
   -1.1617    9.8496   55.4091 H   0  0  0  0  0  0  0  0  0  0  0  0
   -1.8990   12.4952   53.1258 H   0  0  0  0  0  0  0  0  0  0  0  0
   -0.4861   13.2915   52.7200 H   0  0  0  0  0  0  0  0  0  0  0  0
   -0.6356   15.3324   49.2076 H   0  0  0  0  0  0  0  0  0  0  0  0
  -32.0238  -42.7350    1.1793 H   0  0  0  0  0  0  0  0  0  0  0  0
  -31.9532  -40.0762    1.3987 H   0  0  0  0  0  0  0  0  0  0  0  0
  -31.7335  -41.4551    2.6331 H   0  0  0  0  0  0  0  0  0  0  0  0
  -30.0737  -39.5387    1.8771 H   0  0  0  0  0  0  0  0  0  0  0  0
  -28.9592  -41.8599    2.0221 H   0  0  0  0  0  0  0  0  0  0  0  0
  -29.1533  -42.7629    1.0745 H   0  0  0  0  0  0  0  0  0  0  0  0
  -30.6306  -41.6061   -0.6891 H   0  0  0  0  0  0  0  0  0  0  0  0
  -24.9138  -39.7410    8.4027 H   0  0  0  0  0  0  0  0  0  0  0  0
  -25.2393  -40.8149    7.0000 H   0  0  0  0  0  0  0  0  0  0  0  0
  -30.8192  -44.2432   -0.4452 H   0  0  0  0  0  0  0  0  0  0  0  0
  -31.4785  -43.0834   -1.4696 H   0  0  0  0  0  0  0  0  0  0  0  0
  -27.8031  -39.5984    7.2839 H   0  0  0  0  0  0  0  0  0  0  0  0
  -26.1084  -38.0885    7.4204 H   0  0  0  0  0  0  0  0  0  0  0  0
  -25.0156  -38.1016    6.0166 H   0  0  0  0  0  0  0  0  0  0  0  0
  -24.7744  -49.5199   -5.1645 H   0  0  0  0  0  0  0  0  0  0  0  0
  -24.1889  -49.0905   -3.4349 H   0  0  0  0  0  0  0  0  0  0  0  0
  -23.0500  -47.6838   -4.1943 H   0  0  0  0  0  0  0  0  0  0  0  0
  -23.8208  -47.9676   -5.8862 H   0  0  0  0  0  0  0  0  0  0  0  0
  -26.6654  -49.1809   -4.5394 H   0  0  0  0  0  0  0  0  0  0  0  0
  -25.9564  -48.7713   -2.8436 H   0  0  0  0  0  0  0  0  0  0  0  0
  -23.8180  -45.8234   -4.2332 H   0  0  0  0  0  0  0  0  0  0  0  0
  -24.5373  -46.2295   -5.9249 H   0  0  0  0  0  0  0  0  0  0  0  0
  -27.4365  -47.3169   -4.5898 H   0  0  0  0  0  0  0  0  0  0  0  0
  -26.6946  -47.0351   -2.8881 H   0  0  0  0  0  0  0  0  0  0  0  0
  -25.0838  -44.5053   -2.1230 H   0  0  0  0  0  0  0  0  0  0  0  0
  -26.5553  -45.6530   -1.8962 H   0  0  0  0  0  0  0  0  0  0  0  0
  -28.4840  -43.7632   -3.9317 H   0  0  0  0  0  0  0  0  0  0  0  0
  -27.0373  -42.5518   -4.0225 H   0  0  0  0  0  0  0  0  0  0  0  0
  -27.0266  -44.6651   -0.2595 H   0  0  0  0  0  0  0  0  0  0  0  0
  -25.7268  -43.3583   -0.6634 H   0  0  0  0  0  0  0  0  0  0  0  0
  -27.7875  -41.5647   -2.5345 H   0  0  0  0  0  0  0  0  0  0  0  0
  -29.1028  -42.9005   -2.3108 H   0  0  0  0  0  0  0  0  0  0  0  0
  -24.1859  -38.2192    2.6438 H   0  0  0  0  0  0  0  0  0  0  0  0
  -25.7758  -37.6895    3.2697 H   0  0  0  0  0  0  0  0  0  0  0  0
  -25.9631  -38.7075    0.9968 H   0  0  0  0  0  0  0  0  0  0  0  0
  -25.2522  -40.2398    1.6598 H   0  0  0  0  0  0  0  0  0  0  0  0
  -24.4631  -40.3781    3.8830 H   0  0  0  0  0  0  0  0  0  0  0  0
  -24.4093  -38.9818    4.9668 H   0  0  0  0  0  0  0  0  0  0  0  0
  -28.2740  -40.3745    4.0838 H   0  0  0  0  0  0  0  0  0  0  0  0
  -26.9114  -41.4787    3.5689 H   0  0  0  0  0  0  0  0  0  0  0  0
  -26.5380  -41.9601    1.0863 H   0  0  0  0  0  0  0  0  0  0  0  0
  -27.0685  -38.4190    5.4672 H   0  0  0  0  0  0  0  0  0  0  0  0
  -26.1465  -46.3857   -5.4307 H   0  0  0  0  0  0  0  0  0  0  0  0
  -27.4813  -45.0595   -3.1956 H   0  0  0  0  0  0  0  0  0  0  0  0
  -26.7932  -42.1730   -1.1922 H   0  0  0  0  0  0  0  0  0  0  0  0
  -28.1643  -41.3827   -0.8480 H   0  0  0  0  0  0  0  0  0  0  0  0
  -27.8939  -38.9367    2.3251 H   0  0  0  0  0  0  0  0  0  0  0  0
  1  2  1  0
  2  3  1  0
  3  4  1  0
  4  5  1  0
  1  6  1  0
  5  6  1  0
  6  8  1  0
  7 10  1  0
 11 12  1  0
 11 13  1  0
 12 14  1  0
 13 15  1  0
 16 18  1  0
 17 19  1  0
 20 21  1  0
 20 22  1  0
  9 26  1  0
 10 26  1  0
 14 27  1  0
 15 27  1  0
 25 27  1  0
 16 28  1  0
 17 28  1  0
 25 28  1  0
 18 29  1  0
 19 29  1  0
  5 30  1  0
 24 30  1  0
 29 30  1  0
 21 31  1  0
 23 31  1  0
  4 32  1  0
 24 32  1  0
 31 32  1  0
 22 33  1  0
 23 33  1  0
 26 33  1  0
 34 35  1  0
 35 36  1  0
 36 37  1  0
 37 38  1  0
 34 39  1  0
 38 39  1  0
 39 41  1  0
 40 43  1  0
 44 45  1  0
 44 46  1  0
 45 47  1  0
 46 48  1  0
 49 51  1  0
 50 52  1  0
 53 54  1  0
 53 55  1  0
 42 59  1  0
 43 59  1  0
 47 60  1  0
 48 60  1  0
 58 60  1  0
 49 61  1  0
 50 61  1  0
 58 61  1  0
 51 62  1  0
 52 62  1  0
 38 63  1  0
 57 63  1  0
 62 63  1  0
 54 64  1  0
 56 64  1  0
 37 65  1  0
 57 65  1  0
 64 65  1  0
 55 66  1  0
 56 66  1  0
 59 66  1  0
 67 68  1  0
 68 69  1  0
 69 70  1  0
 70 71  1  0
 67 72  1  0
 71 72  1  0
 72 74  1  0
 73 76  1  0
 77 78  1  0
 77 79  1  0
 78 80  1  0
 79 81  1  0
 82 84  1  0
 83 85  1  0
 86 87  1  0
 86 88  1  0
 75 92  1  0
 76 92  1  0
 80 93  1  0
 81 93  1  0
 91 93  1  0
 82 94  1  0
 83 94  1  0
 91 94  1  0
 84 95  1  0
 85 95  1  0
 71 96  1  0
 90 96  1  0
 95 96  1  0
 87 97  1  0
 89 97  1  0
 70 98  1  0
 90 98  1  0
 97 98  1  0
 88 99  1  0
 89 99  1  0
 92 99  1  0
100101  1  0
101102  1  0
102103  1  0
103104  1  0
100105  1  0
104105  1  0
105107  1  0
106109  1  0
110111  1  0
110112  1  0
111113  1  0
112114  1  0
115117  1  0
116118  1  0
119120  1  0
119121  1  0
108125  1  0
109125  1  0
113126  1  0
114126  1  0
124126  1  0
115127  1  0
116127  1  0
124127  1  0
117128  1  0
118128  1  0
104129  1  0
123129  1  0
128129  1  0
120130  1  0
122130  1  0
103131  1  0
123131  1  0
130131  1  0
121132  1  0
122132  1  0
125132  1  0
  1133  1  0
  2134  1  0
  2135  1  0
  3136  1  0
  4137  1  0
  5138  1  0
  6139  1  0
  7140  1  0
  7141  1  0
  8142  1  0
  8143  1  0
  9144  1  0
 10145  1  0
 10146  1  0
 11147  1  0
 11148  1  0
 12149  1  0
 12150  1  0
 13151  1  0
 13152  1  0
 14153  1  0
 14154  1  0
 15155  1  0
 15156  1  0
 16157  1  0
 16158  1  0
 17159  1  0
 17160  1  0
 18161  1  0
 18162  1  0
 19163  1  0
 19164  1  0
 20165  1  0
 20166  1  0
 21167  1  0
 21168  1  0
 22169  1  0
 22170  1  0
 23171  1  0
 23172  1  0
 24173  1  0
 26174  1  0
 27175  1  0
 28176  1  0
 29177  1  6
 30178  1  6
 31179  1  6
 34180  1  0
 35181  1  0
 35182  1  0
 36183  1  0
 37184  1  0
 38185  1  0
 39186  1  0
 40187  1  0
 40188  1  0
 41189  1  0
 41190  1  0
 42191  1  0
 43192  1  0
 43193  1  0
 44194  1  0
 44195  1  0
 45196  1  0
 45197  1  0
 46198  1  0
 46199  1  0
 47200  1  0
 47201  1  0
 48202  1  0
 48203  1  0
 49204  1  0
 49205  1  0
 50206  1  0
 50207  1  0
 51208  1  0
 51209  1  0
 52210  1  0
 52211  1  0
 53212  1  0
 53213  1  0
 54214  1  0
 54215  1  0
 55216  1  0
 55217  1  0
 56218  1  0
 56219  1  0
 57220  1  0
 59221  1  0
 60222  1  0
 61223  1  0
 62224  1  0
 63225  1  0
 64226  1  1
 67227  1  0
 68228  1  0
 68229  1  0
 69230  1  0
 70231  1  0
 71232  1  0
 72233  1  0
 73234  1  0
 73235  1  0
 74236  1  0
 74237  1  0
 75238  1  0
 76239  1  0
 76240  1  0
 77241  1  0
 77242  1  0
 78243  1  0
 78244  1  0
 79245  1  0
 79246  1  0
 80247  1  0
 80248  1  0
 81249  1  0
 81250  1  0
 82251  1  0
 82252  1  0
 83253  1  0
 83254  1  0
 84255  1  0
 84256  1  0
 85257  1  0
 85258  1  0
 86259  1  0
 86260  1  0
 87261  1  0
 87262  1  0
 88263  1  0
 88264  1  0
 89265  1  0
 89266  1  0
 90267  1  0
 92268  1  0
 93269  1  0
 94270  1  0
 95271  1  6
 96272  1  6
 97273  1  6
100274  1  0
101275  1  0
101276  1  0
102277  1  0
103278  1  0
104279  1  0
105280  1  0
106281  1  0
106282  1  0
107283  1  0
107284  1  0
108285  1  0
109286  1  0
109287  1  0
110288  1  0
110289  1  0
111290  1  0
111291  1  0
112292  1  0
112293  1  0
113294  1  0
113295  1  0
114296  1  0
114297  1  0
115298  1  0
115299  1  0
116300  1  0
116301  1  0
117302  1  0
117303  1  0
118304  1  0
118305  1  0
119306  1  0
119307  1  0
120308  1  0
120309  1  0
121310  1  0
121311  1  0
122312  1  0
122313  1  0
123314  1  0
125315  1  0
126316  1  0
127317  1  0
128318  1  1
129319  1  1
130320  1  1
M  RAD  4   7   2  40   2  73   2 106   2
M  END
>  <PDBID>  (1) 
5YU9

>  <PDB ID>  (1) 
5YU9

>  <Generic Name>  (1) 
Ibrutinib

>  <Brand Name>  (1) 
Imbruvica

>  <DrugBank ID>  (1) 
DB09053

>  <ATC Codes>  (1) 
L01XE27

>  <Ligand ID>  (1) 
1E8

>  <Target Name>  (1) 
Tyrosine-protein kinase BTK

>  <UniProt ID>  (1) 
Q06187

>  <PDB ID.1>  (1) 
5YU9

>  <Seq. Identity>  (1) 
35%

$$$$
