PDB_DB00819_95
     RDKit          3D

 27 27  0  0  0  0  0  0  0  0999 V2000
   -5.2000    2.2110   16.0000 C   0  0  1  0  0  0  0  0  0  0  0  0
   -4.4590    4.0170   14.7640 C   0  0  0  0  0  0  0  0  0  0  0  0
   -5.2460    5.6220   13.4680 C   0  0  1  0  0  0  0  0  0  0  0  0
   -4.6750    6.7440   12.5760 C   0  0  0  0  0  0  0  0  0  0  0  0
   -5.3790   -0.4210   16.3160 N   0  0  0  0  0  0  0  0  0  0  0  0
   -3.5060    3.2560   15.2580 N   0  0  0  0  0  0  0  0  0  0  0  0
   -3.8720    2.2730   15.9480 N   0  0  0  0  0  0  0  0  0  0  0  0
   -4.1510    5.1090   14.0240 N   0  0  0  0  0  0  0  0  0  0  0  0
   -5.4750    1.1060   18.2580 O   0  0  0  0  0  0  0  0  0  0  0  0
   -7.4320    1.2480   16.6760 O   0  0  0  0  0  0  0  0  0  0  0  0
   -6.4730    5.6130   13.5920 O   0  0  0  0  0  0  0  0  0  0  0  0
   -6.0060    0.9490   16.8880 S   0  0  1  0  0  4  0  0  0  0  0  0
   -6.0070    3.4790   15.1800 S   0  0  0  0  0  0  0  0  0  0  0  0
   -5.2059    1.5805   15.0986 H   0  0  0  0  0  0  0  0  0  0  0  0
   -4.4420    4.6307   15.6767 H   0  0  0  0  0  0  0  0  0  0  0  0
   -5.7997    4.6864   13.6354 H   0  0  0  0  0  0  0  0  0  0  0  0
   -4.2674    7.5450   13.2102 H   0  0  0  0  0  0  0  0  0  0  0  0
   -3.8748    6.3361   11.9409 H   0  0  0  0  0  0  0  0  0  0  0  0
   -5.4757    7.1508   11.9409 H   0  0  0  0  0  0  0  0  0  0  0  0
   -5.1020   -1.0263   17.1020 H   0  0  0  0  0  0  0  0  0  0  0  0
   -6.0818   -0.9061   15.7402 H   0  0  0  0  0  0  0  0  0  0  0  0
   -2.9536    2.8944   14.4674 H   0  0  0  0  0  0  0  0  0  0  0  0
   -3.4993    2.3713   16.9031 H   0  0  0  0  0  0  0  0  0  0  0  0
   -3.7159    5.8179   14.6315 H   0  0  0  0  0  0  0  0  0  0  0  0
   -6.1863    0.8957   18.9137 H   0  0  0  0  0  0  0  0  0  0  0  0
   -7.8831    1.3426   17.5521 H   0  0  0  0  0  0  0  0  0  0  0  0
   -6.7075    5.6113   14.5538 H   0  0  0  0  0  0  0  0  0  0  0  0
  3  4  1  0
  2  6  1  0
  1  7  1  0
  6  7  1  0
  2  8  1  0
  3  8  1  0
  3 11  1  0
  1 12  1  0
  5 12  1  0
 12  9  1  1
 10 12  1  0
  1 13  1  0
  2 13  1  0
  1 14  1  6
  2 15  1  0
  3 16  1  6
  4 17  1  0
  4 18  1  0
  4 19  1  0
  5 20  1  0
  5 21  1  0
  6 22  1  0
  7 23  1  0
  8 24  1  0
  9 25  1  0
 10 26  1  0
 11 27  1  0
M  END
>  <PDBID>  (1) 
3V2J

>  <PDB ID>  (1) 
3V2J

>  <Generic Name>  (1) 
Acetazolamide

>  <Brand Name>  (1) 
Acetazolam#Acetazolamide#Acetazolamide for Injection, USP#Diamox IV 500mg#Diamox Pws 500mg/vial#Diamox Sequels#Diamox Src 500mg#Diamox Tab 250mg#Diamox Tablets 250mg#Novo-zolamide Tab 250mg#Acemit#Acemox#Acetak#Acetamide#Acetazolamax#Azm#Azol#Azomid#Carbinib#Defiltran#Diabo#Diacarb#Diamox#Diamox Depot#Diazomid#Diluran#Diuramid#Défiltran#Edemox#Glaumox#Glaupax#Glupax#Huma-Zolamide#Iopar-SR#Medene#Oculten#Uramox#Zolmide#Ödemin

>  <DrugBank ID>  (1) 
DB00819

>  <ATC Codes>  (1) 
S01EC01

>  <Ligand ID>  (1) 
AZM

>  <Target Name>  (1) 
Carbonic anhydrase 2

>  <UniProt ID>  (1) 
P00918

>  <PDB ID.1>  (1) 
3V2J

>  <Seq. Identity>  (1) 
100%

$$$$
