PDB_DB00148_99
     RDKit          3D

 22 21  0  0  0  0  0  0  0  0999 V2000
  -55.5770    1.4360    8.0230 O   0  0  0  0  0  0  0  0  0  0  0  0
  -56.5650    0.7060    7.4840 C   0  0  0  0  0  0  0  0  0  0  0  0
  -56.4590    0.3080    6.3460 O   0  0  0  0  0  0  0  0  0  0  0  0
  -57.8010    0.3830    8.3060 C   0  0  0  0  0  0  0  0  0  0  0  0
  -58.7740   -0.4420    7.5470 N   0  0  0  0  0  0  0  0  0  0  0  0
  -58.7410   -1.8960    7.6990 C   0  0  0  0  0  0  0  0  0  0  0  0
  -59.7130    0.1340    6.7030 C   0  0  0  0  0  0  0  0  0  0  0  0
  -59.7640    1.4330    6.5510 N   0  0  0  0  0  0  0  0  0  0  0  0
  -60.6050   -0.6620    6.0160 N   0  0  0  0  0  0  0  0  0  0  0  0
  -55.6356    1.3927    9.0103 H   0  0  0  0  0  0  0  0  0  0  0  0
  -57.0447    1.6256    7.1177 H   0  0  0  0  0  0  0  0  0  0  0  0
  -56.2042   -0.6486    6.3534 H   0  0  0  0  0  0  0  0  0  0  0  0
  -57.4942   -0.1687    9.2068 H   0  0  0  0  0  0  0  0  0  0  0  0
  -58.2919    1.3318    8.5683 H   0  0  0  0  0  0  0  0  0  0  0  0
  -58.7352   -2.1528    8.7686 H   0  0  0  0  0  0  0  0  0  0  0  0
  -59.6294   -2.3349    7.2214 H   0  0  0  0  0  0  0  0  0  0  0  0
  -57.8336   -2.2941    7.2214 H   0  0  0  0  0  0  0  0  0  0  0  0
  -60.4227    0.2041    7.5405 H   0  0  0  0  0  0  0  0  0  0  0  0
  -59.7818    1.8864    7.4757 H   0  0  0  0  0  0  0  0  0  0  0  0
  -58.9348    1.7504    6.0289 H   0  0  0  0  0  0  0  0  0  0  0  0
  -61.1881   -1.1823    6.6869 H   0  0  0  0  0  0  0  0  0  0  0  0
  -61.2066   -0.0717    5.4239 H   0  0  0  0  0  0  0  0  0  0  0  0
  1  2  1  0
  2  3  1  0
  2  4  1  0
  4  5  1  0
  5  6  1  0
  5  7  1  0
  7  8  1  0
  7  9  1  0
  1 10  1  0
  2 11  1  0
  3 12  1  0
  4 13  1  0
  4 14  1  0
  6 15  1  0
  6 16  1  0
  6 17  1  0
  7 18  1  0
  8 19  1  0
  8 20  1  0
  9 21  1  0
  9 22  1  0
M  END
>  <PDBID>  (1) 
3B6R

>  <PDB ID>  (1) 
3B6R

>  <Generic Name>  (1) 
Creatine

>  <Brand Name>  (1) 
nan

>  <DrugBank ID>  (1) 
DB00148

>  <ATC Codes>  (1) 
nan

>  <Ligand ID>  (1) 
CRN

>  <Target Name>  (1) 
Creatine kinase B-type

>  <UniProt ID>  (1) 
P12277

>  <PDB ID.1>  (1) 
3B6R

>  <Seq. Identity>  (1) 
96%

$$$$
