PDB_DB00396_92
     RDKit          3D

 53 56  0  0  0  0  0  0  0  0999 V2000
    3.5300   -7.6320   14.4980 C   0  0  0  0  0  0  0  0  0  0  0  0
    4.4990   -7.6820   15.7290 C   0  0  0  0  0  0  0  0  0  0  0  0
    5.5780   -6.5550   15.6400 C   0  0  0  0  0  0  0  0  0  0  0  0
    6.6840   -6.7380   16.2080 O   0  0  0  0  0  0  0  0  0  0  0  0
    5.2890   -5.2840   14.9280 C   0  0  0  0  0  0  0  0  0  0  0  0
    4.1280   -5.0930   14.2910 C   0  0  0  0  0  0  0  0  0  0  0  0
    3.8520   -3.7350   13.6270 C   0  0  0  0  0  0  0  0  0  0  0  0
    3.2000   -3.8750   12.2200 C   0  0  0  0  0  0  0  0  0  0  0  0
    1.9290   -4.8510   12.1900 C   0  0  2  0  0  0  0  0  0  0  0  0
    2.4190   -6.2610   12.6820 C   0  0  1  0  0  0  0  0  0  0  0  0
    2.9810   -6.2090   14.1690 C   0  0  1  0  0  0  0  0  0  0  0  0
    1.2570   -7.3210   12.6070 C   0  0  0  0  0  0  0  0  0  0  0  0
    0.6630   -7.3690   11.1580 C   0  0  0  0  0  0  0  0  0  0  0  0
    0.1200   -5.9570   10.6850 C   0  0  1  0  0  0  0  0  0  0  0  0
    1.3730   -4.9660   10.7660 C   0  0  1  0  0  0  0  0  0  0  0  0
    0.8460   -3.6370   10.0900 C   0  0  0  0  0  0  0  0  0  0  0  0
   -0.0520   -4.1970    8.9180 C   0  0  0  0  0  0  0  0  0  0  0  0
   -0.1710   -5.7780    9.1580 C   0  0  2  0  0  0  0  0  0  0  0  0
   -1.1240   -5.5030   11.5800 C   0  0  0  0  0  0  0  0  0  0  0  0
    1.8530   -5.8070   15.2420 C   0  0  0  0  0  0  0  0  0  0  0  0
   -1.5430   -6.3770    8.7440 C   0  0  0  0  0  0  0  0  0  0  0  0
   -2.4420   -5.6350    8.3820 O   0  0  0  0  0  0  0  0  0  0  0  0
   -1.7690   -7.8710    8.8080 C   0  0  0  0  0  0  0  0  0  0  0  0
    4.0734   -8.0036   13.6168 H   0  0  0  0  0  0  0  0  0  0  0  0
    2.6597   -8.2527   14.7574 H   0  0  0  0  0  0  0  0  0  0  0  0
    3.9152   -7.5487   16.6517 H   0  0  0  0  0  0  0  0  0  0  0  0
    5.0099   -8.6561   15.7329 H   0  0  0  0  0  0  0  0  0  0  0  0
    6.0441   -4.4842   14.9243 H   0  0  0  0  0  0  0  0  0  0  0  0
    3.1736   -3.1587   14.2733 H   0  0  0  0  0  0  0  0  0  0  0  0
    4.8188   -3.2269   13.4959 H   0  0  0  0  0  0  0  0  0  0  0  0
    2.8791   -2.8774   11.8857 H   0  0  0  0  0  0  0  0  0  0  0  0
    3.9590   -4.3171   11.5578 H   0  0  0  0  0  0  0  0  0  0  0  0
    1.1282   -4.4591   12.8344 H   0  0  0  0  0  0  0  0  0  0  0  0
    3.2353   -6.5618   12.0088 H   0  0  0  0  0  0  0  0  0  0  0  0
    1.6522   -8.3130   12.8710 H   0  0  0  0  0  0  0  0  0  0  0  0
    0.4627   -7.0342   13.3118 H   0  0  0  0  0  0  0  0  0  0  0  0
    1.4505   -7.6963   10.4632 H   0  0  0  0  0  0  0  0  0  0  0  0
   -0.1838   -8.0711   11.1638 H   0  0  0  0  0  0  0  0  0  0  0  0
    2.2677   -5.3171   10.2310 H   0  0  0  0  0  0  0  0  0  0  0  0
    0.2528   -3.0376   10.7963 H   0  0  0  0  0  0  0  0  0  0  0  0
    1.6477   -2.9643    9.7512 H   0  0  0  0  0  0  0  0  0  0  0  0
   -1.0483   -3.7315    8.9458 H   0  0  0  0  0  0  0  0  0  0  0  0
    0.3887   -3.9739    7.9351 H   0  0  0  0  0  0  0  0  0  0  0  0
    0.5369   -6.3300    8.5222 H   0  0  0  0  0  0  0  0  0  0  0  0
   -0.8638   -5.5979   12.6446 H   0  0  0  0  0  0  0  0  0  0  0  0
   -1.3742   -4.4556   11.3557 H   0  0  0  0  0  0  0  0  0  0  0  0
   -1.9901   -6.1430   11.3557 H   0  0  0  0  0  0  0  0  0  0  0  0
    2.2477   -5.9477   16.2591 H   0  0  0  0  0  0  0  0  0  0  0  0
    1.5713   -4.7531   15.1005 H   0  0  0  0  0  0  0  0  0  0  0  0
    0.9683   -6.4452   15.1005 H   0  0  0  0  0  0  0  0  0  0  0  0
   -1.8172   -8.1898    9.8597 H   0  0  0  0  0  0  0  0  0  0  0  0
   -2.7151   -8.1206    8.3054 H   0  0  0  0  0  0  0  0  0  0  0  0
   -0.9390   -8.3893    8.3054 H   0  0  0  0  0  0  0  0  0  0  0  0
  1  2  1  0
  2  3  1  0
  3  4  2  0
  3  5  1  0
  5  6  2  0
  6  7  1  0
  7  8  1  0
  8  9  1  0
  9 10  1  0
  1 11  1  0
  6 11  1  0
 10 11  1  0
 10 12  1  0
 12 13  1  0
 13 14  1  0
  9 15  1  0
 14 15  1  0
 15 16  1  0
 16 17  1  0
 14 18  1  0
 17 18  1  0
 14 19  1  1
 11 20  1  1
 18 21  1  0
 21 22  2  0
 21 23  1  0
  1 24  1  0
  1 25  1  0
  2 26  1  0
  2 27  1  0
  5 28  1  0
  7 29  1  0
  7 30  1  0
  8 31  1  0
  8 32  1  0
  9 33  1  1
 10 34  1  6
 12 35  1  0
 12 36  1  0
 13 37  1  0
 13 38  1  0
 15 39  1  6
 16 40  1  0
 16 41  1  0
 17 42  1  0
 17 43  1  0
 18 44  1  6
 19 45  1  0
 19 46  1  0
 19 47  1  0
 20 48  1  0
 20 49  1  0
 20 50  1  0
 23 51  1  0
 23 52  1  0
 23 53  1  0
M  END
$$$$
