PDB_DB01157_95
     RDKit          3D

 50 52  0  0  0  0  0  0  0  0999 V2000
   -0.6720   -5.4890    3.1550 N   0  0  0  0  0  0  0  0  0  0  0  0
   -1.6860   -4.5990    2.5090 C   0  0  0  0  0  0  0  0  0  0  0  0
   -1.2770   -3.6750    1.3790 N   0  0  0  0  0  0  0  0  0  0  0  0
    0.0930   -3.6430    0.9250 C   0  0  0  0  0  0  0  0  0  0  0  0
    0.7230   -5.4790    2.6960 C   0  0  0  0  0  0  0  0  0  0  0  0
    1.1400   -4.5650    1.5800 C   0  0  0  0  0  0  0  0  0  0  0  0
    2.6370   -4.5710    1.0940 C   0  0  0  0  0  0  0  0  0  0  0  0
    3.6540   -5.5000    1.7810 C   0  0  0  0  0  0  0  0  0  0  0  0
    3.2220   -6.4210    2.9220 C   0  0  0  0  0  0  0  0  0  0  0  0
    1.7520   -6.4290    3.3950 C   0  0  0  0  0  0  0  0  0  0  0  0
    5.1210   -5.4760    1.3350 C   0  0  0  0  0  0  0  0  0  0  0  0
    5.9030   -6.1310    2.3130 N   0  0  0  0  0  0  0  0  0  0  0  0
    5.9360   -7.5660    2.3470 C   0  0  0  0  0  0  0  0  0  0  0  0
    6.7570   -8.3030    3.4130 C   0  0  0  0  0  0  0  0  0  0  0  0
    6.7730   -9.8340    3.4550 C   0  0  0  0  0  0  0  0  0  0  0  0
    5.9620  -10.6490    2.4150 C   0  0  0  0  0  0  0  0  0  0  0  0
    5.1450   -9.8990    1.3560 C   0  0  0  0  0  0  0  0  0  0  0  0
    5.1280   -8.3690    1.3180 C   0  0  0  0  0  0  0  0  0  0  0  0
    3.0860   -3.6890   -0.0870 C   0  0  0  0  0  0  0  0  0  0  0  0
    7.5590  -10.4470    4.4380 O   0  0  0  0  0  0  0  0  0  0  0  0
    5.9480  -12.0490    2.4350 O   0  0  0  0  0  0  0  0  0  0  0  0
    4.4050  -10.5890    0.3930 O   0  0  0  0  0  0  0  0  0  0  0  0
    8.3330   -9.6200    5.2740 C   0  0  0  0  0  0  0  0  0  0  0  0
    4.9190  -12.7530    1.7890 C   0  0  0  0  0  0  0  0  0  0  0  0
    3.4810   -9.8590   -0.3810 C   0  0  0  0  0  0  0  0  0  0  0  0
   -3.0750   -4.6680    2.9210 N   0  0  0  0  0  0  0  0  0  0  0  0
    0.4340   -2.6860   -0.0920 N   0  0  0  0  0  0  0  0  0  0  0  0
    3.9588   -7.0785    3.4065 H   0  0  0  0  0  0  0  0  0  0  0  0
    1.4325   -7.0930    4.2117 H   0  0  0  0  0  0  0  0  0  0  0  0
    5.2232   -5.9953    0.3707 H   0  0  0  0  0  0  0  0  0  0  0  0
    5.4603   -4.4361    1.2188 H   0  0  0  0  0  0  0  0  0  0  0  0
    6.4452   -5.5831    2.9962 H   0  0  0  0  0  0  0  0  0  0  0  0
    7.3370   -7.7291    4.1508 H   0  0  0  0  0  0  0  0  0  0  0  0
    4.5366   -7.8446    0.5530 H   0  0  0  0  0  0  0  0  0  0  0  0
    3.5535   -2.7707    0.2981 H   0  0  0  0  0  0  0  0  0  0  0  0
    3.8129   -4.2408   -0.7011 H   0  0  0  0  0  0  0  0  0  0  0  0
    2.2121   -3.4258   -0.7011 H   0  0  0  0  0  0  0  0  0  0  0  0
    8.1138   -9.8543    6.3262 H   0  0  0  0  0  0  0  0  0  0  0  0
    9.4008   -9.7935    5.0745 H   0  0  0  0  0  0  0  0  0  0  0  0
    8.0893   -8.5661    5.0745 H   0  0  0  0  0  0  0  0  0  0  0  0
    4.2565  -13.2062    2.5411 H   0  0  0  0  0  0  0  0  0  0  0  0
    4.3400  -12.0609    1.1599 H   0  0  0  0  0  0  0  0  0  0  0  0
    5.3543  -13.5434    1.1599 H   0  0  0  0  0  0  0  0  0  0  0  0
    2.7936   -9.3159    0.2843 H   0  0  0  0  0  0  0  0  0  0  0  0
    4.0208   -9.1409   -1.0157 H   0  0  0  0  0  0  0  0  0  0  0  0
    2.9073  -10.5504   -1.0157 H   0  0  0  0  0  0  0  0  0  0  0  0
   -3.7748   -4.0560    2.4774 H   0  0  0  0  0  0  0  0  0  0  0  0
   -3.3616   -5.3290    3.6571 H   0  0  0  0  0  0  0  0  0  0  0  0
    1.4005   -2.6305   -0.4436 H   0  0  0  0  0  0  0  0  0  0  0  0
   -0.2882   -2.0558   -0.4691 H   0  0  0  0  0  0  0  0  0  0  0  0
  1  2  2  0
  2  3  1  0
  3  4  2  0
  1  5  1  0
  4  6  1  0
  5  6  2  0
  6  7  1  0
  7  8  2  0
  8  9  1  0
  5 10  1  0
  9 10  2  0
  8 11  1  0
 11 12  1  0
 12 13  1  0
 13 14  2  0
 14 15  1  0
 15 16  2  0
 16 17  1  0
 13 18  1  0
 17 18  2  0
  7 19  1  0
 15 20  1  0
 16 21  1  0
 17 22  1  0
 20 23  1  0
 21 24  1  0
 22 25  1  0
  2 26  1  0
  4 27  1  0
  9 28  1  0
 10 29  1  0
 11 30  1  0
 11 31  1  0
 12 32  1  0
 14 33  1  0
 18 34  1  0
 19 35  1  0
 19 36  1  0
 19 37  1  0
 23 38  1  0
 23 39  1  0
 23 40  1  0
 24 41  1  0
 24 42  1  0
 24 43  1  0
 25 44  1  0
 25 45  1  0
 25 46  1  0
 26 47  1  0
 26 48  1  0
 27 49  1  0
 27 50  1  0
M  END
$$$$
