PDB_DB01194_99
     RDKit          3D

 44 45  0  0  0  0  0  0  0  0999 V2000
   19.3320    7.7930   13.9050 C   0  0  0  0  0  0  0  0  0  0  0  0
   17.0760    3.3690   14.4870 C   0  0  0  0  0  0  0  0  0  0  0  0
   16.0340    4.2130   14.7560 C   0  0  0  0  0  0  0  0  0  0  0  0
   18.3010    3.5160   13.6450 C   0  0  2  0  0  0  0  0  0  0  0  0
   18.6110    4.9650   13.4820 C   0  0  0  0  0  0  0  0  0  0  0  0
   15.3480    0.6850   16.8540 S   0  0  0  0  0  0  0  0  0  0  0  0
   19.8300    9.1330   13.4760 C   0  0  0  0  0  0  0  0  0  0  0  0
   19.8030    1.9320   10.5290 C   0  0  0  0  0  0  0  0  0  0  0  0
   19.5760    2.7470   11.7770 C   0  0  0  0  0  0  0  0  0  0  0  0
   14.9960    3.4670   15.7860 S   0  0  0  0  0  0  0  0  0  0  0  0
   15.9470   -0.6850   16.2080 N   0  0  0  0  0  0  0  0  0  0  0  0
   13.8900    0.7850   16.8530 O   0  0  0  0  0  0  0  0  0  0  0  0
   15.8250    0.8750   18.2290 O   0  0  0  0  0  0  0  0  0  0  0  0
   15.8800    2.0250   15.8720 C   0  0  0  0  0  0  0  0  0  0  0  0
   17.0580    2.1070   15.0910 C   0  0  0  0  0  0  0  0  0  0  0  0
   16.0800    5.8060   14.0710 S   0  0  0  0  0  0  0  0  0  0  0  0
   15.8470    6.5690   15.2880 O   0  0  0  0  0  0  0  0  0  0  0  0
   15.0240    5.9900   13.0760 O   0  0  0  0  0  0  0  0  0  0  0  0
   17.6140    5.9990   13.4680 N   0  0  0  0  0  0  0  0  0  0  0  0
   18.2770    2.7760   12.4070 N   0  0  0  0  0  0  0  0  0  0  0  0
   18.1850    7.2540   13.1200 C   0  0  0  0  0  0  0  0  0  0  0  0
   20.0320   10.1490   14.3890 O   0  0  0  0  0  0  0  0  0  0  0  0
   21.1890   10.1720   15.1500 C   0  0  0  0  0  0  0  0  0  0  0  0
   20.1649    7.0793   13.8220 H   0  0  0  0  0  0  0  0  0  0  0  0
   18.9608    7.9231   14.9323 H   0  0  0  0  0  0  0  0  0  0  0  0
   19.1346    3.0380   14.1804 H   0  0  0  0  0  0  0  0  0  0  0  0
   19.2940    5.2193   14.3059 H   0  0  0  0  0  0  0  0  0  0  0  0
   18.9568    4.9909   12.4381 H   0  0  0  0  0  0  0  0  0  0  0  0
   20.7976    8.9619   12.9815 H   0  0  0  0  0  0  0  0  0  0  0  0
   18.9938    9.5166   12.8731 H   0  0  0  0  0  0  0  0  0  0  0  0
   20.0885    0.9068   10.8074 H   0  0  0  0  0  0  0  0  0  0  0  0
   18.8778    1.9063    9.9345 H   0  0  0  0  0  0  0  0  0  0  0  0
   20.6083    2.3883    9.9345 H   0  0  0  0  0  0  0  0  0  0  0  0
   20.2838    2.3724   12.5312 H   0  0  0  0  0  0  0  0  0  0  0  0
   19.7028    3.7810   11.4238 H   0  0  0  0  0  0  0  0  0  0  0  0
   16.2276   -1.3267   16.9633 H   0  0  0  0  0  0  0  0  0  0  0  0
   15.2256   -1.1342   15.6261 H   0  0  0  0  0  0  0  0  0  0  0  0
   17.8202    1.3217   14.9794 H   0  0  0  0  0  0  0  0  0  0  0  0
   17.9787    1.8095   12.6015 H   0  0  0  0  0  0  0  0  0  0  0  0
   17.3782    7.9989   13.1839 H   0  0  0  0  0  0  0  0  0  0  0  0
   18.6223    7.0672   12.1281 H   0  0  0  0  0  0  0  0  0  0  0  0
   20.9256   10.1668   16.2180 H   0  0  0  0  0  0  0  0  0  0  0  0
   21.7980    9.2858   14.9182 H   0  0  0  0  0  0  0  0  0  0  0  0
   21.7623   11.0817   14.9182 H   0  0  0  0  0  0  0  0  0  0  0  0
  2  3  2  0
  2  4  1  0
  4  5  1  0
  1  7  1  0
  8  9  1  0
  3 10  1  0
  6 11  1  0
  6 12  2  0
  6 13  2  0
  6 14  1  0
 10 14  1  0
  2 15  1  0
 14 15  2  0
  3 16  1  0
 16 17  2  0
 16 18  2  0
  5 19  1  0
 16 19  1  0
  4 20  1  0
  9 20  1  0
  1 21  1  0
 19 21  1  0
  7 22  1  0
 22 23  1  0
  1 24  1  0
  1 25  1  0
  4 26  1  1
  5 27  1  0
  5 28  1  0
  7 29  1  0
  7 30  1  0
  8 31  1  0
  8 32  1  0
  8 33  1  0
  9 34  1  0
  9 35  1  0
 11 36  1  0
 11 37  1  0
 15 38  1  0
 20 39  1  0
 21 40  1  0
 21 41  1  0
 23 42  1  0
 23 43  1  0
 23 44  1  0
M  END
>  <PDBID>  (1) 
4M2R

>  <PDB ID>  (1) 
4M2R

>  <Generic Name>  (1) 
Brinzolamide

>  <Brand Name>  (1) 
Azarga#Azopt#Sandoz Brinzolamide#Simbrinza

>  <DrugBank ID>  (1) 
DB01194

>  <ATC Codes>  (1) 
S01EC54#S01EC04

>  <Ligand ID>  (1) 
BZ1

>  <Target Name>  (1) 
Carbonic anhydrase 2

>  <UniProt ID>  (1) 
P00918

>  <PDB ID.1>  (1) 
4M2R

>  <Seq. Identity>  (1) 
100%

$$$$
