PDB_DB00203_99
     RDKit          3D

 79 82  0  0  0  0  0  0  0  0999 V2000
   -0.1320   61.4670   80.1200 C   0  0  0  0  0  0  0  0  0  0  0  0
   -0.1690   61.7920   81.5890 C   0  0  0  0  0  0  0  0  0  0  0  0
   -1.2610   62.8640   81.9270 C   0  0  0  0  0  0  0  0  0  0  0  0
   -1.1140   63.0310   83.4050 C   0  0  0  0  0  0  0  0  0  0  0  0
   -1.7980   62.2800   84.3700 N   0  0  0  0  0  0  0  0  0  0  0  0
   -1.4140   62.6960   85.6120 N   0  0  0  0  0  0  0  0  0  0  0  0
   -1.9480   62.1110   86.8450 C   0  0  0  0  0  0  0  0  0  0  0  0
   -0.4950   63.7000   85.4400 C   0  0  0  0  0  0  0  0  0  0  0  0
    0.2600   64.5190   86.3460 C   0  0  0  0  0  0  0  0  0  0  0  0
    0.1800   64.4220   87.5490 O   0  0  0  0  0  0  0  0  0  0  0  0
    1.1250   65.4740   85.8160 N   0  0  0  0  0  0  0  0  0  0  0  0
    1.3080   65.6840   84.4420 C   0  0  0  0  0  0  0  0  0  0  0  0
    0.5970   64.9070   83.5200 N   0  0  0  0  0  0  0  0  0  0  0  0
   -0.2930   63.9280   84.0460 C   0  0  0  0  0  0  0  0  0  0  0  0
    2.2230   66.7020   84.0580 C   0  0  0  0  0  0  0  0  0  0  0  0
    1.7310   67.6550   83.0840 C   0  0  0  0  0  0  0  0  0  0  0  0
    2.5680   68.7580   82.6170 C   0  0  0  0  0  0  0  0  0  0  0  0
    3.9520   68.8600   83.1800 C   0  0  0  0  0  0  0  0  0  0  0  0
    4.4660   67.9110   84.1620 C   0  0  0  0  0  0  0  0  0  0  0  0
    3.6090   66.8060   84.6330 C   0  0  0  0  0  0  0  0  0  0  0  0
    4.0190   65.8300   85.6200 O   0  0  0  0  0  0  0  0  0  0  0  0
    5.3040   65.8030   86.2730 C   0  0  0  0  0  0  0  0  0  0  0  0
    5.2340   64.6230   87.2280 C   0  0  0  0  0  0  0  0  0  0  0  0
    2.0230   69.8310   81.5610 S   0  0  1  0  0  4  0  0  0  0  0  0
    2.3130   69.6000   80.2940 O   0  0  0  0  0  0  0  0  0  0  0  0
    0.7120   69.8610   81.6110 O   0  0  0  0  0  0  0  0  0  0  0  0
    2.6900   71.1590   82.1270 N   0  0  0  0  0  0  0  0  0  0  0  0
    1.7240   72.0870   82.9630 C   0  0  0  0  0  0  0  0  0  0  0  0
    0.8200   73.0570   82.1780 C   0  0  0  0  0  0  0  0  0  0  0  0
    1.4260   73.6860   80.9560 N   0  0  0  0  0  0  0  0  0  0  0  0
    1.5570   75.1560   81.2010 C   0  0  0  0  0  0  0  0  0  0  0  0
    2.7520   73.1450   80.4160 C   0  0  0  0  0  0  0  0  0  0  0  0
    3.5390   72.0920   81.2850 C   0  0  0  0  0  0  0  0  0  0  0  0
   -0.0085   60.3820   79.9875 H   0  0  0  0  0  0  0  0  0  0  0  0
   -1.0726   61.7891   79.6494 H   0  0  0  0  0  0  0  0  0  0  0  0
    0.7121   61.9923   79.6494 H   0  0  0  0  0  0  0  0  0  0  0  0
   -0.3889   60.8721   82.1506 H   0  0  0  0  0  0  0  0  0  0  0  0
    0.8108   62.2057   81.8697 H   0  0  0  0  0  0  0  0  0  0  0  0
   -1.0649   63.8094   81.3999 H   0  0  0  0  0  0  0  0  0  0  0  0
   -2.2744   62.5651   81.6209 H   0  0  0  0  0  0  0  0  0  0  0  0
   -1.9288   63.7700   83.4025 H   0  0  0  0  0  0  0  0  0  0  0  0
   -2.8128   62.4169   84.2585 H   0  0  0  0  0  0  0  0  0  0  0  0
   -1.4933   62.6091   87.7140 H   0  0  0  0  0  0  0  0  0  0  0  0
   -3.0391   62.2479   86.8732 H   0  0  0  0  0  0  0  0  0  0  0  0
   -1.7124   61.0369   86.8732 H   0  0  0  0  0  0  0  0  0  0  0  0
   -1.3060   64.4431   85.4441 H   0  0  0  0  0  0  0  0  0  0  0  0
   -0.5520   65.2611   86.3518 H   0  0  0  0  0  0  0  0  0  0  0  0
    0.7488   65.1117   87.9742 H   0  0  0  0  0  0  0  0  0  0  0  0
    0.8123   66.3779   86.1982 H   0  0  0  0  0  0  0  0  0  0  0  0
    2.1222   64.9444   84.4374 H   0  0  0  0  0  0  0  0  0  0  0  0
    0.0421   65.5489   82.9361 H   0  0  0  0  0  0  0  0  0  0  0  0
   -1.1057   64.6693   84.0495 H   0  0  0  0  0  0  0  0  0  0  0  0
    2.5939   66.0616   83.2441 H   0  0  0  0  0  0  0  0  0  0  0  0
    1.4534   67.0744   82.1919 H   0  0  0  0  0  0  0  0  0  0  0  0
    0.9347   68.1747   83.6370 H   0  0  0  0  0  0  0  0  0  0  0  0
    2.1894   69.3909   83.4331 H   0  0  0  0  0  0  0  0  0  0  0  0
    4.6368   68.8127   82.3204 H   0  0  0  0  0  0  0  0  0  0  0  0
    3.8904   69.7867   83.7694 H   0  0  0  0  0  0  0  0  0  0  0  0
    5.3638   67.4523   83.7220 H   0  0  0  0  0  0  0  0  0  0  0  0
    4.6057   68.5269   85.0627 H   0  0  0  0  0  0  0  0  0  0  0  0
    3.9921   66.1647   83.8255 H   0  0  0  0  0  0  0  0  0  0  0  0
    6.1088   65.6579   85.5373 H   0  0  0  0  0  0  0  0  0  0  0  0
    5.5221   66.7459   86.7959 H   0  0  0  0  0  0  0  0  0  0  0  0
    5.2557   64.9889   88.2651 H   0  0  0  0  0  0  0  0  0  0  0  0
    4.3012   64.0662   87.0551 H   0  0  0  0  0  0  0  0  0  0  0  0
    6.0944   63.9598   87.0551 H   0  0  0  0  0  0  0  0  0  0  0  0
    3.0862   68.9841   80.2394 H   0  0  0  0  0  0  0  0  0  0  0  0
    0.4179   69.8677   82.5563 H   0  0  0  0  0  0  0  0  0  0  0  0
    1.0690   71.4323   83.5566 H   0  0  0  0  0  0  0  0  0  0  0  0
    2.3925   72.7356   83.5482 H   0  0  0  0  0  0  0  0  0  0  0  0
   -0.0740   72.5002   81.8606 H   0  0  0  0  0  0  0  0  0  0  0  0
    0.6139   73.8898   82.8664 H   0  0  0  0  0  0  0  0  0  0  0  0
    1.5740   75.3471   82.2841 H   0  0  0  0  0  0  0  0  0  0  0  0
    2.4912   75.5212   80.7495 H   0  0  0  0  0  0  0  0  0  0  0  0
    0.7020   75.6806   80.7495 H   0  0  0  0  0  0  0  0  0  0  0  0
    2.5399   72.6728   79.4454 H   0  0  0  0  0  0  0  0  0  0  0  0
    3.4131   74.0238   80.3901 H   0  0  0  0  0  0  0  0  0  0  0  0
    4.2050   72.6455   81.9633 H   0  0  0  0  0  0  0  0  0  0  0  0
    4.0651   71.4471   80.5658 H   0  0  0  0  0  0  0  0  0  0  0  0
  1  2  1  0
  2  3  1  0
  3  4  1  0
  4  5  1  0
  5  6  1  0
  6  7  1  0
  6  8  1  0
  8  9  1  0
  9 10  1  0
  9 11  1  0
 11 12  1  0
 12 13  1  0
  4 14  1  0
  8 14  1  0
 13 14  1  0
 12 15  1  0
 15 16  1  0
 16 17  1  0
 17 18  1  0
 18 19  1  0
 15 20  1  0
 19 20  1  0
 20 21  1  0
 21 22  1  0
 22 23  1  0
 17 24  1  0
 24 25  1  6
 24 26  1  0
 24 27  1  0
 27 28  1  0
 28 29  1  0
 29 30  1  0
 30 31  1  0
 30 32  1  0
 27 33  1  0
 32 33  1  0
  1 34  1  0
  1 35  1  0
  1 36  1  0
  2 37  1  0
  2 38  1  0
  3 39  1  0
  3 40  1  0
  4 41  1  0
  5 42  1  0
  7 43  1  0
  7 44  1  0
  7 45  1  0
  8 46  1  0
  9 47  1  0
 10 48  1  0
 11 49  1  0
 12 50  1  0
 13 51  1  0
 14 52  1  0
 15 53  1  0
 16 54  1  0
 16 55  1  0
 17 56  1  0
 18 57  1  0
 18 58  1  0
 19 59  1  0
 19 60  1  0
 20 61  1  0
 22 62  1  0
 22 63  1  0
 23 64  1  0
 23 65  1  0
 23 66  1  0
 25 67  1  0
 26 68  1  0
 28 69  1  0
 28 70  1  0
 29 71  1  0
 29 72  1  0
 31 73  1  0
 31 74  1  0
 31 75  1  0
 32 76  1  0
 32 77  1  0
 33 78  1  0
 33 79  1  0
M  END
>  <PDBID>  (1) 
1UDT

>  <PDB ID>  (1) 
1UDT

>  <Generic Name>  (1) 
Sildenafil

>  <Brand Name>  (1) 
Act Sildenafil#Apo-sildenafil#Apo-sildenafil R#Auro-sildenafil#Dom-sildenafil#Gd-sildenafil#Ipg-sildenafil#Jamp-sildenafil#M-sildenafil#Mar-sildenafil#Mint-sildenafil#Myl-sildenafil#Mylan-sildenafil#PMS-sildenafil#PMS-sildenafil R#Pb-sildenafil#Priva-sildenafil#Ran-sildenafil#Ratio-sildenafil#Ratio-sildenafil R#Revatio#Riva-sildenafil#Sandoz Sildenafil#Sildenafil#Sildenafil Citrate#Sildenafil R#Sildenafil Tablets#Teva-sildenafil#Van-sildenafil#Viagra

>  <DrugBank ID>  (1) 
DB00203

>  <ATC Codes>  (1) 
G04BE03

>  <Ligand ID>  (1) 
VIA

>  <Target Name>  (1) 
cGMP-specific 3',5'-cyclic phosphodiesterase

>  <UniProt ID>  (1) 
O76074

>  <PDB ID.1>  (1) 
1UDT

>  <Seq. Identity>  (1) 
94%

$$$$
