PDB_DB08910_98
     RDKit          3D

 45 47  0  0  0  0  0  0  0  0999 V2000
   -1.6970    0.5750  -11.3150 C   0  0  0  0  0  0  0  0  0  0  0  0
   -1.9280   -0.6380  -10.6440 C   0  0  0  0  0  0  0  0  0  0  0  0
   -3.1490   -0.8970  -10.0150 C   0  0  0  0  0  0  0  0  0  0  0  0
   -4.1020    0.1170  -10.0680 C   0  0  0  0  0  0  0  0  0  0  0  0
   -3.8530    1.3310  -10.7110 C   0  0  0  0  0  0  0  0  0  0  0  0
   -2.6620    1.5980  -11.3660 C   0  0  0  0  0  0  0  0  0  0  0  0
   -5.4960    0.2110   -9.5010 C   0  0  0  0  0  0  0  0  0  0  0  0
   -6.0010    1.4630   -9.8280 N   0  0  0  0  0  0  0  0  0  0  0  0
   -5.0840    2.1690  -10.5570 C   0  0  0  0  0  0  0  0  0  0  0  0
   -2.4850    2.7870  -12.0120 N   0  0  0  0  0  0  0  0  0  0  0  0
   -5.1710    3.2890  -11.0510 O   0  0  0  0  0  0  0  0  0  0  0  0
   -7.3360    1.9650   -9.5140 C   0  0  1  0  0  0  0  0  0  0  0  0
   -5.9930   -0.7440   -8.8810 O   0  0  0  0  0  0  0  0  0  0  0  0
   -7.2450    3.0590   -8.4200 C   0  0  0  0  0  0  0  0  0  0  0  0
   -8.0160    2.5080  -10.7580 C   0  0  0  0  0  0  0  0  0  0  0  0
   -8.9130    3.5230  -10.6320 N   0  0  0  0  0  0  0  0  0  0  0  0
   -9.2770    4.1170   -9.4650 C   0  0  0  0  0  0  0  0  0  0  0  0
   -8.6580    3.6390   -8.1670 C   0  0  0  0  0  0  0  0  0  0  0  0
   -7.7660    1.9950  -11.8450 O   0  0  0  0  0  0  0  0  0  0  0  0
  -10.1200    5.0000   -9.4280 O   0  0  0  0  0  0  0  0  0  0  0  0
   -0.8039    1.0180  -10.8501 H   0  0  0  0  0  0  0  0  0  0  0  0
   -1.6505    0.2510  -12.3652 H   0  0  0  0  0  0  0  0  0  0  0  0
   -1.7841   -1.4370  -11.3862 H   0  0  0  0  0  0  0  0  0  0  0  0
   -1.2296   -0.5794   -9.7962 H   0  0  0  0  0  0  0  0  0  0  0  0
   -3.5849   -1.7904  -10.4861 H   0  0  0  0  0  0  0  0  0  0  0  0
   -2.9080   -1.0149   -8.9482 H   0  0  0  0  0  0  0  0  0  0  0  0
   -3.7103    0.5342   -9.1286 H   0  0  0  0  0  0  0  0  0  0  0  0
   -3.4321    1.7379   -9.7797 H   0  0  0  0  0  0  0  0  0  0  0  0
   -3.0728    1.1644  -12.2897 H   0  0  0  0  0  0  0  0  0  0  0  0
   -5.0877    0.6201   -8.5651 H   0  0  0  0  0  0  0  0  0  0  0  0
   -5.4916    1.7407  -11.4846 H   0  0  0  0  0  0  0  0  0  0  0  0
   -2.3728    3.5408  -11.3191 H   0  0  0  0  0  0  0  0  0  0  0  0
   -1.6425    2.7350  -12.6022 H   0  0  0  0  0  0  0  0  0  0  0  0
   -5.2235    3.9648  -10.3294 H   0  0  0  0  0  0  0  0  0  0  0  0
   -7.9441    1.1311   -9.1334 H   0  0  0  0  0  0  0  0  0  0  0  0
   -5.9100   -0.5845   -7.9075 H   0  0  0  0  0  0  0  0  0  0  0  0
   -6.8552    2.6190   -7.4902 H   0  0  0  0  0  0  0  0  0  0  0  0
   -6.5687    3.8605   -8.7519 H   0  0  0  0  0  0  0  0  0  0  0  0
   -8.8273    1.7756  -10.6342 H   0  0  0  0  0  0  0  0  0  0  0  0
   -8.5469    4.2840  -11.2217 H   0  0  0  0  0  0  0  0  0  0  0  0
  -10.0902    3.3858   -9.3465 H   0  0  0  0  0  0  0  0  0  0  0  0
   -9.2963    2.8582   -7.7278 H   0  0  0  0  0  0  0  0  0  0  0  0
   -8.5736    4.4925   -7.4782 H   0  0  0  0  0  0  0  0  0  0  0  0
   -7.3368    1.1142  -11.7033 H   0  0  0  0  0  0  0  0  0  0  0  0
  -10.3282    5.2181   -8.4850 H   0  0  0  0  0  0  0  0  0  0  0  0
  1  2  1  0
  2  3  1  0
  3  4  1  0
  4  5  1  0
  1  6  1  0
  5  6  1  0
  4  7  1  0
  7  8  1  0
  5  9  1  0
  8  9  1  0
  6 10  1  0
  9 11  1  0
  8 12  1  0
  7 13  1  0
 12 14  1  0
 12 15  1  0
 15 16  1  0
 16 17  1  0
 14 18  1  0
 17 18  1  0
 15 19  1  0
 17 20  1  0
  1 21  1  0
  1 22  1  0
  2 23  1  0
  2 24  1  0
  3 25  1  0
  3 26  1  0
  4 27  1  0
  5 28  1  0
  6 29  1  0
  7 30  1  0
  9 31  1  0
 10 32  1  0
 10 33  1  0
 11 34  1  0
 12 35  1  1
 13 36  1  0
 14 37  1  0
 14 38  1  0
 15 39  1  0
 16 40  1  0
 17 41  1  0
 18 42  1  0
 18 43  1  0
 19 44  1  0
 20 45  1  0
M  END
>  <PDBID>  (1) 
4CI3

>  <PDB ID>  (1) 
4CI3

>  <Generic Name>  (1) 
Pomalidomide

>  <Brand Name>  (1) 
Pomalyst#Imnovid

>  <DrugBank ID>  (1) 
DB08910

>  <ATC Codes>  (1) 
L04AX06

>  <Ligand ID>  (1) 
Y70

>  <Target Name>  (1) 
Protein cereblon

>  <UniProt ID>  (1) 
Q96SW2

>  <PDB ID.1>  (1) 
4CI3

>  <Seq. Identity>  (1) 
86%

$$$$
