PDB_DB00412_99
     RDKit          3D

 60 62  0  0  0  0  0  0  0  0999 V2000
   -9.9120   15.6970   16.8950 S   0  0  0  0  0  0  0  0  0  0  0  0
  -10.3530   13.5350   18.3130 O   0  0  0  0  0  0  0  0  0  0  0  0
   -6.4130   14.2020   16.3090 O   0  0  0  0  0  0  0  0  0  0  0  0
  -10.0770   22.1050   15.1520 O   0  0  0  0  0  0  0  0  0  0  0  0
   -8.3250   13.6720   17.4000 N   0  0  0  0  0  0  0  0  0  0  0  0
  -12.8340   23.0730   14.4870 N   0  0  0  0  0  0  0  0  0  0  0  0
  -13.7340   22.3570   12.1720 N   0  0  0  0  0  0  0  0  0  0  0  0
   -9.5390   14.1510   17.6250 C   0  0  0  0  0  0  0  0  0  0  0  0
   -7.5780   14.4850   16.6290 C   0  0  0  0  0  0  0  0  0  0  0  0
   -8.2730   15.7830   16.1750 C   0  0  2  0  0  0  0  0  0  0  0  0
   -7.5390   17.0790   16.7330 C   0  0  0  0  0  0  0  0  0  0  0  0
   -8.2020   18.3800   16.2770 C   0  0  0  0  0  0  0  0  0  0  0  0
   -8.3510   18.6650   14.8570 C   0  0  0  0  0  0  0  0  0  0  0  0
   -8.9630   19.8760   14.4290 C   0  0  0  0  0  0  0  0  0  0  0  0
   -9.4530   20.8520   15.4330 C   0  0  0  0  0  0  0  0  0  0  0  0
   -9.2960   20.5410   16.8380 C   0  0  0  0  0  0  0  0  0  0  0  0
   -8.6790   19.3210   17.2610 C   0  0  0  0  0  0  0  0  0  0  0  0
  -10.4450   22.4640   13.7880 C   0  0  0  0  0  0  0  0  0  0  0  0
  -11.5270   23.5510   13.8770 C   0  0  0  0  0  0  0  0  0  0  0  0
  -13.0250   23.2060   15.9810 C   0  0  0  0  0  0  0  0  0  0  0  0
  -13.9450   22.4690   13.5780 C   0  0  0  0  0  0  0  0  0  0  0  0
  -14.6970   21.8270   11.3170 C   0  0  0  0  0  0  0  0  0  0  0  0
  -15.9540   21.3640   11.8090 C   0  0  0  0  0  0  0  0  0  0  0  0
  -16.2200   21.4520   13.2170 C   0  0  0  0  0  0  0  0  0  0  0  0
  -15.2390   21.9950   14.1110 C   0  0  0  0  0  0  0  0  0  0  0  0
  -10.1552   13.6847   19.2714 H   0  0  0  0  0  0  0  0  0  0  0  0
   -5.8693   14.0699   17.1257 H   0  0  0  0  0  0  0  0  0  0  0  0
   -7.8481   13.5461   18.3042 H   0  0  0  0  0  0  0  0  0  0  0  0
  -13.5425   23.3107   11.8333 H   0  0  0  0  0  0  0  0  0  0  0  0
   -9.1681   14.6650   18.5240 H   0  0  0  0  0  0  0  0  0  0  0  0
   -7.9496   13.9730   15.7291 H   0  0  0  0  0  0  0  0  0  0  0  0
   -8.2710   15.8622   15.0779 H   0  0  0  0  0  0  0  0  0  0  0  0
   -7.5527   17.0444   17.8324 H   0  0  0  0  0  0  0  0  0  0  0  0
   -6.5129   17.0743   16.3366 H   0  0  0  0  0  0  0  0  0  0  0  0
   -7.2215   18.8787   16.2742 H   0  0  0  0  0  0  0  0  0  0  0  0
   -7.3399   18.6513   14.4239 H   0  0  0  0  0  0  0  0  0  0  0  0
   -9.0599   17.8942   14.5204 H   0  0  0  0  0  0  0  0  0  0  0  0
   -8.2244   20.4031   13.8071 H   0  0  0  0  0  0  0  0  0  0  0  0
   -9.8851   19.5342   13.9361 H   0  0  0  0  0  0  0  0  0  0  0  0
  -10.4374   20.3611   15.4298 H   0  0  0  0  0  0  0  0  0  0  0  0
   -8.7030   21.3583   17.2743 H   0  0  0  0  0  0  0  0  0  0  0  0
  -10.3357   20.4139   17.1739 H   0  0  0  0  0  0  0  0  0  0  0  0
   -9.4167   18.7887   17.8794 H   0  0  0  0  0  0  0  0  0  0  0  0
   -7.7577   19.6599   17.7574 H   0  0  0  0  0  0  0  0  0  0  0  0
   -9.5665   22.8506   13.2506 H   0  0  0  0  0  0  0  0  0  0  0  0
  -10.8198   21.5856   13.2421 H   0  0  0  0  0  0  0  0  0  0  0  0
  -11.7333   23.9179   12.8607 H   0  0  0  0  0  0  0  0  0  0  0  0
  -11.1351   24.3369   14.5394 H   0  0  0  0  0  0  0  0  0  0  0  0
  -12.2304   22.6527   16.5029 H   0  0  0  0  0  0  0  0  0  0  0  0
  -12.9785   24.2681   16.2635 H   0  0  0  0  0  0  0  0  0  0  0  0
  -14.0050   22.7940   16.2635 H   0  0  0  0  0  0  0  0  0  0  0  0
  -14.3725   23.4722   13.4339 H   0  0  0  0  0  0  0  0  0  0  0  0
  -14.9218   22.6104   10.5783 H   0  0  0  0  0  0  0  0  0  0  0  0
  -14.2210   20.8981   10.9698 H   0  0  0  0  0  0  0  0  0  0  0  0
  -16.7355   21.9432   11.2954 H   0  0  0  0  0  0  0  0  0  0  0  0
  -15.9363   20.2826   11.6085 H   0  0  0  0  0  0  0  0  0  0  0  0
  -17.1239   22.0688   13.3289 H   0  0  0  0  0  0  0  0  0  0  0  0
  -16.2772   20.3973   13.5241 H   0  0  0  0  0  0  0  0  0  0  0  0
  -15.0121   21.2118   14.8493 H   0  0  0  0  0  0  0  0  0  0  0  0
  -15.7141   22.9141   14.4846 H   0  0  0  0  0  0  0  0  0  0  0  0
  1  8  1  0
  2  8  1  0
  5  8  1  0
  3  9  1  0
  5  9  1  0
  1 10  1  0
  9 10  1  0
 10 11  1  0
 11 12  1  0
 12 13  1  0
 13 14  1  0
  4 15  1  0
 14 15  1  0
 15 16  1  0
 12 17  1  0
 16 17  1  0
  4 18  1  0
  6 19  1  0
 18 19  1  0
  6 20  1  0
  6 21  1  0
  7 21  1  0
  7 22  1  0
 22 23  1  0
 23 24  1  0
 21 25  1  0
 24 25  1  0
  2 26  1  0
  3 27  1  0
  5 28  1  0
  7 29  1  0
  8 30  1  0
  9 31  1  0
 10 32  1  6
 11 33  1  0
 11 34  1  0
 12 35  1  0
 13 36  1  0
 13 37  1  0
 14 38  1  0
 14 39  1  0
 15 40  1  0
 16 41  1  0
 16 42  1  0
 17 43  1  0
 17 44  1  0
 18 45  1  0
 18 46  1  0
 19 47  1  0
 19 48  1  0
 20 49  1  0
 20 50  1  0
 20 51  1  0
 21 52  1  0
 22 53  1  0
 22 54  1  0
 23 55  1  0
 23 56  1  0
 24 57  1  0
 24 58  1  0
 25 59  1  0
 25 60  1  0
M  END
>  <PDBID>  (1) 
3DZY

>  <PDB ID>  (1) 
3DZY

>  <Generic Name>  (1) 
Rosiglitazone

>  <Brand Name>  (1) 
Apo-rosiglitazone#Avandamet#Avandaryl#Avandia#Avandia 2mg#Avandia 4mg#Avandia 8mg#Dom-rosiglitazone#Mylan-rosiglitazone#PHL-rosiglitazone#PMS-rosiglitazone#PMS-rosiglitazone-metformin#Teva-rosiglitazone#Blutab#DH-Rosidia#Diaben#Diaglinex#Gaudil#Gliximina#Naidi#Rogelin#Roglit#Romerol#Rosit#Rosix#Rossini#Sensulin#Sheng Ao#Sheng Min

>  <DrugBank ID>  (1) 
DB00412

>  <ATC Codes>  (1) 
A10BD03#A10BG02#A10BD04

>  <Ligand ID>  (1) 
BRL,RGZ

>  <Target Name>  (1) 
Peroxisome proliferator-activated receptor gamma

>  <UniProt ID>  (1) 
P37231

>  <PDB ID.1>  (1) 
3DZY

>  <Seq. Identity>  (1) 
97%

$$$$
