PDB_DB04573_98
     RDKit          3D

 45 48  0  0  0  0  0  0  0  0999 V2000
   -1.4630   -3.3610   23.5750 C   0  0  1  0  0  0  0  0  0  0  0  0
   -2.9440   -3.0080   23.3930 C   0  0  0  0  0  0  0  0  0  0  0  0
   -3.5920   -3.8390   22.2530 C   0  0  0  0  0  0  0  0  0  0  0  0
   -2.8150   -3.7090   20.9460 C   0  0  2  0  0  0  0  0  0  0  0  0
   -2.9790   -2.2850   20.4140 C   0  0  0  0  0  0  0  0  0  0  0  0
   -3.1330   -4.7040   19.8370 C   0  0  1  0  0  0  0  0  0  0  0  0
   -4.3150   -4.3850   19.0880 O   0  0  0  0  0  0  0  0  0  0  0  0
   -1.8810   -4.6570   18.9490 C   0  0  2  0  0  0  0  0  0  0  0  0
   -1.6230   -5.9330   18.3630 O   0  0  0  0  0  0  0  0  0  0  0  0
   -0.7280   -4.1630   19.8420 C   0  0  0  0  0  0  0  0  0  0  0  0
   -1.3710   -4.0850   21.2240 C   0  0  1  0  0  0  0  0  0  0  0  0
   -0.7180   -3.1870   22.2640 C   0  0  2  0  0  0  0  0  0  0  0  0
    0.7540   -3.5090   22.4280 C   0  0  0  0  0  0  0  0  0  0  0  0
    1.3830   -2.4930   23.3620 C   0  0  0  0  0  0  0  0  0  0  0  0
    0.5720   -2.3490   24.6350 C   0  0  0  0  0  0  0  0  0  0  0  0
    1.2030   -1.7560   25.7270 C   0  0  0  0  0  0  0  0  0  0  0  0
    0.5280   -1.5610   26.9240 C   0  0  0  0  0  0  0  0  0  0  0  0
    1.1710   -0.9880   27.9740 O   0  0  0  0  0  0  0  0  0  0  0  0
   -0.8010   -1.9430   27.0370 C   0  0  0  0  0  0  0  0  0  0  0  0
   -1.4350   -2.5110   25.9300 C   0  0  0  0  0  0  0  0  0  0  0  0
   -0.7630   -2.7100   24.7240 C   0  0  0  0  0  0  0  0  0  0  0  0
   -1.4539   -4.4219   23.8654 H   0  0  0  0  0  0  0  0  0  0  0  0
   -3.4782   -3.2129   24.3325 H   0  0  0  0  0  0  0  0  0  0  0  0
   -3.0143   -1.9432   23.1262 H   0  0  0  0  0  0  0  0  0  0  0  0
   -3.6127   -4.8976   22.5513 H   0  0  0  0  0  0  0  0  0  0  0  0
   -4.6095   -3.4558   22.0859 H   0  0  0  0  0  0  0  0  0  0  0  0
   -3.0596   -1.5850   21.2587 H   0  0  0  0  0  0  0  0  0  0  0  0
   -2.1054   -2.0200   19.8003 H   0  0  0  0  0  0  0  0  0  0  0  0
   -3.8899   -2.2255   19.8003 H   0  0  0  0  0  0  0  0  0  0  0  0
   -3.3536   -5.7008   20.2465 H   0  0  0  0  0  0  0  0  0  0  0  0
   -5.0570   -4.1847   19.7120 H   0  0  0  0  0  0  0  0  0  0  0  0
   -2.0109   -3.9709   18.0990 H   0  0  0  0  0  0  0  0  0  0  0  0
   -1.4874   -6.6035   19.0787 H   0  0  0  0  0  0  0  0  0  0  0  0
    0.1098   -4.8758   19.8357 H   0  0  0  0  0  0  0  0  0  0  0  0
   -0.3018   -3.2054   19.5083 H   0  0  0  0  0  0  0  0  0  0  0  0
   -1.2465   -5.0568   21.7242 H   0  0  0  0  0  0  0  0  0  0  0  0
   -0.7764   -2.1391   21.9347 H   0  0  0  0  0  0  0  0  0  0  0  0
    0.8654   -4.5178   22.8522 H   0  0  0  0  0  0  0  0  0  0  0  0
    1.2531   -3.4709   21.4485 H   0  0  0  0  0  0  0  0  0  0  0  0
    2.4005   -2.8226   23.6192 H   0  0  0  0  0  0  0  0  0  0  0  0
    1.4104   -1.5186   22.8522 H   0  0  0  0  0  0  0  0  0  0  0  0
    2.2522   -1.4376   25.6389 H   0  0  0  0  0  0  0  0  0  0  0  0
    0.6935   -0.8470   28.8297 H   0  0  0  0  0  0  0  0  0  0  0  0
   -1.3457   -1.8009   27.9820 H   0  0  0  0  0  0  0  0  0  0  0  0
   -2.4908   -2.8089   26.0111 H   0  0  0  0  0  0  0  0  0  0  0  0
  1  2  1  0
  2  3  1  0
  3  4  1  0
  4  5  1  6
  4  6  1  0
  6  7  1  0
  6  8  1  0
  8  9  1  0
  8 10  1  0
  4 11  1  0
 10 11  1  0
  1 12  1  0
 11 12  1  0
 12 13  1  0
 13 14  1  0
 14 15  1  0
 15 16  2  0
 16 17  1  0
 17 18  1  0
 17 19  2  0
 19 20  1  0
  1 21  1  0
 15 21  1  0
 20 21  2  0
  1 22  1  1
  2 23  1  0
  2 24  1  0
  3 25  1  0
  3 26  1  0
  5 27  1  0
  5 28  1  0
  5 29  1  0
  6 30  1  1
  7 31  1  0
  8 32  1  6
  9 33  1  0
 10 34  1  0
 10 35  1  0
 11 36  1  1
 12 37  1  6
 13 38  1  0
 13 39  1  0
 14 40  1  0
 14 41  1  0
 16 42  1  0
 18 43  1  0
 19 44  1  0
 20 45  1  0
M  END
$$$$
