PDB_DB00843_98
     RDKit          3D

 71 74  0  0  0  0  0  0  0  0999 V2000
    1.0570   60.0560   71.2400 C   0  0  0  0  0  0  0  0  0  0  0  0
    0.1880   61.0790   71.6280 C   0  0  1  0  0  0  0  0  0  0  0  0
    0.3470   62.4150   71.1710 C   0  0  0  0  0  0  0  0  0  0  0  0
    1.4470   62.7200   70.2700 C   0  0  1  0  0  0  0  0  0  0  0  0
    2.3060   61.6650   69.8810 C   0  0  1  0  0  0  0  0  0  0  0  0
    2.1400   60.3710   70.3620 C   0  0  0  0  0  0  0  0  0  0  0  0
    3.3650   62.0940   69.0160 C   0  0  0  0  0  0  0  0  0  0  0  0
    3.0860   63.5900   68.7400 C   0  0  1  0  0  0  0  0  0  0  0  0
    1.8390   63.9920   69.5580 C   0  0  0  0  0  0  0  0  0  0  0  0
    4.1050   64.5760   69.2450 C   0  0  0  0  0  0  0  0  0  0  0  0
    4.3070   65.8480   68.5330 C   0  0  1  0  0  0  0  0  0  0  0  0
    5.0060   65.6370   67.1950 C   0  0  0  0  0  0  0  0  0  0  0  0
    5.1610   66.9190   66.4250 C   0  0  0  0  0  0  0  0  0  0  0  0
    3.8540   67.6350   66.2370 N   0  0  0  0  0  0  0  0  0  0  0  0
    3.1770   67.9970   67.5350 C   0  0  0  0  0  0  0  0  0  0  0  0
    3.0040   66.7080   68.3900 C   0  0  0  0  0  0  0  0  0  0  0  0
    3.7430   68.9430   65.4830 C   0  0  0  0  0  0  0  0  0  0  0  0
    3.9920   68.8470   63.9880 C   0  0  1  0  0  0  0  0  0  0  0  0
    2.8640   68.6750   63.1260 C   0  0  0  0  0  0  0  0  0  0  0  0
    3.0520   68.4320   61.7230 C   0  0  0  0  0  0  0  0  0  0  0  0
    4.3450   68.3900   61.1950 C   0  0  0  0  0  0  0  0  0  0  0  0
    5.4790   68.5980   62.0460 C   0  0  0  0  0  0  0  0  0  0  0  0
    5.3100   68.8690   63.4400 C   0  0  0  0  0  0  0  0  0  0  0  0
    4.3250   61.3750   68.6150 O   0  0  0  0  0  0  0  0  0  0  0  0
    0.8900   58.7620   71.6440 O   0  0  0  0  0  0  0  0  0  0  0  0
    1.8420   57.6470   71.2650 C   0  0  0  0  0  0  0  0  0  0  0  0
   -0.9250   61.0250   72.3210 O   0  0  0  0  0  0  0  0  0  0  0  0
   -1.4340   59.8620   72.9280 C   0  0  0  0  0  0  0  0  0  0  0  0
    0.4161   59.8407   70.3723 H   0  0  0  0  0  0  0  0  0  0  0  0
    0.8319   61.2981   72.4925 H   0  0  0  0  0  0  0  0  0  0  0  0
   -0.5825   62.6922   70.6522 H   0  0  0  0  0  0  0  0  0  0  0  0
    0.5846   62.9821   72.0831 H   0  0  0  0  0  0  0  0  0  0  0  0
    2.0958   62.9300   71.1331 H   0  0  0  0  0  0  0  0  0  0  0  0
    2.9706   61.8942   70.7270 H   0  0  0  0  0  0  0  0  0  0  0  0
    3.0653   60.1131   70.8980 H   0  0  0  0  0  0  0  0  0  0  0  0
    1.8963   59.7995   69.4543 H   0  0  0  0  0  0  0  0  0  0  0  0
    2.7601   61.8194   68.1392 H   0  0  0  0  0  0  0  0  0  0  0  0
    3.0334   63.6446   67.6426 H   0  0  0  0  0  0  0  0  0  0  0  0
    1.0304   64.3351   68.8959 H   0  0  0  0  0  0  0  0  0  0  0  0
    2.0359   64.8230   70.2512 H   0  0  0  0  0  0  0  0  0  0  0  0
    3.8186   64.8301   70.2762 H   0  0  0  0  0  0  0  0  0  0  0  0
    5.0607   64.0500   69.1039 H   0  0  0  0  0  0  0  0  0  0  0  0
    4.9765   66.4445   69.1702 H   0  0  0  0  0  0  0  0  0  0  0  0
    6.0037   65.2124   67.3800 H   0  0  0  0  0  0  0  0  0  0  0  0
    4.3853   64.9560   66.5942 H   0  0  0  0  0  0  0  0  0  0  0  0
    5.8499   67.5790   66.9726 H   0  0  0  0  0  0  0  0  0  0  0  0
    5.5519   66.6667   65.4282 H   0  0  0  0  0  0  0  0  0  0  0  0
    3.7944   68.7237   68.0833 H   0  0  0  0  0  0  0  0  0  0  0  0
    2.1927   68.4432   67.3301 H   0  0  0  0  0  0  0  0  0  0  0  0
    2.2296   66.0842   67.9197 H   0  0  0  0  0  0  0  0  0  0  0  0
    2.7313   67.0370   69.4036 H   0  0  0  0  0  0  0  0  0  0  0  0
    2.7280   69.3390   65.6348 H   0  0  0  0  0  0  0  0  0  0  0  0
    4.5321   69.5961   65.8840 H   0  0  0  0  0  0  0  0  0  0  0  0
    4.0922   67.7550   64.0748 H   0  0  0  0  0  0  0  0  0  0  0  0
    2.2926   67.8218   63.5203 H   0  0  0  0  0  0  0  0  0  0  0  0
    2.3838   69.6645   63.1447 H   0  0  0  0  0  0  0  0  0  0  0  0
    2.5855   67.4606   61.5022 H   0  0  0  0  0  0  0  0  0  0  0  0
    2.6099   69.3200   61.2477 H   0  0  0  0  0  0  0  0  0  0  0  0
    4.4689   67.3962   60.7400 H   0  0  0  0  0  0  0  0  0  0  0  0
    4.3706   69.2628   60.5261 H   0  0  0  0  0  0  0  0  0  0  0  0
    6.0945   67.6890   61.9758 H   0  0  0  0  0  0  0  0  0  0  0  0
    5.9004   69.5396   61.6643 H   0  0  0  0  0  0  0  0  0  0  0  0
    5.7217   69.8718   63.6271 H   0  0  0  0  0  0  0  0  0  0  0  0
    5.8204   68.0318   63.9385 H   0  0  0  0  0  0  0  0  0  0  0  0
    4.8124   61.0100   69.3956 H   0  0  0  0  0  0  0  0  0  0  0  0
    2.2410   57.1796   72.1773 H   0  0  0  0  0  0  0  0  0  0  0  0
    1.3052   56.8925   70.6712 H   0  0  0  0  0  0  0  0  0  0  0  0
    2.6713   58.0589   70.6712 H   0  0  0  0  0  0  0  0  0  0  0  0
   -1.3873   59.9688   74.0218 H   0  0  0  0  0  0  0  0  0  0  0  0
   -2.4791   59.7141   72.6183 H   0  0  0  0  0  0  0  0  0  0  0  0
   -0.8335   58.9939   72.6183 H   0  0  0  0  0  0  0  0  0  0  0  0
  1  2  1  0
  2  3  1  0
  3  4  1  0
  4  5  1  0
  1  6  1  0
  5  6  1  0
  5  7  1  0
  7  8  1  0
  4  9  1  0
  8  9  1  0
  8 10  1  0
 10 11  1  0
 11 12  1  0
 12 13  1  0
 13 14  1  0
 14 15  1  0
 11 16  1  0
 15 16  1  0
 14 17  1  0
 17 18  1  0
 18 19  1  0
 19 20  1  0
 20 21  1  0
 21 22  1  0
 18 23  1  0
 22 23  1  0
  7 24  1  0
  1 25  1  0
 25 26  1  0
  2 27  1  0
 27 28  1  0
  1 29  1  0
  2 30  1  1
  3 31  1  0
  3 32  1  0
  4 33  1  1
  5 34  1  6
  6 35  1  0
  6 36  1  0
  7 37  1  0
  8 38  1  6
  9 39  1  0
  9 40  1  0
 10 41  1  0
 10 42  1  0
 11 43  1  1
 12 44  1  0
 12 45  1  0
 13 46  1  0
 13 47  1  0
 15 48  1  0
 15 49  1  0
 16 50  1  0
 16 51  1  0
 17 52  1  0
 17 53  1  0
 18 54  1  6
 19 55  1  0
 19 56  1  0
 20 57  1  0
 20 58  1  0
 21 59  1  0
 21 60  1  0
 22 61  1  0
 22 62  1  0
 23 63  1  0
 23 64  1  0
 24 65  1  0
 26 66  1  0
 26 67  1  0
 26 68  1  0
 28 69  1  0
 28 70  1  0
 28 71  1  0
M  END
>  <PDBID>  (1) 
1EVE

>  <PDB ID>  (1) 
1EVE

>  <Generic Name>  (1) 
Donepezil

>  <Brand Name>  (1) 
Accel-donepezil#Act Donepezil#Act Donepezil ODT#Ag-donepezil#Apo-donepezil#Aricept#Aricept ODT#Aricept Rdt#Auro-donepezil#Bio-donepezil#Dom-donepezil#Donepezil#Donepezil Hydrochloride#Donepezil Hydrochloride 10 mg#Donepezil Hydrochloride 10mg#Donepezil Hydrochloride 5 mg#Donepezil Hydrochloride ODT#Donepezil Hydrochloride Tablets#Donepezil Hydrochloride Tablets USP#Donepezil Hyrochloride 5mg#Ecl-donepezil#Ipg-donepezil#Jamp-donepezil#Jamp-donepezil Tablets#Mar-donepezil#Mint-donepezil#Mylan-donepezil#Namzaric#Nat-donepezil#PMS-donepezil#Priva-donepezil#Ran-donepezil#Riva-donepezil#Sandoz Donepezil#Sandoz Donepezil ODT#Septa Donepezil#Teva-donepezil#Van-donepezil#Alzepil#Davia#Depzil#Donecept#Donecil#Donep#Donepex#Donesyn#Dopezil#Eranz#Memac#Nomi-Nox#Pezale#Redumas#Zolpezil

>  <DrugBank ID>  (1) 
DB00843

>  <ATC Codes>  (1) 
N06DA02#N06DA52#N06DA53

>  <Ligand ID>  (1) 
E20

>  <Target Name>  (1) 
Acetylcholinesterase

>  <UniProt ID>  (1) 
P22303

>  <PDB ID.1>  (1) 
1EVE

>  <Seq. Identity>  (1) 
57%

$$$$
