PDB_DB00367_99
     RDKit          3D

118124  0  0  0  0  0  0  0  0999 V2000
   -4.8860   -8.5980   28.5720 C   0  0  0  0  0  0  0  0  0  0  0  0
   -4.9260   -8.9990   30.0690 C   0  0  0  0  0  0  0  0  0  0  0  0
   -4.0160  -10.3760   30.2770 C   0  0  1  0  0  0  0  0  0  0  0  0
   -2.7840  -10.6380   29.5590 C   0  0  0  0  0  0  0  0  0  0  0  0
   -2.4500   -9.7140   28.5190 C   0  0  1  0  0  0  0  0  0  0  0  0
   -1.0260   -9.9850   27.8390 C   0  0  0  0  0  0  0  0  0  0  0  0
   -0.8420   -9.7060   26.3640 C   0  0  0  0  0  0  0  0  0  0  0  0
   -1.6680   -8.4450   25.8010 C   0  0  2  0  0  0  0  0  0  0  0  0
   -3.2140   -8.2700   26.4670 C   0  0  1  0  0  0  0  0  0  0  0  0
   -3.3630   -8.5230   27.9640 C   0  0  1  0  0  0  0  0  0  0  0  0
   -4.1750   -7.2030   25.8290 C   0  0  0  0  0  0  0  0  0  0  0  0
   -3.9600   -6.9480   24.3700 C   0  0  0  0  0  0  0  0  0  0  0  0
   -2.3660   -6.8230   23.7430 C   0  0  1  0  0  0  0  0  0  0  0  0
   -1.5160   -8.1230   24.2630 C   0  0  1  0  0  0  0  0  0  0  0  0
   -0.2280   -8.2240   23.3660 C   0  0  0  0  0  0  0  0  0  0  0  0
   -0.5750   -7.4420   22.0260 C   0  0  0  0  0  0  0  0  0  0  0  0
   -2.1420   -6.9290   22.1320 C   0  0  1  0  0  0  0  0  0  0  0  0
   -1.6770   -5.4790   24.3900 C   0  0  0  0  0  0  0  0  0  0  0  0
   -2.5540   -4.1300   24.2380 C   0  0  0  0  0  0  0  0  0  0  0  0
   -3.2530   -7.8930   21.5730 C   0  0  0  0  0  0  0  0  0  0  0  0
   -4.3420   -8.8920   21.1950 C   0  0  0  0  0  0  0  0  0  0  0  0
   -4.2840  -11.2270   31.1220 O   0  0  0  0  0  0  0  0  0  0  0  0
   -2.3750   -5.8520   21.4050 O   0  0  0  0  0  0  0  0  0  0  0  0
   11.3710   16.3310    5.0690 C   0  0  0  0  0  0  0  0  0  0  0  0
   12.0410   16.4070    3.6760 C   0  0  0  0  0  0  0  0  0  0  0  0
   13.7030   16.4980    3.8530 C   0  0  1  0  0  0  0  0  0  0  0  0
   14.4490   15.7930    4.8700 C   0  0  0  0  0  0  0  0  0  0  0  0
   13.6630   15.1060    5.8620 C   0  0  1  0  0  0  0  0  0  0  0  0
   14.5040   14.2800    6.8690 C   0  0  0  0  0  0  0  0  0  0  0  0
   13.9980   14.0760    8.2630 C   0  0  0  0  0  0  0  0  0  0  0  0
   12.4160   14.0890    8.4710 C   0  0  2  0  0  0  0  0  0  0  0  0
   11.5850   15.1180    7.4880 C   0  0  1  0  0  0  0  0  0  0  0  0
   12.0400   15.1780    6.0370 C   0  0  1  0  0  0  0  0  0  0  0  0
   10.0480   15.3560    7.8310 C   0  0  0  0  0  0  0  0  0  0  0  0
    9.6890   15.2290    9.3030 C   0  0  0  0  0  0  0  0  0  0  0  0
   10.3260   13.9600   10.1310 C   0  0  1  0  0  0  0  0  0  0  0  0
   11.9280   13.9270    9.8870 C   0  0  1  0  0  0  0  0  0  0  0  0
   12.5460   13.0220   10.9730 C   0  0  0  0  0  0  0  0  0  0  0  0
   11.5060   12.9760   12.1290 C   0  0  0  0  0  0  0  0  0  0  0  0
   10.2950   13.9130   11.7680 C   0  0  1  0  0  0  0  0  0  0  0  0
    9.6330   12.6040    9.4680 C   0  0  0  0  0  0  0  0  0  0  0  0
    7.9600   12.5990    9.4770 C   0  0  0  0  0  0  0  0  0  0  0  0
   10.6940   15.3450   12.3590 C   0  0  0  0  0  0  0  0  0  0  0  0
   11.2050   16.6870   12.7530 C   0  0  0  0  0  0  0  0  0  0  0  0
   14.4010   17.1190    3.0670 O   0  0  0  0  0  0  0  0  0  0  0  0
    9.2270   13.4960   12.3450 O   0  0  0  0  0  0  0  0  0  0  0  0
   -5.4565   -9.3411   27.9955 H   0  0  0  0  0  0  0  0  0  0  0  0
   -5.3205   -7.5907   28.4913 H   0  0  0  0  0  0  0  0  0  0  0  0
   -4.5109   -8.1850   30.6814 H   0  0  0  0  0  0  0  0  0  0  0  0
   -5.9647   -9.1858   30.3793 H   0  0  0  0  0  0  0  0  0  0  0  0
   -4.5868  -10.8737   29.4792 H   0  0  0  0  0  0  0  0  0  0  0  0
   -1.9619  -10.6321   30.2899 H   0  0  0  0  0  0  0  0  0  0  0  0
   -2.9362  -11.6045   29.0563 H   0  0  0  0  0  0  0  0  0  0  0  0
   -1.9715   -9.0548   29.2583 H   0  0  0  0  0  0  0  0  0  0  0  0
   -0.2917   -9.3666   28.3760 H   0  0  0  0  0  0  0  0  0  0  0  0
   -0.9067  -11.0760   27.9133 H   0  0  0  0  0  0  0  0  0  0  0  0
    0.2272   -9.5218   26.1825 H   0  0  0  0  0  0  0  0  0  0  0  0
   -1.2299  -10.5884   25.8340 H   0  0  0  0  0  0  0  0  0  0  0  0
   -1.1203   -7.5866   26.2171 H   0  0  0  0  0  0  0  0  0  0  0  0
   -3.6700   -9.1851   26.0611 H   0  0  0  0  0  0  0  0  0  0  0  0
   -2.9697   -7.5769   28.3642 H   0  0  0  0  0  0  0  0  0  0  0  0
   -5.2095   -7.5511   25.9654 H   0  0  0  0  0  0  0  0  0  0  0  0
   -3.9618   -6.2531   26.3411 H   0  0  0  0  0  0  0  0  0  0  0  0
   -4.4499   -7.7708   23.8288 H   0  0  0  0  0  0  0  0  0  0  0  0
   -4.3660   -5.9354   24.2290 H   0  0  0  0  0  0  0  0  0  0  0  0
   -1.9090   -9.1368   24.0962 H   0  0  0  0  0  0  0  0  0  0  0  0
    0.6295   -7.7563   23.8720 H   0  0  0  0  0  0  0  0  0  0  0  0
    0.0467   -9.2702   23.1661 H   0  0  0  0  0  0  0  0  0  0  0  0
    0.0951   -6.5770   21.9133 H   0  0  0  0  0  0  0  0  0  0  0  0
   -0.4438   -8.0984   21.1531 H   0  0  0  0  0  0  0  0  0  0  0  0
   -1.5117   -5.6611   25.4622 H   0  0  0  0  0  0  0  0  0  0  0  0
   -0.7451   -5.3081   23.8311 H   0  0  0  0  0  0  0  0  0  0  0  0
   -2.8061   -3.7422   25.2360 H   0  0  0  0  0  0  0  0  0  0  0  0
   -1.9734   -3.3753   23.6873 H   0  0  0  0  0  0  0  0  0  0  0  0
   -3.4794   -4.3544   23.6873 H   0  0  0  0  0  0  0  0  0  0  0  0
   -3.8382   -7.0495   21.1780 H   0  0  0  0  0  0  0  0  0  0  0  0
   -2.4833   -8.6418   21.3346 H   0  0  0  0  0  0  0  0  0  0  0  0
   -4.7931   -9.3059   22.1089 H   0  0  0  0  0  0  0  0  0  0  0  0
   -5.1162   -8.3834   20.6018 H   0  0  0  0  0  0  0  0  0  0  0  0
   -3.9019   -9.7071   20.6018 H   0  0  0  0  0  0  0  0  0  0  0  0
   -4.1632  -10.8433   32.0266 H   0  0  0  0  0  0  0  0  0  0  0  0
   -2.5419   -5.0804   22.0024 H   0  0  0  0  0  0  0  0  0  0  0  0
   11.4752   17.3083    5.5629 H   0  0  0  0  0  0  0  0  0  0  0  0
   10.3155   16.0623    4.9147 H   0  0  0  0  0  0  0  0  0  0  0  0
   11.7837   15.5078    3.0971 H   0  0  0  0  0  0  0  0  0  0  0  0
   11.6816   17.3022    3.1475 H   0  0  0  0  0  0  0  0  0  0  0  0
   13.5836   17.3537    4.5338 H   0  0  0  0  0  0  0  0  0  0  0  0
   15.0837   15.0483    4.3674 H   0  0  0  0  0  0  0  0  0  0  0  0
   15.0109   16.5647    5.4166 H   0  0  0  0  0  0  0  0  0  0  0  0
   13.5942   14.2297    5.2006 H   0  0  0  0  0  0  0  0  0  0  0  0
   14.6388   13.2810    6.4287 H   0  0  0  0  0  0  0  0  0  0  0  0
   15.4081   14.8904    7.0104 H   0  0  0  0  0  0  0  0  0  0  0  0
   14.3700   13.1012    8.6113 H   0  0  0  0  0  0  0  0  0  0  0  0
   14.3667   14.9438    8.8295 H   0  0  0  0  0  0  0  0  0  0  0  0
   12.1038   13.1161    8.0635 H   0  0  0  0  0  0  0  0  0  0  0  0
   11.9514   16.1044    7.8086 H   0  0  0  0  0  0  0  0  0  0  0  0
   11.6045   14.2466    5.6460 H   0  0  0  0  0  0  0  0  0  0  0  0
    9.7780   16.3699    7.5006 H   0  0  0  0  0  0  0  0  0  0  0  0
    9.4913   14.5630    7.3102 H   0  0  0  0  0  0  0  0  0  0  0  0
   10.0214   16.1500    9.8042 H   0  0  0  0  0  0  0  0  0  0  0  0
    8.6030   15.0545    9.3133 H   0  0  0  0  0  0  0  0  0  0  0  0
   12.4695   14.8683   10.0625 H   0  0  0  0  0  0  0  0  0  0  0  0
   12.7215   12.0116   10.5752 H   0  0  0  0  0  0  0  0  0  0  0  0
   13.5169   13.4079   11.3171 H   0  0  0  0  0  0  0  0  0  0  0  0
   11.1473   11.9446   12.2612 H   0  0  0  0  0  0  0  0  0  0  0  0
   11.9745   13.3186   13.0634 H   0  0  0  0  0  0  0  0  0  0  0  0
    9.9704   12.5221    8.4242 H   0  0  0  0  0  0  0  0  0  0  0  0
    9.9498   11.7558   10.0927 H   0  0  0  0  0  0  0  0  0  0  0  0
    7.5989   12.5979   10.5160 H   0  0  0  0  0  0  0  0  0  0  0  0
    7.5879   13.4960    8.9604 H   0  0  0  0  0  0  0  0  0  0  0  0
    7.5932   11.6998    8.9604 H   0  0  0  0  0  0  0  0  0  0  0  0
    9.6564   15.7063   12.3049 H   0  0  0  0  0  0  0  0  0  0  0  0
   11.7032   14.9475   12.5419 H   0  0  0  0  0  0  0  0  0  0  0  0
   11.2332   16.7610   13.8501 H   0  0  0  0  0  0  0  0  0  0  0  0
   12.2190   16.8261   12.3500 H   0  0  0  0  0  0  0  0  0  0  0  0
   10.5403   17.4653   12.3500 H   0  0  0  0  0  0  0  0  0  0  0  0
   15.0386   17.6863    3.5688 H   0  0  0  0  0  0  0  0  0  0  0  0
    9.3433   13.5414   13.3271 H   0  0  0  0  0  0  0  0  0  0  0  0
  1  2  1  0
  2  3  1  0
  3  4  1  0
  4  5  1  0
  5  6  1  0
  6  7  1  0
  7  8  1  0
  8  9  1  0
  1 10  1  0
  5 10  1  0
  9 10  1  0
  9 11  1  0
 11 12  1  0
 12 13  1  0
  8 14  1  0
 13 14  1  0
 14 15  1  0
 15 16  1  0
 13 17  1  0
 16 17  1  0
 13 18  1  1
 18 19  1  0
 17 20  1  0
 20 21  1  0
  3 22  1  0
 17 23  1  6
 24 25  1  0
 25 26  1  0
 26 27  1  0
 27 28  1  0
 28 29  1  0
 29 30  1  0
 30 31  1  0
 31 32  1  0
 24 33  1  0
 28 33  1  0
 32 33  1  0
 32 34  1  0
 34 35  1  0
 35 36  1  0
 31 37  1  0
 36 37  1  0
 37 38  1  0
 38 39  1  0
 36 40  1  0
 39 40  1  0
 36 41  1  6
 41 42  1  0
 40 43  1  0
 43 44  1  0
 26 45  1  0
 40 46  1  6
  1 47  1  0
  1 48  1  0
  2 49  1  0
  2 50  1  0
  3 51  1  6
  4 52  1  0
  4 53  1  0
  5 54  1  1
  6 55  1  0
  6 56  1  0
  7 57  1  0
  7 58  1  0
  8 59  1  1
  9 60  1  6
 10 61  1  1
 11 62  1  0
 11 63  1  0
 12 64  1  0
 12 65  1  0
 14 66  1  6
 15 67  1  0
 15 68  1  0
 16 69  1  0
 16 70  1  0
 18 71  1  0
 18 72  1  0
 19 73  1  0
 19 74  1  0
 19 75  1  0
 20 76  1  0
 20 77  1  0
 21 78  1  0
 21 79  1  0
 21 80  1  0
 22 81  1  0
 23 82  1  0
 24 83  1  0
 24 84  1  0
 25 85  1  0
 25 86  1  0
 26 87  1  1
 27 88  1  0
 27 89  1  0
 28 90  1  6
 29 91  1  0
 29 92  1  0
 30 93  1  0
 30 94  1  0
 31 95  1  6
 32 96  1  1
 33 97  1  6
 34 98  1  0
 34 99  1  0
 35100  1  0
 35101  1  0
 37102  1  1
 38103  1  0
 38104  1  0
 39105  1  0
 39106  1  0
 41107  1  0
 41108  1  0
 42109  1  0
 42110  1  0
 42111  1  0
 43112  1  0
 43113  1  0
 44114  1  0
 44115  1  0
 44116  1  0
 45117  1  0
 46118  1  0
M  END
>  <PDBID>  (1) 
3D90

>  <PDB ID>  (1) 
3D90

>  <Generic Name>  (1) 
Levonorgestrel

>  <Brand Name>  (1) 
Afirmelle#Aftera#Afterpill#Alesse 21#Alesse 28#Altavera#Alysena 21#Alysena 28#Amethia#Amethyst#Athentia Next#Aubra#Aviane#Aviane 21#Aviane 28#Aviane 28 Day#Ayuna#Backup Plan#Backup Plan Onestep#Camrese#Camrese Lo#Chateal#Climara Pro#Contingency#Contingency One#Daysee#Delyla#Econtra Ez#Enpresse#Esme 21#Esme 28#Falessa#Fallback Solo#Falmina#Her Style#Indayo#Introvale#Jaydess#Jolessa#Kurvelo#Kyleena#Larissia#Lessina#Levonest#Levonorgestrel#Levonorgestrel Emergency Contraceptive#Levonorgestrel Tablets, 0.75mg#Levonorgestrel and Ethinyl Estradiol#Levonorgestrel and Ethinyl Estradiol Tablets, 0.1 Mg/0.02 mg#Levonorgestrel and Ethinyl Estradiol and Ethinyl Estradiol#Levora#Liletta#Lillow#Lutera#Lutera 21#Lutera 28#Marlissa#Min-ovral 21#Min-ovral 21 Tab#Min-ovral 28#Min-ovral 28 Tab#Mirena#Morning After#My Way#Myzilra#Next Choice#Next Choice One Dose#Norlevo#Norplant System Kit 36mg/implant#Opcicon One-step#Option 2#Orsythia#Ovima 21#Ovima 28#Plan B#Plan B One-step#Portia#Portia 21#Portia 28#Preven Emergency Contraceptive#Preven Tablets#Quasense#React#Seasonale#Seasonique#Setlakin#Skyla#Sronyx#Take Action#Teva-levonorgestrel#Triphasil 21#Triphasil 21 Tab#Triphasil 28#Triphasil 28 Tab#Triquilar 21#Triquilar 28#Trivora#Vienva Tm#Jadelle#Levonelle#Medonor#Microlut#Microval#Neogest#Norgeston#Norplant#Postinor

>  <DrugBank ID>  (1) 
DB00367

>  <ATC Codes>  (1) 
G03FA11#G03FB09#G03AC03#G03AB03#G03AA07#G03AD01

>  <Ligand ID>  (1) 
NOG

>  <Target Name>  (1) 
Estrogen receptor

>  <UniProt ID>  (1) 
P03372

>  <PDB ID.1>  (1) 
3D90

>  <Seq. Identity>  (1) 
31%

$$$$
