PDB_DB08873_99
     RDKit          3D

 82 84  0  0  0  0  0  0  0  0999 V2000
  191.5920  -10.1860   48.7500 C   0  0  0  0  0  0  0  0  0  0  0  0
  192.0660  -11.1660   49.3350 O   0  0  0  0  0  0  0  0  0  0  0  0
  190.2990   -9.8640   48.8010 N   0  0  0  0  0  0  0  0  0  0  0  0
  189.2860  -10.5100   49.6620 C   0  0  0  0  0  0  0  0  0  0  0  0
  187.9990   -9.6340   49.6920 C   0  0  0  0  0  0  0  0  0  0  0  0
  188.9830  -11.8620   49.0550 C   0  0  0  0  0  0  0  0  0  0  0  0
  189.7210  -10.7410   51.1230 C   0  0  0  0  0  0  0  0  0  0  0  0
  192.3270   -9.3950   47.9780 N   0  0  0  0  0  0  0  0  0  0  0  0
  193.7790   -9.4370   48.0190 C   0  0  1  0  0  0  0  0  0  0  0  0
  194.4210   -8.8430   46.7560 C   0  0  0  0  0  0  0  0  0  0  0  0
  195.9390   -8.6900   47.0180 C   0  0  0  0  0  0  0  0  0  0  0  0
  194.2100   -9.8700   45.6560 C   0  0  0  0  0  0  0  0  0  0  0  0
  193.8260   -7.4920   46.2850 C   0  0  0  0  0  0  0  0  0  0  0  0
  194.2520   -8.5910   49.1840 C   0  0  0  0  0  0  0  0  0  0  0  0
  193.9210   -7.4090   49.2730 O   0  0  0  0  0  0  0  0  0  0  0  0
  194.9540   -9.2070   50.1400 N   0  0  0  0  0  0  0  0  0  0  0  0
  195.2610  -10.6370   50.2610 C   0  0  0  0  0  0  0  0  0  0  0  0
  195.4460   -8.4470   51.2880 C   0  0  1  0  0  0  0  0  0  0  0  0
  195.9750   -9.3940   52.2850 C   0  0  2  0  0  0  0  0  0  0  0  0
  196.1560  -10.6180   51.4410 C   0  0  1  0  0  0  0  0  0  0  0  0
  195.3430  -10.6760   52.7190 C   0  0  0  0  0  0  0  0  0  0  0  0
  195.9630  -11.3970   53.8250 C   0  0  0  0  0  0  0  0  0  0  0  0
  193.8340  -10.7070   52.6810 C   0  0  0  0  0  0  0  0  0  0  0  0
  196.4940   -7.4710   50.7860 C   0  0  0  0  0  0  0  0  0  0  0  0
  197.3720   -7.8540   50.0120 O   0  0  0  0  0  0  0  0  0  0  0  0
  196.3740   -6.2070   51.1900 N   0  0  0  0  0  0  0  0  0  0  0  0
  197.3090   -5.1670   50.7740 C   0  0  1  0  0  0  0  0  0  0  0  0
  196.5690   -4.0860   49.9910 C   0  0  0  0  0  0  0  0  0  0  0  0
  195.9770   -4.5370   48.6430 C   0  0  0  0  0  0  0  0  0  0  0  0
  195.0840   -3.4840   47.9390 C   0  0  0  0  0  0  0  0  0  0  0  0
  196.9130   -4.4880   47.4170 C   0  0  0  0  0  0  0  0  0  0  0  0
  195.7960   -3.8250   46.6080 C   0  0  0  0  0  0  0  0  0  0  0  0
  198.6090   -5.5990   52.8440 O   0  0  0  0  0  0  0  0  0  0  0  0
  198.0540   -4.5400   51.9960 C   0  0  0  0  0  0  0  0  0  0  0  0
  199.0130   -2.5210   51.2670 O   0  0  0  0  0  0  0  0  0  0  0  0
  200.3910   -4.3000   51.1770 N   0  0  0  0  0  0  0  0  0  0  0  0
  199.2230   -3.7220   51.4480 C   0  0  0  0  0  0  0  0  0  0  0  0
  189.9790   -9.1003   48.1884 H   0  0  0  0  0  0  0  0  0  0  0  0
  187.7125   -9.4390   50.7360 H   0  0  0  0  0  0  0  0  0  0  0  0
  188.1930   -8.6796   49.1806 H   0  0  0  0  0  0  0  0  0  0  0  0
  187.1823  -10.1646   49.1806 H   0  0  0  0  0  0  0  0  0  0  0  0
  188.8185  -12.5958   49.8578 H   0  0  0  0  0  0  0  0  0  0  0  0
  188.0787  -11.7903   48.4329 H   0  0  0  0  0  0  0  0  0  0  0  0
  189.8315  -12.1831   48.4329 H   0  0  0  0  0  0  0  0  0  0  0  0
  188.9565  -10.3350   51.8018 H   0  0  0  0  0  0  0  0  0  0  0  0
  189.8372  -11.8196   51.3048 H   0  0  0  0  0  0  0  0  0  0  0  0
  190.6797  -10.2332   51.3048 H   0  0  0  0  0  0  0  0  0  0  0  0
  191.8589   -8.7384   47.3372 H   0  0  0  0  0  0  0  0  0  0  0  0
  194.0711  -10.4938   48.1075 H   0  0  0  0  0  0  0  0  0  0  0  0
  196.1239   -8.6714   48.1022 H   0  0  0  0  0  0  0  0  0  0  0  0
  196.4759   -9.5386   46.5690 H   0  0  0  0  0  0  0  0  0  0  0  0
  196.2958   -7.7513   46.5690 H   0  0  0  0  0  0  0  0  0  0  0  0
  194.0080  -10.8532   46.1061 H   0  0  0  0  0  0  0  0  0  0  0  0
  193.3549   -9.5694   45.0328 H   0  0  0  0  0  0  0  0  0  0  0  0
  195.1144   -9.9309   45.0328 H   0  0  0  0  0  0  0  0  0  0  0  0
  193.5581   -6.8838   47.1616 H   0  0  0  0  0  0  0  0  0  0  0  0
  194.5707   -6.9546   45.6795 H   0  0  0  0  0  0  0  0  0  0  0  0
  192.9268   -7.6786   45.6795 H   0  0  0  0  0  0  0  0  0  0  0  0
  194.3554  -11.2331   50.4469 H   0  0  0  0  0  0  0  0  0  0  0  0
  195.6980  -11.0914   49.3596 H   0  0  0  0  0  0  0  0  0  0  0  0
  194.6501   -7.8673   51.7783 H   0  0  0  0  0  0  0  0  0  0  0  0
  196.4440   -8.6616   52.9585 H   0  0  0  0  0  0  0  0  0  0  0  0
  197.0249  -11.1457   51.0209 H   0  0  0  0  0  0  0  0  0  0  0  0
  195.6061  -10.9820   54.7792 H   0  0  0  0  0  0  0  0  0  0  0  0
  195.6942  -12.4620   53.7650 H   0  0  0  0  0  0  0  0  0  0  0  0
  197.0562  -11.2908   53.7650 H   0  0  0  0  0  0  0  0  0  0  0  0
  193.4414  -10.7151   53.7085 H   0  0  0  0  0  0  0  0  0  0  0  0
  193.4621   -9.8163   52.1534 H   0  0  0  0  0  0  0  0  0  0  0  0
  193.4990  -11.6122   52.1534 H   0  0  0  0  0  0  0  0  0  0  0  0
  195.5959   -5.9559   51.8164 H   0  0  0  0  0  0  0  0  0  0  0  0
  198.0675   -5.6308   50.1263 H   0  0  0  0  0  0  0  0  0  0  0  0
  195.7438   -3.7173   50.6180 H   0  0  0  0  0  0  0  0  0  0  0  0
  197.3187   -3.3175   49.7515 H   0  0  0  0  0  0  0  0  0  0  0  0
  195.5798   -5.4985   49.0004 H   0  0  0  0  0  0  0  0  0  0  0  0
  194.0092   -3.7177   47.9523 H   0  0  0  0  0  0  0  0  0  0  0  0
  195.0289   -2.4484   48.3056 H   0  0  0  0  0  0  0  0  0  0  0  0
  197.8046   -3.8587   47.5550 H   0  0  0  0  0  0  0  0  0  0  0  0
  197.4059   -5.4005   47.0503 H   0  0  0  0  0  0  0  0  0  0  0  0
  195.2368   -4.5130   45.9569 H   0  0  0  0  0  0  0  0  0  0  0  0
  196.0182   -3.0441   45.8658 H   0  0  0  0  0  0  0  0  0  0  0  0
  201.1708   -3.7372   50.8081 H   0  0  0  0  0  0  0  0  0  0  0  0
  200.5150   -5.3100   51.3362 H   0  0  0  0  0  0  0  0  0  0  0  0
  1  2  2  0
  1  3  1  0
  3  4  1  0
  4  5  1  0
  4  6  1  0
  4  7  1  0
  1  8  1  0
  8  9  1  0
  9 10  1  0
 10 11  1  0
 10 12  1  0
 10 13  1  0
  9 14  1  0
 14 15  2  0
 14 16  1  0
 16 17  1  0
 16 18  1  0
 18 19  1  0
 17 20  1  0
 19 20  1  0
 19 21  1  0
 20 21  1  0
 21 22  1  0
 21 23  1  0
 18 24  1  0
 24 25  2  0
 24 26  1  0
 26 27  1  0
 27 28  1  0
 28 29  1  0
 29 30  1  0
 29 31  1  0
 30 32  1  0
 31 32  1  0
 27 34  1  0
 33 34  2  0
 34 37  1  0
 35 37  2  0
 36 37  1  0
  3 38  1  0
  5 39  1  0
  5 40  1  0
  5 41  1  0
  6 42  1  0
  6 43  1  0
  6 44  1  0
  7 45  1  0
  7 46  1  0
  7 47  1  0
  8 48  1  0
  9 49  1  1
 11 50  1  0
 11 51  1  0
 11 52  1  0
 12 53  1  0
 12 54  1  0
 12 55  1  0
 13 56  1  0
 13 57  1  0
 13 58  1  0
 17 59  1  0
 17 60  1  0
 18 61  1  1
 19 62  1  1
 20 63  1  6
 22 64  1  0
 22 65  1  0
 22 66  1  0
 23 67  1  0
 23 68  1  0
 23 69  1  0
 26 70  1  0
 27 71  1  6
 28 72  1  0
 28 73  1  0
 29 74  1  0
 30 75  1  0
 30 76  1  0
 31 77  1  0
 31 78  1  0
 32 79  1  0
 32 80  1  0
 36 81  1  0
 36 82  1  0
M  END
>  <PDBID>  (1) 
2OC8

>  <PDB ID>  (1) 
2OC8

>  <Generic Name>  (1) 
Boceprevir

>  <Brand Name>  (1) 
Victrelis#Victrelis Triple

>  <DrugBank ID>  (1) 
DB08873

>  <ATC Codes>  (1) 
J05AE12

>  <Ligand ID>  (1) 
HU5

>  <Target Name>  (1) 
Genome polyprotein

>  <UniProt ID>  (1) 
B0B3C9

>  <PDB ID.1>  (1) 
2OC8

>  <Seq. Identity>  (1) 
69%

$$$$
