PDB_DB01076_97
     RDKit          3D

 76 79  0  0  0  0  0  0  0  0999 V2000
   25.1250  -31.1580   27.1600 C   0  0  0  0  0  0  0  0  0  0  0  0
   24.6300  -32.1990   27.9690 C   0  0  0  0  0  0  0  0  0  0  0  0
   25.5760  -32.9920   28.6680 C   0  0  0  0  0  0  0  0  0  0  0  0
   26.9610  -32.7400   28.5670 C   0  0  0  0  0  0  0  0  0  0  0  0
   27.4180  -31.7000   27.7620 C   0  0  0  0  0  0  0  0  0  0  0  0
   26.5000  -30.9100   27.0560 C   0  0  0  0  0  0  0  0  0  0  0  0
   23.8850  -33.3620   23.5560 C   0  0  0  0  0  0  0  0  0  0  0  0
   23.5530  -33.5570   24.9080 C   0  0  0  0  0  0  0  0  0  0  0  0
   22.7640  -32.5980   25.5790 C   0  0  0  0  0  0  0  0  0  0  0  0
   22.3330  -31.4620   24.8600 C   0  0  0  0  0  0  0  0  0  0  0  0
   22.6570  -31.2660   23.5310 C   0  0  0  0  0  0  0  0  0  0  0  0
   23.4300  -32.2070   22.8750 C   0  0  0  0  0  0  0  0  0  0  0  0
   23.7380  -32.0040   21.5690 F   0  0  0  0  0  0  0  0  0  0  0  0
   22.3760  -32.6860   26.9340 C   0  0  0  0  0  0  0  0  0  0  0  0
   23.7140  -33.5280   32.6430 C   0  0  0  0  0  0  0  0  0  0  0  0
   23.6020  -34.7150   33.4020 C   0  0  0  0  0  0  0  0  0  0  0  0
   23.9260  -34.7150   34.7670 C   0  0  0  0  0  0  0  0  0  0  0  0
   24.3650  -33.5280   35.3940 C   0  0  0  0  0  0  0  0  0  0  0  0
   24.4810  -32.3410   34.6520 C   0  0  0  0  0  0  0  0  0  0  0  0
   24.1590  -32.3360   33.2890 C   0  0  0  0  0  0  0  0  0  0  0  0
   20.0140  -27.4920   23.7420 O   0  0  0  0  0  0  0  0  0  0  0  0
   18.9420  -27.6410   21.7630 O   0  0  0  0  0  0  0  0  0  0  0  0
   18.5920  -30.8170   22.7420 O   0  0  0  0  0  0  0  0  0  0  0  0
   19.0720  -27.8840   23.0650 C   0  0  0  0  0  0  0  0  0  0  0  0
   17.9380  -28.7020   23.6050 C   0  0  0  0  0  0  0  0  0  0  0  0
   18.3840  -30.1220   23.9550 C   0  0  1  0  0  0  0  0  0  0  0  0
   17.3290  -30.8450   24.7680 C   0  0  0  0  0  0  0  0  0  0  0  0
   17.8050  -32.1840   25.3020 C   0  0  1  0  0  0  0  0  0  0  0  0
   18.9380  -31.9960   26.3310 C   0  0  0  0  0  0  0  0  0  0  0  0
   19.8180  -33.2480   26.4930 C   0  0  0  0  0  0  0  0  0  0  0  0
   21.0370  -32.9670   27.3500 N   0  0  0  0  0  0  0  0  0  0  0  0
   23.2280  -32.4850   28.0570 C   0  0  0  0  0  0  0  0  0  0  0  0
   22.3860  -32.6210   29.2050 C   0  0  0  0  0  0  0  0  0  0  0  0
   22.7100  -32.4770   30.6950 C   0  0  0  0  0  0  0  0  0  0  0  0
   23.4040  -33.5200   31.3960 N   0  0  0  0  0  0  0  0  0  0  0  0
   22.3380  -31.4450   31.2640 O   0  0  0  0  0  0  0  0  0  0  0  0
   21.0790  -32.9130   28.7520 C   0  0  0  0  0  0  0  0  0  0  0  0
   19.7780  -33.1550   29.5910 C   0  0  0  0  0  0  0  0  0  0  0  0
   19.9060  -34.2730   30.6450 C   0  0  0  0  0  0  0  0  0  0  0  0
   19.2640  -31.8580   30.2790 C   0  0  0  0  0  0  0  0  0  0  0  0
   16.6920  -32.7970   25.9200 O   0  0  0  0  0  0  0  0  0  0  0  0
   24.4190  -30.5278   26.5993 H   0  0  0  0  0  0  0  0  0  0  0  0
   25.2232  -33.8195   29.3011 H   0  0  0  0  0  0  0  0  0  0  0  0
   27.6771  -33.3633   29.1225 H   0  0  0  0  0  0  0  0  0  0  0  0
   28.4963  -31.4988   27.6802 H   0  0  0  0  0  0  0  0  0  0  0  0
   26.8612  -30.0909   26.4168 H   0  0  0  0  0  0  0  0  0  0  0  0
   24.4982  -34.1066   23.0272 H   0  0  0  0  0  0  0  0  0  0  0  0
   23.9063  -34.4524   25.4404 H   0  0  0  0  0  0  0  0  0  0  0  0
   21.7191  -30.7081   25.3746 H   0  0  0  0  0  0  0  0  0  0  0  0
   22.3035  -30.3700   22.9997 H   0  0  0  0  0  0  0  0  0  0  0  0
   23.2593  -35.6427   32.9204 H   0  0  0  0  0  0  0  0  0  0  0  0
   23.8378  -35.6429   35.3511 H   0  0  0  0  0  0  0  0  0  0  0  0
   24.6164  -33.5331   36.4649 H   0  0  0  0  0  0  0  0  0  0  0  0
   24.8241  -31.4171   35.1405 H   0  0  0  0  0  0  0  0  0  0  0  0
   24.2500  -31.4045   32.7111 H   0  0  0  0  0  0  0  0  0  0  0  0
   20.0527  -27.7065   24.7077 H   0  0  0  0  0  0  0  0  0  0  0  0
   18.8702  -31.7467   22.9379 H   0  0  0  0  0  0  0  0  0  0  0  0
   17.5481  -28.2167   24.5119 H   0  0  0  0  0  0  0  0  0  0  0  0
   17.1611  -28.7672   22.8290 H   0  0  0  0  0  0  0  0  0  0  0  0
   19.3034  -30.0782   24.5573 H   0  0  0  0  0  0  0  0  0  0  0  0
   17.0459  -30.2088   25.6195 H   0  0  0  0  0  0  0  0  0  0  0  0
   16.4770  -31.0414   24.1005 H   0  0  0  0  0  0  0  0  0  0  0  0
   18.2030  -32.8030   24.4844 H   0  0  0  0  0  0  0  0  0  0  0  0
   19.5741  -31.1606   26.0031 H   0  0  0  0  0  0  0  0  0  0  0  0
   18.4676  -31.7966   27.3051 H   0  0  0  0  0  0  0  0  0  0  0  0
   19.2238  -34.0429   26.9674 H   0  0  0  0  0  0  0  0  0  0  0  0
   20.1630  -33.5573   25.4953 H   0  0  0  0  0  0  0  0  0  0  0  0
   23.6812  -34.3444   30.8442 H   0  0  0  0  0  0  0  0  0  0  0  0
   19.0413  -33.4875   28.8448 H   0  0  0  0  0  0  0  0  0  0  0  0
   19.8558  -33.8345   31.6526 H   0  0  0  0  0  0  0  0  0  0  0  0
   19.0844  -34.9932   30.5172 H   0  0  0  0  0  0  0  0  0  0  0  0
   20.8691  -34.7889   30.5172 H   0  0  0  0  0  0  0  0  0  0  0  0
   19.3118  -31.9787   31.3713 H   0  0  0  0  0  0  0  0  0  0  0  0
   19.8933  -31.0082   29.9761 H   0  0  0  0  0  0  0  0  0  0  0  0
   18.2234  -31.6700   29.9761 H   0  0  0  0  0  0  0  0  0  0  0  0
   16.7897  -32.7432   26.9037 H   0  0  0  0  0  0  0  0  0  0  0  0
  1  2  2  0
  2  3  1  0
  3  4  2  0
  4  5  1  0
  1  6  1  0
  5  6  2  0
  7  8  2  0
  8  9  1  0
  9 10  2  0
 10 11  1  0
  7 12  1  0
 11 12  2  0
 12 13  1  0
  9 14  1  0
 15 16  2  0
 16 17  1  0
 17 18  2  0
 18 19  1  0
 15 20  1  0
 19 20  2  0
 21 24  1  0
 22 24  2  0
 24 25  1  0
 23 26  1  0
 25 26  1  0
 26 27  1  0
 27 28  1  0
 28 29  1  0
 29 30  1  0
 14 31  1  0
 30 31  1  0
  2 32  1  0
 14 32  2  0
 32 33  1  0
 33 34  1  0
 15 35  1  0
 34 35  1  0
 34 36  2  0
 31 37  1  0
 33 37  2  0
 37 38  1  0
 38 39  1  0
 38 40  1  0
 28 41  1  0
  1 42  1  0
  3 43  1  0
  4 44  1  0
  5 45  1  0
  6 46  1  0
  7 47  1  0
  8 48  1  0
 10 49  1  0
 11 50  1  0
 16 51  1  0
 17 52  1  0
 18 53  1  0
 19 54  1  0
 20 55  1  0
 21 56  1  0
 23 57  1  0
 25 58  1  0
 25 59  1  0
 26 60  1  1
 27 61  1  0
 27 62  1  0
 28 63  1  6
 29 64  1  0
 29 65  1  0
 30 66  1  0
 30 67  1  0
 35 68  1  0
 38 69  1  0
 39 70  1  0
 39 71  1  0
 39 72  1  0
 40 73  1  0
 40 74  1  0
 40 75  1  0
 41 76  1  0
M  END
$$$$
