PDB_DB00703_97
     RDKit          3D

 28 29  0  0  0  0  0  0  0  0999 V2000
   -5.5550   -0.4510   16.4680 N   0  0  0  0  0  0  0  0  0  0  0  0
   -6.0000    0.5600   16.8090 S   0  0  1  0  0  4  0  0  0  0  0  0
   -7.1860    0.6660   16.6850 O   0  0  0  0  0  0  0  0  0  0  0  0
   -5.5980    0.6550   17.8500 O   0  0  0  0  0  0  0  0  0  0  0  0
   -5.1700    1.7910   15.9800 C   0  0  1  0  0  0  0  0  0  0  0  0
   -6.1000    2.9520   15.1060 S   0  0  0  0  0  0  0  0  0  0  0  0
   -4.6230    3.6330   14.5910 C   0  0  1  0  0  0  0  0  0  0  0  0
   -3.5950    3.0800   15.0830 N   0  0  0  0  0  0  0  0  0  0  0  0
   -2.2030    3.5200   14.8140 C   0  0  0  0  0  0  0  0  0  0  0  0
   -3.8850    1.9760   15.8510 N   0  0  0  0  0  0  0  0  0  0  0  0
   -4.7950    4.7370   13.7670 N   0  0  0  0  0  0  0  0  0  0  0  0
   -5.6410    5.4330   13.2030 C   0  0  0  0  0  0  0  0  0  0  0  0
   -5.5900    6.4180   12.4610 O   0  0  0  0  0  0  0  0  0  0  0  0
   -6.8890    4.9640   13.5470 C   0  0  0  0  0  0  0  0  0  0  0  0
   -6.1040   -1.3216   16.4277 H   0  0  0  0  0  0  0  0  0  0  0  0
   -7.6092    0.7038   17.5792 H   0  0  0  0  0  0  0  0  0  0  0  0
   -5.1218    1.1550   15.0838 H   0  0  0  0  0  0  0  0  0  0  0  0
   -4.6511    4.3344   15.4379 H   0  0  0  0  0  0  0  0  0  0  0  0
   -1.6800    3.6853   15.7675 H   0  0  0  0  0  0  0  0  0  0  0  0
   -1.6781    2.7440   14.2376 H   0  0  0  0  0  0  0  0  0  0  0  0
   -2.2195    4.4567   14.2376 H   0  0  0  0  0  0  0  0  0  0  0  0
   -3.4725    2.1044   16.7860 H   0  0  0  0  0  0  0  0  0  0  0  0
   -4.2987    5.4552   14.3136 H   0  0  0  0  0  0  0  0  0  0  0  0
   -5.6805    6.0957   14.0801 H   0  0  0  0  0  0  0  0  0  0  0  0
   -5.5474    7.2417   13.0085 H   0  0  0  0  0  0  0  0  0  0  0  0
   -6.9788    4.9303   14.6428 H   0  0  0  0  0  0  0  0  0  0  0  0
   -7.6586    5.6343   13.1365 H   0  0  0  0  0  0  0  0  0  0  0  0
   -7.0267    3.9528   13.1365 H   0  0  0  0  0  0  0  0  0  0  0  0
  1  2  1  0
  2  3  1  1
  2  4  1  0
  4  1  1  0
  2  5  1  0
  5  6  1  0
  6  7  1  0
  7  8  1  0
  8  9  1  0
  5 10  1  0
  8 10  1  0
  7 11  1  0
 11 12  1  0
 12 13  1  0
 12 14  1  0
  1 15  1  1
  3 16  1  0
  5 17  1  1
  7 18  1  6
  9 19  1  0
  9 20  1  0
  9 21  1  0
 10 22  1  0
 11 23  1  0
 12 24  1  0
 13 25  1  0
 14 26  1  0
 14 27  1  0
 14 28  1  0
M  END
>  <PDBID>  (1) 
3DAZ

>  <PDB ID>  (1) 
3DAZ

>  <Generic Name>  (1) 
Methazolamide

>  <Brand Name>  (1) 
Methazolamide#Neptazane#Neptazane Tablets 25mg#Neptazane Tablets 25mg USP#Neptazane Tablets 50mg#Naptazane

>  <DrugBank ID>  (1) 
DB00703

>  <ATC Codes>  (1) 
S01EC05

>  <Ligand ID>  (1) 
MZM

>  <Target Name>  (1) 
Carbonic anhydrase 1

>  <UniProt ID>  (1) 
P00915

>  <PDB ID.1>  (1) 
3DAZ

>  <Seq. Identity>  (1) 
61%

$$$$
