PDB_DB01157_99
     RDKit          3D

264272  0  0  0  0  0  0  0  0999 V2000
   -0.6720   -5.4890    3.1550 N   0  0  0  0  0  0  0  0  0  0  0  0
   -1.6860   -4.5990    2.5090 C   0  0  1  0  0  0  0  0  0  0  0  0
   -1.2770   -3.6750    1.3790 N   0  0  0  0  0  0  0  0  0  0  0  0
    0.0930   -3.6430    0.9250 C   0  0  1  0  0  0  0  0  0  0  0  0
    0.7230   -5.4790    2.6960 C   0  0  0  0  0  0  0  0  0  0  0  0
    1.1400   -4.5650    1.5800 C   0  0  0  0  0  0  0  0  0  0  0  0
    2.6370   -4.5710    1.0940 C   0  0  0  0  0  0  0  0  0  0  0  0
    3.6540   -5.5000    1.7810 C   0  0  0  0  0  0  0  0  0  0  0  0
    3.2220   -6.4210    2.9220 C   0  0  0  0  0  0  0  0  0  0  0  0
    1.7520   -6.4290    3.3950 C   0  0  0  0  0  0  0  0  0  0  0  0
    5.1210   -5.4760    1.3350 C   0  0  0  0  0  0  0  0  0  0  0  0
    5.9030   -6.1310    2.3130 N   0  0  0  0  0  0  0  0  0  0  0  0
    5.9360   -7.5660    2.3470 C   0  0  0  0  0  0  0  0  0  0  0  0
    6.7570   -8.3030    3.4130 C   0  0  0  0  0  0  0  0  0  0  0  0
    6.7730   -9.8340    3.4550 C   0  0  0  0  0  0  0  0  0  0  0  0
    5.9620  -10.6490    2.4150 C   0  0  0  0  0  0  0  0  0  0  0  0
    5.1450   -9.8990    1.3560 C   0  0  0  0  0  0  0  0  0  0  0  0
    5.1280   -8.3690    1.3180 C   0  0  0  0  0  0  0  0  0  0  0  0
    3.0860   -3.6890   -0.0870 C   0  0  0  0  0  0  0  0  0  0  0  0
    7.5590  -10.4470    4.4380 O   0  0  0  0  0  0  0  0  0  0  0  0
    5.9480  -12.0490    2.4350 O   0  0  0  0  0  0  0  0  0  0  0  0
    4.4050  -10.5890    0.3930 O   0  0  0  0  0  0  0  0  0  0  0  0
    8.3330   -9.6200    5.2740 C   0  0  0  0  0  0  0  0  0  0  0  0
    4.9190  -12.7530    1.7890 C   0  0  0  0  0  0  0  0  0  0  0  0
    3.4810   -9.8590   -0.3810 C   0  0  0  0  0  0  0  0  0  0  0  0
   -3.0750   -4.6680    2.9210 N   0  0  0  0  0  0  0  0  0  0  0  0
    0.4340   -2.6860   -0.0920 N   0  0  0  0  0  0  0  0  0  0  0  0
   -6.6580   45.0610   32.1990 N   0  0  0  0  0  0  0  0  0  0  0  0
   -7.5440   45.8040   33.1630 C   0  0  1  0  0  0  0  0  0  0  0  0
   -6.9700   46.9840   33.9300 N   0  0  0  0  0  0  0  0  0  0  0  0
   -5.6000   47.3810   33.7470 C   0  0  0  0  0  0  0  0  0  0  0  0
   -5.2540   45.4660   32.0080 C   0  0  0  0  0  0  0  0  0  0  0  0
   -4.6960   46.6280   32.7650 C   0  0  0  0  0  0  0  0  0  0  0  0
   -3.1970   47.0650   32.5350 C   0  0  1  0  0  0  0  0  0  0  0  0
   -2.3320   46.2840   31.5580 C   0  0  0  0  0  0  0  0  0  0  0  0
   -2.9000   45.1040   30.7810 C   0  0  0  0  0  0  0  0  0  0  0  0
   -4.3660   44.6730   31.0060 C   0  0  0  0  0  0  0  0  0  0  0  0
   -0.8830   46.7490   31.4050 C   0  0  0  0  0  0  0  0  0  0  0  0
   -0.1540   45.7880   30.6870 N   0  0  0  0  0  0  0  0  0  0  0  0
   -0.4150   45.6770   29.2950 C   0  0  0  0  0  0  0  0  0  0  0  0
   -1.4010   46.6520   28.6340 C   0  0  0  0  0  0  0  0  0  0  0  0
   -1.6750   46.5230   27.1200 C   0  0  0  0  0  0  0  0  0  0  0  0
   -0.9750   45.4180   26.2940 C   0  0  0  0  0  0  0  0  0  0  0  0
    0.0140   44.4620   26.9820 C   0  0  0  0  0  0  0  0  0  0  0  0
    0.2990   44.5820   28.4840 C   0  0  0  0  0  0  0  0  0  0  0  0
   -2.5670   48.2970   33.1880 C   0  0  0  0  0  0  0  0  0  0  0  0
   -2.5730   47.4160   26.5170 O   0  0  0  0  0  0  0  0  0  0  0  0
   -1.1870   45.2670   24.9150 O   0  0  0  0  0  0  0  0  0  0  0  0
    0.6790   43.4870   26.2320 O   0  0  0  0  0  0  0  0  0  0  0  0
   -3.1150   48.4530   27.2970 C   0  0  0  0  0  0  0  0  0  0  0  0
   -2.0810   46.0880   24.2060 C   0  0  0  0  0  0  0  0  0  0  0  0
    1.4720   42.5430   26.9020 C   0  0  0  0  0  0  0  0  0  0  0  0
   -8.9460   45.4540   33.3370 N   0  0  0  0  0  0  0  0  0  0  0  0
   -5.1210   48.4670   34.5540 N   0  0  0  0  0  0  0  0  0  0  0  0
   25.2760   21.9400   56.7640 N   0  0  0  0  0  0  0  0  0  0  0  0
   26.1910   22.9530   57.3880 C   0  0  0  0  0  0  0  0  0  0  0  0
   25.6770   23.8790   58.4720 N   0  0  0  0  0  0  0  0  0  0  0  0
   24.3160   23.7750   58.9230 C   0  0  1  0  0  0  0  0  0  0  0  0
   23.8890   21.8320   57.2200 C   0  0  0  0  0  0  0  0  0  0  0  0
   23.3730   22.7250   58.3060 C   0  0  0  0  0  0  0  0  0  0  0  0
   21.8750   22.5900   58.8090 C   0  0  1  0  0  0  0  0  0  0  0  0
   20.9750   21.5450   58.1560 C   0  0  0  0  0  0  0  0  0  0  0  0
   21.5160   20.6430   57.0520 C   0  0  0  0  0  0  0  0  0  0  0  0
   22.9740   20.7510   56.5610 C   0  0  0  0  0  0  0  0  0  0  0  0
   19.5290   21.3900   58.6250 C   0  0  0  0  0  0  0  0  0  0  0  0
   18.8840   20.6120   57.6380 N   0  0  0  0  0  0  0  0  0  0  0  0
   19.1860   19.2190   57.5180 C   0  0  0  0  0  0  0  0  0  0  0  0
   18.5210   18.3920   56.4010 C   0  0  0  0  0  0  0  0  0  0  0  0
   18.8460   16.8930   56.3150 C   0  0  0  0  0  0  0  0  0  0  0  0
   19.8100   16.2240   57.3330 C   0  0  0  0  0  0  0  0  0  0  0  0
   20.4690   17.0620   58.4420 C   0  0  0  0  0  0  0  0  0  0  0  0
   20.1500   18.5610   58.5310 C   0  0  0  0  0  0  0  0  0  0  0  0
   21.3090   23.4210   59.9750 C   0  0  0  0  0  0  0  0  0  0  0  0
   18.2730   16.1460   55.2820 O   0  0  0  0  0  0  0  0  0  0  0  0
   20.0660   14.8450   57.2930 O   0  0  0  0  0  0  0  0  0  0  0  0
   21.3750   16.4570   59.3440 O   0  0  0  0  0  0  0  0  0  0  0  0
   17.5090   16.8030   54.2980 C   0  0  0  0  0  0  0  0  0  0  0  0
   19.8660   14.0990   58.4660 C   0  0  0  0  0  0  0  0  0  0  0  0
   21.5640   16.9750   60.6380 C   0  0  0  0  0  0  0  0  0  0  0  0
   27.5480   23.0380   56.9220 N   0  0  0  0  0  0  0  0  0  0  0  0
   23.8310   24.7120   59.9030 N   0  0  0  0  0  0  0  0  0  0  0  0
   17.6500   19.1810   21.7740 N   0  0  0  0  0  0  0  0  0  0  0  0
   16.6270   18.3550   22.5030 C   0  0  0  0  0  0  0  0  0  0  0  0
   17.0280   17.5090   23.7010 N   0  0  0  0  0  0  0  0  0  0  0  0
   18.3970   17.5130   24.1370 C   0  0  1  0  0  0  0  0  0  0  0  0
   19.0380   19.1890   22.2200 C   0  0  0  0  0  0  0  0  0  0  0  0
   19.4440   18.3690   23.4020 C   0  0  0  0  0  0  0  0  0  0  0  0
   20.9450   18.3920   23.8890 C   0  0  1  0  0  0  0  0  0  0  0  0
   21.9780   19.2350   23.1290 C   0  0  0  0  0  0  0  0  0  0  0  0
   21.5440   20.0680   21.9180 C   0  0  0  0  0  0  0  0  0  0  0  0
   20.0750   20.0660   21.4380 C   0  0  0  0  0  0  0  0  0  0  0  0
   23.4380   19.2430   23.6160 C   0  0  0  0  0  0  0  0  0  0  0  0
   24.2820   19.9660   22.7170 N   0  0  0  0  0  0  0  0  0  0  0  0
   24.2150   21.3950   22.6580 C   0  0  0  0  0  0  0  0  0  0  0  0
   25.2100   22.1610   21.7790 C   0  0  0  0  0  0  0  0  0  0  0  0
   25.1380   23.6940   21.7390 C   0  0  0  0  0  0  0  0  0  0  0  0
   24.0830   24.4570   22.5660 C   0  0  0  0  0  0  0  0  0  0  0  0
   23.0800   23.6770   23.4500 C   0  0  0  0  0  0  0  0  0  0  0  0
   23.1580   22.1440   23.4890 C   0  0  0  0  0  0  0  0  0  0  0  0
   21.3860   17.6470   25.1500 C   0  0  0  0  0  0  0  0  0  0  0  0
   26.0430   24.3930   20.9320 O   0  0  0  0  0  0  0  0  0  0  0  0
   24.0090   25.8620   22.4980 O   0  0  0  0  0  0  0  0  0  0  0  0
   22.1180   24.3600   24.2290 O   0  0  0  0  0  0  0  0  0  0  0  0
   26.9690   23.6670   20.1700 C   0  0  0  0  0  0  0  0  0  0  0  0
   24.8430   26.6670   23.2990 C   0  0  0  0  0  0  0  0  0  0  0  0
   20.8470   23.8040   24.4610 C   0  0  0  0  0  0  0  0  0  0  0  0
   15.2610   18.3580   22.0530 N   0  0  0  0  0  0  0  0  0  0  0  0
   18.7620   16.6380   25.2130 N   0  0  0  0  0  0  0  0  0  0  0  0
   -0.6562   -5.2425    4.1550 H   0  0  0  0  0  0  0  0  0  0  0  0
   -1.4568   -3.8083    3.2385 H   0  0  0  0  0  0  0  0  0  0  0  0
   -1.8531   -3.9305    0.5643 H   0  0  0  0  0  0  0  0  0  0  0  0
    0.3197   -2.8605    1.6641 H   0  0  0  0  0  0  0  0  0  0  0  0
    0.4878   -6.2656    1.9639 H   0  0  0  0  0  0  0  0  0  0  0  0
    1.3748   -3.7783    2.3121 H   0  0  0  0  0  0  0  0  0  0  0  0
    2.8748   -3.7764    1.8165 H   0  0  0  0  0  0  0  0  0  0  0  0
    3.8862   -4.7080    2.5082 H   0  0  0  0  0  0  0  0  0  0  0  0
    3.4599   -7.4481    2.6081 H   0  0  0  0  0  0  0  0  0  0  0  0
    3.7642   -6.0184    3.7903 H   0  0  0  0  0  0  0  0  0  0  0  0
    1.7562   -6.1686    4.4637 H   0  0  0  0  0  0  0  0  0  0  0  0
    1.3976   -7.4374    3.1352 H   0  0  0  0  0  0  0  0  0  0  0  0
    5.2232   -5.9953    0.3707 H   0  0  0  0  0  0  0  0  0  0  0  0
    5.4603   -4.4361    1.2188 H   0  0  0  0  0  0  0  0  0  0  0  0
    6.8737   -5.8120    2.1834 H   0  0  0  0  0  0  0  0  0  0  0  0
    6.8089   -7.5618    1.6776 H   0  0  0  0  0  0  0  0  0  0  0  0
    7.8008   -7.9794    3.2876 H   0  0  0  0  0  0  0  0  0  0  0  0
    6.2482   -8.0332    4.3502 H   0  0  0  0  0  0  0  0  0  0  0  0
    5.9021   -9.8247    4.1269 H   0  0  0  0  0  0  0  0  0  0  0  0
    5.0927  -10.6441    3.0891 H   0  0  0  0  0  0  0  0  0  0  0  0
    4.2765   -9.8919    2.0311 H   0  0  0  0  0  0  0  0  0  0  0  0
    4.0779   -8.0604    1.4282 H   0  0  0  0  0  0  0  0  0  0  0  0
    5.6272   -8.1345    0.3663 H   0  0  0  0  0  0  0  0  0  0  0  0
    3.5535   -2.7707    0.2981 H   0  0  0  0  0  0  0  0  0  0  0  0
    3.8129   -4.2408   -0.7011 H   0  0  0  0  0  0  0  0  0  0  0  0
    2.2121   -3.4258   -0.7011 H   0  0  0  0  0  0  0  0  0  0  0  0
    8.1138   -9.8543    6.3262 H   0  0  0  0  0  0  0  0  0  0  0  0
    9.4008   -9.7935    5.0745 H   0  0  0  0  0  0  0  0  0  0  0  0
    8.0893   -8.5661    5.0745 H   0  0  0  0  0  0  0  0  0  0  0  0
    4.2565  -13.2062    2.5411 H   0  0  0  0  0  0  0  0  0  0  0  0
    4.3400  -12.0609    1.1599 H   0  0  0  0  0  0  0  0  0  0  0  0
    5.3543  -13.5434    1.1599 H   0  0  0  0  0  0  0  0  0  0  0  0
    2.7936   -9.3159    0.2843 H   0  0  0  0  0  0  0  0  0  0  0  0
    4.0208   -9.1409   -1.0157 H   0  0  0  0  0  0  0  0  0  0  0  0
    2.9073  -10.5504   -1.0157 H   0  0  0  0  0  0  0  0  0  0  0  0
   -3.1283   -4.6706    3.9496 H   0  0  0  0  0  0  0  0  0  0  0  0
   -3.5833   -3.8512    2.5530 H   0  0  0  0  0  0  0  0  0  0  0  0
    0.7460   -1.8103    0.3514 H   0  0  0  0  0  0  0  0  0  0  0  0
    1.1923   -3.0633   -0.6781 H   0  0  0  0  0  0  0  0  0  0  0  0
   -6.6421   44.0792   32.5098 H   0  0  0  0  0  0  0  0  0  0  0  0
   -7.2321   45.1267   33.9717 H   0  0  0  0  0  0  0  0  0  0  0  0
   -7.5482   47.8015   33.6884 H   0  0  0  0  0  0  0  0  0  0  0  0
   -5.2943   46.6973   34.5527 H   0  0  0  0  0  0  0  0  0  0  0  0
   -5.5595   46.1419   31.1957 H   0  0  0  0  0  0  0  0  0  0  0  0
   -4.3822   45.9509   33.5731 H   0  0  0  0  0  0  0  0  0  0  0  0
   -2.8778   46.3989   33.3501 H   0  0  0  0  0  0  0  0  0  0  0  0
   -2.0297   45.6047   32.3687 H   0  0  0  0  0  0  0  0  0  0  0  0
   -2.7996   45.3475   29.7130 H   0  0  0  0  0  0  0  0  0  0  0  0
   -2.3210   44.2476   31.1571 H   0  0  0  0  0  0  0  0  0  0  0  0
   -4.3426   43.6303   31.3555 H   0  0  0  0  0  0  0  0  0  0  0  0
   -4.8427   44.8629   30.0330 H   0  0  0  0  0  0  0  0  0  0  0  0
   -0.8608   47.7058   30.8628 H   0  0  0  0  0  0  0  0  0  0  0  0
   -0.4340   46.8798   32.4006 H   0  0  0  0  0  0  0  0  0  0  0  0
    0.8453   46.0119   30.7973 H   0  0  0  0  0  0  0  0  0  0  0  0
   -1.2422   44.9831   29.5054 H   0  0  0  0  0  0  0  0  0  0  0  0
   -2.3662   46.5333   29.1481 H   0  0  0  0  0  0  0  0  0  0  0  0
   -0.9111   47.6320   28.7323 H   0  0  0  0  0  0  0  0  0  0  0  0
   -0.8404   47.2083   26.9106 H   0  0  0  0  0  0  0  0  0  0  0  0
   -0.1497   46.1094   26.0684 H   0  0  0  0  0  0  0  0  0  0  0  0
    0.8368   45.1607   26.7701 H   0  0  0  0  0  0  0  0  0  0  0  0
    1.3800   44.7530   28.5940 H   0  0  0  0  0  0  0  0  0  0  0  0
   -0.0963   43.6447   28.9025 H   0  0  0  0  0  0  0  0  0  0  0  0
   -2.6175   48.1982   34.2824 H   0  0  0  0  0  0  0  0  0  0  0  0
   -1.5156   48.3804   32.8755 H   0  0  0  0  0  0  0  0  0  0  0  0
   -3.1149   49.1982   32.8755 H   0  0  0  0  0  0  0  0  0  0  0  0
   -2.9899   48.2136   28.3633 H   0  0  0  0  0  0  0  0  0  0  0  0
   -2.5936   49.3943   27.0689 H   0  0  0  0  0  0  0  0  0  0  0  0
   -4.1855   48.5623   27.0689 H   0  0  0  0  0  0  0  0  0  0  0  0
   -2.6995   46.6560   24.9166 H   0  0  0  0  0  0  0  0  0  0  0  0
   -1.5141   46.7868   23.5733 H   0  0  0  0  0  0  0  0  0  0  0  0
   -2.7291   45.4637   23.5733 H   0  0  0  0  0  0  0  0  0  0  0  0
    1.3607   42.6755   27.9883 H   0  0  0  0  0  0  0  0  0  0  0  0
    1.1508   41.5290   26.6215 H   0  0  0  0  0  0  0  0  0  0  0  0
    2.5262   42.6844   26.6215 H   0  0  0  0  0  0  0  0  0  0  0  0
   -9.1641   45.3996   34.3422 H   0  0  0  0  0  0  0  0  0  0  0  0
   -9.5367   46.1733   32.8960 H   0  0  0  0  0  0  0  0  0  0  0  0
   -5.2268   48.2272   35.5501 H   0  0  0  0  0  0  0  0  0  0  0  0
   -4.1268   48.6372   34.3455 H   0  0  0  0  0  0  0  0  0  0  0  0
   25.2428   22.1493   55.7560 H   0  0  0  0  0  0  0  0  0  0  0  0
   25.8999   23.6874   56.6226 H   0  0  0  0  0  0  0  0  0  0  0  0
   26.2754   23.7311   59.2972 H   0  0  0  0  0  0  0  0  0  0  0  0
   24.0069   24.5023   58.1578 H   0  0  0  0  0  0  0  0  0  0  0  0
   24.1945   21.0916   57.9740 H   0  0  0  0  0  0  0  0  0  0  0  0
   23.0515   23.4575   57.5509 H   0  0  0  0  0  0  0  0  0  0  0  0
   21.5570   23.3312   58.0610 H   0  0  0  0  0  0  0  0  0  0  0  0
   20.6656   22.2831   57.4013 H   0  0  0  0  0  0  0  0  0  0  0  0
   21.3835   19.6093   57.4040 H   0  0  0  0  0  0  0  0  0  0  0  0
   20.9466   20.9799   56.1732 H   0  0  0  0  0  0  0  0  0  0  0  0
   22.9415   20.9629   55.4821 H   0  0  0  0  0  0  0  0  0  0  0  0
   23.4322   19.7919   56.8442 H   0  0  0  0  0  0  0  0  0  0  0  0
   19.4950   20.8785   59.5982 H   0  0  0  0  0  0  0  0  0  0  0  0
   19.0391   22.3664   58.7541 H   0  0  0  0  0  0  0  0  0  0  0  0
   17.8722   20.6830   57.8171 H   0  0  0  0  0  0  0  0  0  0  0  0
   18.3506   18.9798   58.1925 H   0  0  0  0  0  0  0  0  0  0  0  0
   17.4326   18.4826   56.5322 H   0  0  0  0  0  0  0  0  0  0  0  0
   18.9297   18.8130   55.4705 H   0  0  0  0  0  0  0  0  0  0  0  0
   19.6974   17.1155   55.6550 H   0  0  0  0  0  0  0  0  0  0  0  0
   20.6599   16.4362   56.6676 H   0  0  0  0  0  0  0  0  0  0  0  0
   21.3146   17.2816   57.7736 H   0  0  0  0  0  0  0  0  0  0  0  0
   21.1089   19.0930   58.4449 H   0  0  0  0  0  0  0  0  0  0  0  0
   19.6027   18.6415   59.4818 H   0  0  0  0  0  0  0  0  0  0  0  0
   21.6163   22.9698   60.9299 H   0  0  0  0  0  0  0  0  0  0  0  0
   21.6955   24.4491   59.9141 H   0  0  0  0  0  0  0  0  0  0  0  0
   20.2108   23.4379   59.9141 H   0  0  0  0  0  0  0  0  0  0  0  0
   16.7607   17.4465   54.7838 H   0  0  0  0  0  0  0  0  0  0  0  0
   18.1704   17.4188   53.6708 H   0  0  0  0  0  0  0  0  0  0  0  0
   16.9992   16.0568   53.6708 H   0  0  0  0  0  0  0  0  0  0  0  0
   20.0381   14.7409   59.3426 H   0  0  0  0  0  0  0  0  0  0  0  0
   18.8341   13.7185   58.4871 H   0  0  0  0  0  0  0  0  0  0  0  0
   20.5691   13.2533   58.4871 H   0  0  0  0  0  0  0  0  0  0  0  0
   21.2862   16.2137   61.3819 H   0  0  0  0  0  0  0  0  0  0  0  0
   22.6205   17.2503   60.7720 H   0  0  0  0  0  0  0  0  0  0  0  0
   20.9330   17.8660   60.7720 H   0  0  0  0  0  0  0  0  0  0  0  0
   28.1864   23.0780   57.7293 H   0  0  0  0  0  0  0  0  0  0  0  0
   27.7676   22.2091   56.3514 H   0  0  0  0  0  0  0  0  0  0  0  0
   24.0192   24.3485   60.8482 H   0  0  0  0  0  0  0  0  0  0  0  0
   24.3103   25.6155   59.7809 H   0  0  0  0  0  0  0  0  0  0  0  0
   17.6542   18.8537   20.7974 H   0  0  0  0  0  0  0  0  0  0  0  0
   16.8353   17.5068   21.8343 H   0  0  0  0  0  0  0  0  0  0  0  0
   16.4578   17.8267   24.4978 H   0  0  0  0  0  0  0  0  0  0  0  0
   18.6137   16.6702   23.4642 H   0  0  0  0  0  0  0  0  0  0  0  0
   18.8197   20.0383   22.8842 H   0  0  0  0  0  0  0  0  0  0  0  0
   19.6695   17.5222   22.7371 H   0  0  0  0  0  0  0  0  0  0  0  0
   21.1688   17.5326   23.2399 H   0  0  0  0  0  0  0  0  0  0  0  0
   22.1873   18.3818   22.4671 H   0  0  0  0  0  0  0  0  0  0  0  0
   21.7960   21.1132   22.1504 H   0  0  0  0  0  0  0  0  0  0  0  0
   22.0720   19.5796   21.0857 H   0  0  0  0  0  0  0  0  0  0  0  0
   20.0741   19.7182   20.3944 H   0  0  0  0  0  0  0  0  0  0  0  0
   19.7348   21.0991   21.6023 H   0  0  0  0  0  0  0  0  0  0  0  0
   23.4822   19.7165   24.6079 H   0  0  0  0  0  0  0  0  0  0  0  0
   23.7932   18.2031   23.6647 H   0  0  0  0  0  0  0  0  0  0  0  0
   25.2527   19.7247   22.9629 H   0  0  0  0  0  0  0  0  0  0  0  0
   24.9122   21.4627   23.5062 H   0  0  0  0  0  0  0  0  0  0  0  0
   26.2191   21.8943   22.1261 H   0  0  0  0  0  0  0  0  0  0  0  0
   24.9473   21.8569   20.7550 H   0  0  0  0  0  0  0  0  0  0  0  0
   24.4359   23.6390   20.8940 H   0  0  0  0  0  0  0  0  0  0  0  0
   23.3809   24.4021   21.7210 H   0  0  0  0  0  0  0  0  0  0  0  0
   22.3790   23.6198   22.6042 H   0  0  0  0  0  0  0  0  0  0  0  0
   22.1766   21.7699   23.1619 H   0  0  0  0  0  0  0  0  0  0  0  0
   23.4656   21.9379   24.5248 H   0  0  0  0  0  0  0  0  0  0  0  0
   21.0562   18.2042   26.0393 H   0  0  0  0  0  0  0  0  0  0  0  0
   20.9366   16.6430   25.1588 H   0  0  0  0  0  0  0  0  0  0  0  0
   22.4824   17.5580   25.1588 H   0  0  0  0  0  0  0  0  0  0  0  0
   27.6548   23.1293   20.8412 H   0  0  0  0  0  0  0  0  0  0  0  0
   26.4352   22.9442   19.5354 H   0  0  0  0  0  0  0  0  0  0  0  0
   27.5435   24.3578   19.5354 H   0  0  0  0  0  0  0  0  0  0  0  0
   24.6358   26.4670   24.3606 H   0  0  0  0  0  0  0  0  0  0  0  0
   25.8959   26.4350   23.0809 H   0  0  0  0  0  0  0  0  0  0  0  0
   24.6484   27.7274   23.0809 H   0  0  0  0  0  0  0  0  0  0  0  0
   20.6724   23.7276   25.5444 H   0  0  0  0  0  0  0  0  0  0  0  0
   20.0773   24.4476   24.0100 H   0  0  0  0  0  0  0  0  0  0  0  0
   20.7973   22.8019   24.0100 H   0  0  0  0  0  0  0  0  0  0  0  0
   14.6311   18.3594   22.8679 H   0  0  0  0  0  0  0  0  0  0  0  0
   15.0887   19.1994   21.4844 H   0  0  0  0  0  0  0  0  0  0  0  0
   18.5689   17.1010   26.1126 H   0  0  0  0  0  0  0  0  0  0  0  0
   18.2135   15.7685   25.1496 H   0  0  0  0  0  0  0  0  0  0  0  0
  1  2  1  0
  2  3  1  0
  3  4  1  0
  1  5  1  0
  4  6  1  0
  5  6  1  0
  6  7  1  0
  7  8  1  0
  8  9  1  0
  5 10  1  0
  9 10  1  0
  8 11  1  0
 11 12  1  0
 12 13  1  0
 13 14  1  0
 14 15  1  0
 15 16  1  0
 16 17  1  0
 13 18  1  0
 17 18  1  0
  7 19  1  0
 15 20  1  0
 16 21  1  0
 17 22  1  0
 20 23  1  0
 21 24  1  0
 22 25  1  0
  2 26  1  0
  4 27  1  0
 28 29  1  0
 29 30  1  0
 30 31  1  0
 28 32  1  0
 31 33  1  0
 32 33  1  0
 33 34  1  0
 34 35  1  0
 35 36  1  0
 32 37  1  0
 36 37  1  0
 35 38  1  0
 38 39  1  0
 39 40  1  0
 40 41  1  0
 41 42  1  0
 42 43  1  0
 43 44  1  0
 40 45  1  0
 44 45  1  0
 34 46  1  0
 42 47  1  0
 43 48  1  0
 44 49  1  0
 47 50  1  0
 48 51  1  0
 49 52  1  0
 29 53  1  0
 31 54  1  0
 55 56  1  0
 56 57  1  0
 57 58  1  0
 55 59  1  0
 58 60  1  0
 59 60  1  0
 60 61  1  0
 61 62  1  0
 62 63  1  0
 59 64  1  0
 63 64  1  0
 62 65  1  0
 65 66  1  0
 66 67  1  0
 67 68  1  0
 68 69  1  0
 69 70  1  0
 70 71  1  0
 67 72  1  0
 71 72  1  0
 61 73  1  0
 69 74  1  0
 70 75  1  0
 71 76  1  0
 74 77  1  0
 75 78  1  0
 76 79  1  0
 56 80  1  0
 58 81  1  0
 82 83  1  0
 83 84  1  0
 84 85  1  0
 82 86  1  0
 85 87  1  0
 86 87  1  0
 87 88  1  0
 88 89  1  0
 89 90  1  0
 86 91  1  0
 90 91  1  0
 89 92  1  0
 92 93  1  0
 93 94  1  0
 94 95  1  0
 95 96  1  0
 96 97  1  0
 97 98  1  0
 94 99  1  0
 98 99  1  0
 88100  1  0
 96101  1  0
 97102  1  0
 98103  1  0
101104  1  0
102105  1  0
103106  1  0
 83107  1  0
 85108  1  0
  1109  1  0
  2110  1  1
  3111  1  0
  4112  1  6
  5113  1  0
  6114  1  0
  7115  1  0
  8116  1  0
  9117  1  0
  9118  1  0
 10119  1  0
 10120  1  0
 11121  1  0
 11122  1  0
 12123  1  0
 13124  1  0
 14125  1  0
 14126  1  0
 15127  1  0
 16128  1  0
 17129  1  0
 18130  1  0
 18131  1  0
 19132  1  0
 19133  1  0
 19134  1  0
 23135  1  0
 23136  1  0
 23137  1  0
 24138  1  0
 24139  1  0
 24140  1  0
 25141  1  0
 25142  1  0
 25143  1  0
 26144  1  0
 26145  1  0
 27146  1  0
 27147  1  0
 28148  1  0
 29149  1  1
 30150  1  0
 31151  1  0
 32152  1  0
 33153  1  0
 34154  1  1
 35155  1  0
 36156  1  0
 36157  1  0
 37158  1  0
 37159  1  0
 38160  1  0
 38161  1  0
 39162  1  0
 40163  1  0
 41164  1  0
 41165  1  0
 42166  1  0
 43167  1  0
 44168  1  0
 45169  1  0
 45170  1  0
 46171  1  0
 46172  1  0
 46173  1  0
 50174  1  0
 50175  1  0
 50176  1  0
 51177  1  0
 51178  1  0
 51179  1  0
 52180  1  0
 52181  1  0
 52182  1  0
 53183  1  0
 53184  1  0
 54185  1  0
 54186  1  0
 55187  1  0
 56188  1  0
 57189  1  0
 58190  1  1
 59191  1  0
 60192  1  0
 61193  1  6
 62194  1  0
 63195  1  0
 63196  1  0
 64197  1  0
 64198  1  0
 65199  1  0
 65200  1  0
 66201  1  0
 67202  1  0
 68203  1  0
 68204  1  0
 69205  1  0
 70206  1  0
 71207  1  0
 72208  1  0
 72209  1  0
 73210  1  0
 73211  1  0
 73212  1  0
 77213  1  0
 77214  1  0
 77215  1  0
 78216  1  0
 78217  1  0
 78218  1  0
 79219  1  0
 79220  1  0
 79221  1  0
 80222  1  0
 80223  1  0
 81224  1  0
 81225  1  0
 82226  1  0
 83227  1  0
 84228  1  0
 85229  1  1
 86230  1  0
 87231  1  0
 88232  1  6
 89233  1  0
 90234  1  0
 90235  1  0
 91236  1  0
 91237  1  0
 92238  1  0
 92239  1  0
 93240  1  0
 94241  1  0
 95242  1  0
 95243  1  0
 96244  1  0
 97245  1  0
 98246  1  0
 99247  1  0
 99248  1  0
100249  1  0
100250  1  0
100251  1  0
104252  1  0
104253  1  0
104254  1  0
105255  1  0
105256  1  0
105257  1  0
106258  1  0
106259  1  0
106260  1  0
107261  1  0
107262  1  0
108263  1  0
108264  1  0
M  END
>  <PDBID>  (1) 
4M2X

>  <PDB ID>  (1) 
4M2X

>  <Generic Name>  (1) 
Trimetrexate

>  <Brand Name>  (1) 
Neutrexin Pws IV 25mg/vial#Neutrexin

>  <DrugBank ID>  (1) 
DB01157

>  <ATC Codes>  (1) 
P01AX07

>  <Ligand ID>  (1) 
TMQ

>  <Target Name>  (1) 
Dihydrofolate reductase

>  <UniProt ID>  (1) 
P00374

>  <PDB ID.1>  (1) 
4M2X

>  <Seq. Identity>  (1) 
31%

$$$$
