PDB_DB05812_97
     RDKit          3D

134142  0  0  0  0  0  0  0  0999 V2000
   72.8210   51.1270   29.3810 C   0  0  0  0  0  0  0  0  0  0  0  0
   73.5360   50.3290   28.3120 C   0  0  0  0  0  0  0  0  0  0  0  0
   73.1270   50.7960   26.9350 C   0  0  2  0  0  0  0  0  0  0  0  0
   73.7530   49.9640   25.9280 O   0  0  0  0  0  0  0  0  0  0  0  0
   73.5010   52.2600   26.7900 C   0  0  0  0  0  0  0  0  0  0  0  0
   72.9850   53.1120   27.9270 C   0  0  1  0  0  0  0  0  0  0  0  0
   72.4740   54.3150   27.6380 C   0  0  0  0  0  0  0  0  0  0  0  0
   71.9920   55.3040   28.6650 C   0  0  0  0  0  0  0  0  0  0  0  0
   72.2730   54.8860   30.0950 C   0  0  2  0  0  0  0  0  0  0  0  0
   72.1680   53.3770   30.2610 C   0  0  1  0  0  0  0  0  0  0  0  0
   73.1370   52.6210   29.3420 C   0  0  1  0  0  0  0  0  0  0  0  0
   72.2250   52.9170   31.7300 C   0  0  0  0  0  0  0  0  0  0  0  0
   71.2760   53.7150   32.6260 C   0  0  0  0  0  0  0  0  0  0  0  0
   71.5090   55.1870   32.4670 C   0  0  1  0  0  0  0  0  0  0  0  0
   71.2320   55.4840   31.0200 C   0  0  1  0  0  0  0  0  0  0  0  0
   71.0370   56.9860   30.9600 C   0  0  0  0  0  0  0  0  0  0  0  0
   70.1380   57.1930   32.1570 C   0  0  0  0  0  0  0  0  0  0  0  0
   70.6540   56.1970   33.2170 C   0  0  1  0  0  0  0  0  0  0  0  0
   72.9200   55.5530   32.8930 C   0  0  0  0  0  0  0  0  0  0  0  0
   74.5940   52.8510   29.7360 C   0  0  0  0  0  0  0  0  0  0  0  0
   69.6820   55.7200   34.2560 C   0  0  1  0  0  0  0  0  0  0  0  0
   68.3480   56.1570   34.3270 C   0  0  0  0  0  0  0  0  0  0  0  0
   67.4960   55.7770   35.2980 N   0  0  0  0  0  0  0  0  0  0  0  0
   67.9400   54.9790   36.2670 C   0  0  0  0  0  0  0  0  0  0  0  0
   69.2620   54.5330   36.2720 C   0  0  0  0  0  0  0  0  0  0  0  0
   70.1470   54.9110   35.2820 C   0  0  0  0  0  0  0  0  0  0  0  0
   31.4010   76.2670   33.0310 C   0  0  0  0  0  0  0  0  0  0  0  0
   30.7530   77.4400   32.3080 C   0  0  0  0  0  0  0  0  0  0  0  0
   31.2650   77.4650   30.8720 C   0  0  2  0  0  0  0  0  0  0  0  0
   30.8700   78.6560   30.1780 O   0  0  0  0  0  0  0  0  0  0  0  0
   30.7240   76.2470   30.1510 C   0  0  0  0  0  0  0  0  0  0  0  0
   31.1300   74.9870   30.8830 C   0  0  0  0  0  0  0  0  0  0  0  0
   31.5660   73.9680   30.1190 C   0  0  0  0  0  0  0  0  0  0  0  0
   32.0900   72.6620   30.6540 C   0  0  0  0  0  0  0  0  0  0  0  0
   31.8040   72.5200   32.1400 C   0  0  2  0  0  0  0  0  0  0  0  0
   31.9660   73.8260   32.9250 C   0  0  1  0  0  0  0  0  0  0  0  0
   31.0250   74.9220   32.3970 C   0  0  1  0  0  0  0  0  0  0  0  0
   31.8860   73.6430   34.4650 C   0  0  0  0  0  0  0  0  0  0  0  0
   32.4840   72.3500   35.0470 C   0  0  0  0  0  0  0  0  0  0  0  0
   32.2780   71.1270   34.1600 C   0  0  1  0  0  0  0  0  0  0  0  0
   32.7630   71.5350   32.7850 C   0  0  1  0  0  0  0  0  0  0  0  0
   33.0950   70.2590   32.0350 C   0  0  0  0  0  0  0  0  0  0  0  0
   33.7790   69.4660   33.1300 C   0  0  0  0  0  0  0  0  0  0  0  0
   33.0030   69.7840   34.4290 C   0  0  1  0  0  0  0  0  0  0  0  0
   30.7990   70.7750   34.1690 C   0  0  0  0  0  0  0  0  0  0  0  0
   29.5540   74.6430   32.7260 C   0  0  0  0  0  0  0  0  0  0  0  0
   33.7700   69.5960   35.7210 C   0  0  1  0  0  0  0  0  0  0  0  0
   34.9990   68.9460   35.7370 C   0  0  0  0  0  0  0  0  0  0  0  0
   35.6810   68.7360   36.8680 N   0  0  0  0  0  0  0  0  0  0  0  0
   35.1890   69.1290   38.0460 C   0  0  0  0  0  0  0  0  0  0  0  0
   33.9660   69.7650   38.1080 C   0  0  0  0  0  0  0  0  0  0  0  0
   33.2490   69.9800   36.9500 C   0  0  0  0  0  0  0  0  0  0  0  0
   71.7371   50.9970   29.2456 H   0  0  0  0  0  0  0  0  0  0  0  0
   73.1691   50.7486   30.3534 H   0  0  0  0  0  0  0  0  0  0  0  0
   74.6219   50.4590   28.4298 H   0  0  0  0  0  0  0  0  0  0  0  0
   73.2649   49.2685   28.4212 H   0  0  0  0  0  0  0  0  0  0  0  0
   72.0397   50.7034   26.7965 H   0  0  0  0  0  0  0  0  0  0  0  0
   74.2857   49.2559   26.3695 H   0  0  0  0  0  0  0  0  0  0  0  0
   74.5976   52.3412   26.7596 H   0  0  0  0  0  0  0  0  0  0  0  0
   73.0385   52.6296   25.8629 H   0  0  0  0  0  0  0  0  0  0  0  0
   73.9818   53.5629   28.0415 H   0  0  0  0  0  0  0  0  0  0  0  0
   73.2544   54.8385   27.0663 H   0  0  0  0  0  0  0  0  0  0  0  0
   71.5214   54.0254   27.1703 H   0  0  0  0  0  0  0  0  0  0  0  0
   72.4910   56.2668   28.4805 H   0  0  0  0  0  0  0  0  0  0  0  0
   70.8991   55.3696   28.5589 H   0  0  0  0  0  0  0  0  0  0  0  0
   73.2886   55.2328   30.3365 H   0  0  0  0  0  0  0  0  0  0  0  0
   71.1574   53.1024   29.9243 H   0  0  0  0  0  0  0  0  0  0  0  0
   71.9470   51.8538   31.7787 H   0  0  0  0  0  0  0  0  0  0  0  0
   73.2497   53.0817   32.0945 H   0  0  0  0  0  0  0  0  0  0  0  0
   70.2371   53.4820   32.3495 H   0  0  0  0  0  0  0  0  0  0  0  0
   71.4634   53.4387   33.6741 H   0  0  0  0  0  0  0  0  0  0  0  0
   70.3235   54.9962   30.6372 H   0  0  0  0  0  0  0  0  0  0  0  0
   71.9900   57.5243   31.0696 H   0  0  0  0  0  0  0  0  0  0  0  0
   70.6284   57.3583   30.0090 H   0  0  0  0  0  0  0  0  0  0  0  0
   70.2164   58.2263   32.5260 H   0  0  0  0  0  0  0  0  0  0  0  0
   69.0783   57.0267   31.9132 H   0  0  0  0  0  0  0  0  0  0  0  0
   71.2902   56.7068   33.9555 H   0  0  0  0  0  0  0  0  0  0  0  0
   72.9791   55.5683   33.9913 H   0  0  0  0  0  0  0  0  0  0  0  0
   73.6270   54.8085   32.4981 H   0  0  0  0  0  0  0  0  0  0  0  0
   73.1760   56.5473   32.4981 H   0  0  0  0  0  0  0  0  0  0  0  0
   74.6795   52.8645   30.8326 H   0  0  0  0  0  0  0  0  0  0  0  0
   75.2161   52.0399   29.3296 H   0  0  0  0  0  0  0  0  0  0  0  0
   74.9361   53.8143   29.3296 H   0  0  0  0  0  0  0  0  0  0  0  0
   69.9869   56.5430   34.9191 H   0  0  0  0  0  0  0  0  0  0  0  0
   68.3927   57.2549   34.3778 H   0  0  0  0  0  0  0  0  0  0  0  0
   67.9104   55.6605   33.4484 H   0  0  0  0  0  0  0  0  0  0  0  0
   67.1488   56.6356   35.7487 H   0  0  0  0  0  0  0  0  0  0  0  0
   67.7867   55.5184   37.2133 H   0  0  0  0  0  0  0  0  0  0  0  0
   67.3692   54.0531   36.1033 H   0  0  0  0  0  0  0  0  0  0  0  0
   69.6996   54.8649   37.2251 H   0  0  0  0  0  0  0  0  0  0  0  0
   69.1518   53.4528   36.0961 H   0  0  0  0  0  0  0  0  0  0  0  0
   70.5320   53.9896   34.8207 H   0  0  0  0  0  0  0  0  0  0  0  0
   70.8870   55.5350   35.8044 H   0  0  0  0  0  0  0  0  0  0  0  0
   32.4939   76.3852   32.9910 H   0  0  0  0  0  0  0  0  0  0  0  0
   31.0384   76.2660   34.0695 H   0  0  0  0  0  0  0  0  0  0  0  0
   29.6597   77.3191   32.3102 H   0  0  0  0  0  0  0  0  0  0  0  0
   31.0068   78.3825   32.8153 H   0  0  0  0  0  0  0  0  0  0  0  0
   32.3647   77.4532   30.8925 H   0  0  0  0  0  0  0  0  0  0  0  0
   30.6369   79.3589   30.8351 H   0  0  0  0  0  0  0  0  0  0  0  0
   29.6264   76.3062   30.1098 H   0  0  0  0  0  0  0  0  0  0  0  0
   31.1357   76.2197   29.1313 H   0  0  0  0  0  0  0  0  0  0  0  0
   30.1006   74.6078   30.8013 H   0  0  0  0  0  0  0  0  0  0  0  0
   30.7188   73.7024   29.4695 H   0  0  0  0  0  0  0  0  0  0  0  0
   32.4887   74.4034   29.7077 H   0  0  0  0  0  0  0  0  0  0  0  0
   31.6062   71.8340   30.1152 H   0  0  0  0  0  0  0  0  0  0  0  0
   33.1798   72.6382   30.5061 H   0  0  0  0  0  0  0  0  0  0  0  0
   30.7576   72.1841   32.1860 H   0  0  0  0  0  0  0  0  0  0  0  0
   32.9947   74.1705   32.7429 H   0  0  0  0  0  0  0  0  0  0  0  0
   32.4135   74.4901   34.9277 H   0  0  0  0  0  0  0  0  0  0  0  0
   30.8108   73.5872   34.6905 H   0  0  0  0  0  0  0  0  0  0  0  0
   33.5647   72.4994   35.1872 H   0  0  0  0  0  0  0  0  0  0  0  0
   31.9617   72.1519   35.9946 H   0  0  0  0  0  0  0  0  0  0  0  0
   33.6935   72.1215   32.7990 H   0  0  0  0  0  0  0  0  0  0  0  0
   32.1879   69.7529   31.6730 H   0  0  0  0  0  0  0  0  0  0  0  0
   33.6998   70.4044   31.1278 H   0  0  0  0  0  0  0  0  0  0  0  0
   33.7318   68.3893   32.9096 H   0  0  0  0  0  0  0  0  0  0  0  0
   34.8425   69.7326   33.2185 H   0  0  0  0  0  0  0  0  0  0  0  0
   32.2392   69.0256   34.6557 H   0  0  0  0  0  0  0  0  0  0  0  0
   30.4483   70.6915   35.2082 H   0  0  0  0  0  0  0  0  0  0  0  0
   30.2314   71.5631   33.6526 H   0  0  0  0  0  0  0  0  0  0  0  0
   30.6473   69.8157   33.6526 H   0  0  0  0  0  0  0  0  0  0  0  0
   29.4208   74.6177   33.8176 H   0  0  0  0  0  0  0  0  0  0  0  0
   28.9254   75.4379   32.2982 H   0  0  0  0  0  0  0  0  0  0  0  0
   29.2602   73.6731   32.2982 H   0  0  0  0  0  0  0  0  0  0  0  0
   33.2598   68.6353   35.8841 H   0  0  0  0  0  0  0  0  0  0  0  0
   34.8269   67.9539   35.2941 H   0  0  0  0  0  0  0  0  0  0  0  0
   35.6443   69.6656   35.2119 H   0  0  0  0  0  0  0  0  0  0  0  0
   35.8304   67.7192   36.9365 H   0  0  0  0  0  0  0  0  0  0  0  0
   35.1102   68.2286   38.6729 H   0  0  0  0  0  0  0  0  0  0  0  0
   35.8950   69.9096   38.3658 H   0  0  0  0  0  0  0  0  0  0  0  0
   33.3272   69.1642   38.7720 H   0  0  0  0  0  0  0  0  0  0  0  0
   34.2219   70.7808   38.4435 H   0  0  0  0  0  0  0  0  0  0  0  0
   33.0629   71.0625   36.8900 H   0  0  0  0  0  0  0  0  0  0  0  0
   32.3784   69.3183   37.0694 H   0  0  0  0  0  0  0  0  0  0  0  0
  1  2  1  0
  2  3  1  0
  3  4  1  0
  3  5  1  0
  5  6  1  0
  6  7  1  0
  7  8  1  0
  8  9  1  0
  9 10  1  0
  1 11  1  0
  6 11  1  0
 10 11  1  0
 10 12  1  0
 12 13  1  0
 13 14  1  0
  9 15  1  0
 14 15  1  0
 15 16  1  0
 16 17  1  0
 14 18  1  0
 17 18  1  0
 14 19  1  6
 11 20  1  1
 18 21  1  0
 21 22  1  0
 22 23  1  0
 24 23  1  0
 24 25  1  0
 21 26  1  0
 25 26  1  0
 27 28  1  0
 28 29  1  0
 29 30  1  0
 29 31  1  0
 31 32  1  0
 32 33  1  0
 33 34  1  0
 34 35  1  0
 35 36  1  0
 27 37  1  0
 32 37  1  0
 36 37  1  0
 36 38  1  0
 38 39  1  0
 39 40  1  0
 35 41  1  0
 40 41  1  0
 41 42  1  0
 42 43  1  0
 40 44  1  0
 43 44  1  0
 40 45  1  6
 37 46  1  6
 44 47  1  0
 47 48  1  0
 48 49  1  0
 50 49  1  0
 50 51  1  0
 47 52  1  0
 51 52  1  0
  1 53  1  0
  1 54  1  0
  2 55  1  0
  2 56  1  0
  3 57  1  1
  4 58  1  0
  5 59  1  0
  5 60  1  0
  6 61  1  6
  7 62  1  0
  7 63  1  0
  8 64  1  0
  8 65  1  0
  9 66  1  1
 10 67  1  6
 12 68  1  0
 12 69  1  0
 13 70  1  0
 13 71  1  0
 15 72  1  6
 16 73  1  0
 16 74  1  0
 17 75  1  0
 17 76  1  0
 18 77  1  1
 19 78  1  0
 19 79  1  0
 19 80  1  0
 20 81  1  0
 20 82  1  0
 20 83  1  0
 21 84  1  6
 22 85  1  0
 22 86  1  0
 23 87  1  1
 24 88  1  0
 24 89  1  0
 25 90  1  0
 25 91  1  0
 26 92  1  0
 26 93  1  0
 27 94  1  0
 27 95  1  0
 28 96  1  0
 28 97  1  0
 29 98  1  1
 30 99  1  0
 31100  1  0
 31101  1  0
 32102  1  0
 33103  1  0
 33104  1  0
 34105  1  0
 34106  1  0
 35107  1  6
 36108  1  1
 38109  1  0
 38110  1  0
 39111  1  0
 39112  1  0
 41113  1  1
 42114  1  0
 42115  1  0
 43116  1  0
 43117  1  0
 44118  1  1
 45119  1  0
 45120  1  0
 45121  1  0
 46122  1  0
 46123  1  0
 46124  1  0
 47125  1  6
 48126  1  0
 48127  1  0
 49128  1  6
 50129  1  0
 50130  1  0
 51131  1  0
 51132  1  0
 52133  1  0
 52134  1  0
M  END
>  <PDBID>  (1) 
4R1Z

>  <PDB ID>  (1) 
4R1Z

>  <Generic Name>  (1) 
Abiraterone

>  <Brand Name>  (1) 
Zytiga

>  <DrugBank ID>  (1) 
DB05812

>  <ATC Codes>  (1) 
L02BX03

>  <Ligand ID>  (1) 
AER

>  <Target Name>  (1) 
Steroid 17-alpha-hydroxylase/17,20 lyase

>  <UniProt ID>  (1) 
P05093

>  <PDB ID.1>  (1) 
4R1Z

>  <Seq. Identity>  (1) 
50%

$$$$
