PDB_DB01536_99
     RDKit          3D

 53 56  0  0  0  0  0  0  0  0999 V2000
   12.6820    6.6370  -13.3280 C   0  0  0  0  0  0  0  0  0  0  0  0
   11.6230    7.1250  -12.3090 C   0  0  1  0  0  0  0  0  0  0  0  0
   10.7000    8.2540  -14.3120 C   0  0  0  0  0  0  0  0  0  0  0  0
   10.0980    9.4980  -14.8940 C   0  0  0  0  0  0  0  0  0  0  0  0
    9.2190   10.4120  -13.9310 C   0  0  1  0  0  0  0  0  0  0  0  0
    9.9690   10.5700  -12.6380 C   0  0  1  0  0  0  0  0  0  0  0  0
    9.0770   11.4870  -11.7710 C   0  0  0  0  0  0  0  0  0  0  0  0
    8.9100   12.6080  -12.8390 C   0  0  0  0  0  0  0  0  0  0  0  0
    8.9680   11.8890  -14.2240 C   0  0  0  0  0  0  0  0  0  0  0  0
    7.7930    9.8230  -14.0300 C   0  0  0  0  0  0  0  0  0  0  0  0
   10.4030    6.1690  -12.2020 C   0  0  0  0  0  0  0  0  0  0  0  0
   13.4720    5.4360  -12.8760 C   0  0  0  0  0  0  0  0  0  0  0  0
   13.9540    5.5870  -11.4550 C   0  0  0  0  0  0  0  0  0  0  0  0
   13.3040    6.4950  -10.5100 C   0  0  0  0  0  0  0  0  0  0  0  0
   12.2060    7.2280  -10.8950 C   0  0  0  0  0  0  0  0  0  0  0  0
   11.5190    8.1860   -9.9570 C   0  0  0  0  0  0  0  0  0  0  0  0
   11.2860    9.5660  -10.6440 C   0  0  0  0  0  0  0  0  0  0  0  0
   10.4020    9.3080  -11.9280 C   0  0  2  0  0  0  0  0  0  0  0  0
   11.2420    8.5130  -12.8800 C   0  0  1  0  0  0  0  0  0  0  0  0
   14.9130    4.9130  -11.1460 O   0  0  0  0  0  0  0  0  0  0  0  0
    8.8090   12.5650  -15.2250 O   0  0  0  0  0  0  0  0  0  0  0  0
   12.1653    6.3770  -14.2636 H   0  0  0  0  0  0  0  0  0  0  0  0
   13.4024    7.4592  -13.4510 H   0  0  0  0  0  0  0  0  0  0  0  0
    9.9308    7.4689  -14.2685 H   0  0  0  0  0  0  0  0  0  0  0  0
   11.5379    7.9390  -14.9513 H   0  0  0  0  0  0  0  0  0  0  0  0
   10.9245   10.1178  -15.2720 H   0  0  0  0  0  0  0  0  0  0  0  0
    9.3925    9.1364  -15.6566 H   0  0  0  0  0  0  0  0  0  0  0  0
   10.9570   11.0038  -12.8514 H   0  0  0  0  0  0  0  0  0  0  0  0
    8.1218   11.0152  -11.4971 H   0  0  0  0  0  0  0  0  0  0  0  0
    9.4696   11.7851  -10.7876 H   0  0  0  0  0  0  0  0  0  0  0  0
    7.9432   13.1170  -12.7120 H   0  0  0  0  0  0  0  0  0  0  0  0
    9.6942   13.3740  -12.7476 H   0  0  0  0  0  0  0  0  0  0  0  0
    7.8830   11.7137  -14.1784 H   0  0  0  0  0  0  0  0  0  0  0  0
    7.3934    9.6580  -13.0185 H   0  0  0  0  0  0  0  0  0  0  0  0
    7.1426   10.5261  -14.5710 H   0  0  0  0  0  0  0  0  0  0  0  0
    7.8284    8.8659  -14.5710 H   0  0  0  0  0  0  0  0  0  0  0  0
   10.1713    5.9874  -11.1421 H   0  0  0  0  0  0  0  0  0  0  0  0
    9.5330    6.6283  -12.6941 H   0  0  0  0  0  0  0  0  0  0  0  0
   10.6409    5.2144  -12.6941 H   0  0  0  0  0  0  0  0  0  0  0  0
   12.8327    4.5433  -12.9425 H   0  0  0  0  0  0  0  0  0  0  0  0
   14.3527    5.3401  -13.5281 H   0  0  0  0  0  0  0  0  0  0  0  0
   14.6282    6.3972  -11.7698 H   0  0  0  0  0  0  0  0  0  0  0  0
   12.9909    5.8849   -9.6499 H   0  0  0  0  0  0  0  0  0  0  0  0
   14.0700    7.2653  -10.3372 H   0  0  0  0  0  0  0  0  0  0  0  0
   11.5457    6.4131  -10.5634 H   0  0  0  0  0  0  0  0  0  0  0  0
   10.5481    7.7638   -9.6584 H   0  0  0  0  0  0  0  0  0  0  0  0
   12.1601    8.3358   -9.0758 H   0  0  0  0  0  0  0  0  0  0  0  0
   10.7614   10.2453   -9.9560 H   0  0  0  0  0  0  0  0  0  0  0  0
   12.2443   10.0316  -10.9179 H   0  0  0  0  0  0  0  0  0  0  0  0
    9.4846    8.7935  -11.6059 H   0  0  0  0  0  0  0  0  0  0  0  0
   12.0961    9.1981  -12.9857 H   0  0  0  0  0  0  0  0  0  0  0  0
   14.9794    4.8663  -10.1593 H   0  0  0  0  0  0  0  0  0  0  0  0
    8.5903   13.4946  -14.9641 H   0  0  0  0  0  0  0  0  0  0  0  0
  1  2  1  0
  3  4  1  0
  4  5  1  0
  5  6  1  0
  6  7  1  0
  7  8  1  0
  5  9  1  0
  8  9  1  0
  5 10  1  1
  2 11  1  1
  1 12  1  0
 12 13  1  0
 13 14  1  0
  2 15  1  0
 14 15  1  0
 15 16  1  0
 16 17  1  0
  6 18  1  0
 17 18  1  0
  2 19  1  0
  3 19  1  0
 18 19  1  0
 13 20  1  0
  9 21  1  0
  1 22  1  0
  1 23  1  0
  3 24  1  0
  3 25  1  0
  4 26  1  0
  4 27  1  0
  6 28  1  6
  7 29  1  0
  7 30  1  0
  8 31  1  0
  8 32  1  0
  9 33  1  0
 10 34  1  0
 10 35  1  0
 10 36  1  0
 11 37  1  0
 11 38  1  0
 11 39  1  0
 12 40  1  0
 12 41  1  0
 13 42  1  0
 14 43  1  0
 14 44  1  0
 15 45  1  0
 16 46  1  0
 16 47  1  0
 17 48  1  0
 17 49  1  0
 18 50  1  1
 19 51  1  6
 20 52  1  0
 21 53  1  0
M  END
>  <PDBID>  (1) 
1QYX

>  <PDB ID>  (1) 
1QYX

>  <Generic Name>  (1) 
4-Androstenedione

>  <Brand Name>  (1) 
nan

>  <DrugBank ID>  (1) 
DB01536

>  <ATC Codes>  (1) 
nan

>  <Ligand ID>  (1) 
ASD

>  <Target Name>  (1) 
Estradiol 17-beta-dehydrogenase 1

>  <UniProt ID>  (1) 
P14061

>  <PDB ID.1>  (1) 
1QYX

>  <Seq. Identity>  (1) 
89%

$$$$
