PDB_DB00452_75
     RDKit          3D

 88 91  0  0  0  0  0  0  0  0999 V2000
   43.9120  121.3730  -97.7260 C   0  0  2  0  0  0  0  0  0  0  0  0
   44.4460  121.4590  -96.3860 O   0  0  0  0  0  0  0  0  0  0  0  0
   43.2460  119.9880  -97.9750 C   0  0  2  0  0  0  0  0  0  0  0  0
   42.2240  119.6950  -96.9360 N   0  0  0  0  0  0  0  0  0  0  0  0
   44.3420  118.8410  -98.0310 C   0  0  1  0  0  0  0  0  0  0  0  0
   43.7310  117.5520  -98.2810 O   0  0  0  0  0  0  0  0  0  0  0  0
   45.3800  119.1670  -99.1510 C   0  0  2  0  0  0  0  0  0  0  0  0
   46.3550  118.1330  -99.2200 O   0  0  0  0  0  0  0  0  0  0  0  0
   46.0530  120.5620  -98.8630 C   0  0  2  0  0  0  0  0  0  0  0  0
   44.9660  121.5900  -98.7800 O   0  0  0  0  0  0  0  0  0  0  0  0
   47.0770  120.9320  -99.9900 C   0  0  0  0  0  0  0  0  0  0  0  0
   45.7140  124.4990  -93.5260 C   0  0  1  0  0  0  0  0  0  0  0  0
   46.2340  125.7770  -92.9680 N   0  0  0  0  0  0  0  0  0  0  0  0
   44.3640  124.6840  -94.3260 C   0  0  1  0  0  0  0  0  0  0  0  0
   43.8580  123.3470  -94.9030 C   0  0  1  0  0  0  0  0  0  0  0  0
   42.6310  123.5920  -95.6400 O   0  0  0  0  0  0  0  0  0  0  0  0
   44.9220  122.7520  -95.8640 C   0  0  1  0  0  0  0  0  0  0  0  0
   46.2860  122.5740  -95.1090 C   0  0  1  0  0  0  0  0  0  0  0  0
   47.3180  122.0420  -96.0180 N   0  0  0  0  0  0  0  0  0  0  0  0
   46.7960  123.9250  -94.5030 C   0  0  0  0  0  0  0  0  0  0  0  0
   41.3960  123.0500  -95.1190 C   0  0  1  0  0  0  0  0  0  0  0  0
   40.2220  123.9770  -95.3500 C   0  0  1  0  0  0  0  0  0  0  0  0
   39.0160  122.9840  -95.5780 C   0  0  1  0  0  0  0  0  0  0  0  0
   39.6360  121.6840  -96.0700 C   0  0  2  0  0  0  0  0  0  0  0  0
   41.0760  121.7860  -95.7760 O   0  0  0  0  0  0  0  0  0  0  0  0
   39.4430  121.4440  -97.5570 C   0  0  0  0  0  0  0  0  0  0  0  0
   35.1890  121.2270  -92.6780 C   0  0  1  0  0  0  0  0  0  0  0  0
   36.0090  122.4730  -92.1760 C   0  0  1  0  0  0  0  0  0  0  0  0
   36.1460  123.5370  -93.2840 C   0  0  2  0  0  0  0  0  0  0  0  0
   36.8360  122.9270  -94.5260 C   0  0  1  0  0  0  0  0  0  0  0  0
   38.2210  122.6860  -94.3660 O   0  0  0  0  0  0  0  0  0  0  0  0
   35.8500  120.5700  -93.9280 C   0  0  1  0  0  0  0  0  0  0  0  0
   36.0810  121.6580  -94.9410 O   0  0  0  0  0  0  0  0  0  0  0  0
   37.1910  119.8070  -93.5630 C   0  0  0  0  0  0  0  0  0  0  0  0
   47.7230  122.2290  -99.7500 N   0  0  0  0  0  0  0  0  0  0  0  0
   40.1030  124.9270  -94.2840 O   0  0  0  0  0  0  0  0  0  0  0  0
   35.3740  123.0380  -91.0680 O   0  0  0  0  0  0  0  0  0  0  0  0
   34.9980  120.1910  -91.6820 O   0  0  0  0  0  0  0  0  0  0  0  0
   39.4650  120.0370  -97.7370 O   0  0  0  0  0  0  0  0  0  0  0  0
   43.3540  125.1860  -93.4690 O   0  0  0  0  0  0  0  0  0  0  0  0
   37.8080  119.1790  -94.7760 N   0  0  0  0  0  0  0  0  0  0  0  0
   36.8930  124.7610  -92.8090 N   0  0  0  0  0  0  0  0  0  0  0  0
   43.1627  122.1744  -97.8050 H   0  0  0  0  0  0  0  0  0  0  0  0
   42.7365  120.0235  -98.9492 H   0  0  0  0  0  0  0  0  0  0  0  0
   42.6404  119.8144  -96.0015 H   0  0  0  0  0  0  0  0  0  0  0  0
   41.4300  120.3422  -97.0433 H   0  0  0  0  0  0  0  0  0  0  0  0
   44.8518  118.7940  -97.0574 H   0  0  0  0  0  0  0  0  0  0  0  0
   43.5228  117.1127  -97.4186 H   0  0  0  0  0  0  0  0  0  0  0  0
   44.8689  119.2241 -100.1234 H   0  0  0  0  0  0  0  0  0  0  0  0
   46.6122  117.8603  -98.3037 H   0  0  0  0  0  0  0  0  0  0  0  0
   46.6113  120.5210  -97.9161 H   0  0  0  0  0  0  0  0  0  0  0  0
   47.8524  120.1529 -100.0336 H   0  0  0  0  0  0  0  0  0  0  0  0
   46.5242  121.0009 -100.9385 H   0  0  0  0  0  0  0  0  0  0  0  0
   45.5073  123.8204  -92.6853 H   0  0  0  0  0  0  0  0  0  0  0  0
   46.2167  125.7346  -91.9390 H   0  0  0  0  0  0  0  0  0  0  0  0
   47.2015  125.9235  -93.2894 H   0  0  0  0  0  0  0  0  0  0  0  0
   44.5722  125.3858  -95.1471 H   0  0  0  0  0  0  0  0  0  0  0  0
   43.6743  122.6363  -94.0838 H   0  0  0  0  0  0  0  0  0  0  0  0
   45.0795  123.4396  -96.7080 H   0  0  0  0  0  0  0  0  0  0  0  0
   46.1056  121.8637  -94.2887 H   0  0  0  0  0  0  0  0  0  0  0  0
   48.0904  121.6438  -95.4650 H   0  0  0  0  0  0  0  0  0  0  0  0
   46.9069  121.3078  -96.6120 H   0  0  0  0  0  0  0  0  0  0  0  0
   47.7319  123.7499  -93.9521 H   0  0  0  0  0  0  0  0  0  0  0  0
   46.9779  124.6457  -95.3138 H   0  0  0  0  0  0  0  0  0  0  0  0
   41.5537  122.9136  -94.0389 H   0  0  0  0  0  0  0  0  0  0  0  0
   40.3044  124.6457  -96.2195 H   0  0  0  0  0  0  0  0  0  0  0  0
   38.3164  123.4547  -96.2844 H   0  0  0  0  0  0  0  0  0  0  0  0
   39.1463  120.8380  -95.5655 H   0  0  0  0  0  0  0  0  0  0  0  0
   38.4780  121.8557  -97.8876 H   0  0  0  0  0  0  0  0  0  0  0  0
   40.2297  121.9360  -98.1478 H   0  0  0  0  0  0  0  0  0  0  0  0
   34.2021  121.6448  -92.9259 H   0  0  0  0  0  0  0  0  0  0  0  0
   37.0164  122.1291  -91.8989 H   0  0  0  0  0  0  0  0  0  0  0  0
   35.1317  123.8634  -93.5574 H   0  0  0  0  0  0  0  0  0  0  0  0
   36.7858  123.6771  -95.3290 H   0  0  0  0  0  0  0  0  0  0  0  0
   35.1827  119.8007  -94.3438 H   0  0  0  0  0  0  0  0  0  0  0  0
   37.9039  120.5233  -93.1285 H   0  0  0  0  0  0  0  0  0  0  0  0
   36.9521  119.0103  -92.8432 H   0  0  0  0  0  0  0  0  0  0  0  0
   47.8033  122.3901  -98.7359 H   0  0  0  0  0  0  0  0  0  0  0  0
   48.6622  122.2283 -100.1729 H   0  0  0  0  0  0  0  0  0  0  0  0
   40.1619  124.4568  -93.4148 H   0  0  0  0  0  0  0  0  0  0  0  0
   35.7772  122.6792  -90.2381 H   0  0  0  0  0  0  0  0  0  0  0  0
   35.0708  120.5858  -90.7771 H   0  0  0  0  0  0  0  0  0  0  0  0
   39.4720  119.5913  -96.8530 H   0  0  0  0  0  0  0  0  0  0  0  0
   43.6244  125.0516  -92.5262 H   0  0  0  0  0  0  0  0  0  0  0  0
   38.5001  118.4745  -94.4835 H   0  0  0  0  0  0  0  0  0  0  0  0
   37.0740  118.7261  -95.3391 H   0  0  0  0  0  0  0  0  0  0  0  0
   36.9037  124.7785  -91.7792 H   0  0  0  0  0  0  0  0  0  0  0  0
   37.8602  124.7314  -93.1620 H   0  0  0  0  0  0  0  0  0  0  0  0
  2  1  1  0
  3  1  1  0
  4  3  1  0
  5  3  1  0
  6  5  1  0
  7  5  1  0
  8  7  1  0
  9  7  1  0
 10  9  1  0
 10  1  1  0
 11  9  1  0
 13 12  1  0
 14 12  1  0
 15 14  1  0
 16 15  1  0
 17 15  1  0
 17  2  1  0
 18 17  1  0
 19 18  1  0
 20 18  1  0
 20 12  1  0
 21 16  1  0
 22 21  1  0
 23 22  1  0
 24 23  1  0
 25 24  1  0
 25 21  1  0
 26 24  1  0
 28 27  1  0
 29 28  1  0
 30 29  1  0
 31 30  1  0
 31 23  1  0
 32 27  1  0
 33 32  1  0
 33 30  1  0
 34 32  1  0
 35 11  1  0
 36 22  1  0
 37 28  1  0
 38 27  1  0
 39 26  1  0
 40 14  1  0
 41 34  1  0
 42 29  1  0
  1 43  1  1
  3 44  1  6
  4 45  1  0
  4 46  1  0
  5 47  1  1
  6 48  1  0
  7 49  1  6
  8 50  1  0
  9 51  1  1
 11 52  1  0
 11 53  1  0
 12 54  1  1
 13 55  1  0
 13 56  1  0
 14 57  1  6
 15 58  1  1
 17 59  1  6
 18 60  1  1
 19 61  1  0
 19 62  1  0
 20 63  1  0
 20 64  1  0
 21 65  1  1
 22 66  1  6
 23 67  1  6
 24 68  1  1
 26 69  1  0
 26 70  1  0
 27 71  1  6
 28 72  1  1
 29 73  1  6
 30 74  1  6
 32 75  1  6
 34 76  1  0
 34 77  1  0
 35 78  1  0
 35 79  1  0
 36 80  1  0
 37 81  1  0
 38 82  1  0
 39 83  1  0
 40 84  1  0
 41 85  1  0
 41 86  1  0
 42 87  1  0
 42 88  1  0
M  END
$$$$
