PDB_DB00674_98
     RDKit          3D

 50 53  0  0  0  0  0  0  0  0999 V2000
    2.6500   67.6610   63.4320 C   0  0  0  0  0  0  0  0  0  0  0  0
    2.7990   68.1720   62.1980 C   0  0  0  0  0  0  0  0  0  0  0  0
    4.1930   68.4080   61.5850 C   0  0  1  0  0  0  0  0  0  0  0  0
    5.3690   68.4590   62.7340 C   0  0  0  0  0  0  0  0  0  0  0  0
    5.1530   67.2270   63.6640 C   0  0  1  0  0  0  0  0  0  0  0  0
    3.8460   67.3510   64.4300 C   0  0  1  0  0  0  0  0  0  0  0  0
    5.1900   65.9910   62.9580 O   0  0  0  0  0  0  0  0  0  0  0  0
    4.5890   63.7660   63.9110 C   0  0  1  0  0  0  0  0  0  0  0  0
    3.8270   63.1050   64.9120 C   0  0  0  0  0  0  0  0  0  0  0  0
    3.0760   63.8470   65.8210 C   0  0  0  0  0  0  0  0  0  0  0  0
    2.2290   65.9650   66.8100 C   0  0  0  0  0  0  0  0  0  0  0  0
    1.9940   67.2200   67.0670 N   0  0  0  0  0  0  0  0  0  0  0  0
    2.4530   68.4310   66.3370 C   0  0  0  0  0  0  0  0  0  0  0  0
    3.8090   68.4240   65.5990 C   0  0  0  0  0  0  0  0  0  0  0  0
    4.5190   65.1850   63.8760 C   0  0  0  0  0  0  0  0  0  0  0  0
    3.7520   65.9240   64.7850 C   0  0  0  0  0  0  0  0  0  0  0  0
    3.0290   65.2880   65.7800 C   0  0  0  0  0  0  0  0  0  0  0  0
    5.8240   61.7850   63.3060 C   0  0  0  0  0  0  0  0  0  0  0  0
    5.4870   63.1330   63.0060 O   0  0  0  0  0  0  0  0  0  0  0  0
    4.3180   67.2490   60.6900 O   0  0  0  0  0  0  0  0  0  0  0  0
    1.2120   67.4310   68.2710 C   0  0  0  0  0  0  0  0  0  0  0  0
    1.9948   68.3650   63.9660 H   0  0  0  0  0  0  0  0  0  0  0  0
    2.3182   66.6405   63.1901 H   0  0  0  0  0  0  0  0  0  0  0  0
    2.2713   67.4905   61.5146 H   0  0  0  0  0  0  0  0  0  0  0  0
    2.4189   69.1970   62.3201 H   0  0  0  0  0  0  0  0  0  0  0  0
    4.3038   69.3729   61.0687 H   0  0  0  0  0  0  0  0  0  0  0  0
    6.3610   68.4061   62.2616 H   0  0  0  0  0  0  0  0  0  0  0  0
    5.3169   69.3966   63.3069 H   0  0  0  0  0  0  0  0  0  0  0  0
    5.9926   67.2222   64.3747 H   0  0  0  0  0  0  0  0  0  0  0  0
    3.7342   63.7068   63.2212 H   0  0  0  0  0  0  0  0  0  0  0  0
    3.1246   62.4398   64.3884 H   0  0  0  0  0  0  0  0  0  0  0  0
    4.5948   62.6346   65.5438 H   0  0  0  0  0  0  0  0  0  0  0  0
    2.0368   63.5023   65.7151 H   0  0  0  0  0  0  0  0  0  0  0  0
    3.6085   63.6610   66.7654 H   0  0  0  0  0  0  0  0  0  0  0  0
    2.6563   65.5888   67.7512 H   0  0  0  0  0  0  0  0  0  0  0  0
    1.2508   65.7558   66.3523 H   0  0  0  0  0  0  0  0  0  0  0  0
    1.6837   68.6577   65.5841 H   0  0  0  0  0  0  0  0  0  0  0  0
    2.6084   69.1653   67.1412 H   0  0  0  0  0  0  0  0  0  0  0  0
    4.6049   68.1895   66.3212 H   0  0  0  0  0  0  0  0  0  0  0  0
    3.9568   69.4180   65.1517 H   0  0  0  0  0  0  0  0  0  0  0  0
    3.6577   65.1257   63.1944 H   0  0  0  0  0  0  0  0  0  0  0  0
    2.8745   65.8189   64.1301 H   0  0  0  0  0  0  0  0  0  0  0  0
    2.1462   65.2406   65.1255 H   0  0  0  0  0  0  0  0  0  0  0  0
    5.8578   61.6496   64.3971 H   0  0  0  0  0  0  0  0  0  0  0  0
    5.0661   61.1133   62.8765 H   0  0  0  0  0  0  0  0  0  0  0  0
    6.8088   61.5490   62.8765 H   0  0  0  0  0  0  0  0  0  0  0  0
    4.4070   66.4236   61.2294 H   0  0  0  0  0  0  0  0  0  0  0  0
    1.8452   67.2602   69.1541 H   0  0  0  0  0  0  0  0  0  0  0  0
    0.8330   68.4635   68.2858 H   0  0  0  0  0  0  0  0  0  0  0  0
    0.3650   66.7293   68.2858 H   0  0  0  0  0  0  0  0  0  0  0  0
  1  2  1  0
  2  3  1  0
  3  4  1  0
  4  5  1  0
  6  1  1  6
  5  6  1  0
  5  7  1  0
  8  9  1  0
  9 10  1  0
 11 12  1  0
 12 13  1  0
  6 14  1  0
 13 14  1  0
  7 15  1  0
  8 15  1  0
  6 16  1  0
 15 16  1  0
 10 17  1  0
 11 17  1  0
 16 17  1  0
  8 19  1  0
 18 19  1  0
  3 20  1  0
 12 21  1  0
  1 22  1  0
  1 23  1  0
  2 24  1  0
  2 25  1  0
  3 26  1  6
  4 27  1  0
  4 28  1  0
  5 29  1  1
  8 30  1  6
  9 31  1  0
  9 32  1  0
 10 33  1  0
 10 34  1  0
 11 35  1  0
 11 36  1  0
 13 37  1  0
 13 38  1  0
 14 39  1  0
 14 40  1  0
 15 41  1  0
 16 42  1  0
 17 43  1  0
 18 44  1  0
 18 45  1  0
 18 46  1  0
 20 47  1  0
 21 48  1  0
 21 49  1  0
 21 50  1  0
M  END
>  <PDBID>  (1) 
1W6R

>  <PDB ID>  (1) 
1W6R

>  <Generic Name>  (1) 
Galantamine

>  <Brand Name>  (1) 
Apo-galantamine#Auro-galantamine ER#Galantamine#Galantamine ER#Galantamine Hydrobromide#Ipg-galantamine ER#Mar-galantamine ER#Mylan-galantamine ER#PMS-galantamine#PMS-galantamine ER#Pat-galantamine ER#Pendo-galantamine ER#Ratio-galantamine#Razadyne#Reminyl   -(12mg)#Reminyl   -(4mg)#Reminyl   -(8mg)#Reminyl ER#Sandoz Galantamine ER#Teva-galantamine ER#Lycoremine#Nivalin#Reminyl

>  <DrugBank ID>  (1) 
DB00674

>  <ATC Codes>  (1) 
N06DA04

>  <Ligand ID>  (1) 
GNT

>  <Target Name>  (1) 
Acetylcholinesterase

>  <UniProt ID>  (1) 
P22303

>  <PDB ID.1>  (1) 
1W6R

>  <Seq. Identity>  (1) 
57%

$$$$
