PDB_DB00570_99
     RDKit          3D

139147  0  0  0  0  0  0  0  0999 V2000
    3.6340   50.5390   19.6780 C   0  0  0  0  0  0  0  0  0  0  0  0
    4.3820   49.7980   18.6030 C   0  0  0  0  0  0  0  0  0  0  0  0
    3.5730   48.7200   17.9310 C   0  0  1  0  0  0  0  0  0  0  0  0
    2.6260   49.2890   17.0650 O   0  0  0  0  0  0  0  0  0  0  0  0
    4.4910   47.8770   17.0450 C   0  0  0  0  0  0  0  0  0  0  0  0
    2.8080   47.8510   18.9380 C   0  0  0  0  0  0  0  0  0  0  0  0
    2.1220   46.5520   18.4810 C   0  0  1  0  0  0  0  0  0  0  0  0
    0.6190   46.7600   17.9850 C   0  0  0  0  0  0  0  0  0  0  0  0
    3.0950   45.9270   17.4870 C   0  0  0  0  0  0  0  0  0  0  0  0
    3.9520   46.6070   16.5190 N   0  0  0  0  0  0  0  0  0  0  0  0
    3.5760   46.6170   15.0280 C   0  0  0  0  0  0  0  0  0  0  0  0
    2.1040   46.8070   14.4990 C   0  0  0  0  0  0  0  0  0  0  0  0
    1.1060   45.6450   14.7330 C   0  0  0  0  0  0  0  0  0  0  0  0
    0.8690   44.6680   13.6750 C   0  0  0  0  0  0  0  0  0  0  0  0
    1.4000   44.5910   12.4160 C   0  0  0  0  0  0  0  0  0  0  0  0
    1.0040   43.5610   11.6030 C   0  0  0  0  0  0  0  0  0  0  0  0
    0.0910   42.6270   12.0490 C   0  0  0  0  0  0  0  0  0  0  0  0
   -0.4520   42.6900   13.3140 C   0  0  0  0  0  0  0  0  0  0  0  0
   -0.0920   43.6980   14.1670 C   0  0  0  0  0  0  0  0  0  0  0  0
   -0.4410   44.0040   15.4140 N   0  0  0  0  0  0  0  0  0  0  0  0
    0.1840   45.1150   15.8390 C   0  0  0  0  0  0  0  0  0  0  0  0
   -0.1500   45.5550   17.3050 C   0  0  2  0  0  0  0  0  0  0  0  0
   -1.5840   46.0150   17.1990 C   0  0  0  0  0  0  0  0  0  0  0  0
   -1.8850   47.1660   17.0530 O   0  0  0  0  0  0  0  0  0  0  0  0
   -2.6350   45.0450   17.2790 O   0  0  0  0  0  0  0  0  0  0  0  0
   -3.9630   45.3980   16.9920 C   0  0  0  0  0  0  0  0  0  0  0  0
    0.0630   44.5810   18.4280 C   0  0  0  0  0  0  0  0  0  0  0  0
    0.9950   43.5360   18.3400 C   0  0  0  0  0  0  0  0  0  0  0  0
    1.1900   42.6610   19.4070 C   0  0  0  0  0  0  0  0  0  0  0  0
    2.0960   41.4940   19.5640 C   0  0  1  0  0  0  0  0  0  0  0  0
    2.1080   40.6070   18.3420 C   0  0  1  0  0  0  0  0  0  0  0  0
    3.5070   42.0090   19.6430 C   0  0  0  0  0  0  0  0  0  0  0  0
    4.3590   40.8920   19.1050 C   0  0  0  0  0  0  0  0  0  0  0  0
    3.5130   40.1830   18.1450 N   0  0  0  0  0  0  0  0  0  0  0  0
    3.8680   38.7740   18.0950 C   0  0  0  0  0  0  0  0  0  0  0  0
    2.7620   37.9070   17.6080 C   0  0  0  0  0  0  0  0  0  0  0  0
    1.5050   38.2460   17.7070 C   0  0  0  0  0  0  0  0  0  0  0  0
    1.0100   39.5290   18.2970 C   0  0  2  0  0  0  0  0  0  0  0  0
   -0.0530   39.9770   17.3060 C   0  0  0  0  0  0  0  0  0  0  0  0
    0.4200   40.1620   15.8990 C   0  0  0  0  0  0  0  0  0  0  0  0
    0.2760   39.2970   19.6300 C   0  0  1  0  0  0  0  0  0  0  0  0
   -0.2360   37.9750   19.7520 O   0  0  0  0  0  0  0  0  0  0  0  0
   -1.6640   37.8150   19.8010 C   0  0  0  0  0  0  0  0  0  0  0  0
   -2.1890   36.4900   20.2080 C   0  0  0  0  0  0  0  0  0  0  0  0
   -2.3940   38.7270   19.5110 O   0  0  0  0  0  0  0  0  0  0  0  0
    1.1300   39.5200   20.8630 C   0  0  1  0  0  0  0  0  0  0  0  0
    0.3010   39.2430   22.0760 C   0  0  0  0  0  0  0  0  0  0  0  0
   -0.8740   39.4640   22.1230 O   0  0  0  0  0  0  0  0  0  0  0  0
    0.9140   38.6840   23.2290 O   0  0  0  0  0  0  0  0  0  0  0  0
    0.2380   37.6270   23.8720 C   0  0  0  0  0  0  0  0  0  0  0  0
    2.2170   38.6230   20.9110 O   0  0  0  0  0  0  0  0  0  0  0  0
    1.7070   40.9130   20.9350 C   0  0  2  0  0  0  0  0  0  0  0  0
    0.7810   41.8930   21.5250 N   0  0  0  0  0  0  0  0  0  0  0  0
    0.3840   41.9660   22.9230 C   0  0  0  0  0  0  0  0  0  0  0  0
    0.4170   42.8330   20.6200 C   0  0  0  0  0  0  0  0  0  0  0  0
   -0.4940   43.8490   20.7570 C   0  0  0  0  0  0  0  0  0  0  0  0
   -0.7110   44.7360   19.7140 C   0  0  0  0  0  0  0  0  0  0  0  0
   -1.6210   45.7250   19.8860 O   0  0  0  0  0  0  0  0  0  0  0  0
   -2.6960   45.6870   20.7930 C   0  0  0  0  0  0  0  0  0  0  0  0
    4.3220   51.0780   20.2690 H   0  0  0  0  0  0  0  0  0  0  0  0
    2.9540   51.2130   19.2320 H   0  0  0  0  0  0  0  0  0  0  0  0
    3.1070   49.8560   20.2860 H   0  0  0  0  0  0  0  0  0  0  0  0
    5.2730   49.3460   19.0360 H   0  0  0  0  0  0  0  0  0  0  0  0
    4.7070   50.5100   17.8460 H   0  0  0  0  0  0  0  0  0  0  0  0
    3.0740   49.7260   16.3320 H   0  0  0  0  0  0  0  0  0  0  0  0
    5.3860   47.6490   17.6200 H   0  0  0  0  0  0  0  0  0  0  0  0
    4.8010   48.4870   16.1990 H   0  0  0  0  0  0  0  0  0  0  0  0
    3.5100   47.5870   19.7280 H   0  0  0  0  0  0  0  0  0  0  0  0
    2.0510   48.4790   19.4010 H   0  0  0  0  0  0  0  0  0  0  0  0
    2.0810   45.8860   19.3490 H   0  0  0  0  0  0  0  0  0  0  0  0
    0.6690   47.5340   17.2220 H   0  0  0  0  0  0  0  0  0  0  0  0
    0.0400   47.2060   18.7930 H   0  0  0  0  0  0  0  0  0  0  0  0
    3.7510   45.2290   17.9930 H   0  0  0  0  0  0  0  0  0  0  0  0
    2.3590   45.5330   16.8160 H   0  0  0  0  0  0  0  0  0  0  0  0
    4.1710   47.4040   14.5680 H   0  0  0  0  0  0  0  0  0  0  0  0
    3.9450   45.6830   14.6060 H   0  0  0  0  0  0  0  0  0  0  0  0
    1.6920   47.6920   14.9810 H   0  0  0  0  0  0  0  0  0  0  0  0
    2.1420   47.0170   13.4320 H   0  0  0  0  0  0  0  0  0  0  0  0
    2.1130   45.3220   12.0680 H   0  0  0  0  0  0  0  0  0  0  0  0
    1.4100   43.4830   10.6050 H   0  0  0  0  0  0  0  0  0  0  0  0
   -0.2060   41.8250   11.3890 H   0  0  0  0  0  0  0  0  0  0  0  0
   -1.1640   41.9420   13.6290 H   0  0  0  0  0  0  0  0  0  0  0  0
   -1.1180   43.4600   15.9790 H   0  0  0  0  0  0  0  0  0  0  0  0
   -4.3450   44.7470   16.2540 H   0  0  0  0  0  0  0  0  0  0  0  0
   -3.9930   46.3920   16.6360 H   0  0  0  0  0  0  0  0  0  0  0  0
   -4.5450   45.3140   17.8690 H   0  0  0  0  0  0  0  0  0  0  0  0
    1.5680   43.4070   17.4360 H   0  0  0  0  0  0  0  0  0  0  0  0
    1.9610   41.3260   17.5230 H   0  0  0  0  0  0  0  0  0  0  0  0
    3.7750   42.2350   20.6760 H   0  0  0  0  0  0  0  0  0  0  0  0
    3.6240   42.9080   19.0400 H   0  0  0  0  0  0  0  0  0  0  0  0
    5.2370   41.2950   18.6040 H   0  0  0  0  0  0  0  0  0  0  0  0
    4.6800   40.2400   19.9190 H   0  0  0  0  0  0  0  0  0  0  0  0
    4.6970   38.6650   17.3970 H   0  0  0  0  0  0  0  0  0  0  0  0
    4.2340   38.4390   19.0620 H   0  0  0  0  0  0  0  0  0  0  0  0
    3.0070   36.9580   17.1640 H   0  0  0  0  0  0  0  0  0  0  0  0
    0.7710   37.5590   17.3290 H   0  0  0  0  0  0  0  0  0  0  0  0
   -0.4690   40.9240   17.6510 H   0  0  0  0  0  0  0  0  0  0  0  0
   -0.8620   39.2500   17.3070 H   0  0  0  0  0  0  0  0  0  0  0  0
   -0.0540   41.0100   15.4810 H   0  0  0  0  0  0  0  0  0  0  0  0
    0.1890   39.3060   15.3270 H   0  0  0  0  0  0  0  0  0  0  0  0
    1.4670   40.3070   15.9070 H   0  0  0  0  0  0  0  0  0  0  0  0
   -0.5300   40.0320   19.6910 H   0  0  0  0  0  0  0  0  0  0  0  0
   -3.0750   36.6220   20.7670 H   0  0  0  0  0  0  0  0  0  0  0  0
   -1.4640   35.9970   20.8010 H   0  0  0  0  0  0  0  0  0  0  0  0
   -2.3950   35.9130   19.3490 H   0  0  0  0  0  0  0  0  0  0  0  0
   -0.4640   37.2010   23.2050 H   0  0  0  0  0  0  0  0  0  0  0  0
   -0.2630   38.0070   24.7240 H   0  0  0  0  0  0  0  0  0  0  0  0
    0.9340   36.8910   24.1740 H   0  0  0  0  0  0  0  0  0  0  0  0
    1.9300   37.7550   20.6040 H   0  0  0  0  0  0  0  0  0  0  0  0
    2.5970   40.8360   21.5720 H   0  0  0  0  0  0  0  0  0  0  0  0
    0.3540   42.9790   23.2220 H   0  0  0  0  0  0  0  0  0  0  0  0
    1.0870   41.4440   23.5150 H   0  0  0  0  0  0  0  0  0  0  0  0
   -0.5710   41.5300   23.0450 H   0  0  0  0  0  0  0  0  0  0  0  0
   -1.0480   43.9540   21.6780 H   0  0  0  0  0  0  0  0  0  0  0  0
   -2.3730   46.0510   21.7300 H   0  0  0  0  0  0  0  0  0  0  0  0
   -3.0300   44.6900   20.8970 H   0  0  0  0  0  0  0  0  0  0  0  0
   -3.4820   46.2920   20.4290 H   0  0  0  0  0  0  0  0  0  0  0  0
    0.2887   46.2680   14.3408 H   0  0  0  0  0  0  0  0  0  0  0  0
    0.0444   45.2856   13.2894 H   0  0  0  0  0  0  0  0  0  0  0  0
    2.2229   43.9708   12.8010 H   0  0  0  0  0  0  0  0  0  0  0  0
    1.8267   42.9407   11.9881 H   0  0  0  0  0  0  0  0  0  0  0  0
    0.9138   42.0061   12.4331 H   0  0  0  0  0  0  0  0  0  0  0  0
    0.3717   42.0705   13.6984 H   0  0  0  0  0  0  0  0  0  0  0  0
   -0.9150   44.3179   13.7818 H   0  0  0  0  0  0  0  0  0  0  0  0
   -0.6400   45.7288   15.4462 H   0  0  0  0  0  0  0  0  0  0  0  0
   -1.6236   46.1431   18.2908 H   0  0  0  0  0  0  0  0  0  0  0  0
   -1.9966   47.5929   17.9392 H   0  0  0  0  0  0  0  0  0  0  0  0
   -0.7125   43.9249   18.0060 H   0  0  0  0  0  0  0  0  0  0  0  0
    1.7760   44.1988   18.7408 H   0  0  0  0  0  0  0  0  0  0  0  0
    0.4071   41.9995   19.0076 H   0  0  0  0  0  0  0  0  0  0  0  0
    2.7087   37.4214   18.5936 H   0  0  0  0  0  0  0  0  0  0  0  0
    1.4549   37.7710   18.6979 H   0  0  0  0  0  0  0  0  0  0  0  0
   -1.6639   37.4920   18.7495 H   0  0  0  0  0  0  0  0  0  0  0  0
   -2.7347   39.1526   20.3374 H   0  0  0  0  0  0  0  0  0  0  0  0
    0.5067   40.2575   22.4482 H   0  0  0  0  0  0  0  0  0  0  0  0
   -1.1620   39.5182   23.0686 H   0  0  0  0  0  0  0  0  0  0  0  0
   -0.3535   42.1545   20.2252 H   0  0  0  0  0  0  0  0  0  0  0  0
    0.2966   44.5049   21.1503 H   0  0  0  0  0  0  0  0  0  0  0  0
   -1.4993   44.0784   19.3188 H   0  0  0  0  0  0  0  0  0  0  0  0
  1  2  1  0
  2  3  1  0
  3  4  1  6
  3  5  1  0
  3  6  1  0
  6  7  1  0
  7  8  1  0
  7  9  1  0
  5 10  1  0
  9 10  1  0
 10 11  1  0
 11 12  1  0
 12 13  1  0
 13 14  1  0
 14 15  1  0
 15 16  1  0
 16 17  1  0
 17 18  1  0
 14 19  1  0
 18 19  1  0
 19 20  1  0
 13 21  1  0
 20 21  1  0
  8 22  1  0
 21 22  1  0
 22 23  1  6
 23 24  1  0
 23 25  1  0
 25 26  1  0
 22 27  1  0
 27 28  1  0
 28 29  1  0
 29 30  1  0
 30 31  1  0
 30 32  1  1
 32 33  1  0
 31 34  1  0
 33 34  1  0
 34 35  1  0
 35 36  1  0
 36 37  1  0
 31 38  1  0
 37 38  1  0
 38 39  1  6
 39 40  1  0
 38 41  1  0
 41 42  1  0
 42 43  1  0
 43 44  1  0
 43 45  1  0
 41 46  1  0
 46 47  1  0
 47 48  1  0
 47 49  1  0
 49 50  1  0
 46 51  1  6
 30 52  1  0
 46 52  1  0
 52 53  1  0
 53 54  1  0
 29 55  1  0
 53 55  1  0
 55 56  1  0
 27 57  1  0
 56 57  1  0
 57 58  1  0
 58 59  1  0
  1 60  1  0
  1 61  1  0
  1 62  1  0
  2 63  1  0
  2 64  1  0
  4 65  1  0
  5 66  1  0
  5 67  1  0
  6 68  1  0
  6 69  1  0
  7 70  1  1
  8 71  1  0
  8 72  1  0
  9 73  1  0
  9 74  1  0
 11 75  1  0
 11 76  1  0
 12 77  1  0
 12 78  1  0
 15 79  1  0
 16 80  1  0
 17 81  1  0
 18 82  1  0
 20 83  1  0
 26 84  1  0
 26 85  1  0
 26 86  1  0
 28 87  1  0
 31 88  1  6
 32 89  1  0
 32 90  1  0
 33 91  1  0
 33 92  1  0
 35 93  1  0
 35 94  1  0
 36 95  1  0
 37 96  1  0
 39 97  1  0
 39 98  1  0
 40 99  1  0
 40100  1  0
 40101  1  0
 41102  1  1
 44103  1  0
 44104  1  0
 44105  1  0
 50106  1  0
 50107  1  0
 50108  1  0
 51109  1  0
 52110  1  1
 54111  1  0
 54112  1  0
 54113  1  0
 56114  1  0
 59115  1  0
 59116  1  0
 59117  1  0
 13118  1  0
 14119  1  0
 15120  1  0
 16121  1  0
 17122  1  0
 18123  1  0
 19124  1  0
 21125  1  0
 23126  1  0
 24127  1  0
 27128  1  0
 28129  1  0
 29130  1  0
 36131  1  0
 37132  1  0
 43133  1  0
 45134  1  0
 47135  1  0
 48136  1  0
 55137  1  0
 56138  1  0
 57139  1  0
M  END
>  <PDBID>  (1) 
5J2T

>  <PDB ID>  (1) 
5J2T

>  <Generic Name>  (1) 
Vinblastine

>  <Brand Name>  (1) 
Velbe 1mg/ml#Vinblastine Sulfate#Vinblastine Sulfate Inj 1mg/ml#Vinblastine Sulfate Injection#Vinblastine Sulphate Injection#Blastivin#Cytoblastin#Lemblastine#Oncostin#Velban#Velbastin#Velbe#Vinblasin#Vinblastin#Vinko#Weibaoding#Xintoprost

>  <DrugBank ID>  (1) 
DB00570

>  <ATC Codes>  (1) 
L01CA01

>  <Ligand ID>  (1) 
VLB

>  <Target Name>  (1) 
Tubulin beta chain

>  <UniProt ID>  (1) 
P07437

>  <PDB ID.1>  (1) 
5J2T

>  <Seq. Identity>  (1) 
93%

$$$$
