PDB_DB00360_94
     RDKit          3D

 32 33  0  0  0  0  0  0  0  0999 V2000
   19.9810  235.5220   23.2530 N   0  0  0  0  0  0  0  0  0  0  0  0
   19.7100  236.7340   23.7700 C   0  0  0  0  0  0  0  0  0  0  0  0
   20.6810  237.4410   24.4040 N   0  0  0  0  0  0  0  0  0  0  0  0
   18.4670  237.2450   23.6720 N   0  0  0  0  0  0  0  0  0  0  0  0
   17.4730  236.5640   23.0520 C   0  0  0  0  0  0  0  0  0  0  0  0
   16.3350  237.1000   22.9710 O   0  0  0  0  0  0  0  0  0  0  0  0
   17.7300  235.3040   22.5200 C   0  0  0  0  0  0  0  0  0  0  0  0
   19.0180  234.7950   22.6320 C   0  0  0  0  0  0  0  0  0  0  0  0
   16.7750  234.5680   21.8820 N   0  0  0  0  0  0  0  0  0  0  0  0
   19.3420  233.5750   22.1220 N   0  0  0  0  0  0  0  0  0  0  0  0
   16.9750  233.1240   21.8730 C   0  0  2  0  0  0  0  0  0  0  0  0
   18.3790  232.7580   21.3690 C   0  0  0  0  0  0  0  0  0  0  0  0
   15.9050  232.3900   21.0560 C   0  0  1  0  0  0  0  0  0  0  0  0
   15.8250  232.9100   19.7150 O   0  0  0  0  0  0  0  0  0  0  0  0
   16.2050  230.8910   20.9860 C   0  0  2  0  0  0  0  0  0  0  0  0
   15.0570  230.1640   20.2800 C   0  0  0  0  0  0  0  0  0  0  0  0
   16.4100  230.3410   22.3010 O   0  0  0  0  0  0  0  0  0  0  0  0
   20.4686  238.3686   24.7982 H   0  0  0  0  0  0  0  0  0  0  0  0
   21.6298  237.0496   24.4906 H   0  0  0  0  0  0  0  0  0  0  0  0
   18.2686  238.1713   24.0763 H   0  0  0  0  0  0  0  0  0  0  0  0
   15.9592  235.0074   21.4323 H   0  0  0  0  0  0  0  0  0  0  0  0
   20.2946  233.2118   22.2687 H   0  0  0  0  0  0  0  0  0  0  0  0
   16.8785  232.7900   22.9166 H   0  0  0  0  0  0  0  0  0  0  0  0
   18.4612  232.9751   20.2938 H   0  0  0  0  0  0  0  0  0  0  0  0
   18.5784  231.6864   21.5173 H   0  0  0  0  0  0  0  0  0  0  0  0
   14.9432  232.5504   21.5652 H   0  0  0  0  0  0  0  0  0  0  0  0
   15.6746  233.8879   19.7487 H   0  0  0  0  0  0  0  0  0  0  0  0
   17.1322  230.7492   20.4114 H   0  0  0  0  0  0  0  0  0  0  0  0
   14.3782  229.7341   21.0312 H   0  0  0  0  0  0  0  0  0  0  0  0
   14.5036  230.8766   19.6508 H   0  0  0  0  0  0  0  0  0  0  0  0
   15.4646  229.3590   19.6508 H   0  0  0  0  0  0  0  0  0  0  0  0
   16.1593  231.0136   22.9828 H   0  0  0  0  0  0  0  0  0  0  0  0
  1  2  2  0
  2  3  1  0
  2  4  1  0
  4  5  1  0
  5  6  2  0
  5  7  1  0
  1  8  1  0
  7  8  2  0
  7  9  1  0
  8 10  1  0
  9 11  1  0
 10 12  1  0
 11 12  1  0
 11 13  1  0
 13 14  1  0
 13 15  1  0
 15 16  1  0
 15 17  1  0
  3 18  1  0
  3 19  1  0
  4 20  1  0
  9 21  1  0
 10 22  1  0
 11 23  1  1
 12 24  1  0
 12 25  1  0
 13 26  1  1
 14 27  1  0
 15 28  1  6
 16 29  1  0
 16 30  1  0
 16 31  1  0
 17 32  1  0
M  END
$$$$
