PDB_DB00311_95
     RDKit          3D

 36 37  0  0  0  0  0  0  0  0999 V2000
   15.8730   12.5730   80.9780 N   0  0  0  0  0  0  0  0  0  0  0  0
   15.2480    7.8930   81.7440 C   0  0  0  0  0  0  0  0  0  0  0  0
   14.0870    7.6460   80.9600 C   0  0  0  0  0  0  0  0  0  0  0  0
   13.4120    6.4610   81.0850 C   0  0  0  0  0  0  0  0  0  0  0  0
   13.8010    5.4700   81.9760 C   0  0  0  0  0  0  0  0  0  0  0  0
   13.6890    3.1060   82.2510 C   0  0  0  0  0  0  0  0  0  0  0  0
   16.7720   11.2790   79.0280 O   0  0  0  0  0  0  0  0  0  0  0  0
   14.4110   11.6960   79.0050 O   0  0  0  0  0  0  0  0  0  0  0  0
   15.5860   11.4040   79.8610 S   0  0  2  0  0  4  0  0  0  0  0  0
   15.1850    9.8450   80.5200 C   0  0  0  0  0  0  0  0  0  0  0  0
   15.8370    9.1190   81.4750 N   0  0  0  0  0  0  0  0  0  0  0  0
   13.7630    8.9930   79.9280 S   0  0  0  0  0  0  0  0  0  0  0  0
   14.9260    5.6800   82.7960 C   0  0  0  0  0  0  0  0  0  0  0  0
   15.6290    6.8790   82.6620 C   0  0  0  0  0  0  0  0  0  0  0  0
   12.9920    4.3580   82.0000 O   0  0  0  0  0  0  0  0  0  0  0  0
   12.6010    2.0430   81.9650 C   0  0  0  0  0  0  0  0  0  0  0  0
   15.7755   12.1759   81.9234 H   0  0  0  0  0  0  0  0  0  0  0  0
   16.8285   12.9376   80.8556 H   0  0  0  0  0  0  0  0  0  0  0  0
   15.8714    7.4234   80.9688 H   0  0  0  0  0  0  0  0  0  0  0  0
   14.7138    7.2057   80.1705 H   0  0  0  0  0  0  0  0  0  0  0  0
   12.3788    6.7253   81.3545 H   0  0  0  0  0  0  0  0  0  0  0  0
   13.6146    5.9834   80.1150 H   0  0  0  0  0  0  0  0  0  0  0  0
   14.4470    5.0284   81.2029 H   0  0  0  0  0  0  0  0  0  0  0  0
   14.5467    2.9873   81.5725 H   0  0  0  0  0  0  0  0  0  0  0  0
   14.1081    3.0373   83.2657 H   0  0  0  0  0  0  0  0  0  0  0  0
   17.5726   11.1946   79.6042 H   0  0  0  0  0  0  0  0  0  0  0  0
   13.6266   11.8909   79.5766 H   0  0  0  0  0  0  0  0  0  0  0  0
   15.7886    9.3596   79.7389 H   0  0  0  0  0  0  0  0  0  0  0  0
   15.8545    9.6690   82.3457 H   0  0  0  0  0  0  0  0  0  0  0  0
   14.5842    5.6179   83.8397 H   0  0  0  0  0  0  0  0  0  0  0  0
   15.6422    4.9086   82.4766 H   0  0  0  0  0  0  0  0  0  0  0  0
   16.6595    6.5998   82.3970 H   0  0  0  0  0  0  0  0  0  0  0  0
   15.4276    7.3651   83.6280 H   0  0  0  0  0  0  0  0  0  0  0  0
   12.2062    1.6572   82.9165 H   0  0  0  0  0  0  0  0  0  0  0  0
   11.7841    2.5006   81.3876 H   0  0  0  0  0  0  0  0  0  0  0  0
   13.0394    1.2157   81.3876 H   0  0  0  0  0  0  0  0  0  0  0  0
  2  3  1  0
  3  4  1  0
  4  5  1  0
  1  9  1  0
  9  7  1  6
  8  9  1  0
  9 10  1  0
  2 11  1  0
 10 11  1  0
  3 12  1  0
 10 12  1  0
  5 13  1  0
  2 14  1  0
 13 14  1  0
  5 15  1  0
  6 15  1  0
  6 16  1  0
  1 17  1  0
  1 18  1  0
  2 19  1  0
  3 20  1  0
  4 21  1  0
  4 22  1  0
  5 23  1  0
  6 24  1  0
  6 25  1  0
  7 26  1  0
  8 27  1  0
 10 28  1  0
 11 29  1  0
 13 30  1  0
 13 31  1  0
 14 32  1  0
 14 33  1  0
 16 34  1  0
 16 35  1  0
 16 36  1  0
M  END
>  <PDBID>  (1) 
3MDZ

>  <PDB ID>  (1) 
3MDZ

>  <Generic Name>  (1) 
Ethoxzolamide

>  <Brand Name>  (1) 
Cardrase#Ethamide

>  <DrugBank ID>  (1) 
DB00311

>  <ATC Codes>  (1) 
nan

>  <Ligand ID>  (1) 
EZL

>  <Target Name>  (1) 
Carbonic anhydrase 4

>  <UniProt ID>  (1) 
P22748

>  <PDB ID.1>  (1) 
3MDZ

>  <Seq. Identity>  (1) 
35%

$$$$
