PDB_DB01076_99
     RDKit          3D

408420  0  0  0  0  0  0  0  0999 V2000
   19.2850    8.7450   18.3060 C   0  0  0  0  0  0  0  0  0  0  0  0
   19.4280    9.6420   17.2340 C   0  0  0  0  0  0  0  0  0  0  0  0
   20.0560   10.9120   17.5090 C   0  0  0  0  0  0  0  0  0  0  0  0
   20.5170   11.2300   18.8070 C   0  0  0  0  0  0  0  0  0  0  0  0
   20.3600   10.3090   19.8450 C   0  0  0  0  0  0  0  0  0  0  0  0
   19.7470    9.0730   19.5940 C   0  0  0  0  0  0  0  0  0  0  0  0
   14.9840    9.1390   18.2780 C   0  0  0  0  0  0  0  0  0  0  0  0
   15.9770    9.5550   17.3720 C   0  0  0  0  0  0  0  0  0  0  0  0
   16.6010    8.6110   16.5280 C   0  0  0  0  0  0  0  0  0  0  0  0
   16.1990    7.2440   16.6260 C   0  0  0  0  0  0  0  0  0  0  0  0
   15.2150    6.8430   17.5260 C   0  0  0  0  0  0  0  0  0  0  0  0
   14.6100    7.7920   18.3520 C   0  0  0  0  0  0  0  0  0  0  0  0
   13.6450    7.3940   19.2390 F   0  0  0  0  0  0  0  0  0  0  0  0
   17.6230    8.9140   15.5960 C   0  0  0  0  0  0  0  0  0  0  0  0
   22.6470   11.6230   14.0210 C   0  0  0  0  0  0  0  0  0  0  0  0
   22.8050   12.8280   13.3000 C   0  0  0  0  0  0  0  0  0  0  0  0
   24.0910   13.2790   12.9630 C   0  0  0  0  0  0  0  0  0  0  0  0
   25.2200   12.5350   13.3330 C   0  0  0  0  0  0  0  0  0  0  0  0
   25.0730   11.3440   14.0470 C   0  0  0  0  0  0  0  0  0  0  0  0
   23.7980   10.8860   14.3910 C   0  0  0  0  0  0  0  0  0  0  0  0
   16.0640    2.6710   16.2150 O   0  0  0  0  0  0  0  0  0  0  0  0
   13.9480    1.9310   16.1450 O   0  0  0  0  0  0  0  0  0  0  0  0
   13.5080    4.6970   14.4100 O   0  0  0  0  0  0  0  0  0  0  0  0
   15.0390    2.4550   15.6000 C   0  0  0  0  0  0  0  0  0  0  0  0
   14.8710    2.7890   14.1540 C   0  0  0  0  0  0  0  0  0  0  0  0
   14.7940    4.3010   14.0030 C   0  0  1  0  0  0  0  0  0  0  0  0
   15.0130    4.7510   12.5910 C   0  0  0  0  0  0  0  0  0  0  0  0
   15.0390    6.2770   12.4550 C   0  0  1  0  0  0  0  0  0  0  0  0
   16.3780    6.8660   12.9140 C   0  0  0  0  0  0  0  0  0  0  0  0
   16.2310    8.3210   13.4250 C   0  0  0  0  0  0  0  0  0  0  0  0
   17.4580    8.7680   14.1820 N   0  0  0  0  0  0  0  0  0  0  0  0
   18.9380    9.3690   15.9110 C   0  0  0  0  0  0  0  0  0  0  0  0
   19.6160    9.4620   14.6550 C   0  0  0  0  0  0  0  0  0  0  0  0
   21.0630    9.8400   14.3440 C   0  0  0  0  0  0  0  0  0  0  0  0
   21.4830   11.1990   14.3060 N   0  0  0  0  0  0  0  0  0  0  0  0
   21.8400    8.9110   14.1040 O   0  0  0  0  0  0  0  0  0  0  0  0
   18.6930    9.1070   13.6290 C   0  0  0  0  0  0  0  0  0  0  0  0
   18.9000    9.0510   12.0680 C   0  0  1  0  0  0  0  0  0  0  0  0
   19.3650   10.3940   11.4830 C   0  0  0  0  0  0  0  0  0  0  0  0
   19.8820    7.9430   11.5970 C   0  0  0  0  0  0  0  0  0  0  0  0
   14.8330    6.5710   11.0950 O   0  0  0  0  0  0  0  0  0  0  0  0
    1.4250  -12.1040  -13.6250 C   0  0  0  0  0  0  0  0  0  0  0  0
    1.7470  -10.8550  -14.1970 C   0  0  0  0  0  0  0  0  0  0  0  0
    1.4350  -10.6450  -15.5780 C   0  0  0  0  0  0  0  0  0  0  0  0
    0.8180  -11.6500  -16.3370 C   0  0  0  0  0  0  0  0  0  0  0  0
    0.5060  -12.8810  -15.7400 C   0  0  0  0  0  0  0  0  0  0  0  0
    0.8090  -13.1060  -14.3860 C   0  0  0  0  0  0  0  0  0  0  0  0
    5.7170  -13.1180  -13.1480 C   0  0  0  0  0  0  0  0  0  0  0  0
    5.0660  -11.8940  -13.4630 C   0  0  0  0  0  0  0  0  0  0  0  0
    4.3000  -11.2350  -12.4800 C   0  0  0  0  0  0  0  0  0  0  0  0
    4.2040  -11.8310  -11.1920 C   0  0  0  0  0  0  0  0  0  0  0  0
    4.8380  -13.0260  -10.8820 C   0  0  0  0  0  0  0  0  0  0  0  0
    5.5920  -13.6730  -11.8500 C   0  0  0  0  0  0  0  0  0  0  0  0
    6.2030  -14.8450  -11.5350 F   0  0  0  0  0  0  0  0  0  0  0  0
    3.5980  -10.0110  -12.6850 C   0  0  0  0  0  0  0  0  0  0  0  0
   -0.0390   -6.6290  -15.9210 C   0  0  0  0  0  0  0  0  0  0  0  0
    0.3060   -5.8100  -17.0170 C   0  0  0  0  0  0  0  0  0  0  0  0
   -0.6820   -5.0770  -17.6860 C   0  0  0  0  0  0  0  0  0  0  0  0
   -2.0150   -5.1540  -17.2660 C   0  0  0  0  0  0  0  0  0  0  0  0
   -2.3690   -5.9650  -16.1840 C   0  0  0  0  0  0  0  0  0  0  0  0
   -1.3890   -6.6990  -15.5150 C   0  0  0  0  0  0  0  0  0  0  0  0
    3.1730  -12.4530   -6.6240 O   0  0  0  0  0  0  0  0  0  0  0  0
    5.0380  -13.0550   -5.5090 O   0  0  0  0  0  0  0  0  0  0  0  0
    6.6150  -10.8610   -7.6500 O   0  0  0  0  0  0  0  0  0  0  0  0
    4.2370  -12.1590   -6.1020 C   0  0  0  0  0  0  0  0  0  0  0  0
    4.8140  -10.7450   -6.0470 C   0  0  0  0  0  0  0  0  0  0  0  0
    5.3580  -10.2550   -7.3980 C   0  0  1  0  0  0  0  0  0  0  0  0
    5.5800   -8.7620   -7.4250 C   0  0  0  0  0  0  0  0  0  0  0  0
    5.9940   -8.3190   -8.8200 C   0  0  1  0  0  0  0  0  0  0  0  0
    4.7820   -8.2320   -9.7570 C   0  0  0  0  0  0  0  0  0  0  0  0
    5.1850   -8.5070  -11.2210 C   0  0  0  0  0  0  0  0  0  0  0  0
    3.9960   -8.7740  -12.0980 N   0  0  0  0  0  0  0  0  0  0  0  0
    2.4040   -9.8350  -13.4620 C   0  0  0  0  0  0  0  0  0  0  0  0
    2.0480   -8.4580  -13.3250 C   0  0  0  0  0  0  0  0  0  0  0  0
    0.8460   -7.6920  -13.9090 C   0  0  0  0  0  0  0  0  0  0  0  0
    0.8620   -7.2860  -15.2910 N   0  0  0  0  0  0  0  0  0  0  0  0
   -0.0970   -7.4340  -13.1630 O   0  0  0  0  0  0  0  0  0  0  0  0
    3.0220   -7.8450  -12.5050 C   0  0  0  0  0  0  0  0  0  0  0  0
    3.1000   -6.3580  -12.0460 C   0  0  1  0  0  0  0  0  0  0  0  0
    2.9730   -5.3460  -13.1910 C   0  0  0  0  0  0  0  0  0  0  0  0
    2.0530   -6.0440  -10.9710 C   0  0  0  0  0  0  0  0  0  0  0  0
    6.6080   -7.0630   -8.7030 O   0  0  0  0  0  0  0  0  0  0  0  0
   25.1250  -31.1580   27.1600 C   0  0  0  0  0  0  0  0  0  0  0  0
   24.6300  -32.1990   27.9690 C   0  0  0  0  0  0  0  0  0  0  0  0
   25.5760  -32.9920   28.6680 C   0  0  0  0  0  0  0  0  0  0  0  0
   26.9610  -32.7400   28.5670 C   0  0  0  0  0  0  0  0  0  0  0  0
   27.4180  -31.7000   27.7620 C   0  0  0  0  0  0  0  0  0  0  0  0
   26.5000  -30.9100   27.0560 C   0  0  0  0  0  0  0  0  0  0  0  0
   23.8850  -33.3620   23.5560 C   0  0  0  0  0  0  0  0  0  0  0  0
   23.5530  -33.5570   24.9080 C   0  0  0  0  0  0  0  0  0  0  0  0
   22.7640  -32.5980   25.5790 C   0  0  0  0  0  0  0  0  0  0  0  0
   22.3330  -31.4620   24.8600 C   0  0  0  0  0  0  0  0  0  0  0  0
   22.6570  -31.2660   23.5310 C   0  0  0  0  0  0  0  0  0  0  0  0
   23.4300  -32.2070   22.8750 C   0  0  0  0  0  0  0  0  0  0  0  0
   23.7380  -32.0040   21.5690 F   0  0  0  0  0  0  0  0  0  0  0  0
   22.3760  -32.6860   26.9340 C   0  0  0  0  0  0  0  0  0  0  0  0
   23.7140  -33.5280   32.6430 C   0  0  0  0  0  0  0  0  0  0  0  0
   23.6020  -34.7150   33.4020 C   0  0  0  0  0  0  0  0  0  0  0  0
   23.9260  -34.7150   34.7670 C   0  0  0  0  0  0  0  0  0  0  0  0
   24.3650  -33.5280   35.3940 C   0  0  0  0  0  0  0  0  0  0  0  0
   24.4810  -32.3410   34.6520 C   0  0  0  0  0  0  0  0  0  0  0  0
   24.1590  -32.3360   33.2890 C   0  0  0  0  0  0  0  0  0  0  0  0
   20.0140  -27.4920   23.7420 O   0  0  0  0  0  0  0  0  0  0  0  0
   18.9420  -27.6410   21.7630 O   0  0  0  0  0  0  0  0  0  0  0  0
   18.5920  -30.8170   22.7420 O   0  0  0  0  0  0  0  0  0  0  0  0
   19.0720  -27.8840   23.0650 C   0  0  0  0  0  0  0  0  0  0  0  0
   17.9380  -28.7020   23.6050 C   0  0  0  0  0  0  0  0  0  0  0  0
   18.3840  -30.1220   23.9550 C   0  0  1  0  0  0  0  0  0  0  0  0
   17.3290  -30.8450   24.7680 C   0  0  0  0  0  0  0  0  0  0  0  0
   17.8050  -32.1840   25.3020 C   0  0  1  0  0  0  0  0  0  0  0  0
   18.9380  -31.9960   26.3310 C   0  0  0  0  0  0  0  0  0  0  0  0
   19.8180  -33.2480   26.4930 C   0  0  0  0  0  0  0  0  0  0  0  0
   21.0370  -32.9670   27.3500 N   0  0  0  0  0  0  0  0  0  0  0  0
   23.2280  -32.4850   28.0570 C   0  0  0  0  0  0  0  0  0  0  0  0
   22.3860  -32.6210   29.2050 C   0  0  0  0  0  0  0  0  0  0  0  0
   22.7100  -32.4770   30.6950 C   0  0  0  0  0  0  0  0  0  0  0  0
   23.4040  -33.5200   31.3960 N   0  0  0  0  0  0  0  0  0  0  0  0
   22.3380  -31.4450   31.2640 O   0  0  0  0  0  0  0  0  0  0  0  0
   21.0790  -32.9130   28.7520 C   0  0  0  0  0  0  0  0  0  0  0  0
   19.7780  -33.1550   29.5910 C   0  0  1  0  0  0  0  0  0  0  0  0
   19.9060  -34.2730   30.6450 C   0  0  0  0  0  0  0  0  0  0  0  0
   19.2640  -31.8580   30.2790 C   0  0  0  0  0  0  0  0  0  0  0  0
   16.6920  -32.7970   25.9200 O   0  0  0  0  0  0  0  0  0  0  0  0
  -16.2940  -27.7300   20.3980 C   0  0  0  0  0  0  0  0  0  0  0  0
  -16.2030  -28.8490   21.2600 C   0  0  0  0  0  0  0  0  0  0  0  0
  -17.4130  -29.4550   21.6970 C   0  0  0  0  0  0  0  0  0  0  0  0
  -18.6560  -28.9670   21.2800 C   0  0  0  0  0  0  0  0  0  0  0  0
  -18.7230  -27.8620   20.4250 C   0  0  0  0  0  0  0  0  0  0  0  0
  -17.5390  -27.2430   19.9820 C   0  0  0  0  0  0  0  0  0  0  0  0
  -14.8400  -25.1320   23.5970 C   0  0  0  0  0  0  0  0  0  0  0  0
  -14.8450  -26.5160   23.4420 C   0  0  0  0  0  0  0  0  0  0  0  0
  -13.9760  -27.1220   22.5320 C   0  0  0  0  0  0  0  0  0  0  0  0
  -13.0970  -26.2920   21.7780 C   0  0  0  0  0  0  0  0  0  0  0  0
  -13.0940  -24.9050   21.9370 C   0  0  0  0  0  0  0  0  0  0  0  0
  -13.9670  -24.3360   22.8450 C   0  0  0  0  0  0  0  0  0  0  0  0
  -13.9850  -23.0040   23.0060 F   0  0  0  0  0  0  0  0  0  0  0  0
  -13.9350  -28.5260   22.3160 C   0  0  0  0  0  0  0  0  0  0  0  0
  -16.6130  -33.8010   21.4090 C   0  0  0  0  0  0  0  0  0  0  0  0
  -17.0590  -34.7640   22.3330 C   0  0  0  0  0  0  0  0  0  0  0  0
  -17.5920  -35.9800   21.8810 C   0  0  0  0  0  0  0  0  0  0  0  0
  -17.6830  -36.2480   20.5100 C   0  0  0  0  0  0  0  0  0  0  0  0
  -17.2510  -35.3060   19.5840 C   0  0  0  0  0  0  0  0  0  0  0  0
  -16.7210  -34.0960   20.0220 C   0  0  0  0  0  0  0  0  0  0  0  0
   -9.9180  -24.8620   18.9570 O   0  0  0  0  0  0  0  0  0  0  0  0
   -8.3570  -23.3420   19.6220 O   0  0  0  0  0  0  0  0  0  0  0  0
   -8.9390  -25.1400   22.4890 O   0  0  0  0  0  0  0  0  0  0  0  0
   -8.8730  -24.5790   19.5540 C   0  0  0  0  0  0  0  0  0  0  0  0
   -8.0570  -25.5800   20.3250 C   0  0  0  0  0  0  0  0  0  0  0  0
   -8.8670  -26.1400   21.4860 C   0  0  1  0  0  0  0  0  0  0  0  0
   -8.2410  -27.4040   22.0850 C   0  0  0  0  0  0  0  0  0  0  0  0
   -9.1710  -28.0820   23.1040 C   0  0  1  0  0  0  0  0  0  0  0  0
  -10.3560  -28.7830   22.4180 C   0  0  0  0  0  0  0  0  0  0  0  0
  -11.5680  -28.8020   23.3470 C   0  0  0  0  0  0  0  0  0  0  0  0
  -12.8290  -29.2980   22.6790 N   0  0  0  0  0  0  0  0  0  0  0  0
  -14.9510  -29.3380   21.7180 C   0  0  0  0  0  0  0  0  0  0  0  0
  -14.4130  -30.6710   21.6910 C   0  0  0  0  0  0  0  0  0  0  0  0
  -15.0000  -32.0000   21.1440 C   0  0  0  0  0  0  0  0  0  0  0  0
  -16.0870  -32.6720   21.8030 N   0  0  0  0  0  0  0  0  0  0  0  0
  -14.4860  -32.4720   20.1250 O   0  0  0  0  0  0  0  0  0  0  0  0
  -13.1330  -30.6140   22.2810 C   0  0  0  0  0  0  0  0  0  0  0  0
  -12.1120  -31.7830   22.5090 C   0  0  1  0  0  0  0  0  0  0  0  0
  -12.6770  -32.9570   23.3180 C   0  0  0  0  0  0  0  0  0  0  0  0
  -11.5260  -32.3220   21.1790 C   0  0  0  0  0  0  0  0  0  0  0  0
   -8.4300  -29.0470   23.8120 O   0  0  0  0  0  0  0  0  0  0  0  0
   18.2081    8.5427   18.4025 H   0  0  0  0  0  0  0  0  0  0  0  0
   19.9470    7.9157   18.0163 H   0  0  0  0  0  0  0  0  0  0  0  0
   18.4452   10.0775   17.4673 H   0  0  0  0  0  0  0  0  0  0  0  0
   20.9278   10.9808   16.8418 H   0  0  0  0  0  0  0  0  0  0  0  0
   19.2321   11.6261   17.3630 H   0  0  0  0  0  0  0  0  0  0  0  0
   21.5948   11.4324   18.7213 H   0  0  0  0  0  0  0  0  0  0  0  0
   19.8702   12.0669   19.1091 H   0  0  0  0  0  0  0  0  0  0  0  0
   21.3661   10.0924   20.2333 H   0  0  0  0  0  0  0  0  0  0  0  0
   19.6551   10.8095   20.5252 H   0  0  0  0  0  0  0  0  0  0  0  0
   18.8766    9.0130   20.2639 H   0  0  0  0  0  0  0  0  0  0  0  0
   20.5688    8.3580   19.7473 H   0  0  0  0  0  0  0  0  0  0  0  0
   15.3328    9.4250   19.2813 H   0  0  0  0  0  0  0  0  0  0  0  0
   14.0768    9.6272   17.8925 H   0  0  0  0  0  0  0  0  0  0  0  0
   15.5148   10.3093   16.7182 H   0  0  0  0  0  0  0  0  0  0  0  0
   16.7948    9.8882   18.0278 H   0  0  0  0  0  0  0  0  0  0  0  0
   17.3735    8.4386   17.2919 H   0  0  0  0  0  0  0  0  0  0  0  0
   15.8451    6.9510   15.6266 H   0  0  0  0  0  0  0  0  0  0  0  0
   17.1011    6.7576   17.0256 H   0  0  0  0  0  0  0  0  0  0  0  0
   14.4133    6.3752   16.9358 H   0  0  0  0  0  0  0  0  0  0  0  0
   15.7581    6.1963   18.2308 H   0  0  0  0  0  0  0  0  0  0  0  0
   13.8376    7.9645   17.5881 H   0  0  0  0  0  0  0  0  0  0  0  0
   17.9886    7.8785   15.6603 H   0  0  0  0  0  0  0  0  0  0  0  0
   22.5932   11.0641   13.0751 H   0  0  0  0  0  0  0  0  0  0  0  0
   22.2525   12.7086   12.3563 H   0  0  0  0  0  0  0  0  0  0  0  0
   22.4439   13.5933   14.0028 H   0  0  0  0  0  0  0  0  0  0  0  0
   24.1173   13.3698   11.8671 H   0  0  0  0  0  0  0  0  0  0  0  0
   24.1951   14.2014   13.5532 H   0  0  0  0  0  0  0  0  0  0  0  0
   25.7519   12.2834   12.4036 H   0  0  0  0  0  0  0  0  0  0  0  0
   25.7317   13.1950   14.0489 H   0  0  0  0  0  0  0  0  0  0  0  0
   25.5422   10.5527   13.4439 H   0  0  0  0  0  0  0  0  0  0  0  0
   25.5284   11.5764   15.0210 H   0  0  0  0  0  0  0  0  0  0  0  0
   23.7788   10.8004   15.4875 H   0  0  0  0  0  0  0  0  0  0  0  0
   23.6998    9.9612   13.8035 H   0  0  0  0  0  0  0  0  0  0  0  0
   15.8800    2.6322   17.1870 H   0  0  0  0  0  0  0  0  0  0  0  0
   14.0222    1.9666   17.1316 H   0  0  0  0  0  0  0  0  0  0  0  0
   13.4644    4.7104   15.3989 H   0  0  0  0  0  0  0  0  0  0  0  0
   15.4001    1.4458   15.3526 H   0  0  0  0  0  0  0  0  0  0  0  0
   15.7295    2.4043   13.5840 H   0  0  0  0  0  0  0  0  0  0  0  0
   13.9487    2.3287   13.7700 H   0  0  0  0  0  0  0  0  0  0  0  0
   15.5871    4.7558   14.6147 H   0  0  0  0  0  0  0  0  0  0  0  0
   15.9747    4.3497   12.2387 H   0  0  0  0  0  0  0  0  0  0  0  0
   14.1718    4.3776   11.9886 H   0  0  0  0  0  0  0  0  0  0  0  0
   14.2585    6.7197   13.0913 H   0  0  0  0  0  0  0  0  0  0  0  0
   16.7790    6.2434   13.7274 H   0  0  0  0  0  0  0  0  0  0  0  0
   17.0567    6.8783   12.0484 H   0  0  0  0  0  0  0  0  0  0  0  0
   16.0792    8.9886   12.5640 H   0  0  0  0  0  0  0  0  0  0  0  0
   15.3700    8.3615   14.1084 H   0  0  0  0  0  0  0  0  0  0  0  0
   19.2773    8.3265   16.0005 H   0  0  0  0  0  0  0  0  0  0  0  0
   19.3226   10.5191   14.5749 H   0  0  0  0  0  0  0  0  0  0  0  0
   20.8209    9.8849   13.2719 H   0  0  0  0  0  0  0  0  0  0  0  0
   21.2878   11.5659   15.2484 H   0  0  0  0  0  0  0  0  0  0  0  0
   22.1641    8.5235   14.9554 H   0  0  0  0  0  0  0  0  0  0  0  0
   18.3718   10.1564   13.5549 H   0  0  0  0  0  0  0  0  0  0  0  0
   17.8982    8.8063   11.6852 H   0  0  0  0  0  0  0  0  0  0  0  0
   19.6051   11.0874   12.3025 H   0  0  0  0  0  0  0  0  0  0  0  0
   20.2601   10.2340   10.8639 H   0  0  0  0  0  0  0  0  0  0  0  0
   18.5626   10.8218   10.8639 H   0  0  0  0  0  0  0  0  0  0  0  0
   20.3223    7.4462   12.4741 H   0  0  0  0  0  0  0  0  0  0  0  0
   19.3373    7.2034   10.9917 H   0  0  0  0  0  0  0  0  0  0  0  0
   20.6816    8.3949   10.9917 H   0  0  0  0  0  0  0  0  0  0  0  0
   14.2668    7.3791   11.0141 H   0  0  0  0  0  0  0  0  0  0  0  0
    2.3678  -12.5297  -13.2509 H   0  0  0  0  0  0  0  0  0  0  0  0
    0.6475  -11.8426  -12.8921 H   0  0  0  0  0  0  0  0  0  0  0  0
    2.7380  -11.2398  -14.4794 H   0  0  0  0  0  0  0  0  0  0  0  0
    0.7713   -9.7688  -15.6196 H   0  0  0  0  0  0  0  0  0  0  0  0
    2.4288  -10.5646  -16.0426 H   0  0  0  0  0  0  0  0  0  0  0  0
   -0.1262  -11.2303  -16.7142 H   0  0  0  0  0  0  0  0  0  0  0  0
    1.5832  -11.9139  -17.0819 H   0  0  0  0  0  0  0  0  0  0  0  0
   -0.5798  -13.0198  -15.8490 H   0  0  0  0  0  0  0  0  0  0  0  0
    1.1638  -13.5889  -16.2656 H   0  0  0  0  0  0  0  0  0  0  0  0
    1.4728  -13.9825  -14.3517 H   0  0  0  0  0  0  0  0  0  0  0  0
   -0.1829  -13.2001  -13.9199 H   0  0  0  0  0  0  0  0  0  0  0  0
    5.3361  -13.8711  -13.8535 H   0  0  0  0  0  0  0  0  0  0  0  0
    6.7845  -12.8604  -13.2114 H   0  0  0  0  0  0  0  0  0  0  0  0
    5.8486  -11.1899  -13.7821 H   0  0  0  0  0  0  0  0  0  0  0  0
    4.3183  -12.1886  -14.2141 H   0  0  0  0  0  0  0  0  0  0  0  0
    3.4072  -11.7902  -12.8035 H   0  0  0  0  0  0  0  0  0  0  0  0
    4.5876  -11.0859  -10.4794 H   0  0  0  0  0  0  0  0  0  0  0  0
    3.1427  -12.1170  -11.1503 H   0  0  0  0  0  0  0  0  0  0  0  0
    5.5116  -12.8204  -10.0370 H   0  0  0  0  0  0  0  0  0  0  0  0
    4.0041  -13.7197  -10.6994 H   0  0  0  0  0  0  0  0  0  0  0  0
    6.4844  -13.1172  -11.5264 H   0  0  0  0  0  0  0  0  0  0  0  0
    2.9692  -10.2248  -11.8081 H   0  0  0  0  0  0  0  0  0  0  0  0
    0.1227   -5.7824  -15.2375 H   0  0  0  0  0  0  0  0  0  0  0  0
    1.0451   -5.0831  -16.6490 H   0  0  0  0  0  0  0  0  0  0  0  0
    0.6392   -6.5333  -17.7759 H   0  0  0  0  0  0  0  0  0  0  0  0
   -0.3897   -4.0184  -17.6227 H   0  0  0  0  0  0  0  0  0  0  0  0
   -0.7047   -5.5362  -18.6853 H   0  0  0  0  0  0  0  0  0  0  0  0
   -2.3245   -4.1304  -17.0081 H   0  0  0  0  0  0  0  0  0  0  0  0
   -2.5161   -5.6402  -18.1160 H   0  0  0  0  0  0  0  0  0  0  0  0
   -2.8413   -5.3102  -15.4369 H   0  0  0  0  0  0  0  0  0  0  0  0
   -2.9981   -6.7414  -16.6438 H   0  0  0  0  0  0  0  0  0  0  0  0
   -1.6846   -7.7562  -15.5849 H   0  0  0  0  0  0  0  0  0  0  0  0
   -1.3714   -6.2360  -14.5173 H   0  0  0  0  0  0  0  0  0  0  0  0
    2.5009  -12.6387   -5.9213 H   0  0  0  0  0  0  0  0  0  0  0  0
    4.9600  -12.9677   -4.5259 H   0  0  0  0  0  0  0  0  0  0  0  0
    7.0569  -11.0741   -6.7901 H   0  0  0  0  0  0  0  0  0  0  0  0
    3.7207  -11.9878   -5.1459 H   0  0  0  0  0  0  0  0  0  0  0  0
    4.0203  -10.0570   -5.7204 H   0  0  0  0  0  0  0  0  0  0  0  0
    5.6603  -10.7667   -5.3447 H   0  0  0  0  0  0  0  0  0  0  0  0
    4.6060  -10.5236   -8.1545 H   0  0  0  0  0  0  0  0  0  0  0  0
    4.6479   -8.2506   -7.1428 H   0  0  0  0  0  0  0  0  0  0  0  0
    6.3789   -8.5044   -6.7141 H   0  0  0  0  0  0  0  0  0  0  0  0
    6.6884   -9.0538   -9.2536 H   0  0  0  0  0  0  0  0  0  0  0  0
    4.0339   -8.9758   -9.4454 H   0  0  0  0  0  0  0  0  0  0  0  0
    4.3679   -7.2148   -9.6958 H   0  0  0  0  0  0  0  0  0  0  0  0
    5.7224   -7.6299  -11.6108 H   0  0  0  0  0  0  0  0  0  0  0  0
    5.8204   -9.4048  -11.2325 H   0  0  0  0  0  0  0  0  0  0  0  0
    1.7939  -10.0779  -12.5795 H   0  0  0  0  0  0  0  0  0  0  0  0
    2.6376   -8.2164  -14.2216 H   0  0  0  0  0  0  0  0  0  0  0  0
    1.3148   -6.7387  -13.6235 H   0  0  0  0  0  0  0  0  0  0  0  0
    0.9676   -8.1626  -15.8215 H   0  0  0  0  0  0  0  0  0  0  0  0
    0.1961   -7.5142  -12.2208 H   0  0  0  0  0  0  0  0  0  0  0  0
    3.6217   -7.6064  -13.3957 H   0  0  0  0  0  0  0  0  0  0  0  0
    4.1101   -6.2471  -11.6249 H   0  0  0  0  0  0  0  0  0  0  0  0
    2.8462   -4.3356  -12.7750 H   0  0  0  0  0  0  0  0  0  0  0  0
    3.8820   -5.3764  -13.8097 H   0  0  0  0  0  0  0  0  0  0  0  0
    2.0997   -5.6000  -13.8097 H   0  0  0  0  0  0  0  0  0  0  0  0
    2.4991   -6.1778   -9.9745 H   0  0  0  0  0  0  0  0  0  0  0  0
    1.7123   -5.0042  -11.0836 H   0  0  0  0  0  0  0  0  0  0  0  0
    1.1963   -6.7247  -11.0836 H   0  0  0  0  0  0  0  0  0  0  0  0
    6.7182   -6.8375   -7.7453 H   0  0  0  0  0  0  0  0  0  0  0  0
   24.7665  -31.3589   26.1396 H   0  0  0  0  0  0  0  0  0  0  0  0
   24.7579  -30.2586   27.6760 H   0  0  0  0  0  0  0  0  0  0  0  0
   24.6835  -32.8889   27.1139 H   0  0  0  0  0  0  0  0  0  0  0  0
   25.3219  -32.9114   29.7352 H   0  0  0  0  0  0  0  0  0  0  0  0
   25.4752  -33.9715   28.1777 H   0  0  0  0  0  0  0  0  0  0  0  0
   27.3230  -32.5370   29.5857 H   0  0  0  0  0  0  0  0  0  0  0  0
   27.3481  -33.6395   28.0659 H   0  0  0  0  0  0  0  0  0  0  0  0
   27.9885  -31.0208   28.4126 H   0  0  0  0  0  0  0  0  0  0  0  0
   27.9729  -32.2185   26.9663 H   0  0  0  0  0  0  0  0  0  0  0  0
   26.7578  -31.0022   25.9906 H   0  0  0  0  0  0  0  0  0  0  0  0
   26.6106  -29.9210   27.5247 H   0  0  0  0  0  0  0  0  0  0  0  0
   24.9834  -33.3536   23.4967 H   0  0  0  0  0  0  0  0  0  0  0  0
   23.3574  -34.1811   23.0453 H   0  0  0  0  0  0  0  0  0  0  0  0
   23.0134  -34.5136   24.9694 H   0  0  0  0  0  0  0  0  0  0  0  0
   24.5236  -33.4955   25.4219 H   0  0  0  0  0  0  0  0  0  0  0  0
   23.6748  -32.0607   25.8820 H   0  0  0  0  0  0  0  0  0  0  0  0
   21.2342  -31.4649   24.9110 H   0  0  0  0  0  0  0  0  0  0  0  0
   22.8913  -30.6529   25.3537 H   0  0  0  0  0  0  0  0  0  0  0  0
   21.7092  -31.1881   22.9782 H   0  0  0  0  0  0  0  0  0  0  0  0
   23.2968  -30.3714   23.5490 H   0  0  0  0  0  0  0  0  0  0  0  0
   22.5191  -32.7443   22.5723 H   0  0  0  0  0  0  0  0  0  0  0  0
   22.1518  -31.6091   26.9397 H   0  0  0  0  0  0  0  0  0  0  0  0
   22.6727  -33.2725   32.8889 H   0  0  0  0  0  0  0  0  0  0  0  0
   22.5543  -35.0415   33.3257 H   0  0  0  0  0  0  0  0  0  0  0  0
   24.3720  -35.3661   32.9625 H   0  0  0  0  0  0  0  0  0  0  0  0
   23.0249  -35.0429   35.3060 H   0  0  0  0  0  0  0  0  0  0  0  0
   24.8121  -35.3651   34.8138 H   0  0  0  0  0  0  0  0  0  0  0  0
   23.6599  -33.3225   36.2129 H   0  0  0  0  0  0  0  0  0  0  0  0
   25.4057  -33.7573   35.6667 H   0  0  0  0  0  0  0  0  0  0  0  0
   23.8292  -31.5985   35.1356 H   0  0  0  0  0  0  0  0  0  0  0  0
   25.5628  -32.1420   34.6583 H   0  0  0  0  0  0  0  0  0  0  0  0
   25.0617  -32.0063   32.7537 H   0  0  0  0  0  0  0  0  0  0  0  0
   23.2711  -31.6879   33.2483 H   0  0  0  0  0  0  0  0  0  0  0  0
   19.7914  -27.5846   24.7022 H   0  0  0  0  0  0  0  0  0  0  0  0
   18.4790  -26.7756   21.6334 H   0  0  0  0  0  0  0  0  0  0  0  0
   18.8702  -31.7467   22.9379 H   0  0  0  0  0  0  0  0  0  0  0  0
   18.5232  -26.9582   23.2926 H   0  0  0  0  0  0  0  0  0  0  0  0
   17.5481  -28.2167   24.5119 H   0  0  0  0  0  0  0  0  0  0  0  0
   17.1611  -28.7672   22.8290 H   0  0  0  0  0  0  0  0  0  0  0  0
   19.3034  -30.0782   24.5573 H   0  0  0  0  0  0  0  0  0  0  0  0
   17.0459  -30.2088   25.6195 H   0  0  0  0  0  0  0  0  0  0  0  0
   16.4770  -31.0414   24.1005 H   0  0  0  0  0  0  0  0  0  0  0  0
   18.2030  -32.8030   24.4844 H   0  0  0  0  0  0  0  0  0  0  0  0
   19.5741  -31.1606   26.0031 H   0  0  0  0  0  0  0  0  0  0  0  0
   18.4676  -31.7966   27.3051 H   0  0  0  0  0  0  0  0  0  0  0  0
   19.2238  -34.0429   26.9674 H   0  0  0  0  0  0  0  0  0  0  0  0
   20.1630  -33.5573   25.4953 H   0  0  0  0  0  0  0  0  0  0  0  0
   23.0067  -31.4078   28.0321 H   0  0  0  0  0  0  0  0  0  0  0  0
   22.6284  -33.6927   29.2559 H   0  0  0  0  0  0  0  0  0  0  0  0
   21.7481  -32.9460   30.9495 H   0  0  0  0  0  0  0  0  0  0  0  0
   24.2986  -33.6283   30.8972 H   0  0  0  0  0  0  0  0  0  0  0  0
   22.3844  -31.5737   32.2445 H   0  0  0  0  0  0  0  0  0  0  0  0
   21.3073  -33.9885   28.7866 H   0  0  0  0  0  0  0  0  0  0  0  0
   19.0413  -33.4875   28.8448 H   0  0  0  0  0  0  0  0  0  0  0  0
   19.8558  -33.8345   31.6526 H   0  0  0  0  0  0  0  0  0  0  0  0
   19.0844  -34.9932   30.5172 H   0  0  0  0  0  0  0  0  0  0  0  0
   20.8691  -34.7889   30.5172 H   0  0  0  0  0  0  0  0  0  0  0  0
   19.3118  -31.9787   31.3713 H   0  0  0  0  0  0  0  0  0  0  0  0
   19.8933  -31.0082   29.9761 H   0  0  0  0  0  0  0  0  0  0  0  0
   18.2234  -31.6700   29.9761 H   0  0  0  0  0  0  0  0  0  0  0  0
   16.7897  -32.7432   26.9037 H   0  0  0  0  0  0  0  0  0  0  0  0
  -15.7872  -26.8984   20.9095 H   0  0  0  0  0  0  0  0  0  0  0  0
  -15.8554  -28.1073   19.4624 H   0  0  0  0  0  0  0  0  0  0  0  0
  -16.2237  -28.1789   22.1321 H   0  0  0  0  0  0  0  0  0  0  0  0
  -17.3679  -30.5072   21.3796 H   0  0  0  0  0  0  0  0  0  0  0  0
  -17.4170  -29.2360   22.7750 H   0  0  0  0  0  0  0  0  0  0  0  0
  -19.1670  -29.7958   20.7682 H   0  0  0  0  0  0  0  0  0  0  0  0
  -19.1061  -28.5933   22.2115 H   0  0  0  0  0  0  0  0  0  0  0  0
  -19.2664  -28.1884   19.5260 H   0  0  0  0  0  0  0  0  0  0  0  0
  -19.1955  -27.0882   21.0479 H   0  0  0  0  0  0  0  0  0  0  0  0
  -17.5916  -26.1921   20.3025 H   0  0  0  0  0  0  0  0  0  0  0  0
  -17.5393  -27.4439   18.9005 H   0  0  0  0  0  0  0  0  0  0  0  0
  -15.8586  -24.7855   23.3682 H   0  0  0  0  0  0  0  0  0  0  0  0
  -14.4723  -24.9994   24.6252 H   0  0  0  0  0  0  0  0  0  0  0  0
  -14.6210  -26.9464   24.4292 H   0  0  0  0  0  0  0  0  0  0  0  0
  -15.8382  -26.7178   23.0144 H   0  0  0  0  0  0  0  0  0  0  0  0
  -14.7379  -27.0311   21.7438 H   0  0  0  0  0  0  0  0  0  0  0  0
  -12.0761  -26.6334   22.0043 H   0  0  0  0  0  0  0  0  0  0  0  0
  -13.4756  -26.4136   20.7524 H   0  0  0  0  0  0  0  0  0  0  0  0
  -12.0772  -24.6170   22.2423 H   0  0  0  0  0  0  0  0  0  0  0  0
  -13.4386  -24.5255   20.9638 H   0  0  0  0  0  0  0  0  0  0  0  0
  -13.2055  -24.4261   23.6336 H   0  0  0  0  0  0  0  0  0  0  0  0
  -13.4932  -28.3602   21.3224 H   0  0  0  0  0  0  0  0  0  0  0  0
  -15.6088  -34.2496   21.4262 H   0  0  0  0  0  0  0  0  0  0  0  0
  -16.1985  -35.0130   22.9714 H   0  0  0  0  0  0  0  0  0  0  0  0
  -17.9204  -34.2741   22.8104 H   0  0  0  0  0  0  0  0  0  0  0  0
  -16.9732  -36.7776   22.3180 H   0  0  0  0  0  0  0  0  0  0  0  0
  -18.6452  -35.9206   22.1928 H   0  0  0  0  0  0  0  0  0  0  0  0
  -17.1002  -37.1627   20.3267 H   0  0  0  0  0  0  0  0  0  0  0  0
  -18.7680  -36.2931   20.3346 H   0  0  0  0  0  0  0  0  0  0  0  0
  -16.4744  -35.7916   18.9748 H   0  0  0  0  0  0  0  0  0  0  0  0
  -18.1784  -35.0074   19.0734 H   0  0  0  0  0  0  0  0  0  0  0  0
  -17.3449  -33.3041   19.5819 H   0  0  0  0  0  0  0  0  0  0  0  0
  -15.6691  -34.1658   19.7078 H   0  0  0  0  0  0  0  0  0  0  0  0
  -10.6320  -25.0554   19.6150 H   0  0  0  0  0  0  0  0  0  0  0  0
   -8.2483  -23.0815   20.5709 H   0  0  0  0  0  0  0  0  0  0  0  0
   -8.9083  -25.5657   23.3823 H   0  0  0  0  0  0  0  0  0  0  0  0
   -8.2972  -24.7687   18.6361 H   0  0  0  0  0  0  0  0  0  0  0  0
   -7.7653  -26.4029   19.6558 H   0  0  0  0  0  0  0  0  0  0  0  0
   -7.1605  -25.0812   20.7219 H   0  0  0  0  0  0  0  0  0  0  0  0
   -9.8629  -26.4178   21.1105 H   0  0  0  0  0  0  0  0  0  0  0  0
   -8.0278  -28.1138   21.2721 H   0  0  0  0  0  0  0  0  0  0  0  0
   -7.3200  -27.1102   22.6097 H   0  0  0  0  0  0  0  0  0  0  0  0
   -9.5706  -27.3070   23.7746 H   0  0  0  0  0  0  0  0  0  0  0  0
  -10.6137  -28.2418   21.4957 H   0  0  0  0  0  0  0  0  0  0  0  0
  -10.0709  -29.8182   22.1791 H   0  0  0  0  0  0  0  0  0  0  0  0
  -11.3434  -29.4597   24.1996 H   0  0  0  0  0  0  0  0  0  0  0  0
  -11.7533  -27.7638   23.6598 H   0  0  0  0  0  0  0  0  0  0  0  0
  -14.5152  -29.1521   20.7252 H   0  0  0  0  0  0  0  0  0  0  0  0
  -14.8672  -30.8742   22.6720 H   0  0  0  0  0  0  0  0  0  0  0  0
  -14.2803  -32.5680   21.7518 H   0  0  0  0  0  0  0  0  0  0  0  0
  -16.8633  -31.9952   21.8142 H   0  0  0  0  0  0  0  0  0  0  0  0
  -13.7814  -33.1190   20.3801 H   0  0  0  0  0  0  0  0  0  0  0  0
  -13.5790  -30.8093   23.2674 H   0  0  0  0  0  0  0  0  0  0  0  0
  -11.3098  -31.3225   23.1043 H   0  0  0  0  0  0  0  0  0  0  0  0
  -12.5748  -32.7447   24.3925 H   0  0  0  0  0  0  0  0  0  0  0  0
  -13.7400  -33.0947   23.0709 H   0  0  0  0  0  0  0  0  0  0  0  0
  -12.1214  -33.8737   23.0709 H   0  0  0  0  0  0  0  0  0  0  0  0
  -10.7325  -33.0519   21.3971 H   0  0  0  0  0  0  0  0  0  0  0  0
  -12.3229  -32.8093   20.5981 H   0  0  0  0  0  0  0  0  0  0  0  0
  -11.1068  -31.4873   20.5981 H   0  0  0  0  0  0  0  0  0  0  0  0
   -8.5422  -28.9009   24.7847 H   0  0  0  0  0  0  0  0  0  0  0  0
  1  2  1  0
  2  3  1  0
  3  4  1  0
  4  5  1  0
  1  6  1  0
  5  6  1  0
  7  8  1  0
  8  9  1  0
  9 10  1  0
 10 11  1  0
  7 12  1  0
 11 12  1  0
 12 13  1  0
  9 14  1  0
 15 16  1  0
 16 17  1  0
 17 18  1  0
 18 19  1  0
 15 20  1  0
 19 20  1  0
 21 24  1  0
 22 24  1  0
 24 25  1  0
 23 26  1  0
 25 26  1  0
 26 27  1  0
 27 28  1  0
 28 29  1  0
 29 30  1  0
 14 31  1  0
 30 31  1  0
  2 32  1  0
 14 32  1  0
 32 33  1  0
 33 34  1  0
 15 35  1  0
 34 35  1  0
 34 36  1  0
 31 37  1  0
 33 37  1  0
 37 38  1  0
 38 39  1  0
 38 40  1  0
 28 41  1  0
 42 43  1  0
 43 44  1  0
 44 45  1  0
 45 46  1  0
 42 47  1  0
 46 47  1  0
 48 49  1  0
 49 50  1  0
 50 51  1  0
 51 52  1  0
 48 53  1  0
 52 53  1  0
 53 54  1  0
 50 55  1  0
 56 57  1  0
 57 58  1  0
 58 59  1  0
 59 60  1  0
 56 61  1  0
 60 61  1  0
 62 65  1  0
 63 65  1  0
 65 66  1  0
 64 67  1  0
 66 67  1  0
 67 68  1  0
 68 69  1  0
 69 70  1  0
 70 71  1  0
 55 72  1  0
 71 72  1  0
 43 73  1  0
 55 73  1  0
 73 74  1  0
 74 75  1  0
 56 76  1  0
 75 76  1  0
 75 77  1  0
 72 78  1  0
 74 78  1  0
 78 79  1  0
 79 80  1  0
 79 81  1  0
 69 82  1  0
 83 84  1  0
 84 85  1  0
 85 86  1  0
 86 87  1  0
 83 88  1  0
 87 88  1  0
 89 90  1  0
 90 91  1  0
 91 92  1  0
 92 93  1  0
 89 94  1  0
 93 94  1  0
 94 95  1  0
 91 96  1  0
 97 98  1  0
 98 99  1  0
 99100  1  0
100101  1  0
 97102  1  0
101102  1  0
103106  1  0
104106  1  0
106107  1  0
105108  1  0
107108  1  0
108109  1  0
109110  1  0
110111  1  0
111112  1  0
 96113  1  0
112113  1  0
 84114  1  0
 96114  1  0
114115  1  0
115116  1  0
 97117  1  0
116117  1  0
116118  1  0
113119  1  0
115119  1  0
119120  1  0
120121  1  0
120122  1  0
110123  1  0
124125  1  0
125126  1  0
126127  1  0
127128  1  0
124129  1  0
128129  1  0
130131  1  0
131132  1  0
132133  1  0
133134  1  0
130135  1  0
134135  1  0
135136  1  0
132137  1  0
138139  1  0
139140  1  0
140141  1  0
141142  1  0
138143  1  0
142143  1  0
144147  1  0
145147  1  0
147148  1  0
146149  1  0
148149  1  0
149150  1  0
150151  1  0
151152  1  0
152153  1  0
137154  1  0
153154  1  0
125155  1  0
137155  1  0
155156  1  0
156157  1  0
138158  1  0
157158  1  0
157159  1  0
154160  1  0
156160  1  0
160161  1  0
161162  1  0
161163  1  0
151164  1  0
  1165  1  0
  1166  1  0
  2167  1  0
  3168  1  0
  3169  1  0
  4170  1  0
  4171  1  0
  5172  1  0
  5173  1  0
  6174  1  0
  6175  1  0
  7176  1  0
  7177  1  0
  8178  1  0
  8179  1  0
  9180  1  0
 10181  1  0
 10182  1  0
 11183  1  0
 11184  1  0
 12185  1  0
 14186  1  0
 15187  1  0
 16188  1  0
 16189  1  0
 17190  1  0
 17191  1  0
 18192  1  0
 18193  1  0
 19194  1  0
 19195  1  0
 20196  1  0
 20197  1  0
 21198  1  0
 22199  1  0
 23200  1  0
 24201  1  0
 25202  1  0
 25203  1  0
 26204  1  1
 27205  1  0
 27206  1  0
 28207  1  1
 29208  1  0
 29209  1  0
 30210  1  0
 30211  1  0
 32212  1  0
 33213  1  0
 34214  1  0
 35215  1  0
 36216  1  0
 37217  1  0
 38218  1  6
 39219  1  0
 39220  1  0
 39221  1  0
 40222  1  0
 40223  1  0
 40224  1  0
 41225  1  0
 42226  1  0
 42227  1  0
 43228  1  0
 44229  1  0
 44230  1  0
 45231  1  0
 45232  1  0
 46233  1  0
 46234  1  0
 47235  1  0
 47236  1  0
 48237  1  0
 48238  1  0
 49239  1  0
 49240  1  0
 50241  1  0
 51242  1  0
 51243  1  0
 52244  1  0
 52245  1  0
 53246  1  0
 55247  1  0
 56248  1  0
 57249  1  0
 57250  1  0
 58251  1  0
 58252  1  0
 59253  1  0
 59254  1  0
 60255  1  0
 60256  1  0
 61257  1  0
 61258  1  0
 62259  1  0
 63260  1  0
 64261  1  0
 65262  1  0
 66263  1  0
 66264  1  0
 67265  1  6
 68266  1  0
 68267  1  0
 69268  1  6
 70269  1  0
 70270  1  0
 71271  1  0
 71272  1  0
 73273  1  0
 74274  1  0
 75275  1  0
 76276  1  0
 77277  1  0
 78278  1  0
 79279  1  1
 80280  1  0
 80281  1  0
 80282  1  0
 81283  1  0
 81284  1  0
 81285  1  0
 82286  1  0
 83287  1  0
 83288  1  0
 84289  1  0
 85290  1  0
 85291  1  0
 86292  1  0
 86293  1  0
 87294  1  0
 87295  1  0
 88296  1  0
 88297  1  0
 89298  1  0
 89299  1  0
 90300  1  0
 90301  1  0
 91302  1  0
 92303  1  0
 92304  1  0
 93305  1  0
 93306  1  0
 94307  1  0
 96308  1  0
 97309  1  0
 98310  1  0
 98311  1  0
 99312  1  0
 99313  1  0
100314  1  0
100315  1  0
101316  1  0
101317  1  0
102318  1  0
102319  1  0
103320  1  0
104321  1  0
105322  1  0
106323  1  0
107324  1  0
107325  1  0
108326  1  1
109327  1  0
109328  1  0
110329  1  6
111330  1  0
111331  1  0
112332  1  0
112333  1  0
114334  1  0
115335  1  0
116336  1  0
117337  1  0
118338  1  0
119339  1  0
120340  1  6
121341  1  0
121342  1  0
121343  1  0
122344  1  0
122345  1  0
122346  1  0
123347  1  0
124348  1  0
124349  1  0
125350  1  0
126351  1  0
126352  1  0
127353  1  0
127354  1  0
128355  1  0
128356  1  0
129357  1  0
129358  1  0
130359  1  0
130360  1  0
131361  1  0
131362  1  0
132363  1  0
133364  1  0
133365  1  0
134366  1  0
134367  1  0
135368  1  0
137369  1  0
138370  1  0
139371  1  0
139372  1  0
140373  1  0
140374  1  0
141375  1  0
141376  1  0
142377  1  0
142378  1  0
143379  1  0
143380  1  0
144381  1  0
145382  1  0
146383  1  0
147384  1  0
148385  1  0
148386  1  0
149387  1  6
150388  1  0
150389  1  0
151390  1  1
152391  1  0
152392  1  0
153393  1  0
153394  1  0
155395  1  0
156396  1  0
157397  1  0
158398  1  0
159399  1  0
160400  1  0
161401  1  1
162402  1  0
162403  1  0
162404  1  0
163405  1  0
163406  1  0
163407  1  0
164408  1  0
M  END
>  <PDBID>  (1) 
1HWK

>  <PDB ID>  (1) 
1HWK

>  <Generic Name>  (1) 
Atorvastatin

>  <Brand Name>  (1) 
Ach-atorvastatin Calcium#Act Atorvastatin#Amlodipine Besylate and Atorvastatin Calcium#Amlodipine Besylate/atorvastatin Calcium#Apo-amlodipine-atorvastatin#Apo-atorvastatin#Atorvastatin#Atorvastatin Calcium#Atorvastatin-10#Atorvastatin-20#Atorvastatin-40#Atorvastatin-80#Auro-atorvastatin#Ava-atorvastatin#Caduet#Dom-atorvastatin#Gd-amlodipine/atorvastatin#Gd-atorvastatin#Jamp-atorvastatin#Lipitor#Liptruzet#Mar-atorvastatin#Mylan-amlodipine/atorvastatin#Mylan-atorvastatin#Novo-atorvastatin#Ntp-atorvastatin#PMS-amlodipine-atorvastatin#PMS-atorvastatin#Pendo-amlodipine-atorvastatin#Q-gen Atorvastatin#Ran-atorvastatin#Ratio-atorvastatin#Rbx-atorvastatin#Reddy-atorvastatin#Riva-atorvastatin#Sandoz Atorvastatin#Atogal#Cardyl#Faboxim#Hipolixan#Lipotropic#Liprimar#Lowden#Normalip#Sincol#Sortis#Torvacard#Torvast#Totalip#Tulip#Vastina#Xanator#Xarator#Zurinel

>  <DrugBank ID>  (1) 
DB01076

>  <ATC Codes>  (1) 
C10AA05#C10BA05#C10BX06#C10BX11#C10BX03#C10BX08

>  <Ligand ID>  (1) 
117

>  <Target Name>  (1) 
3-hydroxy-3-methylglutaryl-coenzyme A reductase

>  <UniProt ID>  (1) 
P04035

>  <PDB ID.1>  (1) 
1HWK

>  <Seq. Identity>  (1) 
97%

$$$$
