PDB_DB00951_96
     RDKit          3D

 17 17  0  0  0  0  0  0  0  0999 V2000
   -2.0730  -44.7350   20.2560 C   0  0  0  0  0  0  0  0  0  0  0  0
   -1.0540  -45.4660   19.4340 C   0  0  0  0  0  0  0  0  0  0  0  0
    0.8690  -47.1480   18.1100 N   0  0  0  0  0  0  0  0  0  0  0  0
   -2.7950  -45.4170   20.9370 O   0  0  0  0  0  0  0  0  0  0  0  0
    0.0730  -44.8320   18.7340 C   0  0  0  0  0  0  0  0  0  0  0  0
   -2.1890  -43.3290   20.3290 N   0  0  0  0  0  0  0  0  0  0  0  0
    0.9920  -45.7090   18.1040 C   0  0  0  0  0  0  0  0  0  0  0  0
   -2.9270  -42.7400   21.4160 N   0  0  0  0  0  0  0  0  0  0  0  0
   -0.3090  -47.6680   18.8240 C   0  0  0  0  0  0  0  0  0  0  0  0
   -1.2610  -46.8630   19.4840 C   0  0  0  0  0  0  0  0  0  0  0  0
    0.1962  -43.7394   18.7009 H   0  0  0  0  0  0  0  0  0  0  0  0
   -1.7508  -42.7322   19.6130 H   0  0  0  0  0  0  0  0  0  0  0  0
    1.8511  -45.2663   17.5786 H   0  0  0  0  0  0  0  0  0  0  0  0
   -2.5300  -43.0569   22.3120 H   0  0  0  0  0  0  0  0  0  0  0  0
   -2.8649  -41.7136   21.3568 H   0  0  0  0  0  0  0  0  0  0  0  0
   -0.4567  -48.7579   18.8441 H   0  0  0  0  0  0  0  0  0  0  0  0
   -2.1214  -47.3008   20.0112 H   0  0  0  0  0  0  0  0  0  0  0  0
  1  2  1  0
  1  4  2  0
  2  5  2  0
  1  6  1  0
  3  7  2  0
  5  7  1  0
  6  8  1  0
  3  9  1  0
  2 10  1  0
  9 10  2  0
  5 11  1  0
  6 12  1  0
  7 13  1  0
  8 14  1  0
  8 15  1  0
  9 16  1  0
 10 17  1  0
M  END
$$$$
