PDB_DB08954_97
     RDKit          3D

126130  0  0  0  0  0  0  0  0999 V2000
   80.2790    1.0070  -32.3670 C   0  0  0  0  0  0  0  0  0  0  0  0
   85.8880    6.5160  -32.0490 N   0  0  0  0  0  0  0  0  0  0  0  0
   85.6360    9.4850  -32.8330 O   0  0  0  0  0  0  0  0  0  0  0  0
   90.0250   10.2150  -30.8360 C   0  0  0  0  0  0  0  0  0  0  0  0
   91.5580   11.7410  -31.8950 O   0  0  0  0  0  0  0  0  0  0  0  0
   89.4340   11.3410  -32.8730 C   0  0  0  0  0  0  0  0  0  0  0  0
   82.2790    2.6020  -31.2350 C   0  0  1  0  0  0  0  0  0  0  0  0
   81.0890    3.1620  -31.7040 C   0  0  0  0  0  0  0  0  0  0  0  0
   80.0950    2.3690  -32.2590 C   0  0  0  0  0  0  0  0  0  0  0  0
   83.2600    3.4320  -30.4400 C   0  0  0  0  0  0  0  0  0  0  0  0
   84.3830    4.0830  -31.2590 C   0  0  1  0  0  0  0  0  0  0  0  0
   83.8480    5.0830  -32.2930 C   0  0  0  0  0  0  0  0  0  0  0  0
   81.4770    0.4380  -31.9420 C   0  0  0  0  0  0  0  0  0  0  0  0
   82.4670    1.2310  -31.3800 C   0  0  0  0  0  0  0  0  0  0  0  0
   84.9720    5.8510  -33.0080 C   0  0  0  0  0  0  0  0  0  0  0  0
   86.4670    5.5340  -31.1210 C   0  0  0  0  0  0  0  0  0  0  0  0
   85.3890    4.7810  -30.3470 C   0  0  0  0  0  0  0  0  0  0  0  0
   86.9360    7.4540  -32.5010 C   0  0  2  0  0  0  0  0  0  0  0  0
   86.6480    8.8880  -32.0110 C   0  0  1  0  0  0  0  0  0  0  0  0
   87.9130    9.7260  -31.9090 C   0  0  1  0  0  0  0  0  0  0  0  0
   88.8210    9.5290  -30.8720 C   0  0  0  0  0  0  0  0  0  0  0  0
   90.3420   11.1150  -31.8490 C   0  0  1  0  0  0  0  0  0  0  0  0
   88.2360   10.6520  -32.8970 C   0  0  0  0  0  0  0  0  0  0  0  0
   87.1940    7.4020  -33.9990 C   0  0  0  0  0  0  0  0  0  0  0  0
   30.2490   -8.3030  -31.4130 C   0  0  0  0  0  0  0  0  0  0  0  0
   23.0380   -5.1730  -32.1560 N   0  0  0  0  0  0  0  0  0  0  0  0
   22.1810   -2.2450  -32.6890 O   0  0  0  0  0  0  0  0  0  0  0  0
   17.7810   -3.4010  -34.0590 C   0  0  0  0  0  0  0  0  0  0  0  0
   15.9070   -2.0920  -33.2770 O   0  0  0  0  0  0  0  0  0  0  0  0
   18.0190   -1.8260  -32.2660 C   0  0  0  0  0  0  0  0  0  0  0  0
   27.9050   -7.4850  -32.6990 C   0  0  1  0  0  0  0  0  0  0  0  0
   28.8570   -6.5530  -32.2900 C   0  0  0  0  0  0  0  0  0  0  0  0
   30.0230   -6.9580  -31.6580 C   0  0  0  0  0  0  0  0  0  0  0  0
   26.7110   -7.0580  -33.5190 C   0  0  0  0  0  0  0  0  0  0  0  0
   25.4210   -6.8410  -32.7170 C   0  0  1  0  0  0  0  0  0  0  0  0
   25.4770   -5.5600  -31.8850 C   0  0  0  0  0  0  0  0  0  0  0  0
   29.2960   -9.2390  -31.7850 C   0  0  0  0  0  0  0  0  0  0  0  0
   28.1320   -8.8320  -32.4220 C   0  0  0  0  0  0  0  0  0  0  0  0
   24.1510   -5.2500  -31.1930 C   0  0  0  0  0  0  0  0  0  0  0  0
   22.9200   -6.4610  -32.8610 C   0  0  0  0  0  0  0  0  0  0  0  0
   24.1960   -6.8000  -33.6300 C   0  0  0  0  0  0  0  0  0  0  0  0
   21.7590   -4.5020  -31.8280 C   0  0  2  0  0  0  0  0  0  0  0  0
   21.4130   -3.4340  -32.8880 C   0  0  1  0  0  0  0  0  0  0  0  0
   19.9280   -3.1240  -32.9790 C   0  0  1  0  0  0  0  0  0  0  0  0
   19.1200   -3.7370  -33.9340 C   0  0  0  0  0  0  0  0  0  0  0  0
   17.2240   -2.4430  -33.2190 C   0  0  0  0  0  0  0  0  0  0  0  0
   19.3530   -2.1680  -32.1500 C   0  0  0  0  0  0  0  0  0  0  0  0
   21.6980   -3.9540  -30.4030 C   0  0  0  0  0  0  0  0  0  0  0  0
   79.4753    0.5293  -31.7874 H   0  0  0  0  0  0  0  0  0  0  0  0
   80.2836    0.8338  -33.4533 H   0  0  0  0  0  0  0  0  0  0  0  0
   84.9423    9.8942  -32.2574 H   0  0  0  0  0  0  0  0  0  0  0  0
   90.0408   10.7801  -29.8924 H   0  0  0  0  0  0  0  0  0  0  0  0
   90.7741    9.4191  -30.9603 H   0  0  0  0  0  0  0  0  0  0  0  0
   91.8791   11.9063  -30.9732 H   0  0  0  0  0  0  0  0  0  0  0  0
   89.1843   12.4119  -32.8458 H   0  0  0  0  0  0  0  0  0  0  0  0
   89.9591   10.9677  -33.7646 H   0  0  0  0  0  0  0  0  0  0  0  0
   82.7847    2.8965  -32.1664 H   0  0  0  0  0  0  0  0  0  0  0  0
   80.6319    3.6845  -30.8507 H   0  0  0  0  0  0  0  0  0  0  0  0
   81.4263    3.7620  -32.5620 H   0  0  0  0  0  0  0  0  0  0  0  0
   79.9185    2.7472  -33.2768 H   0  0  0  0  0  0  0  0  0  0  0  0
   79.2699    2.4559  -31.5367 H   0  0  0  0  0  0  0  0  0  0  0  0
   82.6982    4.2328  -29.9369 H   0  0  0  0  0  0  0  0  0  0  0  0
   83.7539    2.7367  -29.7453 H   0  0  0  0  0  0  0  0  0  0  0  0
   84.8842    3.2687  -31.8028 H   0  0  0  0  0  0  0  0  0  0  0  0
   83.2630    4.5333  -33.0451 H   0  0  0  0  0  0  0  0  0  0  0  0
   83.2300    5.8185  -31.7571 H   0  0  0  0  0  0  0  0  0  0  0  0
   81.2170   -0.3228  -31.1913 H   0  0  0  0  0  0  0  0  0  0  0  0
   81.9361    0.0922  -32.8799 H   0  0  0  0  0  0  0  0  0  0  0  0
   83.3652    1.1005  -32.0014 H   0  0  0  0  0  0  0  0  0  0  0  0
   82.5056    0.8763  -30.3395 H   0  0  0  0  0  0  0  0  0  0  0  0
   84.5218    6.6159  -33.6578 H   0  0  0  0  0  0  0  0  0  0  0  0
   85.5591    5.1276  -33.5927 H   0  0  0  0  0  0  0  0  0  0  0  0
   87.0640    4.8103  -31.6954 H   0  0  0  0  0  0  0  0  0  0  0  0
   87.0924    6.0760  -30.3963 H   0  0  0  0  0  0  0  0  0  0  0  0
   84.8484    5.4972  -29.7107 H   0  0  0  0  0  0  0  0  0  0  0  0
   85.8909    4.0038  -29.7520 H   0  0  0  0  0  0  0  0  0  0  0  0
   87.8738    7.1177  -32.0346 H   0  0  0  0  0  0  0  0  0  0  0  0
   86.2579    8.8410  -30.9836 H   0  0  0  0  0  0  0  0  0  0  0  0
   87.3744   10.4646  -31.2971 H   0  0  0  0  0  0  0  0  0  0  0  0
   89.0716    8.4579  -30.8753 H   0  0  0  0  0  0  0  0  0  0  0  0
   88.2853    9.9358  -30.0016 H   0  0  0  0  0  0  0  0  0  0  0  0
   89.9404   11.9397  -31.2419 H   0  0  0  0  0  0  0  0  0  0  0  0
   87.4402   11.4113  -32.8837 H   0  0  0  0  0  0  0  0  0  0  0  0
   88.3433   10.0192  -33.7903 H   0  0  0  0  0  0  0  0  0  0  0  0
   88.2575    7.1876  -34.1807 H   0  0  0  0  0  0  0  0  0  0  0  0
   86.5781    6.6099  -34.4499 H   0  0  0  0  0  0  0  0  0  0  0  0
   86.9330    8.3708  -34.4499 H   0  0  0  0  0  0  0  0  0  0  0  0
   31.1795   -8.5703  -31.9353 H   0  0  0  0  0  0  0  0  0  0  0  0
   30.2544   -8.3658  -30.3148 H   0  0  0  0  0  0  0  0  0  0  0  0
   22.2878   -2.0797  -31.7188 H   0  0  0  0  0  0  0  0  0  0  0  0
   17.6383   -3.0420  -35.0889 H   0  0  0  0  0  0  0  0  0  0  0  0
   17.2599   -4.3254  -33.7695 H   0  0  0  0  0  0  0  0  0  0  0  0
   15.5501   -1.9969  -32.3585 H   0  0  0  0  0  0  0  0  0  0  0  0
   17.9854   -0.7467  -32.4755 H   0  0  0  0  0  0  0  0  0  0  0  0
   17.5867   -2.1715  -31.3153 H   0  0  0  0  0  0  0  0  0  0  0  0
   27.3343   -7.3073  -31.7755 H   0  0  0  0  0  0  0  0  0  0  0  0
   29.1641   -6.0024  -33.1914 H   0  0  0  0  0  0  0  0  0  0  0  0
   28.3310   -5.9988  -31.4987 H   0  0  0  0  0  0  0  0  0  0  0  0
   30.0484   -6.4494  -30.6830 H   0  0  0  0  0  0  0  0  0  0  0  0
   30.8067   -6.6992  -32.3852 H   0  0  0  0  0  0  0  0  0  0  0  0
   26.9629   -6.1134  -34.0232 H   0  0  0  0  0  0  0  0  0  0  0  0
   26.5053   -7.8828  -34.2172 H   0  0  0  0  0  0  0  0  0  0  0  0
   25.3311   -7.6988  -32.0343 H   0  0  0  0  0  0  0  0  0  0  0  0
   26.2570   -5.6723  -31.1175 H   0  0  0  0  0  0  0  0  0  0  0  0
   25.6979   -4.7278  -32.5696 H   0  0  0  0  0  0  0  0  0  0  0  0
   29.7956   -9.9488  -32.4607 H   0  0  0  0  0  0  0  0  0  0  0  0
   28.9334   -9.6257  -30.8212 H   0  0  0  0  0  0  0  0  0  0  0  0
   27.2953   -9.1683  -31.7921 H   0  0  0  0  0  0  0  0  0  0  0  0
   28.2341   -9.2741  -33.4241 H   0  0  0  0  0  0  0  0  0  0  0  0
   24.2382   -4.2855  -30.6712 H   0  0  0  0  0  0  0  0  0  0  0  0
   23.9357   -6.0636  -30.4847 H   0  0  0  0  0  0  0  0  0  0  0  0
   22.7255   -7.2546  -32.1245 H   0  0  0  0  0  0  0  0  0  0  0  0
   22.0935   -6.3838  -33.5827 H   0  0  0  0  0  0  0  0  0  0  0  0
   24.3566   -6.0367  -34.4056 H   0  0  0  0  0  0  0  0  0  0  0  0
   24.0698   -7.7984  -34.0742 H   0  0  0  0  0  0  0  0  0  0  0  0
   20.9801   -5.2780  -31.8600 H   0  0  0  0  0  0  0  0  0  0  0  0
   21.6868   -3.8706  -33.8598 H   0  0  0  0  0  0  0  0  0  0  0  0
   20.1417   -2.3072  -33.6841 H   0  0  0  0  0  0  0  0  0  0  0  0
   19.1532   -4.8165  -33.7252 H   0  0  0  0  0  0  0  0  0  0  0  0
   19.5489   -3.3766  -34.8806 H   0  0  0  0  0  0  0  0  0  0  0  0
   17.4651   -1.6596  -33.9526 H   0  0  0  0  0  0  0  0  0  0  0  0
   19.9261   -1.2411  -32.2995 H   0  0  0  0  0  0  0  0  0  0  0  0
   19.3899   -2.6540  -31.1639 H   0  0  0  0  0  0  0  0  0  0  0  0
   21.7904   -4.7838  -29.6868 H   0  0  0  0  0  0  0  0  0  0  0  0
   22.5225   -3.2425  -30.2482 H   0  0  0  0  0  0  0  0  0  0  0  0
   20.7372   -3.4412  -30.2482 H   0  0  0  0  0  0  0  0  0  0  0  0
  7  8  1  0
  1  9  1  0
  8  9  1  0
  7 10  1  0
 10 11  1  0
 11 12  1  0
  1 13  1  0
  7 14  1  0
 13 14  1  0
  2 15  1  0
 12 15  1  0
  2 16  1  0
 11 17  1  0
 16 17  1  0
  2 18  1  0
  3 19  1  0
 18 19  1  0
 19 20  1  0
  4 21  1  0
 20 21  1  0
  4 22  1  0
  5 22  1  0
  6 22  1  0
  6 23  1  0
 20 23  1  0
 18 24  1  0
 31 32  1  0
 25 33  1  0
 32 33  1  0
 31 34  1  0
 34 35  1  0
 35 36  1  0
 25 37  1  0
 31 38  1  0
 37 38  1  0
 26 39  1  0
 36 39  1  0
 26 40  1  0
 35 41  1  0
 40 41  1  0
 26 42  1  0
 27 43  1  0
 42 43  1  0
 43 44  1  0
 28 45  1  0
 44 45  1  0
 28 46  1  0
 29 46  1  0
 30 46  1  0
 30 47  1  0
 44 47  1  0
 42 48  1  0
  1 49  1  0
  1 50  1  0
  3 51  1  0
  4 52  1  0
  4 53  1  0
  5 54  1  0
  6 55  1  0
  6 56  1  0
  7 57  1  6
  8 58  1  0
  8 59  1  0
  9 60  1  0
  9 61  1  0
 10 62  1  0
 10 63  1  0
 11 64  1  6
 12 65  1  0
 12 66  1  0
 13 67  1  0
 13 68  1  0
 14 69  1  0
 14 70  1  0
 15 71  1  0
 15 72  1  0
 16 73  1  0
 16 74  1  0
 17 75  1  0
 17 76  1  0
 18 77  1  1
 19 78  1  1
 20 79  1  1
 21 80  1  0
 21 81  1  0
 22 82  1  1
 23 83  1  0
 23 84  1  0
 24 85  1  0
 24 86  1  0
 24 87  1  0
 25 88  1  0
 25 89  1  0
 27 90  1  0
 28 91  1  0
 28 92  1  0
 29 93  1  0
 30 94  1  0
 30 95  1  0
 31 96  1  1
 32 97  1  0
 32 98  1  0
 33 99  1  0
 33100  1  0
 34101  1  0
 34102  1  0
 35103  1  1
 36104  1  0
 36105  1  0
 37106  1  0
 37107  1  0
 38108  1  0
 38109  1  0
 39110  1  0
 39111  1  0
 40112  1  0
 40113  1  0
 41114  1  0
 41115  1  0
 42116  1  1
 43117  1  6
 44118  1  1
 45119  1  0
 45120  1  0
 46121  1  0
 47122  1  0
 47123  1  0
 48124  1  0
 48125  1  0
 48126  1  0
M  END
>  <PDBID>  (1) 
5EWJ

>  <PDB ID>  (1) 
5EWJ

>  <Generic Name>  (1) 
Ifenprodil

>  <Brand Name>  (1) 
Cerocral#Furezanil#Iburonol#Linbulane#Technis#Vadilex#Vasculodil#Youajyl

>  <DrugBank ID>  (1) 
DB08954

>  <ATC Codes>  (1) 
C04AX28

>  <Ligand ID>  (1) 
QEL

>  <Target Name>  (1) 
Glutamate receptor ionotropic, NMDA 1

>  <UniProt ID>  (1) 
Q05586

>  <PDB ID.1>  (1) 
5EWJ

>  <Seq. Identity>  (1) 
83%

$$$$
