PDB_DB00559_99
     RDKit          3D

 68 71  0  0  0  0  0  0  0  0999 V2000
  -34.0620    7.7650   13.4100 C   0  0  0  0  0  0  0  0  0  0  0  0
  -32.0680    4.2240   10.5240 C   0  0  0  0  0  0  0  0  0  0  0  0
  -30.4830    4.5160    8.7730 C   0  0  0  0  0  0  0  0  0  0  0  0
  -29.1760    5.9710   11.9210 C   0  0  0  0  0  0  0  0  0  0  0  0
  -27.6180    7.1600   13.7150 C   0  0  0  0  0  0  0  0  0  0  0  0
  -29.8570    5.5830    6.7710 C   0  0  0  0  0  0  0  0  0  0  0  0
  -31.6170    9.9680   14.6440 C   0  0  0  0  0  0  0  0  0  0  0  0
  -32.9970    9.4320   15.0120 C   0  0  0  0  0  0  0  0  0  0  0  0
  -34.0570   10.3710   14.4360 C   0  0  0  0  0  0  0  0  0  0  0  0
  -33.1300    9.3980   16.5330 C   0  0  0  0  0  0  0  0  0  0  0  0
  -33.1580    8.0130   14.4340 C   0  0  0  0  0  0  0  0  0  0  0  0
  -32.3880    6.9740   14.9400 C   0  0  0  0  0  0  0  0  0  0  0  0
  -32.5200    5.6890   14.4280 C   0  0  0  0  0  0  0  0  0  0  0  0
  -33.4250    5.4470   13.4100 C   0  0  0  0  0  0  0  0  0  0  0  0
  -34.1960    6.4790   12.8960 C   0  0  0  0  0  0  0  0  0  0  0  0
  -33.5880    3.7550   12.7470 S   0  0  0  0  0  0  0  0  0  0  0  0
  -34.8850    3.1720   13.0950 O   0  0  0  0  0  0  0  0  0  0  0  0
  -32.6580    2.8580   13.4360 O   0  0  0  0  0  0  0  0  0  0  0  0
  -33.3430    3.7500   11.0510 N   0  0  0  0  0  0  0  0  0  0  0  0
  -31.7240    4.0270    9.1930 C   0  0  0  0  0  0  0  0  0  0  0  0
  -29.6950    5.1230    9.6520 N   0  0  0  0  0  0  0  0  0  0  0  0
  -30.0800    5.2750   10.9060 C   0  0  0  0  0  0  0  0  0  0  0  0
  -31.2400    4.8340   11.3440 N   0  0  0  0  0  0  0  0  0  0  0  0
  -29.1130    5.4770   13.1440 N   0  0  0  0  0  0  0  0  0  0  0  0
  -28.3510    6.0350   14.0680 C   0  0  0  0  0  0  0  0  0  0  0  0
  -27.7100    7.6560   12.4200 C   0  0  0  0  0  0  0  0  0  0  0  0
  -28.4950    7.0400   11.5540 N   0  0  0  0  0  0  0  0  0  0  0  0
  -30.0540    4.3670    7.4430 O   0  0  0  0  0  0  0  0  0  0  0  0
  -28.3680    5.9330    6.7940 C   0  0  0  0  0  0  0  0  0  0  0  0
  -28.2490    7.3250    6.6890 O   0  0  0  0  0  0  0  0  0  0  0  0
  -32.6180    3.3820    8.3310 O   0  0  0  0  0  0  0  0  0  0  0  0
  -32.4730    1.9860    8.3510 C   0  0  0  0  0  0  0  0  0  0  0  0
  -31.4420    1.3710    9.0400 C   0  0  0  0  0  0  0  0  0  0  0  0
  -31.3250   -0.0110    9.0320 C   0  0  0  0  0  0  0  0  0  0  0  0
  -32.2410   -0.7860    8.3410 C   0  0  0  0  0  0  0  0  0  0  0  0
  -33.2700   -0.1700    7.6520 C   0  0  0  0  0  0  0  0  0  0  0  0
  -33.3870    1.2090    7.6610 C   0  0  0  0  0  0  0  0  0  0  0  0
  -34.4340    1.8250    6.9750 O   0  0  0  0  0  0  0  0  0  0  0  0
  -34.1960    2.0120    5.6170 C   0  0  0  0  0  0  0  0  0  0  0  0
  -34.6725    8.5854   13.0049 H   0  0  0  0  0  0  0  0  0  0  0  0
  -26.9701    7.6544   14.4538 H   0  0  0  0  0  0  0  0  0  0  0  0
  -30.1967    5.4872    5.7292 H   0  0  0  0  0  0  0  0  0  0  0  0
  -30.4320    6.3781    7.2681 H   0  0  0  0  0  0  0  0  0  0  0  0
  -31.0521   10.1874   15.5620 H   0  0  0  0  0  0  0  0  0  0  0  0
  -31.0767    9.2143   14.0523 H   0  0  0  0  0  0  0  0  0  0  0  0
  -31.7271   10.8888   14.0523 H   0  0  0  0  0  0  0  0  0  0  0  0
  -34.6037   10.8553   15.2585 H   0  0  0  0  0  0  0  0  0  0  0  0
  -33.5694   11.1390   13.8175 H   0  0  0  0  0  0  0  0  0  0  0  0
  -34.7605    9.7944   13.8175 H   0  0  0  0  0  0  0  0  0  0  0  0
  -32.1612    9.6457   16.9914 H   0  0  0  0  0  0  0  0  0  0  0  0
  -33.8847   10.1321   16.8516 H   0  0  0  0  0  0  0  0  0  0  0  0
  -33.4398    8.3918   16.8516 H   0  0  0  0  0  0  0  0  0  0  0  0
  -31.6700    7.1692   15.7502 H   0  0  0  0  0  0  0  0  0  0  0  0
  -31.9079    4.8682   14.8301 H   0  0  0  0  0  0  0  0  0  0  0  0
  -34.9115    6.2813   12.0842 H   0  0  0  0  0  0  0  0  0  0  0  0
  -34.0825    3.4184   10.4153 H   0  0  0  0  0  0  0  0  0  0  0  0
  -28.2990    5.6209   15.0857 H   0  0  0  0  0  0  0  0  0  0  0  0
  -27.1385    8.5470   12.1209 H   0  0  0  0  0  0  0  0  0  0  0  0
  -27.9184    5.5900    7.7375 H   0  0  0  0  0  0  0  0  0  0  0  0
  -27.8467    5.4408    5.9597 H   0  0  0  0  0  0  0  0  0  0  0  0
  -28.2150    7.7226    7.5950 H   0  0  0  0  0  0  0  0  0  0  0  0
  -30.7135    1.9800    9.5954 H   0  0  0  0  0  0  0  0  0  0  0  0
  -30.5005   -0.4937    9.5772 H   0  0  0  0  0  0  0  0  0  0  0  0
  -32.1511   -1.8823    8.3400 H   0  0  0  0  0  0  0  0  0  0  0  0
  -33.9979   -0.7782    7.0950 H   0  0  0  0  0  0  0  0  0  0  0  0
  -33.3373    2.6867    5.4847 H   0  0  0  0  0  0  0  0  0  0  0  0
  -33.9764    1.0424    5.1463 H   0  0  0  0  0  0  0  0  0  0  0  0
  -35.0861    2.4548    5.1463 H   0  0  0  0  0  0  0  0  0  0  0  0
  7  8  1  0
  8  9  1  0
  8 10  1  0
  1 11  2  0
  8 11  1  0
 11 12  1  0
 12 13  2  0
 13 14  1  0
  1 15  1  0
 14 15  2  0
 14 16  1  0
 16 17  2  0
 16 18  2  0
  2 19  1  0
 16 19  1  0
  2 20  1  0
  3 20  2  0
  3 21  1  0
  4 22  1  0
 21 22  2  0
  2 23  2  0
 22 23  1  0
  4 24  2  0
  5 25  2  0
 24 25  1  0
  5 26  1  0
  4 27  1  0
 26 27  2  0
  3 28  1  0
  6 28  1  0
  6 29  1  0
 29 30  1  0
 20 31  1  0
 31 32  1  0
 32 33  2  0
 33 34  1  0
 34 35  2  0
 35 36  1  0
 32 37  1  0
 36 37  2  0
 37 38  1  0
 38 39  1  0
  1 40  1  0
  5 41  1  0
  6 42  1  0
  6 43  1  0
  7 44  1  0
  7 45  1  0
  7 46  1  0
  9 47  1  0
  9 48  1  0
  9 49  1  0
 10 50  1  0
 10 51  1  0
 10 52  1  0
 12 53  1  0
 13 54  1  0
 15 55  1  0
 19 56  1  0
 25 57  1  0
 26 58  1  0
 29 59  1  0
 29 60  1  0
 30 61  1  0
 33 62  1  0
 34 63  1  0
 35 64  1  0
 36 65  1  0
 39 66  1  0
 39 67  1  0
 39 68  1  0
M  END
>  <PDBID>  (1) 
5XPR

>  <PDB ID>  (1) 
5XPR

>  <Generic Name>  (1) 
Bosentan

>  <Brand Name>  (1) 
Accel-bosentan#Act Bosentan#Apo-bosentan#Bosentan Tablets#Ipg-bosentan#Mar-bosentan#Mylan-bosentan#PMS-bosentan#Sandoz Bosentan#Teva-bosentan#Tracleer

>  <DrugBank ID>  (1) 
DB00559

>  <ATC Codes>  (1) 
C02KX01

>  <Ligand ID>  (1) 
K86

>  <Target Name>  (1) 
Endothelin B receptor

>  <UniProt ID>  (1) 
P24530

>  <PDB ID.1>  (1) 
5XPR

>  <Seq. Identity>  (1) 
85%

$$$$
