PDB_DB01394_99
     RDKit          3D

 54 56  0  0  0  0  0  0  0  0999 V2000
  -18.1130   10.7230  -22.1700 O   0  0  0  0  0  0  0  0  0  0  0  0
  -17.6420   11.8620  -22.1690 C   0  0  0  0  0  0  0  0  0  0  0  0
  -17.5060   12.6620  -20.9050 C   0  0  0  0  0  0  0  0  0  0  0  0
  -17.2460   12.4790  -23.3090 N   0  0  0  0  0  0  0  0  0  0  0  0
  -17.3390   11.8390  -24.6130 C   0  0  2  0  0  0  0  0  0  0  0  0
  -16.3010   10.6930  -24.9000 C   0  0  0  0  0  0  0  0  0  0  0  0
  -15.1090   10.8160  -24.2430 C   0  0  0  0  0  0  0  0  0  0  0  0
  -17.4070   12.8740  -25.7490 C   0  0  0  0  0  0  0  0  0  0  0  0
  -17.4270   12.2230  -27.1440 C   0  0  0  0  0  0  0  0  0  0  0  0
  -18.3140   11.0000  -27.2600 C   0  0  0  0  0  0  0  0  0  0  0  0
  -19.4720   11.0720  -28.0270 C   0  0  0  0  0  0  0  0  0  0  0  0
  -20.3560   10.0070  -28.0880 C   0  0  0  0  0  0  0  0  0  0  0  0
  -20.1130    8.8490  -27.3360 C   0  0  0  0  0  0  0  0  0  0  0  0
  -18.9490    8.7510  -26.5610 C   0  0  0  0  0  0  0  0  0  0  0  0
  -18.7450    7.6030  -25.8120 O   0  0  0  0  0  0  0  0  0  0  0  0
  -19.2360    7.6100  -24.4700 C   0  0  0  0  0  0  0  0  0  0  0  0
  -21.0000    7.7910  -27.3950 O   0  0  0  0  0  0  0  0  0  0  0  0
  -20.6110    6.7350  -28.2820 C   0  0  0  0  0  0  0  0  0  0  0  0
  -21.4650    9.9650  -28.8910 O   0  0  0  0  0  0  0  0  0  0  0  0
  -21.8040   11.1490  -29.6200 C   0  0  0  0  0  0  0  0  0  0  0  0
  -18.0120    9.8110  -26.5380 C   0  0  0  0  0  0  0  0  0  0  0  0
  -16.6940    9.6750  -25.8380 C   0  0  0  0  0  0  0  0  0  0  0  0
  -15.9330    8.5770  -26.1720 C   0  0  0  0  0  0  0  0  0  0  0  0
  -14.6560    8.1330  -25.7110 C   0  0  0  0  0  0  0  0  0  0  0  0
  -13.7850    8.7040  -24.8280 C   0  0  0  0  0  0  0  0  0  0  0  0
  -13.9210   10.0060  -24.1400 C   0  0  0  0  0  0  0  0  0  0  0  0
  -12.9670   10.4380  -23.4760 O   0  0  0  0  0  0  0  0  0  0  0  0
  -12.6780    8.0550  -24.3480 O   0  0  0  0  0  0  0  0  0  0  0  0
  -12.1850    6.8880  -25.0490 C   0  0  0  0  0  0  0  0  0  0  0  0
  -17.6191   11.9969  -20.0362 H   0  0  0  0  0  0  0  0  0  0  0  0
  -16.5142   13.1370  -20.8766 H   0  0  0  0  0  0  0  0  0  0  0  0
  -18.2851   13.4380  -20.8766 H   0  0  0  0  0  0  0  0  0  0  0  0
  -16.8658   13.4345  -23.2505 H   0  0  0  0  0  0  0  0  0  0  0  0
  -18.2964   11.2984  -24.5776 H   0  0  0  0  0  0  0  0  0  0  0  0
  -15.0404   11.7458  -23.6592 H   0  0  0  0  0  0  0  0  0  0  0  0
  -18.3221   13.4719  -25.6263 H   0  0  0  0  0  0  0  0  0  0  0  0
  -16.5029   13.4974  -25.6857 H   0  0  0  0  0  0  0  0  0  0  0  0
  -17.7811   12.9728  -27.8668 H   0  0  0  0  0  0  0  0  0  0  0  0
  -16.4002   11.8817  -27.3420 H   0  0  0  0  0  0  0  0  0  0  0  0
  -19.6894   11.9891  -28.5942 H   0  0  0  0  0  0  0  0  0  0  0  0
  -18.3881    7.5979  -23.7693 H   0  0  0  0  0  0  0  0  0  0  0  0
  -19.8361    8.5168  -24.3038 H   0  0  0  0  0  0  0  0  0  0  0  0
  -19.8617    6.7207  -24.3038 H   0  0  0  0  0  0  0  0  0  0  0  0
  -20.2896    5.8624  -27.6945 H   0  0  0  0  0  0  0  0  0  0  0  0
  -21.4652    6.4555  -28.9162 H   0  0  0  0  0  0  0  0  0  0  0  0
  -19.7796    7.0764  -28.9162 H   0  0  0  0  0  0  0  0  0  0  0  0
  -22.0363   11.9602  -28.9143 H   0  0  0  0  0  0  0  0  0  0  0  0
  -20.9547   11.4456  -30.2530 H   0  0  0  0  0  0  0  0  0  0  0  0
  -22.6816   10.9512  -30.2530 H   0  0  0  0  0  0  0  0  0  0  0  0
  -16.3908    7.9245  -26.9301 H   0  0  0  0  0  0  0  0  0  0  0  0
  -14.3198    7.1759  -26.1363 H   0  0  0  0  0  0  0  0  0  0  0  0
  -11.8648    6.1299  -24.3191 H   0  0  0  0  0  0  0  0  0  0  0  0
  -12.9852    6.4742  -25.6802 H   0  0  0  0  0  0  0  0  0  0  0  0
  -11.3305    7.1732  -25.6802 H   0  0  0  0  0  0  0  0  0  0  0  0
  1  2  2  0
  2  3  1  0
  2  4  1  0
  4  5  1  0
  5  6  1  0
  6  7  2  0
  5  8  1  0
  8  9  1  0
  9 10  1  0
 10 11  1  0
 11 12  2  0
 12 13  1  0
 13 14  2  0
 14 15  1  0
 15 16  1  0
 13 17  1  0
 17 18  1  0
 12 19  1  0
 19 20  1  0
 10 21  2  0
 14 21  1  0
  6 22  1  0
 21 22  1  0
 22 23  2  0
 23 24  1  0
 24 25  2  0
  7 26  1  0
 25 26  1  0
 26 27  2  0
 25 28  1  0
 28 29  1  0
  3 30  1  0
  3 31  1  0
  3 32  1  0
  4 33  1  0
  5 34  1  1
  7 35  1  0
  8 36  1  0
  8 37  1  0
  9 38  1  0
  9 39  1  0
 11 40  1  0
 16 41  1  0
 16 42  1  0
 16 43  1  0
 18 44  1  0
 18 45  1  0
 18 46  1  0
 20 47  1  0
 20 48  1  0
 20 49  1  0
 23 50  1  0
 24 51  1  0
 29 52  1  0
 29 53  1  0
 29 54  1  0
M  END
>  <PDBID>  (1) 
5EYP

>  <PDB ID>  (1) 
5EYP

>  <Generic Name>  (1) 
Colchicine

>  <Brand Name>  (1) 
Colchicine#Colchicine Tab 0.6mg#Colchicine Tab 1mg#Colcrys#Euro-colchicine#Jamp-colchicine#Mitigare#PMS-colchicine#Probenecid and Colchicine#Verban Ont

>  <DrugBank ID>  (1) 
DB01394

>  <ATC Codes>  (1) 
M04AC01

>  <Ligand ID>  (1) 
LOC

>  <Target Name>  (1) 
Tubulin beta-1 chain

>  <UniProt ID>  (1) 
Q9H4B7

>  <PDB ID.1>  (1) 
5EYP

>  <Seq. Identity>  (1) 
78%

$$$$
