PDB_DB01199_94
     RDKit          3D

 86 92  0  0  0  0  0  0  0  0999 V2000
    8.1730    1.3990   -7.9840 C   0  0  0  0  0  0  0  0  0  0  0  0
    7.6050    2.3430   -7.1150 C   0  0  0  0  0  0  0  0  0  0  0  0
    6.2410    2.2950   -6.7990 C   0  0  0  0  0  0  0  0  0  0  0  0
    5.4340    1.3100   -7.3080 C   0  0  0  0  0  0  0  0  0  0  0  0
    6.0210    0.3170   -8.1780 C   0  0  0  0  0  0  0  0  0  0  0  0
    7.3560    0.3680   -8.4970 C   0  0  0  0  0  0  0  0  0  0  0  0
    4.0560    1.4320   -6.8160 C   0  0  1  0  0  0  0  0  0  0  0  0
    3.1940    0.5270   -7.5990 N   0  0  0  0  0  0  0  0  0  0  0  0
    3.8730   -0.7000   -8.1060 C   0  0  0  0  0  0  0  0  0  0  0  0
    5.0490   -0.4600   -9.0630 C   0  0  0  0  0  0  0  0  0  0  0  0
    6.7270    3.2100    0.5220 C   0  0  0  0  0  0  0  0  0  0  0  0
    6.4930    4.0370    1.6860 C   0  0  0  0  0  0  0  0  0  0  0  0
    6.8570    5.3780    1.6730 C   0  0  0  0  0  0  0  0  0  0  0  0
    7.4830    5.8710    0.5400 C   0  0  0  0  0  0  0  0  0  0  0  0
    7.7310    5.0720   -0.5640 C   0  0  0  0  0  0  0  0  0  0  0  0
    7.3150    3.7420   -0.5790 C   0  0  0  0  0  0  0  0  0  0  0  0
    7.8980    7.3130    0.5390 C   0  0  0  0  0  0  0  0  0  0  0  0
    8.8600    7.7510   -0.5690 C   0  0  0  0  0  0  0  0  0  0  0  0
    8.2830    5.8170   -1.7320 C   0  0  2  0  0  0  0  0  0  0  0  0
    8.3490    3.4510   -6.5140 O   0  0  0  0  0  0  0  0  0  0  0  0
    8.3610    4.9910   -6.5620 C   0  0  0  0  0  0  0  0  0  0  0  0
    4.0260    0.7410   -5.4250 C   0  0  0  0  0  0  0  0  0  0  0  0
    4.9790    1.3090   -4.3890 C   0  0  0  0  0  0  0  0  0  0  0  0
    8.3420    4.8310   -5.1640 C   0  0  0  0  0  0  0  0  0  0  0  0
    7.9270    5.8600   -4.3560 C   0  0  0  0  0  0  0  0  0  0  0  0
    7.5420    7.0850   -4.9150 C   0  0  0  0  0  0  0  0  0  0  0  0
    7.5550    7.2730   -6.2870 C   0  0  0  0  0  0  0  0  0  0  0  0
    7.9870    6.2270   -7.1140 C   0  0  0  0  0  0  0  0  0  0  0  0
    4.5530    2.3330   -3.5450 C   0  0  0  0  0  0  0  0  0  0  0  0
    5.3850    2.8870   -2.5910 C   0  0  0  0  0  0  0  0  0  0  0  0
    7.1550    1.3880   -3.3760 C   0  0  0  0  0  0  0  0  0  0  0  0
    6.2810    0.8180   -4.2840 C   0  0  0  0  0  0  0  0  0  0  0  0
    7.5610    2.8660   -1.6170 O   0  0  0  0  0  0  0  0  0  0  0  0
    8.1370    5.0450   -3.0490 C   0  0  0  0  0  0  0  0  0  0  0  0
    5.8590    3.4410    2.7240 O   0  0  0  0  0  0  0  0  0  0  0  0
    9.5560    1.4000   -8.3940 O   0  0  0  0  0  0  0  0  0  0  0  0
    7.9040    6.3860   -8.5320 O   0  0  0  0  0  0  0  0  0  0  0  0
    6.6870    2.3900   -2.5380 C   0  0  0  0  0  0  0  0  0  0  0  0
   10.5950    5.9790   -0.8760 C   0  0  0  0  0  0  0  0  0  0  0  0
    9.9000    7.4640   -2.6050 C   0  0  0  0  0  0  0  0  0  0  0  0
    2.5280    1.2240   -8.6980 C   0  0  0  0  0  0  0  0  0  0  0  0
    6.2990    1.9230    0.5500 O   0  0  0  0  0  0  0  0  0  0  0  0
    5.4190    4.2600    3.8170 C   0  0  0  0  0  0  0  0  0  0  0  0
   10.0270    0.2850   -9.1810 C   0  0  0  0  0  0  0  0  0  0  0  0
    9.4380    6.6960   -1.4300 N   0  0  0  0  0  0  0  0  0  0  0  0
    5.8113    3.0581   -6.1333 H   0  0  0  0  0  0  0  0  0  0  0  0
    7.7909   -0.3983   -9.1555 H   0  0  0  0  0  0  0  0  0  0  0  0
    3.7466    2.4872   -6.8432 H   0  0  0  0  0  0  0  0  0  0  0  0
    4.2517   -1.2602   -7.2384 H   0  0  0  0  0  0  0  0  0  0  0  0
    3.1157   -1.2433   -8.6903 H   0  0  0  0  0  0  0  0  0  0  0  0
    4.7400    0.1341   -9.9357 H   0  0  0  0  0  0  0  0  0  0  0  0
    5.4732   -1.3824   -9.4863 H   0  0  0  0  0  0  0  0  0  0  0  0
    6.6541    6.0285    2.5365 H   0  0  0  0  0  0  0  0  0  0  0  0
    6.9865    7.9221    0.4490 H   0  0  0  0  0  0  0  0  0  0  0  0
    8.4543    7.4544    1.4774 H   0  0  0  0  0  0  0  0  0  0  0  0
    8.3141    8.4471   -1.2228 H   0  0  0  0  0  0  0  0  0  0  0  0
    9.7216    8.1812   -0.0373 H   0  0  0  0  0  0  0  0  0  0  0  0
    7.6343    6.6649   -1.9969 H   0  0  0  0  0  0  0  0  0  0  0  0
    3.0040    0.8259   -5.0271 H   0  0  0  0  0  0  0  0  0  0  0  0
    4.3520   -0.2954   -5.5971 H   0  0  0  0  0  0  0  0  0  0  0  0
    8.6609    3.8778   -4.7171 H   0  0  0  0  0  0  0  0  0  0  0  0
    7.2256    7.9074   -4.2566 H   0  0  0  0  0  0  0  0  0  0  0  0
    7.2308    8.2300   -6.7218 H   0  0  0  0  0  0  0  0  0  0  0  0
    3.5245    2.7112   -3.6411 H   0  0  0  0  0  0  0  0  0  0  0  0
    5.0388    3.6780   -1.9095 H   0  0  0  0  0  0  0  0  0  0  0  0
    8.2013    1.0533   -3.3193 H   0  0  0  0  0  0  0  0  0  0  0  0
    6.6103   -0.0173   -4.9195 H   0  0  0  0  0  0  0  0  0  0  0  0
    9.0510    4.4471   -3.1802 H   0  0  0  0  0  0  0  0  0  0  0  0
    7.2043    4.4741   -2.9296 H   0  0  0  0  0  0  0  0  0  0  0  0
    7.6400    7.2588   -8.9176 H   0  0  0  0  0  0  0  0  0  0  0  0
   10.5514    6.0060    0.2228 H   0  0  0  0  0  0  0  0  0  0  0  0
   10.5767    4.9337   -1.2181 H   0  0  0  0  0  0  0  0  0  0  0  0
   11.5229    6.4606   -1.2181 H   0  0  0  0  0  0  0  0  0  0  0  0
   10.4397    8.3611   -2.2676 H   0  0  0  0  0  0  0  0  0  0  0  0
   10.5717    6.8383   -3.2110 H   0  0  0  0  0  0  0  0  0  0  0  0
    9.0325    7.7642   -3.2110 H   0  0  0  0  0  0  0  0  0  0  0  0
    1.8223    1.9625   -8.2897 H   0  0  0  0  0  0  0  0  0  0  0  0
    3.2796    1.7375   -9.3156 H   0  0  0  0  0  0  0  0  0  0  0  0
    1.9809    0.4965   -9.3156 H   0  0  0  0  0  0  0  0  0  0  0  0
    6.4462    1.3352   -0.2329 H   0  0  0  0  0  0  0  0  0  0  0  0
    5.6804    3.7734    4.7682 H   0  0  0  0  0  0  0  0  0  0  0  0
    5.9108    5.2423    3.7603 H   0  0  0  0  0  0  0  0  0  0  0  0
    4.3284    4.3922    3.7603 H   0  0  0  0  0  0  0  0  0  0  0  0
   10.3666   -0.5189   -8.5114 H   0  0  0  0  0  0  0  0  0  0  0  0
    9.2093   -0.0873   -9.8156 H   0  0  0  0  0  0  0  0  0  0  0  0
   10.8640    0.6117   -9.8156 H   0  0  0  0  0  0  0  0  0  0  0  0
  1  2  2  0
  2  3  1  0
  3  4  2  0
  4  5  1  0
  1  6  1  0
  5  6  2  0
  4  7  1  0
  7  8  1  0
  8  9  1  0
  5 10  1  0
  9 10  1  0
 11 12  1  0
 12 13  2  0
 13 14  1  0
 14 15  2  0
 11 16  2  0
 15 16  1  0
 14 17  1  0
 17 18  1  0
 15 19  1  0
  2 20  1  0
 20 21  1  0
  7 22  1  0
 22 23  1  0
 21 24  2  0
 24 25  1  0
 25 26  2  0
 26 27  1  0
 21 28  1  0
 27 28  2  0
 23 29  2  0
 29 30  1  0
 23 32  1  0
 31 32  2  0
 16 33  1  0
 19 34  1  0
 25 34  1  0
 12 35  1  0
  1 36  1  0
 28 37  1  0
 30 38  2  0
 31 38  1  0
 33 38  1  0
  8 41  1  0
 11 42  1  0
 35 43  1  0
 36 44  1  0
 18 45  1  0
 19 45  1  0
 39 45  1  0
 40 45  1  0
  3 46  1  0
  6 47  1  0
  7 48  1  1
  9 49  1  0
  9 50  1  0
 10 51  1  0
 10 52  1  0
 13 53  1  0
 17 54  1  0
 17 55  1  0
 18 56  1  0
 18 57  1  0
 19 58  1  6
 22 59  1  0
 22 60  1  0
 24 61  1  0
 26 62  1  0
 27 63  1  0
 29 64  1  0
 30 65  1  0
 31 66  1  0
 32 67  1  0
 34 68  1  0
 34 69  1  0
 37 70  1  0
 39 71  1  0
 39 72  1  0
 39 73  1  0
 40 74  1  0
 40 75  1  0
 40 76  1  0
 41 77  1  0
 41 78  1  0
 41 79  1  0
 42 80  1  0
 43 81  1  0
 43 82  1  0
 43 83  1  0
 44 84  1  0
 44 85  1  0
 44 86  1  0
M  CHG  1  45   1
M  END
>  <PDBID>  (1) 
3PMZ

>  <PDB ID>  (1) 
3PMZ

>  <Generic Name>  (1) 
Tubocurarine

>  <Brand Name>  (1) 
Tubocurarine Chloride Inj 3mg/ml#Tubocurarine Chloride Inj 3mg/ml USP#Tubarine

>  <DrugBank ID>  (1) 
DB01199

>  <ATC Codes>  (1) 
M03AA02

>  <Ligand ID>  (1) 
TC9,TUB

>  <Target Name>  (1) 
Neuronal acetylcholine receptor subunit alpha-2

>  <UniProt ID>  (1) 
Q15822

>  <PDB ID.1>  (1) 
3PMZ

>  <Seq. Identity>  (1) 
30%

$$$$
