PDB_DB00382_95
     RDKit          3D

 29 31  0  0  0  0  0  0  0  0999 V2000
   -5.6460   29.4530   30.9600 C   0  0  0  0  0  0  0  0  0  0  0  0
   -6.1740   28.9270   29.7570 C   0  0  0  0  0  0  0  0  0  0  0  0
   -7.3960   29.4220   29.2370 C   0  0  0  0  0  0  0  0  0  0  0  0
   -8.1250   30.4970   29.9560 C   0  0  0  0  0  0  0  0  0  0  0  0
   -7.5460   30.9970   31.1730 C   0  0  0  0  0  0  0  0  0  0  0  0
   -6.3240   30.4760   31.6620 C   0  0  0  0  0  0  0  0  0  0  0  0
   -7.8740   28.9080   28.1020 N   0  0  0  0  0  0  0  0  0  0  0  0
   -9.0160   29.3120   27.5390 C   0  0  0  0  0  0  0  0  0  0  0  0
   -9.8290   30.3610   28.1400 C   0  0  0  0  0  0  0  0  0  0  0  0
   -9.3640   30.9580   29.3730 C   0  0  0  0  0  0  0  0  0  0  0  0
   -9.4390   28.6070   26.2080 C   0  0  0  0  0  0  0  0  0  0  0  0
  -10.5890   29.2990   25.4040 C   0  0  0  0  0  0  0  0  0  0  0  0
  -11.7250   29.7690   26.3530 C   0  0  0  0  0  0  0  0  0  0  0  0
  -11.1720   30.7810   27.4060 C   0  0  0  0  0  0  0  0  0  0  0  0
  -10.0960   31.9350   29.9570 N   0  0  0  0  0  0  0  0  0  0  0  0
   -5.5480   28.6068   31.6560 H   0  0  0  0  0  0  0  0  0  0  0  0
   -4.7269   29.9554   30.6240 H   0  0  0  0  0  0  0  0  0  0  0  0
   -5.4117   29.0871   28.9803 H   0  0  0  0  0  0  0  0  0  0  0  0
   -6.4184   27.8883   30.0242 H   0  0  0  0  0  0  0  0  0  0  0  0
   -7.3906   32.0760   31.0262 H   0  0  0  0  0  0  0  0  0  0  0  0
   -8.2703   30.6780   31.9369 H   0  0  0  0  0  0  0  0  0  0  0  0
   -6.5295   30.0838   32.6689 H   0  0  0  0  0  0  0  0  0  0  0  0
   -5.6384   31.3316   31.5737 H   0  0  0  0  0  0  0  0  0  0  0  0
   -8.9575   27.6817   25.8589 H   0  0  0  0  0  0  0  0  0  0  0  0
  -10.5925   29.4345   24.3124 H   0  0  0  0  0  0  0  0  0  0  0  0
  -12.7716   29.4360   26.2920 H   0  0  0  0  0  0  0  0  0  0  0  0
  -11.6835   31.7296   27.6261 H   0  0  0  0  0  0  0  0  0  0  0  0
  -10.9764   32.2479   29.5235 H   0  0  0  0  0  0  0  0  0  0  0  0
   -9.7728   32.3657   30.8350 H   0  0  0  0  0  0  0  0  0  0  0  0
  1  2  1  0
  2  3  1  0
  3  4  2  0
  4  5  1  0
  1  6  1  0
  5  6  1  0
  3  7  1  0
  7  8  2  0
  8  9  1  0
  4 10  1  0
  9 10  2  0
  8 11  1  0
 11 12  2  0
 12 13  1  0
  9 14  1  0
 13 14  2  0
 10 15  1  0
  1 16  1  0
  1 17  1  0
  2 18  1  0
  2 19  1  0
  5 20  1  0
  5 21  1  0
  6 22  1  0
  6 23  1  0
 11 24  1  0
 12 25  1  0
 13 26  1  0
 14 27  1  0
 15 28  1  0
 15 29  1  0
M  END
$$$$
