PDB_DB00523_92
     RDKit          3D

 50 50  0  0  0  0  0  0  0  0999 V2000
   22.5470   28.9750  102.9320 C   0  0  0  0  0  0  0  0  0  0  0  0
   22.5470   27.4810  103.4380 C   0  0  0  0  0  0  0  0  0  0  0  0
   21.2420   26.8780  103.9700 C   0  0  0  0  0  0  0  0  0  0  0  0
   20.0690   27.1090  103.0550 C   0  0  0  0  0  0  0  0  0  0  0  0
   19.9620   28.4920  102.3810 C   0  0  0  0  0  0  0  0  0  0  0  0
   21.0870   29.3770  102.3090 C   0  0  0  0  0  0  0  0  0  0  0  0
   21.0780   30.7410  101.6580 C   0  0  0  0  0  0  0  0  0  0  0  0
   20.2050   31.7740  101.6980 C   0  0  0  0  0  0  0  0  0  0  0  0
   20.2130   33.0640  101.0850 C   0  0  0  0  0  0  0  0  0  0  0  0
   19.1900   33.9210  101.3180 C   0  0  0  0  0  0  0  0  0  0  0  0
   17.9640   33.7980  102.1000 C   0  0  0  0  0  0  0  0  0  0  0  0
   17.0800   34.7660  102.2670 C   0  0  0  0  0  0  0  0  0  0  0  0
   15.8030   34.6060  103.0220 C   0  0  0  0  0  0  0  0  0  0  0  0
   15.0870   35.6900  103.0870 C   0  0  0  0  0  0  0  0  0  0  0  0
   13.8010   36.0880  103.6760 C   0  0  0  0  0  0  0  0  0  0  0  0
   23.7350   29.0130  101.9230 C   0  0  0  0  0  0  0  0  0  0  0  0
   22.9610   29.8680  104.0910 C   0  0  0  0  0  0  0  0  0  0  0  0
   18.5220   28.6120  101.8900 C   0  0  0  0  0  0  0  0  0  0  0  0
   21.3650   33.4670  100.2040 C   0  0  0  0  0  0  0  0  0  0  0  0
   15.3970   33.2960  103.6410 C   0  0  0  0  0  0  0  0  0  0  0  0
   13.0250   36.7060  102.8640 O   0  0  0  0  0  0  0  0  0  0  0  0
   13.4800   35.8340  104.9220 O   0  0  0  0  0  0  0  0  0  0  0  0
   22.8713   26.8545  102.5940 H   0  0  0  0  0  0  0  0  0  0  0  0
   23.2075   27.4997  104.3174 H   0  0  0  0  0  0  0  0  0  0  0  0
   21.3818   25.7939  104.0932 H   0  0  0  0  0  0  0  0  0  0  0  0
   21.0162   27.3751  104.9249 H   0  0  0  0  0  0  0  0  0  0  0  0
   20.1191   26.3546  102.2560 H   0  0  0  0  0  0  0  0  0  0  0  0
   19.1846   27.0417  103.7056 H   0  0  0  0  0  0  0  0  0  0  0  0
   21.9571   30.9322  101.0250 H   0  0  0  0  0  0  0  0  0  0  0  0
   19.3195   31.5838  102.3222 H   0  0  0  0  0  0  0  0  0  0  0  0
   19.3056   34.8965  100.8229 H   0  0  0  0  0  0  0  0  0  0  0  0
   17.7615   32.8315  102.5846 H   0  0  0  0  0  0  0  0  0  0  0  0
   17.2986   35.7483  101.8229 H   0  0  0  0  0  0  0  0  0  0  0  0
   15.5709   36.5282  102.5642 H   0  0  0  0  0  0  0  0  0  0  0  0
   24.6852   29.0434  102.4763 H   0  0  0  0  0  0  0  0  0  0  0  0
   23.7077   28.1135  101.2904 H   0  0  0  0  0  0  0  0  0  0  0  0
   23.6503   29.9089  101.2904 H   0  0  0  0  0  0  0  0  0  0  0  0
   22.7283   29.3662  105.0418 H   0  0  0  0  0  0  0  0  0  0  0  0
   24.0419   30.0642  104.0348 H   0  0  0  0  0  0  0  0  0  0  0  0
   22.4122   30.8197  104.0348 H   0  0  0  0  0  0  0  0  0  0  0  0
   17.8435   28.6685  102.7540 H   0  0  0  0  0  0  0  0  0  0  0  0
   18.4169   29.5220  101.2811 H   0  0  0  0  0  0  0  0  0  0  0  0
   18.2677   27.7319  101.2811 H   0  0  0  0  0  0  0  0  0  0  0  0
   22.2186   33.7656  100.8303 H   0  0  0  0  0  0  0  0  0  0  0  0
   21.6557   32.6172   99.5689 H   0  0  0  0  0  0  0  0  0  0  0  0
   21.0626   34.3127   99.5689 H   0  0  0  0  0  0  0  0  0  0  0  0
   15.4244   33.3843  104.7371 H   0  0  0  0  0  0  0  0  0  0  0  0
   14.3770   33.0389  103.3192 H   0  0  0  0  0  0  0  0  0  0  0  0
   16.0928   32.5071  103.3192 H   0  0  0  0  0  0  0  0  0  0  0  0
   12.1350   37.0149  103.1682 H   0  0  0  0  0  0  0  0  0  0  0  0
  1  2  1  0
  2  3  1  0
  3  4  1  0
  4  5  1  0
  1  6  1  0
  5  6  2  0
  6  7  1  0
  7  8  2  0
  8  9  1  0
  9 10  2  0
 10 11  1  0
 11 12  2  0
 12 13  1  0
 13 14  2  0
 14 15  1  0
  1 16  1  0
  1 17  1  0
  5 18  1  0
  9 19  1  0
 13 20  1  0
 15 21  1  0
 15 22  2  0
  2 23  1  0
  2 24  1  0
  3 25  1  0
  3 26  1  0
  4 27  1  0
  4 28  1  0
  7 29  1  0
  8 30  1  0
 10 31  1  0
 11 32  1  0
 12 33  1  0
 14 34  1  0
 16 35  1  0
 16 36  1  0
 16 37  1  0
 17 38  1  0
 17 39  1  0
 17 40  1  0
 18 41  1  0
 18 42  1  0
 18 43  1  0
 19 44  1  0
 19 45  1  0
 19 46  1  0
 20 47  1  0
 20 48  1  0
 20 49  1  0
 21 50  1  0
M  END
$$$$
