PDB_DB00136_99
     RDKit          3D

 80 82  0  0  0  0  0  0  0  0999 V2000
   16.9800   17.5100   34.6530 O   0  0  0  0  0  0  0  0  0  0  0  0
    4.6030   26.3090   34.8340 O   0  0  0  0  0  0  0  0  0  0  0  0
   14.1900   17.4070   35.5340 C   0  0  1  0  0  0  0  0  0  0  0  0
   14.8850   16.3260   34.6780 C   0  0  0  0  0  0  0  0  0  0  0  0
   15.9770   17.0020   33.7970 C   0  0  1  0  0  0  0  0  0  0  0  0
   15.3640   18.1640   33.0050 C   0  0  0  0  0  0  0  0  0  0  0  0
   14.5540   19.1610   33.7870 C   0  0  1  0  0  0  0  0  0  0  0  0
   14.7020   20.4720   33.4950 C   0  0  0  0  0  0  0  0  0  0  0  0
   14.0990   21.6380   34.1650 C   0  0  0  0  0  0  0  0  0  0  0  0
   13.8420   22.8600   33.6810 C   0  0  0  0  0  0  0  0  0  0  0  0
   14.1920   23.3060   32.2700 C   0  0  0  0  0  0  0  0  0  0  0  0
   13.6120   18.5750   34.7620 C   0  0  1  0  0  0  0  0  0  0  0  0
   12.8740   23.6780   31.5580 C   0  0  0  0  0  0  0  0  0  0  0  0
   12.0280   24.6670   32.4050 C   0  0  0  0  0  0  0  0  0  0  0  0
   11.7400   24.1920   33.8560 C   0  0  1  0  0  0  0  0  0  0  0  0
   13.1630   23.9190   34.4800 C   0  0  1  0  0  0  0  0  0  0  0  0
   12.9450   23.7500   35.9730 C   0  0  0  0  0  0  0  0  0  0  0  0
   11.7720   24.7360   36.1940 C   0  0  0  0  0  0  0  0  0  0  0  0
   11.2500   25.2820   34.8340 C   0  0  2  0  0  0  0  0  0  0  0  0
   10.8410   22.9170   33.8900 C   0  0  0  0  0  0  0  0  0  0  0  0
   12.2960   18.9620   34.8400 C   0  0  0  0  0  0  0  0  0  0  0  0
    9.7230   25.5380   34.9110 C   0  0  1  0  0  0  0  0  0  0  0  0
    9.4280   26.5180   36.1020 C   0  0  0  0  0  0  0  0  0  0  0  0
    9.0600   25.8970   33.6160 C   0  0  0  0  0  0  0  0  0  0  0  0
    7.4920   26.0950   33.8050 C   0  0  0  0  0  0  0  0  0  0  0  0
    6.5730   24.9620   34.2050 C   0  0  0  0  0  0  0  0  0  0  0  0
    5.0440   25.2150   34.0620 C   0  0  2  0  0  0  0  0  0  0  0  0
    4.6470   25.4180   32.6280 C   0  0  0  0  0  0  0  0  0  0  0  0
    4.2480   24.0530   34.6660 C   0  0  0  0  0  0  0  0  0  0  0  0
   13.2270   16.8630   36.4060 O   0  0  0  0  0  0  0  0  0  0  0  0
   16.7098   17.3732   35.5955 H   0  0  0  0  0  0  0  0  0  0  0  0
    4.6909   26.0910   35.7957 H   0  0  0  0  0  0  0  0  0  0  0  0
   15.0132   17.8288   36.1293 H   0  0  0  0  0  0  0  0  0  0  0  0
   15.3524   15.5786   35.3360 H   0  0  0  0  0  0  0  0  0  0  0  0
   14.1444   15.8279   34.0351 H   0  0  0  0  0  0  0  0  0  0  0  0
   16.3970   16.2683   33.0932 H   0  0  0  0  0  0  0  0  0  0  0  0
   16.1880   18.7095   32.5219 H   0  0  0  0  0  0  0  0  0  0  0  0
   14.6526   17.6959   32.3087 H   0  0  0  0  0  0  0  0  0  0  0  0
   15.3622   19.2352   34.5296 H   0  0  0  0  0  0  0  0  0  0  0  0
   15.7860   20.6476   33.5596 H   0  0  0  0  0  0  0  0  0  0  0  0
   14.1093   20.4966   32.5687 H   0  0  0  0  0  0  0  0  0  0  0  0
   13.1216   21.2740   34.5146 H   0  0  0  0  0  0  0  0  0  0  0  0
   14.9558   21.9055   34.8008 H   0  0  0  0  0  0  0  0  0  0  0  0
   14.8244   23.2065   34.0342 H   0  0  0  0  0  0  0  0  0  0  0  0
   14.8580   24.1807   32.3074 H   0  0  0  0  0  0  0  0  0  0  0  0
   14.7104   22.5014   31.7278 H   0  0  0  0  0  0  0  0  0  0  0  0
   13.9801   19.2672   35.5336 H   0  0  0  0  0  0  0  0  0  0  0  0
   13.1101   24.1469   30.5914 H   0  0  0  0  0  0  0  0  0  0  0  0
   12.2880   22.7581   31.4148 H   0  0  0  0  0  0  0  0  0  0  0  0
   12.5689   25.6234   32.4579 H   0  0  0  0  0  0  0  0  0  0  0  0
   11.0521   24.7509   31.9045 H   0  0  0  0  0  0  0  0  0  0  0  0
   13.9017   24.7315   34.4153 H   0  0  0  0  0  0  0  0  0  0  0  0
   12.6631   22.7180   36.2290 H   0  0  0  0  0  0  0  0  0  0  0  0
   13.8327   23.9438   36.5930 H   0  0  0  0  0  0  0  0  0  0  0  0
   10.9538   24.2138   36.7116 H   0  0  0  0  0  0  0  0  0  0  0  0
   12.1294   25.5809   36.8010 H   0  0  0  0  0  0  0  0  0  0  0  0
   11.6173   26.2679   34.5128 H   0  0  0  0  0  0  0  0  0  0  0  0
   10.6428   22.6359   34.9348 H   0  0  0  0  0  0  0  0  0  0  0  0
    9.8892   23.1257   33.3796 H   0  0  0  0  0  0  0  0  0  0  0  0
   11.3573   22.0906   33.3796 H   0  0  0  0  0  0  0  0  0  0  0  0
   12.0013   19.0487   35.8962 H   0  0  0  0  0  0  0  0  0  0  0  0
   12.1699   19.9352   34.3431 H   0  0  0  0  0  0  0  0  0  0  0  0
   11.6632   18.2119   34.3431 H   0  0  0  0  0  0  0  0  0  0  0  0
    9.2345   24.5760   35.1251 H   0  0  0  0  0  0  0  0  0  0  0  0
    9.5858   25.9936   37.0560 H   0  0  0  0  0  0  0  0  0  0  0  0
   10.1058   27.3823   36.0421 H   0  0  0  0  0  0  0  0  0  0  0  0
    8.3857   26.8645   36.0421 H   0  0  0  0  0  0  0  0  0  0  0  0
    9.4964   26.8331   33.2374 H   0  0  0  0  0  0  0  0  0  0  0  0
    9.2229   25.0755   32.9029 H   0  0  0  0  0  0  0  0  0  0  0  0
    7.3726   26.8717   34.5747 H   0  0  0  0  0  0  0  0  0  0  0  0
    7.1642   26.2988   32.7749 H   0  0  0  0  0  0  0  0  0  0  0  0
    6.8262   24.0921   33.5812 H   0  0  0  0  0  0  0  0  0  0  0  0
    6.7419   24.8211   35.2828 H   0  0  0  0  0  0  0  0  0  0  0  0
    3.6683   25.9184   32.5858 H   0  0  0  0  0  0  0  0  0  0  0  0
    5.3998   26.0418   32.1239 H   0  0  0  0  0  0  0  0  0  0  0  0
    4.5820   24.4425   32.1239 H   0  0  0  0  0  0  0  0  0  0  0  0
    4.2885   24.1122   35.7637 H   0  0  0  0  0  0  0  0  0  0  0  0
    3.2011   24.1140   34.3339 H   0  0  0  0  0  0  0  0  0  0  0  0
    4.6830   23.0988   34.3339 H   0  0  0  0  0  0  0  0  0  0  0  0
   13.5045   17.0198   37.3433 H   0  0  0  0  0  0  0  0  0  0  0  0
  3  4  1  0
  1  5  1  0
  4  5  1  0
  5  6  1  0
  6  7  1  0
  7  8  1  0
  8  9  1  0
  9 10  1  0
 10 11  1  0
  3 12  1  0
  7 12  1  0
 11 13  1  0
 13 14  1  0
 14 15  1  0
 10 16  1  0
 15 16  1  0
 16 17  1  0
 17 18  1  0
 15 19  1  0
 18 19  1  0
 15 20  1  6
 12 21  1  0
 19 22  1  0
 22 23  1  0
 22 24  1  0
 24 25  1  0
 25 26  1  0
 27  2  1  1
 26 27  1  0
 27 28  1  0
 27 29  1  0
  3 30  1  0
  1 31  1  0
  2 32  1  0
  3 33  1  1
  4 34  1  0
  4 35  1  0
  5 36  1  6
  6 37  1  0
  6 38  1  0
  7 39  1  1
  8 40  1  0
  8 41  1  0
  9 42  1  0
  9 43  1  0
 10 44  1  0
 11 45  1  0
 11 46  1  0
 12 47  1  1
 13 48  1  0
 13 49  1  0
 14 50  1  0
 14 51  1  0
 16 52  1  1
 17 53  1  0
 17 54  1  0
 18 55  1  0
 18 56  1  0
 19 57  1  6
 20 58  1  0
 20 59  1  0
 20 60  1  0
 21 61  1  0
 21 62  1  0
 21 63  1  0
 22 64  1  1
 23 65  1  0
 23 66  1  0
 23 67  1  0
 24 68  1  0
 24 69  1  0
 25 70  1  0
 25 71  1  0
 26 72  1  0
 26 73  1  0
 28 74  1  0
 28 75  1  0
 28 76  1  0
 29 77  1  0
 29 78  1  0
 29 79  1  0
 30 80  1  0
M  END
>  <PDBID>  (1) 
1IE9

>  <PDB ID>  (1) 
1IE9

>  <Generic Name>  (1) 
Calcitriol

>  <Brand Name>  (1) 
Calcijex#Calcitriol#Calcitriol Injection#Calcitriol Injection USP#Calcitriol-odan#Rocaltrol#Rocaltrol Cap 0.25mcg#Rocaltrol Cap 0.5mcg#Rocaltrol Oral Solution 1mcg/ml#Silkis#Vectical#Calcitriol Oral Solution#Decostriol

>  <DrugBank ID>  (1) 
DB00136

>  <ATC Codes>  (1) 
A11CC04#D05AX03

>  <Ligand ID>  (1) 
VDX

>  <Target Name>  (1) 
Vitamin D3 receptor

>  <UniProt ID>  (1) 
P11473

>  <PDB ID.1>  (1) 
1IE9

>  <Seq. Identity>  (1) 
84%

$$$$
