PDB_DB02546_95
     RDKit          3D

 39 39  0  0  0  0  0  0  0  0999 V2000
   14.0320   43.6190   29.7590 O   0  0  0  0  0  0  0  0  0  0  0  0
   15.5940   42.6470   27.8060 O   0  0  0  0  0  0  0  0  0  0  0  0
   14.9210   42.5660   29.9370 N   0  0  0  0  0  0  0  0  0  0  0  0
   15.6620   42.1500   28.9160 C   0  0  0  0  0  0  0  0  0  0  0  0
   16.6000   41.0000   29.1930 C   0  0  0  0  0  0  0  0  0  0  0  0
   15.8030   39.7120   29.0670 C   0  0  0  0  0  0  0  0  0  0  0  0
   16.6590   38.5000   29.3960 C   0  0  0  0  0  0  0  0  0  0  0  0
   15.9490   37.2390   28.9280 C   0  0  0  0  0  0  0  0  0  0  0  0
   16.6520   35.9930   29.4480 C   0  0  0  0  0  0  0  0  0  0  0  0
   16.0000   34.7310   28.9000 C   0  0  0  0  0  0  0  0  0  0  0  0
   16.3330   34.5590   27.4330 C   0  0  0  0  0  0  0  0  0  0  0  0
   15.7080   35.1780   26.5850 O   0  0  0  0  0  0  0  0  0  0  0  0
   17.3360   33.7120   27.1950 N   0  0  0  0  0  0  0  0  0  0  0  0
   17.8560   33.3340   25.9430 C   0  0  0  0  0  0  0  0  0  0  0  0
   17.2010   33.5980   24.7420 C   0  0  0  0  0  0  0  0  0  0  0  0
   17.7500   33.1880   23.5330 C   0  0  0  0  0  0  0  0  0  0  0  0
   18.9540   32.4960   23.5190 C   0  0  0  0  0  0  0  0  0  0  0  0
   19.6070   32.2170   24.7130 C   0  0  0  0  0  0  0  0  0  0  0  0
   19.0570   32.6310   25.9200 C   0  0  0  0  0  0  0  0  0  0  0  0
   13.7437   43.9604   30.6424 H   0  0  0  0  0  0  0  0  0  0  0  0
   15.0051   42.1100   30.8567 H   0  0  0  0  0  0  0  0  0  0  0  0
   17.4231   41.0040   28.4633 H   0  0  0  0  0  0  0  0  0  0  0  0
   17.0309   41.0890   30.2012 H   0  0  0  0  0  0  0  0  0  0  0  0
   14.9508   39.7483   29.7616 H   0  0  0  0  0  0  0  0  0  0  0  0
   15.4538   39.6194   28.0280 H   0  0  0  0  0  0  0  0  0  0  0  0
   17.6293   38.5862   28.8850 H   0  0  0  0  0  0  0  0  0  0  0  0
   16.8216   38.4487   30.4827 H   0  0  0  0  0  0  0  0  0  0  0  0
   14.9138   37.2498   29.2999 H   0  0  0  0  0  0  0  0  0  0  0  0
   15.9628   37.2163   27.8283 H   0  0  0  0  0  0  0  0  0  0  0  0
   17.7065   36.0180   29.1358 H   0  0  0  0  0  0  0  0  0  0  0  0
   16.5757   35.9792   30.5453 H   0  0  0  0  0  0  0  0  0  0  0  0
   16.3697   33.8595   29.4602 H   0  0  0  0  0  0  0  0  0  0  0  0
   14.9089   34.8163   29.0105 H   0  0  0  0  0  0  0  0  0  0  0  0
   17.7801   33.2865   28.0212 H   0  0  0  0  0  0  0  0  0  0  0  0
   16.2413   34.1355   24.7508 H   0  0  0  0  0  0  0  0  0  0  0  0
   17.2318   33.4112   22.5887 H   0  0  0  0  0  0  0  0  0  0  0  0
   19.3901   32.1692   22.5635 H   0  0  0  0  0  0  0  0  0  0  0  0
   20.5601   31.6680   24.7029 H   0  0  0  0  0  0  0  0  0  0  0  0
   19.5741   32.4017   26.8634 H   0  0  0  0  0  0  0  0  0  0  0  0
  1  3  1  0
  3  4  1  0
  4  2  2  0
  4  5  1  0
  5  6  1  0
  6  7  1  0
  7  8  1  0
  8  9  1  0
  9 10  1  0
 10 11  1  0
 11 12  2  0
 11 13  1  0
 13 14  1  0
 14 15  2  0
 15 16  1  0
 16 17  2  0
 17 18  1  0
 14 19  1  0
 18 19  2  0
  1 20  1  0
  3 21  1  0
  5 22  1  0
  5 23  1  0
  6 24  1  0
  6 25  1  0
  7 26  1  0
  7 27  1  0
  8 28  1  0
  8 29  1  0
  9 30  1  0
  9 31  1  0
 10 32  1  0
 10 33  1  0
 13 34  1  0
 15 35  1  0
 16 36  1  0
 17 37  1  0
 18 38  1  0
 19 39  1  0
M  END
$$$$
