PDB_DB00398_98
     RDKit          3D

 70 72  0  0  0  0  0  0  0  0999 V2000
  -28.0550   -1.7890   -7.5940 C   0  0  0  0  0  0  0  0  0  0  0  0
  -28.2850   -2.8510   -8.4880 C   0  0  0  0  0  0  0  0  0  0  0  0
  -28.9910   -3.9770   -8.0560 C   0  0  0  0  0  0  0  0  0  0  0  0
  -29.4670   -4.0490   -6.7420 C   0  0  0  0  0  0  0  0  0  0  0  0
  -26.7470   -2.0750  -10.2510 C   0  0  0  0  0  0  0  0  0  0  0  0
  -25.3410   -1.7590  -12.2560 C   0  0  0  0  0  0  0  0  0  0  0  0
  -25.4650   -1.3400  -13.5760 C   0  0  0  0  0  0  0  0  0  0  0  0
  -24.3430   -0.8720  -14.2610 C   0  0  0  0  0  0  0  0  0  0  0  0
  -23.1120   -0.8220  -13.6040 C   0  0  0  0  0  0  0  0  0  0  0  0
  -22.9590   -1.2340  -12.2870 C   0  0  0  0  0  0  0  0  0  0  0  0
  -24.0840   -1.7010  -11.6170 C   0  0  0  0  0  0  0  0  0  0  0  0
  -22.0130   -0.3720  -14.2990 O   0  0  0  0  0  0  0  0  0  0  0  0
  -22.5430    2.0480  -13.9900 C   0  0  0  0  0  0  0  0  0  0  0  0
  -21.9920    3.3280  -14.1160 C   0  0  0  0  0  0  0  0  0  0  0  0
  -19.9370    2.4950  -14.8610 C   0  0  0  0  0  0  0  0  0  0  0  0
  -20.3980    1.1840  -14.7780 C   0  0  0  0  0  0  0  0  0  0  0  0
  -18.0330    3.9880  -15.4040 N   0  0  0  0  0  0  0  0  0  0  0  0
  -16.6770    4.2420  -15.8730 C   0  0  0  0  0  0  0  0  0  0  0  0
  -29.2370   -2.9750   -5.8670 C   0  0  0  0  0  0  0  0  0  0  0  0
  -28.5180   -1.8380   -6.2740 C   0  0  0  0  0  0  0  0  0  0  0  0
  -28.2400   -0.6760   -5.3510 C   0  0  2  0  0  0  0  0  0  0  0  0
  -27.4630   -1.0490   -4.3100 F   0  0  0  0  0  0  0  0  0  0  0  0
  -29.3580   -0.1020   -4.8300 F   0  0  0  0  0  0  0  0  0  0  0  0
  -27.5590    0.3410   -5.9330 F   0  0  0  0  0  0  0  0  0  0  0  0
  -29.8410   -3.1030   -4.2550 Cl  0  0  0  0  0  0  0  0  0  0  0  0
  -27.8280   -2.8300   -9.8150 N   0  0  0  0  0  0  0  0  0  0  0  0
  -26.5060   -2.2230  -11.6110 N   0  0  0  0  0  0  0  0  0  0  0  0
  -26.0690   -1.3750   -9.5210 O   0  0  0  0  0  0  0  0  0  0  0  0
  -21.7060    0.9720  -14.3350 C   0  0  0  0  0  0  0  0  0  0  0  0
  -20.7260    3.5610  -14.5500 N   0  0  0  0  0  0  0  0  0  0  0  0
  -18.5340    2.7020  -15.3410 C   0  0  0  0  0  0  0  0  0  0  0  0
  -17.8770    1.7200  -15.6900 O   0  0  0  0  0  0  0  0  0  0  0  0
  -26.9640   -1.6605   -7.5369 H   0  0  0  0  0  0  0  0  0  0  0  0
  -28.6559   -0.9764   -8.0283 H   0  0  0  0  0  0  0  0  0  0  0  0
  -27.3420   -3.3211   -8.1722 H   0  0  0  0  0  0  0  0  0  0  0  0
  -29.8662   -4.0739   -8.7153 H   0  0  0  0  0  0  0  0  0  0  0  0
  -28.2353   -4.7754   -8.0925 H   0  0  0  0  0  0  0  0  0  0  0  0
  -30.5568   -4.1855   -6.8027 H   0  0  0  0  0  0  0  0  0  0  0  0
  -28.8875   -4.8730   -6.3003 H   0  0  0  0  0  0  0  0  0  0  0  0
  -26.0729   -2.9182  -10.0398 H   0  0  0  0  0  0  0  0  0  0  0  0
  -25.1186   -2.7796  -12.6009 H   0  0  0  0  0  0  0  0  0  0  0  0
  -25.8534   -2.1960  -14.1473 H   0  0  0  0  0  0  0  0  0  0  0  0
  -26.1097   -0.4517  -13.5033 H   0  0  0  0  0  0  0  0  0  0  0  0
  -24.2111   -1.5193  -15.1405 H   0  0  0  0  0  0  0  0  0  0  0  0
  -24.5781    0.1852  -14.4537 H   0  0  0  0  0  0  0  0  0  0  0  0
  -23.3377    0.1978  -13.2588 H   0  0  0  0  0  0  0  0  0  0  0  0
  -22.2146   -2.0439  -12.2814 H   0  0  0  0  0  0  0  0  0  0  0  0
  -22.6733   -0.3212  -11.7437 H   0  0  0  0  0  0  0  0  0  0  0  0
  -24.2117   -1.0569  -10.7345 H   0  0  0  0  0  0  0  0  0  0  0  0
  -23.8457   -2.7629  -11.4572 H   0  0  0  0  0  0  0  0  0  0  0  0
  -22.8444    1.9148  -12.9405 H   0  0  0  0  0  0  0  0  0  0  0  0
  -23.3744    2.0148  -14.7094 H   0  0  0  0  0  0  0  0  0  0  0  0
  -22.6516    3.8722  -14.8079 H   0  0  0  0  0  0  0  0  0  0  0  0
  -21.9165    3.6332  -13.0619 H   0  0  0  0  0  0  0  0  0  0  0  0
  -20.2768    2.5483  -15.9058 H   0  0  0  0  0  0  0  0  0  0  0  0
  -20.3191    0.7460  -15.7839 H   0  0  0  0  0  0  0  0  0  0  0  0
  -19.7689    0.7219  -14.0030 H   0  0  0  0  0  0  0  0  0  0  0  0
  -18.0897    4.3716  -14.4498 H   0  0  0  0  0  0  0  0  0  0  0  0
  -16.0077    4.3674  -15.0091 H   0  0  0  0  0  0  0  0  0  0  0  0
  -16.3345    3.3924  -16.4820 H   0  0  0  0  0  0  0  0  0  0  0  0
  -16.6652    5.1580  -16.4820 H   0  0  0  0  0  0  0  0  0  0  0  0
  -28.3013   -3.4473   -5.5333 H   0  0  0  0  0  0  0  0  0  0  0  0
  -29.4565   -1.3560   -6.5853 H   0  0  0  0  0  0  0  0  0  0  0  0
  -27.5983   -3.8069  -10.0469 H   0  0  0  0  0  0  0  0  0  0  0  0
  -26.5426   -3.2361  -11.7934 H   0  0  0  0  0  0  0  0  0  0  0  0
  -26.2746   -1.5872   -8.5761 H   0  0  0  0  0  0  0  0  0  0  0  0
  -22.0645    1.0261  -15.3735 H   0  0  0  0  0  0  0  0  0  0  0  0
  -20.7976    4.1431  -15.3967 H   0  0  0  0  0  0  0  0  0  0  0  0
  -18.9010    2.7944  -16.3739 H   0  0  0  0  0  0  0  0  0  0  0  0
  -17.5540    1.2372  -14.8883 H   0  0  0  0  0  0  0  0  0  0  0  0
  1  2  1  0
  2  3  1  0
  3  4  1  0
  6  7  1  0
  7  8  1  0
  8  9  1  0
  9 10  1  0
  6 11  1  0
 10 11  1  0
  9 12  1  0
 13 14  1  0
 15 16  1  0
 17 18  1  0
  4 19  1  0
  1 20  1  0
 19 20  1  0
 20 21  1  0
 21 22  1  1
 21 23  1  0
 21 24  1  0
 19 25  1  0
  2 26  1  0
  5 26  1  0
  5 27  1  0
  6 27  1  0
  5 28  1  0
 12 29  1  0
 13 29  1  0
 16 29  1  0
 14 30  1  0
 15 30  1  0
 15 31  1  0
 17 31  1  0
 31 32  1  0
  1 33  1  0
  1 34  1  0
  2 35  1  0
  3 36  1  0
  3 37  1  0
  4 38  1  0
  4 39  1  0
  5 40  1  0
  6 41  1  0
  7 42  1  0
  7 43  1  0
  8 44  1  0
  8 45  1  0
  9 46  1  0
 10 47  1  0
 10 48  1  0
 11 49  1  0
 11 50  1  0
 13 51  1  0
 13 52  1  0
 14 53  1  0
 14 54  1  0
 15 55  1  0
 16 56  1  0
 16 57  1  0
 17 58  1  0
 18 59  1  0
 18 60  1  0
 18 61  1  0
 19 62  1  0
 20 63  1  0
 26 64  1  0
 27 65  1  0
 28 66  1  0
 29 67  1  0
 30 68  1  0
 31 69  1  0
 32 70  1  0
M  END
>  <PDBID>  (1) 
4ASD

>  <PDB ID>  (1) 
4ASD

>  <Generic Name>  (1) 
Sorafenib

>  <Brand Name>  (1) 
Nexavar

>  <DrugBank ID>  (1) 
DB00398

>  <ATC Codes>  (1) 
L01XE05

>  <Ligand ID>  (1) 
BAX

>  <Target Name>  (1) 
Vascular endothelial growth factor receptor 3

>  <UniProt ID>  (1) 
P35916

>  <PDB ID.1>  (1) 
4ASD

>  <Seq. Identity>  (1) 
66%

$$$$
