PDB_DB00396_94
     RDKit          3D

 53 56  0  0  0  0  0  0  0  0999 V2000
    3.0180   -7.7180   14.6380 C   0  0  0  0  0  0  0  0  0  0  0  0
    4.0450   -7.7880   15.7920 C   0  0  0  0  0  0  0  0  0  0  0  0
    5.0270   -6.6360   15.7510 C   0  0  0  0  0  0  0  0  0  0  0  0
    6.0850   -6.7900   16.3320 O   0  0  0  0  0  0  0  0  0  0  0  0
    4.7360   -5.3710   15.0670 C   0  0  0  0  0  0  0  0  0  0  0  0
    3.5900   -5.1770   14.4050 C   0  0  0  0  0  0  0  0  0  0  0  0
    3.3140   -3.7990   13.7320 C   0  0  0  0  0  0  0  0  0  0  0  0
    2.6620   -3.8950   12.3300 C   0  0  0  0  0  0  0  0  0  0  0  0
    1.4460   -4.8860   12.2530 C   0  0  2  0  0  0  0  0  0  0  0  0
    1.9460   -6.3190   12.7430 C   0  0  1  0  0  0  0  0  0  0  0  0
    2.4670   -6.2860   14.2670 C   0  0  1  0  0  0  0  0  0  0  0  0
    0.8000   -7.3830   12.6100 C   0  0  0  0  0  0  0  0  0  0  0  0
    0.2480   -7.4190   11.1330 C   0  0  0  0  0  0  0  0  0  0  0  0
   -0.3240   -5.9980   10.6680 C   0  0  1  0  0  0  0  0  0  0  0  0
    0.9050   -4.9700   10.7960 C   0  0  1  0  0  0  0  0  0  0  0  0
    0.3560   -3.6410   10.1190 C   0  0  0  0  0  0  0  0  0  0  0  0
   -0.5300   -4.1920    8.9420 C   0  0  0  0  0  0  0  0  0  0  0  0
   -0.5970   -5.7720    9.1290 C   0  0  2  0  0  0  0  0  0  0  0  0
   -1.6120   -5.6330   11.5540 C   0  0  0  0  0  0  0  0  0  0  0  0
    1.2970   -5.8950   15.2970 C   0  0  0  0  0  0  0  0  0  0  0  0
   -1.9560   -6.3740    8.6770 C   0  0  0  0  0  0  0  0  0  0  0  0
   -2.8620   -5.6360    8.3490 O   0  0  0  0  0  0  0  0  0  0  0  0
   -2.1650   -7.8690    8.6800 C   0  0  0  0  0  0  0  0  0  0  0  0
    3.4970   -8.1342   13.7395 H   0  0  0  0  0  0  0  0  0  0  0  0
    2.1431   -8.2816   14.9942 H   0  0  0  0  0  0  0  0  0  0  0  0
    3.5048   -7.7597   16.7498 H   0  0  0  0  0  0  0  0  0  0  0  0
    4.6145   -8.7227   15.6825 H   0  0  0  0  0  0  0  0  0  0  0  0
    5.4796   -4.5611   15.0994 H   0  0  0  0  0  0  0  0  0  0  0  0
    2.6419   -3.2243   14.3862 H   0  0  0  0  0  0  0  0  0  0  0  0
    4.2916   -3.3142   13.5929 H   0  0  0  0  0  0  0  0  0  0  0  0
    2.3093   -2.8931   12.0440 H   0  0  0  0  0  0  0  0  0  0  0  0
    3.4323   -4.2857   11.6488 H   0  0  0  0  0  0  0  0  0  0  0  0
    0.6266   -4.5301   12.8949 H   0  0  0  0  0  0  0  0  0  0  0  0
    2.7888   -6.6010   12.0947 H   0  0  0  0  0  0  0  0  0  0  0  0
    1.1951   -8.3753   12.8730 H   0  0  0  0  0  0  0  0  0  0  0  0
   -0.0203   -7.1090   13.2897 H   0  0  0  0  0  0  0  0  0  0  0  0
    1.0646   -7.7111   10.4564 H   0  0  0  0  0  0  0  0  0  0  0  0
   -0.5784   -8.1441   11.0983 H   0  0  0  0  0  0  0  0  0  0  0  0
    1.8259   -5.2727   10.2760 H   0  0  0  0  0  0  0  0  0  0  0  0
   -0.2468   -3.0546   10.8281 H   0  0  0  0  0  0  0  0  0  0  0  0
    1.1530   -2.9610    9.7836 H   0  0  0  0  0  0  0  0  0  0  0  0
   -1.5404   -3.7601    8.9924 H   0  0  0  0  0  0  0  0  0  0  0  0
   -0.1037   -3.9246    7.9639 H   0  0  0  0  0  0  0  0  0  0  0  0
    0.1403   -6.2878    8.4964 H   0  0  0  0  0  0  0  0  0  0  0  0
   -1.3555   -5.7057   12.6212 H   0  0  0  0  0  0  0  0  0  0  0  0
   -1.9366   -4.6075   11.3239 H   0  0  0  0  0  0  0  0  0  0  0  0
   -2.4264   -6.3357   11.3239 H   0  0  0  0  0  0  0  0  0  0  0  0
    1.6605   -6.0165   16.3281 H   0  0  0  0  0  0  0  0  0  0  0  0
    0.9995   -4.8486   15.1340 H   0  0  0  0  0  0  0  0  0  0  0  0
    0.4302   -6.5523   15.1340 H   0  0  0  0  0  0  0  0  0  0  0  0
   -2.2155   -8.2301    9.7178 H   0  0  0  0  0  0  0  0  0  0  0  0
   -3.1054   -8.1088    8.1622 H   0  0  0  0  0  0  0  0  0  0  0  0
   -1.3264   -8.3575    8.1622 H   0  0  0  0  0  0  0  0  0  0  0  0
  1  2  1  0
  2  3  1  0
  3  4  2  0
  3  5  1  0
  5  6  2  0
  6  7  1  0
  7  8  1  0
  8  9  1  0
  9 10  1  0
  1 11  1  0
  6 11  1  0
 10 11  1  0
 10 12  1  0
 12 13  1  0
 13 14  1  0
  9 15  1  0
 14 15  1  0
 15 16  1  0
 16 17  1  0
 14 18  1  0
 17 18  1  0
 14 19  1  1
 11 20  1  1
 18 21  1  0
 21 22  2  0
 21 23  1  0
  1 24  1  0
  1 25  1  0
  2 26  1  0
  2 27  1  0
  5 28  1  0
  7 29  1  0
  7 30  1  0
  8 31  1  0
  8 32  1  0
  9 33  1  1
 10 34  1  6
 12 35  1  0
 12 36  1  0
 13 37  1  0
 13 38  1  0
 15 39  1  6
 16 40  1  0
 16 41  1  0
 17 42  1  0
 17 43  1  0
 18 44  1  6
 19 45  1  0
 19 46  1  0
 19 47  1  0
 20 48  1  0
 20 49  1  0
 20 50  1  0
 23 51  1  0
 23 52  1  0
 23 53  1  0
M  END
$$$$
