PDB_DB08828_99
     RDKit          3D

 41 43  0  0  0  0  0  0  0  0999 V2000
    0.4270   56.0810  -42.3100 Cl  0  0  0  0  0  0  0  0  0  0  0  0
    1.7510   55.9650  -41.1970 C   0  0  0  0  0  0  0  0  0  0  0  0
    1.4890   56.1310  -39.8450 C   0  0  0  0  0  0  0  0  0  0  0  0
    2.5200   56.0470  -38.9250 C   0  0  0  0  0  0  0  0  0  0  0  0
    3.0530   55.7030  -41.6530 C   0  0  0  0  0  0  0  0  0  0  0  0
    3.3600   55.5040  -43.0940 C   0  0  0  0  0  0  0  0  0  0  0  0
    3.7190   54.2570  -43.4590 N   0  0  0  0  0  0  0  0  0  0  0  0
    4.0600   54.0550  -44.7430 C   0  0  0  0  0  0  0  0  0  0  0  0
    4.0530   55.0500  -45.7030 C   0  0  0  0  0  0  0  0  0  0  0  0
    3.6780   56.3180  -45.3170 C   0  0  0  0  0  0  0  0  0  0  0  0
    3.3260   56.5600  -44.0010 C   0  0  0  0  0  0  0  0  0  0  0  0
    4.0780   55.6230  -40.7090 C   0  0  0  0  0  0  0  0  0  0  0  0
    3.8220   55.8010  -39.3530 C   0  0  0  0  0  0  0  0  0  0  0  0
    4.8960   55.8090  -38.4340 N   0  0  0  0  0  0  0  0  0  0  0  0
    5.8390   56.7720  -38.3030 C   0  0  0  0  0  0  0  0  0  0  0  0
    5.9180   57.7410  -39.0530 O   0  0  0  0  0  0  0  0  0  0  0  0
    6.7690   56.6210  -37.1380 C   0  0  0  0  0  0  0  0  0  0  0  0
    6.2490   56.1710  -35.9210 C   0  0  0  0  0  0  0  0  0  0  0  0
    7.0370   56.1020  -34.7860 C   0  0  0  0  0  0  0  0  0  0  0  0
    8.1180   56.9770  -37.1810 C   0  0  0  0  0  0  0  0  0  0  0  0
    8.8590   57.5130  -38.6550 Cl  0  0  0  0  0  0  0  0  0  0  0  0
    8.9200   56.9160  -36.0570 C   0  0  0  0  0  0  0  0  0  0  0  0
    8.3670   56.4890  -34.8600 C   0  0  0  0  0  0  0  0  0  0  0  0
    9.3640   56.4870  -33.4010 S   0  0  0  0  0  0  0  0  0  0  0  0
    9.1540   55.2450  -32.7150 O   0  0  0  0  0  0  0  0  0  0  0  0
   10.7050   56.8340  -33.7740 O   0  0  0  0  0  0  0  0  0  0  0  0
    8.7080   57.7820  -32.4220 C   0  0  0  0  0  0  0  0  0  0  0  0
    0.4622   56.3293  -39.5039 H   0  0  0  0  0  0  0  0  0  0  0  0
    2.3101   56.1750  -37.8528 H   0  0  0  0  0  0  0  0  0  0  0  0
    4.3614   53.0418  -45.0472 H   0  0  0  0  0  0  0  0  0  0  0  0
    4.3383   54.8355  -46.7435 H   0  0  0  0  0  0  0  0  0  0  0  0
    3.6585   57.1356  -46.0527 H   0  0  0  0  0  0  0  0  0  0  0  0
    3.0250   57.5673  -43.6774 H   0  0  0  0  0  0  0  0  0  0  0  0
    5.1055   55.4157  -41.0427 H   0  0  0  0  0  0  0  0  0  0  0  0
    4.9687   55.0006  -37.7999 H   0  0  0  0  0  0  0  0  0  0  0  0
    5.1936   55.8661  -35.8647 H   0  0  0  0  0  0  0  0  0  0  0  0
    6.6137   55.7444  -33.8358 H   0  0  0  0  0  0  0  0  0  0  0  0
    9.9808   57.2019  -36.1116 H   0  0  0  0  0  0  0  0  0  0  0  0
    8.8327   57.5359  -31.3572 H   0  0  0  0  0  0  0  0  0  0  0  0
    9.2408   58.7177  -32.6469 H   0  0  0  0  0  0  0  0  0  0  0  0
    7.6384   57.9060  -32.6469 H   0  0  0  0  0  0  0  0  0  0  0  0
  1  2  1  0
  2  3  2  0
  3  4  1  0
  2  5  1  0
  5  6  1  0
  6  7  2  0
  7  8  1  0
  8  9  2  0
  9 10  1  0
  6 11  1  0
 10 11  2  0
  5 12  2  0
  4 13  2  0
 12 13  1  0
 13 14  1  0
 14 15  1  0
 15 16  2  0
 15 17  1  0
 17 18  2  0
 18 19  1  0
 17 20  1  0
 20 21  1  0
 20 22  2  0
 19 23  2  0
 22 23  1  0
 23 24  1  0
 24 25  2  0
 24 26  2  0
 24 27  1  0
  3 28  1  0
  4 29  1  0
  8 30  1  0
  9 31  1  0
 10 32  1  0
 11 33  1  0
 12 34  1  0
 14 35  1  0
 18 36  1  0
 19 37  1  0
 22 38  1  0
 27 39  1  0
 27 40  1  0
 27 41  1  0
M  END
$$$$
