PDB_DB00218_96
     RDKit          3D

 53 57  0  0  0  0  0  0  0  0999 V2000
   76.2580   -9.6420    1.4730 F   0  0  0  0  0  0  0  0  0  0  0  0
   74.7140  -11.6160    5.6840 O   0  0  0  0  0  0  0  0  0  0  0  0
   76.3120  -14.4850    0.3920 O   0  0  0  0  0  0  0  0  0  0  0  0
   75.2370  -17.9990    2.3750 O   0  0  0  0  0  0  0  0  0  0  0  0
   76.1530  -17.1290    0.5790 O   0  0  0  0  0  0  0  0  0  0  0  0
   75.3770   -9.2750    4.3460 N   0  0  0  0  0  0  0  0  0  0  0  0
   74.1120   -6.3890    4.9200 N   0  0  0  0  0  0  0  0  0  0  0  0
   75.1830  -14.3750    4.4100 N   0  0  0  0  0  0  0  0  0  0  0  0
   76.3370   -7.4010    5.4880 C   0  0  2  0  0  0  0  0  0  0  0  0
   75.3860   -6.8840    4.4100 C   0  0  1  0  0  0  0  0  0  0  0  0
   76.5070   -8.8780    5.1900 C   0  0  0  0  0  0  0  0  0  0  0  0
   75.1260   -8.0860    3.5190 C   0  0  0  0  0  0  0  0  0  0  0  0
   75.9760   -7.2290    6.9720 C   0  0  0  0  0  0  0  0  0  0  0  0
   74.7790  -14.5000    5.8300 C   0  0  0  0  0  0  0  0  0  0  0  0
   74.5710   -6.7260    7.3240 C   0  0  0  0  0  0  0  0  0  0  0  0
   76.0000  -14.3050    6.7290 C   0  0  0  0  0  0  0  0  0  0  0  0
   75.4130  -15.6930    6.5400 C   0  0  0  0  0  0  0  0  0  0  0  0
   73.5470   -6.8420    6.1900 C   0  0  0  0  0  0  0  0  0  0  0  0
   75.5620  -10.5270    3.6650 C   0  0  0  0  0  0  0  0  0  0  0  0
   75.3690  -13.1110    3.7500 C   0  0  0  0  0  0  0  0  0  0  0  0
   75.2150  -11.7680    4.4150 C   0  0  0  0  0  0  0  0  0  0  0  0
   75.8130  -13.1210    2.3080 C   0  0  0  0  0  0  0  0  0  0  0  0
   75.9440  -10.6890    2.2270 C   0  0  0  0  0  0  0  0  0  0  0  0
   75.2360  -15.5280    3.7010 C   0  0  0  0  0  0  0  0  0  0  0  0
   76.0660  -11.9350    1.6240 C   0  0  0  0  0  0  0  0  0  0  0  0
   75.6490  -15.6510    2.3730 C   0  0  0  0  0  0  0  0  0  0  0  0
   75.9490  -14.4230    1.5930 C   0  0  0  0  0  0  0  0  0  0  0  0
   75.6920  -17.0140    1.7390 C   0  0  0  0  0  0  0  0  0  0  0  0
   73.2910  -11.4060    5.7470 C   0  0  0  0  0  0  0  0  0  0  0  0
   75.2586  -18.9023    1.9704 H   0  0  0  0  0  0  0  0  0  0  0  0
   74.2130   -5.3671    4.9997 H   0  0  0  0  0  0  0  0  0  0  0  0
   77.2348   -6.7701    5.4116 H   0  0  0  0  0  0  0  0  0  0  0  0
   75.8450   -6.0240    3.9004 H   0  0  0  0  0  0  0  0  0  0  0  0
   76.5013   -9.4558    6.1260 H   0  0  0  0  0  0  0  0  0  0  0  0
   77.4639   -9.0695    4.6823 H   0  0  0  0  0  0  0  0  0  0  0  0
   75.8058   -8.0732    2.6543 H   0  0  0  0  0  0  0  0  0  0  0  0
   74.0972   -8.0799    3.1297 H   0  0  0  0  0  0  0  0  0  0  0  0
   76.1010   -8.2101    7.4535 H   0  0  0  0  0  0  0  0  0  0  0  0
   76.6464   -6.4312    7.3241 H   0  0  0  0  0  0  0  0  0  0  0  0
   73.7537  -14.1071    5.7646 H   0  0  0  0  0  0  0  0  0  0  0  0
   74.2022   -7.3104    8.1799 H   0  0  0  0  0  0  0  0  0  0  0  0
   74.6711   -5.6529    7.5439 H   0  0  0  0  0  0  0  0  0  0  0  0
   76.9751  -14.0554    6.2853 H   0  0  0  0  0  0  0  0  0  0  0  0
   76.2325  -13.6711    7.5974 H   0  0  0  0  0  0  0  0  0  0  0  0
   74.8833  -16.1831    7.3702 H   0  0  0  0  0  0  0  0  0  0  0  0
   75.8106  -16.6666    6.2176 H   0  0  0  0  0  0  0  0  0  0  0  0
   72.6702   -6.2240    6.4335 H   0  0  0  0  0  0  0  0  0  0  0  0
   73.2596   -7.8987    6.0865 H   0  0  0  0  0  0  0  0  0  0  0  0
   74.9263  -16.4487    4.2171 H   0  0  0  0  0  0  0  0  0  0  0  0
   76.3733  -11.9861    0.5690 H   0  0  0  0  0  0  0  0  0  0  0  0
   72.9735  -11.3591    6.7991 H   0  0  0  0  0  0  0  0  0  0  0  0
   73.0373  -10.4607    5.2450 H   0  0  0  0  0  0  0  0  0  0  0  0
   72.7750  -12.2377    5.2450 H   0  0  0  0  0  0  0  0  0  0  0  0
  7 10  1  0
  9 10  1  0
  6 11  1  0
  9 11  1  0
  6 12  1  0
 10 12  1  0
  9 13  1  0
  8 14  1  0
 13 15  1  0
 14 16  1  0
 14 17  1  0
 16 17  1  0
  7 18  1  0
 15 18  1  0
  6 19  1  0
  8 20  1  0
  2 21  1  0
 19 21  2  0
 20 21  1  0
 20 22  2  0
  1 23  1  0
 19 23  1  0
  8 24  1  0
 22 25  1  0
 23 25  2  0
 24 26  2  0
 22 27  1  0
 26 27  1  0
 27  3  2  0
  4 28  1  0
 26 28  1  0
 28  5  2  0
  2 29  1  0
  4 30  1  0
  7 31  1  0
  9 32  1  1
 10 33  1  6
 11 34  1  0
 11 35  1  0
 12 36  1  0
 12 37  1  0
 13 38  1  0
 13 39  1  0
 14 40  1  0
 15 41  1  0
 15 42  1  0
 16 43  1  0
 16 44  1  0
 17 45  1  0
 17 46  1  0
 18 47  1  0
 18 48  1  0
 24 49  1  0
 25 50  1  0
 29 51  1  0
 29 52  1  0
 29 53  1  0
M  END
$$$$
