PDB_DB00480_98
     RDKit          3D

 44 46  0  0  0  0  0  0  0  0999 V2000
   84.2300  156.3710   13.8710 C   0  0  1  0  0  0  0  0  0  0  0  0
   85.1530  156.8780   15.0090 C   0  0  0  0  0  0  0  0  0  0  0  0
   84.8460  158.3630   15.2820 C   0  0  0  0  0  0  0  0  0  0  0  0
   85.0100  159.1500   14.0030 C   0  0  0  0  0  0  0  0  0  0  0  0
   84.7820  158.5390   12.8080 N   0  0  0  0  0  0  0  0  0  0  0  0
   84.4320  157.2300   12.6430 C   0  0  1  0  0  0  0  0  0  0  0  0
   84.1060  152.7120   13.1650 C   0  0  0  0  0  0  0  0  0  0  0  0
   85.4170  153.0100   12.7900 C   0  0  0  0  0  0  0  0  0  0  0  0
   85.7210  154.4870   12.9980 C   0  0  0  0  0  0  0  0  0  0  0  0
   84.4530  154.9740   13.5320 N   0  0  0  0  0  0  0  0  0  0  0  0
   83.5020  154.0070   13.6410 C   0  0  0  0  0  0  0  0  0  0  0  0
   84.4530  150.4040   12.5990 C   0  0  0  0  0  0  0  0  0  0  0  0
   85.7900  150.7100   12.2340 C   0  0  0  0  0  0  0  0  0  0  0  0
   86.3000  152.0260   12.3190 C   0  0  0  0  0  0  0  0  0  0  0  0
   83.5800  151.4140   13.0630 C   0  0  0  0  0  0  0  0  0  0  0  0
   82.3300  154.0900   14.0400 O   0  0  0  0  0  0  0  0  0  0  0  0
   87.5760  152.3610   11.9750 N   0  0  0  0  0  0  0  0  0  0  0  0
   84.2170  156.7370   11.5430 O   0  0  0  0  0  0  0  0  0  0  0  0
   85.3050  160.3310   14.0740 O   0  0  0  0  0  0  0  0  0  0  0  0
   83.1951  156.4476   14.2360 H   0  0  0  0  0  0  0  0  0  0  0  0
   84.9707  156.2903   15.9208 H   0  0  0  0  0  0  0  0  0  0  0  0
   86.2058  156.7656   14.7107 H   0  0  0  0  0  0  0  0  0  0  0  0
   83.8127  158.4638   15.6456 H   0  0  0  0  0  0  0  0  0  0  0  0
   85.5397  158.7488   16.0436 H   0  0  0  0  0  0  0  0  0  0  0  0
   86.0674  158.8506   13.9543 H   0  0  0  0  0  0  0  0  0  0  0  0
   84.0270  159.0812   12.3642 H   0  0  0  0  0  0  0  0  0  0  0  0
   83.3689  157.5115   12.6650 H   0  0  0  0  0  0  0  0  0  0  0  0
   84.4478  152.4954   14.1879 H   0  0  0  0  0  0  0  0  0  0  0  0
   85.0755  153.2244   11.7666 H   0  0  0  0  0  0  0  0  0  0  0  0
   86.5412  154.6309   13.7167 H   0  0  0  0  0  0  0  0  0  0  0  0
   86.0538  155.0083   12.0883 H   0  0  0  0  0  0  0  0  0  0  0  0
   83.8410  153.7889   14.6645 H   0  0  0  0  0  0  0  0  0  0  0  0
   83.9783  149.9632   11.7100 H   0  0  0  0  0  0  0  0  0  0  0  0
   84.5821  149.7667   13.4862 H   0  0  0  0  0  0  0  0  0  0  0  0
   86.4350  150.0864   12.8704 H   0  0  0  0  0  0  0  0  0  0  0  0
   85.7838  150.5304   11.1488 H   0  0  0  0  0  0  0  0  0  0  0  0
   86.6320  151.8308   13.3494 H   0  0  0  0  0  0  0  0  0  0  0  0
   83.2309  151.1176   14.0631 H   0  0  0  0  0  0  0  0  0  0  0  0
   82.7914  151.4838   12.2993 H   0  0  0  0  0  0  0  0  0  0  0  0
   82.3177  154.0909   15.0299 H   0  0  0  0  0  0  0  0  0  0  0  0
   88.1343  152.5076   12.8280 H   0  0  0  0  0  0  0  0  0  0  0  0
   87.9924  151.6008   11.4185 H   0  0  0  0  0  0  0  0  0  0  0  0
   83.8239  155.8355   11.6565 H   0  0  0  0  0  0  0  0  0  0  0  0
   85.3717  160.5979   15.0250 H   0  0  0  0  0  0  0  0  0  0  0  0
  1  2  1  0
  2  3  1  0
  3  4  1  0
  4  5  1  0
  1  6  1  0
  5  6  1  0
  7  8  1  0
  8  9  1  0
  1 10  1  0
  9 10  1  0
  7 11  1  0
 10 11  1  0
 12 13  1  0
  8 14  1  0
 13 14  1  0
  7 15  1  0
 12 15  1  0
 11 16  1  0
 14 17  1  0
  6 18  1  0
  4 19  1  0
  1 20  1  1
  2 21  1  0
  2 22  1  0
  3 23  1  0
  3 24  1  0
  4 25  1  0
  5 26  1  0
  6 27  1  6
  7 28  1  0
  8 29  1  0
  9 30  1  0
  9 31  1  0
 11 32  1  0
 12 33  1  0
 12 34  1  0
 13 35  1  0
 13 36  1  0
 14 37  1  0
 15 38  1  0
 15 39  1  0
 16 40  1  0
 17 41  1  0
 17 42  1  0
 18 43  1  0
 19 44  1  0
M  END
>  <PDBID>  (1) 
4CI2

>  <PDB ID>  (1) 
4CI2

>  <Generic Name>  (1) 
Lenalidomide

>  <Brand Name>  (1) 
Revlimid#Ladevina#Lenangio

>  <DrugBank ID>  (1) 
DB00480

>  <ATC Codes>  (1) 
L04AX04

>  <Ligand ID>  (1) 
LVY

>  <Target Name>  (1) 
Protein cereblon

>  <UniProt ID>  (1) 
Q96SW2

>  <PDB ID.1>  (1) 
4CI2

>  <Seq. Identity>  (1) 
86%

$$$$
