PDB_DB01050_97
     RDKit          3D

 33 33  0  0  0  0  0  0  0  0999 V2000
   10.8260   20.9330   25.8780 C   0  0  0  0  0  0  0  0  0  0  0  0
   15.1010   25.7810   24.6650 C   0  0  0  0  0  0  0  0  0  0  0  0
   16.3910   24.9880   24.6650 C   0  0  0  0  0  0  0  0  0  0  0  0
   16.4720   24.1460   23.3930 C   0  0  0  0  0  0  0  0  0  0  0  0
   17.5360   25.9900   24.7610 C   0  0  0  0  0  0  0  0  0  0  0  0
   10.4550   22.3950   25.6280 C   0  0  1  0  0  0  0  0  0  0  0  0
    9.6190   22.9390   26.7690 C   0  0  0  0  0  0  0  0  0  0  0  0
   11.6770   23.2720   25.4200 C   0  0  0  0  0  0  0  0  0  0  0  0
   12.0390   23.6290   24.1260 C   0  0  0  0  0  0  0  0  0  0  0  0
   13.1480   24.4270   23.8740 C   0  0  0  0  0  0  0  0  0  0  0  0
   13.9000   24.8930   24.9440 C   0  0  0  0  0  0  0  0  0  0  0  0
   13.5540   24.5470   26.2460 C   0  0  0  0  0  0  0  0  0  0  0  0
   12.4380   23.7380   26.4980 C   0  0  0  0  0  0  0  0  0  0  0  0
   11.2370   20.5720   27.0170 O   0  0  0  0  0  0  0  0  0  0  0  0
   10.7290   20.0580   24.9500 O   0  0  0  0  0  0  0  0  0  0  0  0
   15.1591   26.5577   25.4418 H   0  0  0  0  0  0  0  0  0  0  0  0
   14.9731   26.2309   23.6694 H   0  0  0  0  0  0  0  0  0  0  0  0
   16.4439   24.2923   25.5154 H   0  0  0  0  0  0  0  0  0  0  0  0
   16.5741   23.0843   23.6620 H   0  0  0  0  0  0  0  0  0  0  0  0
   15.5561   24.2877   22.8005 H   0  0  0  0  0  0  0  0  0  0  0  0
   17.3441   24.4597   22.8005 H   0  0  0  0  0  0  0  0  0  0  0  0
   17.7622   26.1880   25.8191 H   0  0  0  0  0  0  0  0  0  0  0  0
   18.4274   25.5766   24.2666 H   0  0  0  0  0  0  0  0  0  0  0  0
   17.2445   26.9284   24.2666 H   0  0  0  0  0  0  0  0  0  0  0  0
    9.8647   22.4185   24.7001 H   0  0  0  0  0  0  0  0  0  0  0  0
   10.0712   22.6448   27.7276 H   0  0  0  0  0  0  0  0  0  0  0  0
    9.5794   24.0363   26.7038 H   0  0  0  0  0  0  0  0  0  0  0  0
    8.5996   22.5308   26.7038 H   0  0  0  0  0  0  0  0  0  0  0  0
   11.4325   23.2709   23.2811 H   0  0  0  0  0  0  0  0  0  0  0  0
   13.4262   24.6858   22.8417 H   0  0  0  0  0  0  0  0  0  0  0  0
   14.1626   24.9122   27.0864 H   0  0  0  0  0  0  0  0  0  0  0  0
   12.1637   23.4727   27.5297 H   0  0  0  0  0  0  0  0  0  0  0  0
   11.4774   19.6255   27.1794 H   0  0  0  0  0  0  0  0  0  0  0  0
  2  3  1  0
  3  4  1  0
  3  5  1  0
  1  6  1  0
  6  7  1  0
  6  8  1  0
  8  9  2  0
  9 10  1  0
  2 11  1  0
 10 11  2  0
 11 12  1  0
  8 13  1  0
 12 13  2  0
  1 14  1  0
  1 15  2  0
  2 16  1  0
  2 17  1  0
  3 18  1  0
  4 19  1  0
  4 20  1  0
  4 21  1  0
  5 22  1  0
  5 23  1  0
  5 24  1  0
  6 25  1  6
  7 26  1  0
  7 27  1  0
  7 28  1  0
  9 29  1  0
 10 30  1  0
 12 31  1  0
 13 32  1  0
 14 33  1  0
M  END
$$$$
