PDB_DB00864_98
     RDKit          3D

140143  0  0  0  0  0  0  0  0999 V2000
   19.8820   29.4320    5.9360 C   0  0  0  0  0  0  0  0  0  0  0  0
   18.5330   28.7960    5.7560 C   0  0  2  0  0  0  0  0  0  0  0  0
   17.8780   28.7310    7.1600 C   0  0  0  0  0  0  0  0  0  0  0  0
   18.4250   27.5380    7.9490 C   0  0  0  0  0  0  0  0  0  0  0  0
   18.2310   26.2070    7.3040 C   0  0  0  0  0  0  0  0  0  0  0  0
   18.8750   26.2610    5.9090 C   0  0  0  0  0  0  0  0  0  0  0  0
   17.8900   27.3990    3.9270 C   0  0  1  0  0  0  0  0  0  0  0  0
   17.6640   26.0940    3.2900 C   0  0  0  0  0  0  0  0  0  0  0  0
   18.7750   25.6350    2.2800 C   0  0  1  0  0  0  0  0  0  0  0  0
   19.4000   26.7600    1.4930 C   0  0  1  0  0  0  0  0  0  0  0  0
   20.7150   26.2460    0.8240 C   0  0  0  0  0  0  0  0  0  0  0  0
   21.6560   25.6210    1.9230 C   0  0  1  0  0  0  0  0  0  0  0  0
   20.8410   24.4440    2.5840 C   0  0  1  0  0  0  0  0  0  0  0  0
   21.5080   23.5470    3.6250 C   0  0  2  0  0  0  0  0  0  0  0  0
   22.4190   24.3350    4.5840 C   0  0  0  0  0  0  0  0  0  0  0  0
   22.8310   23.5920    5.8630 C   0  0  2  0  0  0  0  0  0  0  0  0
   24.2580   22.9380    5.6150 C   0  0  0  0  0  0  0  0  0  0  0  0
   25.3200   23.9740    5.7660 C   0  0  0  0  0  0  0  0  0  0  0  0
   25.7860   24.6360    4.7210 C   0  0  0  0  0  0  0  0  0  0  0  0
   26.8200   25.7420    4.7950 C   0  0  2  0  0  0  0  0  0  0  0  0
   26.0850   27.0710    4.6030 C   0  0  0  0  0  0  0  0  0  0  0  0
   25.7830   27.7840    5.9200 C   0  0  0  0  0  0  0  0  0  0  0  0
   24.6390   28.7870    5.7360 C   0  0  1  0  0  0  0  0  0  0  0  0
   23.2350   28.1450    5.6590 C   0  0  2  0  0  0  0  0  0  0  0  0
   22.1990   29.3410    5.4660 C   0  0  1  0  0  0  0  0  0  0  0  0
   22.5150   30.1640    4.2680 C   0  0  1  0  0  0  0  0  0  0  0  0
   22.8060   31.4500    4.5070 C   0  0  0  0  0  0  0  0  0  0  0  0
   23.2260   32.4100    3.4150 C   0  0  1  0  0  0  0  0  0  0  0  0
   22.3470   33.6780    3.4660 C   0  0  0  0  0  0  0  0  0  0  0  0
   22.9730   34.8890    2.7620 C   0  0  2  0  0  0  0  0  0  0  0  0
   24.3590   35.1160    3.2420 C   0  0  1  0  0  0  0  0  0  0  0  0
   25.2070   33.8640    2.9840 C   0  0  0  0  0  0  0  0  0  0  0  0
   24.6340   32.7650    3.8380 C   0  0  0  0  0  0  0  0  0  0  0  0
   18.4480   27.3410    0.4110 C   0  0  0  0  0  0  0  0  0  0  0  0
   21.8700   22.4620    6.2390 C   0  0  0  0  0  0  0  0  0  0  0  0
   25.7790   24.2120    7.2430 C   0  0  0  0  0  0  0  0  0  0  0  0
   27.8720   25.5990    3.6500 C   0  0  0  0  0  0  0  0  0  0  0  0
   28.9290   26.6970    3.6030 C   0  0  0  0  0  0  0  0  0  0  0  0
   29.7960   26.9980    4.5490 C   0  0  0  0  0  0  0  0  0  0  0  0
   22.7410   27.4280    6.9820 C   0  0  0  0  0  0  0  0  0  0  0  0
   22.3990   29.5440    2.8620 C   0  0  0  0  0  0  0  0  0  0  0  0
   23.9260   25.9950    1.2340 C   0  0  0  0  0  0  0  0  0  0  0  0
   21.6500   21.3230    2.6980 C   0  0  0  0  0  0  0  0  0  0  0  0
   21.1740   36.0960    1.8850 C   0  0  0  0  0  0  0  0  0  0  0  0
   18.4350   27.4770    5.1880 N   0  0  0  0  0  0  0  0  0  0  0  0
   20.8780   28.7120    5.3930 O   0  0  0  0  0  0  0  0  0  0  0  0
   20.0710   30.4570    6.5230 O   0  0  0  0  0  0  0  0  0  0  0  0
   17.4880   28.4330    3.2980 O   0  0  0  0  0  0  0  0  0  0  0  0
   16.6800   25.3870    3.4820 O   0  0  0  0  0  0  0  0  0  0  0  0
   19.7240   25.0980    3.2170 O   0  0  0  0  0  0  0  0  0  0  0  0
   18.2840   24.5960    1.4900 O   0  0  0  0  0  0  0  0  0  0  0  0
   22.8730   25.0110    1.3680 O   0  0  0  0  0  0  0  0  0  0  0  0
   22.3620   22.5780    2.9200 O   0  0  0  0  0  0  0  0  0  0  0  0
   25.7580   27.5470    3.5070 O   0  0  0  0  0  0  0  0  0  0  0  0
   24.7470   29.6310    6.9070 O   0  0  0  0  0  0  0  0  0  0  0  0
   22.1410   36.0700    2.9740 O   0  0  0  0  0  0  0  0  0  0  0  0
   24.9510   36.1680    2.4540 O   0  0  0  0  0  0  0  0  0  0  0  0
   20.0097   28.8923    6.8859 H   0  0  0  0  0  0  0  0  0  0  0  0
   18.0468   29.4342    5.0035 H   0  0  0  0  0  0  0  0  0  0  0  0
   18.0995   29.6595    7.7067 H   0  0  0  0  0  0  0  0  0  0  0  0
   16.7908   28.6125    7.0416 H   0  0  0  0  0  0  0  0  0  0  0  0
   19.5045   27.6919    8.0937 H   0  0  0  0  0  0  0  0  0  0  0  0
   17.8555   27.5072    8.8896 H   0  0  0  0  0  0  0  0  0  0  0  0
   18.7132   25.4247    7.9085 H   0  0  0  0  0  0  0  0  0  0  0  0
   17.1594   25.9724    7.2231 H   0  0  0  0  0  0  0  0  0  0  0  0
   19.9698   26.2778    6.0149 H   0  0  0  0  0  0  0  0  0  0  0  0
   18.5659   25.3737    5.3370 H   0  0  0  0  0  0  0  0  0  0  0  0
   16.8818   27.3597    4.3652 H   0  0  0  0  0  0  0  0  0  0  0  0
   17.1225   26.5881    2.4698 H   0  0  0  0  0  0  0  0  0  0  0  0
   19.6162   27.5777    2.1963 H   0  0  0  0  0  0  0  0  0  0  0  0
   20.4692   25.4802    0.0736 H   0  0  0  0  0  0  0  0  0  0  0  0
   21.2302   27.0866    0.3361 H   0  0  0  0  0  0  0  0  0  0  0  0
   21.9565   26.4244    2.6117 H   0  0  0  0  0  0  0  0  0  0  0  0
   20.6343   23.7331    1.7704 H   0  0  0  0  0  0  0  0  0  0  0  0
   20.7086   23.0681    4.2095 H   0  0  0  0  0  0  0  0  0  0  0  0
   23.3353   24.6032    4.0376 H   0  0  0  0  0  0  0  0  0  0  0  0
   21.8305   25.2034    4.9150 H   0  0  0  0  0  0  0  0  0  0  0  0
   22.8292   24.3261    6.6822 H   0  0  0  0  0  0  0  0  0  0  0  0
   24.4242   22.1347    6.3479 H   0  0  0  0  0  0  0  0  0  0  0  0
   24.2962   22.5235    4.5968 H   0  0  0  0  0  0  0  0  0  0  0  0
   26.0919   23.2036    5.6222 H   0  0  0  0  0  0  0  0  0  0  0  0
   26.2167   23.8729    4.0560 H   0  0  0  0  0  0  0  0  0  0  0  0
   24.8942   25.2109    4.4307 H   0  0  0  0  0  0  0  0  0  0  0  0
   27.3409   25.6919    5.7626 H   0  0  0  0  0  0  0  0  0  0  0  0
   25.1202   26.5465    4.6657 H   0  0  0  0  0  0  0  0  0  0  0  0
   25.4940   27.0398    6.6768 H   0  0  0  0  0  0  0  0  0  0  0  0
   26.6829   28.3260    6.2462 H   0  0  0  0  0  0  0  0  0  0  0  0
   24.7341   29.3178    4.7772 H   0  0  0  0  0  0  0  0  0  0  0  0
   23.2913   27.3955    4.8558 H   0  0  0  0  0  0  0  0  0  0  0  0
   22.2438   30.0543    6.3021 H   0  0  0  0  0  0  0  0  0  0  0  0
   21.4510   30.4238    4.1658 H   0  0  0  0  0  0  0  0  0  0  0  0
   21.9061   31.8856    4.9658 H   0  0  0  0  0  0  0  0  0  0  0  0
   23.7308   31.3638    5.0963 H   0  0  0  0  0  0  0  0  0  0  0  0
   23.1435   31.9958    2.3993 H   0  0  0  0  0  0  0  0  0  0  0  0
   21.3849   33.4537    2.9822 H   0  0  0  0  0  0  0  0  0  0  0  0
   22.2300   33.9466    4.5263 H   0  0  0  0  0  0  0  0  0  0  0  0
   23.0243   34.6881    1.6817 H   0  0  0  0  0  0  0  0  0  0  0  0
   24.3284   35.3630    4.3135 H   0  0  0  0  0  0  0  0  0  0  0  0
   25.1547   33.5839    1.9215 H   0  0  0  0  0  0  0  0  0  0  0  0
   26.2632   34.0456    3.2319 H   0  0  0  0  0  0  0  0  0  0  0  0
   24.6188   33.0982    4.8862 H   0  0  0  0  0  0  0  0  0  0  0  0
   25.2651   31.8718    3.7196 H   0  0  0  0  0  0  0  0  0  0  0  0
   17.6069   27.8543    0.9000 H   0  0  0  0  0  0  0  0  0  0  0  0
   18.9994   28.0566   -0.2165 H   0  0  0  0  0  0  0  0  0  0  0  0
   18.0637   26.5234   -0.2165 H   0  0  0  0  0  0  0  0  0  0  0  0
   21.8048   22.3854    7.3344 H   0  0  0  0  0  0  0  0  0  0  0  0
   20.8730   22.6760    5.8264 H   0  0  0  0  0  0  0  0  0  0  0  0
   22.2414   21.5123    5.8264 H   0  0  0  0  0  0  0  0  0  0  0  0
   25.0176   23.8172    7.9317 H   0  0  0  0  0  0  0  0  0  0  0  0
   26.7345   23.6957    7.4178 H   0  0  0  0  0  0  0  0  0  0  0  0
   25.9076   25.2904    7.4178 H   0  0  0  0  0  0  0  0  0  0  0  0
   28.3868   24.6354    3.7784 H   0  0  0  0  0  0  0  0  0  0  0  0
   27.3108   25.6730    2.7069 H   0  0  0  0  0  0  0  0  0  0  0  0
   29.5413   26.4650    2.7191 H   0  0  0  0  0  0  0  0  0  0  0  0
   28.2749   27.5787    3.6720 H   0  0  0  0  0  0  0  0  0  0  0  0
   29.3340   26.8376    5.5343 H   0  0  0  0  0  0  0  0  0  0  0  0
   30.6834   26.3553    4.4511 H   0  0  0  0  0  0  0  0  0  0  0  0
   30.0942   28.0523    4.4511 H   0  0  0  0  0  0  0  0  0  0  0  0
   23.1181   27.9754    7.8584 H   0  0  0  0  0  0  0  0  0  0  0  0
   21.6413   27.4149    7.0032 H   0  0  0  0  0  0  0  0  0  0  0  0
   23.1205   26.3957    7.0032 H   0  0  0  0  0  0  0  0  0  0  0  0
   22.1974   28.4664    2.9520 H   0  0  0  0  0  0  0  0  0  0  0  0
   21.5756   30.0267    2.3152 H   0  0  0  0  0  0  0  0  0  0  0  0
   23.3412   29.6963    2.3152 H   0  0  0  0  0  0  0  0  0  0  0  0
   24.2629   26.3098    2.2327 H   0  0  0  0  0  0  0  0  0  0  0  0
   24.7709   25.5553    0.6837 H   0  0  0  0  0  0  0  0  0  0  0  0
   23.5445   26.8677    0.6837 H   0  0  0  0  0  0  0  0  0  0  0  0
   21.3934   20.8706    3.6673 H   0  0  0  0  0  0  0  0  0  0  0  0
   20.7289   21.5196    2.1297 H   0  0  0  0  0  0  0  0  0  0  0  0
   22.2913   20.6332    2.1297 H   0  0  0  0  0  0  0  0  0  0  0  0
   20.1555   36.1234    2.2996 H   0  0  0  0  0  0  0  0  0  0  0  0
   21.3423   36.9899    1.2665 H   0  0  0  0  0  0  0  0  0  0  0  0
   21.2940   35.1943    1.2665 H   0  0  0  0  0  0  0  0  0  0  0  0
   20.0401   30.2893    7.4982 H   0  0  0  0  0  0  0  0  0  0  0  0
   17.2172   29.1296    3.9472 H   0  0  0  0  0  0  0  0  0  0  0  0
   16.5339   25.2821    4.4555 H   0  0  0  0  0  0  0  0  0  0  0  0
   17.9419   23.8721    2.0722 H   0  0  0  0  0  0  0  0  0  0  0  0
   25.2033   28.3544    3.6502 H   0  0  0  0  0  0  0  0  0  0  0  0
   24.6758   29.0744    7.7226 H   0  0  0  0  0  0  0  0  0  0  0  0
   25.3367   36.8535    3.0552 H   0  0  0  0  0  0  0  0  0  0  0  0
  1  2  1  0
  2  3  1  0
  3  4  1  0
  4  5  1  0
  5  6  1  0
  7  8  1  0
  8  9  1  0
  9 10  1  0
 10 11  1  0
 11 12  1  0
 12 13  1  0
 13 14  1  0
 14 15  1  0
 15 16  1  0
 16 17  1  0
 17 18  1  0
 18 19  1  0
 19 20  1  0
 20 21  1  0
 21 22  1  0
 22 23  1  0
 23 24  1  0
 24 25  1  0
 25 26  1  0
 26 27  1  0
 27 28  1  0
 28 29  1  0
 29 30  1  0
 30 31  1  0
 31 32  1  0
 28 33  1  0
 32 33  1  0
 10 34  1  0
 16 35  1  0
 18 36  1  0
 20 37  1  0
 37 38  1  0
 38 39  1  0
 24 40  1  0
 26 41  1  0
  2 45  1  0
  6 45  1  0
  7 45  1  0
  1 46  1  0
 25 46  1  0
  1 47  1  0
  7 48  1  0
  8 49  1  0
  9 50  1  0
 13 50  1  0
  9 51  1  6
 12 52  1  0
 42 52  1  0
 14 53  1  0
 43 53  1  0
 21 54  1  0
 23 55  1  0
 30 56  1  0
 44 56  1  0
 31 57  1  0
  1 58  1  0
  2 59  1  6
  3 60  1  0
  3 61  1  0
  4 62  1  0
  4 63  1  0
  5 64  1  0
  5 65  1  0
  6 66  1  0
  6 67  1  0
  7 68  1  6
  8 69  1  0
 10 70  1  1
 11 71  1  0
 11 72  1  0
 12 73  1  1
 13 74  1  6
 14 75  1  1
 15 76  1  0
 15 77  1  0
 16 78  1  1
 17 79  1  0
 17 80  1  0
 18 81  1  0
 19 82  1  0
 19 83  1  0
 20 84  1  1
 21 85  1  0
 22 86  1  0
 22 87  1  0
 23 88  1  6
 24 89  1  6
 25 90  1  1
 26 91  1  1
 27 92  1  0
 27 93  1  0
 28 94  1  6
 29 95  1  0
 29 96  1  0
 30 97  1  6
 31 98  1  1
 32 99  1  0
 32100  1  0
 33101  1  0
 33102  1  0
 34103  1  0
 34104  1  0
 34105  1  0
 35106  1  0
 35107  1  0
 35108  1  0
 36109  1  0
 36110  1  0
 36111  1  0
 37112  1  0
 37113  1  0
 38114  1  0
 38115  1  0
 39116  1  0
 39117  1  0
 39118  1  0
 40119  1  0
 40120  1  0
 40121  1  0
 41122  1  0
 41123  1  0
 41124  1  0
 42125  1  0
 42126  1  0
 42127  1  0
 43128  1  0
 43129  1  0
 43130  1  0
 44131  1  0
 44132  1  0
 44133  1  0
 47134  1  0
 48135  1  0
 49136  1  0
 51137  1  0
 54138  1  0
 55139  1  0
 57140  1  0
M  END
>  <PDBID>  (1) 
2FKE

>  <PDB ID>  (1) 
2FKE

>  <Generic Name>  (1) 
Tacrolimus

>  <Brand Name>  (1) 
Ach-tacrolimus#Advagraf#Astagraf XL#Envarsus XR#Hecoria#Prograf#Protopic#Ran-tacrolimus#Sandoz Tacrolimus#Tacrolimus

>  <DrugBank ID>  (1) 
DB00864

>  <ATC Codes>  (1) 
D11AH01#L04AD02

>  <Ligand ID>  (1) 
FK5

>  <Target Name>  (1) 
Peptidyl-prolyl cis-trans isomerase FKBP1A

>  <UniProt ID>  (1) 
P62942

>  <PDB ID.1>  (1) 
2FKE

>  <Seq. Identity>  (1) 
100%

$$$$
