PDB_DB00642_88
     RDKit          3D

 52 54  0  0  0  0  0  0  0  0999 V2000
   48.3810  -41.6100   12.7340 C   0  0  0  0  0  0  0  0  0  0  0  0
   49.4300  -41.9280   11.8700 C   0  0  0  0  0  0  0  0  0  0  0  0
   50.2310  -40.9250   11.3150 C   0  0  0  0  0  0  0  0  0  0  0  0
   49.9970  -39.5830   11.6300 C   0  0  0  0  0  0  0  0  0  0  0  0
   48.9680  -39.2740   12.5260 C   0  0  0  0  0  0  0  0  0  0  0  0
   48.1520  -40.2730   13.0660 C   0  0  0  0  0  0  0  0  0  0  0  0
   47.5160  -42.6970   13.3490 C   0  0  0  0  0  0  0  0  0  0  0  0
   46.6510  -43.4430   12.3380 C   0  0  0  0  0  0  0  0  0  0  0  0
   45.4350  -42.6450   11.8810 C   0  0  0  0  0  0  0  0  0  0  0  0
   44.4100  -42.1320   12.6850 C   0  0  0  0  0  0  0  0  0  0  0  0
   43.4870  -41.5140   11.9250 N   0  0  0  0  0  0  0  0  0  0  0  0
   43.9030  -41.6390   10.6490 C   0  0  0  0  0  0  0  0  0  0  0  0
   45.0950  -42.3300   10.5730 C   0  0  0  0  0  0  0  0  0  0  0  0
   45.6750  -42.5450    9.2230 C   0  0  0  0  0  0  0  0  0  0  0  0
   46.7530  -43.1740    9.0630 O   0  0  0  0  0  0  0  0  0  0  0  0
   44.9970  -42.0300    8.1580 N   0  0  0  0  0  0  0  0  0  0  0  0
   43.8290  -41.3410    8.3230 C   0  0  0  0  0  0  0  0  0  0  0  0
   43.2870  -41.1500    9.5480 N   0  0  0  0  0  0  0  0  0  0  0  0
   43.1700  -40.8340    7.2360 N   0  0  0  0  0  0  0  0  0  0  0  0
   50.8630  -38.4870   11.0590 C   0  0  0  0  0  0  0  0  0  0  0  0
   52.0480  -38.7170   10.8400 O   0  0  0  0  0  0  0  0  0  0  0  0
   50.3340  -37.2870   10.7900 N   0  0  0  0  0  0  0  0  0  0  0  0
   51.0800  -36.1330   10.2920 C   0  0  1  0  0  0  0  0  0  0  0  0
   51.0800  -36.2160    8.7580 C   0  0  0  0  0  0  0  0  0  0  0  0
   52.4460  -36.0350    8.0790 C   0  0  0  0  0  0  0  0  0  0  0  0
   52.4130  -35.0840    6.8850 C   0  0  0  0  0  0  0  0  0  0  0  0
   51.7420  -35.3810    5.8640 O   0  0  0  0  0  0  0  0  0  0  0  0
   53.0680  -34.0130    6.9320 O   0  0  0  0  0  0  0  0  0  0  0  0
   50.3300  -34.8900   10.7310 C   0  0  0  0  0  0  0  0  0  0  0  0
   49.1070  -34.9880   10.9780 O   0  0  0  0  0  0  0  0  0  0  0  0
   50.8700  -33.7680   10.7720 O   0  0  0  0  0  0  0  0  0  0  0  0
   49.6292  -42.9811   11.6224 H   0  0  0  0  0  0  0  0  0  0  0  0
   51.0477  -41.1927   10.6285 H   0  0  0  0  0  0  0  0  0  0  0  0
   48.7976  -38.2254   12.8111 H   0  0  0  0  0  0  0  0  0  0  0  0
   47.3326  -40.0067   13.7499 H   0  0  0  0  0  0  0  0  0  0  0  0
   48.1748  -43.4248   13.8453 H   0  0  0  0  0  0  0  0  0  0  0  0
   46.8305  -42.2008   14.0518 H   0  0  0  0  0  0  0  0  0  0  0  0
   47.2666  -43.6769   11.4569 H   0  0  0  0  0  0  0  0  0  0  0  0
   46.2776  -44.3505   12.8350 H   0  0  0  0  0  0  0  0  0  0  0  0
   44.3654  -42.2212   13.7805 H   0  0  0  0  0  0  0  0  0  0  0  0
   42.6333  -41.0402   12.2529 H   0  0  0  0  0  0  0  0  0  0  0  0
   42.4026  -40.6306    9.6427 H   0  0  0  0  0  0  0  0  0  0  0  0
   42.2895  -40.3149    7.3635 H   0  0  0  0  0  0  0  0  0  0  0  0
   43.5545  -40.9715    6.2904 H   0  0  0  0  0  0  0  0  0  0  0  0
   49.3229  -37.1677   10.9461 H   0  0  0  0  0  0  0  0  0  0  0  0
   52.1125  -36.1083   10.6705 H   0  0  0  0  0  0  0  0  0  0  0  0
   50.6899  -37.2044    8.4734 H   0  0  0  0  0  0  0  0  0  0  0  0
   50.4610  -35.3746    8.4132 H   0  0  0  0  0  0  0  0  0  0  0  0
   53.1535  -35.6370    8.8213 H   0  0  0  0  0  0  0  0  0  0  0  0
   52.7505  -37.0210    7.6981 H   0  0  0  0  0  0  0  0  0  0  0  0
   51.7202  -34.7648    5.0895 H   0  0  0  0  0  0  0  0  0  0  0  0
   48.5948  -34.1913   11.2663 H   0  0  0  0  0  0  0  0  0  0  0  0
  1  2  2  0
  2  3  1  0
  3  4  2  0
  4  5  1  0
  1  6  1  0
  5  6  2  0
  1  7  1  0
  7  8  1  0
  8  9  1  0
  9 10  2  0
 10 11  1  0
 11 12  1  0
  9 13  1  0
 12 13  2  0
 13 14  1  0
 14 15  2  0
 14 16  1  0
 16 17  2  0
 12 18  1  0
 17 18  1  0
 17 19  1  0
  4 20  1  0
 20 21  2  0
 20 22  1  0
 22 23  1  0
 23 24  1  0
 24 25  1  0
 25 26  1  0
 26 27  1  0
 26 28  2  0
 23 29  1  0
 29 30  1  0
 29 31  2  0
  2 32  1  0
  3 33  1  0
  5 34  1  0
  6 35  1  0
  7 36  1  0
  7 37  1  0
  8 38  1  0
  8 39  1  0
 10 40  1  0
 11 41  1  0
 18 42  1  0
 19 43  1  0
 19 44  1  0
 22 45  1  0
 23 46  1  1
 24 47  1  0
 24 48  1  0
 25 49  1  0
 25 50  1  0
 27 51  1  0
 30 52  1  0
M  END
$$$$
