PDB_DB00154_99
     RDKit          3D

 64 63  0  0  0  0  0  0  0  0999 V2000
  253.6080  111.4460  -37.4340 C   0  0  0  0  0  0  0  0  0  0  0  0
  253.4410  111.5530  -36.1990 O   0  0  0  0  0  0  0  0  0  0  0  0
  253.7050  112.4220  -38.2050 O   0  0  0  0  0  0  0  0  0  0  0  0
  253.6840  110.0760  -38.0440 C   0  0  0  0  0  0  0  0  0  0  0  0
  252.6580  109.9170  -39.1280 C   0  0  0  0  0  0  0  0  0  0  0  0
  252.1360  108.5120  -39.1530 C   0  0  0  0  0  0  0  0  0  0  0  0
  253.0730  107.5960  -39.8780 C   0  0  0  0  0  0  0  0  0  0  0  0
  252.3900  106.9930  -41.0840 C   0  0  0  0  0  0  0  0  0  0  0  0
  251.2100  106.1050  -40.7030 C   0  0  0  0  0  0  0  0  0  0  0  0
  249.9860  106.6730  -40.0220 C   0  0  0  0  0  0  0  0  0  0  0  0
  249.5360  106.1520  -38.8320 C   0  0  0  0  0  0  0  0  0  0  0  0
  250.2450  105.0000  -38.1760 C   0  0  0  0  0  0  0  0  0  0  0  0
  250.3290  103.6710  -38.9310 C   0  0  0  0  0  0  0  0  0  0  0  0
  250.1830  102.4480  -38.2850 C   0  0  0  0  0  0  0  0  0  0  0  0
  249.9390  102.3580  -36.8250 C   0  0  0  0  0  0  0  0  0  0  0  0
  250.9050  101.5540  -35.9710 C   0  0  0  0  0  0  0  0  0  0  0  0
  250.6860  101.4550  -34.6250 C   0  0  0  0  0  0  0  0  0  0  0  0
  249.4600  102.1780  -34.0020 C   0  0  0  0  0  0  0  0  0  0  0  0
  248.5040  101.4870  -33.0310 C   0  0  0  0  0  0  0  0  0  0  0  0
  249.1700  101.1680  -31.7010 C   0  0  0  0  0  0  0  0  0  0  0  0
  248.1700  100.6500  -30.6600 C   0  0  0  0  0  0  0  0  0  0  0  0
  246.9730  101.5870  -30.4490 C   0  0  0  0  0  0  0  0  0  0  0  0
  252.5179  111.4384  -37.5808 H   0  0  0  0  0  0  0  0  0  0  0  0
  254.1729  111.0841  -35.7252 H   0  0  0  0  0  0  0  0  0  0  0  0
  253.7877  113.2542  -37.6751 H   0  0  0  0  0  0  0  0  0  0  0  0
  254.6864  109.9269  -38.4717 H   0  0  0  0  0  0  0  0  0  0  0  0
  253.4870  109.3298  -37.2601 H   0  0  0  0  0  0  0  0  0  0  0  0
  251.8242  110.6100  -38.9420 H   0  0  0  0  0  0  0  0  0  0  0  0
  253.1267  110.1403  -40.0978 H   0  0  0  0  0  0  0  0  0  0  0  0
  252.0154  108.1561  -38.1192 H   0  0  0  0  0  0  0  0  0  0  0  0
  251.1708  108.5097  -39.6806 H   0  0  0  0  0  0  0  0  0  0  0  0
  253.9546  108.1655  -40.2074 H   0  0  0  0  0  0  0  0  0  0  0  0
  253.3789  106.7868  -39.1986 H   0  0  0  0  0  0  0  0  0  0  0  0
  252.0254  107.8076  -41.7271 H   0  0  0  0  0  0  0  0  0  0  0  0
  253.1266  106.3647  -41.6062 H   0  0  0  0  0  0  0  0  0  0  0  0
  250.8588  105.6377  -41.6348 H   0  0  0  0  0  0  0  0  0  0  0  0
  251.6395  105.4606  -39.9218 H   0  0  0  0  0  0  0  0  0  0  0  0
  250.1945  107.7375  -39.8393 H   0  0  0  0  0  0  0  0  0  0  0  0
  249.1769  106.4166  -40.7217 H   0  0  0  0  0  0  0  0  0  0  0  0
  249.5427  106.9783  -38.1059 H   0  0  0  0  0  0  0  0  0  0  0  0
  248.5662  105.7137  -39.1101 H   0  0  0  0  0  0  0  0  0  0  0  0
  251.2763  105.3252  -37.9745 H   0  0  0  0  0  0  0  0  0  0  0  0
  249.6293  104.7710  -37.2937 H   0  0  0  0  0  0  0  0  0  0  0  0
  249.5480  103.7061  -39.7049 H   0  0  0  0  0  0  0  0  0  0  0  0
  251.3846  103.6458  -39.2395 H   0  0  0  0  0  0  0  0  0  0  0  0
  249.3362  101.9414  -38.7712 H   0  0  0  0  0  0  0  0  0  0  0  0
  251.1891  102.0136  -38.3797 H   0  0  0  0  0  0  0  0  0  0  0  0
  249.9389  103.3858  -36.4330 H   0  0  0  0  0  0  0  0  0  0  0  0
  248.9908  101.8059  -36.7467 H   0  0  0  0  0  0  0  0  0  0  0  0
  250.9107  100.5294  -36.3713 H   0  0  0  0  0  0  0  0  0  0  0  0
  251.8462  102.1191  -36.0406 H   0  0  0  0  0  0  0  0  0  0  0  0
  250.5794  100.3847  -34.3945 H   0  0  0  0  0  0  0  0  0  0  0  0
  251.5489  101.9725  -34.1805 H   0  0  0  0  0  0  0  0  0  0  0  0
  249.8604  103.0514  -33.4664 H   0  0  0  0  0  0  0  0  0  0  0  0
  248.8170  102.3287  -34.8816 H   0  0  0  0  0  0  0  0  0  0  0  0
  247.6450  102.1492  -32.8476 H   0  0  0  0  0  0  0  0  0  0  0  0
  248.1863  100.5376  -33.4868 H   0  0  0  0  0  0  0  0  0  0  0  0
  249.9394  100.3993  -31.8658 H   0  0  0  0  0  0  0  0  0  0  0  0
  249.6093  102.0986  -31.3124 H   0  0  0  0  0  0  0  0  0  0  0  0
  247.7932   99.6721  -30.9943 H   0  0  0  0  0  0  0  0  0  0  0  0
  248.7040  100.5827  -29.7007 H   0  0  0  0  0  0  0  0  0  0  0  0
  246.7993  101.7230  -29.3713 H   0  0  0  0  0  0  0  0  0  0  0  0
  247.1845  102.5620  -30.9122 H   0  0  0  0  0  0  0  0  0  0  0  0
  246.0773  101.1476  -30.9122 H   0  0  0  0  0  0  0  0  0  0  0  0
  1  2  1  0
  1  3  1  0
  1  4  1  0
  4  5  1  0
  5  6  1  0
  6  7  1  0
  7  8  1  0
  8  9  1  0
  9 10  1  0
 10 11  1  0
 11 12  1  0
 12 13  1  0
 13 14  1  0
 14 15  1  0
 15 16  1  0
 16 17  1  0
 17 18  1  0
 18 19  1  0
 19 20  1  0
 20 21  1  0
 21 22  1  0
  1 23  1  0
  2 24  1  0
  3 25  1  0
  4 26  1  0
  4 27  1  0
  5 28  1  0
  5 29  1  0
  6 30  1  0
  6 31  1  0
  7 32  1  0
  7 33  1  0
  8 34  1  0
  8 35  1  0
  9 36  1  0
  9 37  1  0
 10 38  1  0
 10 39  1  0
 11 40  1  0
 11 41  1  0
 12 42  1  0
 12 43  1  0
 13 44  1  0
 13 45  1  0
 14 46  1  0
 14 47  1  0
 15 48  1  0
 15 49  1  0
 16 50  1  0
 16 51  1  0
 17 52  1  0
 17 53  1  0
 18 54  1  0
 18 55  1  0
 19 56  1  0
 19 57  1  0
 20 58  1  0
 20 59  1  0
 21 60  1  0
 21 61  1  0
 22 62  1  0
 22 63  1  0
 22 64  1  0
M  END
>  <PDBID>  (1) 
1FE2

>  <PDB ID>  (1) 
1FE2

>  <Generic Name>  (1) 
Dihomo-gamma-linolenic acid

>  <Brand Name>  (1) 
Star GLA#Tona-lean 1000 CLA

>  <DrugBank ID>  (1) 
DB00154

>  <ATC Codes>  (1) 
nan

>  <Ligand ID>  (1) 
LAX

>  <Target Name>  (1) 
Prostaglandin G/H synthase 1

>  <UniProt ID>  (1) 
P23219

>  <PDB ID.1>  (1) 
1FE2

>  <Seq. Identity>  (1) 
89%

$$$$
