PDB_DB00788_98
     RDKit          3D

 31 32  0  0  0  0  0  0  0  0999 V2000
  -44.1480  -41.3830  -66.4990 C   0  0  0  0  0  0  0  0  0  0  0  0
  -42.9290  -40.7550  -66.6440 O   0  0  0  0  0  0  0  0  0  0  0  0
  -44.6670  -42.0250  -67.6260 C   0  0  0  0  0  0  0  0  0  0  0  0
  -49.9280  -44.1660  -65.1580 C   0  0  2  0  0  0  0  0  0  0  0  0
  -45.8920  -42.6840  -67.5640 C   0  0  0  0  0  0  0  0  0  0  0  0
  -46.6230  -42.7020  -66.3810 C   0  0  0  0  0  0  0  0  0  0  0  0
  -46.1230  -42.0600  -65.2440 C   0  0  0  0  0  0  0  0  0  0  0  0
  -44.8810  -41.3950  -65.3050 C   0  0  0  0  0  0  0  0  0  0  0  0
  -47.8500  -43.3680  -66.3340 C   0  0  0  0  0  0  0  0  0  0  0  0
  -48.5980  -43.3980  -65.1620 C   0  0  0  0  0  0  0  0  0  0  0  0
  -50.9430  -43.5850  -64.1600 C   0  0  0  0  0  0  0  0  0  0  0  0
  -46.8760  -42.0970  -64.0710 C   0  0  0  0  0  0  0  0  0  0  0  0
  -48.1000  -42.7680  -64.0180 C   0  0  0  0  0  0  0  0  0  0  0  0
  -42.3470  -40.1500  -65.4610 C   0  0  0  0  0  0  0  0  0  0  0  0
  -49.2390  -45.8980  -63.6330 O   0  0  0  0  0  0  0  0  0  0  0  0
  -49.7060  -46.4900  -65.7160 O   0  0  0  0  0  0  0  0  0  0  0  0
  -49.6100  -45.6400  -64.8020 C   0  0  0  0  0  0  0  0  0  0  0  0
  -44.1031  -42.0098  -68.5704 H   0  0  0  0  0  0  0  0  0  0  0  0
  -50.3938  -44.0828  -66.1510 H   0  0  0  0  0  0  0  0  0  0  0  0
  -46.2841  -43.1937  -68.4565 H   0  0  0  0  0  0  0  0  0  0  0  0
  -44.4870  -40.8848  -64.4137 H   0  0  0  0  0  0  0  0  0  0  0  0
  -48.2288  -43.8744  -67.2341 H   0  0  0  0  0  0  0  0  0  0  0  0
  -50.6008  -43.7809  -63.1331 H   0  0  0  0  0  0  0  0  0  0  0  0
  -51.0310  -42.4997  -64.3164 H   0  0  0  0  0  0  0  0  0  0  0  0
  -51.9234  -44.0587  -64.3164 H   0  0  0  0  0  0  0  0  0  0  0  0
  -46.4994  -41.5886  -63.1712 H   0  0  0  0  0  0  0  0  0  0  0  0
  -48.6706  -42.8005  -63.0781 H   0  0  0  0  0  0  0  0  0  0  0  0
  -42.7862  -40.6066  -64.5618 H   0  0  0  0  0  0  0  0  0  0  0  0
  -41.2594  -40.3150  -65.4621 H   0  0  0  0  0  0  0  0  0  0  0  0
  -42.5540  -39.0696  -65.4621 H   0  0  0  0  0  0  0  0  0  0  0  0
  -49.5112  -47.4424  -65.5287 H   0  0  0  0  0  0  0  0  0  0  0  0
  1  2  1  0
  1  3  2  0
  3  5  1  0
  5  6  2  0
  6  7  1  0
  1  8  1  0
  7  8  2  0
  6  9  1  0
  4 10  1  0
  9 10  2  0
  4 11  1  0
  7 12  1  0
 10 13  1  0
 12 13  2  0
  2 14  1  0
  4 17  1  0
 15 17  2  0
 16 17  1  0
  3 18  1  0
  4 19  1  6
  5 20  1  0
  8 21  1  0
  9 22  1  0
 11 23  1  0
 11 24  1  0
 11 25  1  0
 12 26  1  0
 13 27  1  0
 14 28  1  0
 14 29  1  0
 14 30  1  0
 16 31  1  0
M  END
$$$$
