PDB_DB06626_96
     RDKit          3D

140146  0  0  0  0  0  0  0  0999 V2000
   62.0220   19.2470   46.7580 O   0  0  0  0  0  0  0  0  0  0  0  0
   62.4410   19.2240   47.8990 C   0  0  0  0  0  0  0  0  0  0  0  0
   62.4980   20.4290   48.6620 N   0  0  0  0  0  0  0  0  0  0  0  0
   62.0520   21.6740   48.0700 C   0  0  0  0  0  0  0  0  0  0  0  0
   62.9000   17.9420   48.5020 C   0  0  0  0  0  0  0  0  0  0  0  0
   64.1850   17.8490   49.0220 C   0  0  0  0  0  0  0  0  0  0  0  0
   64.6240   16.6610   49.5860 C   0  0  0  0  0  0  0  0  0  0  0  0
   63.7750   15.5550   49.6320 C   0  0  0  0  0  0  0  0  0  0  0  0
   62.0460   16.8310   48.5450 C   0  0  0  0  0  0  0  0  0  0  0  0
   62.4850   15.6480   49.1080 C   0  0  0  0  0  0  0  0  0  0  0  0
   60.3880   16.9320   47.8840 S   0  0  0  0  0  0  0  0  0  0  0  0
   59.3910   15.7140   48.7410 C   0  0  0  0  0  0  0  0  0  0  0  0
   59.3110   15.7500   50.1410 C   0  0  0  0  0  0  0  0  0  0  0  0
   58.5370   14.7940   50.8280 C   0  0  0  0  0  0  0  0  0  0  0  0
   58.7100   14.7330   48.0280 C   0  0  0  0  0  0  0  0  0  0  0  0
   57.9160   13.7580   48.7300 C   0  0  0  0  0  0  0  0  0  0  0  0
   57.1460   12.6910   48.2980 N   0  0  0  0  0  0  0  0  0  0  0  0
   56.5920   12.0680   49.3930 N   0  0  0  0  0  0  0  0  0  0  0  0
   56.9880   12.7120   50.5070 C   0  0  0  0  0  0  0  0  0  0  0  0
   57.8360   13.7940   50.1000 C   0  0  0  0  0  0  0  0  0  0  0  0
   56.6090   12.3550   51.9180 C   0  0  0  0  0  0  0  0  0  0  0  0
   57.3130   12.8630   52.9770 C   0  0  0  0  0  0  0  0  0  0  0  0
   57.0670   12.3110   54.3540 C   0  0  0  0  0  0  0  0  0  0  0  0
   57.6910   12.8560   55.4080 N   0  0  0  0  0  0  0  0  0  0  0  0
   57.5010   12.3940   56.6560 C   0  0  0  0  0  0  0  0  0  0  0  0
   56.6410   11.3290   56.8630 C   0  0  0  0  0  0  0  0  0  0  0  0
   55.9830   10.7480   55.7900 C   0  0  0  0  0  0  0  0  0  0  0  0
   56.1980   11.2450   54.5130 C   0  0  0  0  0  0  0  0  0  0  0  0
   72.1320   48.2440   27.6910 O   0  0  0  0  0  0  0  0  0  0  0  0
   73.0800   48.2910   26.9330 C   0  0  0  0  0  0  0  0  0  0  0  0
   73.6580   49.5520   26.5950 N   0  0  0  0  0  0  0  0  0  0  0  0
   73.1090   50.7660   27.1630 C   0  0  0  0  0  0  0  0  0  0  0  0
   73.6380   47.0380   26.3520 C   0  0  0  0  0  0  0  0  0  0  0  0
   73.9390   46.9840   24.9970 C   0  0  0  0  0  0  0  0  0  0  0  0
   74.4580   45.8240   24.4450 C   0  0  0  0  0  0  0  0  0  0  0  0
   74.6800   44.7060   25.2490 C   0  0  0  0  0  0  0  0  0  0  0  0
   73.8580   45.9140   27.1640 C   0  0  0  0  0  0  0  0  0  0  0  0
   74.3770   44.7590   26.6120 C   0  0  0  0  0  0  0  0  0  0  0  0
   73.4810   45.9670   28.9100 S   0  0  0  0  0  0  0  0  0  0  0  0
   74.5880   44.8280   29.7460 C   0  0  0  0  0  0  0  0  0  0  0  0
   75.9700   44.9100   29.5180 C   0  0  0  0  0  0  0  0  0  0  0  0
   76.8480   44.0170   30.1650 C   0  0  0  0  0  0  0  0  0  0  0  0
   74.0810   43.8610   30.6070 C   0  0  0  0  0  0  0  0  0  0  0  0
   74.9790   42.9490   31.2690 C   0  0  0  0  0  0  0  0  0  0  0  0
   74.7640   41.9110   32.1600 N   0  0  0  0  0  0  0  0  0  0  0  0
   75.9760   41.3510   32.4910 N   0  0  0  0  0  0  0  0  0  0  0  0
   76.9550   42.0030   31.8360 C   0  0  0  0  0  0  0  0  0  0  0  0
   76.3320   43.0300   31.0480 C   0  0  0  0  0  0  0  0  0  0  0  0
   78.4280   41.6980   31.9270 C   0  0  0  0  0  0  0  0  0  0  0  0
   79.3350   42.3310   31.1170 C   0  0  0  0  0  0  0  0  0  0  0  0
   80.7790   41.9120   31.1660 C   0  0  0  0  0  0  0  0  0  0  0  0
   81.6710   42.4940   30.3510 N   0  0  0  0  0  0  0  0  0  0  0  0
   82.9710   42.1460   30.3640 C   0  0  0  0  0  0  0  0  0  0  0  0
   83.4070   41.1640   31.2370 C   0  0  0  0  0  0  0  0  0  0  0  0
   82.5060   40.5460   32.0910 C   0  0  0  0  0  0  0  0  0  0  0  0
   81.1710   40.9250   32.0560 C   0  0  0  0  0  0  0  0  0  0  0  0
   61.0336   19.3013   46.7705 H   0  0  0  0  0  0  0  0  0  0  0  0
   63.4599   19.4103   47.5286 H   0  0  0  0  0  0  0  0  0  0  0  0
   61.9255   20.2767   49.5046 H   0  0  0  0  0  0  0  0  0  0  0  0
   61.7962   22.3880   48.8668 H   0  0  0  0  0  0  0  0  0  0  0  0
   62.8561   22.0925   47.4469 H   0  0  0  0  0  0  0  0  0  0  0  0
   61.1651   21.4867   47.4469 H   0  0  0  0  0  0  0  0  0  0  0  0
   63.2734   17.6141   47.5206 H   0  0  0  0  0  0  0  0  0  0  0  0
   64.8771   18.0842   48.2000 H   0  0  0  0  0  0  0  0  0  0  0  0
   64.1599   18.5392   49.8782 H   0  0  0  0  0  0  0  0  0  0  0  0
   65.5168   16.3527   49.0222 H   0  0  0  0  0  0  0  0  0  0  0  0
   64.7599   16.9197   50.6465 H   0  0  0  0  0  0  0  0  0  0  0  0
   64.2810   14.7425   49.0900 H   0  0  0  0  0  0  0  0  0  0  0  0
   63.6028   15.4107   50.7088 H   0  0  0  0  0  0  0  0  0  0  0  0
   62.4221   16.5039   47.5644 H   0  0  0  0  0  0  0  0  0  0  0  0
   62.4043   14.8771   48.3275 H   0  0  0  0  0  0  0  0  0  0  0  0
   61.8457   15.5417   49.9968 H   0  0  0  0  0  0  0  0  0  0  0  0
   60.2633   15.0471   48.8080 H   0  0  0  0  0  0  0  0  0  0  0  0
   60.3394   15.6575   50.5201 H   0  0  0  0  0  0  0  0  0  0  0  0
   58.7813   16.6934   50.3394 H   0  0  0  0  0  0  0  0  0  0  0  0
   59.2166   14.2692   51.5156 H   0  0  0  0  0  0  0  0  0  0  0  0
   57.7311   15.3940   51.2758 H   0  0  0  0  0  0  0  0  0  0  0  0
   58.0337   15.2549   47.3350 H   0  0  0  0  0  0  0  0  0  0  0  0
   59.5184   14.1323   47.5858 H   0  0  0  0  0  0  0  0  0  0  0  0
   57.0400   14.4194   48.6578 H   0  0  0  0  0  0  0  0  0  0  0  0
   56.3970   13.0334   47.6794 H   0  0  0  0  0  0  0  0  0  0  0  0
   55.5647   12.0961   49.3239 H   0  0  0  0  0  0  0  0  0  0  0  0
   57.8647   12.0513   50.5773 H   0  0  0  0  0  0  0  0  0  0  0  0
   56.9611   14.4572   50.0315 H   0  0  0  0  0  0  0  0  0  0  0  0
   55.5643   12.6716   52.0533 H   0  0  0  0  0  0  0  0  0  0  0  0
   56.8296   11.2785   51.9683 H   0  0  0  0  0  0  0  0  0  0  0  0
   58.3799   12.7116   52.7559 H   0  0  0  0  0  0  0  0  0  0  0  0
   56.9655   13.9043   53.0467 H   0  0  0  0  0  0  0  0  0  0  0  0
   57.9034   11.6088   54.2219 H   0  0  0  0  0  0  0  0  0  0  0  0
   58.7006   12.7769   55.2201 H   0  0  0  0  0  0  0  0  0  0  0  0
   58.4864   12.0891   57.0382 H   0  0  0  0  0  0  0  0  0  0  0  0
   57.0056   13.2310   57.1698 H   0  0  0  0  0  0  0  0  0  0  0  0
   57.2310   10.5335   57.3416 H   0  0  0  0  0  0  0  0  0  0  0  0
   55.8234   11.7757   57.4478 H   0  0  0  0  0  0  0  0  0  0  0  0
   56.2703    9.6863   55.7739 H   0  0  0  0  0  0  0  0  0  0  0  0
   54.9232   10.9714   55.9819 H   0  0  0  0  0  0  0  0  0  0  0  0
   55.2208   11.5619   54.1197 H   0  0  0  0  0  0  0  0  0  0  0  0
   56.6901   10.4166   53.9823 H   0  0  0  0  0  0  0  0  0  0  0  0
   72.4562   48.2601   28.6263 H   0  0  0  0  0  0  0  0  0  0  0  0
   72.3926   48.3771   26.0786 H   0  0  0  0  0  0  0  0  0  0  0  0
   74.6483   49.5119   26.8753 H   0  0  0  0  0  0  0  0  0  0  0  0
   73.1376   50.7028   28.2608 H   0  0  0  0  0  0  0  0  0  0  0  0
   73.7046   51.6287   26.8298 H   0  0  0  0  0  0  0  0  0  0  0  0
   72.0679   50.8885   26.8298 H   0  0  0  0  0  0  0  0  0  0  0  0
   72.6189   46.6826   26.1398 H   0  0  0  0  0  0  0  0  0  0  0  0
   73.0063   47.2023   24.4563 H   0  0  0  0  0  0  0  0  0  0  0  0
   74.7656   47.7025   24.8945 H   0  0  0  0  0  0  0  0  0  0  0  0
   73.7627   45.5114   23.6520 H   0  0  0  0  0  0  0  0  0  0  0  0
   75.4725   46.1214   24.1411 H   0  0  0  0  0  0  0  0  0  0  0  0
   74.0861   43.8842   24.8225 H   0  0  0  0  0  0  0  0  0  0  0  0
   75.7744   44.5957   25.2354 H   0  0  0  0  0  0  0  0  0  0  0  0
   72.8393   45.5591   26.9488 H   0  0  0  0  0  0  0  0  0  0  0  0
   73.6464   43.9597   26.8052 H   0  0  0  0  0  0  0  0  0  0  0  0
   75.3632   44.6732   27.0915 H   0  0  0  0  0  0  0  0  0  0  0  0
   74.4919   44.1205   28.9092 H   0  0  0  0  0  0  0  0  0  0  0  0
   76.1214   44.7757   28.4368 H   0  0  0  0  0  0  0  0  0  0  0  0
   76.2389   45.8849   29.9508 H   0  0  0  0  0  0  0  0  0  0  0  0
   77.3959   43.4819   29.3754 H   0  0  0  0  0  0  0  0  0  0  0  0
   77.4313   44.6715   30.8293 H   0  0  0  0  0  0  0  0  0  0  0  0
   73.5302   44.3943   31.3958 H   0  0  0  0  0  0  0  0  0  0  0  0
   73.4989   43.2070   29.9411 H   0  0  0  0  0  0  0  0  0  0  0  0
   75.0725   43.6517   32.1101 H   0  0  0  0  0  0  0  0  0  0  0  0
   74.3068   42.2730   33.0090 H   0  0  0  0  0  0  0  0  0  0  0  0
   76.1274   41.4314   33.5066 H   0  0  0  0  0  0  0  0  0  0  0  0
   76.8603   41.3003   30.9950 H   0  0  0  0  0  0  0  0  0  0  0  0
   76.4273   43.7326   31.8890 H   0  0  0  0  0  0  0  0  0  0  0  0
   78.7285   41.9167   32.9623 H   0  0  0  0  0  0  0  0  0  0  0  0
   78.4795   40.6564   31.5770 H   0  0  0  0  0  0  0  0  0  0  0  0
   78.9942   42.1898   30.0807 H   0  0  0  0  0  0  0  0  0  0  0  0
   79.3488   43.3636   31.4958 H   0  0  0  0  0  0  0  0  0  0  0  0
   80.5823   41.1447   30.4027 H   0  0  0  0  0  0  0  0  0  0  0  0
   81.3365   42.3301   29.3907 H   0  0  0  0  0  0  0  0  0  0  0  0
   83.2205   41.8045   29.3486 H   0  0  0  0  0  0  0  0  0  0  0  0
   83.4769   43.0539   30.7244 H   0  0  0  0  0  0  0  0  0  0  0  0
   83.8580   40.3706   30.6229 H   0  0  0  0  0  0  0  0  0  0  0  0
   84.0706   41.7115   31.9225 H   0  0  0  0  0  0  0  0  0  0  0  0
   82.5403   39.4690   31.8698 H   0  0  0  0  0  0  0  0  0  0  0  0
   82.8398   40.8556   33.0923 H   0  0  0  0  0  0  0  0  0  0  0  0
   80.9086   41.2769   33.0646 H   0  0  0  0  0  0  0  0  0  0  0  0
   80.6488   40.0245   31.7004 H   0  0  0  0  0  0  0  0  0  0  0  0
  1  2  1  0
  2  3  1  0
  3  4  1  0
  2  5  1  0
  5  6  1  0
  6  7  1  0
  7  8  1  0
  5  9  1  0
  8 10  1  0
  9 10  1  0
  9 11  1  0
 11 12  1  0
 12 13  1  0
 13 14  1  0
 12 15  1  0
 15 16  1  0
 16 17  1  0
 17 18  1  0
 18 19  1  0
 14 20  1  0
 16 20  1  0
 19 20  1  0
 19 21  1  0
 21 22  1  0
 22 23  1  0
 23 24  1  0
 24 25  1  0
 25 26  1  0
 26 27  1  0
 23 28  1  0
 27 28  1  0
 29 30  1  0
 30 31  1  0
 31 32  1  0
 30 33  1  0
 33 34  1  0
 34 35  1  0
 35 36  1  0
 33 37  1  0
 36 38  1  0
 37 38  1  0
 37 39  1  0
 39 40  1  0
 40 41  1  0
 41 42  1  0
 40 43  1  0
 43 44  1  0
 44 45  1  0
 45 46  1  0
 46 47  1  0
 42 48  1  0
 44 48  1  0
 47 48  1  0
 47 49  1  0
 49 50  1  0
 50 51  1  0
 51 52  1  0
 52 53  1  0
 53 54  1  0
 54 55  1  0
 51 56  1  0
 55 56  1  0
  1 57  1  0
  2 58  1  0
  3 59  1  0
  4 60  1  0
  4 61  1  0
  4 62  1  0
  5 63  1  0
  6 64  1  0
  6 65  1  0
  7 66  1  0
  7 67  1  0
  8 68  1  0
  8 69  1  0
  9 70  1  0
 10 71  1  0
 10 72  1  0
 12 73  1  0
 13 74  1  0
 13 75  1  0
 14 76  1  0
 14 77  1  0
 15 78  1  0
 15 79  1  0
 16 80  1  0
 17 81  1  0
 18 82  1  0
 19 83  1  0
 20 84  1  0
 21 85  1  0
 21 86  1  0
 22 87  1  0
 22 88  1  0
 23 89  1  0
 24 90  1  0
 25 91  1  0
 25 92  1  0
 26 93  1  0
 26 94  1  0
 27 95  1  0
 27 96  1  0
 28 97  1  0
 28 98  1  0
 29 99  1  0
 30100  1  0
 31101  1  0
 32102  1  0
 32103  1  0
 32104  1  0
 33105  1  0
 34106  1  0
 34107  1  0
 35108  1  0
 35109  1  0
 36110  1  0
 36111  1  0
 37112  1  0
 38113  1  0
 38114  1  0
 40115  1  0
 41116  1  0
 41117  1  0
 42118  1  0
 42119  1  0
 43120  1  0
 43121  1  0
 44122  1  0
 45123  1  0
 46124  1  0
 47125  1  0
 48126  1  0
 49127  1  0
 49128  1  0
 50129  1  0
 50130  1  0
 51131  1  0
 52132  1  0
 53133  1  0
 53134  1  0
 54135  1  0
 54136  1  0
 55137  1  0
 55138  1  0
 56139  1  0
 56140  1  0
M  END
>  <PDBID>  (1) 
4TWP

>  <PDB ID>  (1) 
4TWP

>  <Generic Name>  (1) 
Axitinib

>  <Brand Name>  (1) 
Inlyta

>  <DrugBank ID>  (1) 
DB06626

>  <ATC Codes>  (1) 
L01XE17

>  <Ligand ID>  (1) 
AXI

>  <Target Name>  (1) 
Vascular endothelial growth factor receptor 1

>  <UniProt ID>  (1) 
P17948

>  <PDB ID.1>  (1) 
4TWP

>  <Seq. Identity>  (1) 
42%

$$$$
