PDB_DB06401_99
     RDKit          3D

348367  0  0  0  0  0  0  0  0999 V2000
  -10.2670  -10.0420   29.1670 C   0  0  1  0  0  0  0  0  0  0  0  0
  -10.9010   -9.8030   27.8310 C   0  0  0  0  0  0  0  0  0  0  0  0
  -10.3700   -9.0780   26.5430 C   0  0  0  0  0  0  0  0  0  0  0  0
   -9.1590   -9.7780   26.2080 C   0  0  0  0  0  0  0  0  0  0  0  0
   -8.4140   -9.3490   27.6090 C   0  0  0  0  0  0  0  0  0  0  0  0
   -8.6240   -9.5030   29.1800 C   0  0  1  0  0  0  0  0  0  0  0  0
   -9.8160   -8.9990   29.9780 N   0  0  0  0  0  0  0  0  0  0  0  0
   -9.2840   -9.4930   31.2970 C   0  0  0  0  0  0  0  0  0  0  0  0
   -8.1620  -10.5600   31.5350 C   0  0  0  0  0  0  0  0  0  0  0  0
   -6.8220  -10.3030   31.0630 O   0  0  0  0  0  0  0  0  0  0  0  0
   -6.0130   -9.5220   31.8240 C   0  0  0  0  0  0  0  0  0  0  0  0
   -6.4280   -8.9900   33.0390 C   0  0  0  0  0  0  0  0  0  0  0  0
   -5.5490   -8.2060   33.7760 C   0  0  0  0  0  0  0  0  0  0  0  0
   -4.7280   -9.2820   31.3570 C   0  0  0  0  0  0  0  0  0  0  0  0
   -3.8540   -8.4990   32.0920 C   0  0  0  0  0  0  0  0  0  0  0  0
   -4.2660   -7.9580   33.3010 C   0  0  0  0  0  0  0  0  0  0  0  0
   -3.3930   -7.1710   34.0400 C   0  0  0  0  0  0  0  0  0  0  0  0
   -2.0010   -7.2740   33.4920 N   0  0  0  0  0  0  0  0  0  0  0  0
   -1.6810   -6.2300   32.7290 C   0  0  0  0  0  0  0  0  0  0  0  0
   -2.4190   -5.1880   32.3440 C   0  0  0  0  0  0  0  0  0  0  0  0
   -1.9020   -4.2160   31.5010 C   0  0  0  0  0  0  0  0  0  0  0  0
   -0.5940   -4.3680   31.0720 C   0  0  0  0  0  0  0  0  0  0  0  0
   -0.0400   -3.4420   30.2430 O   0  0  0  0  0  0  0  0  0  0  0  0
    0.1310   -5.4770   31.5020 C   0  0  0  0  0  0  0  0  0  0  0  0
   -0.4280   -6.3770   32.3160 C   0  0  0  0  0  0  0  0  0  0  0  0
    0.0330   -7.5000   32.8610 C   0  0  0  0  0  0  0  0  0  0  0  0
    1.4720   -7.9570   32.5740 C   0  0  0  0  0  0  0  0  0  0  0  0
   -0.9080   -8.0440   33.6660 C   0  0  2  0  0  0  0  0  0  0  0  0
   -0.8690   -9.2330   34.3340 C   0  0  1  0  0  0  0  0  0  0  0  0
    0.3080   -9.8140   34.8130 C   0  0  0  0  0  0  0  0  0  0  0  0
    0.2980  -10.9980   35.5500 C   0  0  0  0  0  0  0  0  0  0  0  0
   -0.8880  -11.6340   35.8940 C   0  0  0  0  0  0  0  0  0  0  0  0
   -0.9110  -12.7950   36.6210 O   0  0  0  0  0  1  0  0  0  0  0  0
   -2.0690  -11.0520   35.4780 C   0  0  0  0  0  0  0  0  0  0  0  0
   -2.0380   -9.8620   34.7630 C   0  0  0  0  0  0  0  0  0  0  0  0
  -14.0780  -10.2870  -35.1040 C   0  0  1  0  0  0  0  0  0  0  0  0
  -12.8070  -10.4270  -35.8680 C   0  0  0  0  0  0  0  0  0  0  0  0
  -11.3390  -10.7250  -35.3830 C   0  0  0  0  0  0  0  0  0  0  0  0
  -11.4360  -11.9650  -34.6660 C   0  0  0  0  0  0  0  0  0  0  0  0
  -12.4310  -11.3420  -33.5210 C   0  0  0  0  0  0  0  0  0  0  0  0
  -13.8470  -10.6360  -33.4300 C   0  0  1  0  0  0  0  0  0  0  0  0
  -14.2500   -9.3360  -34.1040 N   0  0  0  0  0  0  0  0  0  0  0  0
  -15.6480   -9.3590  -33.5420 C   0  0  0  0  0  0  0  0  0  0  0  0
  -16.4320  -10.6040  -32.9820 C   0  0  0  0  0  0  0  0  0  0  0  0
  -15.9080  -11.2960  -31.8310 O   0  0  0  0  0  0  0  0  0  0  0  0
  -16.2290  -10.7920  -30.6190 C   0  0  0  0  0  0  0  0  0  0  0  0
  -15.6890  -11.4100  -29.5010 C   0  0  0  0  0  0  0  0  0  0  0  0
  -15.9720  -10.9220  -28.2370 C   0  0  0  0  0  0  0  0  0  0  0  0
  -17.0310   -9.6650  -30.4840 C   0  0  0  0  0  0  0  0  0  0  0  0
  -17.3200   -9.1810  -29.2170 C   0  0  0  0  0  0  0  0  0  0  0  0
  -16.7890   -9.8100  -28.0980 C   0  0  0  0  0  0  0  0  0  0  0  0
  -17.0740   -9.3070  -26.8410 C   0  0  0  0  0  0  0  0  0  0  0  0
  -16.6170  -10.2360  -25.7560 N   0  0  0  0  0  0  0  0  0  0  0  0
  -15.4320   -9.9510  -25.2090 C   0  0  0  0  0  0  0  0  0  0  0  0
  -14.5200   -9.0300  -25.5230 C   0  0  0  0  0  0  0  0  0  0  0  0
  -13.3150   -8.9620  -24.8330 C   0  0  0  0  0  0  0  0  0  0  0  0
  -13.0910   -9.8750  -23.8140 C   0  0  0  0  0  0  0  0  0  0  0  0
  -11.9300   -9.8550  -23.1030 O   0  0  0  0  0  0  0  0  0  0  0  0
  -14.0750  -10.8120  -23.5310 C   0  0  0  0  0  0  0  0  0  0  0  0
  -15.2080  -10.8230  -24.2320 C   0  0  0  0  0  0  0  0  0  0  0  0
  -16.2730  -11.6060  -24.1520 C   0  0  1  0  0  0  0  0  0  0  0  0
  -16.3110  -12.7270  -23.1020 C   0  0  0  0  0  0  0  0  0  0  0  0
  -17.2170  -11.1910  -25.0210 C   0  0  2  0  0  0  0  0  0  0  0  0
  -18.3790  -11.8220  -25.3160 C   0  0  1  0  0  0  0  0  0  0  0  0
  -18.7850  -11.9180  -26.6460 C   0  0  0  0  0  0  0  0  0  0  0  0
  -19.9150  -12.6140  -27.0430 C   0  0  0  0  0  0  0  0  0  0  0  0
  -20.6510  -13.3170  -26.1080 C   0  0  0  0  0  0  0  0  0  0  0  0
  -21.7550  -14.0030  -26.4920 O   0  0  0  0  0  0  0  0  0  0  0  0
  -20.2460  -13.3080  -24.7840 C   0  0  0  0  0  0  0  0  0  0  0  0
  -19.0930  -12.6230  -24.4240 C   0  0  0  0  0  0  0  0  0  0  0  0
   10.5670  -36.7140   33.9730 C   0  0  0  0  0  0  0  0  0  0  0  0
   12.0170  -37.3770   33.7650 C   0  0  0  0  0  0  0  0  0  0  0  0
   12.0520  -37.8780   35.0950 C   0  0  0  0  0  0  0  0  0  0  0  0
   12.0120  -37.3450   36.4450 C   0  0  0  0  0  0  0  0  0  0  0  0
   10.7280  -36.6760   36.2090 C   0  0  0  0  0  0  0  0  0  0  0  0
    9.4200  -37.2370   35.7780 C   0  0  0  0  0  0  0  0  0  0  0  0
    9.6290  -37.8710   34.3760 N   0  0  0  0  0  0  0  0  0  0  0  0
    8.2000  -38.0460   34.6820 C   0  0  0  0  0  0  0  0  0  0  0  0
    7.3850  -38.0820   33.3850 C   0  0  0  0  0  0  0  0  0  0  0  0
    7.5990  -36.9430   32.5460 O   0  0  0  0  0  0  0  0  0  0  0  0
    7.3240  -37.3380   31.2590 C   0  0  1  0  0  0  0  0  0  0  0  0
    7.5460  -36.4750   30.1940 C   0  0  0  0  0  0  0  0  0  0  0  0
    7.2990  -36.9070   28.8940 C   0  0  0  0  0  0  0  0  0  0  0  0
    6.9130  -38.6410   30.9770 C   0  0  0  0  0  0  0  0  0  0  0  0
    6.6540  -39.0620   29.6770 C   0  0  0  0  0  0  0  0  0  0  0  0
    6.8530  -38.1980   28.6130 C   0  0  0  0  0  0  0  0  0  0  0  0
    6.6030  -38.6400   27.2980 C   0  0  0  0  0  0  0  0  0  0  0  0
    7.1610  -37.6480   26.3090 N   0  0  0  0  0  0  0  0  0  0  0  0
    8.3300  -37.9780   25.7500 C   0  0  0  0  0  0  0  0  0  0  0  0
    9.0810  -39.0770   25.8550 C   0  0  0  0  0  0  0  0  0  0  0  0
   10.2630  -39.2070   25.1320 C   0  0  0  0  0  0  0  0  0  0  0  0
   10.6410  -38.1640   24.3010 C   0  0  0  0  0  0  0  0  0  0  0  0
   11.7860  -38.2310   23.5680 O   0  0  0  0  0  0  0  0  0  0  0  0
    9.8240  -37.0450   24.2310 C   0  0  0  0  0  0  0  0  0  0  0  0
    8.7030  -36.9850   24.9500 C   0  0  0  0  0  0  0  0  0  0  0  0
    7.7840  -36.0370   25.0400 C   0  0  0  0  0  0  0  0  0  0  0  0
    7.9590  -34.7580   24.2140 C   0  0  0  0  0  0  0  0  0  0  0  0
    6.8420  -36.3880   25.9380 C   0  0  1  0  0  0  0  0  0  0  0  0
    5.6860  -35.7360   26.2510 C   0  0  2  0  0  0  0  0  0  0  0  0
    4.5520  -36.4570   26.6310 C   0  0  0  0  0  0  0  0  0  0  0  0
    3.3230  -35.8740   26.9070 C   0  0  0  0  0  0  0  0  0  0  0  0
    3.1710  -34.5080   26.7430 C   0  0  0  0  0  0  0  0  0  0  0  0
    1.9750  -33.9160   27.0020 O   0  0  0  0  0  0  0  0  0  0  0  0
    4.2550  -33.7560   26.3140 C   0  0  0  0  0  0  0  0  0  0  0  0
    5.4660  -34.3770   26.0270 C   0  0  0  0  0  0  0  0  0  0  0  0
  -32.5390  -38.0770  -28.0720 C   0  0  2  0  0  0  0  0  0  0  0  0
  -32.1270  -38.2980  -26.6810 C   0  0  0  0  0  0  0  0  0  0  0  0
  -32.9220  -39.0120  -25.5670 C   0  0  0  0  0  0  0  0  0  0  0  0
  -34.1640  -38.2370  -25.5140 C   0  0  0  0  0  0  0  0  0  0  0  0
  -34.6630  -38.5840  -27.0350 C   0  0  0  0  0  0  0  0  0  0  0  0
  -34.1730  -38.4130  -28.5430 C   0  0  2  0  0  0  0  0  0  0  0  0
  -32.8670  -39.0660  -28.9980 N   0  0  0  0  0  0  0  0  0  0  0  0
  -33.1920  -38.4940  -30.3170 C   0  0  0  0  0  0  0  0  0  0  0  0
  -32.3160  -37.2630  -30.6040 C   0  0  0  0  0  0  0  0  0  0  0  0
  -30.9080  -37.4840  -30.4570 O   0  0  0  0  0  0  0  0  0  0  0  0
  -30.1020  -38.2320  -31.2360 C   0  0  0  0  0  0  0  0  0  0  0  0
  -30.5200  -38.9230  -32.3630 C   0  0  0  0  0  0  0  0  0  0  0  0
  -29.5670  -39.6440  -33.0650 C   0  0  0  0  0  0  0  0  0  0  0  0
  -28.7730  -38.2550  -30.8360 C   0  0  0  0  0  0  0  0  0  0  0  0
  -27.8240  -38.9750  -31.5370 C   0  0  0  0  0  0  0  0  0  0  0  0
  -28.2390  -39.6700  -32.6620 C   0  0  0  0  0  0  0  0  0  0  0  0
  -27.3690  -40.4180  -33.4310 C   0  0  0  0  0  0  0  0  0  0  0  0
  -25.9690  -40.3820  -32.9540 N   0  0  0  0  0  0  0  0  0  0  0  0
  -25.7420  -41.4350  -32.1290 C   0  0  0  0  0  0  0  0  0  0  0  0
  -26.5200  -42.4140  -31.6300 C   0  0  0  0  0  0  0  0  0  0  0  0
  -26.1130  -43.4160  -30.7420 C   0  0  0  0  0  0  0  0  0  0  0  0
  -24.7910  -43.3920  -30.3460 C   0  0  0  0  0  0  0  0  0  0  0  0
  -24.3400  -44.3650  -29.4670 O   0  0  0  0  0  0  0  0  0  0  0  0
  -24.0140  -42.3430  -30.8980 C   0  0  0  0  0  0  0  0  0  0  0  0
  -24.4840  -41.4000  -31.7620 C   0  0  0  0  0  0  0  0  0  0  0  0
  -23.9480  -40.3340  -32.4020 C   0  0  0  0  0  0  0  0  0  0  0  0
  -22.4840  -39.9990  -32.1980 C   0  0  0  0  0  0  0  0  0  0  0  0
  -24.8110  -39.6880  -33.2300 C   0  0  1  0  0  0  0  0  0  0  0  0
  -24.6640  -38.5120  -34.0430 C   0  0  1  0  0  0  0  0  0  0  0  0
  -25.8410  -37.9020  -34.4230 C   0  0  0  0  0  0  0  0  0  0  0  0
  -26.0140  -36.7700  -35.1630 C   0  0  0  0  0  0  0  0  0  0  0  0
  -24.8870  -36.1020  -35.5990 C   0  0  0  0  0  0  0  0  0  0  0  0
  -24.9690  -34.9620  -36.3750 O   0  0  0  0  0  1  0  0  0  0  0  0
  -23.6420  -36.6260  -35.2620 C   0  0  0  0  0  0  0  0  0  0  0  0
  -23.5600  -37.7470  -34.5090 C   0  0  0  0  0  0  0  0  0  0  0  0
  -10.8836  -10.9259   29.3871 H   0  0  0  0  0  0  0  0  0  0  0  0
  -11.1525  -10.8136   27.4768 H   0  0  0  0  0  0  0  0  0  0  0  0
  -11.5884   -9.0073   28.1539 H   0  0  0  0  0  0  0  0  0  0  0  0
  -11.1015   -9.1535   25.7250 H   0  0  0  0  0  0  0  0  0  0  0  0
  -10.1998   -8.0039   26.7082 H   0  0  0  0  0  0  0  0  0  0  0  0
   -9.2978  -10.8641   26.1025 H   0  0  0  0  0  0  0  0  0  0  0  0
   -8.6625   -9.5469   25.2540 H   0  0  0  0  0  0  0  0  0  0  0  0
   -7.4160   -9.7914   27.4741 H   0  0  0  0  0  0  0  0  0  0  0  0
   -8.8433   -8.3364   27.5936 H   0  0  0  0  0  0  0  0  0  0  0  0
   -7.5709   -9.5796   29.4884 H   0  0  0  0  0  0  0  0  0  0  0  0
   -8.9252   -8.5891   31.8111 H   0  0  0  0  0  0  0  0  0  0  0  0
  -10.1532  -10.0842   31.6209 H   0  0  0  0  0  0  0  0  0  0  0  0
   -8.0937  -10.7148   32.6219 H   0  0  0  0  0  0  0  0  0  0  0  0
   -8.4888  -11.4169   30.9276 H   0  0  0  0  0  0  0  0  0  0  0  0
   -6.3876   -8.6277   31.3045 H   0  0  0  0  0  0  0  0  0  0  0  0
   -7.3133   -8.3708   32.8320 H   0  0  0  0  0  0  0  0  0  0  0  0
   -6.5786   -9.8765   33.6725 H   0  0  0  0  0  0  0  0  0  0  0  0
   -6.0325   -7.2268   33.9077 H   0  0  0  0  0  0  0  0  0  0  0  0
   -5.3699   -8.8103   34.6775 H   0  0  0  0  0  0  0  0  0  0  0  0
   -4.2471  -10.2638   31.2350 H   0  0  0  0  0  0  0  0  0  0  0  0
   -4.8990   -8.6828   30.4505 H   0  0  0  0  0  0  0  0  0  0  0  0
   -2.9714   -9.1200   32.3048 H   0  0  0  0  0  0  0  0  0  0  0  0
   -3.7038   -7.6155   31.4542 H   0  0  0  0  0  0  0  0  0  0  0  0
   -3.8987   -8.8520   33.8262 H   0  0  0  0  0  0  0  0  0  0  0  0
   -3.7234   -6.1228   33.9942 H   0  0  0  0  0  0  0  0  0  0  0  0
   -3.3920   -7.5231   35.0821 H   0  0  0  0  0  0  0  0  0  0  0  0
   -1.9994   -6.7859   31.8348 H   0  0  0  0  0  0  0  0  0  0  0  0
   -3.3035   -5.6020   31.8377 H   0  0  0  0  0  0  0  0  0  0  0  0
   -2.5664   -4.6370   33.2846 H   0  0  0  0  0  0  0  0  0  0  0  0
   -2.5402   -4.1839   30.6056 H   0  0  0  0  0  0  0  0  0  0  0  0
   -1.8919   -3.2980   32.1069 H   0  0  0  0  0  0  0  0  0  0  0  0
   -0.9463   -4.9381   30.1997 H   0  0  0  0  0  0  0  0  0  0  0  0
    0.3863   -2.7295   30.7821 H   0  0  0  0  0  0  0  0  0  0  0  0
    0.4426   -6.0202   30.5976 H   0  0  0  0  0  0  0  0  0  0  0  0
    0.9180   -5.0313   32.1281 H   0  0  0  0  0  0  0  0  0  0  0  0
   -0.7823   -6.9459   31.4437 H   0  0  0  0  0  0  0  0  0  0  0  0
   -0.3216   -8.0688   31.9888 H   0  0  0  0  0  0  0  0  0  0  0  0
    1.9999   -8.1247   33.5244 H   0  0  0  0  0  0  0  0  0  0  0  0
    1.4512   -8.8927   31.9961 H   0  0  0  0  0  0  0  0  0  0  0  0
    1.9949   -7.1807   31.9961 H   0  0  0  0  0  0  0  0  0  0  0  0
   -0.5560   -8.4589   34.6220 H   0  0  0  0  0  0  0  0  0  0  0  0
   -0.7055   -9.2654   33.2467 H   0  0  0  0  0  0  0  0  0  0  0  0
    0.9388  -10.0043   33.9321 H   0  0  0  0  0  0  0  0  0  0  0  0
    0.6430   -9.0786   35.5594 H   0  0  0  0  0  0  0  0  0  0  0  0
    0.8836  -11.7275   34.9713 H   0  0  0  0  0  0  0  0  0  0  0  0
    0.6789  -10.6682   36.5278 H   0  0  0  0  0  0  0  0  0  0  0  0
   -0.8449  -12.2180   34.9628 H   0  0  0  0  0  0  0  0  0  0  0  0
   -2.5822  -11.7907   34.8448 H   0  0  0  0  0  0  0  0  0  0  0  0
   -2.5601  -10.7700   36.4210 H   0  0  0  0  0  0  0  0  0  0  0  0
   -2.5582   -9.1244   35.3918 H   0  0  0  0  0  0  0  0  0  0  0  0
   -2.4610  -10.1884   33.8015 H   0  0  0  0  0  0  0  0  0  0  0  0
  -14.7071  -10.5694  -35.9610 H   0  0  0  0  0  0  0  0  0  0  0  0
  -13.0174  -11.2353  -36.5838 H   0  0  0  0  0  0  0  0  0  0  0  0
  -12.6627   -9.3587  -36.0870 H   0  0  0  0  0  0  0  0  0  0  0  0
  -10.6597  -10.8260  -36.2423 H   0  0  0  0  0  0  0  0  0  0  0  0
  -10.9345   -9.9144  -34.7591 H   0  0  0  0  0  0  0  0  0  0  0  0
  -11.8995  -12.7717  -35.2528 H   0  0  0  0  0  0  0  0  0  0  0  0
  -10.5075  -12.4582  -34.3425 H   0  0  0  0  0  0  0  0  0  0  0  0
  -12.5665  -12.2028  -32.8497 H   0  0  0  0  0  0  0  0  0  0  0  0
  -11.8855  -10.3877  -33.4804 H   0  0  0  0  0  0  0  0  0  0  0  0
  -14.1728  -11.0399  -32.4601 H   0  0  0  0  0  0  0  0  0  0  0  0
  -15.6286   -8.6406  -32.7093 H   0  0  0  0  0  0  0  0  0  0  0  0
  -16.2116   -9.2047  -34.4740 H   0  0  0  0  0  0  0  0  0  0  0  0
  -17.4423  -10.2577  -32.7185 H   0  0  0  0  0  0  0  0  0  0  0  0
  -16.3645  -11.3460  -33.7912 H   0  0  0  0  0  0  0  0  0  0  0  0
  -17.0988  -11.4636  -30.5701 H   0  0  0  0  0  0  0  0  0  0  0  0
  -16.0286  -12.4561  -29.5211 H   0  0  0  0  0  0  0  0  0  0  0  0
  -14.6095  -11.2272  -29.6072 H   0  0  0  0  0  0  0  0  0  0  0  0
  -16.4492  -11.7406  -27.6782 H   0  0  0  0  0  0  0  0  0  0  0  0
  -14.9954  -10.5701  -27.8731 H   0  0  0  0  0  0  0  0  0  0  0  0
  -16.5339   -8.8509  -31.0319 H   0  0  0  0  0  0  0  0  0  0  0  0
  -18.0088   -9.9965  -30.8634 H   0  0  0  0  0  0  0  0  0  0  0  0
  -16.9747   -8.1370  -29.1889 H   0  0  0  0  0  0  0  0  0  0  0  0
  -18.4013   -9.3571  -29.1183 H   0  0  0  0  0  0  0  0  0  0  0  0
  -15.9065   -9.1553  -28.1487 H   0  0  0  0  0  0  0  0  0  0  0  0
  -16.5647   -8.3395  -26.7201 H   0  0  0  0  0  0  0  0  0  0  0  0
  -18.1646   -9.1911  -26.7568 H   0  0  0  0  0  0  0  0  0  0  0  0
  -14.9458  -10.6647  -25.8904 H   0  0  0  0  0  0  0  0  0  0  0  0
  -14.2675   -9.1858  -26.5822 H   0  0  0  0  0  0  0  0  0  0  0  0
  -15.0159   -8.0883  -25.2451 H   0  0  0  0  0  0  0  0  0  0  0  0
  -12.5092   -9.0921  -25.5704 H   0  0  0  0  0  0  0  0  0  0  0  0
  -13.3473   -7.9876  -24.3236 H   0  0  0  0  0  0  0  0  0  0  0  0
  -12.6368  -10.5695  -24.5361 H   0  0  0  0  0  0  0  0  0  0  0  0
  -12.1359   -9.8585  -22.1347 H   0  0  0  0  0  0  0  0  0  0  0  0
  -13.6147  -11.8031  -23.6566 H   0  0  0  0  0  0  0  0  0  0  0  0
  -14.4067  -10.5317  -22.5204 H   0  0  0  0  0  0  0  0  0  0  0  0
  -14.7539  -11.5165  -24.9551 H   0  0  0  0  0  0  0  0  0  0  0  0
  -15.8180  -12.2988  -24.8752 H   0  0  0  0  0  0  0  0  0  0  0  0
  -16.2961  -12.2862  -22.0943 H   0  0  0  0  0  0  0  0  0  0  0  0
  -17.2297  -13.3183  -23.2300 H   0  0  0  0  0  0  0  0  0  0  0  0
  -15.4344  -13.3791  -23.2300 H   0  0  0  0  0  0  0  0  0  0  0  0
  -18.2124  -10.9695  -24.6086 H   0  0  0  0  0  0  0  0  0  0  0  0
  -18.6667  -10.8911  -24.8055 H   0  0  0  0  0  0  0  0  0  0  0  0
  -18.9282  -10.8844  -26.9941 H   0  0  0  0  0  0  0  0  0  0  0  0
  -17.9838  -12.5373  -27.0757 H   0  0  0  0  0  0  0  0  0  0  0  0
  -20.5966  -11.8813  -27.4998 H   0  0  0  0  0  0  0  0  0  0  0  0
  -19.5133  -13.4019  -27.6971 H   0  0  0  0  0  0  0  0  0  0  0  0
  -21.2688  -12.4257  -25.9241 H   0  0  0  0  0  0  0  0  0  0  0  0
  -22.2484  -14.3096  -25.6904 H   0  0  0  0  0  0  0  0  0  0  0  0
  -21.0711  -12.8735  -24.2005 H   0  0  0  0  0  0  0  0  0  0  0  0
  -19.9928  -14.3599  -24.5853 H   0  0  0  0  0  0  0  0  0  0  0  0
  -18.3853  -13.3858  -24.0673 H   0  0  0  0  0  0  0  0  0  0  0  0
  -19.4897  -11.8744  -23.7225 H   0  0  0  0  0  0  0  0  0  0  0  0
   10.6033  -35.9555   34.7689 H   0  0  0  0  0  0  0  0  0  0  0  0
   10.2180  -36.2095   33.0600 H   0  0  0  0  0  0  0  0  0  0  0  0
   12.0326  -38.1660   32.9987 H   0  0  0  0  0  0  0  0  0  0  0  0
   12.8457  -36.7459   33.4115 H   0  0  0  0  0  0  0  0  0  0  0  0
   11.2021  -38.5764   35.0992 H   0  0  0  0  0  0  0  0  0  0  0  0
   13.1463  -37.9903   35.0976 H   0  0  0  0  0  0  0  0  0  0  0  0
   11.9667  -38.1214   37.2229 H   0  0  0  0  0  0  0  0  0  0  0  0
   12.8638  -36.7539   36.8124 H   0  0  0  0  0  0  0  0  0  0  0  0
   10.5047  -36.1802   37.1652 H   0  0  0  0  0  0  0  0  0  0  0  0
   10.9936  -36.1860   35.2607 H   0  0  0  0  0  0  0  0  0  0  0  0
    9.0858  -38.0041   36.4920 H   0  0  0  0  0  0  0  0  0  0  0  0
    8.6525  -36.4500   35.7390 H   0  0  0  0  0  0  0  0  0  0  0  0
    8.0577  -38.9905   35.2276 H   0  0  0  0  0  0  0  0  0  0  0  0
    7.8578  -37.2023   35.2993 H   0  0  0  0  0  0  0  0  0  0  0  0
    7.6638  -38.9858   32.8233 H   0  0  0  0  0  0  0  0  0  0  0  0
    6.3225  -38.0797   33.6697 H   0  0  0  0  0  0  0  0  0  0  0  0
    6.2993  -36.9508   31.3591 H   0  0  0  0  0  0  0  0  0  0  0  0
    6.9132  -35.5911   30.3622 H   0  0  0  0  0  0  0  0  0  0  0  0
    8.6352  -36.3219   30.2108 H   0  0  0  0  0  0  0  0  0  0  0  0
    6.5416  -36.2239   28.4821 H   0  0  0  0  0  0  0  0  0  0  0  0
    8.3093  -36.9137   28.4589 H   0  0  0  0  0  0  0  0  0  0  0  0
    7.6999  -39.3042   31.3656 H   0  0  0  0  0  0  0  0  0  0  0  0
    5.9143  -38.6755   31.4369 H   0  0  0  0  0  0  0  0  0  0  0  0
    7.2913  -39.9400   29.4955 H   0  0  0  0  0  0  0  0  0  0  0  0
    5.5648  -39.2157   29.6752 H   0  0  0  0  0  0  0  0  0  0  0  0
    7.8952  -38.5400   28.5302 H   0  0  0  0  0  0  0  0  0  0  0  0
    7.0830  -39.6178   27.1443 H   0  0  0  0  0  0  0  0  0  0  0  0
    5.5173  -38.7311   27.1466 H   0  0  0  0  0  0  0  0  0  0  0  0
    8.8635  -37.5320   26.6023 H   0  0  0  0  0  0  0  0  0  0  0  0
    9.3516  -39.1711   26.9170 H   0  0  0  0  0  0  0  0  0  0  0  0
    8.4391  -39.8530   25.4125 H   0  0  0  0  0  0  0  0  0  0  0  0
   11.0752  -39.3556   25.8589 H   0  0  0  0  0  0  0  0  0  0  0  0
   10.0722  -40.0459   24.4466 H   0  0  0  0  0  0  0  0  0  0  0  0
   11.1989  -37.7052   25.1306 H   0  0  0  0  0  0  0  0  0  0  0  0
   12.5654  -38.2766   24.1768 H   0  0  0  0  0  0  0  0  0  0  0  0
   10.4396  -36.1847   24.5327 H   0  0  0  0  0  0  0  0  0  0  0  0
    9.4552  -37.0695   23.1950 H   0  0  0  0  0  0  0  0  0  0  0  0
    9.2599  -36.5256   25.7799 H   0  0  0  0  0  0  0  0  0  0  0  0
    8.3399  -35.5769   25.8702 H   0  0  0  0  0  0  0  0  0  0  0  0
    8.0766  -33.8982   24.8900 H   0  0  0  0  0  0  0  0  0  0  0  0
    8.8528  -34.8507   23.5796 H   0  0  0  0  0  0  0  0  0  0  0  0
    7.0731  -34.6071   23.5796 H   0  0  0  0  0  0  0  0  0  0  0  0
    6.4834  -35.5908   26.6057 H   0  0  0  0  0  0  0  0  0  0  0  0
    6.4711  -35.6066   27.0105 H   0  0  0  0  0  0  0  0  0  0  0  0
    4.3670  -37.1741   25.8177 H   0  0  0  0  0  0  0  0  0  0  0  0
    4.8492  -36.8068   27.6306 H   0  0  0  0  0  0  0  0  0  0  0  0
    2.5830  -36.3602   26.2544 H   0  0  0  0  0  0  0  0  0  0  0  0
    3.2006  -36.0224   27.9901 H   0  0  0  0  0  0  0  0  0  0  0  0
    2.8659  -34.6674   25.6983 H   0  0  0  0  0  0  0  0  0  0  0  0
    1.8440  -33.8512   27.9812 H   0  0  0  0  0  0  0  0  0  0  0  0
    3.9386  -33.2390   25.3960 H   0  0  0  0  0  0  0  0  0  0  0  0
    4.4925  -33.1349   27.1903 H   0  0  0  0  0  0  0  0  0  0  0  0
    6.2285  -33.8440   26.6139 H   0  0  0  0  0  0  0  0  0  0  0  0
    5.4901  -34.3242   24.9285 H   0  0  0  0  0  0  0  0  0  0  0  0
  -31.8260  -37.2394  -28.0814 H   0  0  0  0  0  0  0  0  0  0  0  0
  -31.1820  -38.8562  -26.7534 H   0  0  0  0  0  0  0  0  0  0  0  0
  -32.2069  -37.2646  -26.3127 H   0  0  0  0  0  0  0  0  0  0  0  0
  -33.1197  -40.0615  -25.8305 H   0  0  0  0  0  0  0  0  0  0  0  0
  -32.3892  -39.0510  -24.6054 H   0  0  0  0  0  0  0  0  0  0  0  0
  -34.8601  -38.6054  -24.7460 H   0  0  0  0  0  0  0  0  0  0  0  0
  -34.0754  -37.1728  -25.2502 H   0  0  0  0  0  0  0  0  0  0  0  0
  -34.8102  -39.6724  -26.9744 H   0  0  0  0  0  0  0  0  0  0  0  0
  -35.3010  -37.6893  -27.0858 H   0  0  0  0  0  0  0  0  0  0  0  0
  -35.0917  -38.2031  -29.1104 H   0  0  0  0  0  0  0  0  0  0  0  0
  -33.0149  -39.2527  -31.0936 H   0  0  0  0  0  0  0  0  0  0  0  0
  -34.2480  -38.1861  -30.3195 H   0  0  0  0  0  0  0  0  0  0  0  0
  -32.5063  -36.9404  -31.6383 H   0  0  0  0  0  0  0  0  0  0  0  0
  -32.5915  -36.5040  -29.8570 H   0  0  0  0  0  0  0  0  0  0  0  0
  -30.3196  -39.1134  -30.6149 H   0  0  0  0  0  0  0  0  0  0  0  0
  -31.2993  -39.6310  -32.0445 H   0  0  0  0  0  0  0  0  0  0  0  0
  -30.8497  -38.1412  -33.0631 H   0  0  0  0  0  0  0  0  0  0  0  0
  -29.9104  -40.6890  -33.0718 H   0  0  0  0  0  0  0  0  0  0  0  0
  -29.5150  -39.1019  -34.0207 H   0  0  0  0  0  0  0  0  0  0  0  0
  -28.4308  -37.2096  -30.8330 H   0  0  0  0  0  0  0  0  0  0  0  0
  -28.8216  -38.7939  -29.8783 H   0  0  0  0  0  0  0  0  0  0  0  0
  -27.0461  -38.2665  -31.8579 H   0  0  0  0  0  0  0  0  0  0  0  0
  -27.4958  -39.7559  -30.8353 H   0  0  0  0  0  0  0  0  0  0  0  0
  -28.0330  -38.7864  -33.2839 H   0  0  0  0  0  0  0  0  0  0  0  0
  -27.7110  -41.4634  -33.4241 H   0  0  0  0  0  0  0  0  0  0  0  0
  -27.3752  -39.9798  -34.4399 H   0  0  0  0  0  0  0  0  0  0  0  0
  -25.9777  -40.8043  -31.2591 H   0  0  0  0  0  0  0  0  0  0  0  0
  -27.3452  -41.8950  -31.1205 H   0  0  0  0  0  0  0  0  0  0  0  0
  -26.6679  -43.0170  -32.5380 H   0  0  0  0  0  0  0  0  0  0  0  0
  -26.7337  -43.3326  -29.8377 H   0  0  0  0  0  0  0  0  0  0  0  0
  -26.2327  -44.3593  -31.2950 H   0  0  0  0  0  0  0  0  0  0  0  0
  -25.0575  -42.7472  -29.4956 H   0  0  0  0  0  0  0  0  0  0  0  0
  -24.4815  -44.0597  -28.5359 H   0  0  0  0  0  0  0  0  0  0  0  0
  -23.6207  -41.7832  -30.0366 H   0  0  0  0  0  0  0  0  0  0  0  0
  -23.3508  -42.9136  -31.5647 H   0  0  0  0  0  0  0  0  0  0  0  0
  -24.7499  -40.7540  -30.9123 H   0  0  0  0  0  0  0  0  0  0  0  0
  -24.2140  -39.6895  -31.5512 H   0  0  0  0  0  0  0  0  0  0  0  0
  -22.2659  -39.9491  -31.1210 H   0  0  0  0  0  0  0  0  0  0  0  0
  -21.8614  -40.7779  -32.6625 H   0  0  0  0  0  0  0  0  0  0  0  0
  -22.2621  -39.0269  -32.6625 H   0  0  0  0  0  0  0  0  0  0  0  0
  -25.0473  -38.9744  -32.4269 H   0  0  0  0  0  0  0  0  0  0  0  0
  -24.6942  -39.1347  -34.9492 H   0  0  0  0  0  0  0  0  0  0  0  0
  -26.3869  -38.6793  -34.9778 H   0  0  0  0  0  0  0  0  0  0  0  0
  -26.1336  -37.4972  -33.4429 H   0  0  0  0  0  0  0  0  0  0  0  0
  -26.5951  -37.0478  -36.0547 H   0  0  0  0  0  0  0  0  0  0  0  0
  -26.5028  -36.0643  -34.4753 H   0  0  0  0  0  0  0  0  0  0  0  0
  -24.8725  -36.7202  -36.5087 H   0  0  0  0  0  0  0  0  0  0  0  0
  -23.1214  -36.8398  -36.2071 H   0  0  0  0  0  0  0  0  0  0  0  0
  -23.2107  -35.8521  -34.6101 H   0  0  0  0  0  0  0  0  0  0  0  0
  -23.0099  -37.4496  -33.6041 H   0  0  0  0  0  0  0  0  0  0  0  0
  -23.1405  -38.4452  -35.2483 H   0  0  0  0  0  0  0  0  0  0  0  0
  1  2  1  0
  2  3  1  0
  3  4  1  0
  4  5  1  0
  5  6  1  0
  6  1  1  0
  1  7  1  0
  6  7  1  0
  7  8  1  0
  8  9  1  0
  9 10  1  0
 10 11  1  0
 11 12  1  0
 12 13  1  0
 11 14  1  0
 14 15  1  0
 13 16  1  0
 15 16  1  0
 16 17  1  0
 17 18  1  0
 18 19  1  0
 19 20  1  0
 20 21  1  0
 21 22  1  0
 22 23  1  0
 22 24  1  0
 19 25  1  0
 24 25  1  0
 25 26  1  0
 26 27  1  0
 18 28  1  0
 26 28  1  0
 28 29  1  0
 29 30  1  0
 30 31  1  0
 31 32  1  0
 32 33  1  0
 32 34  1  0
 29 35  1  0
 34 35  1  0
 36 37  1  0
 37 38  1  0
 38 39  1  0
 39 40  1  0
 40 41  1  0
 41 36  1  0
 36 42  1  0
 41 42  1  0
 42 43  1  0
 43 44  1  0
 44 45  1  0
 45 46  1  0
 46 47  1  0
 47 48  1  0
 46 49  1  0
 49 50  1  0
 48 51  1  0
 50 51  1  0
 51 52  1  0
 52 53  1  0
 53 54  1  0
 54 55  1  0
 55 56  1  0
 56 57  1  0
 57 58  1  0
 57 59  1  0
 54 60  1  0
 59 60  1  0
 60 61  1  0
 61 62  1  0
 53 63  1  0
 61 63  1  0
 63 64  1  0
 64 65  1  0
 65 66  1  0
 66 67  1  0
 67 68  1  0
 67 69  1  0
 64 70  1  0
 69 70  1  0
 71 72  1  0
 72 73  1  0
 73 74  1  0
 74 75  1  0
 75 76  1  0
 71 77  1  0
 76 77  1  0
 77 78  1  0
 78 79  1  0
 79 80  1  0
 80 81  1  0
 81 82  1  0
 82 83  1  0
 81 84  1  0
 84 85  1  0
 83 86  1  0
 85 86  1  0
 86 87  1  0
 87 88  1  0
 88 89  1  0
 89 90  1  0
 90 91  1  0
 91 92  1  0
 92 93  1  0
 92 94  1  0
 89 95  1  0
 94 95  1  0
 95 96  1  0
 96 97  1  0
 88 98  1  0
 96 98  1  0
 98 99  1  0
 99100  1  0
100101  1  0
101102  1  0
102103  1  0
102104  1  0
 99105  1  0
104105  1  0
106107  1  0
107108  1  0
108109  1  0
109110  1  0
110111  1  0
111106  1  0
106112  1  0
111112  1  0
112113  1  0
113114  1  0
114115  1  0
115116  1  0
116117  1  0
117118  1  0
116119  1  0
119120  1  0
118121  1  0
120121  1  0
121122  1  0
122123  1  0
123124  1  0
124125  1  0
125126  1  0
126127  1  0
127128  1  0
127129  1  0
124130  1  0
129130  1  0
130131  1  0
131132  1  0
123133  1  0
131133  1  0
133134  1  0
134135  1  0
135136  1  0
136137  1  0
137138  1  0
137139  1  0
134140  1  0
139140  1  0
  1141  1  6
  2142  1  0
  2143  1  0
  3144  1  0
  3145  1  0
  4146  1  0
  4147  1  0
  5148  1  0
  5149  1  0
  6150  1  6
  8151  1  0
  8152  1  0
  9153  1  0
  9154  1  0
 11155  1  0
 12156  1  0
 12157  1  0
 13158  1  0
 13159  1  0
 14160  1  0
 14161  1  0
 15162  1  0
 15163  1  0
 16164  1  0
 17165  1  0
 17166  1  0
 19167  1  0
 20168  1  0
 20169  1  0
 21170  1  0
 21171  1  0
 22172  1  0
 23173  1  0
 24174  1  0
 24175  1  0
 25176  1  0
 26177  1  0
 27178  1  0
 27179  1  0
 27180  1  0
 28181  1  1
 29182  1  6
 30183  1  0
 30184  1  0
 31185  1  0
 31186  1  0
 32187  1  0
 34188  1  0
 34189  1  0
 35190  1  0
 35191  1  0
 36192  1  1
 37193  1  0
 37194  1  0
 38195  1  0
 38196  1  0
 39197  1  0
 39198  1  0
 40199  1  0
 40200  1  0
 41201  1  6
 43202  1  0
 43203  1  0
 44204  1  0
 44205  1  0
 46206  1  0
 47207  1  0
 47208  1  0
 48209  1  0
 48210  1  0
 49211  1  0
 49212  1  0
 50213  1  0
 50214  1  0
 51215  1  0
 52216  1  0
 52217  1  0
 54218  1  0
 55219  1  0
 55220  1  0
 56221  1  0
 56222  1  0
 57223  1  0
 58224  1  0
 59225  1  0
 59226  1  0
 60227  1  0
 61228  1  6
 62229  1  0
 62230  1  0
 62231  1  0
 63232  1  1
 64233  1  1
 65234  1  0
 65235  1  0
 66236  1  0
 66237  1  0
 67238  1  0
 68239  1  0
 69240  1  0
 69241  1  0
 70242  1  0
 70243  1  0
 71244  1  0
 71245  1  0
 72246  1  0
 72247  1  0
 73248  1  0
 73249  1  0
 74250  1  0
 74251  1  0
 75252  1  0
 75253  1  0
 76254  1  0
 76255  1  0
 78256  1  0
 78257  1  0
 79258  1  0
 79259  1  0
 81260  1  1
 82261  1  0
 82262  1  0
 83263  1  0
 83264  1  0
 84265  1  0
 84266  1  0
 85267  1  0
 85268  1  0
 86269  1  0
 87270  1  0
 87271  1  0
 89272  1  0
 90273  1  0
 90274  1  0
 91275  1  0
 91276  1  0
 92277  1  0
 93278  1  0
 94279  1  0
 94280  1  0
 95281  1  0
 96282  1  0
 97283  1  0
 97284  1  0
 97285  1  0
 98286  1  1
 99287  1  1
100288  1  0
100289  1  0
101290  1  0
101291  1  0
102292  1  0
103293  1  0
104294  1  0
104295  1  0
105296  1  0
105297  1  0
106298  1  1
107299  1  0
107300  1  0
108301  1  0
108302  1  0
109303  1  0
109304  1  0
110305  1  0
110306  1  0
111307  1  1
113308  1  0
113309  1  0
114310  1  0
114311  1  0
116312  1  0
117313  1  0
117314  1  0
118315  1  0
118316  1  0
119317  1  0
119318  1  0
120319  1  0
120320  1  0
121321  1  0
122322  1  0
122323  1  0
124324  1  0
125325  1  0
125326  1  0
126327  1  0
126328  1  0
127329  1  0
128330  1  0
129331  1  0
129332  1  0
130333  1  0
131334  1  0
132335  1  0
132336  1  0
132337  1  0
133338  1  6
134339  1  6
135340  1  0
135341  1  0
136342  1  0
136343  1  0
137344  1  0
139345  1  0
139346  1  0
140347  1  0
140348  1  0
M  RAD  2  33   2 138   2
M  END
>  <PDBID>  (1) 
4XI3

>  <PDB ID>  (1) 
4XI3

>  <Generic Name>  (1) 
Bazedoxifene

>  <Brand Name>  (1) 
Duavee#Duavive#Aprela#Viviant

>  <DrugBank ID>  (1) 
DB06401

>  <ATC Codes>  (1) 
G03CC07#G03XC02

>  <Ligand ID>  (1) 
29S

>  <Target Name>  (1) 
Estrogen receptor

>  <UniProt ID>  (1) 
P03372

>  <PDB ID.1>  (1) 
4XI3

>  <Seq. Identity>  (1) 
92%

$$$$
