PDB_DB00552_99
     RDKit          3D

164172  0  0  0  0  0  0  0  0999 V2000
   39.5010   21.0630   51.2720 N   0  0  0  0  0  0  0  0  0  0  0  0
   39.9670   20.5750   50.1440 C   0  0  0  0  0  0  0  0  0  0  0  0
   41.3090   20.4420   50.1800 N   0  0  0  0  0  0  0  0  0  0  0  0
   40.6040   21.2500   52.0920 C   0  0  1  0  0  0  0  0  0  0  0  0
   41.7330   20.8770   51.4470 C   0  0  2  0  0  0  0  0  0  0  0  0
   43.0700   21.1440   51.6320 N   0  0  0  0  0  0  0  0  0  0  0  0
   43.5490   21.3890   52.7960 C   0  0  0  0  0  0  0  0  0  0  0  0
   42.9290   21.8420   53.8960 N   0  0  0  0  0  0  0  0  0  0  0  0
   41.5500   21.6160   54.3390 C   0  0  0  0  0  0  0  0  0  0  0  0
   40.4940   22.0270   53.3370 C   0  0  1  0  0  0  0  0  0  0  0  0
   40.5630   23.6200   53.1220 O   0  0  0  0  0  0  0  0  0  0  0  0
   41.3820   18.5660   48.4590 C   0  0  0  0  0  0  0  0  0  0  0  0
   41.4080   18.9730   47.0100 C   0  0  2  0  0  0  0  0  0  0  0  0
   41.6990   17.8380   46.1880 O   0  0  0  0  0  0  0  0  0  0  0  0
   41.0540   21.5740   45.8390 O   0  0  0  0  0  0  0  0  0  0  0  0
   42.3240   20.9600   45.7770 C   0  0  0  0  0  0  0  0  0  0  0  0
   42.5400   19.9790   46.9340 C   0  0  1  0  0  0  0  0  0  0  0  0
   42.5820   20.6340   48.2120 O   0  0  0  0  0  0  0  0  0  0  0  0
   42.1280   19.6950   49.2100 C   0  0  1  0  0  0  0  0  0  0  0  0
   28.5610   68.8830  100.7220 N   0  0  0  0  0  0  0  0  0  0  0  0
   29.0600   68.2780   99.6660 C   0  0  0  0  0  0  0  0  0  0  0  0
   30.3600   67.9650   99.8440 N   0  0  0  0  0  0  0  0  0  0  0  0
   29.5980   68.9510  101.6430 C   0  0  0  0  0  0  0  0  0  0  0  0
   30.7260   68.3990  101.1300 C   0  0  2  0  0  0  0  0  0  0  0  0
   32.0690   68.5700  101.3810 N   0  0  0  0  0  0  0  0  0  0  0  0
   32.4980   69.0220  102.4980 C   0  0  0  0  0  0  0  0  0  0  0  0
   31.8110   69.4290  103.5770 N   0  0  0  0  0  0  0  0  0  0  0  0
   30.4360   69.1070  103.9590 C   0  0  0  0  0  0  0  0  0  0  0  0
   29.4080   69.5820  102.9590 C   0  0  1  0  0  0  0  0  0  0  0  0
   29.4360   71.1850  102.9220 O   0  0  0  0  0  0  0  0  0  0  0  0
   30.5360   65.9900   98.2370 C   0  0  0  0  0  0  0  0  0  0  0  0
   30.3220   66.4270   96.8110 C   0  0  2  0  0  0  0  0  0  0  0  0
   30.4670   65.3150   95.9160 O   0  0  0  0  0  0  0  0  0  0  0  0
   29.8700   68.9300   95.5390 O   0  0  0  0  0  0  0  0  0  0  0  0
   31.1570   68.3630   95.4310 C   0  0  0  0  0  0  0  0  0  0  0  0
   31.4490   67.4310   96.6050 C   0  0  1  0  0  0  0  0  0  0  0  0
   31.5900   68.1270   97.8560 O   0  0  0  0  0  0  0  0  0  0  0  0
   31.2170   67.2120   98.9130 C   0  0  1  0  0  0  0  0  0  0  0  0
   84.0610   22.0270   50.3810 N   0  0  0  0  0  0  0  0  0  0  0  0
   84.1370   22.5300   51.5960 C   0  0  0  0  0  0  0  0  0  0  0  0
   85.4160   22.7610   51.9660 N   0  0  0  0  0  0  0  0  0  0  0  0
   85.3690   21.9380   49.9330 C   0  0  1  0  0  0  0  0  0  0  0  0
   86.2280   22.3760   50.8870 C   0  0  2  0  0  0  0  0  0  0  0  0
   87.5770   22.1950   51.1090 N   0  0  0  0  0  0  0  0  0  0  0  0
   88.4010   22.0610   50.1260 C   0  0  0  0  0  0  0  0  0  0  0  0
   88.1740   21.6850   48.8470 N   0  0  0  0  0  0  0  0  0  0  0  0
   86.9620   21.8220   48.0280 C   0  0  0  0  0  0  0  0  0  0  0  0
   85.6920   21.2800   48.6580 C   0  0  1  0  0  0  0  0  0  0  0  0
   85.7810   19.6850   48.7560 O   0  0  0  0  0  0  0  0  0  0  0  0
   84.9820   24.7950   53.4560 C   0  0  0  0  0  0  0  0  0  0  0  0
   84.3160   24.4720   54.7900 C   0  0  2  0  0  0  0  0  0  0  0  0
   84.2690   25.6430   55.6220 O   0  0  0  0  0  0  0  0  0  0  0  0
   83.3490   21.8880   55.8490 O   0  0  0  0  0  0  0  0  0  0  0  0
   84.5060   22.5070   56.4000 C   0  0  0  0  0  0  0  0  0  0  0  0
   85.2450   23.4080   55.3920 C   0  0  1  0  0  0  0  0  0  0  0  0
   85.7910   22.6690   54.2770 O   0  0  0  0  0  0  0  0  0  0  0  0
   85.8540   23.5460   53.1300 C   0  0  1  0  0  0  0  0  0  0  0  0
   72.5040   68.7570  101.0990 N   0  0  0  0  0  0  0  0  0  0  0  0
   72.3440   69.1870  102.3360 C   0  0  0  0  0  0  0  0  0  0  0  0
   73.5340   69.4220  102.9360 N   0  0  0  0  0  0  0  0  0  0  0  0
   73.8820   68.7170  100.8780 C   0  0  1  0  0  0  0  0  0  0  0  0
   74.5410   69.1210  101.9970 C   0  0  2  0  0  0  0  0  0  0  0  0
   75.8320   69.0110  102.4690 N   0  0  0  0  0  0  0  0  0  0  0  0
   76.7960   68.5490  101.7600 C   0  0  0  0  0  0  0  0  0  0  0  0
   76.7640   68.0230  100.5280 N   0  0  0  0  0  0  0  0  0  0  0  0
   75.8680   68.3760   99.4320 C   0  0  0  0  0  0  0  0  0  0  0  0
   74.4310   68.0070   99.7040 C   0  0  1  0  0  0  0  0  0  0  0  0
   74.3300   66.4080   99.7780 O   0  0  0  0  0  0  0  0  0  0  0  0
   72.9350   71.4270  104.4350 C   0  0  0  0  0  0  0  0  0  0  0  0
   71.9440   71.0340  105.5170 C   0  0  2  0  0  0  0  0  0  0  0  0
   71.6540   72.1390  106.3800 O   0  0  0  0  0  0  0  0  0  0  0  0
   70.7660   68.4500  106.2940 O   0  0  0  0  0  0  0  0  0  0  0  0
   71.7460   69.0810  107.0960 C   0  0  0  0  0  0  0  0  0  0  0  0
   72.6890   69.9500  106.2650 C   0  0  1  0  0  0  0  0  0  0  0  0
   73.3960   69.2070  105.2620 O   0  0  0  0  0  0  0  0  0  0  0  0
   73.7570   70.1270  104.2090 C   0  0  1  0  0  0  0  0  0  0  0  0
   39.0238   21.9602   51.1038 H   0  0  0  0  0  0  0  0  0  0  0  0
   39.5146   19.5880   49.9676 H   0  0  0  0  0  0  0  0  0  0  0  0
   39.7110   21.2735   49.3338 H   0  0  0  0  0  0  0  0  0  0  0  0
   40.7572   20.7408   53.0549 H   0  0  0  0  0  0  0  0  0  0  0  0
   42.2221   20.4011   52.3097 H   0  0  0  0  0  0  0  0  0  0  0  0
   43.5822   20.3256   51.2732 H   0  0  0  0  0  0  0  0  0  0  0  0
   43.9968   20.4349   53.1110 H   0  0  0  0  0  0  0  0  0  0  0  0
   44.0962   22.3090   52.5425 H   0  0  0  0  0  0  0  0  0  0  0  0
   43.5076   21.4978   54.6756 H   0  0  0  0  0  0  0  0  0  0  0  0
   41.4274   20.5428   54.5467 H   0  0  0  0  0  0  0  0  0  0  0  0
   41.3998   22.2461   55.2281 H   0  0  0  0  0  0  0  0  0  0  0  0
   39.4922   21.7931   53.7265 H   0  0  0  0  0  0  0  0  0  0  0  0
   40.5825   24.0713   54.0029 H   0  0  0  0  0  0  0  0  0  0  0  0
   40.3455   18.4830   48.8180 H   0  0  0  0  0  0  0  0  0  0  0  0
   41.8522   17.5846   48.6193 H   0  0  0  0  0  0  0  0  0  0  0  0
   40.4489   19.3843   46.6622 H   0  0  0  0  0  0  0  0  0  0  0  0
   41.8992   17.0571   46.7626 H   0  0  0  0  0  0  0  0  0  0  0  0
   40.7941   21.6997   46.7860 H   0  0  0  0  0  0  0  0  0  0  0  0
   42.4089   20.4132   44.8263 H   0  0  0  0  0  0  0  0  0  0  0  0
   43.0881   21.7479   45.8502 H   0  0  0  0  0  0  0  0  0  0  0  0
   43.5046   19.4927   46.7266 H   0  0  0  0  0  0  0  0  0  0  0  0
   42.9340   19.2181   49.7871 H   0  0  0  0  0  0  0  0  0  0  0  0
   28.2383   69.8293  100.4744 H   0  0  0  0  0  0  0  0  0  0  0  0
   28.4919   67.3543   99.4815 H   0  0  0  0  0  0  0  0  0  0  0  0
   28.9840   68.9623   98.8081 H   0  0  0  0  0  0  0  0  0  0  0  0
   29.3028   67.9717  102.0477 H   0  0  0  0  0  0  0  0  0  0  0  0
   31.0211   67.8358  102.0276 H   0  0  0  0  0  0  0  0  0  0  0  0
   32.5053   67.6452  101.2576 H   0  0  0  0  0  0  0  0  0  0  0  0
   33.1523   68.2242  102.8792 H   0  0  0  0  0  0  0  0  0  0  0  0
   32.8203   70.0124  102.1442 H   0  0  0  0  0  0  0  0  0  0  0  0
   32.3803   69.1186  104.3773 H   0  0  0  0  0  0  0  0  0  0  0  0
   30.3482   68.0149  104.0572 H   0  0  0  0  0  0  0  0  0  0  0  0
   30.2320   69.6277  104.9063 H   0  0  0  0  0  0  0  0  0  0  0  0
   28.4002   69.2695  103.2701 H   0  0  0  0  0  0  0  0  0  0  0  0
   29.4421   71.5364  103.8475 H   0  0  0  0  0  0  0  0  0  0  0  0
   29.5761   65.7604   98.7227 H   0  0  0  0  0  0  0  0  0  0  0  0
   31.1432   65.0757   98.3105 H   0  0  0  0  0  0  0  0  0  0  0  0
   29.3207   66.8406   96.6201 H   0  0  0  0  0  0  0  0  0  0  0  0
   30.5756   64.4819   96.4397 H   0  0  0  0  0  0  0  0  0  0  0  0
   29.6343   69.0338   96.4949 H   0  0  0  0  0  0  0  0  0  0  0  0
   31.2195   67.7904   94.4939 H   0  0  0  0  0  0  0  0  0  0  0  0
   31.8980   69.1759   95.4384 H   0  0  0  0  0  0  0  0  0  0  0  0
   32.3946   66.9371   96.3369 H   0  0  0  0  0  0  0  0  0  0  0  0
   32.0585   66.8177   99.5016 H   0  0  0  0  0  0  0  0  0  0  0  0
   83.6246   21.0943   50.4045 H   0  0  0  0  0  0  0  0  0  0  0  0
   83.5818   23.4792   51.6234 H   0  0  0  0  0  0  0  0  0  0  0  0
   83.7062   21.7986   52.2956 H   0  0  0  0  0  0  0  0  0  0  0  0
   85.8872   22.2805   49.0251 H   0  0  0  0  0  0  0  0  0  0  0  0
   86.9191   22.9090   50.2175 H   0  0  0  0  0  0  0  0  0  0  0  0
   87.8967   23.0114   51.6495 H   0  0  0  0  0  0  0  0  0  0  0  0
   88.8738   23.0501   50.0352 H   0  0  0  0  0  0  0  0  0  0  0  0
   88.8835   21.1330   50.4666 H   0  0  0  0  0  0  0  0  0  0  0  0
   88.9005   22.1762   48.3068 H   0  0  0  0  0  0  0  0  0  0  0  0
   86.8098   22.8917   47.8216 H   0  0  0  0  0  0  0  0  0  0  0  0
   87.1350   21.2204   47.1235 H   0  0  0  0  0  0  0  0  0  0  0  0
   84.8390   21.5235   48.0075 H   0  0  0  0  0  0  0  0  0  0  0  0
   85.7962   19.4132   49.7078 H   0  0  0  0  0  0  0  0  0  0  0  0
   84.2249   24.9532   52.6738 H   0  0  0  0  0  0  0  0  0  0  0  0
   85.5807   25.7165   53.5047 H   0  0  0  0  0  0  0  0  0  0  0  0
   83.2759   24.1282   54.6905 H   0  0  0  0  0  0  0  0  0  0  0  0
   84.2799   25.3720   56.5741 H   0  0  0  0  0  0  0  0  0  0  0  0
   82.7621   21.5740   56.5818 H   0  0  0  0  0  0  0  0  0  0  0  0
   84.1992   23.1210   57.2596 H   0  0  0  0  0  0  0  0  0  0  0  0
   85.1993   21.7053   56.6943 H   0  0  0  0  0  0  0  0  0  0  0  0
   86.0547   23.8700   55.9758 H   0  0  0  0  0  0  0  0  0  0  0  0
   86.8597   23.9241   52.8940 H   0  0  0  0  0  0  0  0  0  0  0  0
   72.0974   67.8167  100.9920 H   0  0  0  0  0  0  0  0  0  0  0  0
   71.7621   70.1203  102.3178 H   0  0  0  0  0  0  0  0  0  0  0  0
   71.8167   68.4086  102.9070 H   0  0  0  0  0  0  0  0  0  0  0  0
   74.4047   69.3348  100.1329 H   0  0  0  0  0  0  0  0  0  0  0  0
   75.3421   69.6186  101.4308 H   0  0  0  0  0  0  0  0  0  0  0  0
   76.1145   69.9614  102.7481 H   0  0  0  0  0  0  0  0  0  0  0  0
   77.5020   69.3887  101.6796 H   0  0  0  0  0  0  0  0  0  0  0  0
   76.9662   67.6178  102.3202 H   0  0  0  0  0  0  0  0  0  0  0  0
   77.7109   68.1760  100.1526 H   0  0  0  0  0  0  0  0  0  0  0  0
   75.9260   69.4621   99.2676 H   0  0  0  0  0  0  0  0  0  0  0  0
   76.1916   67.8091   98.5466 H   0  0  0  0  0  0  0  0  0  0  0  0
   73.7849   68.3459   98.8808 H   0  0  0  0  0  0  0  0  0  0  0  0
   74.3119   66.1220  100.7256 H   0  0  0  0  0  0  0  0  0  0  0  0
   72.4136   71.7279  103.5144 H   0  0  0  0  0  0  0  0  0  0  0  0
   73.5605   72.2866  104.7176 H   0  0  0  0  0  0  0  0  0  0  0  0
   70.9709   70.7096  105.1196 H   0  0  0  0  0  0  0  0  0  0  0  0
   71.7300   71.8495  107.3237 H   0  0  0  0  0  0  0  0  0  0  0  0
   70.0926   68.0164  106.8759 H   0  0  0  0  0  0  0  0  0  0  0  0
   71.2420   69.7146  107.8407 H   0  0  0  0  0  0  0  0  0  0  0  0
   72.3448   68.2970  107.5826 H   0  0  0  0  0  0  0  0  0  0  0  0
   73.3888   70.3702  107.0023 H   0  0  0  0  0  0  0  0  0  0  0  0
   74.8104   70.4437  104.1979 H   0  0  0  0  0  0  0  0  0  0  0  0
  1  2  1  0
  2  3  1  0
  1  4  1  0
  3  5  1  0
  4  5  1  0
  5  6  1  0
  6  7  1  0
  7  8  1  0
  8  9  1  0
  4 10  1  0
  9 10  1  0
 10 11  1  0
 12 13  1  0
 13 14  1  0
 15 16  1  0
 13 17  1  0
 16 17  1  0
 17 18  1  0
  3 19  1  0
 12 19  1  0
 18 19  1  0
 20 21  1  0
 21 22  1  0
 20 23  1  0
 22 24  1  0
 23 24  1  0
 24 25  1  0
 25 26  1  0
 26 27  1  0
 27 28  1  0
 23 29  1  0
 28 29  1  0
 29 30  1  0
 31 32  1  0
 32 33  1  0
 34 35  1  0
 32 36  1  0
 35 36  1  0
 36 37  1  0
 22 38  1  0
 31 38  1  0
 37 38  1  0
 39 40  1  0
 40 41  1  0
 39 42  1  0
 41 43  1  0
 42 43  1  0
 43 44  1  0
 44 45  1  0
 45 46  1  0
 46 47  1  0
 42 48  1  0
 47 48  1  0
 48 49  1  0
 50 51  1  0
 51 52  1  0
 53 54  1  0
 51 55  1  0
 54 55  1  0
 55 56  1  0
 41 57  1  0
 50 57  1  0
 56 57  1  0
 58 59  1  0
 59 60  1  0
 58 61  1  0
 60 62  1  0
 61 62  1  0
 62 63  1  0
 63 64  1  0
 64 65  1  0
 65 66  1  0
 61 67  1  0
 66 67  1  0
 67 68  1  0
 69 70  1  0
 70 71  1  0
 72 73  1  0
 70 74  1  0
 73 74  1  0
 74 75  1  0
 60 76  1  0
 69 76  1  0
 75 76  1  0
  1 77  1  0
  2 78  1  0
  2 79  1  0
  4 80  1  1
  5 81  1  1
  6 82  1  0
  7 83  1  0
  7 84  1  0
  8 85  1  0
  9 86  1  0
  9 87  1  0
 10 88  1  1
 11 89  1  0
 12 90  1  0
 12 91  1  0
 13 92  1  6
 14 93  1  0
 15 94  1  0
 16 95  1  0
 16 96  1  0
 17 97  1  6
 19 98  1  1
 20 99  1  0
 21100  1  0
 21101  1  0
 23102  1  0
 24103  1  1
 25104  1  0
 26105  1  0
 26106  1  0
 27107  1  0
 28108  1  0
 28109  1  0
 29110  1  1
 30111  1  0
 31112  1  0
 31113  1  0
 32114  1  1
 33115  1  0
 34116  1  0
 35117  1  0
 35118  1  0
 36119  1  6
 38120  1  1
 39121  1  0
 40122  1  0
 40123  1  0
 42124  1  6
 43125  1  6
 44126  1  0
 45127  1  0
 45128  1  0
 46129  1  0
 47130  1  0
 47131  1  0
 48132  1  6
 49133  1  0
 50134  1  0
 50135  1  0
 51136  1  6
 52137  1  0
 53138  1  0
 54139  1  0
 54140  1  0
 55141  1  1
 57142  1  6
 58143  1  0
 59144  1  0
 59145  1  0
 61146  1  6
 62147  1  6
 63148  1  0
 64149  1  0
 64150  1  0
 65151  1  0
 66152  1  0
 66153  1  0
 67154  1  6
 68155  1  0
 69156  1  0
 69157  1  0
 70158  1  6
 71159  1  0
 72160  1  0
 73161  1  0
 73162  1  0
 74163  1  1
 76164  1  1
M  END
>  <PDBID>  (1) 
1A4L

>  <PDB ID>  (1) 
1A4L

>  <Generic Name>  (1) 
Pentostatin

>  <Brand Name>  (1) 
Nipent#Nipent Pws 10mg/vial

>  <DrugBank ID>  (1) 
DB00552

>  <ATC Codes>  (1) 
L01XX08

>  <Ligand ID>  (1) 
DCF

>  <Target Name>  (1) 
Adenosine deaminase

>  <UniProt ID>  (1) 
P00813

>  <PDB ID.1>  (1) 
1A4L

>  <Seq. Identity>  (1) 
83%

$$$$
