PDB_DB08906_99
     RDKit          3D

160168  0  0  0  0  0  0  0  0999 V2000
   31.7240    9.5090    7.9180 C   0  0  0  0  0  0  0  0  0  0  0  0
   31.7410    8.2170    7.1300 C   0  0  2  0  0  0  0  0  0  0  0  0
   32.8200    8.2550    6.0620 C   0  0  0  0  0  0  0  0  0  0  0  0
   32.0330    8.0390    4.7820 C   0  0  1  0  0  0  0  0  0  0  0  0
   32.7770    7.6030    3.5360 C   0  0  2  0  0  0  0  0  0  0  0  0
   33.7920    8.6680    3.1790 C   0  0  0  0  0  0  0  0  0  0  0  0
   34.4910    8.3100    1.8880 C   0  0  2  0  0  0  0  0  0  0  0  0
   35.2800    9.3500    1.5080 F   0  0  0  0  0  0  0  0  0  0  0  0
   33.5160    7.9730    0.8080 C   0  0  0  0  0  0  0  0  0  0  0  0
   33.5900    8.6300   -0.3470 C   0  0  0  0  0  0  0  0  0  0  0  0
   32.6390    8.2940   -1.4100 C   0  0  0  0  0  0  0  0  0  0  0  0
   32.7500    8.8120   -2.5080 O   0  0  0  0  0  0  0  0  0  0  0  0
   31.5580    7.3320   -1.1560 C   0  0  0  0  0  0  0  0  0  0  0  0
   31.5440    6.7280    0.0270 C   0  0  0  0  0  0  0  0  0  0  0  0
   32.5150    6.9210    1.1180 C   0  0  1  0  0  0  0  0  0  0  0  0
   33.2060    5.5870    1.2920 C   0  0  0  0  0  0  0  0  0  0  0  0
   31.7960    7.4080    2.3770 C   0  0  2  0  0  0  0  0  0  0  0  0
   31.3210    8.6540    2.0830 F   0  0  0  0  0  0  0  0  0  0  0  0
   30.5480    6.5860    2.7370 C   0  0  1  0  0  0  0  0  0  0  0  0
   30.8160    5.1940    2.8240 O   0  0  0  0  0  0  0  0  0  0  0  0
   29.9200    6.9910    4.0570 C   0  0  0  0  0  0  0  0  0  0  0  0
   30.9190    7.1040    5.1960 C   0  0  1  0  0  0  0  0  0  0  0  0
   31.4310    5.7280    5.6100 C   0  0  0  0  0  0  0  0  0  0  0  0
   30.4360    7.9010    6.3990 C   0  0  2  0  0  0  0  0  0  0  0  0
   29.8210    9.1130    5.9130 O   0  0  0  0  0  0  0  0  0  0  0  0
   28.8470    9.7290    6.6550 C   0  0  0  0  0  0  0  0  0  0  0  0
   28.4470    9.4020    7.7640 O   0  0  0  0  0  0  0  0  0  0  0  0
   28.3650   10.8530    5.9240 C   0  0  0  0  0  0  0  0  0  0  0  0
   28.3600   11.1380    4.5770 C   0  0  0  0  0  0  0  0  0  0  0  0
   27.7490   12.4080    4.4480 C   0  0  0  0  0  0  0  0  0  0  0  0
   27.4220   12.8140    5.7230 C   0  0  0  0  0  0  0  0  0  0  0  0
   27.7940   11.8680    6.6310 O   0  0  0  0  0  0  0  0  0  0  0  0
   29.4780    7.1010    7.2620 C   0  0  0  0  0  0  0  0  0  0  0  0
   29.7440    6.7330    8.3970 O   0  0  0  0  0  0  0  0  0  0  0  0
   27.9220    6.7270    6.5290 S   0  0  0  0  0  0  0  0  0  0  0  0
   27.1120    6.0390    7.9820 C   0  0  0  0  0  0  0  0  0  0  0  0
   27.6930    4.8370    8.2390 F   0  0  0  0  0  0  0  0  0  0  0  0
   32.8640   -5.8400  -44.9400 C   0  0  0  0  0  0  0  0  0  0  0  0
   32.5710   -4.5570  -44.1980 C   0  0  2  0  0  0  0  0  0  0  0  0
   33.6140   -4.3690  -43.1180 C   0  0  0  0  0  0  0  0  0  0  0  0
   32.7740   -4.3710  -41.8610 C   0  0  1  0  0  0  0  0  0  0  0  0
   33.4380   -3.9070  -40.5950 C   0  0  2  0  0  0  0  0  0  0  0  0
   34.5760   -4.8510  -40.2930 C   0  0  0  0  0  0  0  0  0  0  0  0
   35.2790   -4.3870  -39.0410 C   0  0  2  0  0  0  0  0  0  0  0  0
   36.2610   -5.2760  -38.7380 F   0  0  0  0  0  0  0  0  0  0  0  0
   34.3030   -4.2290  -37.9240 C   0  0  0  0  0  0  0  0  0  0  0  0
   34.5170   -4.8870  -36.7840 C   0  0  0  0  0  0  0  0  0  0  0  0
   33.5590   -4.7300  -35.6790 C   0  0  0  0  0  0  0  0  0  0  0  0
   33.7720   -5.2690  -34.6070 O   0  0  0  0  0  0  0  0  0  0  0  0
   32.3490   -3.9170  -35.8680 C   0  0  0  0  0  0  0  0  0  0  0  0
   32.1980   -3.3050  -37.0420 C   0  0  0  0  0  0  0  0  0  0  0  0
   33.1350   -3.3420  -38.1850 C   0  0  1  0  0  0  0  0  0  0  0  0
   33.6270   -1.9220  -38.3800 C   0  0  0  0  0  0  0  0  0  0  0  0
   32.4490   -3.9000  -39.4340 C   0  0  2  0  0  0  0  0  0  0  0  0
   32.1440   -5.1970  -39.1600 F   0  0  0  0  0  0  0  0  0  0  0  0
   31.0960   -3.2610  -39.7780 C   0  0  1  0  0  0  0  0  0  0  0  0
   31.1820   -1.8440  -39.8060 O   0  0  0  0  0  0  0  0  0  0  0  0
   30.5220   -3.7270  -41.1100 C   0  0  0  0  0  0  0  0  0  0  0  0
   31.5160   -3.6360  -42.2580 C   0  0  1  0  0  0  0  0  0  0  0  0
   31.7820   -2.1850  -42.6420 C   0  0  0  0  0  0  0  0  0  0  0  0
   31.2160   -4.4980  -43.4830 C   0  0  2  0  0  0  0  0  0  0  0  0
   30.8350   -5.7880  -42.9730 O   0  0  0  0  0  0  0  0  0  0  0  0
   30.0930   -6.6510  -43.7400 C   0  0  0  0  0  0  0  0  0  0  0  0
   29.8930   -6.5780  -44.9490 O   0  0  0  0  0  0  0  0  0  0  0  0
   29.6100   -7.6840  -42.8750 C   0  0  0  0  0  0  0  0  0  0  0  0
   29.9290   -8.0020  -41.5730 C   0  0  0  0  0  0  0  0  0  0  0  0
   29.1380   -9.1270  -41.2410 C   0  0  0  0  0  0  0  0  0  0  0  0
   28.3890   -9.4220  -42.3590 C   0  0  0  0  0  0  0  0  0  0  0  0
   28.6720   -8.5450  -43.3610 O   0  0  0  0  0  0  0  0  0  0  0  0
   30.1510   -3.9120  -44.3990 C   0  0  0  0  0  0  0  0  0  0  0  0
   30.4040   -3.5550  -45.5410 O   0  0  0  0  0  0  0  0  0  0  0  0
   28.5140   -3.7810  -43.7390 S   0  0  0  0  0  0  0  0  0  0  0  0
   27.6720   -3.0180  -45.1380 C   0  0  0  0  0  0  0  0  0  0  0  0
   28.3980   -1.9350  -45.5240 F   0  0  0  0  0  0  0  0  0  0  0  0
   31.7270    9.2821    8.9943 H   0  0  0  0  0  0  0  0  0  0  0  0
   32.6144   10.1038    7.6662 H   0  0  0  0  0  0  0  0  0  0  0  0
   30.8183   10.0802    7.6662 H   0  0  0  0  0  0  0  0  0  0  0  0
   31.9188    7.4429    7.8911 H   0  0  0  0  0  0  0  0  0  0  0  0
   33.3337    9.2276    6.0521 H   0  0  0  0  0  0  0  0  0  0  0  0
   33.6131    7.5087    6.2171 H   0  0  0  0  0  0  0  0  0  0  0  0
   31.6853    9.0126    4.4063 H   0  0  0  0  0  0  0  0  0  0  0  0
   33.2875    6.6471    3.7248 H   0  0  0  0  0  0  0  0  0  0  0  0
   33.2788    9.6335    3.0588 H   0  0  0  0  0  0  0  0  0  0  0  0
   34.5382    8.7373    3.9842 H   0  0  0  0  0  0  0  0  0  0  0  0
   35.1077    7.4153    2.0589 H   0  0  0  0  0  0  0  0  0  0  0  0
   32.8229    8.7338    1.1963 H   0  0  0  0  0  0  0  0  0  0  0  0
   33.4584    9.6984   -0.1207 H   0  0  0  0  0  0  0  0  0  0  0  0
   34.5664    8.3358   -0.7594 H   0  0  0  0  0  0  0  0  0  0  0  0
   31.9866    9.1186   -1.0869 H   0  0  0  0  0  0  0  0  0  0  0  0
   32.9562    9.7742   -2.3996 H   0  0  0  0  0  0  0  0  0  0  0  0
   30.6048    7.8706   -1.2630 H   0  0  0  0  0  0  0  0  0  0  0  0
   31.7236    6.5235   -1.8833 H   0  0  0  0  0  0  0  0  0  0  0  0
   30.5669    6.9792    0.4654 H   0  0  0  0  0  0  0  0  0  0  0  0
   31.8177    5.7090   -0.2840 H   0  0  0  0  0  0  0  0  0  0  0  0
   33.3186    5.3695    2.3644 H   0  0  0  0  0  0  0  0  0  0  0  0
   32.6035    4.7975    0.8191 H   0  0  0  0  0  0  0  0  0  0  0  0
   34.1985    5.6237    0.8191 H   0  0  0  0  0  0  0  0  0  0  0  0
   29.8531    6.7973    1.9109 H   0  0  0  0  0  0  0  0  0  0  0  0
   30.8675    4.9267    3.7758 H   0  0  0  0  0  0  0  0  0  0  0  0
   29.4315    7.9676    3.9246 H   0  0  0  0  0  0  0  0  0  0  0  0
   29.2062    6.2001    4.3310 H   0  0  0  0  0  0  0  0  0  0  0  0
   31.4559    5.6611    6.7077 H   0  0  0  0  0  0  0  0  0  0  0  0
   30.7614    4.9521    5.2104 H   0  0  0  0  0  0  0  0  0  0  0  0
   32.4449    5.5786    5.2104 H   0  0  0  0  0  0  0  0  0  0  0  0
   28.0858    9.0849    6.1905 H   0  0  0  0  0  0  0  0  0  0  0  0
   28.9942    9.8493    8.4573 H   0  0  0  0  0  0  0  0  0  0  0  0
   29.3470   11.3386    6.0231 H   0  0  0  0  0  0  0  0  0  0  0  0
   29.3889   11.1679    4.1891 H   0  0  0  0  0  0  0  0  0  0  0  0
   27.8175   10.3706    4.0054 H   0  0  0  0  0  0  0  0  0  0  0  0
   28.4489   13.1220    3.9892 H   0  0  0  0  0  0  0  0  0  0  0  0
   26.8581   12.3582    3.8047 H   0  0  0  0  0  0  0  0  0  0  0  0
   27.9417   13.7570    5.9480 H   0  0  0  0  0  0  0  0  0  0  0  0
   26.3334   12.9597    5.7838 H   0  0  0  0  0  0  0  0  0  0  0  0
   29.8970    6.1664    6.8608 H   0  0  0  0  0  0  0  0  0  0  0  0
   29.3081    7.3360    9.0501 H   0  0  0  0  0  0  0  0  0  0  0  0
   27.2452    6.7126    8.8413 H   0  0  0  0  0  0  0  0  0  0  0  0
   26.0328    5.9196    7.8057 H   0  0  0  0  0  0  0  0  0  0  0  0
   33.0485   -6.6479  -44.2167 H   0  0  0  0  0  0  0  0  0  0  0  0
   32.0028   -6.1031  -45.5718 H   0  0  0  0  0  0  0  0  0  0  0  0
   33.7540   -5.7031  -45.5718 H   0  0  0  0  0  0  0  0  0  0  0  0
   32.5716   -3.7806  -44.9772 H   0  0  0  0  0  0  0  0  0  0  0  0
   34.3389   -5.1964  -43.1149 H   0  0  0  0  0  0  0  0  0  0  0  0
   34.2208   -3.4600  -43.2428 H   0  0  0  0  0  0  0  0  0  0  0  0
   32.5617   -5.4001  -41.5355 H   0  0  0  0  0  0  0  0  0  0  0  0
   33.8094   -2.8800  -40.7265 H   0  0  0  0  0  0  0  0  0  0  0  0
   34.1822   -5.8667  -40.1401 H   0  0  0  0  0  0  0  0  0  0  0  0
   35.2839   -4.8616  -41.1349 H   0  0  0  0  0  0  0  0  0  0  0  0
   35.7372   -3.4005  -39.2048 H   0  0  0  0  0  0  0  0  0  0  0  0
   33.7252   -5.0825  -38.3082 H   0  0  0  0  0  0  0  0  0  0  0  0
   34.5506   -5.9582  -37.0316 H   0  0  0  0  0  0  0  0  0  0  0  0
   35.4447   -4.4432  -36.3936 H   0  0  0  0  0  0  0  0  0  0  0  0
   33.0178   -5.6244  -36.0212 H   0  0  0  0  0  0  0  0  0  0  0  0
   33.5279   -4.6513  -33.8728 H   0  0  0  0  0  0  0  0  0  0  0  0
   31.4817   -4.5787  -35.7270 H   0  0  0  0  0  0  0  0  0  0  0  0
   32.4412   -3.1014  -35.1357 H   0  0  0  0  0  0  0  0  0  0  0  0
   31.2464   -3.6858  -37.4414 H   0  0  0  0  0  0  0  0  0  0  0  0
   32.3460   -2.2631  -36.7219 H   0  0  0  0  0  0  0  0  0  0  0  0
   33.7897   -1.4523  -37.3987 H   0  0  0  0  0  0  0  0  0  0  0  0
   34.5728   -1.9355  -38.9414 H   0  0  0  0  0  0  0  0  0  0  0  0
   32.8755   -1.3474  -38.9414 H   0  0  0  0  0  0  0  0  0  0  0  0
   30.4196   -3.5913  -38.9759 H   0  0  0  0  0  0  0  0  0  0  0  0
   31.2031   -1.4963  -38.8793 H   0  0  0  0  0  0  0  0  0  0  0  0
   30.2039   -4.7748  -41.0057 H   0  0  0  0  0  0  0  0  0  0  0  0
   29.6811   -3.0610  -41.3534 H   0  0  0  0  0  0  0  0  0  0  0  0
   31.8931   -1.5790  -41.7307 H   0  0  0  0  0  0  0  0  0  0  0  0
   32.7059   -2.1264  -43.2362 H   0  0  0  0  0  0  0  0  0  0  0  0
   30.9390   -1.8025  -43.2362 H   0  0  0  0  0  0  0  0  0  0  0  0
   29.1949   -6.0435  -43.5547 H   0  0  0  0  0  0  0  0  0  0  0  0
   28.9757   -6.2432  -45.1121 H   0  0  0  0  0  0  0  0  0  0  0  0
   30.4040   -8.3555  -43.2336 H   0  0  0  0  0  0  0  0  0  0  0  0
   30.9978   -8.2487  -41.4907 H   0  0  0  0  0  0  0  0  0  0  0  0
   29.7355   -7.1589  -40.8935 H   0  0  0  0  0  0  0  0  0  0  0  0
   29.7813   -9.9798  -40.9786 H   0  0  0  0  0  0  0  0  0  0  0  0
   28.4937   -8.9185  -40.3741 H   0  0  0  0  0  0  0  0  0  0  0  0
   28.6230  -10.4434  -42.6936 H   0  0  0  0  0  0  0  0  0  0  0  0
   27.3214   -9.3443  -42.1057 H   0  0  0  0  0  0  0  0  0  0  0  0
   30.3894   -2.9032  -44.0308 H   0  0  0  0  0  0  0  0  0  0  0  0
   30.9762   -2.7475  -45.5152 H   0  0  0  0  0  0  0  0  0  0  0  0
   27.6017   -3.7359  -45.9685 H   0  0  0  0  0  0  0  0  0  0  0  0
   26.6539   -2.7144  -44.8527 H   0  0  0  0  0  0  0  0  0  0  0  0
  1  2  1  0
  2  3  1  0
  3  4  1  0
  4  5  1  0
  5  6  1  0
  6  7  1  0
  7  8  1  0
  7  9  1  0
  9 10  1  0
 10 11  1  0
 11 12  1  0
 11 13  1  0
 13 14  1  0
  9 15  1  0
 14 15  1  0
 15 16  1  1
  5 17  1  0
 15 17  1  0
 17 18  1  6
 17 19  1  0
 19 20  1  0
 19 21  1  0
  4 22  1  0
 21 22  1  0
 22 23  1  1
  2 24  1  0
 22 24  1  0
 24 25  1  6
 25 26  1  0
 26 27  1  0
 26 28  1  0
 28 29  1  0
 29 30  1  0
 30 31  1  0
 28 32  1  0
 31 32  1  0
 24 33  1  0
 33 34  1  0
 33 35  1  0
 35 36  1  0
 36 37  1  0
 38 39  1  0
 39 40  1  0
 40 41  1  0
 41 42  1  0
 42 43  1  0
 43 44  1  0
 44 45  1  0
 44 46  1  0
 46 47  1  0
 47 48  1  0
 48 49  1  0
 48 50  1  0
 50 51  1  0
 46 52  1  0
 51 52  1  0
 52 53  1  6
 42 54  1  0
 52 54  1  0
 54 55  1  1
 54 56  1  0
 56 57  1  0
 56 58  1  0
 41 59  1  0
 58 59  1  0
 59 60  1  6
 39 61  1  0
 59 61  1  0
 61 62  1  1
 62 63  1  0
 63 64  1  0
 63 65  1  0
 65 66  1  0
 66 67  1  0
 67 68  1  0
 65 69  1  0
 68 69  1  0
 61 70  1  0
 70 71  1  0
 70 72  1  0
 72 73  1  0
 73 74  1  0
  1 75  1  0
  1 76  1  0
  1 77  1  0
  2 78  1  1
  3 79  1  0
  3 80  1  0
  4 81  1  6
  5 82  1  1
  6 83  1  0
  6 84  1  0
  7 85  1  1
  9 86  1  0
 10 87  1  0
 10 88  1  0
 11 89  1  0
 12 90  1  0
 13 91  1  0
 13 92  1  0
 14 93  1  0
 14 94  1  0
 16 95  1  0
 16 96  1  0
 16 97  1  0
 19 98  1  6
 20 99  1  0
 21100  1  0
 21101  1  0
 23102  1  0
 23103  1  0
 23104  1  0
 26105  1  0
 27106  1  0
 28107  1  0
 29108  1  0
 29109  1  0
 30110  1  0
 30111  1  0
 31112  1  0
 31113  1  0
 33114  1  0
 34115  1  0
 36116  1  0
 36117  1  0
 38118  1  0
 38119  1  0
 38120  1  0
 39121  1  6
 40122  1  0
 40123  1  0
 41124  1  1
 42125  1  6
 43126  1  0
 43127  1  0
 44128  1  6
 46129  1  0
 47130  1  0
 47131  1  0
 48132  1  0
 49133  1  0
 50134  1  0
 50135  1  0
 51136  1  0
 51137  1  0
 53138  1  0
 53139  1  0
 53140  1  0
 56141  1  1
 57142  1  0
 58143  1  0
 58144  1  0
 60145  1  0
 60146  1  0
 60147  1  0
 63148  1  0
 64149  1  0
 65150  1  0
 66151  1  0
 66152  1  0
 67153  1  0
 67154  1  0
 68155  1  0
 68156  1  0
 70157  1  0
 71158  1  0
 73159  1  0
 73160  1  0
M  END
>  <PDBID>  (1) 
3CLD

>  <PDB ID>  (1) 
3CLD

>  <Generic Name>  (1) 
Fluticasone furoate

>  <Brand Name>  (1) 
Arnuity Ellipta#Avamys#Breo Ellipta#Flonase Sensimist Allergy Relief#Veramyst

>  <DrugBank ID>  (1) 
DB08906

>  <ATC Codes>  (1) 
R03AK10#R01AD12#R03BA09

>  <Ligand ID>  (1) 
GW6

>  <Target Name>  (1) 
Glucocorticoid receptor

>  <UniProt ID>  (1) 
P04150

>  <PDB ID.1>  (1) 
3CLD

>  <Seq. Identity>  (1) 
99%

$$$$
