PDB_DB01127_99
     RDKit          3D

110114  0  0  0  0  0  0  0  0999 V2000
   41.3160    6.6840   50.1960 C   0  0  0  0  0  0  0  0  0  0  0  0
   41.8010    7.9870   50.1340 C   0  0  0  0  0  0  0  0  0  0  0  0
   40.8620    6.5660   55.0730 Cl  0  0  0  0  0  0  0  0  0  0  0  0
   40.1740    2.5230   50.0380 C   0  0  0  0  0  0  0  0  0  0  0  0
   41.1320    2.6040   51.0000 C   0  0  0  0  0  0  0  0  0  0  0  0
   41.8900    6.3310   47.8940 C   0  0  0  0  0  0  0  0  0  0  0  0
   41.3620    5.8570   49.0830 C   0  0  0  0  0  0  0  0  0  0  0  0
   42.3730    7.6290   47.8250 C   0  0  0  0  0  0  0  0  0  0  0  0
   43.0470    8.2080   46.2710 Cl  0  0  0  0  0  0  0  0  0  0  0  0
   42.6010    6.1960   55.0790 C   0  0  0  0  0  0  0  0  0  0  0  0
   43.3100    6.5760   56.1960 C   0  0  0  0  0  0  0  0  0  0  0  0
   44.6600    6.3120   56.2640 C   0  0  0  0  0  0  0  0  0  0  0  0
   45.2940    5.6640   55.2100 C   0  0  0  0  0  0  0  0  0  0  0  0
   45.5550    6.8240   57.7330 Cl  0  0  0  0  0  0  0  0  0  0  0  0
   39.2390    3.4190   50.3620 N   0  0  0  0  0  0  0  0  0  0  0  0
   41.4600    4.0250   53.1350 C   0  0  0  0  0  0  0  0  0  0  0  0
   42.4280    5.1640   52.8260 C   0  0  1  0  0  0  0  0  0  0  0  0
   41.7130    6.3510   52.4770 O   0  0  0  0  0  0  0  0  0  0  0  0
   43.2130    5.5410   54.0230 C   0  0  0  0  0  0  0  0  0  0  0  0
   40.7390    3.5980   51.9210 N   0  0  0  0  0  0  0  0  0  0  0  0
   39.5740    4.0620   51.4790 C   0  0  0  0  0  0  0  0  0  0  0  0
   40.7400    6.1480   51.4740 C   0  0  0  0  0  0  0  0  0  0  0  0
   42.3310    8.4630   48.9390 C   0  0  0  0  0  0  0  0  0  0  0  0
   44.5770    5.2810   54.0820 C   0  0  0  0  0  0  0  0  0  0  0  0
   49.5970  -22.9210  102.5920 C   0  0  0  0  0  0  0  0  0  0  0  0
   50.5870  -23.9000  102.6150 C   0  0  0  0  0  0  0  0  0  0  0  0
   48.7610  -22.6080   97.7670 Cl  0  0  0  0  0  0  0  0  0  0  0  0
   46.0690  -19.6310  102.4930 C   0  0  0  0  0  0  0  0  0  0  0  0
   46.9720  -19.2320  101.5660 C   0  0  0  0  0  0  0  0  0  0  0  0
   50.2350  -22.1940  104.7940 C   0  0  0  0  0  0  0  0  0  0  0  0
   49.4230  -22.0710  103.6780 C   0  0  0  0  0  0  0  0  0  0  0  0
   51.2220  -23.1690  104.8150 C   0  0  0  0  0  0  0  0  0  0  0  0
   52.2660  -23.3160  106.2630 Cl  0  0  0  0  0  0  0  0  0  0  0  0
   50.1420  -21.4660   97.7860 C   0  0  0  0  0  0  0  0  0  0  0  0
   50.9160  -21.3150   96.6550 C   0  0  0  0  0  0  0  0  0  0  0  0
   51.9730  -20.4260   96.6850 C   0  0  0  0  0  0  0  0  0  0  0  0
   52.2610  -19.6910   97.8310 C   0  0  0  0  0  0  0  0  0  0  0  0
   52.9700  -20.2460   95.2150 Cl  0  0  0  0  0  0  0  0  0  0  0  0
   45.8470  -20.9260  102.2870 N   0  0  0  0  0  0  0  0  0  0  0  0
   48.1990  -20.4050   99.6710 C   0  0  0  0  0  0  0  0  0  0  0  0
   49.5560  -20.9550  100.0930 C   0  0  1  0  0  0  0  0  0  0  0  0
   49.4850  -22.3830  100.2710 O   0  0  0  0  0  0  0  0  0  0  0  0
   50.4230  -20.7400   98.9280 C   0  0  0  0  0  0  0  0  0  0  0  0
   47.2880  -20.3470  100.7950 N   0  0  0  0  0  0  0  0  0  0  0  0
   46.5730  -21.3550  101.2760 C   0  0  0  0  0  0  0  0  0  0  0  0
   48.6980  -22.7700  101.3880 C   0  0  0  0  0  0  0  0  0  0  0  0
   51.4020  -24.0250  103.7330 C   0  0  0  0  0  0  0  0  0  0  0  0
   51.4800  -19.8450   98.9670 C   0  0  0  0  0  0  0  0  0  0  0  0
   40.3210    7.0398   49.8905 H   0  0  0  0  0  0  0  0  0  0  0  0
   40.9670    8.6523   50.4020 H   0  0  0  0  0  0  0  0  0  0  0  0
   42.6656    7.9743   50.8140 H   0  0  0  0  0  0  0  0  0  0  0  0
   40.6028    2.7596   49.0530 H   0  0  0  0  0  0  0  0  0  0  0  0
   39.7518    1.5089   49.9795 H   0  0  0  0  0  0  0  0  0  0  0  0
   41.2288    1.6360   51.5135 H   0  0  0  0  0  0  0  0  0  0  0  0
   42.1038    2.8592   50.5523 H   0  0  0  0  0  0  0  0  0  0  0  0
   42.7247    5.6657   47.6282 H   0  0  0  0  0  0  0  0  0  0  0  0
   41.0234    6.3443   47.2166 H   0  0  0  0  0  0  0  0  0  0  0  0
   41.9557    4.9753   49.3659 H   0  0  0  0  0  0  0  0  0  0  0  0
   40.3010    5.6935   48.8432 H   0  0  0  0  0  0  0  0  0  0  0  0
   43.3699    7.2740   48.1251 H   0  0  0  0  0  0  0  0  0  0  0  0
   42.8101    7.1710   54.6146 H   0  0  0  0  0  0  0  0  0  0  0  0
   43.1915    7.6651   56.2952 H   0  0  0  0  0  0  0  0  0  0  0  0
   42.8841    5.9536   56.9967 H   0  0  0  0  0  0  0  0  0  0  0  0
   44.4463    5.3402   56.7330 H   0  0  0  0  0  0  0  0  0  0  0  0
   46.0929    6.3355   54.8623 H   0  0  0  0  0  0  0  0  0  0  0  0
   45.5889    4.7016   55.6536 H   0  0  0  0  0  0  0  0  0  0  0  0
   39.1424    4.1000   49.5953 H   0  0  0  0  0  0  0  0  0  0  0  0
   42.0259    3.1712   53.5360 H   0  0  0  0  0  0  0  0  0  0  0  0
   40.7246    4.3810   53.8715 H   0  0  0  0  0  0  0  0  0  0  0  0
   43.0711    4.8031   52.0098 H   0  0  0  0  0  0  0  0  0  0  0  0
   42.9735    4.5720   54.4852 H   0  0  0  0  0  0  0  0  0  0  0  0
   38.7998    3.8988   52.2432 H   0  0  0  0  0  0  0  0  0  0  0  0
   39.6610    5.1389   51.2721 H   0  0  0  0  0  0  0  0  0  0  0  0
   39.8157    6.6875   51.7283 H   0  0  0  0  0  0  0  0  0  0  0  0
   40.4897    5.0812   51.3772 H   0  0  0  0  0  0  0  0  0  0  0  0
   41.7382    9.3452   48.6555 H   0  0  0  0  0  0  0  0  0  0  0  0
   43.3922    8.6290   49.1763 H   0  0  0  0  0  0  0  0  0  0  0  0
   45.0379    5.7877   53.2213 H   0  0  0  0  0  0  0  0  0  0  0  0
   44.6326    4.1825   54.0982 H   0  0  0  0  0  0  0  0  0  0  0  0
   48.8836  -23.6320  103.0342 H   0  0  0  0  0  0  0  0  0  0  0  0
   50.0826  -24.8678  102.4774 H   0  0  0  0  0  0  0  0  0  0  0  0
   51.2821  -23.5818  101.8240 H   0  0  0  0  0  0  0  0  0  0  0  0
   46.4710  -19.4728  103.5046 H   0  0  0  0  0  0  0  0  0  0  0  0
   45.1364  -19.0541  102.4065 H   0  0  0  0  0  0  0  0  0  0  0  0
   46.5384  -18.4451  100.9313 H   0  0  0  0  0  0  0  0  0  0  0  0
   47.8718  -18.8216  102.0476 H   0  0  0  0  0  0  0  0  0  0  0  0
   50.7384  -21.2257  104.9321 H   0  0  0  0  0  0  0  0  0  0  0  0
   49.5406  -22.5113  105.5859 H   0  0  0  0  0  0  0  0  0  0  0  0
   49.5539  -21.0455  103.3021 H   0  0  0  0  0  0  0  0  0  0  0  0
   48.4289  -22.3488  104.0582 H   0  0  0  0  0  0  0  0  0  0  0  0
   51.9348  -22.4570  104.3734 H   0  0  0  0  0  0  0  0  0  0  0  0
   50.8046  -22.2731   98.1317 H   0  0  0  0  0  0  0  0  0  0  0  0
   51.3324  -22.3042   96.4140 H   0  0  0  0  0  0  0  0  0  0  0  0
   50.2255  -20.8819   95.9164 H   0  0  0  0  0  0  0  0  0  0  0  0
   51.3071  -19.6225   96.3370 H   0  0  0  0  0  0  0  0  0  0  0  0
   53.2928  -19.9417   98.1183 H   0  0  0  0  0  0  0  0  0  0  0  0
   52.0601  -18.6540   97.5241 H   0  0  0  0  0  0  0  0  0  0  0  0
   46.0986  -21.4537  103.1350 H   0  0  0  0  0  0  0  0  0  0  0  0
   48.3327  -19.3918   99.2642 H   0  0  0  0  0  0  0  0  0  0  0  0
   47.7722  -21.0741   98.9093 H   0  0  0  0  0  0  0  0  0  0  0  0
   49.8992  -20.4796  101.0237 H   0  0  0  0  0  0  0  0  0  0  0  0
   49.7572  -19.9362   98.5808 H   0  0  0  0  0  0  0  0  0  0  0  0
   45.9124  -21.7465  100.4884 H   0  0  0  0  0  0  0  0  0  0  0  0
   47.2454  -22.1560  101.6170 H   0  0  0  0  0  0  0  0  0  0  0  0
   48.2016  -23.7283  101.1755 H   0  0  0  0  0  0  0  0  0  0  0  0
   47.9334  -22.0048  101.5878 H   0  0  0  0  0  0  0  0  0  0  0  0
   51.2703  -25.0495  104.1111 H   0  0  0  0  0  0  0  0  0  0  0  0
   52.3992  -23.7551  103.3552 H   0  0  0  0  0  0  0  0  0  0  0  0
   52.1484  -20.1676   99.7789 H   0  0  0  0  0  0  0  0  0  0  0  0
   50.9974  -18.8650   99.0960 H   0  0  0  0  0  0  0  0  0  0  0  0
  1  2  1  0
  4  5  1  0
  1  7  1  0
  6  7  1  0
  6  8  1  0
  8  9  1  0
  3 10  1  0
 10 11  1  0
 11 12  1  0
 12 13  1  0
 12 14  1  0
  4 15  1  0
 16 17  1  0
 17 18  1  0
 10 19  1  0
 17 19  1  0
  5 20  1  0
 16 20  1  0
 20 21  1  0
 21 15  1  0
  1 22  1  0
 18 22  1  0
  2 23  1  0
  8 23  1  0
 13 24  1  0
 19 24  1  0
 25 26  1  0
 28 29  1  0
 25 31  1  0
 30 31  1  0
 30 32  1  0
 32 33  1  0
 27 34  1  0
 34 35  1  0
 35 36  1  0
 36 37  1  0
 36 38  1  0
 28 39  1  0
 40 41  1  0
 41 42  1  0
 34 43  1  0
 41 43  1  0
 29 44  1  0
 40 44  1  0
 44 45  1  0
 45 39  1  0
 25 46  1  0
 42 46  1  0
 26 47  1  0
 32 47  1  0
 37 48  1  0
 43 48  1  0
  1 49  1  0
  2 50  1  0
  2 51  1  0
  4 52  1  0
  4 53  1  0
  5 54  1  0
  5 55  1  0
  6 56  1  0
  6 57  1  0
  7 58  1  0
  7 59  1  0
  8 60  1  0
 10 61  1  0
 11 62  1  0
 11 63  1  0
 12 64  1  0
 13 65  1  0
 13 66  1  0
 15 67  1  1
 16 68  1  0
 16 69  1  0
 17 70  1  6
 19 71  1  0
 21 72  1  0
 21 73  1  0
 22 74  1  0
 22 75  1  0
 23 76  1  0
 23 77  1  0
 24 78  1  0
 24 79  1  0
 25 80  1  0
 26 81  1  0
 26 82  1  0
 28 83  1  0
 28 84  1  0
 29 85  1  0
 29 86  1  0
 30 87  1  0
 30 88  1  0
 31 89  1  0
 31 90  1  0
 32 91  1  0
 34 92  1  0
 35 93  1  0
 35 94  1  0
 36 95  1  0
 37 96  1  0
 37 97  1  0
 39 98  1  6
 40 99  1  0
 40100  1  0
 41101  1  1
 43102  1  0
 45103  1  0
 45104  1  0
 46105  1  0
 46106  1  0
 47107  1  0
 47108  1  0
 48109  1  0
 48110  1  0
M  END
>  <PDBID>  (1) 
3JUS

>  <PDB ID>  (1) 
3JUS

>  <Generic Name>  (1) 
Econazole

>  <Brand Name>  (1) 
Econazole Nitrate#Econazole Nitrate Cream#Econazole Nitrate Topical Foam, 1%#Ecostatin Cream 1%#Ecostatin Vaginal Ovule 150mg#Ecoza#Ecostatin#Gyno-Pevaryl#Ifenec#Palavale#Pevaryl#Spectazole

>  <DrugBank ID>  (1) 
DB01127

>  <ATC Codes>  (1) 
G01AF05#D01AC03

>  <Ligand ID>  (1) 
ECL,ECN

>  <Target Name>  (1) 
Lanosterol 14-alpha demethylase

>  <UniProt ID>  (1) 
P10613

>  <PDB ID.1>  (1) 
3JUS

>  <Seq. Identity>  (1) 
40%

$$$$
