PDB_DB00302_98
     RDKit          3D

 29 29  0  0  0  0  0  0  0  0999 V2000
    5.6330   -0.3560   -9.0440 C   0  0  2  0  0  0  0  0  0  0  0  0
    5.0730    0.7890   -9.8920 C   0  0  0  0  0  0  0  0  0  0  0  0
    3.9840    0.2530  -10.8180 C   0  0  0  0  0  0  0  0  0  0  0  0
    2.7720   -0.3120  -10.0490 C   0  0  2  0  0  0  0  0  0  0  0  0
    3.2750   -1.3200   -9.0140 C   0  0  0  0  0  0  0  0  0  0  0  0
    4.4740   -0.8420   -8.1730 C   0  0  0  0  0  0  0  0  0  0  0  0
    1.7660   -0.9960  -11.0170 C   0  0  0  0  0  0  0  0  0  0  0  0
    6.8660    0.0820   -8.2090 C   0  0  0  0  0  0  0  0  0  0  0  0
    2.4750   -1.7890  -12.0240 N   0  0  0  0  0  4  0  0  0  0  0  0
    7.4630    1.1180   -8.4980 O   0  0  0  0  0  0  0  0  0  0  0  0
    7.2650   -0.6270   -7.2870 O   0  0  0  0  0  0  0  0  0  0  0  0
    5.9690   -1.1730   -9.6840 H   0  0  0  0  0  0  0  0  0  0  0  0
    5.8590    1.2340  -10.5020 H   0  0  0  0  0  0  0  0  0  0  0  0
    4.6630    1.5480   -9.2210 H   0  0  0  0  0  0  0  0  0  0  0  0
    3.6640    1.0250  -11.5180 H   0  0  0  0  0  0  0  0  0  0  0  0
    4.4620   -0.5380  -11.3910 H   0  0  0  0  0  0  0  0  0  0  0  0
    2.2600    0.5130   -9.5320 H   0  0  0  0  0  0  0  0  0  0  0  0
    2.4430   -1.6140   -8.3710 H   0  0  0  0  0  0  0  0  0  0  0  0
    3.5950   -2.1940   -9.5660 H   0  0  0  0  0  0  0  0  0  0  0  0
    4.8080   -1.6340   -7.5160 H   0  0  0  0  0  0  0  0  0  0  0  0
    4.1850   -0.0230   -7.5330 H   0  0  0  0  0  0  0  0  0  0  0  0
    1.0900   -1.6540  -10.4560 H   0  0  0  0  0  0  0  0  0  0  0  0
    1.1700   -0.2230  -11.5110 H   0  0  0  0  0  0  0  0  0  0  0  0
    3.2430   -2.2820  -11.6140 H   0  0  0  0  0  0  0  0  0  0  0  0
    1.8420   -2.4490  -12.4270 H   0  0  0  0  0  0  0  0  0  0  0  0
    2.8140   -1.1830  -12.7450 H   0  0  0  0  0  0  0  0  0  0  0  0
    7.5242   -0.4854   -8.8833 H   0  0  0  0  0  0  0  0  0  0  0  0
    7.7326    1.5859   -7.6683 H   0  0  0  0  0  0  0  0  0  0  0  0
    7.0288   -0.2074   -6.4220 H   0  0  0  0  0  0  0  0  0  0  0  0
  2  1  1  0
  3  2  1  0
  4  3  1  0
  5  4  1  0
  6  5  1  0
  6  1  1  0
  7  4  1  0
  8  1  1  0
  9  7  1  0
 10  8  1  0
 11  8  1  0
  1 12  1  6
 13  2  1  0
 14  2  1  0
 15  3  1  0
 16  3  1  0
  4 17  1  1
 18  5  1  0
 19  5  1  0
 20  6  1  0
 21  6  1  0
 22  7  1  0
 23  7  1  0
 24  9  1  0
 25  9  1  0
 26  9  1  0
  8 27  1  0
 10 28  1  0
 11 29  1  0
M  CHG  1   9   1
M  END
>  <PDBID>  (1) 
1B2I

>  <PDB ID>  (1) 
1B2I

>  <Generic Name>  (1) 
Tranexamic Acid

>  <Brand Name>  (1) 
Cyklokapron#Cyklokapron 100 mg/ml#Cyklokapron 500 mg#Erfa-tranexamic#Gd-tranexamic Acid#Lysteda#Pure Whitenol Serum#Tranexamic Acid#Tranexamic Acid Injection#Tranexamic Acid Injection BP#Tranexamic Acid Tablets#Tranexamic Acid Tranexamic Acid#Cyclo-F#Espercil#Femstrual#Rikavarin#Transamin#Transcam#Traxyl

>  <DrugBank ID>  (1) 
DB00302

>  <ATC Codes>  (1) 
B02AA02

>  <Ligand ID>  (1) 
AMH

>  <Target Name>  (1) 
Plasminogen

>  <UniProt ID>  (1) 
P00747

>  <PDB ID.1>  (1) 
1B2I

>  <Seq. Identity>  (1) 
99%

$$$$
