PDB_DB00255_98
     RDKit          3D

108110  0  0  0  0  0  0  0  0999 V2000
    5.3970   -3.0840   -6.1700 C   0  0  0  0  0  0  0  0  0  0  0  0
    5.8180   -2.0660   -5.1530 C   0  0  0  0  0  0  0  0  0  0  0  0
    5.0590   -0.7450   -5.2310 C   0  0  0  0  0  0  0  0  0  0  0  0
    3.5590   -0.8980   -5.0640 C   0  0  0  0  0  0  0  0  0  0  0  0
    2.9720   -0.9970   -3.7920 C   0  0  0  0  0  0  0  0  0  0  0  0
    1.5760   -1.1710   -3.6570 C   0  0  0  0  0  0  0  0  0  0  0  0
    0.7810   -1.2440   -4.8000 C   0  0  0  0  0  0  0  0  0  0  0  0
   -0.5870   -1.4440   -4.7290 O   0  0  0  0  0  0  0  0  0  0  0  0
    1.3510   -1.1440   -6.0710 C   0  0  0  0  0  0  0  0  0  0  0  0
    2.7290   -0.9730   -6.1850 C   0  0  0  0  0  0  0  0  0  0  0  0
    5.6330    0.4260   -5.4430 C   0  0  0  0  0  0  0  0  0  0  0  0
    7.1080    0.5490   -5.8150 C   0  0  0  0  0  0  0  0  0  0  0  0
    7.5360    0.3040   -7.1250 C   0  0  0  0  0  0  0  0  0  0  0  0
    8.8860    0.4380   -7.4820 C   0  0  0  0  0  0  0  0  0  0  0  0
    9.8190    0.8170   -6.5220 C   0  0  0  0  0  0  0  0  0  0  0  0
   11.1610    0.9440   -6.8290 O   0  0  0  0  0  0  0  0  0  0  0  0
    9.4220    1.0690   -5.2040 C   0  0  0  0  0  0  0  0  0  0  0  0
    8.0630    0.9280   -4.8680 C   0  0  0  0  0  0  0  0  0  0  0  0
    4.8990    1.7680   -5.4010 C   0  0  0  0  0  0  0  0  0  0  0  0
    4.9700    2.4780   -4.0720 C   0  0  0  0  0  0  0  0  0  0  0  0
   -4.5960   -6.0540   21.9670 C   0  0  0  0  0  0  0  0  0  0  0  0
   -3.2130   -6.3360   21.5040 C   0  0  0  0  0  0  0  0  0  0  0  0
   -2.8860   -7.8290   21.3880 C   0  0  0  0  0  0  0  0  0  0  0  0
   -3.7260   -8.5450   20.3530 C   0  0  0  0  0  0  0  0  0  0  0  0
   -3.3940   -8.4960   18.9940 C   0  0  0  0  0  0  0  0  0  0  0  0
   -4.2130   -9.1070   18.0390 C   0  0  0  0  0  0  0  0  0  0  0  0
   -5.3670   -9.7750   18.4430 C   0  0  0  0  0  0  0  0  0  0  0  0
   -6.2310  -10.3610   17.5270 O   0  0  0  0  0  0  0  0  0  0  0  0
   -5.7120   -9.8410   19.7840 C   0  0  0  0  0  0  0  0  0  0  0  0
   -4.8820   -9.2250   20.7290 C   0  0  0  0  0  0  0  0  0  0  0  0
   -1.9930   -8.4600   22.1250 C   0  0  0  0  0  0  0  0  0  0  0  0
   -1.3350   -7.8320   23.3230 C   0  0  0  0  0  0  0  0  0  0  0  0
   -2.0520   -7.6440   24.5100 C   0  0  0  0  0  0  0  0  0  0  0  0
   -1.4470   -7.0800   25.6380 C   0  0  0  0  0  0  0  0  0  0  0  0
   -0.1090   -6.6840   25.5820 C   0  0  0  0  0  0  0  0  0  0  0  0
    0.5280   -6.1110   26.6790 O   0  0  0  0  0  0  0  0  0  0  0  0
    0.6400   -6.8600   24.4020 C   0  0  0  0  0  0  0  0  0  0  0  0
    0.0100   -7.4290   23.2790 C   0  0  0  0  0  0  0  0  0  0  0  0
   -1.5670   -9.8990   21.8960 C   0  0  0  0  0  0  0  0  0  0  0  0
   -0.3930  -10.0290   20.9740 C   0  0  0  0  0  0  0  0  0  0  0  0
    5.0252   -3.9830   -5.6567 H   0  0  0  0  0  0  0  0  0  0  0  0
    4.5985   -2.6647   -6.7997 H   0  0  0  0  0  0  0  0  0  0  0  0
    6.2584   -3.3512   -6.7997 H   0  0  0  0  0  0  0  0  0  0  0  0
    5.6608   -2.4944   -4.1521 H   0  0  0  0  0  0  0  0  0  0  0  0
    6.8732   -1.8341   -5.3597 H   0  0  0  0  0  0  0  0  0  0  0  0
    4.9508   -0.8714   -6.3184 H   0  0  0  0  0  0  0  0  0  0  0  0
    3.6667   -1.9921   -5.0995 H   0  0  0  0  0  0  0  0  0  0  0  0
    3.4461   -1.8546   -3.2922 H   0  0  0  0  0  0  0  0  0  0  0  0
    3.1388    0.0027   -3.3645 H   0  0  0  0  0  0  0  0  0  0  0  0
    1.4223   -2.1068   -3.0997 H   0  0  0  0  0  0  0  0  0  0  0  0
    1.2450   -0.2418   -3.1701 H   0  0  0  0  0  0  0  0  0  0  0  0
    0.9380   -2.3320   -4.8397 H   0  0  0  0  0  0  0  0  0  0  0  0
   -0.8657   -1.4847   -3.7799 H   0  0  0  0  0  0  0  0  0  0  0  0
    1.0956   -2.0673   -6.6116 H   0  0  0  0  0  0  0  0  0  0  0  0
    0.9365   -0.2071   -6.4714 H   0  0  0  0  0  0  0  0  0  0  0  0
    2.8784   -0.0366   -6.7425 H   0  0  0  0  0  0  0  0  0  0  0  0
    3.0434   -1.9223   -6.6432 H   0  0  0  0  0  0  0  0  0  0  0  0
    5.8965    0.4898   -4.3769 H   0  0  0  0  0  0  0  0  0  0  0  0
    7.2590   -0.5120   -5.5672 H   0  0  0  0  0  0  0  0  0  0  0  0
    7.2527   -0.7332   -7.3575 H   0  0  0  0  0  0  0  0  0  0  0  0
    7.0548    1.1147   -7.6918 H   0  0  0  0  0  0  0  0  0  0  0  0
    9.2104   -0.5371   -7.8744 H   0  0  0  0  0  0  0  0  0  0  0  0
    8.8823    1.2851   -8.1837 H   0  0  0  0  0  0  0  0  0  0  0  0
    9.9788   -0.2394   -6.2603 H   0  0  0  0  0  0  0  0  0  0  0  0
   11.6877    0.9938   -5.9922 H   0  0  0  0  0  0  0  0  0  0  0  0
    9.9879    0.3812   -4.5585 H   0  0  0  0  0  0  0  0  0  0  0  0
    9.6207    2.1421   -5.0663 H   0  0  0  0  0  0  0  0  0  0  0  0
    7.7388    1.9028   -4.4748 H   0  0  0  0  0  0  0  0  0  0  0  0
    8.0779    0.0614   -4.1906 H   0  0  0  0  0  0  0  0  0  0  0  0
    5.3397    2.4248   -6.1655 H   0  0  0  0  0  0  0  0  0  0  0  0
    3.8364    1.5494   -5.5828 H   0  0  0  0  0  0  0  0  0  0  0  0
    4.8963    1.7414   -3.2584 H   0  0  0  0  0  0  0  0  0  0  0  0
    5.9264    3.0158   -3.9942 H   0  0  0  0  0  0  0  0  0  0  0  0
    4.1390    3.1945   -3.9942 H   0  0  0  0  0  0  0  0  0  0  0  0
   -4.6206   -6.0490   23.0667 H   0  0  0  0  0  0  0  0  0  0  0  0
   -4.9163   -5.0721   21.5886 H   0  0  0  0  0  0  0  0  0  0  0  0
   -5.2752   -6.8321   21.5886 H   0  0  0  0  0  0  0  0  0  0  0  0
   -3.0788   -5.8747   20.5144 H   0  0  0  0  0  0  0  0  0  0  0  0
   -2.5329   -5.9194   22.2616 H   0  0  0  0  0  0  0  0  0  0  0  0
   -3.6406   -8.0540   22.1561 H   0  0  0  0  0  0  0  0  0  0  0  0
   -4.3466   -7.6447   20.2338 H   0  0  0  0  0  0  0  0  0  0  0  0
   -3.3342   -7.4316   18.7228 H   0  0  0  0  0  0  0  0  0  0  0  0
   -2.4706   -9.0917   18.9442 H   0  0  0  0  0  0  0  0  0  0  0  0
   -4.5292   -8.3192   17.3395 H   0  0  0  0  0  0  0  0  0  0  0  0
   -3.5798   -9.9115   17.6367 H   0  0  0  0  0  0  0  0  0  0  0  0
   -5.9344   -8.8349   18.3768 H   0  0  0  0  0  0  0  0  0  0  0  0
   -6.9458  -10.8458   18.0110 H   0  0  0  0  0  0  0  0  0  0  0  0
   -6.7080   -9.3849   19.8836 H   0  0  0  0  0  0  0  0  0  0  0  0
   -5.6361  -10.9118   20.0239 H   0  0  0  0  0  0  0  0  0  0  0  0
   -4.5638  -10.0160   21.4241 H   0  0  0  0  0  0  0  0  0  0  0  0
   -5.5197   -8.4127   21.1079 H   0  0  0  0  0  0  0  0  0  0  0  0
   -1.1889   -8.0741   21.4811 H   0  0  0  0  0  0  0  0  0  0  0  0
   -1.6505   -6.8374   22.9749 H   0  0  0  0  0  0  0  0  0  0  0  0
   -2.9074   -6.9994   24.2593 H   0  0  0  0  0  0  0  0  0  0  0  0
   -2.2538   -8.6752   24.8353 H   0  0  0  0  0  0  0  0  0  0  0  0
   -2.0329   -6.1869   25.9009 H   0  0  0  0  0  0  0  0  0  0  0  0
   -1.4385   -7.9067   26.3636 H   0  0  0  0  0  0  0  0  0  0  0  0
   -0.4189   -5.6854   25.2403 H   0  0  0  0  0  0  0  0  0  0  0  0
    0.1321   -6.4671   27.5136 H   0  0  0  0  0  0  0  0  0  0  0  0
    1.0056   -5.8675   24.0997 H   0  0  0  0  0  0  0  0  0  0  0  0
    1.4065   -7.5982   24.6803 H   0  0  0  0  0  0  0  0  0  0  0  0
    0.5942   -8.3225   23.0138 H   0  0  0  0  0  0  0  0  0  0  0  0
   -0.0155   -6.5894   22.5688 H   0  0  0  0  0  0  0  0  0  0  0  0
   -1.2999  -10.3429   22.8664 H   0  0  0  0  0  0  0  0  0  0  0  0
   -2.4131  -10.4182   21.4221 H   0  0  0  0  0  0  0  0  0  0  0  0
    0.5285  -10.1310   21.5659 H   0  0  0  0  0  0  0  0  0  0  0  0
   -0.5217  -10.9184   20.3396 H   0  0  0  0  0  0  0  0  0  0  0  0
   -0.3240   -9.1330   20.3396 H   0  0  0  0  0  0  0  0  0  0  0  0
  1  2  1  0
  2  3  1  0
  3  4  1  0
  4  5  1  0
  5  6  1  0
  6  7  1  0
  7  8  1  0
  7  9  1  0
  4 10  1  0
  9 10  1  0
  3 11  1  0
 11 12  1  0
 12 13  1  0
 13 14  1  0
 14 15  1  0
 15 16  1  0
 15 17  1  0
 12 18  1  0
 17 18  1  0
 11 19  1  0
 19 20  1  0
 21 22  1  0
 22 23  1  0
 23 24  1  0
 24 25  1  0
 25 26  1  0
 26 27  1  0
 27 28  1  0
 27 29  1  0
 24 30  1  0
 29 30  1  0
 23 31  1  0
 31 32  1  0
 32 33  1  0
 33 34  1  0
 34 35  1  0
 35 36  1  0
 35 37  1  0
 32 38  1  0
 37 38  1  0
 31 39  1  0
 39 40  1  0
  1 41  1  0
  1 42  1  0
  1 43  1  0
  2 44  1  0
  2 45  1  0
  3 46  1  0
  4 47  1  0
  5 48  1  0
  5 49  1  0
  6 50  1  0
  6 51  1  0
  7 52  1  0
  8 53  1  0
  9 54  1  0
  9 55  1  0
 10 56  1  0
 10 57  1  0
 11 58  1  0
 12 59  1  0
 13 60  1  0
 13 61  1  0
 14 62  1  0
 14 63  1  0
 15 64  1  0
 16 65  1  0
 17 66  1  0
 17 67  1  0
 18 68  1  0
 18 69  1  0
 19 70  1  0
 19 71  1  0
 20 72  1  0
 20 73  1  0
 20 74  1  0
 21 75  1  0
 21 76  1  0
 21 77  1  0
 22 78  1  0
 22 79  1  0
 23 80  1  0
 24 81  1  0
 25 82  1  0
 25 83  1  0
 26 84  1  0
 26 85  1  0
 27 86  1  0
 28 87  1  0
 29 88  1  0
 29 89  1  0
 30 90  1  0
 30 91  1  0
 31 92  1  0
 32 93  1  0
 33 94  1  0
 33 95  1  0
 34 96  1  0
 34 97  1  0
 35 98  1  0
 36 99  1  0
 37100  1  0
 37101  1  0
 38102  1  0
 38103  1  0
 39104  1  0
 39105  1  0
 40106  1  0
 40107  1  0
 40108  1  0
M  END
>  <PDBID>  (1) 
3ERD

>  <PDB ID>  (1) 
3ERD

>  <Generic Name>  (1) 
Diethylstilbestrol

>  <Brand Name>  (1) 
Honvol Ampoules 250mg#Honvol Tablets 100mg#Stilbestrol 0.5mg Tablet#Stilbestrol 1.0mg Tablet#Stilbestrol Tab 1mg#Stilbestrol Tablets 0.1 mg#Stilbestrol Tablets 0.5 mg#Stilbestrol Tablets 1.0 mg#Stilboestrol Tab 0.1mg#Stilboestrol Tab 0.5mg#Distilbene#Stilbestrol#Stilbetin

>  <DrugBank ID>  (1) 
DB00255

>  <ATC Codes>  (1) 
L02AA01#G03CC05#L02AA04#G03CB02

>  <Ligand ID>  (1) 
DES

>  <Target Name>  (1) 
Estrogen receptor

>  <UniProt ID>  (1) 
P03372

>  <PDB ID.1>  (1) 
3ERD

>  <Seq. Identity>  (1) 
93%

$$$$
