PDB_DB01336_99
     RDKit          3D

 96102  0  0  0  0  0  0  0  0999 V2000
  -40.8810  -42.0540   10.6160 N   0  0  0  0  0  0  0  0  0  0  0  0
  -41.8120  -42.7730   11.5420 C   0  0  0  0  0  0  0  0  0  0  0  0
  -42.7080  -41.9590   12.4740 C   0  0  0  0  0  0  0  0  0  0  0  0
  -42.5350  -40.4610   12.3100 C   0  0  0  0  0  0  0  0  0  0  0  0
  -41.8790  -39.8850   11.2100 C   0  0  0  0  0  0  0  0  0  0  0  0
  -41.3280  -40.7310   10.1000 C   0  0  2  0  0  0  0  0  0  0  0  0
  -43.0580  -39.6880   13.3410 C   0  0  0  0  0  0  0  0  0  0  0  0
  -42.9660  -38.3010   13.2920 C   0  0  0  0  0  0  0  0  0  0  0  0
  -42.3370  -37.7220   12.2000 C   0  0  0  0  0  0  0  0  0  0  0  0
  -41.7810  -38.4720   11.1610 C   0  0  0  0  0  0  0  0  0  0  0  0
  -42.2650  -36.3710   12.2500 O   0  0  0  0  0  0  0  0  0  0  0  0
  -41.7140  -35.5590   11.2930 C   0  0  0  0  0  0  0  0  0  0  0  0
  -40.5070  -35.0620   11.6550 C   0  0  0  0  0  0  0  0  0  0  0  0
  -39.7910  -34.2070   10.8170 C   0  0  0  0  0  0  0  0  0  0  0  0
  -40.3520  -33.8990    9.5970 C   0  0  0  0  0  0  0  0  0  0  0  0
  -41.6130  -34.4170    9.2160 C   0  0  0  0  0  0  0  0  0  0  0  0
  -42.3140  -35.2690   10.0640 C   0  0  0  0  0  0  0  0  0  0  0  0
  -42.1820  -34.0530    7.8850 C   0  0  0  0  0  0  0  0  0  0  0  0
  -43.5710  -33.4100    7.8070 C   0  0  1  0  0  0  0  0  0  0  0  0
  -43.4600  -31.9280    7.7110 N   0  0  0  0  0  0  0  0  0  0  0  0
  -42.8460  -31.5000    6.4290 C   0  0  0  0  0  0  0  0  0  0  0  0
  -43.6770  -31.8800    5.1900 C   0  0  0  0  0  0  0  0  0  0  0  0
  -44.2720  -33.2830    5.3670 C   0  0  0  0  0  0  0  0  0  0  0  0
  -44.2470  -33.9810    6.6000 C   0  0  0  0  0  0  0  0  0  0  0  0
  -44.9250  -33.8530    4.2810 C   0  0  0  0  0  0  0  0  0  0  0  0
  -45.5100  -35.1230    4.3500 C   0  0  0  0  0  0  0  0  0  0  0  0
  -45.4710  -35.8120    5.5410 C   0  0  0  0  0  0  0  0  0  0  0  0
  -44.8690  -35.2450    6.6650 C   0  0  0  0  0  0  0  0  0  0  0  0
  -44.8600  -35.9770    7.8460 O   0  0  0  0  0  0  0  0  0  0  0  0
  -44.2580  -37.1740    8.0680 C   0  0  0  0  0  0  0  0  0  0  0  0
  -44.8090  -38.0270    9.0350 C   0  0  0  0  0  0  0  0  0  0  0  0
  -44.1930  -39.2580    9.3090 C   0  0  0  0  0  0  0  0  0  0  0  0
  -43.0470  -39.6290    8.6280 C   0  0  0  0  0  0  0  0  0  0  0  0
  -42.4850  -38.7550    7.6690 C   0  0  0  0  0  0  0  0  0  0  0  0
  -43.1000  -37.5360    7.3580 C   0  0  0  0  0  0  0  0  0  0  0  0
  -42.3480  -40.9400    8.9210 C   0  0  0  0  0  0  0  0  0  0  0  0
  -43.4820  -37.4870   14.3220 O   0  0  0  0  0  0  0  0  0  0  0  0
  -44.2100  -38.0840   15.4320 C   0  0  0  0  0  0  0  0  0  0  0  0
  -40.1240  -35.4480   12.9070 O   0  0  0  0  0  0  0  0  0  0  0  0
  -46.1520  -35.7330    3.2710 O   0  0  0  0  0  0  0  0  0  0  0  0
  -46.2720  -35.1290    1.9580 C   0  0  0  0  0  0  0  0  0  0  0  0
  -46.0700  -37.0650    5.5520 O   0  0  0  0  0  0  0  0  0  0  0  0
  -39.6540  -41.9490   11.3950 C   0  0  0  0  0  0  0  0  0  0  0  0
  -44.8160  -31.3710    7.9740 C   0  0  0  0  0  0  0  0  0  0  0  0
  -42.6630  -31.3840    8.8180 C   0  0  0  0  0  0  0  0  0  0  0  0
  -47.1410  -37.4590    6.3990 C   0  0  0  0  0  0  0  0  0  0  0  0
  -40.5860  -42.9370    9.4520 C   0  0  0  0  0  0  0  0  0  0  0  0
  -38.7960  -35.2080   13.3560 C   0  0  0  0  0  0  0  0  0  0  0  0
  -42.4740  -43.3906   10.9173 H   0  0  0  0  0  0  0  0  0  0  0  0
  -41.1390  -43.3096   12.2269 H   0  0  0  0  0  0  0  0  0  0  0  0
  -43.7567  -42.2152   12.2629 H   0  0  0  0  0  0  0  0  0  0  0  0
  -42.4213  -42.2105   13.5058 H   0  0  0  0  0  0  0  0  0  0  0  0
  -40.4667  -40.1799    9.6945 H   0  0  0  0  0  0  0  0  0  0  0  0
  -43.5460  -40.1751   14.1981 H   0  0  0  0  0  0  0  0  0  0  0  0
  -41.2761  -37.9747   10.3197 H   0  0  0  0  0  0  0  0  0  0  0  0
  -38.8167  -33.7949   11.1185 H   0  0  0  0  0  0  0  0  0  0  0  0
  -39.8094  -33.2376    8.9055 H   0  0  0  0  0  0  0  0  0  0  0  0
  -43.2894  -35.6923    9.7820 H   0  0  0  0  0  0  0  0  0  0  0  0
  -41.4773  -33.3494    7.4176 H   0  0  0  0  0  0  0  0  0  0  0  0
  -42.3198  -35.0251    7.3890 H   0  0  0  0  0  0  0  0  0  0  0  0
  -44.1560  -33.6245    8.7135 H   0  0  0  0  0  0  0  0  0  0  0  0
  -42.7294  -30.4064    6.4474 H   0  0  0  0  0  0  0  0  0  0  0  0
  -41.8818  -32.0224    6.3431 H   0  0  0  0  0  0  0  0  0  0  0  0
  -44.4919  -31.1524    5.0608 H   0  0  0  0  0  0  0  0  0  0  0  0
  -43.0264  -31.8731    4.3030 H   0  0  0  0  0  0  0  0  0  0  0  0
  -44.9841  -33.2892    3.3383 H   0  0  0  0  0  0  0  0  0  0  0  0
  -45.7201  -37.7326    9.5765 H   0  0  0  0  0  0  0  0  0  0  0  0
  -44.6223  -39.9296   10.0671 H   0  0  0  0  0  0  0  0  0  0  0  0
  -41.5514  -39.0367    7.1600 H   0  0  0  0  0  0  0  0  0  0  0  0
  -42.6876  -36.8787    6.5783 H   0  0  0  0  0  0  0  0  0  0  0  0
  -41.8088  -41.2778    8.0237 H   0  0  0  0  0  0  0  0  0  0  0  0
  -43.0913  -41.6991    9.2060 H   0  0  0  0  0  0  0  0  0  0  0  0
  -43.7818  -37.7329   16.3825 H   0  0  0  0  0  0  0  0  0  0  0  0
  -45.2687  -37.7907   15.3762 H   0  0  0  0  0  0  0  0  0  0  0  0
  -44.1297  -39.1796   15.3762 H   0  0  0  0  0  0  0  0  0  0  0  0
  -46.4853  -34.0553    2.0664 H   0  0  0  0  0  0  0  0  0  0  0  0
  -45.3299  -35.2617    1.4058 H   0  0  0  0  0  0  0  0  0  0  0  0
  -47.0918  -35.6118    1.4058 H   0  0  0  0  0  0  0  0  0  0  0  0
  -39.8977  -41.9699   12.4675 H   0  0  0  0  0  0  0  0  0  0  0  0
  -38.9925  -42.7938   11.1528 H   0  0  0  0  0  0  0  0  0  0  0  0
  -39.1456  -41.0041   11.1528 H   0  0  0  0  0  0  0  0  0  0  0  0
  -44.9804  -31.3035    9.0595 H   0  0  0  0  0  0  0  0  0  0  0  0
  -44.8933  -30.3683    7.5284 H   0  0  0  0  0  0  0  0  0  0  0  0
  -45.5758  -32.0299    7.5284 H   0  0  0  0  0  0  0  0  0  0  0  0
  -43.1097  -31.6889    9.7759 H   0  0  0  0  0  0  0  0  0  0  0  0
  -41.6348  -31.7696    8.7537 H   0  0  0  0  0  0  0  0  0  0  0  0
  -42.6475  -30.2860    8.7537 H   0  0  0  0  0  0  0  0  0  0  0  0
  -46.8372  -37.3472    7.4503 H   0  0  0  0  0  0  0  0  0  0  0  0
  -48.0175  -36.8244    6.2011 H   0  0  0  0  0  0  0  0  0  0  0  0
  -47.3973  -38.5103    6.2011 H   0  0  0  0  0  0  0  0  0  0  0  0
  -40.2568  -43.9224    9.8134 H   0  0  0  0  0  0  0  0  0  0  0  0
  -41.4936  -43.0547    8.8418 H   0  0  0  0  0  0  0  0  0  0  0  0
  -39.7899  -42.4855    8.8418 H   0  0  0  0  0  0  0  0  0  0  0  0
  -38.7758  -35.2044   14.4558 H   0  0  0  0  0  0  0  0  0  0  0  0
  -38.1328  -36.0008   12.9797 H   0  0  0  0  0  0  0  0  0  0  0  0
  -38.4523  -34.2332   12.9797 H   0  0  0  0  0  0  0  0  0  0  0  0
  1  2  1  0
  2  3  1  0
  3  4  1  0
  4  5  2  0
  1  6  1  0
  5  6  1  0
  4  7  1  0
  7  8  2  0
  8  9  1  0
  5 10  1  0
  9 10  2  0
  9 11  1  0
 11 12  1  0
 12 13  2  0
 13 14  1  0
 14 15  2  0
 15 16  1  0
 12 17  1  0
 16 17  2  0
 16 18  1  0
 18 19  1  0
 19 20  1  0
 20 21  1  0
 21 22  1  0
 22 23  1  0
 19 24  1  0
 23 24  2  0
 23 25  1  0
 25 26  2  0
 26 27  1  0
 24 28  1  0
 27 28  2  0
 28 29  1  0
 29 30  1  0
 30 31  2  0
 31 32  1  0
 32 33  2  0
 33 34  1  0
 30 35  1  0
 34 35  2  0
  6 36  1  0
 33 36  1  0
  8 37  1  0
 37 38  1  0
 13 39  1  0
 26 40  1  0
 40 41  1  0
 27 42  1  0
  1 43  1  0
 20 44  1  0
 20 45  1  0
 42 46  1  0
  1 47  1  0
 39 48  1  0
  2 49  1  0
  2 50  1  0
  3 51  1  0
  3 52  1  0
  6 53  1  6
  7 54  1  0
 10 55  1  0
 14 56  1  0
 15 57  1  0
 17 58  1  0
 18 59  1  0
 18 60  1  0
 19 61  1  1
 21 62  1  0
 21 63  1  0
 22 64  1  0
 22 65  1  0
 25 66  1  0
 31 67  1  0
 32 68  1  0
 34 69  1  0
 35 70  1  0
 36 71  1  0
 36 72  1  0
 38 73  1  0
 38 74  1  0
 38 75  1  0
 41 76  1  0
 41 77  1  0
 41 78  1  0
 43 79  1  0
 43 80  1  0
 43 81  1  0
 44 82  1  0
 44 83  1  0
 44 84  1  0
 45 85  1  0
 45 86  1  0
 45 87  1  0
 46 88  1  0
 46 89  1  0
 46 90  1  0
 47 91  1  0
 47 92  1  0
 47 93  1  0
 48 94  1  0
 48 95  1  0
 48 96  1  0
M  CHG  2   1   1  20   1
M  END
$$$$
