PDB_DB00551_99
     RDKit          3D

 10  9  0  0  0  0  0  0  0  0999 V2000
   70.7460  108.0780   71.6150 C   0  0  0  0  0  0  0  0  0  0  0  0
   69.3800  107.4350   71.5780 C   0  0  0  0  0  0  0  0  0  0  0  0
   68.6350  107.6130   70.6140 O   0  0  0  0  0  0  0  0  0  0  0  0
   69.0620  106.6910   72.6110 N   0  0  0  0  0  0  0  0  0  0  0  0
   67.8240  106.1210   72.8270 O   0  0  0  0  0  0  0  0  0  0  0  0
   71.0547  108.2233   72.6608 H   0  0  0  0  0  0  0  0  0  0  0  0
   71.4717  107.4269   71.1056 H   0  0  0  0  0  0  0  0  0  0  0  0
   70.7066  109.0521   71.1056 H   0  0  0  0  0  0  0  0  0  0  0  0
   69.7934  106.5190   73.3155 H   0  0  0  0  0  0  0  0  0  0  0  0
   67.6607  106.0458   73.8005 H   0  0  0  0  0  0  0  0  0  0  0  0
  1  2  1  0
  2  3  2  0
  2  4  1  0
  5  4  1  0
  1  6  1  0
  1  7  1  0
  1  8  1  0
  4  9  1  0
  5 10  1  0
M  END
>  <PDBID>  (1) 
1FWE

>  <PDB ID>  (1) 
1FWE

>  <Generic Name>  (1) 
Acetohydroxamic Acid

>  <Brand Name>  (1) 
Lithostat

>  <DrugBank ID>  (1) 
DB00551

>  <ATC Codes>  (1) 
G04BX03

>  <Ligand ID>  (1) 
HAE

>  <Target Name>  (1) 
Urease subunit alpha

>  <UniProt ID>  (1) 
P18314

>  <PDB ID.1>  (1) 
1FWE

>  <Seq. Identity>  (1) 
95%

$$$$
