PDB_DB00452_97
     RDKit          3D

 88 91  0  0  0  0  0  0  0  0999 V2000
   43.9030  120.8910  -97.4620 C   0  0  2  0  0  0  0  0  0  0  0  0
   44.4540  120.9530  -96.1210 O   0  0  0  0  0  0  0  0  0  0  0  0
   43.1930  119.5140  -97.7040 C   0  0  2  0  0  0  0  0  0  0  0  0
   42.1780  119.2590  -96.6350 N   0  0  0  0  0  0  0  0  0  0  0  0
   44.2710  118.3530  -97.7660 C   0  0  1  0  0  0  0  0  0  0  0  0
   43.6340  117.0690  -98.0020 O   0  0  0  0  0  0  0  0  0  0  0  0
   45.2900  118.6470  -98.9200 C   0  0  2  0  0  0  0  0  0  0  0  0
   46.2460  117.5920  -99.0080 O   0  0  0  0  0  0  0  0  0  0  0  0
   45.9990  120.0300  -98.6640 C   0  0  2  0  0  0  0  0  0  0  0  0
   44.9380  121.0780  -98.5520 O   0  0  0  0  0  0  0  0  0  0  0  0
   46.9970  120.3630  -99.8160 C   0  0  0  0  0  0  0  0  0  0  0  0
   45.8310  123.9430  -93.2460 C   0  0  1  0  0  0  0  0  0  0  0  0
   46.4170  125.1910  -92.6980 N   0  0  0  0  0  0  0  0  0  0  0  0
   44.5200  124.2040  -94.0750 C   0  0  1  0  0  0  0  0  0  0  0  0
   43.9420  122.8910  -94.6500 C   0  0  1  0  0  0  0  0  0  0  0  0
   42.7390  123.1960  -95.4040 O   0  0  0  0  0  0  0  0  0  0  0  0
   44.9820  122.2200  -95.5870 C   0  0  1  0  0  0  0  0  0  0  0  0
   46.3060  121.9570  -94.7920 C   0  0  1  0  0  0  0  0  0  0  0  0
   47.3280  121.3520  -95.6670 N   0  0  0  0  0  0  0  0  0  0  0  0
   46.8910  123.2830  -94.1940 C   0  0  0  0  0  0  0  0  0  0  0  0
   41.4910  122.6120  -94.9610 C   0  0  1  0  0  0  0  0  0  0  0  0
   40.4050  123.6500  -94.7650 C   0  0  1  0  0  0  0  0  0  0  0  0
   39.1090  122.9520  -95.3490 C   0  0  1  0  0  0  0  0  0  0  0  0
   39.6020  121.8110  -96.2280 C   0  0  2  0  0  0  0  0  0  0  0  0
   41.0380  121.6680  -95.9500 O   0  0  0  0  0  0  0  0  0  0  0  0
   39.4040  122.0520  -97.7130 C   0  0  0  0  0  0  0  0  0  0  0  0
   34.9600  120.7110  -93.3060 C   0  0  1  0  0  0  0  0  0  0  0  0
   35.7440  121.7870  -92.4640 C   0  0  1  0  0  0  0  0  0  0  0  0
   36.0170  123.0570  -93.2980 C   0  0  2  0  0  0  0  0  0  0  0  0
   36.8260  122.7020  -94.5690 C   0  0  1  0  0  0  0  0  0  0  0  0
   38.1870  122.3880  -94.3350 O   0  0  0  0  0  0  0  0  0  0  0  0
   35.7380  120.3120  -94.5960 C   0  0  1  0  0  0  0  0  0  0  0  0
   36.0970  121.5790  -95.3210 O   0  0  0  0  0  0  0  0  0  0  0  0
   37.0150  119.4330  -94.2760 C   0  0  0  0  0  0  0  0  0  0  0  0
   47.6660  121.6510  -99.5900 N   0  0  0  0  0  0  0  0  0  0  0  0
   40.3630  124.0860  -93.3990 O   0  0  0  0  0  0  0  0  0  0  0  0
   35.0050  122.1260  -91.3280 O   0  0  0  0  0  0  0  0  0  0  0  0
   34.6450  119.4940  -92.5840 O   0  0  0  0  0  0  0  0  0  0  0  0
   39.0580  120.7960  -98.2690 O   0  0  0  0  0  0  0  0  0  0  0  0
   43.5230  124.7760  -93.2430 O   0  0  0  0  0  0  0  0  0  0  0  0
   37.7470  119.0560  -95.5290 N   0  0  0  0  0  0  0  0  0  0  0  0
   36.7280  124.1230  -92.4970 N   0  0  0  0  0  0  0  0  0  0  0  0
   43.1882  121.7250  -97.5208 H   0  0  0  0  0  0  0  0  0  0  0  0
   42.6650  119.5425  -98.6686 H   0  0  0  0  0  0  0  0  0  0  0  0
   42.6181  119.3696  -95.7103 H   0  0  0  0  0  0  0  0  0  0  0  0
   41.4036  119.9316  -96.7293 H   0  0  0  0  0  0  0  0  0  0  0  0
   44.7968  118.3127  -96.8007 H   0  0  0  0  0  0  0  0  0  0  0  0
   43.4219  116.6415  -97.1346 H   0  0  0  0  0  0  0  0  0  0  0  0
   44.7520  118.7032  -99.8778 H   0  0  0  0  0  0  0  0  0  0  0  0
   46.5058  117.3053  -98.0968 H   0  0  0  0  0  0  0  0  0  0  0  0
   46.5845  119.9893  -97.7337 H   0  0  0  0  0  0  0  0  0  0  0  0
   47.7571  119.5698  -99.8715 H   0  0  0  0  0  0  0  0  0  0  0  0
   46.4307  120.4275 -100.7568 H   0  0  0  0  0  0  0  0  0  0  0  0
   45.5671  123.2921  -92.3994 H   0  0  0  0  0  0  0  0  0  0  0  0
   46.4002  125.1551  -91.6688 H   0  0  0  0  0  0  0  0  0  0  0  0
   47.3901  125.2847  -93.0224 H   0  0  0  0  0  0  0  0  0  0  0  0
   44.7897  124.8832  -94.8972 H   0  0  0  0  0  0  0  0  0  0  0  0
   43.7054  122.2022  -93.8256 H   0  0  0  0  0  0  0  0  0  0  0  0
   45.1890  122.8929  -96.4322 H   0  0  0  0  0  0  0  0  0  0  0  0
   46.0542  121.2687  -93.9717 H   0  0  0  0  0  0  0  0  0  0  0  0
   48.0615  120.9178  -95.0888 H   0  0  0  0  0  0  0  0  0  0  0  0
   46.8896  120.6342  -96.2616 H   0  0  0  0  0  0  0  0  0  0  0  0
   47.8029  123.0560  -93.6222 H   0  0  0  0  0  0  0  0  0  0  0  0
   47.1334  123.9776  -95.0118 H   0  0  0  0  0  0  0  0  0  0  0  0
   41.6807  122.1261  -93.9926 H   0  0  0  0  0  0  0  0  0  0  0  0
   40.5568  124.6036  -95.2918 H   0  0  0  0  0  0  0  0  0  0  0  0
   38.5287  123.7211  -95.8797 H   0  0  0  0  0  0  0  0  0  0  0  0
   39.0199  120.9080  -95.9919 H   0  0  0  0  0  0  0  0  0  0  0  0
   38.5951  122.7790  -97.8778 H   0  0  0  0  0  0  0  0  0  0  0  0
   40.3115  122.4631  -98.1793 H   0  0  0  0  0  0  0  0  0  0  0  0
   34.0129  121.2121  -93.5548 H   0  0  0  0  0  0  0  0  0  0  0  0
   36.7098  121.3525  -92.1667 H   0  0  0  0  0  0  0  0  0  0  0  0
   35.0422  123.4709  -93.5956 H   0  0  0  0  0  0  0  0  0  0  0  0
   36.8715  123.6082  -95.1909 H   0  0  0  0  0  0  0  0  0  0  0  0
   35.1024  119.6795  -95.2332 H   0  0  0  0  0  0  0  0  0  0  0  0
   37.6910  120.0073  -93.6255 H   0  0  0  0  0  0  0  0  0  0  0  0
   36.6842  118.5102  -93.7771 H   0  0  0  0  0  0  0  0  0  0  0  0
   47.7535  121.8195  -98.5776 H   0  0  0  0  0  0  0  0  0  0  0  0
   48.6031  121.6307 -100.0169 H   0  0  0  0  0  0  0  0  0  0  0  0
   40.4386  123.3016  -92.7998 H   0  0  0  0  0  0  0  0  0  0  0  0
   35.5203  121.8896  -90.5164 H   0  0  0  0  0  0  0  0  0  0  0  0
   34.6898  119.6670  -91.6103 H   0  0  0  0  0  0  0  0  0  0  0  0
   38.8801  120.1502  -97.5401 H   0  0  0  0  0  0  0  0  0  0  0  0
   43.7658  124.6367  -92.2934 H   0  0  0  0  0  0  0  0  0  0  0  0
   38.6361  118.5981  -95.2826 H   0  0  0  0  0  0  0  0  0  0  0  0
   37.1688  118.4078  -96.0826 H   0  0  0  0  0  0  0  0  0  0  0  0
   36.6039  123.9370  -91.4916 H   0  0  0  0  0  0  0  0  0  0  0  0
   37.7320  124.1127  -92.7267 H   0  0  0  0  0  0  0  0  0  0  0  0
  2  1  1  0
  3  1  1  0
  4  3  1  0
  5  3  1  0
  6  5  1  0
  7  5  1  0
  8  7  1  0
  9  7  1  0
 10  9  1  0
 10  1  1  0
 11  9  1  0
 13 12  1  0
 14 12  1  0
 15 14  1  0
 16 15  1  0
 17 15  1  0
 17  2  1  0
 18 17  1  0
 19 18  1  0
 20 18  1  0
 20 12  1  0
 21 16  1  0
 22 21  1  0
 23 22  1  0
 24 23  1  0
 25 24  1  0
 25 21  1  0
 26 24  1  0
 28 27  1  0
 29 28  1  0
 30 29  1  0
 31 30  1  0
 31 23  1  0
 32 27  1  0
 33 32  1  0
 33 30  1  0
 34 32  1  0
 35 11  1  0
 36 22  1  0
 37 28  1  0
 38 27  1  0
 39 26  1  0
 40 14  1  0
 41 34  1  0
 42 29  1  0
  1 43  1  1
  3 44  1  6
  4 45  1  0
  4 46  1  0
  5 47  1  1
  6 48  1  0
  7 49  1  6
  8 50  1  0
  9 51  1  1
 11 52  1  0
 11 53  1  0
 12 54  1  1
 13 55  1  0
 13 56  1  0
 14 57  1  6
 15 58  1  1
 17 59  1  6
 18 60  1  1
 19 61  1  0
 19 62  1  0
 20 63  1  0
 20 64  1  0
 21 65  1  1
 22 66  1  6
 23 67  1  6
 24 68  1  1
 26 69  1  0
 26 70  1  0
 27 71  1  6
 28 72  1  1
 29 73  1  6
 30 74  1  6
 32 75  1  6
 34 76  1  0
 34 77  1  0
 35 78  1  0
 35 79  1  0
 36 80  1  0
 37 81  1  0
 38 82  1  0
 39 83  1  0
 40 84  1  0
 41 85  1  0
 41 86  1  0
 42 87  1  0
 42 88  1  0
M  END
$$$$
