PDB_DB00558_91
     RDKit          3D

 43 43  0  0  0  0  0  0  0  0999 V2000
   -9.7220    9.8610   90.5390 C   0  0  0  0  0  0  0  0  0  0  0  0
  -10.2700    9.7540   89.4150 O   0  0  0  0  0  0  0  0  0  0  0  0
  -10.3900    9.9980   91.5880 O   0  0  0  0  0  0  0  0  0  0  0  0
   -8.2560    9.8430   90.6180 C   0  0  0  0  0  0  0  0  0  0  0  0
   -7.6280   10.1880   91.7540 C   0  0  0  0  0  0  0  0  0  0  0  0
   -6.1310    9.9870   91.7700 C   0  0  1  0  0  0  0  0  0  0  0  0
   -5.5470   10.7140   90.5480 C   0  0  1  0  0  0  0  0  0  0  0  0
   -4.1830   10.2090   90.3680 N   0  0  0  0  0  0  0  0  0  0  0  0
   -3.0340   10.5650   90.9580 C   0  0  0  0  0  0  0  0  0  0  0  0
   -2.9060   11.4120   91.8140 O   0  0  0  0  0  0  0  0  0  0  0  0
   -1.8360    9.8140   90.4810 C   0  0  0  0  0  0  0  0  0  0  0  0
   -6.2410   10.2200   89.2510 C   0  0  1  0  0  0  0  0  0  0  0  0
   -7.4460    9.4590   89.4570 O   0  0  0  0  0  0  0  0  0  0  0  0
   -6.5000   11.2590   88.1680 C   0  0  0  0  0  0  0  0  0  0  0  0
   -6.0660   11.0090   87.0560 O   0  0  0  0  0  0  0  0  0  0  0  0
   -7.1850   12.4100   88.3100 C   0  0  0  0  0  0  0  0  0  0  0  0
   -7.7260   12.7910   89.4680 O   0  0  0  0  0  0  0  0  0  0  0  0
   -7.3640   13.3280   87.1150 C   0  0  0  0  0  0  0  0  0  0  0  0
   -6.2890   13.1840   86.1730 O   0  0  0  0  0  0  0  0  0  0  0  0
   -5.4520   10.4650   92.9780 N   0  0  0  0  0  0  0  0  0  0  0  0
   -5.8910   10.4100   94.2440 C   0  0  0  0  0  0  0  0  0  0  0  0
   -5.1150   10.8920   95.2180 N   0  0  0  0  0  0  0  0  0  0  0  0
   -7.0800    9.9080   94.5650 N   0  0  0  0  0  0  0  0  0  0  0  0
   -9.7153    9.6467   88.6021 H   0  0  0  0  0  0  0  0  0  0  0  0
   -8.1712   10.5926   92.6207 H   0  0  0  0  0  0  0  0  0  0  0  0
   -5.9586    8.9008   91.7484 H   0  0  0  0  0  0  0  0  0  0  0  0
   -5.6458   11.7983   90.7043 H   0  0  0  0  0  0  0  0  0  0  0  0
   -4.0927    9.4550   89.6722 H   0  0  0  0  0  0  0  0  0  0  0  0
   -1.2607    9.4534   91.3465 H   0  0  0  0  0  0  0  0  0  0  0  0
   -2.1591    8.9565   89.8725 H   0  0  0  0  0  0  0  0  0  0  0  0
   -1.2050   10.4785   89.8725 H   0  0  0  0  0  0  0  0  0  0  0  0
   -5.4514    9.5539   88.8731 H   0  0  0  0  0  0  0  0  0  0  0  0
   -5.5553   11.7611   88.4238 H   0  0  0  0  0  0  0  0  0  0  0  0
   -5.2111   10.5166   87.1384 H   0  0  0  0  0  0  0  0  0  0  0  0
   -8.1167   11.8880   88.0465 H   0  0  0  0  0  0  0  0  0  0  0  0
   -7.1973   12.4186   90.2176 H   0  0  0  0  0  0  0  0  0  0  0  0
   -8.3124   13.0824   86.6149 H   0  0  0  0  0  0  0  0  0  0  0  0
   -7.3685   14.3669   87.4764 H   0  0  0  0  0  0  0  0  0  0  0  0
   -5.4354   13.0697   86.6613 H   0  0  0  0  0  0  0  0  0  0  0  0
   -5.4356   10.8582   96.1962 H   0  0  0  0  0  0  0  0  0  0  0  0
   -4.1958   11.2975   94.9910 H   0  0  0  0  0  0  0  0  0  0  0  0
   -7.3800    9.8840   95.5501 H   0  0  0  0  0  0  0  0  0  0  0  0
   -7.7008    9.5432   93.8286 H   0  0  0  0  0  0  0  0  0  0  0  0
  1  2  1  0
  1  3  2  0
  1  4  1  0
  4  5  2  0
  5  6  1  0
  6  7  1  0
  7  8  1  0
  8  9  1  0
  9 10  2  0
  9 11  1  0
  7 12  1  0
  4 13  1  0
 12 13  1  0
 12 14  1  0
 14 15  1  0
 14 16  1  0
 16 17  1  0
 16 18  1  0
 18 19  1  0
  6 20  1  0
 20 21  2  3
 21 22  1  0
 21 23  1  0
  2 24  1  0
  5 25  1  0
  6 26  1  6
  7 27  1  1
  8 28  1  0
 11 29  1  0
 11 30  1  0
 11 31  1  0
 12 32  1  6
 14 33  1  0
 15 34  1  0
 16 35  1  0
 17 36  1  0
 18 37  1  0
 18 38  1  0
 19 39  1  0
 22 40  1  0
 22 41  1  0
 23 42  1  0
 23 43  1  0
M  END
$$$$
