PDB_DB05239_99
     RDKit          3D

 51 54  0  0  0  0  0  0  0  0999 V2000
   31.0770   29.6450  -15.3670 O   0  0  0  0  0  0  0  0  0  0  0  0
   31.5660   30.1470  -14.3750 C   0  0  0  0  0  0  0  0  0  0  0  0
   33.0200   30.5610  -14.3070 C   0  0  0  0  0  0  0  0  0  0  0  0
   33.3750   31.5310  -13.3630 C   0  0  0  0  0  0  0  0  0  0  0  0
   34.6890   31.9550  -13.1910 C   0  0  0  0  0  0  0  0  0  0  0  0
   35.6640   31.4300  -14.0080 C   0  0  0  0  0  0  0  0  0  0  0  0
   36.9300   31.8790  -13.9030 F   0  0  0  0  0  0  0  0  0  0  0  0
   35.3220   30.5050  -14.9930 C   0  0  0  0  0  0  0  0  0  0  0  0
   36.3240   30.0440  -15.7480 F   0  0  0  0  0  0  0  0  0  0  0  0
   34.0150   30.0080  -15.1240 C   0  0  0  0  0  0  0  0  0  0  0  0
   33.6740   29.0820  -16.0710 N   0  0  0  0  0  0  0  0  0  0  0  0
   34.3230   27.9110  -16.4230 C   0  0  0  0  0  0  0  0  0  0  0  0
   35.4650   27.4330  -15.7580 C   0  0  0  0  0  0  0  0  0  0  0  0
   36.1250   26.3000  -16.1910 C   0  0  0  0  0  0  0  0  0  0  0  0
   35.6280   25.5730  -17.2810 C   0  0  0  0  0  0  0  0  0  0  0  0
   36.5990   23.7960  -17.8720 I   0  0  0  0  0  0  0  0  0  0  0  0
   33.8340   27.1870  -17.5190 C   0  0  0  0  0  0  0  0  0  0  0  0
   32.7190   27.5980  -18.1550 F   0  0  0  0  0  0  0  0  0  0  0  0
   34.4720   26.0160  -17.9340 C   0  0  0  0  0  0  0  0  0  0  0  0
   30.7180   30.3710  -13.2740 N   0  0  0  0  0  0  0  0  0  0  0  0
   30.9470   29.9010  -11.8810 C   0  0  0  0  0  0  0  0  0  0  0  0
   29.4700   29.6760  -11.6830 C   0  0  0  0  0  0  0  0  0  0  0  0
   29.3090   29.9030  -13.1670 C   0  0  0  0  0  0  0  0  0  0  0  0
   29.2240   28.3190  -11.3270 O   0  0  0  0  0  0  0  0  0  0  0  0
   28.7380   30.7080  -10.7950 C   0  0  2  0  0  0  0  0  0  0  0  0
   29.0730   32.2030  -11.0660 C   0  0  0  0  0  0  0  0  0  0  0  0
   28.2980   33.1320  -10.1330 C   0  0  0  0  0  0  0  0  0  0  0  0
   28.3950   32.7340   -8.6500 C   0  0  0  0  0  0  0  0  0  0  0  0
   28.1470   31.2380   -8.4060 C   0  0  0  0  0  0  0  0  0  0  0  0
   28.9000   30.4270   -9.3550 N   0  0  0  0  0  0  0  0  0  0  0  0
   32.5878   31.9737  -12.7350 H   0  0  0  0  0  0  0  0  0  0  0  0
   34.9433   32.6948  -12.4177 H   0  0  0  0  0  0  0  0  0  0  0  0
   32.8119   29.2847  -16.5969 H   0  0  0  0  0  0  0  0  0  0  0  0
   35.8404   27.9718  -14.8755 H   0  0  0  0  0  0  0  0  0  0  0  0
   37.0410   25.9681  -15.6803 H   0  0  0  0  0  0  0  0  0  0  0  0
   34.0643   25.4395  -18.7775 H   0  0  0  0  0  0  0  0  0  0  0  0
   31.5495   28.9831  -11.8148 H   0  0  0  0  0  0  0  0  0  0  0  0
   31.5032   30.5347  -11.1745 H   0  0  0  0  0  0  0  0  0  0  0  0
   28.5641   30.6713  -13.4217 H   0  0  0  0  0  0  0  0  0  0  0  0
   28.9526   29.0855  -13.8110 H   0  0  0  0  0  0  0  0  0  0  0  0
   29.2086   28.2342  -10.3408 H   0  0  0  0  0  0  0  0  0  0  0  0
   27.6879   30.5727  -11.0934 H   0  0  0  0  0  0  0  0  0  0  0  0
   30.1507   32.3607  -10.9121 H   0  0  0  0  0  0  0  0  0  0  0  0
   28.7851   32.4375  -12.1014 H   0  0  0  0  0  0  0  0  0  0  0  0
   28.6965   34.1510  -10.2467 H   0  0  0  0  0  0  0  0  0  0  0  0
   27.2375   33.0643  -10.4172 H   0  0  0  0  0  0  0  0  0  0  0  0
   29.4023   32.9850   -8.2861 H   0  0  0  0  0  0  0  0  0  0  0  0
   27.6108   33.2867   -8.1119 H   0  0  0  0  0  0  0  0  0  0  0  0
   28.4619   30.9823   -7.3835 H   0  0  0  0  0  0  0  0  0  0  0  0
   27.0747   31.0320   -8.5391 H   0  0  0  0  0  0  0  0  0  0  0  0
   28.6265   29.4457   -9.2026 H   0  0  0  0  0  0  0  0  0  0  0  0
  1  2  2  0
  2  3  1  0
  3  4  2  0
  4  5  1  0
  5  6  2  0
  6  7  1  0
  6  8  1  0
  8  9  1  0
  3 10  1  0
  8 10  2  0
 10 11  1  0
 11 12  1  0
 12 13  2  0
 13 14  1  0
 14 15  2  0
 15 16  1  0
 12 17  1  0
 17 18  1  0
 15 19  1  0
 17 19  2  0
  2 20  1  0
 20 21  1  0
 21 22  1  0
 20 23  1  0
 22 23  1  0
 22 24  1  0
 22 25  1  0
 25 26  1  0
 26 27  1  0
 27 28  1  0
 28 29  1  0
 25 30  1  0
 29 30  1  0
  4 31  1  0
  5 32  1  0
 11 33  1  0
 13 34  1  0
 14 35  1  0
 19 36  1  0
 21 37  1  0
 21 38  1  0
 23 39  1  0
 23 40  1  0
 24 41  1  0
 25 42  1  6
 26 43  1  0
 26 44  1  0
 27 45  1  0
 27 46  1  0
 28 47  1  0
 28 48  1  0
 29 49  1  0
 29 50  1  0
 30 51  1  0
M  END
>  <PDBID>  (1) 
4LMN

>  <PDB ID>  (1) 
4LMN

>  <Generic Name>  (1) 
Cobimetinib

>  <Brand Name>  (1) 
Cotellic

>  <DrugBank ID>  (1) 
DB05239

>  <ATC Codes>  (1) 
nan

>  <Ligand ID>  (1) 
EUI

>  <Target Name>  (1) 
Dual specificity mitogen-activated protein kinase kinase 1

>  <UniProt ID>  (1) 
Q02750

>  <PDB ID.1>  (1) 
4LMN

>  <Seq. Identity>  (1) 
97%

$$$$
