PDB_DB01283_99
     RDKit          3D

 94 96  0  0  0  0  0  0  0  0999 V2000
  -17.6450   38.1710   27.9330 O   0  0  0  0  0  0  0  0  0  0  0  0
  -16.8490   38.8740   27.3340 C   0  0  0  0  0  0  0  0  0  0  0  0
  -15.9400   39.5580   28.0230 O   0  0  0  0  0  0  0  0  0  0  0  0
  -16.8980   38.9750   25.8320 C   0  0  0  0  0  0  0  0  0  0  0  0
  -17.4930   40.3050   25.4400 C   0  0  0  0  0  0  0  0  0  0  0  0
  -18.8360   40.4070   25.1100 C   0  0  0  0  0  0  0  0  0  0  0  0
  -19.3650   41.6410   24.7500 C   0  0  0  0  0  0  0  0  0  0  0  0
  -20.8240   41.7410   24.3930 C   0  0  0  0  0  0  0  0  0  0  0  0
  -18.5620   42.7800   24.7140 C   0  0  0  0  0  0  0  0  0  0  0  0
  -17.2100   42.7280   25.0420 C   0  0  0  0  0  0  0  0  0  0  0  0
  -16.6380   41.5160   25.4060 C   0  0  0  0  0  0  0  0  0  0  0  0
  -15.3290   41.4100   25.7310 N   0  0  0  0  0  0  0  0  0  0  0  0
  -14.4420   42.4170   25.5670 C   0  0  0  0  0  0  0  0  0  0  0  0
  -13.7980   43.0570   26.7370 C   0  0  0  0  0  0  0  0  0  0  0  0
  -14.2020   42.5100   28.3960 Cl  0  0  0  0  0  0  0  0  0  0  0  0
  -12.8830   44.0820   26.5340 C   0  0  0  0  0  0  0  0  0  0  0  0
  -12.5650   44.5100   25.2460 C   0  0  0  0  0  0  0  0  0  0  0  0
  -13.1390   43.9370   24.1110 C   0  0  0  0  0  0  0  0  0  0  0  0
  -14.0630   42.9040   24.2190 C   0  0  0  0  0  0  0  0  0  0  0  0
  -14.6130   42.3590   23.1210 F   0  0  0  0  0  0  0  0  0  0  0  0
  -26.3860   48.0870   66.8820 O   0  0  0  0  0  0  0  0  0  0  0  0
  -25.6890   48.9140   67.4460 C   0  0  0  0  0  0  0  0  0  0  0  0
  -25.0380   49.8160   66.7210 O   0  0  0  0  0  0  0  0  0  0  0  0
  -25.5630   48.9150   68.9490 C   0  0  0  0  0  0  0  0  0  0  0  0
  -24.3090   48.1930   69.3770 C   0  0  0  0  0  0  0  0  0  0  0  0
  -24.3450   46.8470   69.7130 C   0  0  0  0  0  0  0  0  0  0  0  0
  -23.1790   46.2020   70.1110 C   0  0  0  0  0  0  0  0  0  0  0  0
  -23.2220   44.7400   70.4750 C   0  0  0  0  0  0  0  0  0  0  0  0
  -21.9720   46.8940   70.1790 C   0  0  0  0  0  0  0  0  0  0  0  0
  -21.8840   48.2420   69.8490 C   0  0  0  0  0  0  0  0  0  0  0  0
  -23.0230   48.9270   69.4480 C   0  0  0  0  0  0  0  0  0  0  0  0
  -22.9910   50.2380   69.1180 N   0  0  0  0  0  0  0  0  0  0  0  0
  -21.8980   51.0180   69.2800 C   0  0  0  0  0  0  0  0  0  0  0  0
  -21.1990   51.6030   68.1090 C   0  0  0  0  0  0  0  0  0  0  0  0
  -21.7790   51.2720   66.4440 Cl  0  0  0  0  0  0  0  0  0  0  0  0
  -20.0870   52.4120   68.3150 C   0  0  0  0  0  0  0  0  0  0  0  0
  -19.6250   52.6780   69.6010 C   0  0  0  0  0  0  0  0  0  0  0  0
  -20.2480   52.1570   70.7320 C   0  0  0  0  0  0  0  0  0  0  0  0
  -21.3690   51.3400   70.6290 C   0  0  0  0  0  0  0  0  0  0  0  0
  -21.9590   50.8410   71.7320 F   0  0  0  0  0  0  0  0  0  0  0  0
  -17.5167   38.2843   28.9081 H   0  0  0  0  0  0  0  0  0  0  0  0
  -17.5439   39.7235   27.4075 H   0  0  0  0  0  0  0  0  0  0  0  0
  -16.1008   39.4370   28.9923 H   0  0  0  0  0  0  0  0  0  0  0  0
  -15.8793   38.8941   25.4250 H   0  0  0  0  0  0  0  0  0  0  0  0
  -17.5180   38.1610   25.4283 H   0  0  0  0  0  0  0  0  0  0  0  0
  -17.2494   40.1034   24.3864 H   0  0  0  0  0  0  0  0  0  0  0  0
  -19.0090   39.7265   24.2632 H   0  0  0  0  0  0  0  0  0  0  0  0
  -19.3501   40.1735   26.0540 H   0  0  0  0  0  0  0  0  0  0  0  0
  -19.1212   41.4382   23.6967 H   0  0  0  0  0  0  0  0  0  0  0  0
  -21.4247   41.7822   25.3136 H   0  0  0  0  0  0  0  0  0  0  0  0
  -20.9953   42.6530   23.8023 H   0  0  0  0  0  0  0  0  0  0  0  0
  -21.1181   40.8609   23.8023 H   0  0  0  0  0  0  0  0  0  0  0  0
  -18.6171   43.1660   23.6854 H   0  0  0  0  0  0  0  0  0  0  0  0
  -18.9796   43.3892   25.5292 H   0  0  0  0  0  0  0  0  0  0  0  0
  -16.6545   43.0928   24.1655 H   0  0  0  0  0  0  0  0  0  0  0  0
  -17.1453   43.3290   25.9611 H   0  0  0  0  0  0  0  0  0  0  0  0
  -16.3945   41.3145   24.3524 H   0  0  0  0  0  0  0  0  0  0  0  0
  -15.3046   41.1718   26.7328 H   0  0  0  0  0  0  0  0  0  0  0  0
  -15.2623   43.1480   25.6187 H   0  0  0  0  0  0  0  0  0  0  0  0
  -14.6127   43.7948   26.7819 H   0  0  0  0  0  0  0  0  0  0  0  0
  -13.2722   44.9606   27.0694 H   0  0  0  0  0  0  0  0  0  0  0  0
  -11.9389   43.6394   26.8843 H   0  0  0  0  0  0  0  0  0  0  0  0
  -12.8127   45.5811   25.2082 H   0  0  0  0  0  0  0  0  0  0  0  0
  -11.5140   44.1989   25.1537 H   0  0  0  0  0  0  0  0  0  0  0  0
  -13.6428   44.7517   23.5703 H   0  0  0  0  0  0  0  0  0  0  0  0
  -12.2815   43.4446   23.6290 H   0  0  0  0  0  0  0  0  0  0  0  0
  -14.8806   43.6390   24.2547 H   0  0  0  0  0  0  0  0  0  0  0  0
  -26.8527   47.5333   67.5570 H   0  0  0  0  0  0  0  0  0  0  0  0
  -24.8265   48.2350   67.3757 H   0  0  0  0  0  0  0  0  0  0  0  0
  -24.5779   50.4534   67.3228 H   0  0  0  0  0  0  0  0  0  0  0  0
  -25.5223   49.9541   69.3077 H   0  0  0  0  0  0  0  0  0  0  0  0
  -26.4340   48.3982   69.3784 H   0  0  0  0  0  0  0  0  0  0  0  0
  -24.5128   48.4599   70.4245 H   0  0  0  0  0  0  0  0  0  0  0  0
  -25.0636   46.7443   70.5394 H   0  0  0  0  0  0  0  0  0  0  0  0
  -24.5972   46.3539   68.7626 H   0  0  0  0  0  0  0  0  0  0  0  0
  -23.3886   46.4687   71.1574 H   0  0  0  0  0  0  0  0  0  0  0  0
  -23.2251   44.6347   71.5699 H   0  0  0  0  0  0  0  0  0  0  0  0
  -24.1339   44.2856   70.0604 H   0  0  0  0  0  0  0  0  0  0  0  0
  -22.3384   44.2328   70.0604 H   0  0  0  0  0  0  0  0  0  0  0  0
  -21.6231   46.8064   71.2185 H   0  0  0  0  0  0  0  0  0  0  0  0
  -21.3833   46.4181   69.3809 H   0  0  0  0  0  0  0  0  0  0  0  0
  -21.4940   48.7629   70.7359 H   0  0  0  0  0  0  0  0  0  0  0  0
  -21.2525   48.2449   68.9483 H   0  0  0  0  0  0  0  0  0  0  0  0
  -23.2321   49.1921   70.4949 H   0  0  0  0  0  0  0  0  0  0  0  0
  -23.2237   50.2827   68.1156 H   0  0  0  0  0  0  0  0  0  0  0  0
  -21.2541   50.1282   69.2198 H   0  0  0  0  0  0  0  0  0  0  0  0
  -20.5461   50.7192   68.0572 H   0  0  0  0  0  0  0  0  0  0  0  0
  -19.2529   51.9418   67.7735 H   0  0  0  0  0  0  0  0  0  0  0  0
  -20.4368   53.3975   67.9737 H   0  0  0  0  0  0  0  0  0  0  0  0
  -18.5837   52.3249   69.6331 H   0  0  0  0  0  0  0  0  0  0  0  0
  -19.8283   53.7544   69.7010 H   0  0  0  0  0  0  0  0  0  0  0  0
  -19.4847   51.5719   71.2659 H   0  0  0  0  0  0  0  0  0  0  0  0
  -20.6534   53.0575   71.2166 H   0  0  0  0  0  0  0  0  0  0  0  0
  -20.7190   50.4536   70.5857 H   0  0  0  0  0  0  0  0  0  0  0  0
  1  2  1  0
  2  3  1  0
  2  4  1  0
  4  5  1  0
  5  6  1  0
  6  7  1  0
  7  8  1  0
  7  9  1  0
  9 10  1  0
  5 11  1  0
 10 11  1  0
 11 12  1  0
 12 13  1  0
 13 14  1  0
 14 15  1  0
 14 16  1  0
 16 17  1  0
 17 18  1  0
 13 19  1  0
 18 19  1  0
 19 20  1  0
 21 22  1  0
 22 23  1  0
 22 24  1  0
 24 25  1  0
 25 26  1  0
 26 27  1  0
 27 28  1  0
 27 29  1  0
 29 30  1  0
 25 31  1  0
 30 31  1  0
 31 32  1  0
 32 33  1  0
 33 34  1  0
 34 35  1  0
 34 36  1  0
 36 37  1  0
 37 38  1  0
 33 39  1  0
 38 39  1  0
 39 40  1  0
  1 41  1  0
  2 42  1  0
  3 43  1  0
  4 44  1  0
  4 45  1  0
  5 46  1  0
  6 47  1  0
  6 48  1  0
  7 49  1  0
  8 50  1  0
  8 51  1  0
  8 52  1  0
  9 53  1  0
  9 54  1  0
 10 55  1  0
 10 56  1  0
 11 57  1  0
 12 58  1  0
 13 59  1  0
 14 60  1  0
 16 61  1  0
 16 62  1  0
 17 63  1  0
 17 64  1  0
 18 65  1  0
 18 66  1  0
 19 67  1  0
 21 68  1  0
 22 69  1  0
 23 70  1  0
 24 71  1  0
 24 72  1  0
 25 73  1  0
 26 74  1  0
 26 75  1  0
 27 76  1  0
 28 77  1  0
 28 78  1  0
 28 79  1  0
 29 80  1  0
 29 81  1  0
 30 82  1  0
 30 83  1  0
 31 84  1  0
 32 85  1  0
 33 86  1  0
 34 87  1  0
 36 88  1  0
 36 89  1  0
 37 90  1  0
 37 91  1  0
 38 92  1  0
 38 93  1  0
 39 94  1  0
M  END
>  <PDBID>  (1) 
4OTY

>  <PDB ID>  (1) 
4OTY

>  <Generic Name>  (1) 
Lumiracoxib

>  <Brand Name>  (1) 
Prexige

>  <DrugBank ID>  (1) 
DB01283

>  <ATC Codes>  (1) 
M01AH06

>  <Ligand ID>  (1) 
LUR

>  <Target Name>  (1) 
Prostaglandin G/H synthase 1

>  <UniProt ID>  (1) 
P23219

>  <PDB ID.1>  (1) 
4OTY

>  <Seq. Identity>  (1) 
62%

$$$$
