PDB_DB01137_98
     RDKit          3D

 46 49  0  0  0  0  0  0  0  0999 V2000
   92.5260    5.1640   39.8260 C   0  0  0  0  0  0  0  0  0  0  0  0
   92.2450    9.3830   45.9740 F   0  0  0  0  0  0  0  0  0  0  0  0
   90.6290   14.0340   45.6360 N   0  0  0  0  0  0  0  0  0  0  0  0
   92.2450    5.2620   38.6070 O   0  0  0  0  0  0  0  0  0  0  0  0
   92.1130   12.0980   45.5010 C   0  0  0  0  0  0  0  0  0  0  0  0
   91.1790   11.5080   44.5430 N   0  0  0  0  0  0  0  0  0  0  0  0
   90.7990   11.0860   41.8420 O   0  0  0  0  0  0  0  0  0  0  0  0
   89.8020   12.0080   44.4950 C   0  0  0  0  0  0  0  0  0  0  0  0
   91.4200    8.6430   40.6120 N   0  0  0  0  0  0  0  0  0  0  0  0
   92.9980    5.5220   42.8130 O   0  0  0  0  0  0  0  0  0  0  0  0
   90.8350    9.7480   39.8130 C   0  0  2  0  0  0  0  0  0  0  0  0
   93.0330    4.1100   40.3420 O   0  0  0  0  0  0  0  0  0  0  0  0
   91.5010   10.2810   43.9300 C   0  0  0  0  0  0  0  0  0  0  0  0
   91.6330    8.8170   41.9720 C   0  0  0  0  0  0  0  0  0  0  0  0
   91.3050   10.0530   42.5700 C   0  0  0  0  0  0  0  0  0  0  0  0
   92.0050   13.6020   45.4690 C   0  0  0  0  0  0  0  0  0  0  0  0
   89.8330   13.5280   44.5280 C   0  0  0  0  0  0  0  0  0  0  0  0
   90.0350   10.6550   40.7090 C   0  0  0  0  0  0  0  0  0  0  0  0
   92.1700    7.7630   42.7250 C   0  0  0  0  0  0  0  0  0  0  0  0
   92.0420    9.1920   44.6410 C   0  0  0  0  0  0  0  0  0  0  0  0
   91.7310    7.4660   40.0440 C   0  0  0  0  0  0  0  0  0  0  0  0
   92.3770    7.9790   44.1030 C   0  0  0  0  0  0  0  0  0  0  0  0
   89.8660    9.2360   38.7600 C   0  0  0  0  0  0  0  0  0  0  0  0
   92.5170    6.4590   42.1040 C   0  0  0  0  0  0  0  0  0  0  0  0
   90.5910   15.4870   45.6410 C   0  0  0  0  0  0  0  0  0  0  0  0
   92.2610    6.3710   40.6890 C   0  0  0  0  0  0  0  0  0  0  0  0
   91.8534    6.1004   38.2551 H   0  0  0  0  0  0  0  0  0  0  0  0
   91.8737   11.7372   46.5122 H   0  0  0  0  0  0  0  0  0  0  0  0
   93.1385   11.8043   45.2325 H   0  0  0  0  0  0  0  0  0  0  0  0
   89.3169   11.6678   43.5682 H   0  0  0  0  0  0  0  0  0  0  0  0
   89.2347   11.6262   45.3567 H   0  0  0  0  0  0  0  0  0  0  0  0
   91.6772   10.2686   39.3337 H   0  0  0  0  0  0  0  0  0  0  0  0
   92.3810   13.9681   44.5023 H   0  0  0  0  0  0  0  0  0  0  0  0
   92.6013   14.0114   46.2978 H   0  0  0  0  0  0  0  0  0  0  0  0
   88.8036   13.9019   44.6307 H   0  0  0  0  0  0  0  0  0  0  0  0
   90.2927   13.8784   43.5921 H   0  0  0  0  0  0  0  0  0  0  0  0
   89.1459   10.1128   41.0635 H   0  0  0  0  0  0  0  0  0  0  0  0
   89.7479   11.5447   40.1294 H   0  0  0  0  0  0  0  0  0  0  0  0
   91.5451    7.3680   38.9643 H   0  0  0  0  0  0  0  0  0  0  0  0
   92.8010    7.1852   44.7355 H   0  0  0  0  0  0  0  0  0  0  0  0
   88.9969    8.7768   39.2538 H   0  0  0  0  0  0  0  0  0  0  0  0
   89.5303   10.0744   38.1320 H   0  0  0  0  0  0  0  0  0  0  0  0
   90.3695    8.4862   38.1320 H   0  0  0  0  0  0  0  0  0  0  0  0
   90.5815   15.8500   46.6793 H   0  0  0  0  0  0  0  0  0  0  0  0
   91.4792   15.8788   45.1237 H   0  0  0  0  0  0  0  0  0  0  0  0
   89.6835   15.8318   45.1237 H   0  0  0  0  0  0  0  0  0  0  0  0
  1  4  1  0
  5  6  1  0
  6  8  1  0
  9 11  1  0
  1 12  2  0
  6 13  1  0
  9 14  1  0
  7 15  1  0
 13 15  1  0
 14 15  2  0
  3 16  1  0
  5 16  1  0
  3 17  1  0
  8 17  1  0
  7 18  1  0
 11 18  1  0
 14 19  1  0
  2 20  1  0
 13 20  2  0
  9 21  1  0
 19 22  2  0
 20 22  1  0
 11 23  1  0
 19 24  1  0
 24 10  2  0
  3 25  1  0
  1 26  1  0
 21 26  2  0
 24 26  1  0
  4 27  1  0
  5 28  1  0
  5 29  1  0
  8 30  1  0
  8 31  1  0
 11 32  1  6
 16 33  1  0
 16 34  1  0
 17 35  1  0
 17 36  1  0
 18 37  1  0
 18 38  1  0
 21 39  1  0
 22 40  1  0
 23 41  1  0
 23 42  1  0
 23 43  1  0
 25 44  1  0
 25 45  1  0
 25 46  1  0
M  END
$$$$
