PDB_DB01264_97
     RDKit          3D

 91 94  0  0  0  0  0  0  0  0999 V2000
   21.0910   28.7350   14.0670 N   0  0  0  0  0  0  0  0  0  0  0  0
   20.5400   27.5660   14.5190 C   0  0  0  0  0  0  0  0  0  0  0  0
   19.1880   27.3330   14.2100 C   0  0  0  0  0  0  0  0  0  0  0  0
   18.6260   26.1600   14.6750 C   0  0  0  0  0  0  0  0  0  0  0  0
   19.3840   25.2160   15.3450 C   0  0  1  0  0  0  0  0  0  0  0  0
   20.7110   25.4230   15.7210 C   0  0  0  0  0  0  0  0  0  0  0  0
   21.2630   26.6460   15.2920 C   0  0  0  0  0  0  0  0  0  0  0  0
   18.4500   23.7990   15.9930 S   0  0  1  0  0  4  0  0  0  0  0  0
   17.2570   23.4660   15.0690 O   0  0  0  0  0  0  0  0  0  0  0  0
   19.4810   22.6380   16.2400 O   0  0  0  0  0  0  0  0  0  0  0  0
   17.7940   24.1570   17.5840 N   0  0  0  0  0  0  0  0  0  0  0  0
   18.7830   24.4260   18.6320 C   0  0  0  0  0  0  0  0  0  0  0  0
   18.4000   23.8560   20.0060 C   0  0  1  0  0  0  0  0  0  0  0  0
   18.3680   22.3520   19.8930 C   0  0  0  0  0  0  0  0  0  0  0  0
   19.5030   24.3350   20.9200 C   0  0  0  0  0  0  0  0  0  0  0  0
   16.5050   24.8940   17.5640 C   0  0  0  0  0  0  0  0  0  0  0  0
   15.3940   23.9640   18.1580 C   0  0  1  0  0  0  0  0  0  0  0  0
   14.2320   24.7640   18.4090 O   0  0  0  0  0  0  0  0  0  0  0  0
   15.0130   22.8280   17.1770 C   0  0  1  0  0  0  0  0  0  0  0  0
   14.1320   21.9410   17.8870 N   0  0  0  0  0  0  0  0  0  0  0  0
   14.4880   20.6750   18.2230 C   0  0  0  0  0  0  0  0  0  0  0  0
   15.5870   20.0860   17.9550 O   0  0  0  0  0  0  0  0  0  0  0  0
   13.4210   20.0660   18.9520 O   0  0  0  0  0  0  0  0  0  0  0  0
   13.5050   18.6020   19.1020 C   0  0  1  0  0  0  0  0  0  0  0  0
   12.8390   18.3510   20.4850 C   0  0  0  0  0  0  0  0  0  0  0  0
   11.4120   18.4700   20.2840 O   0  0  0  0  0  0  0  0  0  0  0  0
   11.2200   17.9780   18.9680 C   0  0  1  0  0  0  0  0  0  0  0  0
   10.2970   18.8060   18.2910 O   0  0  0  0  0  0  0  0  0  0  0  0
   11.0420   19.4440   17.2410 C   0  0  0  0  0  0  0  0  0  0  0  0
   12.1310   18.4320   16.8180 C   0  0  0  0  0  0  0  0  0  0  0  0
   12.4700   17.8870   18.2130 C   0  0  1  0  0  0  0  0  0  0  0  0
   14.2940   23.2850   15.8960 C   0  0  0  0  0  0  0  0  0  0  0  0
   12.5490   21.7500   14.8810 C   0  0  0  0  0  0  0  0  0  0  0  0
   12.1480   20.6610   14.0690 C   0  0  0  0  0  0  0  0  0  0  0  0
   13.1190   19.9330   13.3910 C   0  0  0  0  0  0  0  0  0  0  0  0
   14.4710   20.2400   13.5170 C   0  0  0  0  0  0  0  0  0  0  0  0
   14.8600   21.3260   14.3140 C   0  0  0  0  0  0  0  0  0  0  0  0
   13.9020   22.1140   14.9680 C   0  0  1  0  0  0  0  0  0  0  0  0
   21.3659   29.3181   14.8703 H   0  0  0  0  0  0  0  0  0  0  0  0
   21.9216   28.5246   13.4953 H   0  0  0  0  0  0  0  0  0  0  0  0
   20.2405   28.0675   15.4511 H   0  0  0  0  0  0  0  0  0  0  0  0
   18.6049   28.1672   14.6274 H   0  0  0  0  0  0  0  0  0  0  0  0
   19.1593   27.2454   13.1139 H   0  0  0  0  0  0  0  0  0  0  0  0
   17.8167   26.4527   15.3601 H   0  0  0  0  0  0  0  0  0  0  0  0
   18.3615   25.6368   13.7443 H   0  0  0  0  0  0  0  0  0  0  0  0
   20.0340   24.9181   14.5091 H   0  0  0  0  0  0  0  0  0  0  0  0
   20.7646   25.3900   16.8192 H   0  0  0  0  0  0  0  0  0  0  0  0
   21.2980   24.6306   15.2336 H   0  0  0  0  0  0  0  0  0  0  0  0
   22.1572   26.3891   14.7052 H   0  0  0  0  0  0  0  0  0  0  0  0
   21.3780   27.1886   16.2419 H   0  0  0  0  0  0  0  0  0  0  0  0
   16.4647   23.2448   15.6198 H   0  0  0  0  0  0  0  0  0  0  0  0
   19.6000   22.5040   17.2136 H   0  0  0  0  0  0  0  0  0  0  0  0
   19.7416   23.9811   18.3268 H   0  0  0  0  0  0  0  0  0  0  0  0
   18.8429   25.5187   18.7435 H   0  0  0  0  0  0  0  0  0  0  0  0
   17.4155   24.1732   20.3802 H   0  0  0  0  0  0  0  0  0  0  0  0
   18.3586   21.9088   20.8997 H   0  0  0  0  0  0  0  0  0  0  0  0
   17.4631   22.0444   19.3484 H   0  0  0  0  0  0  0  0  0  0  0  0
   19.2590   22.0062   19.3484 H   0  0  0  0  0  0  0  0  0  0  0  0
   19.1951   24.2013   21.9675 H   0  0  0  0  0  0  0  0  0  0  0  0
   20.4163   23.7525   20.7290 H   0  0  0  0  0  0  0  0  0  0  0  0
   19.7008   25.4001   20.7290 H   0  0  0  0  0  0  0  0  0  0  0  0
   16.5896   25.8067   18.1721 H   0  0  0  0  0  0  0  0  0  0  0  0
   16.2483   25.1780   16.5328 H   0  0  0  0  0  0  0  0  0  0  0  0
   15.7767   23.5030   19.0805 H   0  0  0  0  0  0  0  0  0  0  0  0
   14.0991   24.8555   19.3858 H   0  0  0  0  0  0  0  0  0  0  0  0
   15.9525   22.3620   16.8451 H   0  0  0  0  0  0  0  0  0  0  0  0
   13.8982   22.4165   18.7703 H   0  0  0  0  0  0  0  0  0  0  0  0
   14.0594   20.3043   17.2802 H   0  0  0  0  0  0  0  0  0  0  0  0
   16.0442   19.8409   18.7982 H   0  0  0  0  0  0  0  0  0  0  0  0
   14.5380   18.2738   18.9143 H   0  0  0  0  0  0  0  0  0  0  0  0
   13.0883   17.3434   20.8490 H   0  0  0  0  0  0  0  0  0  0  0  0
   13.1957   19.0733   21.2340 H   0  0  0  0  0  0  0  0  0  0  0  0
   10.8247   16.9545   19.0469 H   0  0  0  0  0  0  0  0  0  0  0  0
   10.3835   19.6750   16.3907 H   0  0  0  0  0  0  0  0  0  0  0  0
   11.4828   20.3936   17.5785 H   0  0  0  0  0  0  0  0  0  0  0  0
   11.7376   17.6515   16.1501 H   0  0  0  0  0  0  0  0  0  0  0  0
   12.9737   18.8423   16.2422 H   0  0  0  0  0  0  0  0  0  0  0  0
   12.9195   16.9044   18.0071 H   0  0  0  0  0  0  0  0  0  0  0  0
   13.3797   23.8256   16.1821 H   0  0  0  0  0  0  0  0  0  0  0  0
   14.9942   23.9241   15.3382 H   0  0  0  0  0  0  0  0  0  0  0  0
   12.0080   22.6339   14.5123 H   0  0  0  0  0  0  0  0  0  0  0  0
   12.3221   21.3969   15.8978 H   0  0  0  0  0  0  0  0  0  0  0  0
   11.6108   19.9547   14.7191 H   0  0  0  0  0  0  0  0  0  0  0  0
   11.5624   21.1322   13.2658 H   0  0  0  0  0  0  0  0  0  0  0  0
   13.0057   18.8872   13.7128 H   0  0  0  0  0  0  0  0  0  0  0  0
   12.9141   20.1823   12.3394 H   0  0  0  0  0  0  0  0  0  0  0  0
   14.9650   19.3475   13.9287 H   0  0  0  0  0  0  0  0  0  0  0  0
   14.7625   20.5466   12.5016 H   0  0  0  0  0  0  0  0  0  0  0  0
   15.5205   20.9216   15.0952 H   0  0  0  0  0  0  0  0  0  0  0  0
   15.2933   22.0239   13.5825 H   0  0  0  0  0  0  0  0  0  0  0  0
   14.0383   21.4084   15.8008 H   0  0  0  0  0  0  0  0  0  0  0  0
  1  2  1  0
  2  3  1  0
  3  4  1  0
  4  5  1  0
  5  6  1  0
  2  7  1  0
  6  7  1  0
  5  8  1  0
  8  9  1  6
  8 10  1  0
  8 11  1  0
 11 12  1  0
 12 13  1  0
 13 14  1  0
 13 15  1  0
 11 16  1  0
 16 17  1  0
 17 18  1  0
 17 19  1  0
 19 20  1  0
 20 21  1  0
 21 22  1  0
 21 23  1  0
 23 24  1  0
 24 25  1  0
 25 26  1  0
 26 27  1  0
 27 28  1  0
 28 29  1  0
 29 30  1  0
 24 31  1  0
 27 31  1  0
 30 31  1  0
 19 32  1  0
 33 34  1  0
 34 35  1  0
 35 36  1  0
 36 37  1  0
 32 38  1  0
 33 38  1  0
 37 38  1  0
  1 39  1  0
  1 40  1  0
  2 41  1  0
  3 42  1  0
  3 43  1  0
  4 44  1  0
  4 45  1  0
  5 46  1  6
  6 47  1  0
  6 48  1  0
  7 49  1  0
  7 50  1  0
  9 51  1  0
 10 52  1  0
 12 53  1  0
 12 54  1  0
 13 55  1  1
 14 56  1  0
 14 57  1  0
 14 58  1  0
 15 59  1  0
 15 60  1  0
 15 61  1  0
 16 62  1  0
 16 63  1  0
 17 64  1  1
 18 65  1  0
 19 66  1  6
 20 67  1  0
 21 68  1  0
 22 69  1  0
 24 70  1  1
 25 71  1  0
 25 72  1  0
 27 73  1  1
 29 74  1  0
 29 75  1  0
 30 76  1  0
 30 77  1  0
 31 78  1  6
 32 79  1  0
 32 80  1  0
 33 81  1  0
 33 82  1  0
 34 83  1  0
 34 84  1  0
 35 85  1  0
 35 86  1  0
 36 87  1  0
 36 88  1  0
 37 89  1  0
 37 90  1  0
 38 91  1  6
M  END
>  <PDBID>  (1) 
2IEN

>  <PDB ID>  (1) 
2IEN

>  <Generic Name>  (1) 
Darunavir

>  <Brand Name>  (1) 
Pat-darunavir#Prezcobix#Prezista

>  <DrugBank ID>  (1) 
DB01264

>  <ATC Codes>  (1) 
J05AE10#J05AR14

>  <Ligand ID>  (1) 
017

>  <Target Name>  (1) 
Pol polyprotein

>  <UniProt ID>  (1) 
Q72874

>  <PDB ID.1>  (1) 
2IEN

>  <Seq. Identity>  (1) 
94%

$$$$
