PDB_DB01026_97
     RDKit          3D

 64 68  0  0  0  0  0  0  0  0999 V2000
    4.8560   21.0510   90.6280 C   0  0  0  0  0  0  0  0  0  0  0  0
    5.0310   20.9480   89.3100 N   0  0  0  0  0  0  0  0  0  0  0  0
    3.3520   18.4870   90.1180 O   0  0  0  0  0  0  0  0  0  0  0  0
    9.9570   16.9310   90.9840 Cl  0  0  0  0  0  0  0  0  0  0  0  0
    6.2510   22.5930   90.0110 C   0  0  0  0  0  0  0  0  0  0  0  0
    5.5960   22.0540   91.0630 N   0  0  0  0  0  0  0  0  0  0  0  0
    4.0670   17.6840   88.0800 O   0  0  0  0  0  0  0  0  0  0  0  0
    6.9580   18.7130   87.0860 Cl  0  0  0  0  0  0  0  0  0  0  0  0
    5.8870   21.8850   88.9050 C   0  0  0  0  0  0  0  0  0  0  0  0
   -3.0210   18.8650   83.7140 N   0  0  0  0  0  0  0  0  0  0  0  0
    1.1860   17.8960   87.2410 O   0  0  0  0  0  0  0  0  0  0  0  0
    4.4120   19.9910   88.4680 C   0  0  0  0  0  0  0  0  0  0  0  0
   -4.8280   19.3820   81.7160 N   0  0  0  0  0  0  0  0  0  0  0  0
   -5.8300   20.7600   80.2390 O   0  0  0  0  0  0  0  0  0  0  0  0
    4.4080   18.6160   89.1170 C   0  0  1  0  0  0  0  0  0  0  0  0
    2.3250   17.6760   89.4820 C   0  0  2  0  0  0  0  0  0  0  0  0
    3.1120   16.8110   88.5960 C   0  0  0  0  0  0  0  0  0  0  0  0
    5.7530   18.2030   89.6520 C   0  0  0  0  0  0  0  0  0  0  0  0
    6.9610   18.2140   88.7850 C   0  0  0  0  0  0  0  0  0  0  0  0
    8.1430   17.8300   89.2480 C   0  0  0  0  0  0  0  0  0  0  0  0
    8.3000   17.4110   90.5050 C   0  0  0  0  0  0  0  0  0  0  0  0
    7.2090   17.3810   91.3790 C   0  0  0  0  0  0  0  0  0  0  0  0
    5.9230   17.7690   90.9420 C   0  0  0  0  0  0  0  0  0  0  0  0
    1.3460   18.5090   88.5930 C   0  0  0  0  0  0  0  0  0  0  0  0
    0.1220   18.1570   86.4050 C   0  0  0  0  0  0  0  0  0  0  0  0
    0.1780   17.6500   85.1320 C   0  0  0  0  0  0  0  0  0  0  0  0
   -0.8410   17.8710   84.2380 C   0  0  0  0  0  0  0  0  0  0  0  0
   -1.9540   18.6220   84.6120 C   0  0  0  0  0  0  0  0  0  0  0  0
   -2.0250   19.1420   85.9110 C   0  0  0  0  0  0  0  0  0  0  0  0
   -0.9880   18.9110   86.8120 C   0  0  0  0  0  0  0  0  0  0  0  0
   -2.8310   20.0730   82.9250 C   0  0  0  0  0  0  0  0  0  0  0  0
   -4.2050   20.5120   82.4460 C   0  0  0  0  0  0  0  0  0  0  0  0
   -4.7350   17.9770   82.2970 C   0  0  0  0  0  0  0  0  0  0  0  0
   -3.3240   17.7480   82.8060 C   0  0  0  0  0  0  0  0  0  0  0  0
   -5.4870   19.6290   80.5680 C   0  0  0  0  0  0  0  0  0  0  0  0
   -5.7930   18.4450   79.7050 C   0  0  0  0  0  0  0  0  0  0  0  0
    4.2079   20.4115   91.2453 H   0  0  0  0  0  0  0  0  0  0  0  0
    6.9475   23.4438   90.0417 H   0  0  0  0  0  0  0  0  0  0  0  0
    6.2336   22.0547   87.8749 H   0  0  0  0  0  0  0  0  0  0  0  0
    3.3744   20.3002   88.2739 H   0  0  0  0  0  0  0  0  0  0  0  0
    4.9791   19.9329   87.5272 H   0  0  0  0  0  0  0  0  0  0  0  0
    1.6990   17.1670   90.2297 H   0  0  0  0  0  0  0  0  0  0  0  0
    2.4863   16.3901   87.7952 H   0  0  0  0  0  0  0  0  0  0  0  0
    3.5490   15.9428   89.1110 H   0  0  0  0  0  0  0  0  0  0  0  0
    9.0157   17.8576   88.5790 H   0  0  0  0  0  0  0  0  0  0  0  0
    7.3538   17.0516   92.4185 H   0  0  0  0  0  0  0  0  0  0  0  0
    5.0658   17.7235   91.6299 H   0  0  0  0  0  0  0  0  0  0  0  0
    1.7442   19.5281   88.4795 H   0  0  0  0  0  0  0  0  0  0  0  0
    0.3620   18.5281   89.0842 H   0  0  0  0  0  0  0  0  0  0  0  0
    1.0517   17.0577   84.8224 H   0  0  0  0  0  0  0  0  0  0  0  0
   -0.7784   17.4534   83.2223 H   0  0  0  0  0  0  0  0  0  0  0  0
   -2.9000   19.7329   86.2196 H   0  0  0  0  0  0  0  0  0  0  0  0
   -1.0394   19.3163   87.8333 H   0  0  0  0  0  0  0  0  0  0  0  0
   -2.3772   20.8610   83.5440 H   0  0  0  0  0  0  0  0  0  0  0  0
   -2.1604   19.8842   82.0737 H   0  0  0  0  0  0  0  0  0  0  0  0
   -4.1056   21.3782   81.7753 H   0  0  0  0  0  0  0  0  0  0  0  0
   -4.8308   20.7993   83.3038 H   0  0  0  0  0  0  0  0  0  0  0  0
   -5.4486   17.8729   83.1276 H   0  0  0  0  0  0  0  0  0  0  0  0
   -4.9760   17.2360   81.5206 H   0  0  0  0  0  0  0  0  0  0  0  0
   -2.6140   17.7379   81.9659 H   0  0  0  0  0  0  0  0  0  0  0  0
   -3.2398   16.7809   83.3233 H   0  0  0  0  0  0  0  0  0  0  0  0
   -6.0176   17.5760   80.3409 H   0  0  0  0  0  0  0  0  0  0  0  0
   -6.6627   18.6692   79.0699 H   0  0  0  0  0  0  0  0  0  0  0  0
   -4.9236   18.2197   79.0699 H   0  0  0  0  0  0  0  0  0  0  0  0
  1  2  1  0
  1  6  2  0
  5  6  1  0
  2  9  1  0
  5  9  2  0
  2 12  1  0
  3 15  1  0
  7 15  1  0
 15 12  1  6
  3 16  1  0
  7 17  1  0
 16 17  1  0
 15 18  1  0
  8 19  1  0
 18 19  2  0
 19 20  1  0
  4 21  1  0
 20 21  2  0
 21 22  1  0
 18 23  1  0
 22 23  2  0
 11 24  1  0
 16 24  1  0
 11 25  1  0
 25 26  2  0
 26 27  1  0
 10 28  1  0
 27 28  2  0
 28 29  1  0
 25 30  1  0
 29 30  2  0
 10 31  1  0
 13 32  1  0
 31 32  1  0
 13 33  1  0
 10 34  1  0
 33 34  1  0
 13 35  1  0
 14 35  2  0
 35 36  1  0
  1 37  1  0
  5 38  1  0
  9 39  1  0
 12 40  1  0
 12 41  1  0
 16 42  1  1
 17 43  1  0
 17 44  1  0
 20 45  1  0
 22 46  1  0
 23 47  1  0
 24 48  1  0
 24 49  1  0
 26 50  1  0
 27 51  1  0
 29 52  1  0
 30 53  1  0
 31 54  1  0
 31 55  1  0
 32 56  1  0
 32 57  1  0
 33 58  1  0
 33 59  1  0
 34 60  1  0
 34 61  1  0
 36 62  1  0
 36 63  1  0
 36 64  1  0
M  END
>  <PDBID>  (1) 
6AYB

>  <PDB ID>  (1) 
6AYB

>  <Generic Name>  (1) 
Ketoconazole

>  <Brand Name>  (1) 
Apo-ketoconazole#Extina#Ketoconazole#Ketodan#Ketoderm Cream 2%#Nizoral#Nizoral  - 2%#Nizoral A-D#Nizoral Cream 2%#Nizoral Oral Suspension 20mg/ml#Nizoral Shp 2%#Nizoral Tablets 200mg#Nu-ketocon Tablets - 200mg#Teva-ketoconazole#Xolegel#Fungarest#Fungoral#Ketoderm#Ketoisdin#Ketozole#Nizoral Cream#Nizoral Shampoo#Orifungal#Orifungal M#Panfungol

>  <DrugBank ID>  (1) 
DB01026

>  <ATC Codes>  (1) 
G01AF11#D01AC08#J02AB02

>  <Ligand ID>  (1) 
KKK,KLN,KTN

>  <Target Name>  (1) 
Lanosterol 14-alpha demethylase

>  <UniProt ID>  (1) 
P10613

>  <PDB ID.1>  (1) 
6AYB

>  <Seq. Identity>  (1) 
34%

$$$$
