PDB_DB08895_98
     RDKit          3D

 57 59  0  0  0  0  0  0  0  0999 V2000
    0.7260   15.7350    5.4100 C   0  0  1  0  0  0  0  0  0  0  0  0
    1.7900   16.8120    5.5120 C   0  0  0  0  0  0  0  0  0  0  0  0
    2.8080   15.6940    7.4290 C   0  0  0  0  0  0  0  0  0  0  0  0
    1.7000   14.6620    7.4460 C   0  0  0  0  0  0  0  0  0  0  0  0
    0.4230   15.1790    6.8080 C   0  0  1  0  0  0  0  0  0  0  0  0
    2.9870   16.2430    6.1130 N   0  0  0  0  0  0  0  0  0  0  0  0
    4.2210   16.5720    4.2380 O   0  0  0  0  0  0  0  0  0  0  0  0
    4.1440   16.1520    5.3790 C   0  0  0  0  0  0  0  0  0  0  0  0
    5.3220   15.5240    6.0770 C   0  0  0  0  0  0  0  0  0  0  0  0
    6.4300   15.3090    5.1680 C   0  0  0  0  0  0  0  0  0  0  0  0
    7.2990   15.0780    4.4380 N   0  0  0  0  0  0  0  0  0  0  0  0
   -0.2050   16.2060    7.7500 C   0  0  0  0  0  0  0  0  0  0  0  0
   -0.5650   16.2350    4.9240 N   0  0  0  0  0  0  0  0  0  0  0  0
   -0.7470   17.6270    4.6020 C   0  0  0  0  0  0  0  0  0  0  0  0
   -1.3940   15.3750    4.1710 C   0  0  1  0  0  0  0  0  0  0  0  0
   -1.2690   13.9880    4.0410 C   0  0  0  0  0  0  0  0  0  0  0  0
   -0.3750   12.9580    4.4740 C   0  0  0  0  0  0  0  0  0  0  0  0
   -0.8250   11.7580    3.9870 C   0  0  0  0  0  0  0  0  0  0  0  0
   -1.9660   12.0070    3.2910 N   0  0  0  0  0  0  0  0  0  0  0  0
   -2.2400   13.3380    3.3070 C   0  0  0  0  0  0  0  0  0  0  0  0
   -3.2950   13.8650    2.6890 N   0  0  0  0  0  0  0  0  0  0  0  0
   -3.2980   15.1830    2.8830 C   0  0  0  0  0  0  0  0  0  0  0  0
   -2.4480   15.9530    3.5690 N   0  0  0  0  0  0  0  0  0  0  0  0
    1.1329   14.9903    4.7101 H   0  0  0  0  0  0  0  0  0  0  0  0
    2.0272   17.1919    4.5073 H   0  0  0  0  0  0  0  0  0  0  0  0
    1.4206   17.6403    6.1344 H   0  0  0  0  0  0  0  0  0  0  0  0
    2.5522   16.5065    8.1250 H   0  0  0  0  0  0  0  0  0  0  0  0
    3.7450   15.2040    7.7323 H   0  0  0  0  0  0  0  0  0  0  0  0
    2.0365   13.7722    6.8937 H   0  0  0  0  0  0  0  0  0  0  0  0
    1.4788   14.4222    8.4965 H   0  0  0  0  0  0  0  0  0  0  0  0
   -0.3085   14.3706    6.6617 H   0  0  0  0  0  0  0  0  0  0  0  0
    4.3995   17.5456    4.2561 H   0  0  0  0  0  0  0  0  0  0  0  0
    3.8242   15.1715    4.9965 H   0  0  0  0  0  0  0  0  0  0  0  0
    5.6510   16.1885    6.8895 H   0  0  0  0  0  0  0  0  0  0  0  0
    5.0066   14.5467    6.4712 H   0  0  0  0  0  0  0  0  0  0  0  0
    6.0662   16.1103    4.5081 H   0  0  0  0  0  0  0  0  0  0  0  0
    7.0844   15.0755    6.0208 H   0  0  0  0  0  0  0  0  0  0  0  0
    8.1481   14.8523    4.9755 H   0  0  0  0  0  0  0  0  0  0  0  0
    7.0448   14.2754    3.8446 H   0  0  0  0  0  0  0  0  0  0  0  0
   -0.0222   15.9071    8.7927 H   0  0  0  0  0  0  0  0  0  0  0  0
    0.2439   17.1935    7.5676 H   0  0  0  0  0  0  0  0  0  0  0  0
   -1.2886   16.2564    7.5676 H   0  0  0  0  0  0  0  0  0  0  0  0
   -0.8234   18.2113    5.5309 H   0  0  0  0  0  0  0  0  0  0  0  0
    0.1123   17.9829    4.0146 H   0  0  0  0  0  0  0  0  0  0  0  0
   -1.6689   17.7500    4.0146 H   0  0  0  0  0  0  0  0  0  0  0  0
   -0.7441   15.5157    3.2948 H   0  0  0  0  0  0  0  0  0  0  0  0
   -0.6674   14.1275    3.1307 H   0  0  0  0  0  0  0  0  0  0  0  0
    0.6360   13.1586    4.0899 H   0  0  0  0  0  0  0  0  0  0  0  0
   -0.3380   12.9286    5.5730 H   0  0  0  0  0  0  0  0  0  0  0  0
   -0.0686   11.3135    3.3235 H   0  0  0  0  0  0  0  0  0  0  0  0
   -1.0158   11.0512    4.8080 H   0  0  0  0  0  0  0  0  0  0  0  0
   -1.8459   11.6953    2.3167 H   0  0  0  0  0  0  0  0  0  0  0  0
   -1.6403   13.4724    2.3947 H   0  0  0  0  0  0  0  0  0  0  0  0
   -3.2399   13.6646    1.6802 H   0  0  0  0  0  0  0  0  0  0  0  0
   -3.2806   15.6037    1.8668 H   0  0  0  0  0  0  0  0  0  0  0  0
   -4.1355   15.2223    3.5951 H   0  0  0  0  0  0  0  0  0  0  0  0
   -2.9935   16.4273    4.3028 H   0  0  0  0  0  0  0  0  0  0  0  0
  1  2  1  0
  3  4  1  0
  1  5  1  0
  4  5  1  0
  2  6  1  0
  3  6  1  0
  6  8  1  0
  7  8  1  0
  8  9  1  0
  9 10  1  0
 10 11  1  0
  5 12  1  0
  1 13  1  0
 13 14  1  0
 13 15  1  0
 15 16  1  0
 16 17  1  0
 17 18  1  0
 18 19  1  0
 16 20  1  0
 19 20  1  0
 20 21  1  0
 21 22  1  0
 15 23  1  0
 22 23  1  0
  1 24  1  6
  2 25  1  0
  2 26  1  0
  3 27  1  0
  3 28  1  0
  4 29  1  0
  4 30  1  0
  5 31  1  6
  7 32  1  0
  8 33  1  0
  9 34  1  0
  9 35  1  0
 10 36  1  0
 10 37  1  0
 11 38  1  0
 11 39  1  0
 12 40  1  0
 12 41  1  0
 12 42  1  0
 14 43  1  0
 14 44  1  0
 14 45  1  0
 15 46  1  6
 16 47  1  0
 17 48  1  0
 17 49  1  0
 18 50  1  0
 18 51  1  0
 19 52  1  0
 20 53  1  0
 21 54  1  0
 22 55  1  0
 22 56  1  0
 23 57  1  0
M  END
>  <PDBID>  (1) 
3LXK

>  <PDB ID>  (1) 
3LXK

>  <Generic Name>  (1) 
Tofacitinib

>  <Brand Name>  (1) 
Xeljanz#Xeljanz XR

>  <DrugBank ID>  (1) 
DB08895

>  <ATC Codes>  (1) 
L04AA29

>  <Ligand ID>  (1) 
MI1

>  <Target Name>  (1) 
Tyrosine-protein kinase JAK2

>  <UniProt ID>  (1) 
O60674

>  <PDB ID.1>  (1) 
3LXK

>  <Seq. Identity>  (1) 
62%

$$$$
