PDB_DB04876_97
     RDKit          3D

 47 50  0  0  0  0  0  0  0  0999 V2000
   57.1700   63.0460   35.5880 O   0  0  0  0  0  0  0  0  0  0  0  0
   56.7870   64.0630   36.1730 C   0  0  0  0  0  0  0  0  0  0  0  0
   57.1580   64.2780   37.4880 N   0  0  0  0  0  0  0  0  0  0  0  0
   57.1170   65.6730   37.9470 C   0  0  0  0  0  0  0  0  0  0  0  0
   58.0270   65.7030   39.1640 C   0  0  0  0  0  0  0  0  0  0  0  0
   59.0990   64.6710   38.8510 C   0  0  0  0  0  0  0  0  0  0  0  0
   58.4260   63.6620   37.9440 C   0  0  1  0  0  0  0  0  0  0  0  0
   58.0630   62.4880   38.8100 C   0  0  0  0  0  0  0  0  0  0  0  0
   56.8540   62.3750   39.1960 N   0  0  0  0  0  0  0  0  0  0  0  0
   55.8330   65.0430   35.4920 C   0  0  0  0  0  0  0  0  0  0  0  0
   55.1020   64.4610   34.3580 N   0  0  0  0  0  0  0  0  0  0  0  0
   53.8000   63.7760   34.4750 C   0  0  1  0  0  0  0  0  0  0  0  0
   53.8400   62.7430   35.6230 C   0  0  0  0  0  0  0  0  0  0  0  0
   52.4890   62.0350   35.7860 C   0  0  1  0  0  0  0  0  0  0  0  0
   51.3650   63.0660   36.0110 C   0  0  0  0  0  0  0  0  0  0  0  0
   51.2980   64.0550   34.8400 C   0  0  1  0  0  0  0  0  0  0  0  0
   52.6610   64.7690   34.7610 C   0  0  0  0  0  0  0  0  0  0  0  0
   51.0340   63.2850   33.5280 C   0  0  0  0  0  0  0  0  0  0  0  0
   52.2290   61.2820   34.4790 C   0  0  0  0  0  0  0  0  0  0  0  0
   52.1690   62.2640   33.3080 C   0  0  1  0  0  0  0  0  0  0  0  0
   51.9400   61.4640   32.1510 O   0  0  0  0  0  0  0  0  0  0  0  0
   53.4910   63.0300   33.1620 C   0  0  0  0  0  0  0  0  0  0  0  0
   57.4915   66.3502   37.1653 H   0  0  0  0  0  0  0  0  0  0  0  0
   56.0950   66.0050   38.1820 H   0  0  0  0  0  0  0  0  0  0  0  0
   58.4716   66.7006   39.2946 H   0  0  0  0  0  0  0  0  0  0  0  0
   57.4897   65.4836   40.0984 H   0  0  0  0  0  0  0  0  0  0  0  0
   59.9505   65.1426   38.3387 H   0  0  0  0  0  0  0  0  0  0  0  0
   59.4975   64.2025   39.7630 H   0  0  0  0  0  0  0  0  0  0  0  0
   59.0636   63.3680   37.0972 H   0  0  0  0  0  0  0  0  0  0  0  0
   55.1011   65.3898   36.2363 H   0  0  0  0  0  0  0  0  0  0  0  0
   56.4457   65.8648   35.0930 H   0  0  0  0  0  0  0  0  0  0  0  0
   54.9503   65.2363   33.6971 H   0  0  0  0  0  0  0  0  0  0  0  0
   54.6131   61.9923   35.4022 H   0  0  0  0  0  0  0  0  0  0  0  0
   54.0677   63.2742   36.5590 H   0  0  0  0  0  0  0  0  0  0  0  0
   52.5083   61.3564   36.6515 H   0  0  0  0  0  0  0  0  0  0  0  0
   50.4029   62.5395   36.0952 H   0  0  0  0  0  0  0  0  0  0  0  0
   51.5751   63.6241   36.9353 H   0  0  0  0  0  0  0  0  0  0  0  0
   50.4869   64.7832   34.9876 H   0  0  0  0  0  0  0  0  0  0  0  0
   52.8573   65.2722   35.7193 H   0  0  0  0  0  0  0  0  0  0  0  0
   52.6225   65.4975   33.9377 H   0  0  0  0  0  0  0  0  0  0  0  0
   50.0714   62.7572   33.5974 H   0  0  0  0  0  0  0  0  0  0  0  0
   50.9992   63.9897   32.6840 H   0  0  0  0  0  0  0  0  0  0  0  0
   53.0414   60.5606   34.3072 H   0  0  0  0  0  0  0  0  0  0  0  0
   51.2675   60.7530   34.5541 H   0  0  0  0  0  0  0  0  0  0  0  0
   51.6784   60.5503   32.4281 H   0  0  0  0  0  0  0  0  0  0  0  0
   53.4056   63.7554   32.3395 H   0  0  0  0  0  0  0  0  0  0  0  0
   54.3033   62.3213   32.9429 H   0  0  0  0  0  0  0  0  0  0  0  0
  1  2  2  0
  2  3  1  0
  3  4  1  0
  4  5  1  0
  5  6  1  0
  3  7  1  0
  6  7  1  0
  7  8  1  0
  8  9  3  0
  2 10  1  0
 10 11  1  0
 12 11  1  1
 12 13  1  0
 13 14  1  0
 14 15  1  0
 15 16  1  0
 12 17  1  0
 16 17  1  0
 16 18  1  0
 14 19  1  0
 18 20  1  0
 19 20  1  0
 20 21  1  6
 12 22  1  0
 20 22  1  0
  4 23  1  0
  4 24  1  0
  5 25  1  0
  5 26  1  0
  6 27  1  0
  6 28  1  0
  7 29  1  6
 10 30  1  0
 10 31  1  0
 11 32  1  0
 13 33  1  0
 13 34  1  0
 14 35  1  1
 15 36  1  0
 15 37  1  0
 16 38  1  1
 17 39  1  0
 17 40  1  0
 18 41  1  0
 18 42  1  0
 19 43  1  0
 19 44  1  0
 21 45  1  0
 22 46  1  0
 22 47  1  0
M  END
$$$$
