PDB_DB00513_97
     RDKit          3D

 22 21  0  0  0  0  0  0  0  0999 V2000
   32.3530   -4.7280  -56.3010 C   0  0  0  0  0  0  0  0  0  0  0  0
   31.4580   -4.6770  -57.2370 O   0  0  0  0  0  0  0  0  0  0  0  0
   32.8180   -5.8450  -55.8830 O   0  0  0  0  0  0  0  0  0  0  0  0
   32.9560   -3.4000  -55.7830 C   0  0  0  0  0  0  0  0  0  0  0  0
   33.7000   -2.4600  -56.6900 C   0  0  0  0  0  0  0  0  0  0  0  0
   35.1410   -2.1000  -56.1320 C   0  0  0  0  0  0  0  0  0  0  0  0
   35.1430   -0.6600  -55.6450 C   0  0  0  0  0  0  0  0  0  0  0  0
   36.3220   -0.2860  -54.8290 C   0  0  0  0  0  0  0  0  0  0  0  0
   37.5610   -0.1880  -55.5760 N   0  0  0  0  0  0  0  0  0  0  0  0
   31.1127   -3.8016  -57.5445 H   0  0  0  0  0  0  0  0  0  0  0  0
   32.1187   -2.8244  -55.3616 H   0  0  0  0  0  0  0  0  0  0  0  0
   33.7515   -3.7524  -55.1099 H   0  0  0  0  0  0  0  0  0  0  0  0
   33.8108   -2.9337  -57.6766 H   0  0  0  0  0  0  0  0  0  0  0  0
   33.1214   -1.5267  -56.7555 H   0  0  0  0  0  0  0  0  0  0  0  0
   35.3904   -2.7711  -55.2969 H   0  0  0  0  0  0  0  0  0  0  0  0
   35.8875   -2.2210  -56.9308 H   0  0  0  0  0  0  0  0  0  0  0  0
   35.1115   -0.0003  -56.5247 H   0  0  0  0  0  0  0  0  0  0  0  0
   34.2647   -0.5508  -54.9918 H   0  0  0  0  0  0  0  0  0  0  0  0
   36.1226    0.6907  -54.3638 H   0  0  0  0  0  0  0  0  0  0  0  0
   36.4623   -1.0911  -54.0927 H   0  0  0  0  0  0  0  0  0  0  0  0
   38.3530   -0.1254  -54.9205 H   0  0  0  0  0  0  0  0  0  0  0  0
   37.6713   -1.0229  -56.1690 H   0  0  0  0  0  0  0  0  0  0  0  0
  1  2  1  0
  1  3  2  0
  1  4  1  0
  4  5  1  0
  5  6  1  0
  6  7  1  0
  7  8  1  0
  8  9  1  0
  2 10  1  0
  4 11  1  0
  4 12  1  0
  5 13  1  0
  5 14  1  0
  6 15  1  0
  6 16  1  0
  7 17  1  0
  7 18  1  0
  8 19  1  0
  8 20  1  0
  9 21  1  0
  9 22  1  0
M  END
$$$$
