PDB_DB01041_94
     RDKit          3D

 29 31  0  0  0  0  0  0  0  0999 V2000
   26.1750   16.4530   -8.6480 O   0  0  0  0  0  0  0  0  0  0  0  0
   25.0720   16.9930   -8.1620 C   0  0  0  0  0  0  0  0  0  0  0  0
   23.9390   16.4200   -8.3530 N   0  0  0  0  0  0  0  0  0  0  0  0
   22.8720   16.7690   -7.7130 C   0  0  0  0  0  0  0  0  0  0  0  0
   21.8090   15.9850   -7.7870 O   0  0  0  0  0  0  0  0  0  0  0  0
   22.8270   18.0630   -6.8660 C   0  0  0  0  0  0  0  0  0  0  0  0
   23.8790   19.0250   -7.3510 C   0  0  0  0  0  0  0  0  0  0  0  0
   25.1750   18.2680   -7.3300 C   0  0  2  0  0  0  0  0  0  0  0  0
   26.2980   19.0630   -7.8540 N   0  0  0  0  0  0  0  0  0  0  0  0
   30.1810   21.3500   -8.6880 C   0  0  0  0  0  0  0  0  0  0  0  0
   29.5250   20.7630   -7.6400 C   0  0  0  0  0  0  0  0  0  0  0  0
   28.2990   20.1710   -7.9110 C   0  0  0  0  0  0  0  0  0  0  0  0
   27.7650   20.1600   -9.1970 C   0  0  0  0  0  0  0  0  0  0  0  0
   27.4780   19.1880   -5.7590 O   0  0  0  0  0  0  0  0  0  0  0  0
   25.6780   19.2660  -10.1860 O   0  0  0  0  0  0  0  0  0  0  0  0
   28.4200   20.7530  -10.2510 C   0  0  0  0  0  0  0  0  0  0  0  0
   29.6410   21.3670   -9.9740 C   0  0  0  0  0  0  0  0  0  0  0  0
   26.5810   19.4830   -9.0850 C   0  0  0  0  0  0  0  0  0  0  0  0
   27.3880   19.4770   -7.1670 C   0  0  0  0  0  0  0  0  0  0  0  0
   23.8784   15.6554   -9.0404 H   0  0  0  0  0  0  0  0  0  0  0  0
   21.8347   18.5280   -6.9615 H   0  0  0  0  0  0  0  0  0  0  0  0
   23.0192   17.8147   -5.8118 H   0  0  0  0  0  0  0  0  0  0  0  0
   23.6486   19.3595   -8.3732 H   0  0  0  0  0  0  0  0  0  0  0  0
   23.9268   19.9223   -6.7166 H   0  0  0  0  0  0  0  0  0  0  0  0
   25.3690   18.0272   -6.2743 H   0  0  0  0  0  0  0  0  0  0  0  0
   31.1595   21.8206   -8.5116 H   0  0  0  0  0  0  0  0  0  0  0  0
   29.9512   20.7604   -6.6259 H   0  0  0  0  0  0  0  0  0  0  0  0
   27.9994   20.7434  -11.2674 H   0  0  0  0  0  0  0  0  0  0  0  0
   30.1875   21.8733  -10.7833 H   0  0  0  0  0  0  0  0  0  0  0  0
  1  2  2  0
  2  3  1  0
  3  4  1  0
  4  5  2  0
  4  6  1  0
  6  7  1  0
  2  8  1  0
  7  8  1  0
  8  9  1  0
 10 11  2  0
 11 12  1  0
 12 13  2  0
 13 16  1  0
 10 17  1  0
 16 17  2  0
  9 18  1  0
 13 18  1  0
 15 18  2  0
  9 19  1  0
 12 19  1  0
 14 19  2  0
  3 20  1  0
  6 21  1  0
  6 22  1  0
  7 23  1  0
  7 24  1  0
  8 25  1  1
 10 26  1  0
 11 27  1  0
 16 28  1  0
 17 29  1  0
M  END
$$$$
