PDB_DB01273_99
     RDKit          3D

 29 32  0  0  0  0  0  0  0  0999 V2000
   46.4010   -4.1070   13.8550 C   0  0  0  0  0  0  0  0  0  0  0  0
   44.9110   -4.2010   13.9650 N   0  0  0  0  0  0  0  0  0  0  0  0
   44.1410   -3.2140   13.0450 C   0  0  0  0  0  0  0  0  0  0  0  0
   44.8150   -1.9330   12.9480 C   0  0  2  0  0  0  0  0  0  0  0  0
   46.2280   -2.1000   12.5880 C   0  0  0  0  0  0  0  0  0  0  0  0
   46.8960   -2.7320   13.7010 C   0  0  1  0  0  0  0  0  0  0  0  0
   46.2420   -1.9610   14.6730 C   0  0  0  0  0  0  0  0  0  0  0  0
   46.6940   -1.6410   15.9850 C   0  0  0  0  0  0  0  0  0  0  0  0
   45.8900   -0.8330   16.8420 C   0  0  0  0  0  0  0  0  0  0  0  0
   46.3530   -0.5080   18.1260 N   0  0  0  0  0  0  0  0  0  0  0  0
   45.5860    0.2470   18.9370 C   0  0  0  0  0  0  0  0  0  0  0  0
   44.3510    0.7350   18.5270 C   0  0  0  0  0  0  0  0  0  0  0  0
   43.9070    0.4430   17.2880 N   0  0  0  0  0  0  0  0  0  0  0  0
   44.6970   -0.3640   16.4370 C   0  0  0  0  0  0  0  0  0  0  0  0
   44.2240   -0.6500   15.1330 C   0  0  0  0  0  0  0  0  0  0  0  0
   45.0140   -1.4680   14.2640 C   0  0  0  0  0  0  0  0  0  0  0  0
   46.8443   -4.5358   14.7659 H   0  0  0  0  0  0  0  0  0  0  0  0
   46.6919   -4.6570   12.9479 H   0  0  0  0  0  0  0  0  0  0  0  0
   44.6287   -5.1602   13.7177 H   0  0  0  0  0  0  0  0  0  0  0  0
   44.0621   -3.6522   12.0391 H   0  0  0  0  0  0  0  0  0  0  0  0
   43.1453   -3.0451   13.4810 H   0  0  0  0  0  0  0  0  0  0  0  0
   44.2256   -1.3181   12.2519 H   0  0  0  0  0  0  0  0  0  0  0  0
   46.3135   -2.7326   11.6922 H   0  0  0  0  0  0  0  0  0  0  0  0
   46.6863   -1.1243   12.3690 H   0  0  0  0  0  0  0  0  0  0  0  0
   47.9948   -2.7770   13.6776 H   0  0  0  0  0  0  0  0  0  0  0  0
   47.6653   -2.0178   16.3381 H   0  0  0  0  0  0  0  0  0  0  0  0
   45.9465    0.4830   19.9491 H   0  0  0  0  0  0  0  0  0  0  0  0
   43.7432    1.3520   19.2052 H   0  0  0  0  0  0  0  0  0  0  0  0
   43.2590   -0.2474   14.7915 H   0  0  0  0  0  0  0  0  0  0  0  0
  1  2  1  0
  2  3  1  0
  3  4  1  0
  4  5  1  0
  1  6  1  0
  5  6  1  0
  6  7  1  0
  7  8  1  0
  8  9  2  0
  9 10  1  0
 10 11  2  0
 11 12  1  0
 12 13  2  0
  9 14  1  0
 13 14  1  0
 14 15  2  0
  4 16  1  0
  7 16  2  0
 15 16  1  0
  1 17  1  0
  1 18  1  0
  2 19  1  0
  3 20  1  0
  3 21  1  0
  4 22  1  6
  5 23  1  0
  5 24  1  0
  6 25  1  6
  8 26  1  0
 11 27  1  0
 12 28  1  0
 15 29  1  0
M  END
$$$$
