PDB_DB01201_99
     RDKit          3D

302312  0  0  0  0  0  0  0  0999 V2000
  -38.4320  179.4510   -1.2260 C   0  0  0  0  0  0  0  0  0  0  0  0
  -37.0720  179.0370   -1.7030 C   0  0  0  0  0  0  0  0  0  0  0  0
  -35.9420  179.9650   -1.6780 C   0  0  1  0  0  0  0  0  0  0  0  0
  -36.1030  181.3110   -1.0780 C   0  0  0  0  0  0  0  0  0  0  0  0
  -37.6830  183.2420   -0.2350 C   0  0  0  0  0  0  0  0  0  0  0  0
  -39.0550  183.6400    0.1120 C   0  0  0  0  0  0  0  0  0  0  0  0
  -40.2020  182.8070    0.1970 C   0  0  0  0  0  0  0  0  0  0  0  0
  -40.0260  181.3500   -0.2040 C   0  0  0  0  0  0  0  0  0  0  0  0
  -38.6150  180.8530   -0.6940 C   0  0  0  0  0  0  0  0  0  0  0  0
  -37.3990  181.8020   -0.6610 C   0  0  1  0  0  0  0  0  0  0  0  0
  -36.8910  184.4050   -0.1210 C   0  0  1  0  0  0  0  0  0  0  0  0
  -37.8100  185.5760    0.1060 C   0  0  2  0  0  0  0  0  0  0  0  0
  -37.4110  186.4570    1.2590 C   0  0  0  0  0  0  0  0  0  0  0  0
  -41.5450  183.2940    0.6480 C   0  0  0  0  0  0  0  0  0  0  0  0
  -37.2160  176.4960   -1.9950 C   0  0  0  0  0  0  0  0  0  0  0  0
  -36.3310  175.4710   -2.6610 C   0  0  0  0  0  0  0  0  0  0  0  0
  -36.2590  175.2090   -4.0110 C   0  0  0  0  0  0  0  0  0  0  0  0
  -36.9220  175.8440   -5.1610 C   0  0  0  0  0  0  0  0  0  0  0  0
  -36.2670  176.1840   -6.2760 C   0  0  0  0  0  0  0  0  0  0  0  0
  -36.8100  176.8450   -7.5170 C   0  0  1  0  0  0  0  0  0  0  0  0
  -37.3050  178.3370   -7.2350 C   0  0  1  0  0  0  0  0  0  0  0  0
  -37.3850  179.3920   -8.3830 C   0  0  2  0  0  0  0  0  0  0  0  0
  -37.8690  180.8040   -7.9570 C   0  0  2  0  0  0  0  0  0  0  0  0
  -37.1350  181.6020   -6.8030 C   0  0  2  0  0  0  0  0  0  0  0  0
  -37.9030  183.0020   -6.5000 C   0  0  1  0  0  0  0  0  0  0  0  0
  -37.9200  183.5290   -5.0090 C   0  0  1  0  0  0  0  0  0  0  0  0
  -38.7690  184.8660   -4.8140 C   0  0  2  0  0  0  0  0  0  0  0  0
  -38.8600  185.4700   -3.3500 C   0  0  0  0  0  0  0  0  0  0  0  0
  -37.7980  185.9310   -2.6160 C   0  0  0  0  0  0  0  0  0  0  0  0
  -35.4850  174.7380   -1.6840 C   0  0  0  0  0  0  0  0  0  0  0  0
  -35.6450  176.7050   -8.5410 C   0  0  0  0  0  0  0  0  0  0  0  0
  -38.3030  178.9190   -9.5670 C   0  0  0  0  0  0  0  0  0  0  0  0
  -35.6160  181.8100   -7.0760 C   0  0  0  0  0  0  0  0  0  0  0  0
  -38.4010  182.3940   -4.1410 C   0  0  0  0  0  0  0  0  0  0  0  0
  -38.1060  184.5370   -8.4900 C   0  0  0  0  0  0  0  0  0  0  0  0
  -37.3710  185.5530   -9.2130 C   0  0  0  0  0  0  0  0  0  0  0  0
  -41.3490  184.3880   -4.6480 C   0  0  0  0  0  0  0  0  0  0  0  0
  -29.0740  176.9780   -4.9090 C   0  0  2  0  0  0  0  0  0  0  0  0
  -30.5120  178.7030   -3.6090 C   0  0  0  0  0  0  0  0  0  0  0  0
  -31.7330  178.8190   -2.6870 C   0  0  0  0  0  0  0  0  0  0  0  0
  -32.9200  176.9200   -3.9040 C   0  0  0  0  0  0  0  0  0  0  0  0
  -31.6580  176.7240   -4.8020 C   0  0  0  0  0  0  0  0  0  0  0  0
  -34.6070  179.6760   -2.3240 C   0  0  0  0  0  0  0  0  0  0  0  0
  -28.7290  175.4680   -5.0810 C   0  0  0  0  0  0  0  0  0  0  0  0
  -27.7520  177.5890   -4.2680 C   0  0  0  0  0  0  0  0  0  0  0  0
  -27.2120  175.4460   -5.0990 C   0  0  0  0  0  0  0  0  0  0  0  0
  -26.8770  176.3660   -3.9470 C   0  0  0  0  0  0  0  0  0  0  0  0
  -36.7750  177.7370   -2.2450 N   0  0  0  0  0  0  0  0  0  0  0  0
  -34.2590  178.5080   -2.8280 N   0  0  0  0  0  0  0  0  0  0  0  0
  -32.9790  178.3520   -3.4320 N   0  0  0  0  0  0  0  0  0  0  0  0
  -30.3590  177.2170   -4.0760 N   0  0  0  0  0  0  0  0  0  0  0  0
  -39.4490  178.6110   -1.2990 O   0  0  0  0  0  0  0  0  0  0  0  0
  -41.0170  180.5270   -0.1530 O   0  0  0  0  0  0  0  0  0  0  0  0
  -39.1370  184.9760    0.3430 O   0  0  0  0  0  0  0  0  0  0  0  0
  -35.6420  184.6180   -0.2360 O   0  0  0  0  0  0  0  0  0  0  0  0
  -37.8890  186.4860   -1.1740 O   0  0  0  0  0  0  0  0  0  0  0  0
  -40.1720  184.6450   -5.5170 O   0  0  0  0  0  0  0  0  0  0  0  0
  -37.3780  184.0460   -7.4140 O   0  0  0  0  0  0  0  0  0  0  0  0
  -39.2090  184.1620   -8.7670 O   0  0  0  0  0  0  0  0  0  0  0  0
  -39.2640  180.7400   -7.5560 O   0  0  0  0  0  0  0  0  0  0  0  0
  -38.5870  178.1960   -6.5740 O   0  0  0  0  0  0  0  0  0  0  0  0
  -38.1650  176.1640   -1.3220 O   0  0  0  0  0  0  0  0  0  0  0  0
  -34.9430  182.0680   -1.0000 O   0  0  0  0  0  0  0  0  0  0  0  0
  135.9050  122.6650   40.6800 C   0  0  0  0  0  0  0  0  0  0  0  0
  136.3220  121.2620   40.2790 C   0  0  0  0  0  0  0  0  0  0  0  0
  137.7460  120.8610   40.3140 C   0  0  1  0  0  0  0  0  0  0  0  0
  138.7480  121.7700   40.8740 C   0  0  0  0  0  0  0  0  0  0  0  0
  139.4370  124.1200   41.8360 C   0  0  0  0  0  0  0  0  0  0  0  0
  139.0210  125.4880   42.1530 C   0  0  0  0  0  0  0  0  0  0  0  0
  137.6940  126.0070   42.1450 C   0  0  0  0  0  0  0  0  0  0  0  0
  136.5880  125.0540   41.7020 C   0  0  0  0  0  0  0  0  0  0  0  0
  136.9600  123.5960   41.2360 C   0  0  0  0  0  0  0  0  0  0  0  0
  138.4130  123.1080   41.3190 C   0  0  0  0  0  0  0  0  0  0  0  0
  140.8150  124.0550   42.0770 C   0  0  1  0  0  0  0  0  0  0  0  0
  141.3210  125.4440   42.3840 C   0  0  2  0  0  0  0  0  0  0  0  0
  142.1120  125.5340   43.6680 C   0  0  0  0  0  0  0  0  0  0  0  0
  137.3390  127.4160   42.5370 C   0  0  0  0  0  0  0  0  0  0  0  0
  134.0880  120.0200   40.0560 C   0  0  0  0  0  0  0  0  0  0  0  0
  133.6100  118.7330   39.3970 C   0  0  0  0  0  0  0  0  0  0  0  0
  133.3900  118.5470   38.0410 C   0  0  0  0  0  0  0  0  0  0  0  0
  133.5510  119.4630   36.8910 C   0  0  0  0  0  0  0  0  0  0  0  0
  134.4580  119.2610   35.9390 C   0  0  0  0  0  0  0  0  0  0  0  0
  134.7420  120.0970   34.7220 C   0  0  1  0  0  0  0  0  0  0  0  0
  135.7650  121.2750   35.0230 C   0  0  1  0  0  0  0  0  0  0  0  0
  136.7330  121.8420   33.9010 C   0  0  2  0  0  0  0  0  0  0  0  0
  137.6980  122.9770   34.3550 C   0  0  2  0  0  0  0  0  0  0  0  0
  138.7500  122.7570   35.5070 C   0  0  2  0  0  0  0  0  0  0  0  0
  139.5850  124.1240   35.7600 C   0  0  1  0  0  0  0  0  0  0  0  0
  139.9110  124.5040   37.2480 C   0  0  1  0  0  0  0  0  0  0  0  0
  140.7920  125.8190   37.4230 C   0  0  2  0  0  0  0  0  0  0  0  0
  141.1270  126.2010   38.9290 C   0  0  0  0  0  0  0  0  0  0  0  0
  142.0060  125.5620   39.7460 C   0  0  0  0  0  0  0  0  0  0  0  0
  133.3950  117.6310   40.3810 C   0  0  0  0  0  0  0  0  0  0  0  0
  135.2110  119.0380   33.6680 C   0  0  0  0  0  0  0  0  0  0  0  0
  135.9510  122.3790   32.6420 C   0  0  0  0  0  0  0  0  0  0  0  0
  139.7020  121.5540   35.2310 C   0  0  0  0  0  0  0  0  0  0  0  0
  138.5700  124.6590   37.9430 C   0  0  0  0  0  0  0  0  0  0  0  0
  140.9310  124.9090   33.8050 C   0  0  0  0  0  0  0  0  0  0  0  0
  142.2480  124.7610   33.1840 C   0  0  0  0  0  0  0  0  0  0  0  0
  140.2560  128.3220   37.1300 C   0  0  0  0  0  0  0  0  0  0  0  0
  139.1030  113.5300   36.8880 C   0  0  2  0  0  0  0  0  0  0  0  0
  139.7310  115.5620   38.5380 C   0  0  0  0  0  0  0  0  0  0  0  0
  139.0970  116.6230   39.4470 C   0  0  0  0  0  0  0  0  0  0  0  0
  137.0110  116.7730   37.9600 C   0  0  0  0  0  0  0  0  0  0  0  0
  137.5800  115.7190   37.0080 C   0  0  0  0  0  0  0  0  0  0  0  0
  138.2950  119.5850   39.7260 C   0  0  0  0  0  0  0  0  0  0  0  0
  140.4730  112.9320   37.2360 C   0  0  0  0  0  0  0  0  0  0  0  0
  139.1940  113.7330   35.3490 C   0  0  0  0  0  0  0  0  0  0  0  0
  140.6360  111.9300   36.1300 C   0  0  0  0  0  0  0  0  0  0  0  0
  140.3150  112.7560   34.8890 C   0  0  0  0  0  0  0  0  0  0  0  0
  135.3970  120.2600   39.8070 N   0  0  0  0  0  0  0  0  0  0  0  0
  137.5660  118.6850   39.1700 N   0  0  0  0  0  0  0  0  0  0  0  0
  138.1590  117.5060   38.6080 N   0  0  0  0  0  0  0  0  0  0  0  0
  138.5890  114.7550   37.7730 N   0  0  0  0  0  0  0  0  0  0  0  0
  134.6500  123.0800   40.5130 O   0  0  0  0  0  0  0  0  0  0  0  0
  135.3680  125.4300   41.7030 O   0  0  0  0  0  0  0  0  0  0  0  0
  140.1000  126.2750   42.4660 O   0  0  0  0  0  0  0  0  0  0  0  0
  141.6420  123.1020   42.0270 O   0  0  0  0  0  0  0  0  0  0  0  0
  142.2440  125.9710   41.2160 O   0  0  0  0  0  0  0  0  0  0  0  0
  140.0080  126.9330   36.6770 O   0  0  0  0  0  0  0  0  0  0  0  0
  140.8080  124.1210   34.9440 O   0  0  0  0  0  0  0  0  0  0  0  0
  140.0560  125.6110   33.3950 O   0  0  0  0  0  0  0  0  0  0  0  0
  136.9370  124.1480   34.7330 O   0  0  0  0  0  0  0  0  0  0  0  0
  134.9610  122.3210   35.5840 O   0  0  0  0  0  0  0  0  0  0  0  0
  133.3400  120.6910   40.7110 O   0  0  0  0  0  0  0  0  0  0  0  0
  140.0480  121.2630   40.9060 O   0  0  0  0  0  0  0  0  0  0  0  0
  -38.1840  179.0992   -0.2137 H   0  0  0  0  0  0  0  0  0  0  0  0
  -37.3259  179.3735   -2.7190 H   0  0  0  0  0  0  0  0  0  0  0  0
  -36.2483  180.3644   -2.6561 H   0  0  0  0  0  0  0  0  0  0  0  0
  -36.2633  181.7380   -2.0790 H   0  0  0  0  0  0  0  0  0  0  0  0
  -37.4971  182.9683    0.8141 H   0  0  0  0  0  0  0  0  0  0  0  0
  -39.2695  183.8269   -0.9506 H   0  0  0  0  0  0  0  0  0  0  0  0
  -40.4634  183.0611   -0.8408 H   0  0  0  0  0  0  0  0  0  0  0  0
  -40.2968  181.6024   -1.2398 H   0  0  0  0  0  0  0  0  0  0  0  0
  -38.8424  181.2087   -1.7097 H   0  0  0  0  0  0  0  0  0  0  0  0
  -37.1629  181.5403    0.3810 H   0  0  0  0  0  0  0  0  0  0  0  0
  -36.9620  184.5599   -1.2077 H   0  0  0  0  0  0  0  0  0  0  0  0
  -37.6416  185.9478    2.2064 H   0  0  0  0  0  0  0  0  0  0  0  0
  -36.3317  186.6630    1.2067 H   0  0  0  0  0  0  0  0  0  0  0  0
  -37.9680  187.4041    1.2067 H   0  0  0  0  0  0  0  0  0  0  0  0
  -41.5802  183.3068    1.7474 H   0  0  0  0  0  0  0  0  0  0  0  0
  -41.7143  184.3108    0.2639 H   0  0  0  0  0  0  0  0  0  0  0  0
  -42.3266  182.6221    0.2639 H   0  0  0  0  0  0  0  0  0  0  0  0
  -36.5866  176.4539   -1.0938 H   0  0  0  0  0  0  0  0  0  0  0  0
  -37.1256  174.7175   -2.5571 H   0  0  0  0  0  0  0  0  0  0  0  0
  -35.1875  175.3070   -4.2398 H   0  0  0  0  0  0  0  0  0  0  0  0
  -36.8667  174.2922   -3.9992 H   0  0  0  0  0  0  0  0  0  0  0  0
  -37.7172  175.1516   -5.4743 H   0  0  0  0  0  0  0  0  0  0  0  0
  -37.1875  176.8289   -4.7493 H   0  0  0  0  0  0  0  0  0  0  0  0
  -35.4671  176.8564   -5.9323 H   0  0  0  0  0  0  0  0  0  0  0  0
  -36.1111  175.1751   -6.6856 H   0  0  0  0  0  0  0  0  0  0  0  0
  -37.7259  176.3795   -7.9098 H   0  0  0  0  0  0  0  0  0  0  0  0
  -36.4970  178.7962   -6.6466 H   0  0  0  0  0  0  0  0  0  0  0  0
  -36.3354  179.4755   -8.7012 H   0  0  0  0  0  0  0  0  0  0  0  0
  -37.6373  181.3678   -8.8727 H   0  0  0  0  0  0  0  0  0  0  0  0
  -37.1847  180.9815   -5.8961 H   0  0  0  0  0  0  0  0  0  0  0  0
  -38.9635  182.7737   -6.6824 H   0  0  0  0  0  0  0  0  0  0  0  0
  -36.9040  183.8291   -4.7130 H   0  0  0  0  0  0  0  0  0  0  0  0
  -38.2096  185.6787   -5.3005 H   0  0  0  0  0  0  0  0  0  0  0  0
  -39.5522  186.3213   -3.4281 H   0  0  0  0  0  0  0  0  0  0  0  0
  -39.1120  184.5634   -2.7803 H   0  0  0  0  0  0  0  0  0  0  0  0
  -37.0915  185.0896   -2.5622 H   0  0  0  0  0  0  0  0  0  0  0  0
  -37.5607  186.8523   -3.1682 H   0  0  0  0  0  0  0  0  0  0  0  0
  -35.7916  175.0037   -0.6616 H   0  0  0  0  0  0  0  0  0  0  0  0
  -35.6066  173.6550   -1.8336 H   0  0  0  0  0  0  0  0  0  0  0  0
  -34.4304  175.0126   -1.8336 H   0  0  0  0  0  0  0  0  0  0  0  0
  -34.6937  176.5907   -8.0007 H   0  0  0  0  0  0  0  0  0  0  0  0
  -35.8164  175.8210   -9.1728 H   0  0  0  0  0  0  0  0  0  0  0  0
  -35.6021  177.6044   -9.1728 H   0  0  0  0  0  0  0  0  0  0  0  0
  -39.2120  178.4506   -9.1616 H   0  0  0  0  0  0  0  0  0  0  0  0
  -38.5812  179.7860  -10.1842 H   0  0  0  0  0  0  0  0  0  0  0  0
  -37.7585  178.1892  -10.1842 H   0  0  0  0  0  0  0  0  0  0  0  0
  -35.0782  181.8836   -6.1192 H   0  0  0  0  0  0  0  0  0  0  0  0
  -35.2266  180.9568   -7.6508 H   0  0  0  0  0  0  0  0  0  0  0  0
  -35.4703  182.7365   -7.6508 H   0  0  0  0  0  0  0  0  0  0  0  0
  -38.2850  182.6677   -3.0819 H   0  0  0  0  0  0  0  0  0  0  0  0
  -39.4614  182.1935   -4.3539 H   0  0  0  0  0  0  0  0  0  0  0  0
  -37.8075  181.4926   -4.3539 H   0  0  0  0  0  0  0  0  0  0  0  0
  -37.6714  183.7615   -9.1379 H   0  0  0  0  0  0  0  0  0  0  0  0
  -36.8812  186.2301   -8.4977 H   0  0  0  0  0  0  0  0  0  0  0  0
  -36.6089  185.0741   -9.8454 H   0  0  0  0  0  0  0  0  0  0  0  0
  -38.0643  186.1269   -9.8454 H   0  0  0  0  0  0  0  0  0  0  0  0
  -41.0468  184.4540   -3.5924 H   0  0  0  0  0  0  0  0  0  0  0  0
  -42.1275  185.1373   -4.8540 H   0  0  0  0  0  0  0  0  0  0  0  0
  -41.7443  183.3824   -4.8540 H   0  0  0  0  0  0  0  0  0  0  0  0
  -29.3293  177.4709   -5.8587 H   0  0  0  0  0  0  0  0  0  0  0  0
  -30.6505  179.3519   -4.4863 H   0  0  0  0  0  0  0  0  0  0  0  0
  -29.6077  179.0146   -3.0657 H   0  0  0  0  0  0  0  0  0  0  0  0
  -31.5812  178.1910   -1.7968 H   0  0  0  0  0  0  0  0  0  0  0  0
  -31.8614  179.8671   -2.3789 H   0  0  0  0  0  0  0  0  0  0  0  0
  -33.8243  176.6872   -4.4854 H   0  0  0  0  0  0  0  0  0  0  0  0
  -32.8619  176.2479   -3.0352 H   0  0  0  0  0  0  0  0  0  0  0  0
  -31.5511  175.6557   -5.0412 H   0  0  0  0  0  0  0  0  0  0  0  0
  -31.7893  177.3174   -5.7189 H   0  0  0  0  0  0  0  0  0  0  0  0
  -34.5175  180.3942   -3.1524 H   0  0  0  0  0  0  0  0  0  0  0  0
  -33.9418  179.7272   -1.4494 H   0  0  0  0  0  0  0  0  0  0  0  0
  -29.1200  174.8778   -4.2391 H   0  0  0  0  0  0  0  0  0  0  0  0
  -29.1727  175.0297   -5.9871 H   0  0  0  0  0  0  0  0  0  0  0  0
  -27.2444  178.2529   -4.9832 H   0  0  0  0  0  0  0  0  0  0  0  0
  -27.9629  178.1973   -3.3761 H   0  0  0  0  0  0  0  0  0  0  0  0
  -26.8239  174.4312   -4.9273 H   0  0  0  0  0  0  0  0  0  0  0  0
  -26.7728  175.7552   -6.0590 H   0  0  0  0  0  0  0  0  0  0  0  0
  -25.8085  176.6272   -3.9388 H   0  0  0  0  0  0  0  0  0  0  0  0
  -27.0631  175.9290   -2.9549 H   0  0  0  0  0  0  0  0  0  0  0  0
  -36.9726  177.8546   -3.2490 H   0  0  0  0  0  0  0  0  0  0  0  0
  -34.3119  177.8238   -2.0599 H   0  0  0  0  0  0  0  0  0  0  0  0
  -39.7428  178.3683   -0.3853 H   0  0  0  0  0  0  0  0  0  0  0  0
  -41.2423  180.3399    0.7927 H   0  0  0  0  0  0  0  0  0  0  0  0
  -35.2349  184.6874    0.6637 H   0  0  0  0  0  0  0  0  0  0  0  0
  -39.7174  183.9892   -7.9353 H   0  0  0  0  0  0  0  0  0  0  0  0
  -39.3235  180.7373   -6.5678 H   0  0  0  0  0  0  0  0  0  0  0  0
  -38.4558  178.2104   -5.5928 H   0  0  0  0  0  0  0  0  0  0  0  0
  -37.9338  176.2449   -0.3628 H   0  0  0  0  0  0  0  0  0  0  0  0
  -34.7110  182.2194   -0.0495 H   0  0  0  0  0  0  0  0  0  0  0  0
  135.6836  122.3086   41.6968 H   0  0  0  0  0  0  0  0  0  0  0  0
  136.4414  121.5952   39.2375 H   0  0  0  0  0  0  0  0  0  0  0  0
  137.8962  121.3077   39.3201 H   0  0  0  0  0  0  0  0  0  0  0  0
  138.9591  122.1579   39.8666 H   0  0  0  0  0  0  0  0  0  0  0  0
  139.2178  123.8138   42.8695 H   0  0  0  0  0  0  0  0  0  0  0  0
  139.1370  125.7683   41.0957 H   0  0  0  0  0  0  0  0  0  0  0  0
  137.8285  126.3349   41.1037 H   0  0  0  0  0  0  0  0  0  0  0  0
  136.6942  125.4118   40.6673 H   0  0  0  0  0  0  0  0  0  0  0  0
  137.1627  123.9717   40.2222 H   0  0  0  0  0  0  0  0  0  0  0  0
  138.2685  122.7314   42.3424 H   0  0  0  0  0  0  0  0  0  0  0  0
  141.0099  124.2205   41.0071 H   0  0  0  0  0  0  0  0  0  0  0  0
  141.4282  125.4562   44.5261 H   0  0  0  0  0  0  0  0  0  0  0  0
  142.8434  124.7133   43.7064 H   0  0  0  0  0  0  0  0  0  0  0  0
  142.6403  126.4981   43.7064 H   0  0  0  0  0  0  0  0  0  0  0  0
  137.3185  127.4973   43.6338 H   0  0  0  0  0  0  0  0  0  0  0  0
  138.0904  128.1097   42.1319 H   0  0  0  0  0  0  0  0  0  0  0  0
  136.3486  127.6708   42.1319 H   0  0  0  0  0  0  0  0  0  0  0  0
  134.3633  119.4554   40.9590 H   0  0  0  0  0  0  0  0  0  0  0  0
  132.5662  119.0567   39.5220 H   0  0  0  0  0  0  0  0  0  0  0  0
  134.0331  117.6916   37.7864 H   0  0  0  0  0  0  0  0  0  0  0  0
  132.2912  118.5781   38.0808 H   0  0  0  0  0  0  0  0  0  0  0  0
  132.5756  119.4904   36.3831 H   0  0  0  0  0  0  0  0  0  0  0  0
  133.9333  120.3722   37.3781 H   0  0  0  0  0  0  0  0  0  0  0  0
  135.4171  119.2216   36.4761 H   0  0  0  0  0  0  0  0  0  0  0  0
  133.9769  118.4079   35.4382 H   0  0  0  0  0  0  0  0  0  0  0  0
  133.8751  120.6611   34.3476 H   0  0  0  0  0  0  0  0  0  0  0  0
  136.5314  120.8295   35.6743 H   0  0  0  0  0  0  0  0  0  0  0  0
  137.3376  120.9573   33.6525 H   0  0  0  0  0  0  0  0  0  0  0  0
  138.3161  123.0534   33.4483 H   0  0  0  0  0  0  0  0  0  0  0  0
  138.1938  122.5009   36.4208 H   0  0  0  0  0  0  0  0  0  0  0  0
  138.8927  124.9197   35.4475 H   0  0  0  0  0  0  0  0  0  0  0  0
  140.5330  123.7105   37.6878 H   0  0  0  0  0  0  0  0  0  0  0  0
  141.7953  125.6629   36.9999 H   0  0  0  0  0  0  0  0  0  0  0  0
  141.4780  127.2427   38.8891 H   0  0  0  0  0  0  0  0  0  0  0  0
  140.1822  125.9048   39.4082 H   0  0  0  0  0  0  0  0  0  0  0  0
  141.6838  124.5106   39.7732 H   0  0  0  0  0  0  0  0  0  0  0  0
  142.9678  125.8326   39.2858 H   0  0  0  0  0  0  0  0  0  0  0  0
  133.4731  118.0312   41.4026 H   0  0  0  0  0  0  0  0  0  0  0  0
  132.3952  117.1969   40.2327 H   0  0  0  0  0  0  0  0  0  0  0  0
  134.1583  116.8529   40.2327 H   0  0  0  0  0  0  0  0  0  0  0  0
  135.6035  118.1518   34.1882 H   0  0  0  0  0  0  0  0  0  0  0  0
  134.3583  118.7455   33.0377 H   0  0  0  0  0  0  0  0  0  0  0  0
  136.0007  119.4728   33.0377 H   0  0  0  0  0  0  0  0  0  0  0  0
  135.0863  122.9728   32.9733 H   0  0  0  0  0  0  0  0  0  0  0  0
  136.6189  123.0099   32.0371 H   0  0  0  0  0  0  0  0  0  0  0  0
  135.6021  121.5291   32.0371 H   0  0  0  0  0  0  0  0  0  0  0  0
  140.0399  121.1270   36.1868 H   0  0  0  0  0  0  0  0  0  0  0  0
  139.1647  120.7857   34.6557 H   0  0  0  0  0  0  0  0  0  0  0  0
  140.5733  121.9004   34.6557 H   0  0  0  0  0  0  0  0  0  0  0  0
  138.7177  124.6419   39.0329 H   0  0  0  0  0  0  0  0  0  0  0  0
  138.1135  125.6159   37.6498 H   0  0  0  0  0  0  0  0  0  0  0  0
  137.9072  123.8315   37.6498 H   0  0  0  0  0  0  0  0  0  0  0  0
  140.5482  124.0807   33.1906 H   0  0  0  0  0  0  0  0  0  0  0  0
  143.0152  124.6748   33.9675 H   0  0  0  0  0  0  0  0  0  0  0  0
  142.2590  123.8560   32.5589 H   0  0  0  0  0  0  0  0  0  0  0  0
  142.4596  125.6410   32.5589 H   0  0  0  0  0  0  0  0  0  0  0  0
  140.2616  128.3536   38.2295 H   0  0  0  0  0  0  0  0  0  0  0  0
  141.2294  128.6639   36.7484 H   0  0  0  0  0  0  0  0  0  0  0  0
  139.4611  128.9796   36.7484 H   0  0  0  0  0  0  0  0  0  0  0  0
  138.2745  112.8606   37.1626 H   0  0  0  0  0  0  0  0  0  0  0  0
  140.3852  116.0542   37.8033 H   0  0  0  0  0  0  0  0  0  0  0  0
  140.3210  114.8643   39.1505 H   0  0  0  0  0  0  0  0  0  0  0  0
  138.5229  116.1294   40.2450 H   0  0  0  0  0  0  0  0  0  0  0  0
  139.8848  117.2432   39.8994 H   0  0  0  0  0  0  0  0  0  0  0  0
  136.3883  117.4836   37.3967 H   0  0  0  0  0  0  0  0  0  0  0  0
  136.3918  116.2891   38.7297 H   0  0  0  0  0  0  0  0  0  0  0  0
  136.7536  115.1220   36.5949 H   0  0  0  0  0  0  0  0  0  0  0  0
  138.1237  116.2298   36.1996 H   0  0  0  0  0  0  0  0  0  0  0  0
  139.0222  119.8960   38.9615 H   0  0  0  0  0  0  0  0  0  0  0  0
  138.6272  119.0588   40.6331 H   0  0  0  0  0  0  0  0  0  0  0  0
  141.2652  113.6947   37.2104 H   0  0  0  0  0  0  0  0  0  0  0  0
  140.5385  112.5058   38.2480 H   0  0  0  0  0  0  0  0  0  0  0  0
  138.2378  113.4813   34.8670 H   0  0  0  0  0  0  0  0  0  0  0  0
  139.4134  114.7764   35.0784 H   0  0  0  0  0  0  0  0  0  0  0  0
  141.6643  111.5410   36.0940 H   0  0  0  0  0  0  0  0  0  0  0  0
  139.9969  111.0420   36.2440 H   0  0  0  0  0  0  0  0  0  0  0  0
  139.9570  112.1098   34.0740 H   0  0  0  0  0  0  0  0  0  0  0  0
  141.1971  113.2856   34.4999 H   0  0  0  0  0  0  0  0  0  0  0  0
  135.4265  120.3736   38.7837 H   0  0  0  0  0  0  0  0  0  0  0  0
  136.8969  118.3655   39.8849 H   0  0  0  0  0  0  0  0  0  0  0  0
  134.2281  123.2195   41.3977 H   0  0  0  0  0  0  0  0  0  0  0  0
  135.0533  125.5270   42.6366 H   0  0  0  0  0  0  0  0  0  0  0  0
  141.8823  122.8250   42.9466 H   0  0  0  0  0  0  0  0  0  0  0  0
  139.5643  126.0055   34.1584 H   0  0  0  0  0  0  0  0  0  0  0  0
  136.8963  124.2106   35.7202 H   0  0  0  0  0  0  0  0  0  0  0  0
  134.9985  122.2722   36.5721 H   0  0  0  0  0  0  0  0  0  0  0  0
  133.5136  120.5353   41.6731 H   0  0  0  0  0  0  0  0  0  0  0  0
  140.3354  121.1509   41.8467 H   0  0  0  0  0  0  0  0  0  0  0  0
  1  2  1  0
  2  3  1  0
  3  4  1  0
  5  6  1  0
  6  7  1  0
  7  8  1  0
  1  9  1  0
  8  9  1  0
  4 10  1  0
  5 10  1  0
  9 10  1  0
  5 11  1  0
 11 12  1  0
 12 13  1  1
  7 14  1  0
 15 16  1  0
 16 17  1  0
 17 18  1  0
 18 19  1  0
 19 20  1  0
 20 21  1  0
 21 22  1  0
 22 23  1  0
 23 24  1  0
 24 25  1  0
 25 26  1  0
 26 27  1  0
 27 28  1  0
 28 29  1  0
 16 30  1  0
 20 31  1  0
 22 32  1  0
 24 33  1  0
 26 34  1  0
 35 36  1  0
 39 40  1  0
 41 42  1  0
  3 43  1  0
 38 44  1  0
 38 45  1  0
 44 46  1  0
 45 47  1  0
 46 47  1  0
  2 48  1  0
 15 48  1  0
 43 49  1  0
 40 50  1  0
 41 50  1  0
 49 50  1  0
 38 51  1  0
 39 51  1  0
 42 51  1  0
  1 52  1  0
  8 53  1  0
  6 54  1  0
 12 54  1  0
 11 55  1  0
 12 56  1  0
 29 56  1  0
 27 57  1  0
 37 57  1  0
 25 58  1  0
 35 58  1  0
 35 59  1  0
 23 60  1  0
 21 61  1  0
 15 62  1  0
  4 63  1  0
 64 65  1  0
 65 66  1  0
 66 67  1  0
 68 69  1  0
 69 70  1  0
 70 71  1  0
 64 72  1  0
 71 72  1  0
 67 73  1  0
 68 73  1  0
 72 73  1  0
 68 74  1  0
 74 75  1  0
 75 76  1  1
 70 77  1  0
 78 79  1  0
 79 80  1  0
 80 81  1  0
 81 82  1  0
 82 83  1  0
 83 84  1  0
 84 85  1  0
 85 86  1  0
 86 87  1  0
 87 88  1  0
 88 89  1  0
 89 90  1  0
 90 91  1  0
 91 92  1  0
 79 93  1  0
 83 94  1  0
 85 95  1  0
 87 96  1  0
 89 97  1  0
 98 99  1  0
102103  1  0
104105  1  0
 66106  1  0
101107  1  0
101108  1  0
107109  1  0
108110  1  0
109110  1  0
 65111  1  0
 78111  1  0
106112  1  0
103113  1  0
104113  1  0
112113  1  0
101114  1  0
102114  1  0
105114  1  0
 64115  1  0
 71116  1  0
 69117  1  0
 75117  1  0
 74118  1  0
 75119  1  0
 92119  1  0
 90120  1  0
100120  1  0
 88121  1  0
 98121  1  0
 98122  1  0
 86123  1  0
 84124  1  0
 78125  1  0
 67126  1  0
  1127  1  0
  2128  1  0
  3129  1  1
  4130  1  0
  5131  1  0
  6132  1  0
  7133  1  0
  8134  1  0
  9135  1  0
 10136  1  1
 11137  1  1
 13138  1  0
 13139  1  0
 13140  1  0
 14141  1  0
 14142  1  0
 14143  1  0
 15144  1  0
 16145  1  0
 17146  1  0
 17147  1  0
 18148  1  0
 18149  1  0
 19150  1  0
 19151  1  0
 20152  1  6
 21153  1  1
 22154  1  6
 23155  1  6
 24156  1  1
 25157  1  6
 26158  1  1
 27159  1  6
 28160  1  0
 28161  1  0
 29162  1  0
 29163  1  0
 30164  1  0
 30165  1  0
 30166  1  0
 31167  1  0
 31168  1  0
 31169  1  0
 32170  1  0
 32171  1  0
 32172  1  0
 33173  1  0
 33174  1  0
 33175  1  0
 34176  1  0
 34177  1  0
 34178  1  0
 35179  1  0
 36180  1  0
 36181  1  0
 36182  1  0
 37183  1  0
 37184  1  0
 37185  1  0
 38186  1  6
 39187  1  0
 39188  1  0
 40189  1  0
 40190  1  0
 41191  1  0
 41192  1  0
 42193  1  0
 42194  1  0
 43195  1  0
 43196  1  0
 44197  1  0
 44198  1  0
 45199  1  0
 45200  1  0
 46201  1  0
 46202  1  0
 47203  1  0
 47204  1  0
 48205  1  0
 49206  1  0
 52207  1  0
 53208  1  0
 55209  1  0
 59210  1  0
 60211  1  0
 61212  1  0
 62213  1  0
 63214  1  0
 64215  1  0
 65216  1  0
 66217  1  1
 67218  1  0
 68219  1  0
 69220  1  0
 70221  1  0
 71222  1  0
 72223  1  0
 73224  1  0
 74225  1  1
 76226  1  0
 76227  1  0
 76228  1  0
 77229  1  0
 77230  1  0
 77231  1  0
 78232  1  0
 79233  1  0
 80234  1  0
 80235  1  0
 81236  1  0
 81237  1  0
 82238  1  0
 82239  1  0
 83240  1  6
 84241  1  1
 85242  1  6
 86243  1  6
 87244  1  1
 88245  1  6
 89246  1  1
 90247  1  6
 91248  1  0
 91249  1  0
 92250  1  0
 92251  1  0
 93252  1  0
 93253  1  0
 93254  1  0
 94255  1  0
 94256  1  0
 94257  1  0
 95258  1  0
 95259  1  0
 95260  1  0
 96261  1  0
 96262  1  0
 96263  1  0
 97264  1  0
 97265  1  0
 97266  1  0
 98267  1  0
 99268  1  0
 99269  1  0
 99270  1  0
100271  1  0
100272  1  0
100273  1  0
101274  1  6
102275  1  0
102276  1  0
103277  1  0
103278  1  0
104279  1  0
104280  1  0
105281  1  0
105282  1  0
106283  1  0
106284  1  0
107285  1  0
107286  1  0
108287  1  0
108288  1  0
109289  1  0
109290  1  0
110291  1  0
110292  1  0
111293  1  0
112294  1  0
115295  1  0
116296  1  0
118297  1  0
122298  1  0
123299  1  0
124300  1  0
125301  1  0
126302  1  0
M  END
>  <PDBID>  (1) 
2A69

>  <PDB ID>  (1) 
2A69

>  <Generic Name>  (1) 
Rifapentine

>  <Brand Name>  (1) 
Priftin

>  <DrugBank ID>  (1) 
DB01201

>  <ATC Codes>  (1) 
J04AB05

>  <Ligand ID>  (1) 
RPT

>  <Target Name>  (1) 
DNA-directed RNA polymerase subunit beta'

>  <UniProt ID>  (1) 
P0A674

>  <PDB ID.1>  (1) 
2A69

>  <Seq. Identity>  (1) 
50%

$$$$
