PDB_DB00398_98
     RDKit          3D

 48 50  0  0  0  0  0  0  0  0999 V2000
  -28.0550   -1.7890   -7.5940 C   0  0  0  0  0  0  0  0  0  0  0  0
  -28.2850   -2.8510   -8.4880 C   0  0  0  0  0  0  0  0  0  0  0  0
  -28.9910   -3.9770   -8.0560 C   0  0  0  0  0  0  0  0  0  0  0  0
  -29.4670   -4.0490   -6.7420 C   0  0  0  0  0  0  0  0  0  0  0  0
  -26.7470   -2.0750  -10.2510 C   0  0  0  0  0  0  0  0  0  0  0  0
  -25.3410   -1.7590  -12.2560 C   0  0  0  0  0  0  0  0  0  0  0  0
  -25.4650   -1.3400  -13.5760 C   0  0  0  0  0  0  0  0  0  0  0  0
  -24.3430   -0.8720  -14.2610 C   0  0  0  0  0  0  0  0  0  0  0  0
  -23.1120   -0.8220  -13.6040 C   0  0  0  0  0  0  0  0  0  0  0  0
  -22.9590   -1.2340  -12.2870 C   0  0  0  0  0  0  0  0  0  0  0  0
  -24.0840   -1.7010  -11.6170 C   0  0  0  0  0  0  0  0  0  0  0  0
  -22.0130   -0.3720  -14.2990 O   0  0  0  0  0  0  0  0  0  0  0  0
  -22.5430    2.0480  -13.9900 C   0  0  0  0  0  0  0  0  0  0  0  0
  -21.9920    3.3280  -14.1160 C   0  0  0  0  0  0  0  0  0  0  0  0
  -19.9370    2.4950  -14.8610 C   0  0  0  0  0  0  0  0  0  0  0  0
  -20.3980    1.1840  -14.7780 C   0  0  0  0  0  0  0  0  0  0  0  0
  -18.0330    3.9880  -15.4040 N   0  0  0  0  0  0  0  0  0  0  0  0
  -16.6770    4.2420  -15.8730 C   0  0  0  0  0  0  0  0  0  0  0  0
  -29.2370   -2.9750   -5.8670 C   0  0  0  0  0  0  0  0  0  0  0  0
  -28.5180   -1.8380   -6.2740 C   0  0  0  0  0  0  0  0  0  0  0  0
  -28.2400   -0.6760   -5.3510 C   0  0  0  0  0  0  0  0  0  0  0  0
  -27.4630   -1.0490   -4.3100 F   0  0  0  0  0  0  0  0  0  0  0  0
  -29.3580   -0.1020   -4.8300 F   0  0  0  0  0  0  0  0  0  0  0  0
  -27.5590    0.3410   -5.9330 F   0  0  0  0  0  0  0  0  0  0  0  0
  -29.8410   -3.1030   -4.2550 Cl  0  0  0  0  0  0  0  0  0  0  0  0
  -27.8280   -2.8300   -9.8150 N   0  0  0  0  0  0  0  0  0  0  0  0
  -26.5060   -2.2230  -11.6110 N   0  0  0  0  0  0  0  0  0  0  0  0
  -26.0690   -1.3750   -9.5210 O   0  0  0  0  0  0  0  0  0  0  0  0
  -21.7060    0.9720  -14.3350 C   0  0  0  0  0  0  0  0  0  0  0  0
  -20.7260    3.5610  -14.5500 N   0  0  0  0  0  0  0  0  0  0  0  0
  -18.5340    2.7020  -15.3410 C   0  0  0  0  0  0  0  0  0  0  0  0
  -17.8770    1.7200  -15.6900 O   0  0  0  0  0  0  0  0  0  0  0  0
  -27.5009   -0.9036   -7.9390 H   0  0  0  0  0  0  0  0  0  0  0  0
  -29.1732   -4.8097   -8.7513 H   0  0  0  0  0  0  0  0  0  0  0  0
  -30.0159   -4.9380   -6.3980 H   0  0  0  0  0  0  0  0  0  0  0  0
  -26.4431   -1.3773  -14.0780 H   0  0  0  0  0  0  0  0  0  0  0  0
  -24.4275   -0.5457  -15.3081 H   0  0  0  0  0  0  0  0  0  0  0  0
  -21.9788   -1.1922  -11.7895 H   0  0  0  0  0  0  0  0  0  0  0  0
  -23.9929   -2.0308  -10.5715 H   0  0  0  0  0  0  0  0  0  0  0  0
  -23.5742    1.8920  -13.6403 H   0  0  0  0  0  0  0  0  0  0  0  0
  -22.6178    4.1924  -13.8492 H   0  0  0  0  0  0  0  0  0  0  0  0
  -19.7505    0.3386  -15.0535 H   0  0  0  0  0  0  0  0  0  0  0  0
  -18.6266    4.7787  -15.1153 H   0  0  0  0  0  0  0  0  0  0  0  0
  -16.0077    4.3674  -15.0091 H   0  0  0  0  0  0  0  0  0  0  0  0
  -16.3345    3.3924  -16.4820 H   0  0  0  0  0  0  0  0  0  0  0  0
  -16.6652    5.1580  -16.4820 H   0  0  0  0  0  0  0  0  0  0  0  0
  -28.3243   -3.4094  -10.5070 H   0  0  0  0  0  0  0  0  0  0  0  0
  -27.2194   -2.6992  -12.1812 H   0  0  0  0  0  0  0  0  0  0  0  0
  1  2  2  0
  2  3  1  0
  3  4  2  0
  6  7  2  0
  7  8  1  0
  8  9  2  0
  9 10  1  0
  6 11  1  0
 10 11  2  0
  9 12  1  0
 13 14  2  0
 15 16  1  0
 17 18  1  0
  4 19  1  0
  1 20  1  0
 19 20  2  0
 20 21  1  0
 21 22  1  0
 21 23  1  0
 21 24  1  0
 19 25  1  0
  2 26  1  0
  5 26  1  0
  5 27  1  0
  6 27  1  0
  5 28  2  0
 12 29  1  0
 13 29  1  0
 16 29  2  0
 14 30  1  0
 15 30  2  0
 15 31  1  0
 17 31  1  0
 31 32  2  0
  1 33  1  0
  3 34  1  0
  4 35  1  0
  7 36  1  0
  8 37  1  0
 10 38  1  0
 11 39  1  0
 13 40  1  0
 14 41  1  0
 16 42  1  0
 17 43  1  0
 18 44  1  0
 18 45  1  0
 18 46  1  0
 26 47  1  0
 27 48  1  0
M  END
>  <PDBID>  (1) 
4ASD

>  <PDB ID>  (1) 
4ASD

>  <Generic Name>  (1) 
Sorafenib

>  <Brand Name>  (1) 
Nexavar

>  <DrugBank ID>  (1) 
DB00398

>  <ATC Codes>  (1) 
L01XE05

>  <Ligand ID>  (1) 
BAX

>  <Target Name>  (1) 
Vascular endothelial growth factor receptor 3

>  <UniProt ID>  (1) 
P35916

>  <PDB ID.1>  (1) 
4ASD

>  <Seq. Identity>  (1) 
66%

$$$$
