PDB_DB00188_79
     RDKit          3D

 53 54  0  0  0  0  0  0  0  0999 V2000
   49.2060 -136.7360   55.4170 N   0  0  0  0  0  0  0  0  0  0  0  0
   48.7660 -137.9750   55.6860 C   0  0  0  0  0  0  0  0  0  0  0  0
   49.6120 -139.0600   55.4720 C   0  0  0  0  0  0  0  0  0  0  0  0
   50.9110 -138.8820   54.9920 N   0  0  0  0  0  0  0  0  0  0  0  0
   51.3640 -137.5960   54.7170 C   0  0  0  0  0  0  0  0  0  0  0  0
   50.5090 -136.5260   54.9300 C   0  0  0  0  0  0  0  0  0  0  0  0
   47.4710 -138.1720   56.1720 C   0  0  0  0  0  0  0  0  0  0  0  0
   46.6170 -137.2920   56.0590 O   0  0  0  0  0  0  0  0  0  0  0  0
   47.2570 -139.3630   56.7670 N   0  0  0  0  0  0  0  0  0  0  0  0
   45.9680 -139.7620   57.3380 C   0  0  1  0  0  0  0  0  0  0  0  0
   45.5710 -141.0490   56.6370 C   0  0  0  0  0  0  0  0  0  0  0  0
   44.3930 -141.5690   57.2140 C   0  0  0  0  0  0  0  0  0  0  0  0
   43.1670 -140.9230   57.0100 C   0  0  0  0  0  0  0  0  0  0  0  0
   41.9910 -141.4340   57.5700 C   0  0  0  0  0  0  0  0  0  0  0  0
   42.0290 -142.6020   58.3320 C   0  0  0  0  0  0  0  0  0  0  0  0
   43.2440 -143.2590   58.5340 C   0  0  0  0  0  0  0  0  0  0  0  0
   44.4190 -142.7480   57.9740 C   0  0  0  0  0  0  0  0  0  0  0  0
   46.1860 -139.9360   58.8480 C   0  0  0  0  0  0  0  0  0  0  0  0
   47.1860 -140.5130   59.2730 O   0  0  0  0  0  0  0  0  0  0  0  0
   45.2380 -139.3900   59.6270 N   0  0  0  0  0  0  0  0  0  0  0  0
   45.2880 -139.4770   61.1000 C   0  0  1  0  0  0  0  0  0  0  0  0
   44.9040 -138.1570   61.7550 C   0  0  0  0  0  0  0  0  0  0  0  0
   45.7120 -136.9890   61.1340 C   0  0  0  0  0  0  0  0  0  0  0  0
   45.1840 -135.6670   61.7140 C   0  0  0  0  0  0  0  0  0  0  0  0
   47.2230 -137.1090   61.4020 C   0  0  0  0  0  0  0  0  0  0  0  0
   44.3360 -140.5960   61.6020 B   0  0  0  0  0  0  0  0  0  0  0  0
   44.7870 -141.8650   61.1120 O   0  0  0  0  0  0  0  0  0  0  0  0
   42.9990 -140.3450   61.1370 O   0  0  0  0  0  0  0  0  0  0  0  0
   49.2501 -140.0767   55.6851 H   0  0  0  0  0  0  0  0  0  0  0  0
   52.3830 -137.4310   54.3371 H   0  0  0  0  0  0  0  0  0  0  0  0
   50.8525 -135.5031   54.7162 H   0  0  0  0  0  0  0  0  0  0  0  0
   48.0417 -140.0278   56.8231 H   0  0  0  0  0  0  0  0  0  0  0  0
   45.1594 -139.0296   57.1976 H   0  0  0  0  0  0  0  0  0  0  0  0
   45.3945 -140.8437   55.5708 H   0  0  0  0  0  0  0  0  0  0  0  0
   46.3817 -141.7845   56.7460 H   0  0  0  0  0  0  0  0  0  0  0  0
   43.1284 -140.0057   56.4041 H   0  0  0  0  0  0  0  0  0  0  0  0
   41.0351 -140.9140   57.4092 H   0  0  0  0  0  0  0  0  0  0  0  0
   41.1045 -143.0039   58.7722 H   0  0  0  0  0  0  0  0  0  0  0  0
   43.2771 -144.1800   59.1346 H   0  0  0  0  0  0  0  0  0  0  0  0
   45.3718 -143.2749   58.1307 H   0  0  0  0  0  0  0  0  0  0  0  0
   44.4514 -138.8951   59.1829 H   0  0  0  0  0  0  0  0  0  0  0  0
   46.3247 -139.7134   61.3816 H   0  0  0  0  0  0  0  0  0  0  0  0
   43.8298 -137.9758   61.6023 H   0  0  0  0  0  0  0  0  0  0  0  0
   45.1292 -138.2140   62.8302 H   0  0  0  0  0  0  0  0  0  0  0  0
   45.5780 -137.0217   60.0427 H   0  0  0  0  0  0  0  0  0  0  0  0
   45.2032 -135.7151   62.8128 H   0  0  0  0  0  0  0  0  0  0  0  0
   45.8196 -134.8368   61.3721 H   0  0  0  0  0  0  0  0  0  0  0  0
   44.1514 -135.5031   61.3721 H   0  0  0  0  0  0  0  0  0  0  0  0
   47.4029 -137.1233   62.4871 H   0  0  0  0  0  0  0  0  0  0  0  0
   47.6018 -138.0401   60.9552 H   0  0  0  0  0  0  0  0  0  0  0  0
   47.7440 -136.2494   60.9552 H   0  0  0  0  0  0  0  0  0  0  0  0
   44.9977 -142.4579   61.8763 H   0  0  0  0  0  0  0  0  0  0  0  0
   42.3954 -140.2317   61.9135 H   0  0  0  0  0  0  0  0  0  0  0  0
  1  2  2  0
  2  3  1  0
  3  4  2  0
  4  5  1  0
  1  6  1  0
  5  6  2  0
  2  7  1  0
  7  8  2  0
  7  9  1  0
  9 10  1  0
 10 11  1  0
 11 12  1  0
 12 13  2  0
 13 14  1  0
 14 15  2  0
 15 16  1  0
 12 17  1  0
 16 17  2  0
 10 18  1  0
 18 19  2  0
 18 20  1  0
 20 21  1  0
 21 22  1  0
 22 23  1  0
 23 24  1  0
 23 25  1  0
 21 26  1  0
 26 27  1  0
 26 28  1  0
  3 29  1  0
  5 30  1  0
  6 31  1  0
  9 32  1  0
 10 33  1  1
 11 34  1  0
 11 35  1  0
 13 36  1  0
 14 37  1  0
 15 38  1  0
 16 39  1  0
 17 40  1  0
 20 41  1  0
 21 42  1  6
 22 43  1  0
 22 44  1  0
 23 45  1  0
 24 46  1  0
 24 47  1  0
 24 48  1  0
 25 49  1  0
 25 50  1  0
 25 51  1  0
 27 52  1  0
 28 53  1  0
M  END
$$$$
