PDB_DB00513_94
     RDKit          3D

 22 21  0  0  0  0  0  0  0  0999 V2000
    8.2050   11.9810    4.0400 C   0  0  0  0  0  0  0  0  0  0  0  0
    7.7650   12.6130    3.0210 O   0  0  0  0  0  0  0  0  0  0  0  0
    8.2330   10.7450    4.2470 O   0  0  0  0  0  0  0  0  0  0  0  0
    8.8920   12.9020    5.0800 C   0  0  0  0  0  0  0  0  0  0  0  0
    9.5420   14.0690    4.2640 C   0  0  0  0  0  0  0  0  0  0  0  0
   10.0720   15.1500    5.2410 C   0  0  0  0  0  0  0  0  0  0  0  0
   10.7850   14.5700    6.4320 C   0  0  0  0  0  0  0  0  0  0  0  0
   10.9690   15.2760    7.6940 C   0  0  0  0  0  0  0  0  0  0  0  0
   12.0190   14.7800    8.6560 N   0  0  0  0  0  0  0  0  0  0  0  0
    7.8078   13.6017    2.9953 H   0  0  0  0  0  0  0  0  0  0  0  0
    8.1495   13.2986    5.7881 H   0  0  0  0  0  0  0  0  0  0  0  0
    9.6441   12.3544    5.6669 H   0  0  0  0  0  0  0  0  0  0  0  0
   10.3761   13.6766    3.6638 H   0  0  0  0  0  0  0  0  0  0  0  0
    8.7887   14.5146    3.5977 H   0  0  0  0  0  0  0  0  0  0  0  0
   10.7720   15.8010    4.6967 H   0  0  0  0  0  0  0  0  0  0  0  0
    9.2014   15.7062    5.6186 H   0  0  0  0  0  0  0  0  0  0  0  0
   10.2435   13.6461    6.6832 H   0  0  0  0  0  0  0  0  0  0  0  0
   11.8194   14.5332    6.0596 H   0  0  0  0  0  0  0  0  0  0  0  0
   11.2219   16.3179    7.4480 H   0  0  0  0  0  0  0  0  0  0  0  0
   10.0210   15.1173    8.2289 H   0  0  0  0  0  0  0  0  0  0  0  0
   11.6979   14.9317    9.6228 H   0  0  0  0  0  0  0  0  0  0  0  0
   12.1789   13.7743    8.5011 H   0  0  0  0  0  0  0  0  0  0  0  0
  1  2  1  0
  1  3  2  0
  1  4  1  0
  4  5  1  0
  5  6  1  0
  6  7  1  0
  7  8  1  0
  8  9  1  0
  2 10  1  0
  4 11  1  0
  4 12  1  0
  5 13  1  0
  5 14  1  0
  6 15  1  0
  6 16  1  0
  7 17  1  0
  7 18  1  0
  8 19  1  0
  8 20  1  0
  9 21  1  0
  9 22  1  0
M  END
>  <PDBID>  (1) 
3KIV

>  <PDB ID>  (1) 
3KIV

>  <Generic Name>  (1) 
Aminocaproic Acid

>  <Brand Name>  (1) 
Amicar#Aminocaproic Acid#Exoden White Tooth#Acepramin#Amocap#Caproamin#Caprocat#Caprolisin#E-Capro#Epsicaprom#Hemocid#Inselon#Ipron#Ipsilon#Kai Nai Yin#Minocap#Plaslloid#Resplamin

>  <DrugBank ID>  (1) 
DB00513

>  <ATC Codes>  (1) 
B02AA01

>  <Ligand ID>  (1) 
ACA

>  <Target Name>  (1) 
Tissue-type plasminogen activator

>  <UniProt ID>  (1) 
P00750

>  <PDB ID.1>  (1) 
3KIV

>  <Seq. Identity>  (1) 
43%

$$$$
