PDB_DB01095_99
     RDKit          3D

 56 58  0  0  0  0  0  0  0  0999 V2000
   18.4010  -24.9180   16.5060 C   0  0  0  0  0  0  0  0  0  0  0  0
   17.9490  -25.1160   15.2150 C   0  0  0  0  0  0  0  0  0  0  0  0
   16.7230  -25.7930   15.0000 C   0  0  0  0  0  0  0  0  0  0  0  0
   15.9800  -26.2550   16.1050 C   0  0  0  0  0  0  0  0  0  0  0  0
   16.4590  -26.0420   17.4160 C   0  0  0  0  0  0  0  0  0  0  0  0
   17.6720  -25.3710   17.6270 C   0  0  0  0  0  0  0  0  0  0  0  0
   19.7110  -24.1830   16.4580 C   0  0  0  0  0  0  0  0  0  0  0  0
   19.8850  -24.0340   15.1280 C   0  0  0  0  0  0  0  0  0  0  0  0
   18.7880  -24.6130   14.3630 N   0  0  0  0  0  0  0  0  0  0  0  0
   21.8730  -24.2130   19.6180 C   0  0  0  0  0  0  0  0  0  0  0  0
   21.0480  -24.6580   18.5760 C   0  0  0  0  0  0  0  0  0  0  0  0
   20.5850  -23.7380   17.6190 C   0  0  0  0  0  0  0  0  0  0  0  0
   20.9500  -22.3800   17.7090 C   0  0  0  0  0  0  0  0  0  0  0  0
   21.7680  -21.9450   18.7450 C   0  0  0  0  0  0  0  0  0  0  0  0
   22.2310  -22.8600   19.6980 C   0  0  0  0  0  0  0  0  0  0  0  0
   23.0340  -22.4250   20.7080 F   0  0  0  0  0  0  0  0  0  0  0  0
   23.3240  -17.1500   16.8110 O   0  0  0  0  0  0  0  0  0  0  0  0
   21.2130  -17.9530   17.0500 O   0  0  0  0  0  0  0  0  0  0  0  0
   23.6280  -20.2010   15.3420 O   0  0  0  0  0  0  0  0  0  0  0  0
   22.3490  -17.7280   16.3490 C   0  0  0  0  0  0  0  0  0  0  0  0
   22.2800  -18.2610   14.9270 C   0  0  0  0  0  0  0  0  0  0  0  0
   22.3680  -19.7910   14.8180 C   0  0  1  0  0  0  0  0  0  0  0  0
   22.2860  -20.2600   13.3610 C   0  0  0  0  0  0  0  0  0  0  0  0
   22.3530  -21.7860   13.2180 C   0  0  1  0  0  0  0  0  0  0  0  0
   21.0790  -22.4250   13.7070 C   0  0  0  0  0  0  0  0  0  0  0  0
   20.9810  -23.3940   14.6150 C   0  0  0  0  0  0  0  0  0  0  0  0
   18.6060  -24.3980   12.8520 C   0  0  0  0  0  0  0  0  0  0  0  0
   18.5490  -25.7280   12.0780 C   0  0  0  0  0  0  0  0  0  0  0  0
   17.3550  -23.5350   12.5500 C   0  0  0  0  0  0  0  0  0  0  0  0
   22.5660  -22.0540   11.8620 O   0  0  0  0  0  0  0  0  0  0  0  0
   16.3534  -25.9570   13.9770 H   0  0  0  0  0  0  0  0  0  0  0  0
   15.0273  -26.7813   15.9461 H   0  0  0  0  0  0  0  0  0  0  0  0
   15.8774  -26.4044   18.2765 H   0  0  0  0  0  0  0  0  0  0  0  0
   18.0484  -25.2008   18.6465 H   0  0  0  0  0  0  0  0  0  0  0  0
   22.2393  -24.9248   20.3724 H   0  0  0  0  0  0  0  0  0  0  0  0
   20.7650  -25.7188   18.5075 H   0  0  0  0  0  0  0  0  0  0  0  0
   20.5869  -21.6629   16.9580 H   0  0  0  0  0  0  0  0  0  0  0  0
   22.0509  -20.8844   18.8160 H   0  0  0  0  0  0  0  0  0  0  0  0
   24.1293  -17.0131   16.2517 H   0  0  0  0  0  0  0  0  0  0  0  0
   23.5934  -20.1897   16.3313 H   0  0  0  0  0  0  0  0  0  0  0  0
   21.3257  -17.9389   14.4847 H   0  0  0  0  0  0  0  0  0  0  0  0
   23.1557  -17.8576   14.3976 H   0  0  0  0  0  0  0  0  0  0  0  0
   21.5263  -20.2285   15.3749 H   0  0  0  0  0  0  0  0  0  0  0  0
   21.3355  -19.9092   12.9328 H   0  0  0  0  0  0  0  0  0  0  0  0
   23.1543  -19.8414   12.8311 H   0  0  0  0  0  0  0  0  0  0  0  0
   23.1672  -22.2048   13.8277 H   0  0  0  0  0  0  0  0  0  0  0  0
   20.1389  -22.0552   13.2717 H   0  0  0  0  0  0  0  0  0  0  0  0
   21.9433  -23.7384   15.0216 H   0  0  0  0  0  0  0  0  0  0  0  0
   19.4944  -23.8514   12.5026 H   0  0  0  0  0  0  0  0  0  0  0  0
   18.5131  -26.5655   12.7903 H   0  0  0  0  0  0  0  0  0  0  0  0
   17.6493  -25.7458   11.4454 H   0  0  0  0  0  0  0  0  0  0  0  0
   19.4439  -25.8227   11.4454 H   0  0  0  0  0  0  0  0  0  0  0  0
   16.8926  -23.2160   13.4957 H   0  0  0  0  0  0  0  0  0  0  0  0
   17.6522  -22.6489   11.9699 H   0  0  0  0  0  0  0  0  0  0  0  0
   16.6322  -24.1275   11.9699 H   0  0  0  0  0  0  0  0  0  0  0  0
   23.1793  -22.8257   11.7705 H   0  0  0  0  0  0  0  0  0  0  0  0
  1  2  1  0
  2  3  2  0
  3  4  1  0
  4  5  2  0
  1  6  2  0
  5  6  1  0
  1  7  1  0
  7  8  2  0
  2  9  1  0
  8  9  1  0
 10 11  2  0
  7 12  1  0
 11 12  1  0
 12 13  2  0
 13 14  1  0
 10 15  1  0
 14 15  2  0
 15 16  1  0
 17 20  1  0
 18 20  2  0
 20 21  1  0
 19 22  1  0
 21 22  1  0
 22 23  1  0
 23 24  1  0
 24 25  1  0
  8 26  1  0
 25 26  2  0
  9 27  1  0
 27 28  1  0
 27 29  1  0
 24 30  1  0
  3 31  1  0
  4 32  1  0
  5 33  1  0
  6 34  1  0
 10 35  1  0
 11 36  1  0
 13 37  1  0
 14 38  1  0
 17 39  1  0
 19 40  1  0
 21 41  1  0
 21 42  1  0
 22 43  1  1
 23 44  1  0
 23 45  1  0
 24 46  1  1
 25 47  1  0
 26 48  1  0
 27 49  1  0
 28 50  1  0
 28 51  1  0
 28 52  1  0
 29 53  1  0
 29 54  1  0
 29 55  1  0
 30 56  1  0
M  END
$$$$
