PDB_DB01264_99
     RDKit          3D

 91 94  0  0  0  0  0  0  0  0999 V2000
    9.9800  -15.7090    8.5230 N   0  0  0  0  0  0  0  0  0  0  0  0
    9.7270  -15.5410    7.2020 C   0  0  0  0  0  0  0  0  0  0  0  0
   10.1240  -14.3820    6.5370 C   0  0  0  0  0  0  0  0  0  0  0  0
    9.8470  -14.2310    5.1810 C   0  0  0  0  0  0  0  0  0  0  0  0
    9.1850  -15.2410    4.4820 C   0  0  0  0  0  0  0  0  0  0  0  0
    8.7820  -16.3820    5.1610 C   0  0  0  0  0  0  0  0  0  0  0  0
    9.0550  -16.5360    6.5110 C   0  0  0  0  0  0  0  0  0  0  0  0
    8.8290  -15.1140    2.9270 S   0  0  1  0  0  4  0  0  0  0  0  0
    7.6470  -15.8910    2.7030 O   0  0  0  0  0  0  0  0  0  0  0  0
    8.5500  -13.7600    2.6110 O   0  0  0  0  0  0  0  0  0  0  0  0
    9.9900  -15.6100    1.9070 N   0  0  0  0  0  0  0  0  0  0  0  0
   11.3040  -15.0760    2.3000 C   0  0  0  0  0  0  0  0  0  0  0  0
   11.9840  -14.2730    1.1890 C   0  0  1  0  0  0  0  0  0  0  0  0
   12.4000  -15.1560    0.0280 C   0  0  0  0  0  0  0  0  0  0  0  0
   11.1400  -13.1050    0.6910 C   0  0  0  0  0  0  0  0  0  0  0  0
   10.0260  -17.0800    1.8030 C   0  0  0  0  0  0  0  0  0  0  0  0
    9.8480  -17.4520    0.3370 C   0  0  1  0  0  0  0  0  0  0  0  0
   10.1070  -18.8400    0.1300 O   0  0  0  0  0  0  0  0  0  0  0  0
    8.4440  -17.0820   -0.1260 C   0  0  1  0  0  0  0  0  0  0  0  0
    8.4600  -17.3080   -1.5530 N   0  0  0  0  0  0  0  0  0  0  0  0
    8.3640  -16.3270   -2.4420 C   0  0  0  0  0  0  0  0  0  0  0  0
    8.2620  -15.1490   -2.1570 O   0  0  0  0  0  0  0  0  0  0  0  0
    8.4060  -16.7450   -3.8280 O   0  0  0  0  0  0  0  0  0  0  0  0
    7.9770  -15.8390   -4.8240 C   0  0  1  0  0  0  0  0  0  0  0  0
    8.9530  -16.0840   -5.9560 C   0  0  0  0  0  0  0  0  0  0  0  0
    8.4510  -17.2590   -6.5990 O   0  0  0  0  0  0  0  0  0  0  0  0
    7.0310  -17.3530   -6.4180 C   0  0  1  0  0  0  0  0  0  0  0  0
    6.6590  -18.6310   -5.8900 O   0  0  0  0  0  0  0  0  0  0  0  0
    5.9780  -18.5190   -4.6420 C   0  0  0  0  0  0  0  0  0  0  0  0
    5.7640  -17.0350   -4.3950 C   0  0  0  0  0  0  0  0  0  0  0  0
    6.6560  -16.3170   -5.3830 C   0  0  1  0  0  0  0  0  0  0  0  0
    7.4140  -18.0610    0.4180 C   0  0  0  0  0  0  0  0  0  0  0  0
    5.4280  -16.6240   -0.0670 C   0  0  0  0  0  0  0  0  0  0  0  0
    4.2110  -16.3950   -0.6960 C   0  0  0  0  0  0  0  0  0  0  0  0
    3.6630  -17.3560   -1.5340 C   0  0  0  0  0  0  0  0  0  0  0  0
    4.3370  -18.5580   -1.7310 C   0  0  0  0  0  0  0  0  0  0  0  0
    5.5540  -18.7970   -1.1040 C   0  0  0  0  0  0  0  0  0  0  0  0
    6.0980  -17.8230   -0.2720 C   0  0  0  0  0  0  0  0  0  0  0  0
    9.2557  -15.2280    9.0752 H   0  0  0  0  0  0  0  0  0  0  0  0
    9.9731  -16.7139    8.7488 H   0  0  0  0  0  0  0  0  0  0  0  0
    8.7632  -15.0706    7.4464 H   0  0  0  0  0  0  0  0  0  0  0  0
    9.6454  -13.5380    7.0554 H   0  0  0  0  0  0  0  0  0  0  0  0
   11.2223  -14.4349    6.5677 H   0  0  0  0  0  0  0  0  0  0  0  0
    9.2331  -13.3236    5.0827 H   0  0  0  0  0  0  0  0  0  0  0  0
   10.8462  -14.2222    4.7211 H   0  0  0  0  0  0  0  0  0  0  0  0
   10.1505  -15.7169    4.2553 H   0  0  0  0  0  0  0  0  0  0  0  0
    7.6890  -16.4424    5.0527 H   0  0  0  0  0  0  0  0  0  0  0  0
    9.3909  -17.1715    4.6963 H   0  0  0  0  0  0  0  0  0  0  0  0
    9.6556  -17.4521    6.6105 H   0  0  0  0  0  0  0  0  0  0  0  0
    8.0562  -16.5318    6.9718 H   0  0  0  0  0  0  0  0  0  0  0  0
    7.2526  -16.1502    3.5733 H   0  0  0  0  0  0  0  0  0  0  0  0
    8.4431  -13.2412    3.4474 H   0  0  0  0  0  0  0  0  0  0  0  0
   11.1683  -14.4203    3.1727 H   0  0  0  0  0  0  0  0  0  0  0  0
   11.9522  -15.9354    2.5264 H   0  0  0  0  0  0  0  0  0  0  0  0
   12.8889  -13.8468    1.6467 H   0  0  0  0  0  0  0  0  0  0  0  0
   12.8389  -16.0876    0.4147 H   0  0  0  0  0  0  0  0  0  0  0  0
   11.5189  -15.3932   -0.5864 H   0  0  0  0  0  0  0  0  0  0  0  0
   13.1439  -14.6276   -0.5864 H   0  0  0  0  0  0  0  0  0  0  0  0
   10.7386  -12.5495    1.5514 H   0  0  0  0  0  0  0  0  0  0  0  0
   11.7642  -12.4353    0.0811 H   0  0  0  0  0  0  0  0  0  0  0  0
   10.3082  -13.4874    0.0811 H   0  0  0  0  0  0  0  0  0  0  0  0
   10.9925  -17.4567    2.1691 H   0  0  0  0  0  0  0  0  0  0  0  0
    9.2249  -17.5260    2.4107 H   0  0  0  0  0  0  0  0  0  0  0  0
   10.5752  -16.8851   -0.2628 H   0  0  0  0  0  0  0  0  0  0  0  0
   10.1917  -19.2941    1.0056 H   0  0  0  0  0  0  0  0  0  0  0  0
    8.1936  -16.0598    0.1939 H   0  0  0  0  0  0  0  0  0  0  0  0
    9.3492  -17.7872   -1.7543 H   0  0  0  0  0  0  0  0  0  0  0  0
    7.2684  -16.4245   -2.4312 H   0  0  0  0  0  0  0  0  0  0  0  0
    8.2532  -15.0473   -1.1723 H   0  0  0  0  0  0  0  0  0  0  0  0
    7.9086  -14.8088   -4.4445 H   0  0  0  0  0  0  0  0  0  0  0  0
    8.9656  -15.2326   -6.6523 H   0  0  0  0  0  0  0  0  0  0  0  0
    9.9880  -16.2043   -5.6034 H   0  0  0  0  0  0  0  0  0  0  0  0
    6.5283  -17.2053   -7.3852 H   0  0  0  0  0  0  0  0  0  0  0  0
    5.0099  -19.0391   -4.6900 H   0  0  0  0  0  0  0  0  0  0  0  0
    6.5619  -18.9759   -3.8294 H   0  0  0  0  0  0  0  0  0  0  0  0
    4.7109  -16.7668   -4.5653 H   0  0  0  0  0  0  0  0  0  0  0  0
    6.0063  -16.7593   -3.3580 H   0  0  0  0  0  0  0  0  0  0  0  0
    6.1005  -15.4357   -5.7363 H   0  0  0  0  0  0  0  0  0  0  0  0
    7.7487  -19.0915    0.2281 H   0  0  0  0  0  0  0  0  0  0  0  0
    7.2971  -17.9127    1.5017 H   0  0  0  0  0  0  0  0  0  0  0  0
    6.1079  -15.8209   -0.3876 H   0  0  0  0  0  0  0  0  0  0  0  0
    5.1599  -16.6618    0.9992 H   0  0  0  0  0  0  0  0  0  0  0  0
    3.4737  -16.2122    0.0996 H   0  0  0  0  0  0  0  0  0  0  0  0
    4.4376  -15.5660   -1.3825 H   0  0  0  0  0  0  0  0  0  0  0  0
    2.6722  -17.6075   -1.1277 H   0  0  0  0  0  0  0  0  0  0  0  0
    3.6888  -16.8797   -2.5252 H   0  0  0  0  0  0  0  0  0  0  0  0
    3.6544  -19.3581   -1.4088 H   0  0  0  0  0  0  0  0  0  0  0  0
    4.6122  -18.5148   -2.7951 H   0  0  0  0  0  0  0  0  0  0  0  0
    5.4277  -19.7042   -0.4949 H   0  0  0  0  0  0  0  0  0  0  0  0
    6.2685  -18.8531   -1.9385 H   0  0  0  0  0  0  0  0  0  0  0  0
    5.5687  -18.2653    0.5849 H   0  0  0  0  0  0  0  0  0  0  0  0
  1  2  1  0
  2  3  1  0
  3  4  1  0
  4  5  1  0
  5  6  1  0
  2  7  1  0
  6  7  1  0
  5  8  1  0
  8  9  1  1
  8 10  1  0
  8 11  1  0
 11 12  1  0
 12 13  1  0
 13 14  1  0
 13 15  1  0
 11 16  1  0
 16 17  1  0
 17 18  1  0
 17 19  1  0
 19 20  1  0
 20 21  1  0
 21 22  1  0
 21 23  1  0
 23 24  1  0
 24 25  1  0
 25 26  1  0
 26 27  1  0
 27 28  1  0
 28 29  1  0
 29 30  1  0
 24 31  1  0
 27 31  1  0
 30 31  1  0
 19 32  1  0
 33 34  1  0
 34 35  1  0
 35 36  1  0
 36 37  1  0
 32 38  1  0
 33 38  1  0
 37 38  1  0
  1 39  1  0
  1 40  1  0
  2 41  1  0
  3 42  1  0
  3 43  1  0
  4 44  1  0
  4 45  1  0
  5 46  1  0
  6 47  1  0
  6 48  1  0
  7 49  1  0
  7 50  1  0
  9 51  1  0
 10 52  1  0
 12 53  1  0
 12 54  1  0
 13 55  1  1
 14 56  1  0
 14 57  1  0
 14 58  1  0
 15 59  1  0
 15 60  1  0
 15 61  1  0
 16 62  1  0
 16 63  1  0
 17 64  1  6
 18 65  1  0
 19 66  1  6
 20 67  1  0
 21 68  1  0
 22 69  1  0
 24 70  1  1
 25 71  1  0
 25 72  1  0
 27 73  1  6
 29 74  1  0
 29 75  1  0
 30 76  1  0
 30 77  1  0
 31 78  1  6
 32 79  1  0
 32 80  1  0
 33 81  1  0
 33 82  1  0
 34 83  1  0
 34 84  1  0
 35 85  1  0
 35 86  1  0
 36 87  1  0
 36 88  1  0
 37 89  1  0
 37 90  1  0
 38 91  1  0
M  END
>  <PDBID>  (1) 
4HLA

>  <PDB ID>  (1) 
4HLA

>  <Generic Name>  (1) 
Darunavir

>  <Brand Name>  (1) 
Pat-darunavir#Prezcobix#Prezista

>  <DrugBank ID>  (1) 
DB01264

>  <ATC Codes>  (1) 
J05AE10#J05AR14

>  <Ligand ID>  (1) 
017

>  <Target Name>  (1) 
Pol polyprotein

>  <UniProt ID>  (1) 
Q72874

>  <PDB ID.1>  (1) 
4HLA

>  <Seq. Identity>  (1) 
99%

$$$$
