PDB_DB00328_98
     RDKit          3D

 41 43  0  0  0  0  0  0  0  0999 V2000
   69.9830   14.9390    9.5340 C   0  0  0  0  0  0  0  0  0  0  0  0
   69.8040   13.9700   10.5480 C   0  0  0  0  0  0  0  0  0  0  0  0
   70.9430   13.3750   11.1770 C   0  0  0  0  0  0  0  0  0  0  0  0
   72.2720   13.7470   10.7940 C   0  0  0  0  0  0  0  0  0  0  0  0
   72.4590   14.7400    9.7560 C   0  0  0  0  0  0  0  0  0  0  0  0
   71.3220   15.3290    9.1290 C   0  0  0  0  0  0  0  0  0  0  0  0
   74.7180   13.3740   10.9090 C   0  0  0  0  0  0  0  0  0  0  0  0
   68.3220   13.8280   10.7100 C   0  0  0  0  0  0  0  0  0  0  0  0
   67.7420   14.6760    9.8400 C   0  0  0  0  0  0  0  0  0  0  0  0
   68.3480   16.1800    8.1280 C   0  0  0  0  0  0  0  0  0  0  0  0
   68.8630   17.6200    8.0610 C   0  0  0  0  0  0  0  0  0  0  0  0
   68.8020   18.3080    6.8320 C   0  0  0  0  0  0  0  0  0  0  0  0
   69.2640   19.6460    6.7170 C   0  0  0  0  0  0  0  0  0  0  0  0
   69.7850   20.2970    7.8250 C   0  0  0  0  0  0  0  0  0  0  0  0
   69.8540   19.6240    9.0650 C   0  0  0  0  0  0  0  0  0  0  0  0
   69.3880   18.2700    9.1860 C   0  0  0  0  0  0  0  0  0  0  0  0
   66.2810   14.8530    9.6780 C   0  0  0  0  0  0  0  0  0  0  0  0
   67.5890   12.8440   11.6270 C   0  0  0  0  0  0  0  0  0  0  0  0
   68.1980   12.7920   12.9980 C   0  0  0  0  0  0  0  0  0  0  0  0
   68.6540   15.3440    9.1240 N   0  0  0  0  0  0  0  0  0  0  0  0
   73.3740   13.1240   11.4220 O   0  0  0  0  0  0  0  0  0  0  0  0
   67.6110   15.7530    7.2340 O   0  0  0  0  0  0  0  0  0  0  0  0
   69.0670   13.5350   13.3090 O   0  0  0  0  0  0  0  0  0  0  0  0
   67.7490   11.9620   13.8770 O   0  0  0  0  0  0  0  0  0  0  0  0
   70.3130   21.9030    7.6830 Cl  0  0  0  0  0  0  0  0  0  0  0  0
   70.7961   12.6219   11.9652 H   0  0  0  0  0  0  0  0  0  0  0  0
   73.4735   15.0382    9.4529 H   0  0  0  0  0  0  0  0  0  0  0  0
   71.4592   16.0801    8.3372 H   0  0  0  0  0  0  0  0  0  0  0  0
   75.4137   13.5034   11.7512 H   0  0  0  0  0  0  0  0  0  0  0  0
   75.0406   12.5205   10.2947 H   0  0  0  0  0  0  0  0  0  0  0  0
   74.7121   14.2865   10.2947 H   0  0  0  0  0  0  0  0  0  0  0  0
   68.3898   17.8001    5.9476 H   0  0  0  0  0  0  0  0  0  0  0  0
   69.2086   20.1658    5.7492 H   0  0  0  0  0  0  0  0  0  0  0  0
   70.2673   20.1400    9.9442 H   0  0  0  0  0  0  0  0  0  0  0  0
   69.4429   17.7485   10.1530 H   0  0  0  0  0  0  0  0  0  0  0  0
   65.8065   14.9105   10.6687 H   0  0  0  0  0  0  0  0  0  0  0  0
   66.0835   15.7816    9.1224 H   0  0  0  0  0  0  0  0  0  0  0  0
   65.8675   13.9984    9.1224 H   0  0  0  0  0  0  0  0  0  0  0  0
   66.5385   13.1575   11.7168 H   0  0  0  0  0  0  0  0  0  0  0  0
   67.6685   11.8413   11.1818 H   0  0  0  0  0  0  0  0  0  0  0  0
   68.1533   11.9307   14.7802 H   0  0  0  0  0  0  0  0  0  0  0  0
  1  2  1  0
  2  3  2  0
  3  4  1  0
  4  5  2  0
  1  6  2  0
  5  6  1  0
  2  8  1  0
  8  9  2  0
 10 11  1  0
 11 12  2  0
 12 13  1  0
 13 14  2  0
 14 15  1  0
 11 16  1  0
 15 16  2  0
  9 17  1  0
  8 18  1  0
 18 19  1  0
  1 20  1  0
  9 20  1  0
 10 20  1  0
  4 21  1  0
  7 21  1  0
 10 22  2  0
 19 23  2  0
 19 24  1  0
 14 25  1  0
  3 26  1  0
  5 27  1  0
  6 28  1  0
  7 29  1  0
  7 30  1  0
  7 31  1  0
 12 32  1  0
 13 33  1  0
 15 34  1  0
 16 35  1  0
 17 36  1  0
 17 37  1  0
 17 38  1  0
 18 39  1  0
 18 40  1  0
 24 41  1  0
M  END
$$$$
