PDB_DB00862_98
     RDKit          3D

 66 69  0  0  0  0  0  0  0  0999 V2000
   63.8230   32.9420   25.6280 C   0  0  0  0  0  0  0  0  0  0  0  0
   64.1620   31.9110   24.5500 C   0  0  0  0  0  0  0  0  0  0  0  0
   63.6480   30.6330   24.9530 O   0  0  0  0  0  0  0  0  0  0  0  0
   63.8510   29.7010   23.9820 C   0  0  0  0  0  0  0  0  0  0  0  0
   65.0210   29.7160   23.2300 C   0  0  0  0  0  0  0  0  0  0  0  0
   65.2320   28.7420   22.2600 C   0  0  0  0  0  0  0  0  0  0  0  0
   64.2760   27.7560   22.0440 C   0  0  0  0  0  0  0  0  0  0  0  0
   63.1050   27.7390   22.7950 C   0  0  0  0  0  0  0  0  0  0  0  0
   62.8950   28.7150   23.7630 C   0  0  0  0  0  0  0  0  0  0  0  0
   64.5520   26.5670   20.7900 S   0  0  0  0  0  0  0  0  0  0  0  0
   65.3110   25.3980   21.3440 O   0  0  0  0  0  0  0  0  0  0  0  0
   63.2410   26.0830   20.2450 O   0  0  0  0  0  0  0  0  0  0  0  0
   64.6740   26.2540   14.5250 C   0  0  0  0  0  0  0  0  0  0  0  0
   65.4330   27.3080   19.6320 N   0  0  0  0  0  0  0  0  0  0  0  0
   66.3740   26.4010   18.9570 C   0  0  0  0  0  0  0  0  0  0  0  0
   65.6670   25.5320   17.9150 C   0  0  0  0  0  0  0  0  0  0  0  0
   64.9890   26.4040   16.9460 N   0  0  0  0  0  0  0  0  0  0  0  0
   63.9240   27.1200   17.6610 C   0  0  0  0  0  0  0  0  0  0  0  0
   64.5600   28.0430   18.7020 C   0  0  0  0  0  0  0  0  0  0  0  0
   64.4040   25.5860   15.8750 C   0  0  0  0  0  0  0  0  0  0  0  0
   61.7200   28.7100   24.5070 C   0  0  0  0  0  0  0  0  0  0  0  0
   60.9650   29.8840   24.6120 N   0  0  0  0  0  0  0  0  0  0  0  0
   59.7770   29.8350   25.3480 C   0  0  0  0  0  0  0  0  0  0  0  0
   59.4340   28.6220   25.9290 C   0  0  0  0  0  0  0  0  0  0  0  0
   60.2700   27.5140   25.7610 N   0  0  0  0  0  0  0  0  0  0  0  0
   61.3090   27.5800   25.1040 N   0  0  0  0  0  0  0  0  0  0  0  0
   59.0670   30.8320   25.4700 O   0  0  0  0  0  0  0  0  0  0  0  0
   58.3840   28.1870   26.7270 C   0  0  0  0  0  0  0  0  0  0  0  0
   58.5430   26.9050   27.0450 N   0  0  0  0  0  0  0  0  0  0  0  0
   59.6670   26.4730   26.4770 C   0  0  0  0  0  0  0  0  0  0  0  0
   57.2050   29.0530   27.1760 C   0  0  0  0  0  0  0  0  0  0  0  0
   60.2840   25.0760   26.5630 C   0  0  0  0  0  0  0  0  0  0  0  0
   61.4890   25.0630   27.5070 C   0  0  0  0  0  0  0  0  0  0  0  0
   61.1540   25.7290   28.8440 C   0  0  0  0  0  0  0  0  0  0  0  0
   63.9700   32.4948   26.6222 H   0  0  0  0  0  0  0  0  0  0  0  0
   64.4808   33.8168   25.5185 H   0  0  0  0  0  0  0  0  0  0  0  0
   62.7744   33.2557   25.5185 H   0  0  0  0  0  0  0  0  0  0  0  0
   63.7033   32.2096   23.5958 H   0  0  0  0  0  0  0  0  0  0  0  0
   65.2527   31.8508   24.4208 H   0  0  0  0  0  0  0  0  0  0  0  0
   65.7773   30.4960   23.4020 H   0  0  0  0  0  0  0  0  0  0  0  0
   66.1560   28.7518   21.6632 H   0  0  0  0  0  0  0  0  0  0  0  0
   62.3495   26.9579   22.6240 H   0  0  0  0  0  0  0  0  0  0  0  0
   65.0816   27.2623   14.6898 H   0  0  0  0  0  0  0  0  0  0  0  0
   65.4000   25.6534   13.9574 H   0  0  0  0  0  0  0  0  0  0  0  0
   63.7346   26.3265   13.9574 H   0  0  0  0  0  0  0  0  0  0  0  0
   67.1498   26.9990   18.4565 H   0  0  0  0  0  0  0  0  0  0  0  0
   66.8177   25.7384   19.7147 H   0  0  0  0  0  0  0  0  0  0  0  0
   66.4063   24.9061   17.3938 H   0  0  0  0  0  0  0  0  0  0  0  0
   64.9299   24.8830   18.4105 H   0  0  0  0  0  0  0  0  0  0  0  0
   63.3371   27.7171   16.9475 H   0  0  0  0  0  0  0  0  0  0  0  0
   63.2593   26.3987   18.1589 H   0  0  0  0  0  0  0  0  0  0  0  0
   63.7608   28.5329   19.2775 H   0  0  0  0  0  0  0  0  0  0  0  0
   65.1771   28.7814   18.1690 H   0  0  0  0  0  0  0  0  0  0  0  0
   63.3187   25.4977   16.0310 H   0  0  0  0  0  0  0  0  0  0  0  0
   64.8564   24.5834   15.8876 H   0  0  0  0  0  0  0  0  0  0  0  0
   61.8871   26.7329   25.0084 H   0  0  0  0  0  0  0  0  0  0  0  0
   57.1677   29.0804   28.2750 H   0  0  0  0  0  0  0  0  0  0  0  0
   57.3316   30.0744   26.7879 H   0  0  0  0  0  0  0  0  0  0  0  0
   56.2682   28.6267   26.7879 H   0  0  0  0  0  0  0  0  0  0  0  0
   59.5268   24.3713   26.9372 H   0  0  0  0  0  0  0  0  0  0  0  0
   60.6235   24.7815   25.5590 H   0  0  0  0  0  0  0  0  0  0  0  0
   61.7892   24.0208   27.6909 H   0  0  0  0  0  0  0  0  0  0  0  0
   62.3074   25.6255   27.0338 H   0  0  0  0  0  0  0  0  0  0  0  0
   61.4808   25.0793   29.6693 H   0  0  0  0  0  0  0  0  0  0  0  0
   61.6726   26.6967   28.9117 H   0  0  0  0  0  0  0  0  0  0  0  0
   60.0679   25.8895   28.9117 H   0  0  0  0  0  0  0  0  0  0  0  0
  1  2  1  0
  2  3  1  0
  3  4  1  0
  4  5  2  0
  5  6  1  0
  6  7  2  0
  7  8  1  0
  4  9  1  0
  8  9  2  0
  7 10  1  0
 10 11  2  0
 10 12  2  0
 10 14  1  0
 14 15  1  0
 15 16  1  0
 16 17  1  0
 17 18  1  0
 14 19  1  0
 18 19  1  0
 13 20  1  0
 17 20  1  0
  9 21  1  0
 21 22  2  0
 22 23  1  0
 23 24  1  0
 24 25  1  0
 21 26  1  0
 25 26  1  0
 23 27  2  0
 24 28  2  0
 28 29  1  0
 25 30  1  0
 29 30  2  0
 28 31  1  0
 30 32  1  0
 32 33  1  0
 33 34  1  0
  1 35  1  0
  1 36  1  0
  1 37  1  0
  2 38  1  0
  2 39  1  0
  5 40  1  0
  6 41  1  0
  8 42  1  0
 13 43  1  0
 13 44  1  0
 13 45  1  0
 15 46  1  0
 15 47  1  0
 16 48  1  0
 16 49  1  0
 18 50  1  0
 18 51  1  0
 19 52  1  0
 19 53  1  0
 20 54  1  0
 20 55  1  0
 26 56  1  0
 31 57  1  0
 31 58  1  0
 31 59  1  0
 32 60  1  0
 32 61  1  0
 33 62  1  0
 33 63  1  0
 34 64  1  0
 34 65  1  0
 34 66  1  0
M  END
$$$$
