PDB_DB00284_96
     RDKit          3D

 87 90  0  0  0  0  0  0  0  0999 V2000
   -0.3490   -7.1380  -21.4430 C   0  0  2  0  0  0  0  0  0  0  0  0
    0.0340   -8.3470  -22.3050 C   0  0  1  0  0  0  0  0  0  0  0  0
   -1.1300   -8.7660  -23.1940 C   0  0  2  0  0  0  0  0  0  0  0  0
   -2.2770   -9.2750  -22.3390 C   0  0  1  0  0  0  0  0  0  0  0  0
   -2.5480   -8.3310  -21.1970 C   0  0  1  0  0  0  0  0  0  0  0  0
   -3.8160   -8.4590  -20.3880 C   0  0  0  0  0  0  0  0  0  0  0  0
   -1.6870   -7.3830  -20.8020 C   0  0  0  0  0  0  0  0  0  0  0  0
    1.2260   -8.0630  -23.0480 O   0  0  0  0  0  0  0  0  0  0  0  0
   -0.7710   -9.8590  -24.0440 O   0  0  0  0  0  0  0  0  0  0  0  0
   -3.4230   -9.4390  -23.1650 O   0  0  0  0  0  0  0  0  0  0  0  0
   -3.6600   -9.6010  -19.5540 O   0  0  0  0  0  0  0  0  0  0  0  0
   -0.6040   -1.7350  -20.7580 C   0  0  2  0  0  0  0  0  0  0  0  0
    0.3270   -2.6930  -20.0370 C   0  0  1  0  0  0  0  0  0  0  0  0
    0.6480   -3.8830  -20.9390 C   0  0  2  0  0  0  0  0  0  0  0  0
   -0.6360   -4.5920  -21.3330 C   0  0  1  0  0  0  0  0  0  0  0  0
   -1.5090   -3.5720  -22.0630 C   0  0  1  0  0  0  0  0  0  0  0  0
   -2.8820   -4.1410  -22.4010 C   0  0  0  0  0  0  0  0  0  0  0  0
   -0.4240   -5.8250  -22.1330 N   0  0  0  0  0  0  0  0  0  0  0  0
    1.5140   -1.9910  -19.6550 O   0  0  0  0  0  0  0  0  0  0  0  0
    1.4650   -4.8010  -20.2230 O   0  0  0  0  0  0  0  0  0  0  0  0
   -1.7470   -2.4340  -21.2290 O   0  0  0  0  0  0  0  0  0  0  0  0
   -0.2840    2.3270  -24.0990 C   0  0  2  0  0  0  0  0  0  0  0  0
   -1.0320    2.2470  -22.7910 C   0  0  1  0  0  0  0  0  0  0  0  0
   -0.4260    1.2180  -21.8580 C   0  0  2  0  0  0  0  0  0  0  0  0
   -0.4990   -0.1310  -22.5720 C   0  0  1  0  0  0  0  0  0  0  0  0
    0.2610   -0.0320  -23.8840 C   0  0  1  0  0  0  0  0  0  0  0  0
    0.2050   -1.3270  -24.6920 C   0  0  0  0  0  0  0  0  0  0  0  0
   -0.9740    3.5420  -22.1680 O   0  0  0  0  0  0  0  0  0  0  0  0
   -1.0970    1.2020  -20.5910 O   0  0  0  0  0  0  0  0  0  0  0  0
    0.1420   -1.1700  -21.8320 O   0  0  0  0  0  0  0  0  0  0  0  0
   -0.2150    1.0480  -24.7100 O   0  0  0  0  0  0  0  0  0  0  0  0
   -1.1400   -1.7100  -25.0030 O   0  0  0  0  0  0  0  0  0  0  0  0
    3.9880    4.6510  -26.2020 C   0  0  0  0  0  3  0  0  0  0  0  0
    2.5300    5.0830  -26.3840 C   0  0  1  0  0  0  0  0  0  0  0  0
    1.6260    4.6900  -25.2230 C   0  0  2  0  0  0  0  0  0  0  0  0
    1.7590    3.2000  -24.9740 C   0  0  1  0  0  0  0  0  0  0  0  0
    3.2380    2.9310  -24.7350 C   0  0  1  0  0  0  0  0  0  0  0  0
    3.5100    1.4700  -24.4080 C   0  0  0  0  0  0  0  0  0  0  0  0
    2.4650    6.5140  -26.5330 O   0  0  0  0  0  0  0  0  0  0  0  0
    0.2710    5.0410  -25.5460 O   0  0  0  0  0  0  0  0  0  0  0  0
    1.0370    2.7900  -23.8170 O   0  0  0  0  0  0  0  0  0  0  0  0
    4.0020    3.2650  -25.8940 O   0  0  0  0  0  0  0  0  0  0  0  0
    4.8920    1.2660  -24.0840 O   0  0  0  0  0  0  0  0  0  0  0  0
    0.4000   -7.0530  -20.6440 H   0  0  0  0  0  0  0  0  0  0  0  0
    0.2420   -9.1830  -21.6230 H   0  0  0  0  0  0  0  0  0  0  0  0
   -1.4680   -7.9060  -23.7880 H   0  0  0  0  0  0  0  0  0  0  0  0
   -1.9880  -10.2510  -21.9250 H   0  0  0  0  0  0  0  0  0  0  0  0
   -4.6760   -8.5870  -21.0490 H   0  0  0  0  0  0  0  0  0  0  0  0
   -3.9700   -7.5640  -19.7810 H   0  0  0  0  0  0  0  0  0  0  0  0
   -1.9690   -6.7620  -19.9680 H   0  0  0  0  0  0  0  0  0  0  0  0
    1.5060   -8.8560  -23.5240 H   0  0  0  0  0  0  0  0  0  0  0  0
   -1.5260  -10.0980  -24.5980 H   0  0  0  0  0  0  0  0  0  0  0  0
   -4.1550   -9.7870  -22.6370 H   0  0  0  0  0  0  0  0  0  0  0  0
   -4.4550   -9.7190  -19.0160 H   0  0  0  0  0  0  0  0  0  0  0  0
   -0.9100   -0.9450  -20.0580 H   0  0  0  0  0  0  0  0  0  0  0  0
   -0.1850   -3.0660  -19.1390 H   0  0  0  0  0  0  0  0  0  0  0  0
    1.1640   -3.5290  -21.8430 H   0  0  0  0  0  0  0  0  0  0  0  0
   -1.1570   -4.8760  -20.4080 H   0  0  0  0  0  0  0  0  0  0  0  0
   -1.0080   -3.2650  -22.9910 H   0  0  0  0  0  0  0  0  0  0  0  0
   -3.4820   -3.3820  -22.8330 H   0  0  0  0  0  0  0  0  0  0  0  0
   -3.3440   -4.4970  -21.5180 H   0  0  0  0  0  0  0  0  0  0  0  0
   -2.7730   -4.9390  -23.0890 H   0  0  0  0  0  0  0  0  0  0  0  0
   -0.3310   -5.7710  -23.1370 H   0  0  0  0  0  0  0  0  0  0  0  0
    1.2770   -1.2420  -19.0890 H   0  0  0  0  0  0  0  0  0  0  0  0
    2.2860   -4.3630  -19.9580 H   0  0  0  0  0  0  0  0  0  0  0  0
   -0.7990    3.0360  -24.7620 H   0  0  0  0  0  0  0  0  0  0  0  0
   -2.0770    1.9730  -22.9940 H   0  0  0  0  0  0  0  0  0  0  0  0
    0.6320    1.4710  -21.7070 H   0  0  0  0  0  0  0  0  0  0  0  0
   -1.5480   -0.3880  -22.7730 H   0  0  0  0  0  0  0  0  0  0  0  0
    1.3160    0.1560  -23.6380 H   0  0  0  0  0  0  0  0  0  0  0  0
    0.6860   -2.1260  -24.1240 H   0  0  0  0  0  0  0  0  0  0  0  0
    0.7660   -1.1960  -25.6200 H   0  0  0  0  0  0  0  0  0  0  0  0
   -1.3570    4.2020  -22.7610 H   0  0  0  0  0  0  0  0  0  0  0  0
   -1.0310    2.0750  -20.1800 H   0  0  0  0  0  0  0  0  0  0  0  0
   -1.1310   -2.5320  -25.5140 H   0  0  0  0  0  0  0  0  0  0  0  0
    2.1440    4.6060  -27.2960 H   0  0  0  0  0  0  0  0  0  0  0  0
    1.9490    5.2310  -24.3230 H   0  0  0  0  0  0  0  0  0  0  0  0
    1.4220    2.6450  -25.8610 H   0  0  0  0  0  0  0  0  0  0  0  0
    3.5700    3.5440  -23.8850 H   0  0  0  0  0  0  0  0  0  0  0  0
    3.2410    0.8490  -25.2660 H   0  0  0  0  0  0  0  0  0  0  0  0
    2.8880    1.1630  -23.5640 H   0  0  0  0  0  0  0  0  0  0  0  0
    3.0370    6.7890  -27.2630 H   0  0  0  0  0  0  0  0  0  0  0  0
    0.2140    5.9920  -25.7080 H   0  0  0  0  0  0  0  0  0  0  0  0
    5.0410    0.3320  -23.8810 H   0  0  0  0  0  0  0  0  0  0  0  0
   -3.0578   -7.6425  -21.8871 H   0  0  0  0  0  0  0  0  0  0  0  0
   -2.1516   -6.6704  -21.4994 H   0  0  0  0  0  0  0  0  0  0  0  0
    4.5493    4.8324  -27.1305 H   0  0  0  0  0  0  0  0  0  0  0  0
  1  2  1  0
  2  3  1  0
  3  4  1  0
  4  5  1  0
  5  6  1  0
  1  7  1  0
  5  7  1  0
  2  8  1  0
  3  9  1  0
  4 10  1  0
  6 11  1  0
 12 13  1  0
 13 14  1  0
 14 15  1  0
 15 16  1  0
 16 17  1  0
  1 18  1  0
 15 18  1  0
 13 19  1  0
 14 20  1  0
 12 21  1  0
 16 21  1  0
 22 23  1  0
 23 24  1  0
 24 25  1  0
 25 26  1  0
 26 27  1  0
 23 28  1  0
 24 29  1  0
 12 30  1  0
 25 30  1  0
 22 31  1  0
 26 31  1  0
 27 32  1  0
 33 34  1  0
 34 35  1  0
 35 36  1  0
 36 37  1  0
 37 38  1  0
 34 39  1  0
 35 40  1  0
 22 41  1  0
 36 41  1  0
 33 42  1  0
 37 42  1  0
 38 43  1  0
  1 44  1  1
  2 45  1  1
  3 46  1  6
  4 47  1  1
  6 48  1  0
  6 49  1  0
  7 50  1  0
  8 51  1  0
  9 52  1  0
 10 53  1  0
 11 54  1  0
 12 55  1  1
 13 56  1  1
 14 57  1  6
 15 58  1  1
 16 59  1  6
 17 60  1  0
 17 61  1  0
 17 62  1  0
 18 63  1  0
 19 64  1  0
 20 65  1  0
 22 66  1  6
 23 67  1  6
 24 68  1  1
 25 69  1  6
 26 70  1  1
 27 71  1  0
 27 72  1  0
 28 73  1  0
 29 74  1  0
 32 75  1  0
 34 76  1  6
 35 77  1  1
 36 78  1  6
 37 79  1  1
 38 80  1  0
 38 81  1  0
 39 82  1  0
 40 83  1  0
 43 84  1  0
  5 85  1  6
  7 86  1  0
 33 87  1  1
M  RAD  1  33   2
M  END
>  <PDBID>  (1) 
3WEO

>  <PDB ID>  (1) 
3WEO

>  <Generic Name>  (1) 
Acarbose

>  <Brand Name>  (1) 
Acarbose#Glucobay#Precose#Prandase

>  <DrugBank ID>  (1) 
DB00284

>  <ATC Codes>  (1) 
A10BF01#A10BD17

>  <Ligand ID>  (1) 
ACR,QPS

>  <Target Name>  (1) 
Lysosomal alpha-glucosidase

>  <UniProt ID>  (1) 
P10253

>  <PDB ID.1>  (1) 
3WEO

>  <Seq. Identity>  (1) 
39%

$$$$
