PDB_DB00552_98
     RDKit          3D

 35 37  0  0  0  0  0  0  0  0999 V2000
   28.5610   68.8830  100.7220 N   0  0  0  0  0  0  0  0  0  0  0  0
   29.0600   68.2780   99.6660 C   0  0  0  0  0  0  0  0  0  0  0  0
   30.3600   67.9650   99.8440 N   0  0  0  0  0  0  0  0  0  0  0  0
   29.5980   68.9510  101.6430 C   0  0  0  0  0  0  0  0  0  0  0  0
   30.7260   68.3990  101.1300 C   0  0  0  0  0  0  0  0  0  0  0  0
   32.0690   68.5700  101.3810 N   0  0  0  0  0  0  0  0  0  0  0  0
   32.4980   69.0220  102.4980 C   0  0  0  0  0  0  0  0  0  0  0  0
   31.8110   69.4290  103.5770 N   0  0  0  0  0  0  0  0  0  0  0  0
   30.4360   69.1070  103.9590 C   0  0  0  0  0  0  0  0  0  0  0  0
   29.4080   69.5820  102.9590 C   0  0  1  0  0  0  0  0  0  0  0  0
   29.4360   71.1850  102.9220 O   0  0  0  0  0  0  0  0  0  0  0  0
   30.5360   65.9900   98.2370 C   0  0  0  0  0  0  0  0  0  0  0  0
   30.3220   66.4270   96.8110 C   0  0  2  0  0  0  0  0  0  0  0  0
   30.4670   65.3150   95.9160 O   0  0  0  0  0  0  0  0  0  0  0  0
   29.8700   68.9300   95.5390 O   0  0  0  0  0  0  0  0  0  0  0  0
   31.1570   68.3630   95.4310 C   0  0  0  0  0  0  0  0  0  0  0  0
   31.4490   67.4310   96.6050 C   0  0  1  0  0  0  0  0  0  0  0  0
   31.5900   68.1270   97.8560 O   0  0  0  0  0  0  0  0  0  0  0  0
   31.2170   67.2120   98.9130 C   0  0  1  0  0  0  0  0  0  0  0  0
   28.4890   68.0553   98.7526 H   0  0  0  0  0  0  0  0  0  0  0  0
   33.5924   69.0868  102.5877 H   0  0  0  0  0  0  0  0  0  0  0  0
   32.3196   70.0507  104.2218 H   0  0  0  0  0  0  0  0  0  0  0  0
   30.3482   68.0149  104.0572 H   0  0  0  0  0  0  0  0  0  0  0  0
   30.2320   69.6277  104.9063 H   0  0  0  0  0  0  0  0  0  0  0  0
   28.4002   69.2695  103.2701 H   0  0  0  0  0  0  0  0  0  0  0  0
   29.4421   71.5364  103.8475 H   0  0  0  0  0  0  0  0  0  0  0  0
   29.5761   65.7604   98.7227 H   0  0  0  0  0  0  0  0  0  0  0  0
   31.1432   65.0757   98.3105 H   0  0  0  0  0  0  0  0  0  0  0  0
   29.3207   66.8406   96.6201 H   0  0  0  0  0  0  0  0  0  0  0  0
   30.5756   64.4819   96.4397 H   0  0  0  0  0  0  0  0  0  0  0  0
   29.6343   69.0338   96.4949 H   0  0  0  0  0  0  0  0  0  0  0  0
   31.2195   67.7904   94.4939 H   0  0  0  0  0  0  0  0  0  0  0  0
   31.8980   69.1759   95.4384 H   0  0  0  0  0  0  0  0  0  0  0  0
   32.3946   66.9371   96.3369 H   0  0  0  0  0  0  0  0  0  0  0  0
   32.0585   66.8177   99.5016 H   0  0  0  0  0  0  0  0  0  0  0  0
  1  2  2  0
  2  3  1  0
  1  4  1  0
  3  5  1  0
  4  5  2  0
  5  6  1  0
  6  7  2  0
  7  8  1  0
  8  9  1  0
  4 10  1  0
  9 10  1  0
 10 11  1  0
 12 13  1  0
 13 14  1  0
 15 16  1  0
 13 17  1  0
 16 17  1  0
 17 18  1  0
  3 19  1  0
 12 19  1  0
 18 19  1  0
  2 20  1  0
  7 21  1  0
  8 22  1  0
  9 23  1  0
  9 24  1  0
 10 25  1  1
 11 26  1  0
 12 27  1  0
 12 28  1  0
 13 29  1  1
 14 30  1  0
 15 31  1  0
 16 32  1  0
 16 33  1  0
 17 34  1  6
 19 35  1  1
M  END
$$$$
