PDB_DB00619_98
     RDKit          3D

 94 98  0  0  0  0  0  0  0  0999 V2000
   29.2840   13.4000   73.1940 C   0  0  0  0  0  0  0  0  0  0  0  0
   30.4790   14.0240   73.4580 C   0  0  0  0  0  0  0  0  0  0  0  0
   31.6820   13.4250   73.1330 C   0  0  0  0  0  0  0  0  0  0  0  0
   31.6000   12.1850   72.5520 C   0  0  0  0  0  0  0  0  0  0  0  0
   30.4680   11.5460   72.2750 N   0  0  0  0  0  0  0  0  0  0  0  0
   29.3450   12.1750   72.6070 C   0  0  0  0  0  0  0  0  0  0  0  0
   32.9720   14.0310   73.3980 C   0  0  0  0  0  0  0  0  0  0  0  0
   33.1530   15.2300   74.0120 C   0  0  0  0  0  0  0  0  0  0  0  0
   34.4420   15.6280   74.1760 C   0  0  0  0  0  0  0  0  0  0  0  0
   35.4900   14.9230   73.7940 N   0  0  0  0  0  0  0  0  0  0  0  0
   35.2330   13.7630   73.2110 C   0  0  0  0  0  0  0  0  0  0  0  0
   34.0070   13.2980   73.0030 N   0  0  0  0  0  0  0  0  0  0  0  0
   36.2580   12.9480   72.7770 N   0  0  0  0  0  0  0  0  0  0  0  0
   37.6320   13.1740   72.8270 C   0  0  0  0  0  0  0  0  0  0  0  0
   38.2230   13.6620   71.6510 C   0  0  0  0  0  0  0  0  0  0  0  0
   39.5820   13.9350   71.6140 C   0  0  0  0  0  0  0  0  0  0  0  0
   40.3500   13.7330   72.7320 C   0  0  0  0  0  0  0  0  0  0  0  0
   39.7850   13.2480   73.8990 C   0  0  0  0  0  0  0  0  0  0  0  0
   38.4300   12.9720   73.9590 C   0  0  0  0  0  0  0  0  0  0  0  0
   40.6560   13.0950   74.9660 N   0  0  0  0  0  0  0  0  0  0  0  0
   40.4450   12.3070   76.0320 C   0  0  0  0  0  0  0  0  0  0  0  0
   41.6070   12.1950   76.9310 C   0  0  0  0  0  0  0  0  0  0  0  0
   42.7790   12.8770   76.6630 C   0  0  0  0  0  0  0  0  0  0  0  0
   43.8620   12.7660   77.5010 C   0  0  0  0  0  0  0  0  0  0  0  0
   43.7920   11.9750   78.6280 C   0  0  0  0  0  0  0  0  0  0  0  0
   42.6230   11.2850   78.9030 C   0  0  0  0  0  0  0  0  0  0  0  0
   41.5320   11.3960   78.0580 C   0  0  0  0  0  0  0  0  0  0  0  0
   44.9760   11.8890   79.5310 C   0  0  0  0  0  0  0  0  0  0  0  0
   45.5040   13.1920   79.9260 N   0  0  0  0  0  0  0  0  0  0  0  0
   46.7910   13.0480   80.5960 C   0  0  0  0  0  0  0  0  0  0  0  0
   47.3320   14.3980   81.0410 C   0  0  0  0  0  0  0  0  0  0  0  0
   46.3350   15.1550   81.7740 N   0  0  0  0  0  0  0  0  0  0  0  0
   46.8190   16.4580   82.1630 C   0  0  0  0  0  0  0  0  0  0  0  0
   45.0660   15.2620   81.0790 C   0  0  0  0  0  0  0  0  0  0  0  0
   44.5410   13.8720   80.7660 C   0  0  0  0  0  0  0  0  0  0  0  0
   39.4300   11.7190   76.2540 O   0  0  0  0  0  0  0  0  0  0  0  0
   37.4040   13.8980   70.4240 C   0  0  0  0  0  0  0  0  0  0  0  0
   28.7516   13.2842   74.1496 H   0  0  0  0  0  0  0  0  0  0  0  0
   28.7806   14.0450   72.4587 H   0  0  0  0  0  0  0  0  0  0  0  0
   30.4542   14.9857   72.9245 H   0  0  0  0  0  0  0  0  0  0  0  0
   30.5059   14.0400   74.5576 H   0  0  0  0  0  0  0  0  0  0  0  0
   31.7175   12.9566   74.1277 H   0  0  0  0  0  0  0  0  0  0  0  0
   32.1280   12.2759   71.5913 H   0  0  0  0  0  0  0  0  0  0  0  0
   31.9869   11.5577   73.3685 H   0  0  0  0  0  0  0  0  0  0  0  0
   30.4440   11.3741   71.2597 H   0  0  0  0  0  0  0  0  0  0  0  0
   28.8186   11.4943   73.2922 H   0  0  0  0  0  0  0  0  0  0  0  0
   28.9467   12.4118   71.6094 H   0  0  0  0  0  0  0  0  0  0  0  0
   32.9351   14.5365   72.4217 H   0  0  0  0  0  0  0  0  0  0  0  0
   32.6382   15.9957   73.4130 H   0  0  0  0  0  0  0  0  0  0  0  0
   32.7499   15.1061   75.0280 H   0  0  0  0  0  0  0  0  0  0  0  0
   34.5246   16.5914   73.6515 H   0  0  0  0  0  0  0  0  0  0  0  0
   34.5397   15.5680   75.2700 H   0  0  0  0  0  0  0  0  0  0  0  0
   36.0289   15.4962   73.1293 H   0  0  0  0  0  0  0  0  0  0  0  0
   35.2554   13.2652   74.1916 H   0  0  0  0  0  0  0  0  0  0  0  0
   33.9398   12.3920   73.4883 H   0  0  0  0  0  0  0  0  0  0  0  0
   36.1231   12.0674   73.2940 H   0  0  0  0  0  0  0  0  0  0  0  0
   37.8139   12.1427   72.4904 H   0  0  0  0  0  0  0  0  0  0  0  0
   38.0248   14.6930   71.9792 H   0  0  0  0  0  0  0  0  0  0  0  0
   40.0104   13.3101   70.8166 H   0  0  0  0  0  0  0  0  0  0  0  0
   39.6185   15.0255   71.4742 H   0  0  0  0  0  0  0  0  0  0  0  0
   41.1399   13.0227   72.4465 H   0  0  0  0  0  0  0  0  0  0  0  0
   40.6507   14.7537   73.0108 H   0  0  0  0  0  0  0  0  0  0  0  0
   39.5900   14.2779   74.2326 H   0  0  0  0  0  0  0  0  0  0  0  0
   38.0117   13.5985   74.7606 H   0  0  0  0  0  0  0  0  0  0  0  0
   38.3960   11.8824   74.1063 H   0  0  0  0  0  0  0  0  0  0  0  0
   41.5395   12.7645   74.5524 H   0  0  0  0  0  0  0  0  0  0  0  0
   40.8033   11.4380   75.4606 H   0  0  0  0  0  0  0  0  0  0  0  0
   41.9739   11.3362   76.3498 H   0  0  0  0  0  0  0  0  0  0  0  0
   43.1152   12.5457   75.6694 H   0  0  0  0  0  0  0  0  0  0  0  0
   42.4831   13.9297   76.7825 H   0  0  0  0  0  0  0  0  0  0  0  0
   44.6930   12.3779   76.8937 H   0  0  0  0  0  0  0  0  0  0  0  0
   43.9623   13.7804   77.9143 H   0  0  0  0  0  0  0  0  0  0  0  0
   43.4216   12.8335   79.2075 H   0  0  0  0  0  0  0  0  0  0  0  0
   42.8870   10.2178   78.9402 H   0  0  0  0  0  0  0  0  0  0  0  0
   42.2682   11.7547   79.8322 H   0  0  0  0  0  0  0  0  0  0  0  0
   40.6987   11.7803   78.6645 H   0  0  0  0  0  0  0  0  0  0  0  0
   41.4306   10.3826   77.6425 H   0  0  0  0  0  0  0  0  0  0  0  0
   44.6820   11.3427   80.4394 H   0  0  0  0  0  0  0  0  0  0  0  0
   45.7715   11.3736   78.9728 H   0  0  0  0  0  0  0  0  0  0  0  0
   46.6664   12.4027   81.4781 H   0  0  0  0  0  0  0  0  0  0  0  0
   47.5050   12.6022   79.8879 H   0  0  0  0  0  0  0  0  0  0  0  0
   48.2061   14.2368   81.6891 H   0  0  0  0  0  0  0  0  0  0  0  0
   47.6098   14.9711   80.1441 H   0  0  0  0  0  0  0  0  0  0  0  0
   46.8446   16.5270   83.2605 H   0  0  0  0  0  0  0  0  0  0  0  0
   47.8326   16.6073   81.7625 H   0  0  0  0  0  0  0  0  0  0  0  0
   46.1487   17.2327   81.7625 H   0  0  0  0  0  0  0  0  0  0  0  0
   44.3427   15.7922   81.7160 H   0  0  0  0  0  0  0  0  0  0  0  0
   45.2075   15.8200   80.1416 H   0  0  0  0  0  0  0  0  0  0  0  0
   43.5788   13.9495   80.2385 H   0  0  0  0  0  0  0  0  0  0  0  0
   44.3921   13.3081   81.6987 H   0  0  0  0  0  0  0  0  0  0  0  0
   39.2996   11.6435   77.2325 H   0  0  0  0  0  0  0  0  0  0  0  0
   36.3845   14.1918   70.7145 H   0  0  0  0  0  0  0  0  0  0  0  0
   37.8609   14.7010   69.8270 H   0  0  0  0  0  0  0  0  0  0  0  0
   37.3635   12.9750   69.8270 H   0  0  0  0  0  0  0  0  0  0  0  0
  1  2  1  0
  2  3  1  0
  3  4  1  0
  4  5  1  0
  1  6  1  0
  5  6  1  0
  3  7  1  0
  7  8  1  0
  8  9  1  0
  9 10  1  0
 10 11  1  0
  7 12  1  0
 11 12  1  0
 11 13  1  0
 13 14  1  0
 14 15  1  0
 15 16  1  0
 16 17  1  0
 17 18  1  0
 14 19  1  0
 18 19  1  0
 18 20  1  0
 20 21  1  0
 21 22  1  0
 22 23  1  0
 23 24  1  0
 24 25  1  0
 25 26  1  0
 22 27  1  0
 26 27  1  0
 25 28  1  0
 28 29  1  0
 29 30  1  0
 30 31  1  0
 31 32  1  0
 32 33  1  0
 32 34  1  0
 29 35  1  0
 34 35  1  0
 21 36  1  0
 15 37  1  0
  1 38  1  0
  1 39  1  0
  2 40  1  0
  2 41  1  0
  3 42  1  0
  4 43  1  0
  4 44  1  0
  5 45  1  0
  6 46  1  0
  6 47  1  0
  7 48  1  0
  8 49  1  0
  8 50  1  0
  9 51  1  0
  9 52  1  0
 10 53  1  0
 11 54  1  0
 12 55  1  0
 13 56  1  0
 14 57  1  0
 15 58  1  0
 16 59  1  0
 16 60  1  0
 17 61  1  0
 17 62  1  0
 18 63  1  0
 19 64  1  0
 19 65  1  0
 20 66  1  0
 21 67  1  0
 22 68  1  0
 23 69  1  0
 23 70  1  0
 24 71  1  0
 24 72  1  0
 25 73  1  0
 26 74  1  0
 26 75  1  0
 27 76  1  0
 27 77  1  0
 28 78  1  0
 28 79  1  0
 30 80  1  0
 30 81  1  0
 31 82  1  0
 31 83  1  0
 33 84  1  0
 33 85  1  0
 33 86  1  0
 34 87  1  0
 34 88  1  0
 35 89  1  0
 35 90  1  0
 36 91  1  0
 37 92  1  0
 37 93  1  0
 37 94  1  0
M  END
>  <PDBID>  (1) 
4R7I

>  <PDB ID>  (1) 
4R7I

>  <Generic Name>  (1) 
Imatinib

>  <Brand Name>  (1) 
Apo-imatinib#Gleevec#Imatinib Mesylate#Mylan-imatinib#Nat-imatinib#PMS-imatinib#Ran-imatinib#Teva-imatinib#Celonib#Enliven#Glivec#Imatib#Mesylonib#Mitinab#Plivatinib#Shantinib

>  <DrugBank ID>  (1) 
DB00619

>  <ATC Codes>  (1) 
L01XE01

>  <Ligand ID>  (1) 
STI

>  <Target Name>  (1) 
Mast/stem cell growth factor receptor Kit

>  <UniProt ID>  (1) 
P10721

>  <PDB ID.1>  (1) 
4R7I

>  <Seq. Identity>  (1) 
59%

$$$$
