PDB_DB00140_97
     RDKit          3D

 47 49  0  0  0  0  0  0  0  0999 V2000
  -17.9910   -3.3030   35.7990 N   0  0  0  0  0  0  0  0  0  0  0  0
  -18.6640   -2.7940   36.8210 C   0  0  0  0  0  0  0  0  0  0  0  0
  -19.4820   -3.4540   37.4530 O   0  0  0  0  0  0  0  0  0  0  0  0
  -18.4500   -1.4200   37.2280 N   0  0  0  0  0  0  0  0  0  0  0  0
  -17.5470   -0.5730   36.5890 C   0  0  0  0  0  0  0  0  0  0  0  0
  -17.4360    0.5100   36.9790 O   0  0  0  0  0  0  0  0  0  0  0  0
  -16.7850   -1.1120   35.4480 C   0  0  0  0  0  0  0  0  0  0  0  0
  -15.8780   -0.3350   34.7740 N   0  0  0  0  0  0  0  0  0  0  0  0
  -15.1960   -0.8910   33.7100 C   0  0  0  0  0  0  0  0  0  0  0  0
  -14.2470   -0.0380   33.0250 C   0  0  0  0  0  0  0  0  0  0  0  0
  -13.5010   -0.5030   31.9350 C   0  0  0  0  0  0  0  0  0  0  0  0
  -12.5280    0.4300   31.2560 C   0  0  0  0  0  0  0  0  0  0  0  0
  -13.6690   -1.8960   31.4610 C   0  0  0  0  0  0  0  0  0  0  0  0
  -12.8840   -2.4290   30.2950 C   0  0  0  0  0  0  0  0  0  0  0  0
  -14.6050   -2.7820   32.1190 C   0  0  0  0  0  0  0  0  0  0  0  0
  -15.3790   -2.3050   33.2470 C   0  0  0  0  0  0  0  0  0  0  0  0
  -16.3670   -3.1000   34.0140 N   0  0  0  0  0  0  0  0  0  0  0  0
  -17.0530   -2.5300   35.0830 C   0  0  0  0  0  0  0  0  0  0  0  0
  -16.7070   -4.5980   33.7310 C   0  0  0  0  0  0  0  0  0  0  0  0
  -17.0870   -5.2380   32.3370 C   0  0  2  0  0  0  0  0  0  0  0  0
  -17.8060   -4.2830   31.6180 O   0  0  0  0  0  0  0  0  0  0  0  0
  -17.9750   -6.5250   32.5550 C   0  0  2  0  0  0  0  0  0  0  0  0
  -19.1750   -6.1810   33.2700 O   0  0  0  0  0  0  0  0  0  0  0  0
  -17.1740   -7.6220   33.3640 C   0  0  2  0  0  0  0  0  0  0  0  0
  -15.9720   -7.9740   32.6290 O   0  0  0  0  0  0  0  0  0  0  0  0
  -18.0320   -8.9010   33.5910 C   0  0  0  0  0  0  0  0  0  0  0  0
  -17.1280   -9.9770   34.4320 O   0  0  0  0  0  0  0  0  0  0  0  0
  -18.9894   -1.0531   38.0251 H   0  0  0  0  0  0  0  0  0  0  0  0
  -14.1092    0.9979   33.3685 H   0  0  0  0  0  0  0  0  0  0  0  0
  -11.9549    0.9795   32.0173 H   0  0  0  0  0  0  0  0  0  0  0  0
  -11.8384   -0.1531   30.6279 H   0  0  0  0  0  0  0  0  0  0  0  0
  -13.0816    1.1435   30.6279 H   0  0  0  0  0  0  0  0  0  0  0  0
  -12.0270   -3.0109   30.6652 H   0  0  0  0  0  0  0  0  0  0  0  0
  -13.5298   -3.0761   29.6833 H   0  0  0  0  0  0  0  0  0  0  0  0
  -12.5208   -1.5900   29.6833 H   0  0  0  0  0  0  0  0  0  0  0  0
  -14.7286   -3.8156   31.7634 H   0  0  0  0  0  0  0  0  0  0  0  0
  -15.8229   -5.1585   34.0690 H   0  0  0  0  0  0  0  0  0  0  0  0
  -17.6880   -4.6540   34.2255 H   0  0  0  0  0  0  0  0  0  0  0  0
  -16.1800   -5.5352   31.7902 H   0  0  0  0  0  0  0  0  0  0  0  0
  -18.2654   -3.6727   32.2478 H   0  0  0  0  0  0  0  0  0  0  0  0
  -18.2411   -6.9333   31.5689 H   0  0  0  0  0  0  0  0  0  0  0  0
  -19.0043   -6.2299   34.2439 H   0  0  0  0  0  0  0  0  0  0  0  0
  -16.9144   -7.2044   34.3480 H   0  0  0  0  0  0  0  0  0  0  0  0
  -15.2455   -8.1868   33.2670 H   0  0  0  0  0  0  0  0  0  0  0  0
  -18.9366   -8.6466   34.1627 H   0  0  0  0  0  0  0  0  0  0  0  0
  -18.3373   -9.3315   32.6259 H   0  0  0  0  0  0  0  0  0  0  0  0
  -17.2542   -9.8268   35.4024 H   0  0  0  0  0  0  0  0  0  0  0  0
  1  2  1  0
  2  3  2  0
  2  4  1  0
  4  5  1  0
  5  6  2  0
  5  7  1  0
  7  8  2  0
  8  9  1  0
  9 10  2  0
 10 11  1  0
 11 12  1  0
 11 13  2  0
 13 14  1  0
 13 15  1  0
  9 16  1  0
 15 16  2  0
 16 17  1  0
  1 18  2  0
  7 18  1  0
 17 18  1  0
 17 19  1  0
 19 20  1  0
 20 21  1  0
 20 22  1  0
 22 23  1  0
 22 24  1  0
 24 25  1  0
 24 26  1  0
 26 27  1  0
  4 28  1  0
 10 29  1  0
 12 30  1  0
 12 31  1  0
 12 32  1  0
 14 33  1  0
 14 34  1  0
 14 35  1  0
 15 36  1  0
 19 37  1  0
 19 38  1  0
 20 39  1  6
 21 40  1  0
 22 41  1  6
 23 42  1  0
 24 43  1  1
 25 44  1  0
 26 45  1  0
 26 46  1  0
 27 47  1  0
M  END
$$$$
