PDB_DB00390_99
     RDKit          3D

246260  0  0  0  0  0  0  0  0999 V2000
  -27.8190  -18.9890   72.8590 C   0  0  0  0  0  0  0  0  0  0  0  0
  -29.2820  -18.7080   73.1780 C   0  0  0  0  0  0  0  0  0  0  0  0
  -29.8840  -19.5960   74.2750 C   0  0  2  0  0  0  0  0  0  0  0  0
  -29.4650  -19.1240   75.5640 O   0  0  0  0  0  0  0  0  0  0  0  0
  -29.5410  -21.0540   73.8740 C   0  0  0  0  0  0  0  0  0  0  0  0
  -28.0820  -21.3550   73.5450 C   0  0  1  0  0  0  0  0  0  0  0  0
  -27.8810  -22.8240   73.1390 C   0  0  0  0  0  0  0  0  0  0  0  0
  -28.2790  -23.1690   71.6990 C   0  0  0  0  0  0  0  0  0  0  0  0
  -27.5460  -22.2770   70.6920 C   0  0  2  0  0  0  0  0  0  0  0  0
  -27.8780  -20.8130   71.0170 C   0  0  1  0  0  0  0  0  0  0  0  0
  -27.4640  -20.4470   72.4830 C   0  0  1  0  0  0  0  0  0  0  0  0
  -27.1580  -19.8760   70.0500 C   0  0  0  0  0  0  0  0  0  0  0  0
  -27.3980  -20.1600   68.5710 C   0  0  1  0  0  0  0  0  0  0  0  0
  -26.4730  -19.3950   67.8270 O   0  0  0  0  0  0  0  0  0  0  0  0
  -27.1260  -21.6460   68.1810 C   0  0  1  0  0  0  0  0  0  0  0  0
  -27.8030  -22.6180   69.2140 C   0  0  1  0  0  0  0  0  0  0  0  0
  -27.2410  -23.8670   68.9600 O   0  0  0  0  0  0  0  0  0  0  0  0
  -29.2800  -22.6370   68.7810 C   0  0  0  0  0  0  0  0  0  0  0  0
  -29.3150  -22.1140   67.3340 C   0  0  0  0  0  0  0  0  0  0  0  0
  -27.8820  -21.8690   66.8360 C   0  0  2  0  0  0  0  0  0  0  0  0
  -25.6550  -21.9000   67.9740 C   0  0  0  0  0  0  0  0  0  0  0  0
  -25.9320  -20.5970   72.5930 C   0  0  0  0  0  0  0  0  0  0  0  0
  -29.9490  -17.8190   75.8880 C   0  0  1  0  0  0  0  0  0  0  0  0
  -29.2630  -13.4620   79.0150 C   0  0  2  0  0  0  0  0  0  0  0  0
  -29.0680  -11.4200   84.0440 C   0  0  2  0  0  0  0  0  0  0  0  0
  -27.2490  -22.8210   65.8530 C   0  0  1  0  0  0  0  0  0  0  0  0
  -27.4630  -24.3300   65.8580 C   0  0  0  0  0  0  0  0  0  0  0  0
  -26.7780  -24.8340   64.7220 O   0  0  0  0  0  0  0  0  0  0  0  0
  -26.7780  -22.5280   64.6190 C   0  0  0  0  0  0  0  0  0  0  0  0
  -26.5680  -23.7860   63.8540 C   0  0  0  0  0  0  0  0  0  0  0  0
  -26.2800  -24.0160   62.7120 O   0  0  0  0  0  0  0  0  0  0  0  0
  -30.2700  -17.8210   77.3920 C   0  0  0  0  0  0  0  0  0  0  0  0
  -30.0770  -12.2870   79.5280 C   0  0  0  0  0  0  0  0  0  0  0  0
  -28.5570  -12.4630   85.0800 C   0  0  0  0  0  0  0  0  0  0  0  0
  -30.6810  -16.4180   77.8870 C   0  0  2  0  0  0  0  0  0  0  0  0
  -31.8500  -16.0570   77.2090 O   0  0  0  0  0  0  0  0  0  0  0  0
  -29.2910  -11.5070   80.5660 C   0  0  2  0  0  0  0  0  0  0  0  0
  -28.0650  -11.1270   79.9920 O   0  0  0  0  0  0  0  0  0  0  0  0
  -29.0990  -12.1820   86.4930 C   0  0  2  0  0  0  0  0  0  0  0  0
  -30.4880  -12.3330   86.4490 O   0  0  0  0  0  0  0  0  0  0  0  0
  -29.5900  -15.3630   77.5740 C   0  0  2  0  0  0  0  0  0  0  0  0
  -30.0870  -14.0940   78.0190 O   0  0  0  0  0  0  0  0  0  0  0  0
  -29.0220  -12.4260   81.7980 C   0  0  2  0  0  0  0  0  0  0  0  0
  -28.3720  -11.6500   82.8170 O   0  0  0  0  0  0  0  0  0  0  0  0
  -28.7380  -10.7280   86.8900 C   0  0  2  0  0  0  0  0  0  0  0  0
  -29.4120  -10.4190   88.0830 O   0  0  0  0  0  0  0  0  0  0  0  0
  -29.2500  -15.5320   76.0250 C   0  0  2  0  0  0  0  0  0  0  0  0
  -28.8970  -16.8800   75.7100 O   0  0  0  0  0  0  0  0  0  0  0  0
  -28.2580  -13.6850   81.2270 C   0  0  2  0  0  0  0  0  0  0  0  0
  -29.0440  -14.3040   80.1610 O   0  0  0  0  0  0  0  0  0  0  0  0
  -29.2370   -9.7490   85.7720 C   0  0  2  0  0  0  0  0  0  0  0  0
  -28.7250  -10.1050   84.4920 O   0  0  0  0  0  0  0  0  0  0  0  0
  -28.0380  -14.6680   75.6720 C   0  0  0  0  0  0  0  0  0  0  0  0
  -28.0900  -14.7000   82.3610 C   0  0  0  0  0  0  0  0  0  0  0  0
  -28.7440   -8.3400   86.1410 C   0  0  0  0  0  0  0  0  0  0  0  0
  -59.6800  -82.3450   48.7630 C   0  0  0  0  0  0  0  0  0  0  0  0
  -60.7040  -81.2960   48.3700 C   0  0  0  0  0  0  0  0  0  0  0  0
  -60.2440  -80.3910   47.2280 C   0  0  2  0  0  0  0  0  0  0  0  0
  -60.3010  -81.1260   46.0070 O   0  0  0  0  0  0  0  0  0  0  0  0
  -58.8750  -79.8150   47.6740 C   0  0  0  0  0  0  0  0  0  0  0  0
  -57.8290  -80.8230   48.1370 C   0  0  1  0  0  0  0  0  0  0  0  0
  -56.5490  -80.1240   48.6100 C   0  0  0  0  0  0  0  0  0  0  0  0
  -56.6450  -79.4930   50.0020 C   0  0  0  0  0  0  0  0  0  0  0  0
  -57.0410  -80.5370   51.0590 C   0  0  2  0  0  0  0  0  0  0  0  0
  -58.3880  -81.1630   50.6580 C   0  0  1  0  0  0  0  0  0  0  0  0
  -58.3170  -81.7920   49.2240 C   0  0  1  0  0  0  0  0  0  0  0  0
  -58.8000  -82.2350   51.6770 C   0  0  0  0  0  0  0  0  0  0  0  0
  -58.8250  -81.7600   53.1350 C   0  0  1  0  0  0  0  0  0  0  0  0
  -59.0010  -82.8850   53.9600 O   0  0  0  0  0  0  0  0  0  0  0  0
  -57.4760  -81.1030   53.5880 C   0  0  1  0  0  0  0  0  0  0  0  0
  -57.0400  -80.0340   52.5250 C   0  0  1  0  0  0  0  0  0  0  0  0
  -55.7330  -79.6710   52.8580 O   0  0  0  0  0  0  0  0  0  0  0  0
  -57.9670  -78.8520   52.8300 C   0  0  0  0  0  0  0  0  0  0  0  0
  -58.3840  -79.0020   54.3070 C   0  0  0  0  0  0  0  0  0  0  0  0
  -57.8060  -80.3040   54.8910 C   0  0  2  0  0  0  0  0  0  0  0  0
  -56.4220  -82.1420   53.8930 C   0  0  0  0  0  0  0  0  0  0  0  0
  -57.3210  -82.9680   49.2720 C   0  0  0  0  0  0  0  0  0  0  0  0
  -61.6260  -81.5020   45.6310 C   0  0  1  0  0  0  0  0  0  0  0  0
  -64.5980  -84.7650   42.5080 C   0  0  2  0  0  0  0  0  0  0  0  0
  -65.6380  -86.4370   37.4180 C   0  0  2  0  0  0  0  0  0  0  0  0
  -56.7360  -80.2540   55.9590 C   0  0  1  0  0  0  0  0  0  0  0  0
  -55.5460  -79.3060   55.9500 C   0  0  0  0  0  0  0  0  0  0  0  0
  -54.8120  -79.6040   57.1300 O   0  0  0  0  0  0  0  0  0  0  0  0
  -56.8270  -80.6940   57.2370 C   0  0  0  0  0  0  0  0  0  0  0  0
  -55.7000  -80.1330   58.0320 C   0  0  0  0  0  0  0  0  0  0  0  0
  -55.4630  -80.0640   59.2060 O   0  0  0  0  0  0  0  0  0  0  0  0
  -61.7250  -81.3130   44.1080 C   0  0  0  0  0  0  0  0  0  0  0  0
  -65.9880  -84.8280   41.8740 C   0  0  0  0  0  0  0  0  0  0  0  0
  -64.4100  -86.2200   36.4900 C   0  0  0  0  0  0  0  0  0  0  0  0
  -63.0680  -81.8260   43.5500 C   0  0  2  0  0  0  0  0  0  0  0  0
  -64.0900  -81.0490   44.1110 O   0  0  0  0  0  0  0  0  0  0  0  0
  -66.0560  -85.9800   40.8580 C   0  0  2  0  0  0  0  0  0  0  0  0
  -65.7100  -87.1660   41.5250 O   0  0  0  0  0  0  0  0  0  0  0  0
  -64.8480  -86.0020   35.0270 C   0  0  2  0  0  0  0  0  0  0  0  0
  -65.6050  -84.8280   34.9820 O   0  0  0  0  0  0  0  0  0  0  0  0
  -63.3130  -83.3070   43.9320 C   0  0  2  0  0  0  0  0  0  0  0  0
  -64.6170  -83.6610   43.4320 O   0  0  0  0  0  0  0  0  0  0  0  0
  -65.0360  -85.7190   39.7100 C   0  0  2  0  0  0  0  0  0  0  0  0
  -65.1650  -86.7620   38.7300 O   0  0  0  0  0  0  0  0  0  0  0  0
  -65.7160  -87.2000   34.5710 C   0  0  2  0  0  0  0  0  0  0  0  0
  -66.3020  -86.8740   33.3360 O   0  0  0  0  0  0  0  0  0  0  0  0
  -63.0650  -83.4130   45.5030 C   0  0  2  0  0  0  0  0  0  0  0  0
  -61.7880  -82.8910   45.8720 O   0  0  0  0  0  0  0  0  0  0  0  0
  -63.6370  -85.5830   40.4270 C   0  0  2  0  0  0  0  0  0  0  0  0
  -63.6830  -84.5310   41.4220 O   0  0  0  0  0  0  0  0  0  0  0  0
  -66.8650  -87.4220   35.5990 C   0  0  2  0  0  0  0  0  0  0  0  0
  -66.3670  -87.5660   36.9300 O   0  0  0  0  0  0  0  0  0  0  0  0
  -63.0520  -84.8880   45.8990 C   0  0  0  0  0  0  0  0  0  0  0  0
  -62.5940  -85.2040   39.3730 C   0  0  0  0  0  0  0  0  0  0  0  0
  -67.6000  -88.7050   35.1760 C   0  0  0  0  0  0  0  0  0  0  0  0
  -27.5314  -18.3461   72.0140 H   0  0  0  0  0  0  0  0  0  0  0  0
  -27.2728  -18.7870   73.7922 H   0  0  0  0  0  0  0  0  0  0  0  0
  -29.3664  -17.6600   73.5015 H   0  0  0  0  0  0  0  0  0  0  0  0
  -29.8464  -18.9257   72.2593 H   0  0  0  0  0  0  0  0  0  0  0  0
  -30.9795  -19.5564   74.3663 H   0  0  0  0  0  0  0  0  0  0  0  0
  -29.8344  -21.7062   74.7098 H   0  0  0  0  0  0  0  0  0  0  0  0
  -30.0882  -21.2294   72.9360 H   0  0  0  0  0  0  0  0  0  0  0  0
  -27.5497  -21.1477   74.4850 H   0  0  0  0  0  0  0  0  0  0  0  0
  -26.8157  -23.0680   73.2643 H   0  0  0  0  0  0  0  0  0  0  0  0
  -28.5484  -23.4114   73.7868 H   0  0  0  0  0  0  0  0  0  0  0  0
  -28.0246  -24.2203   71.4986 H   0  0  0  0  0  0  0  0  0  0  0  0
  -29.3608  -23.0033   71.5877 H   0  0  0  0  0  0  0  0  0  0  0  0
  -26.4681  -22.4637   70.8068 H   0  0  0  0  0  0  0  0  0  0  0  0
  -28.9664  -20.6919   70.9131 H   0  0  0  0  0  0  0  0  0  0  0  0
  -27.4931  -18.8492   70.2581 H   0  0  0  0  0  0  0  0  0  0  0  0
  -26.0821  -20.0300   70.2198 H   0  0  0  0  0  0  0  0  0  0  0  0
  -28.4516  -19.9203   68.3649 H   0  0  0  0  0  0  0  0  0  0  0  0
  -25.8779  -18.9029   68.4465 H   0  0  0  0  0  0  0  0  0  0  0  0
  -27.0380  -24.3181   69.8176 H   0  0  0  0  0  0  0  0  0  0  0  0
  -29.6762  -23.6623   68.8247 H   0  0  0  0  0  0  0  0  0  0  0  0
  -29.8984  -22.0151   69.4450 H   0  0  0  0  0  0  0  0  0  0  0  0
  -29.8042  -22.8581   66.6882 H   0  0  0  0  0  0  0  0  0  0  0  0
  -29.8778  -21.1694   67.3020 H   0  0  0  0  0  0  0  0  0  0  0  0
  -27.8457  -21.0212   66.1360 H   0  0  0  0  0  0  0  0  0  0  0  0
  -25.1567  -21.9860   68.9509 H   0  0  0  0  0  0  0  0  0  0  0  0
  -25.5201  -22.8347   67.4100 H   0  0  0  0  0  0  0  0  0  0  0  0
  -25.2145  -21.0646   67.4100 H   0  0  0  0  0  0  0  0  0  0  0  0
  -25.6416  -20.6254   73.6536 H   0  0  0  0  0  0  0  0  0  0  0  0
  -25.6187  -21.5301   72.1019 H   0  0  0  0  0  0  0  0  0  0  0  0
  -25.4437  -19.7424   72.1019 H   0  0  0  0  0  0  0  0  0  0  0  0
  -30.8179  -17.5655   75.2629 H   0  0  0  0  0  0  0  0  0  0  0  0
  -28.2916  -13.2074   78.5660 H   0  0  0  0  0  0  0  0  0  0  0  0
  -30.1572  -11.5108   83.9198 H   0  0  0  0  0  0  0  0  0  0  0  0
  -26.6047  -22.3893   66.6331 H   0  0  0  0  0  0  0  0  0  0  0  0
  -27.0502  -24.7700   66.7778 H   0  0  0  0  0  0  0  0  0  0  0  0
  -28.5332  -24.5818   65.8233 H   0  0  0  0  0  0  0  0  0  0  0  0
  -27.5057  -21.8949   64.0901 H   0  0  0  0  0  0  0  0  0  0  0  0
  -25.8218  -21.9919   64.7105 H   0  0  0  0  0  0  0  0  0  0  0  0
  -27.6336  -23.7982   63.5815 H   0  0  0  0  0  0  0  0  0  0  0  0
  -25.5067  -24.6336   62.6846 H   0  0  0  0  0  0  0  0  0  0  0  0
  -31.0966  -18.5221   77.5797 H   0  0  0  0  0  0  0  0  0  0  0  0
  -29.3645  -18.1265   77.9367 H   0  0  0  0  0  0  0  0  0  0  0  0
  -30.3235  -11.6228   78.6865 H   0  0  0  0  0  0  0  0  0  0  0  0
  -30.9979  -12.6688   79.9929 H   0  0  0  0  0  0  0  0  0  0  0  0
  -28.8842  -13.4653   84.7665 H   0  0  0  0  0  0  0  0  0  0  0  0
  -27.4596  -12.3974   85.1167 H   0  0  0  0  0  0  0  0  0  0  0  0
  -30.8266  -16.4504   78.9768 H   0  0  0  0  0  0  0  0  0  0  0  0
  -32.5581  -15.8383   77.8655 H   0  0  0  0  0  0  0  0  0  0  0  0
  -29.8530  -10.6183   80.8890 H   0  0  0  0  0  0  0  0  0  0  0  0
  -27.4133  -10.9250   80.7093 H   0  0  0  0  0  0  0  0  0  0  0  0
  -28.6639  -12.8716   87.2313 H   0  0  0  0  0  0  0  0  0  0  0  0
  -30.8451  -12.3718   87.3715 H   0  0  0  0  0  0  0  0  0  0  0  0
  -28.6304  -15.4757   78.0998 H   0  0  0  0  0  0  0  0  0  0  0  0
  -29.9132  -12.8135   82.3133 H   0  0  0  0  0  0  0  0  0  0  0  0
  -27.6498  -10.6292   87.0167 H   0  0  0  0  0  0  0  0  0  0  0  0
  -28.8497  -10.6768   88.8560 H   0  0  0  0  0  0  0  0  0  0  0  0
  -30.1466  -15.2360   75.4607 H   0  0  0  0  0  0  0  0  0  0  0  0
  -27.2812  -13.3751   80.8273 H   0  0  0  0  0  0  0  0  0  0  0  0
  -30.3344   -9.7949   85.7125 H   0  0  0  0  0  0  0  0  0  0  0  0
  -27.5526  -14.3220   76.5965 H   0  0  0  0  0  0  0  0  0  0  0  0
  -27.3236  -15.2617   75.0828 H   0  0  0  0  0  0  0  0  0  0  0  0
  -28.3663  -13.7990   75.0828 H   0  0  0  0  0  0  0  0  0  0  0  0
  -28.1752  -14.1853   83.3294 H   0  0  0  0  0  0  0  0  0  0  0  0
  -28.8731  -15.4686   82.2841 H   0  0  0  0  0  0  0  0  0  0  0  0
  -27.1010  -15.1753   82.2841 H   0  0  0  0  0  0  0  0  0  0  0  0
  -28.7086   -8.2389   87.2358 H   0  0  0  0  0  0  0  0  0  0  0  0
  -27.7376   -8.1832   85.7256 H   0  0  0  0  0  0  0  0  0  0  0  0
  -29.4331   -7.5899   85.7256 H   0  0  0  0  0  0  0  0  0  0  0  0
  -60.1016  -82.9404   49.5863 H   0  0  0  0  0  0  0  0  0  0  0  0
  -59.4797  -82.9313   47.8541 H   0  0  0  0  0  0  0  0  0  0  0  0
  -61.6255  -81.8092   48.0577 H   0  0  0  0  0  0  0  0  0  0  0  0
  -60.8610  -80.6529   49.2485 H   0  0  0  0  0  0  0  0  0  0  0  0
  -60.8839  -79.5216   47.0167 H   0  0  0  0  0  0  0  0  0  0  0  0
  -58.4519  -79.2623   46.8222 H   0  0  0  0  0  0  0  0  0  0  0  0
  -59.0939  -79.1973   48.5575 H   0  0  0  0  0  0  0  0  0  0  0  0
  -57.6176  -81.4313   47.2452 H   0  0  0  0  0  0  0  0  0  0  0  0
  -55.7378  -80.8668   48.6251 H   0  0  0  0  0  0  0  0  0  0  0  0
  -56.3654  -79.2993   47.9056 H   0  0  0  0  0  0  0  0  0  0  0  0
  -55.6682  -79.0639   50.2697 H   0  0  0  0  0  0  0  0  0  0  0  0
  -57.4183  -78.7110   49.9776 H   0  0  0  0  0  0  0  0  0  0  0  0
  -56.2501  -81.3015   51.0619 H   0  0  0  0  0  0  0  0  0  0  0  0
  -59.1422  -80.3624   50.6470 H   0  0  0  0  0  0  0  0  0  0  0  0
  -59.8085  -82.5872   51.4144 H   0  0  0  0  0  0  0  0  0  0  0  0
  -58.0365  -83.0249   51.6215 H   0  0  0  0  0  0  0  0  0  0  0  0
  -59.6329  -81.0179   53.2155 H   0  0  0  0  0  0  0  0  0  0  0  0
  -58.9577  -82.6080   54.9095 H   0  0  0  0  0  0  0  0  0  0  0  0
  -55.6386  -79.6448   53.8431 H   0  0  0  0  0  0  0  0  0  0  0  0
  -57.4349  -77.9012   52.6787 H   0  0  0  0  0  0  0  0  0  0  0  0
  -58.8430  -78.8477   52.1647 H   0  0  0  0  0  0  0  0  0  0  0  0
  -58.0026  -78.1449   54.8814 H   0  0  0  0  0  0  0  0  0  0  0  0
  -59.4817  -79.0360   54.3692 H   0  0  0  0  0  0  0  0  0  0  0  0
  -58.5268  -80.7922   55.5634 H   0  0  0  0  0  0  0  0  0  0  0  0
  -56.3153  -82.2472   54.9828 H   0  0  0  0  0  0  0  0  0  0  0  0
  -56.7222  -83.1072   53.4591 H   0  0  0  0  0  0  0  0  0  0  0  0
  -55.4612  -81.8280   53.4591 H   0  0  0  0  0  0  0  0  0  0  0  0
  -57.1050  -83.2230   50.3200 H   0  0  0  0  0  0  0  0  0  0  0  0
  -57.7591  -83.8404   48.7651 H   0  0  0  0  0  0  0  0  0  0  0  0
  -56.3883  -82.6795   48.7651 H   0  0  0  0  0  0  0  0  0  0  0  0
  -62.3714  -80.9127   46.1851 H   0  0  0  0  0  0  0  0  0  0  0  0
  -64.3040  -85.6764   43.0492 H   0  0  0  0  0  0  0  0  0  0  0  0
  -66.2663  -85.5344   37.4408 H   0  0  0  0  0  0  0  0  0  0  0  0
  -56.7597  -81.0827   55.2360 H   0  0  0  0  0  0  0  0  0  0  0  0
  -54.9253  -79.4771   55.0581 H   0  0  0  0  0  0  0  0  0  0  0  0
  -55.8640  -78.2533   55.9230 H   0  0  0  0  0  0  0  0  0  0  0  0
  -57.7826  -80.3654   57.6716 H   0  0  0  0  0  0  0  0  0  0  0  0
  -56.7780  -81.7928   57.2528 H   0  0  0  0  0  0  0  0  0  0  0  0
  -56.2205  -79.1655   58.0871 H   0  0  0  0  0  0  0  0  0  0  0  0
  -56.2748  -80.3003   59.7210 H   0  0  0  0  0  0  0  0  0  0  0  0
  -61.6294  -80.2420   43.8758 H   0  0  0  0  0  0  0  0  0  0  0  0
  -60.9173  -81.8945   43.6395 H   0  0  0  0  0  0  0  0  0  0  0  0
  -66.7391  -84.9924   42.6606 H   0  0  0  0  0  0  0  0  0  0  0  0
  -66.1894  -83.8792   41.3551 H   0  0  0  0  0  0  0  0  0  0  0  0
  -63.8527  -85.3359   36.8332 H   0  0  0  0  0  0  0  0  0  0  0  0
  -63.7771  -87.1186   36.5339 H   0  0  0  0  0  0  0  0  0  0  0  0
  -63.0498  -81.7511   42.4527 H   0  0  0  0  0  0  0  0  0  0  0  0
  -64.0332  -81.0922   45.0984 H   0  0  0  0  0  0  0  0  0  0  0  0
  -67.0670  -86.0571   40.4315 H   0  0  0  0  0  0  0  0  0  0  0  0
  -65.7529  -87.0191   42.5031 H   0  0  0  0  0  0  0  0  0  0  0  0
  -63.9744  -85.9217   34.3634 H   0  0  0  0  0  0  0  0  0  0  0  0
  -65.8000  -84.5255   35.9043 H   0  0  0  0  0  0  0  0  0  0  0  0
  -62.6341  -84.0463   43.4820 H   0  0  0  0  0  0  0  0  0  0  0  0
  -65.1979  -84.7989   39.1293 H   0  0  0  0  0  0  0  0  0  0  0  0
  -65.0941  -88.1039   34.4917 H   0  0  0  0  0  0  0  0  0  0  0  0
  -67.1564  -86.3987   33.4914 H   0  0  0  0  0  0  0  0  0  0  0  0
  -63.8625  -82.8433   46.0024 H   0  0  0  0  0  0  0  0  0  0  0  0
  -63.3830  -86.5349   40.9163 H   0  0  0  0  0  0  0  0  0  0  0  0
  -67.5348  -86.5495   35.6025 H   0  0  0  0  0  0  0  0  0  0  0  0
  -63.0512  -84.9732   46.9957 H   0  0  0  0  0  0  0  0  0  0  0  0
  -63.9458  -85.3845   45.4933 H   0  0  0  0  0  0  0  0  0  0  0  0
  -62.1496  -85.3686   45.4933 H   0  0  0  0  0  0  0  0  0  0  0  0
  -61.6729  -84.8693   39.8725 H   0  0  0  0  0  0  0  0  0  0  0  0
  -62.3730  -86.0793   38.7445 H   0  0  0  0  0  0  0  0  0  0  0  0
  -62.9865  -84.3910   38.7445 H   0  0  0  0  0  0  0  0  0  0  0  0
  -67.9170  -89.2584   36.0722 H   0  0  0  0  0  0  0  0  0  0  0  0
  -68.4837  -88.4407   34.5766 H   0  0  0  0  0  0  0  0  0  0  0  0
  -66.9250  -89.3336   34.5766 H   0  0  0  0  0  0  0  0  0  0  0  0
  1  2  1  0
  2  3  1  0
  3  4  1  0
  3  5  1  0
  5  6  1  0
  6  7  1  0
  7  8  1  0
  8  9  1  0
  9 10  1  0
  1 11  1  0
  6 11  1  0
 10 11  1  0
 10 12  1  0
 12 13  1  0
 13 14  1  0
 13 15  1  0
  9 16  1  0
 15 16  1  0
 16 17  1  6
 16 18  1  0
 18 19  1  0
 15 20  1  0
 19 20  1  0
 15 21  1  6
 11 22  1  6
  4 23  1  0
 20 26  1  0
 26 27  1  0
 27 28  1  0
 26 29  1  0
 28 30  1  0
 29 30  1  0
 30 31  1  0
 23 32  1  0
 24 33  1  0
 25 34  1  0
 32 35  1  0
 35 36  1  0
 33 37  1  0
 37 38  1  0
 34 39  1  0
 39 40  1  0
 35 41  1  0
 24 42  1  0
 41 42  1  0
 37 43  1  0
 25 44  1  0
 43 44  1  0
 39 45  1  0
 45 46  1  0
 41 47  1  0
 23 48  1  0
 47 48  1  0
 43 49  1  0
 24 50  1  0
 49 50  1  0
 45 51  1  0
 25 52  1  0
 51 52  1  0
 47 53  1  0
 49 54  1  0
 51 55  1  0
 56 57  1  0
 57 58  1  0
 58 59  1  0
 58 60  1  0
 60 61  1  0
 61 62  1  0
 62 63  1  0
 63 64  1  0
 64 65  1  0
 56 66  1  0
 61 66  1  0
 65 66  1  0
 65 67  1  0
 67 68  1  0
 68 69  1  0
 68 70  1  0
 64 71  1  0
 70 71  1  0
 71 72  1  1
 71 73  1  0
 73 74  1  0
 70 75  1  0
 74 75  1  0
 70 76  1  1
 66 77  1  1
 59 78  1  0
 75 81  1  0
 81 82  1  0
 82 83  1  0
 81 84  1  0
 83 85  1  0
 84 85  1  0
 85 86  1  0
 78 87  1  0
 79 88  1  0
 80 89  1  0
 87 90  1  0
 90 91  1  0
 88 92  1  0
 92 93  1  0
 89 94  1  0
 94 95  1  0
 90 96  1  0
 79 97  1  0
 96 97  1  0
 92 98  1  0
 80 99  1  0
 98 99  1  0
 94100  1  0
100101  1  0
 96102  1  0
 78103  1  0
102103  1  0
 98104  1  0
 79105  1  0
104105  1  0
100106  1  0
 80107  1  0
106107  1  0
102108  1  0
104109  1  0
106110  1  0
  1111  1  0
  1112  1  0
  2113  1  0
  2114  1  0
  3115  1  1
  5116  1  0
  5117  1  0
  6118  1  1
  7119  1  0
  7120  1  0
  8121  1  0
  8122  1  0
  9123  1  1
 10124  1  1
 12125  1  0
 12126  1  0
 13127  1  6
 14128  1  0
 17129  1  0
 18130  1  0
 18131  1  0
 19132  1  0
 19133  1  0
 20134  1  6
 21135  1  0
 21136  1  0
 21137  1  0
 22138  1  0
 22139  1  0
 22140  1  0
 23141  1  6
 24142  1  6
 25143  1  6
 26144  1  1
 27145  1  0
 27146  1  0
 29147  1  0
 29148  1  0
 30149  1  0
 31150  1  0
 32151  1  0
 32152  1  0
 33153  1  0
 33154  1  0
 34155  1  0
 34156  1  0
 35157  1  1
 36158  1  0
 37159  1  1
 38160  1  0
 39161  1  1
 40162  1  0
 41163  1  1
 43164  1  1
 45165  1  1
 46166  1  0
 47167  1  6
 49168  1  6
 51169  1  6
 53170  1  0
 53171  1  0
 53172  1  0
 54173  1  0
 54174  1  0
 54175  1  0
 55176  1  0
 55177  1  0
 55178  1  0
 56179  1  0
 56180  1  0
 57181  1  0
 57182  1  0
 58183  1  6
 60184  1  0
 60185  1  0
 61186  1  6
 62187  1  0
 62188  1  0
 63189  1  0
 63190  1  0
 64191  1  1
 65192  1  6
 67193  1  0
 67194  1  0
 68195  1  6
 69196  1  0
 72197  1  0
 73198  1  0
 73199  1  0
 74200  1  0
 74201  1  0
 75202  1  1
 76203  1  0
 76204  1  0
 76205  1  0
 77206  1  0
 77207  1  0
 77208  1  0
 78209  1  1
 79210  1  1
 80211  1  1
 81212  1  6
 82213  1  0
 82214  1  0
 84215  1  0
 84216  1  0
 85217  1  0
 86218  1  0
 87219  1  0
 87220  1  0
 88221  1  0
 88222  1  0
 89223  1  0
 89224  1  0
 90225  1  6
 91226  1  0
 92227  1  6
 93228  1  0
 94229  1  6
 95230  1  0
 96231  1  6
 98232  1  6
100233  1  6
101234  1  0
102235  1  1
104236  1  1
106237  1  1
108238  1  0
108239  1  0
108240  1  0
109241  1  0
109242  1  0
109243  1  0
110244  1  0
110245  1  0
110246  1  0
M  END
>  <PDBID>  (1) 
4RET

>  <PDB ID>  (1) 
4RET

>  <Generic Name>  (1) 
Digoxin

>  <Brand Name>  (1) 
Apo-digoxin#Digitek#Digox#Digoxin#Digoxin Injection C.S.D.#Lanoxin#Lanoxin Elx 0.05mg/ml Pediatric#Lanoxin Inj 0.05mg/ml Pediatric#Lanoxin Inj 0.25mg/ml#Lanoxin Tab 0.0625mg#Lanoxin Tab 0.125mg#Lanoxin Tab 0.25mg#Novo-digoxin Tab 0.25mg#PMS-digoxin#Pediatric Digoxin Injection C.S.D.#Toloxin#Agoxin#Cardiacin#Cardiogoxin#Cardioxin#Cardoxin#Celoxin#Centoxin#Digacin#Digocard-G#Digoxina#Eudigox#Lanacordin#Lanacrist#Lanicor#Lanoxicaps#Lenoxin

>  <DrugBank ID>  (1) 
DB00390

>  <ATC Codes>  (1) 
C01AA05

>  <Ligand ID>  (1) 
DGX

>  <Target Name>  (1) 
Sodium/potassium-transporting ATPase subunit alpha-1

>  <UniProt ID>  (1) 
P05023

>  <PDB ID.1>  (1) 
4RET

>  <Seq. Identity>  (1) 
94%

$$$$
