PDB_DB01030_98
     RDKit          3D

 54 58  0  0  0  0  0  0  0  0999 V2000
    6.4330    0.2090    8.2050 C   0  0  0  0  0  0  0  0  0  0  0  0
    7.3810   -0.7710    7.4850 C   0  0  0  0  0  0  0  0  0  0  0  0
    5.8820   -0.2490    9.6110 C   0  0  2  0  0  0  0  0  0  0  0  0
    6.9730   -0.5950   10.4790 O   0  0  0  0  0  0  0  0  0  0  0  0
    4.8760   -1.4580    9.4010 C   0  0  0  0  0  0  0  0  0  0  0  0
    5.0220    0.9310   10.3380 C   0  0  0  0  0  0  0  0  0  0  0  0
    3.5150   -1.2850    9.2180 C   0  0  0  0  0  0  0  0  0  0  0  0
    5.2900   -2.8050    9.4220 C   0  0  0  0  0  0  0  0  0  0  0  0
    5.5400    1.7400   11.1240 O   0  0  0  0  0  0  0  0  0  0  0  0
    3.7570    1.0610   10.1180 O   0  0  0  0  0  0  0  0  0  0  0  0
    2.5360   -2.4570    9.0470 C   0  0  0  0  0  0  0  0  0  0  0  0
    2.9930    0.1570    9.2010 C   0  0  0  0  0  0  0  0  0  0  0  0
    4.4110   -3.8920    9.2720 C   0  0  0  0  0  0  0  0  0  0  0  0
    1.3380   -2.3080    8.8970 O   0  0  0  0  0  0  0  0  0  0  0  0
    3.0830   -3.7270    9.1040 N   0  0  0  0  0  0  0  0  0  0  0  0
    4.7100   -5.2690    9.3090 C   0  0  0  0  0  0  0  0  0  0  0  0
    2.3350   -5.0370    8.9870 C   0  0  0  0  0  0  0  0  0  0  0  0
    3.4670   -6.0420    9.1390 C   0  0  0  0  0  0  0  0  0  0  0  0
    5.8990   -5.8890    9.4700 N   0  0  0  0  0  0  0  0  0  0  0  0
    3.4980   -7.4060    9.1560 C   0  0  0  0  0  0  0  0  0  0  0  0
    5.9480   -7.3090    9.4980 C   0  0  0  0  0  0  0  0  0  0  0  0
    4.7640   -8.1000    9.3440 C   0  0  0  0  0  0  0  0  0  0  0  0
    7.1920   -7.8970    9.6920 C   0  0  0  0  0  0  0  0  0  0  0  0
    4.8720   -9.5350    9.4040 C   0  0  0  0  0  0  0  0  0  0  0  0
    7.3010   -9.3060    9.7500 C   0  0  0  0  0  0  0  0  0  0  0  0
    6.1630  -10.1200    9.6090 C   0  0  0  0  0  0  0  0  0  0  0  0
    3.6610  -10.5020    9.2710 C   0  0  0  0  0  0  0  0  0  0  0  0
    3.0320  -10.9090   10.5670 N   0  0  0  0  0  0  0  0  0  0  0  0
    1.8410  -10.0520   10.9050 C   0  0  0  0  0  0  0  0  0  0  0  0
    2.6250  -12.3420   10.5340 C   0  0  0  0  0  0  0  0  0  0  0  0
    6.3900  -11.4610    9.6930 O   0  0  0  0  0  0  0  0  0  0  0  0
    6.9770    1.1538    8.3509 H   0  0  0  0  0  0  0  0  0  0  0  0
    5.5477    0.2869    7.5568 H   0  0  0  0  0  0  0  0  0  0  0  0
    7.9431   -1.3521    8.2309 H   0  0  0  0  0  0  0  0  0  0  0  0
    6.7925   -1.4545    6.8552 H   0  0  0  0  0  0  0  0  0  0  0  0
    8.0836   -0.2056    6.8552 H   0  0  0  0  0  0  0  0  0  0  0  0
    6.6860   -0.5040   11.4221 H   0  0  0  0  0  0  0  0  0  0  0  0
    6.3599   -3.0176    9.5636 H   0  0  0  0  0  0  0  0  0  0  0  0
    3.0725    0.5476    8.1758 H   0  0  0  0  0  0  0  0  0  0  0  0
    1.9499    0.1360    9.5497 H   0  0  0  0  0  0  0  0  0  0  0  0
    1.5886   -5.1473    9.7874 H   0  0  0  0  0  0  0  0  0  0  0  0
    1.7590   -5.1450    8.0561 H   0  0  0  0  0  0  0  0  0  0  0  0
    2.5685   -7.9801    9.0279 H   0  0  0  0  0  0  0  0  0  0  0  0
    8.0886   -7.2690    9.8001 H   0  0  0  0  0  0  0  0  0  0  0  0
    8.2860   -9.7698    9.9070 H   0  0  0  0  0  0  0  0  0  0  0  0
    2.8930  -10.0052    8.6599 H   0  0  0  0  0  0  0  0  0  0  0  0
    4.0519  -11.4239    8.8157 H   0  0  0  0  0  0  0  0  0  0  0  0
    1.7399   -9.9793   11.9979 H   0  0  0  0  0  0  0  0  0  0  0  0
    1.9811   -9.0463   10.4820 H   0  0  0  0  0  0  0  0  0  0  0  0
    0.9319  -10.5043   10.4820 H   0  0  0  0  0  0  0  0  0  0  0  0
    2.5186  -12.7167   11.5627 H   0  0  0  0  0  0  0  0  0  0  0  0
    1.6640  -12.4382   10.0075 H   0  0  0  0  0  0  0  0  0  0  0  0
    3.3920  -12.9290   10.0075 H   0  0  0  0  0  0  0  0  0  0  0  0
    7.3093  -11.7994    9.8360 H   0  0  0  0  0  0  0  0  0  0  0  0
  1  2  1  0
  1  3  1  0
  3  4  1  1
  3  5  1  0
  3  6  1  0
  5  7  2  0
  5  8  1  0
  6  9  2  0
  6 10  1  0
  7 11  1  0
  7 12  1  0
 10 12  1  0
  8 13  2  0
 11 14  2  0
 11 15  1  0
 13 15  1  0
 13 16  1  0
 15 17  1  0
 16 18  2  0
 17 18  1  0
 16 19  1  0
 18 20  1  0
 19 21  2  0
 20 22  2  0
 21 22  1  0
 21 23  1  0
 22 24  1  0
 23 25  2  0
 24 26  2  0
 25 26  1  0
 24 27  1  0
 27 28  1  0
 28 29  1  0
 28 30  1  0
 26 31  1  0
  1 32  1  0
  1 33  1  0
  2 34  1  0
  2 35  1  0
  2 36  1  0
  4 37  1  0
  8 38  1  0
 12 39  1  0
 12 40  1  0
 17 41  1  0
 17 42  1  0
 20 43  1  0
 23 44  1  0
 25 45  1  0
 27 46  1  0
 27 47  1  0
 29 48  1  0
 29 49  1  0
 29 50  1  0
 30 51  1  0
 30 52  1  0
 30 53  1  0
 31 54  1  0
M  END
>  <PDBID>  (1) 
1RRJ

>  <PDB ID>  (1) 
1RRJ

>  <Generic Name>  (1) 
Topotecan

>  <Brand Name>  (1) 
Act Topotecan#Hycamtin#Mylan-topotecan Hydrochloride for Injection#PMS-topotecan#Topotecan#Topotecan Hydrochloride#Topotecan Hydrochloride for Injection#Topotecan Injection#Topotecan for Injection

>  <DrugBank ID>  (1) 
DB01030

>  <ATC Codes>  (1) 
L01XX17

>  <Ligand ID>  (1) 
TTC

>  <Target Name>  (1) 
DNA topoisomerase 1

>  <UniProt ID>  (1) 
P11387

>  <PDB ID.1>  (1) 
1RRJ

>  <Seq. Identity>  (1) 
92%

$$$$
