PDB_DB08895_99
     RDKit          3D

114118  0  0  0  0  0  0  0  0999 V2000
  -57.4340    9.4780    0.5310 C   0  0  1  0  0  0  0  0  0  0  0  0
  -56.3220    8.4320    0.4380 C   0  0  0  0  0  0  0  0  0  0  0  0
  -55.8400    8.7950    2.9180 C   0  0  0  0  0  0  0  0  0  0  0  0
  -56.8560    9.9570    3.0180 C   0  0  0  0  0  0  0  0  0  0  0  0
  -57.1750   10.5680    1.6340 C   0  0  1  0  0  0  0  0  0  0  0  0
  -56.1520    7.9000    1.7880 N   0  0  0  0  0  0  0  0  0  0  0  0
  -56.5060    5.8990    0.9780 O   0  0  0  0  0  0  0  0  0  0  0  0
  -56.2650    6.6170    1.9400 C   0  0  0  0  0  0  0  0  0  0  0  0
  -56.0830    6.1110    3.3000 C   0  0  0  0  0  0  0  0  0  0  0  0
  -56.5170    4.9590    3.5980 C   0  0  0  0  0  0  0  0  0  0  0  0
  -56.6770    3.8260    3.8130 N   0  0  0  0  0  0  0  0  0  0  0  0
  -56.1490   11.6450    1.2840 C   0  0  0  0  0  0  0  0  0  0  0  0
  -57.5700   10.1590   -0.7640 N   0  0  0  0  0  0  0  0  0  0  0  0
  -56.4410   10.2590   -1.7270 C   0  0  0  0  0  0  0  0  0  0  0  0
  -58.8020   10.6870   -1.0900 C   0  0  0  0  0  0  0  0  0  0  0  0
  -59.8920   10.6100   -0.2150 C   0  0  0  0  0  0  0  0  0  0  0  0
  -60.1110   10.0400    1.0990 C   0  0  0  0  0  0  0  0  0  0  0  0
  -61.4560   10.3500    1.3320 C   0  0  0  0  0  0  0  0  0  0  0  0
  -62.0250   11.0510    0.2990 N   0  0  0  0  0  0  0  0  0  0  0  0
  -61.1230   11.2650   -0.6710 C   0  0  0  0  0  0  0  0  0  0  0  0
  -61.1610   11.8620   -1.8740 N   0  0  0  0  0  0  0  0  0  0  0  0
  -60.0950   11.9030   -2.6540 C   0  0  0  0  0  0  0  0  0  0  0  0
  -58.9600   11.3430   -2.2770 N   0  0  0  0  0  0  0  0  0  0  0  0
  -22.8160   54.0240  -12.5550 C   0  0  1  0  0  0  0  0  0  0  0  0
  -22.4030   53.3850  -13.8510 C   0  0  0  0  0  0  0  0  0  0  0  0
  -24.4130   51.8140  -13.5880 C   0  0  0  0  0  0  0  0  0  0  0  0
  -24.7600   52.5080  -12.2690 C   0  0  0  0  0  0  0  0  0  0  0  0
  -23.4860   52.9800  -11.6130 C   0  0  1  0  0  0  0  0  0  0  0  0
  -23.5610   52.6810  -14.4010 N   0  0  0  0  0  0  0  0  0  0  0  0
  -22.9470   53.5950  -16.2670 O   0  0  0  0  0  0  0  0  0  0  0  0
  -23.7400   52.8640  -15.6890 C   0  0  0  0  0  0  0  0  0  0  0  0
  -24.8650   52.2280  -16.4000 C   0  0  0  0  0  0  0  0  0  0  0  0
  -25.0660   52.5810  -17.6310 C   0  0  0  0  0  0  0  0  0  0  0  0
  -25.5520   53.2850  -18.4830 N   0  0  0  0  0  0  0  0  0  0  0  0
  -22.6950   51.7180  -11.2160 C   0  0  0  0  0  0  0  0  0  0  0  0
  -21.6060   54.5760  -11.9100 N   0  0  0  0  0  0  0  0  0  0  0  0
  -20.2450   54.0310  -12.1760 C   0  0  0  0  0  0  0  0  0  0  0  0
  -21.6820   55.6640  -11.0470 C   0  0  0  0  0  0  0  0  0  0  0  0
  -22.8920   56.2750  -10.6740 C   0  0  0  0  0  0  0  0  0  0  0  0
  -24.2680   56.0660  -11.0160 C   0  0  0  0  0  0  0  0  0  0  0  0
  -24.9380   57.0380  -10.2810 C   0  0  0  0  0  0  0  0  0  0  0  0
  -24.0800   57.7980   -9.5370 N   0  0  0  0  0  0  0  0  0  0  0  0
  -22.8240   57.3820   -9.7170 C   0  0  0  0  0  0  0  0  0  0  0  0
  -21.6420   57.7580   -9.2360 N   0  0  0  0  0  0  0  0  0  0  0  0
  -20.5250   57.1470   -9.6410 C   0  0  0  0  0  0  0  0  0  0  0  0
  -20.5270   56.1340  -10.4920 N   0  0  0  0  0  0  0  0  0  0  0  0
  -58.3505    8.9358    0.8068 H   0  0  0  0  0  0  0  0  0  0  0  0
  -56.6108    7.6284   -0.2554 H   0  0  0  0  0  0  0  0  0  0  0  0
  -55.3877    8.8715    0.0587 H   0  0  0  0  0  0  0  0  0  0  0  0
  -54.8323    9.2125    2.7756 H   0  0  0  0  0  0  0  0  0  0  0  0
  -55.8933    8.2090    3.8474 H   0  0  0  0  0  0  0  0  0  0  0  0
  -57.7879    9.5767    3.4617 H   0  0  0  0  0  0  0  0  0  0  0  0
  -56.4105   10.7451    3.6429 H   0  0  0  0  0  0  0  0  0  0  0  0
  -58.1427   11.0888    1.6821 H   0  0  0  0  0  0  0  0  0  0  0  0
  -56.8043    5.0102    1.2961 H   0  0  0  0  0  0  0  0  0  0  0  0
  -57.3434    6.7337    2.1231 H   0  0  0  0  0  0  0  0  0  0  0  0
  -55.0010    6.1070    3.4983 H   0  0  0  0  0  0  0  0  0  0  0  0
  -56.6981    6.7865    3.9126 H   0  0  0  0  0  0  0  0  0  0  0  0
  -56.8577    5.2687    4.5970 H   0  0  0  0  0  0  0  0  0  0  0  0
  -56.3880    4.6899    2.5393 H   0  0  0  0  0  0  0  0  0  0  0  0
  -56.6991    3.6695    4.8308 H   0  0  0  0  0  0  0  0  0  0  0  0
  -57.5694    3.5207    3.3992 H   0  0  0  0  0  0  0  0  0  0  0  0
  -55.7390   12.0754    2.2095 H   0  0  0  0  0  0  0  0  0  0  0  0
  -55.3344   11.1979    0.6953 H   0  0  0  0  0  0  0  0  0  0  0  0
  -56.6350   12.4369    0.6953 H   0  0  0  0  0  0  0  0  0  0  0  0
  -55.4938   10.3429   -1.1741 H   0  0  0  0  0  0  0  0  0  0  0  0
  -56.4179    9.3594   -2.3596 H   0  0  0  0  0  0  0  0  0  0  0  0
  -56.5763   11.1487   -2.3596 H   0  0  0  0  0  0  0  0  0  0  0  0
  -59.0948    9.7265   -1.5392 H   0  0  0  0  0  0  0  0  0  0  0  0
  -60.1965    9.6598   -0.6780 H   0  0  0  0  0  0  0  0  0  0  0  0
  -59.9467    8.9523    1.0950 H   0  0  0  0  0  0  0  0  0  0  0  0
  -59.4275   10.4270    1.8691 H   0  0  0  0  0  0  0  0  0  0  0  0
  -62.0143    9.4123    1.4704 H   0  0  0  0  0  0  0  0  0  0  0  0
  -61.4996   10.9859    2.2285 H   0  0  0  0  0  0  0  0  0  0  0  0
  -62.8142   10.5111   -0.0839 H   0  0  0  0  0  0  0  0  0  0  0  0
  -61.4349   10.3338   -1.1665 H   0  0  0  0  0  0  0  0  0  0  0  0
  -61.8982   11.3854   -2.4128 H   0  0  0  0  0  0  0  0  0  0  0  0
  -60.3813   11.4245   -3.6022 H   0  0  0  0  0  0  0  0  0  0  0  0
  -59.8453   12.9742   -2.6705 H   0  0  0  0  0  0  0  0  0  0  0  0
  -58.2597   12.0983   -2.2768 H   0  0  0  0  0  0  0  0  0  0  0  0
  -23.5481   54.8209  -12.7523 H   0  0  0  0  0  0  0  0  0  0  0  0
  -22.0670   54.1584  -14.5574 H   0  0  0  0  0  0  0  0  0  0  0  0
  -21.5749   52.6811  -13.6814 H   0  0  0  0  0  0  0  0  0  0  0  0
  -23.8806   50.8750  -13.3764 H   0  0  0  0  0  0  0  0  0  0  0  0
  -25.3411   51.6010  -14.1387 H   0  0  0  0  0  0  0  0  0  0  0  0
  -25.4144   53.3698  -12.4666 H   0  0  0  0  0  0  0  0  0  0  0  0
  -25.2818   51.8038  -11.6043 H   0  0  0  0  0  0  0  0  0  0  0  0
  -23.6051   53.5356  -10.6711 H   0  0  0  0  0  0  0  0  0  0  0  0
  -22.4090   54.0910  -15.6002 H   0  0  0  0  0  0  0  0  0  0  0  0
  -24.3837   53.7303  -15.4765 H   0  0  0  0  0  0  0  0  0  0  0  0
  -24.6893   51.1421  -16.3921 H   0  0  0  0  0  0  0  0  0  0  0  0
  -25.7641   52.5604  -15.8605 H   0  0  0  0  0  0  0  0  0  0  0  0
  -24.0126   52.6982  -17.9253 H   0  0  0  0  0  0  0  0  0  0  0  0
  -26.0140   52.0240  -17.5995 H   0  0  0  0  0  0  0  0  0  0  0  0
  -26.0795   54.0491  -18.0372 H   0  0  0  0  0  0  0  0  0  0  0  0
  -24.8035   53.6810  -19.0693 H   0  0  0  0  0  0  0  0  0  0  0  0
  -22.6487   51.6441  -10.1195 H   0  0  0  0  0  0  0  0  0  0  0  0
  -23.1969   50.8276  -11.6226 H   0  0  0  0  0  0  0  0  0  0  0  0
  -21.6749   51.7816  -11.6226 H   0  0  0  0  0  0  0  0  0  0  0  0
  -19.7382   53.8281  -11.2210 H   0  0  0  0  0  0  0  0  0  0  0  0
  -20.3299   53.0975  -12.7517 H   0  0  0  0  0  0  0  0  0  0  0  0
  -19.6621   54.7651  -12.7517 H   0  0  0  0  0  0  0  0  0  0  0  0
  -21.6001   56.3492  -11.9036 H   0  0  0  0  0  0  0  0  0  0  0  0
  -22.7919   56.9833  -11.5096 H   0  0  0  0  0  0  0  0  0  0  0  0
  -24.4306   56.2074  -12.0947 H   0  0  0  0  0  0  0  0  0  0  0  0
  -24.6143   55.0462  -10.7923 H   0  0  0  0  0  0  0  0  0  0  0  0
  -25.4840   57.6944  -10.9745 H   0  0  0  0  0  0  0  0  0  0  0  0
  -25.6266   56.5283   -9.5910 H   0  0  0  0  0  0  0  0  0  0  0  0
  -24.1576   58.7830   -9.8281 H   0  0  0  0  0  0  0  0  0  0  0  0
  -22.7075   58.0932  -10.5480 H   0  0  0  0  0  0  0  0  0  0  0  0
  -21.5331   58.7563   -9.4648 H   0  0  0  0  0  0  0  0  0  0  0  0
  -19.9017   57.9281  -10.1007 H   0  0  0  0  0  0  0  0  0  0  0  0
  -20.1938   56.6558   -8.7142 H   0  0  0  0  0  0  0  0  0  0  0  0
  -20.0997   55.3387   -9.9962 H   0  0  0  0  0  0  0  0  0  0  0  0
  1  2  1  0
  3  4  1  0
  1  5  1  0
  4  5  1  0
  2  6  1  0
  3  6  1  0
  6  8  1  0
  7  8  1  0
  8  9  1  0
  9 10  1  0
 10 11  1  0
  5 12  1  0
  1 13  1  0
 13 14  1  0
 13 15  1  0
 15 16  1  0
 16 17  1  0
 17 18  1  0
 18 19  1  0
 16 20  1  0
 19 20  1  0
 20 21  1  0
 21 22  1  0
 15 23  1  0
 22 23  1  0
 24 25  1  0
 26 27  1  0
 24 28  1  0
 27 28  1  0
 25 29  1  0
 26 29  1  0
 29 31  1  0
 30 31  1  0
 31 32  1  0
 32 33  1  0
 33 34  1  0
 28 35  1  0
 24 36  1  0
 36 37  1  0
 36 38  1  0
 38 39  1  0
 39 40  1  0
 40 41  1  0
 41 42  1  0
 39 43  1  0
 42 43  1  0
 43 44  1  0
 44 45  1  0
 38 46  1  0
 45 46  1  0
  1 47  1  1
  2 48  1  0
  2 49  1  0
  3 50  1  0
  3 51  1  0
  4 52  1  0
  4 53  1  0
  5 54  1  1
  7 55  1  0
  8 56  1  0
  9 57  1  0
  9 58  1  0
 10 59  1  0
 10 60  1  0
 11 61  1  0
 11 62  1  0
 12 63  1  0
 12 64  1  0
 12 65  1  0
 14 66  1  0
 14 67  1  0
 14 68  1  0
 15 69  1  0
 16 70  1  0
 17 71  1  0
 17 72  1  0
 18 73  1  0
 18 74  1  0
 19 75  1  0
 20 76  1  0
 21 77  1  0
 22 78  1  0
 22 79  1  0
 23 80  1  0
 24 81  1  6
 25 82  1  0
 25 83  1  0
 26 84  1  0
 26 85  1  0
 27 86  1  0
 27 87  1  0
 28 88  1  1
 30 89  1  0
 31 90  1  0
 32 91  1  0
 32 92  1  0
 33 93  1  0
 33 94  1  0
 34 95  1  0
 34 96  1  0
 35 97  1  0
 35 98  1  0
 35 99  1  0
 37100  1  0
 37101  1  0
 37102  1  0
 38103  1  0
 39104  1  0
 40105  1  0
 40106  1  0
 41107  1  0
 41108  1  0
 42109  1  0
 43110  1  0
 44111  1  0
 45112  1  0
 45113  1  0
 46114  1  0
M  END
>  <PDBID>  (1) 
3FUP

>  <PDB ID>  (1) 
3FUP

>  <Generic Name>  (1) 
Tofacitinib

>  <Brand Name>  (1) 
Xeljanz#Xeljanz XR

>  <DrugBank ID>  (1) 
DB08895

>  <ATC Codes>  (1) 
L04AA29

>  <Ligand ID>  (1) 
MI1

>  <Target Name>  (1) 
Tyrosine-protein kinase JAK2

>  <UniProt ID>  (1) 
O60674

>  <PDB ID.1>  (1) 
3FUP

>  <Seq. Identity>  (1) 
100%

$$$$
