PDB_DB01044_99
     RDKit          3D

122128  0  0  0  0  0  0  0  0999 V2000
   -2.9790   21.6300  135.7160 C   0  0  0  0  0  0  0  0  0  0  0  0
   -2.6070   20.6660  136.8530 C   0  0  1  0  0  0  0  0  0  0  0  0
   -3.8150   20.4930  137.7640 C   0  0  0  0  0  0  0  0  0  0  0  0
   -3.5440   19.5170  138.7760 N   0  0  0  0  0  0  0  0  0  0  0  0
   -3.0910   18.2590  138.2770 C   0  0  0  0  0  0  0  0  0  0  0  0
   -1.9290   18.4240  137.3000 C   0  0  0  0  0  0  0  0  0  0  0  0
   -2.1830   19.4180  136.3020 N   0  0  0  0  0  0  0  0  0  0  0  0
   -4.4840   19.4160  139.9030 C   0  0  0  0  0  0  0  0  0  0  0  0
   -3.9310   19.2970  141.1780 C   0  0  0  0  0  0  0  0  0  0  0  0
   -4.7520   19.1950  142.2980 C   0  0  0  0  0  0  0  0  0  0  0  0
   -6.1580   19.2120  142.1590 C   0  0  0  0  0  0  0  0  0  0  0  0
   -6.7410   19.3300  140.9070 C   0  0  0  0  0  0  0  0  0  0  0  0
   -5.8820   19.4350  139.7600 C   0  0  0  0  0  0  0  0  0  0  0  0
   -6.4170   19.5510  138.4550 O   0  0  0  0  0  0  0  0  0  0  0  0
   -6.6780   18.2830  137.8460 C   0  0  0  0  0  0  0  0  0  0  0  0
   -8.1330   19.3440  140.8540 N   0  0  0  0  0  0  0  0  0  0  0  0
   -8.8890   19.2430  141.9680 C   0  0  0  0  0  0  0  0  0  0  0  0
   -8.3190   19.1230  143.2290 C   0  0  0  0  0  0  0  0  0  0  0  0
   -6.9340   19.1070  143.3400 C   0  0  0  0  0  0  0  0  0  0  0  0
   -6.4140   19.0080  144.4370 O   0  0  0  0  0  0  0  0  0  0  0  0
   -9.2010   19.0090  144.4580 C   0  0  0  0  0  0  0  0  0  0  0  0
   -8.6930   19.0910  145.6120 O   0  0  0  0  0  0  0  0  0  0  0  0
  -10.4400   18.8270  144.3120 O   0  0  0  0  0  0  0  0  0  0  0  0
   -8.8760   19.4720  139.6230 C   0  0  2  0  0  0  0  0  0  0  0  0
   -9.1390   20.5410  138.5730 C   0  0  0  0  0  0  0  0  0  0  0  0
  -10.1690   20.2790  139.6470 C   0  0  0  0  0  0  0  0  0  0  0  0
   -2.5960   19.2790  141.3220 F   0  0  0  0  0  0  0  0  0  0  0  0
   -3.2730   22.4880  136.0970 H   0  0  0  0  0  0  0  0  0  0  0  0
   -3.7070   21.2420  135.1820 H   0  0  0  0  0  0  0  0  0  0  0  0
   -2.1940   21.7780  135.1420 H   0  0  0  0  0  0  0  0  0  0  0  0
   -1.8720   21.0540  137.3700 H   0  0  0  0  0  0  0  0  0  0  0  0
   -4.5660   20.1960  137.2080 H   0  0  0  0  0  0  0  0  0  0  0  0
   -4.0380   21.3520  138.1840 H   0  0  0  0  0  0  0  0  0  0  0  0
   -3.8340   17.8080  137.8170 H   0  0  0  0  0  0  0  0  0  0  0  0
   -2.7970   17.7020  139.0330 H   0  0  0  0  0  0  0  0  0  0  0  0
   -1.7640   17.5600  136.8540 H   0  0  0  0  0  0  0  0  0  0  0  0
   -1.1270   18.6790  137.8030 H   0  0  0  0  0  0  0  0  0  0  0  0
   -1.4260   19.5470  135.7980 H   0  0  0  0  0  0  0  0  0  0  0  0
   -4.3500   19.1110  143.1910 H   0  0  0  0  0  0  0  0  0  0  0  0
   -7.5400   18.3180  137.3760 H   0  0  0  0  0  0  0  0  0  0  0  0
   -6.7090   17.5860  138.5390 H   0  0  0  0  0  0  0  0  0  0  0  0
   -5.9650   18.0750  137.2020 H   0  0  0  0  0  0  0  0  0  0  0  0
   -9.8660   19.2540  141.8890 H   0  0  0  0  0  0  0  0  0  0  0  0
   -9.0510   18.5840  139.2440 H   0  0  0  0  0  0  0  0  0  0  0  0
   -9.3660   20.2100  137.6760 H   0  0  0  0  0  0  0  0  0  0  0  0
   -8.6230   21.3710  138.6710 H   0  0  0  0  0  0  0  0  0  0  0  0
  -10.9750   19.8000  139.3550 H   0  0  0  0  0  0  0  0  0  0  0  0
  -10.2360   20.9690  140.3430 H   0  0  0  0  0  0  0  0  0  0  0  0
    2.6730    1.1920  145.9920 C   0  0  0  0  0  0  0  0  0  0  0  0
    1.7230    1.3400  144.7950 C   0  0  1  0  0  0  0  0  0  0  0  0
    0.3290    1.6200  145.3420 C   0  0  0  0  0  0  0  0  0  0  0  0
   -0.3550    2.5880  144.5420 N   0  0  0  0  0  0  0  0  0  0  0  0
    0.3050    3.8480  144.5280 C   0  0  0  0  0  0  0  0  0  0  0  0
    1.7870    3.7110  144.1870 C   0  0  0  0  0  0  0  0  0  0  0  0
    2.2440    2.3720  143.9440 N   0  0  0  0  0  0  0  0  0  0  0  0
   -1.8150    2.6810  144.7040 C   0  0  0  0  0  0  0  0  0  0  0  0
   -2.5650    2.7970  143.5370 C   0  0  0  0  0  0  0  0  0  0  0  0
   -3.9510    2.8920  143.5950 C   0  0  0  0  0  0  0  0  0  0  0  0
   -4.6200    2.8680  144.8380 C   0  0  0  0  0  0  0  0  0  0  0  0
   -3.9040    2.7540  146.0190 C   0  0  0  0  0  0  0  0  0  0  0  0
   -2.4740    2.6570  145.9450 C   0  0  0  0  0  0  0  0  0  0  0  0
   -1.6860    2.5470  147.1150 O   0  0  0  0  0  0  0  0  0  0  0  0
   -1.3850    3.8170  147.7020 C   0  0  0  0  0  0  0  0  0  0  0  0
   -4.6390    2.7390  147.2050 N   0  0  0  0  0  0  0  0  0  0  0  0
   -5.9860    2.8300  147.2090 C   0  0  0  0  0  0  0  0  0  0  0  0
   -6.7150    2.9490  146.0310 C   0  0  0  0  0  0  0  0  0  0  0  0
   -6.0330    2.9660  144.8210 C   0  0  0  0  0  0  0  0  0  0  0  0
   -6.6530    3.0650  143.7750 O   0  0  0  0  0  0  0  0  0  0  0  0
   -8.2280    3.0500  146.0660 C   0  0  0  0  0  0  0  0  0  0  0  0
   -8.8980    2.6660  145.0670 O   0  0  0  0  0  0  0  0  0  0  0  0
   -8.8000    3.5110  147.0940 O   0  0  0  0  0  0  0  0  0  0  0  0
   -4.0400    2.6070  148.5120 C   0  0  2  0  0  0  0  0  0  0  0  0
   -3.2740    1.5510  149.2990 C   0  0  0  0  0  0  0  0  0  0  0  0
   -4.7560    1.7240  149.5270 C   0  0  0  0  0  0  0  0  0  0  0  0
   -1.9390    2.8190  142.3510 F   0  0  0  0  0  0  0  0  0  0  0  0
    2.7340    2.0490  146.4710 H   0  0  0  0  0  0  0  0  0  0  0  0
    3.5650    0.9320  145.6720 H   0  0  0  0  0  0  0  0  0  0  0  0
    2.3280    0.5000  146.6010 H   0  0  0  0  0  0  0  0  0  0  0  0
    1.7060    0.4930  144.2970 H   0  0  0  0  0  0  0  0  0  0  0  0
    0.4290    1.9630  146.2560 H   0  0  0  0  0  0  0  0  0  0  0  0
   -0.1890    0.7860  145.3620 H   0  0  0  0  0  0  0  0  0  0  0  0
    0.2190    4.2670  145.4130 H   0  0  0  0  0  0  0  0  0  0  0  0
   -0.1250    4.4260  143.8570 H   0  0  0  0  0  0  0  0  0  0  0  0
    2.3110    4.0850  144.9340 H   0  0  0  0  0  0  0  0  0  0  0  0
    1.9680    4.2470  143.3860 H   0  0  0  0  0  0  0  0  0  0  0  0
    2.0920    2.1510  143.0650 H   0  0  0  0  0  0  0  0  0  0  0  0
   -4.4680    2.9740  142.7630 H   0  0  0  0  0  0  0  0  0  0  0  0
   -0.4520    4.0570  147.5080 H   0  0  0  0  0  0  0  0  0  0  0  0
   -1.5130    3.7670  148.6750 H   0  0  0  0  0  0  0  0  0  0  0  0
   -1.9830    4.5010  147.3280 H   0  0  0  0  0  0  0  0  0  0  0  0
   -6.4660    2.8150  148.0640 H   0  0  0  0  0  0  0  0  0  0  0  0
   -3.8830    3.4940  148.9010 H   0  0  0  0  0  0  0  0  0  0  0  0
   -2.6910    1.8910  150.0130 H   0  0  0  0  0  0  0  0  0  0  0  0
   -3.0120    0.7510  148.7940 H   0  0  0  0  0  0  0  0  0  0  0  0
   -5.0080    2.1620  150.3690 H   0  0  0  0  0  0  0  0  0  0  0  0
   -5.3250    1.0150  149.1560 H   0  0  0  0  0  0  0  0  0  0  0  0
   -4.4872   18.3206  139.8022 H   0  0  0  0  0  0  0  0  0  0  0  0
   -3.9289   20.3923  141.2793 H   0  0  0  0  0  0  0  0  0  0  0  0
   -4.7488   20.2903  142.4001 H   0  0  0  0  0  0  0  0  0  0  0  0
   -6.1548   20.3073  142.2607 H   0  0  0  0  0  0  0  0  0  0  0  0
   -6.7386   20.4252  141.0091 H   0  0  0  0  0  0  0  0  0  0  0  0
   -5.8863   18.3399  139.6565 H   0  0  0  0  0  0  0  0  0  0  0  0
   -8.8934   18.1478  141.8657 H   0  0  0  0  0  0  0  0  0  0  0  0
   -8.3235   18.0278  143.1268 H   0  0  0  0  0  0  0  0  0  0  0  0
   -6.9294   20.2024  143.4404 H   0  0  0  0  0  0  0  0  0  0  0  0
   -7.0989   19.1384  145.1398 H   0  0  0  0  0  0  0  0  0  0  0  0
   -9.0469   17.9199  144.4676 H   0  0  0  0  0  0  0  0  0  0  0  0
   -9.4019   18.9766  146.2935 H   0  0  0  0  0  0  0  0  0  0  0  0
  -10.8712   18.7637  145.2009 H   0  0  0  0  0  0  0  0  0  0  0  0
   -1.7386    3.7767  144.7638 H   0  0  0  0  0  0  0  0  0  0  0  0
   -2.6426    1.7013  143.4779 H   0  0  0  0  0  0  0  0  0  0  0  0
   -4.0287    1.7966  143.5320 H   0  0  0  0  0  0  0  0  0  0  0  0
   -4.6939    1.7722  144.7770 H   0  0  0  0  0  0  0  0  0  0  0  0
   -3.9814    1.6583  145.9601 H   0  0  0  0  0  0  0  0  0  0  0  0
   -2.3965    3.7525  146.0074 H   0  0  0  0  0  0  0  0  0  0  0  0
   -5.9118    3.9256  147.2738 H   0  0  0  0  0  0  0  0  0  0  0  0
   -6.6344    4.0444  146.0918 H   0  0  0  0  0  0  0  0  0  0  0  0
   -6.1083    1.8701  144.7632 H   0  0  0  0  0  0  0  0  0  0  0  0
   -7.6110    3.2180  143.9724 H   0  0  0  0  0  0  0  0  0  0  0  0
   -8.1703    4.0618  145.6384 H   0  0  0  0  0  0  0  0  0  0  0  0
   -9.7138    2.1984  145.3768 H   0  0  0  0  0  0  0  0  0  0  0  0
   -8.3581    3.1549  147.9052 H   0  0  0  0  0  0  0  0  0  0  0  0
  1  2  1  0
  2  3  1  0
  3  4  1  0
  4  5  1  0
  5  6  1  0
  2  7  1  0
  6  7  1  0
  4  8  1  0
  8  9  1  0
  9 10  1  0
 10 11  1  0
 11 12  1  0
  8 13  1  0
 12 13  1  0
 13 14  1  0
 14 15  1  0
 12 16  1  0
 16 17  1  0
 17 18  1  0
 11 19  1  0
 18 19  1  0
 19 20  1  0
 18 21  1  0
 21 22  1  0
 21 23  1  0
 16 24  1  0
 24 25  1  0
 24 26  1  0
 25 26  1  0
  9 27  1  0
  1 28  1  0
  1 29  1  0
  1 30  1  0
  2 31  1  1
  3 32  1  0
  3 33  1  0
  5 34  1  0
  5 35  1  0
  6 36  1  0
  6 37  1  0
  7 38  1  0
 10 39  1  0
 15 40  1  0
 15 41  1  0
 15 42  1  0
 17 43  1  0
 24 44  1  6
 25 45  1  0
 25 46  1  0
 26 47  1  0
 26 48  1  0
 49 50  1  0
 50 51  1  0
 51 52  1  0
 52 53  1  0
 53 54  1  0
 50 55  1  0
 54 55  1  0
 52 56  1  0
 56 57  1  0
 57 58  1  0
 58 59  1  0
 59 60  1  0
 56 61  1  0
 60 61  1  0
 61 62  1  0
 62 63  1  0
 60 64  1  0
 64 65  1  0
 65 66  1  0
 59 67  1  0
 66 67  1  0
 67 68  1  0
 66 69  1  0
 69 70  1  0
 69 71  1  0
 64 72  1  0
 72 73  1  0
 72 74  1  0
 73 74  1  0
 57 75  1  0
 49 76  1  0
 49 77  1  0
 49 78  1  0
 50 79  1  6
 51 80  1  0
 51 81  1  0
 53 82  1  0
 53 83  1  0
 54 84  1  0
 54 85  1  0
 55 86  1  0
 58 87  1  0
 63 88  1  0
 63 89  1  0
 63 90  1  0
 65 91  1  0
 72 92  1  1
 73 93  1  0
 73 94  1  0
 74 95  1  0
 74 96  1  0
  8 97  1  0
  9 98  1  0
 10 99  1  0
 11100  1  0
 12101  1  0
 13102  1  0
 17103  1  0
 18104  1  0
 19105  1  0
 20106  1  0
 21107  1  0
 22108  1  0
 23109  1  0
 56110  1  0
 57111  1  0
 58112  1  0
 59113  1  0
 60114  1  0
 61115  1  0
 65116  1  0
 66117  1  0
 67118  1  0
 68119  1  0
 69120  1  0
 70121  1  0
 71122  1  0
M  END
>  <PDBID>  (1) 
5BTF

>  <PDB ID>  (1) 
5BTF

>  <Generic Name>  (1) 
Gatifloxacin

>  <Brand Name>  (1) 
Apo-gatifloxacin#Gatifloxacin#Tequin#Tequin IV#Zymar#Zymaxid

>  <DrugBank ID>  (1) 
DB01044

>  <ATC Codes>  (1) 
S01AE06#J01MA16

>  <Ligand ID>  (1) 
GFN

>  <Target Name>  (1) 
DNA gyrase subunit A

>  <UniProt ID>  (1) 
P72524

>  <PDB ID.1>  (1) 
5BTF

>  <Seq. Identity>  (1) 
53%

$$$$
