PDB_DB00755_95
     RDKit          3D

 50 50  0  0  0  0  0  0  0  0999 V2000
   36.9920   49.0050   18.9620 C   0  0  0  0  0  0  0  0  0  0  0  0
   37.5830   47.7320   18.3770 C   0  0  0  0  0  0  0  0  0  0  0  0
   37.0420   46.5190   19.1190 C   0  0  0  0  0  0  0  0  0  0  0  0
   35.5470   46.3510   18.8860 C   0  0  0  0  0  0  0  0  0  0  0  0
   34.8240   47.6770   18.7970 C   0  0  0  0  0  0  0  0  0  0  0  0
   35.4760   48.9030   18.9500 C   0  0  0  0  0  0  0  0  0  0  0  0
   34.6870   50.1370   19.1030 C   0  0  0  0  0  0  0  0  0  0  0  0
   33.7930   50.2800   20.2590 C   0  0  0  0  0  0  0  0  0  0  0  0
   32.6410   51.1890   20.2310 C   0  0  0  0  0  0  0  0  0  0  0  0
   31.3420   50.6730   20.6770 C   0  0  0  0  0  0  0  0  0  0  0  0
   30.4990   51.4160   21.6210 C   0  0  0  0  0  0  0  0  0  0  0  0
   29.7410   50.6240   22.5960 C   0  0  0  0  0  0  0  0  0  0  0  0
   28.5160   51.1300   23.2240 C   0  0  0  0  0  0  0  0  0  0  0  0
   27.7810   50.2450   24.0430 C   0  0  0  0  0  0  0  0  0  0  0  0
   26.7010   50.6780   24.9420 C   0  0  0  0  0  0  0  0  0  0  0  0
   37.4020   50.2120   18.1260 C   0  0  0  0  0  0  0  0  0  0  0  0
   37.4560   49.1810   20.4030 C   0  0  0  0  0  0  0  0  0  0  0  0
   33.3470   47.6560   18.5250 C   0  0  0  0  0  0  0  0  0  0  0  0
   32.7860   52.6050   19.7600 C   0  0  0  0  0  0  0  0  0  0  0  0
   28.0750   52.5450   22.9860 C   0  0  0  0  0  0  0  0  0  0  0  0
   26.4630   50.0200   25.9770 O   0  0  0  0  0  0  0  0  0  0  0  0
   26.0000   51.6820   24.6920 O   0  0  0  0  0  0  0  0  0  0  0  0
   37.3116   47.6595   17.3135 H   0  0  0  0  0  0  0  0  0  0  0  0
   38.6777   47.7607   18.4813 H   0  0  0  0  0  0  0  0  0  0  0  0
   37.5638   45.6186   18.7627 H   0  0  0  0  0  0  0  0  0  0  0  0
   37.2117   46.6659   20.1959 H   0  0  0  0  0  0  0  0  0  0  0  0
   35.3958   45.8024   17.9446 H   0  0  0  0  0  0  0  0  0  0  0  0
   35.1338   45.8009   19.7443 H   0  0  0  0  0  0  0  0  0  0  0  0
   34.7666   50.9433   18.3590 H   0  0  0  0  0  0  0  0  0  0  0  0
   33.9913   49.6921   21.1673 H   0  0  0  0  0  0  0  0  0  0  0  0
   30.9907   49.7036   20.2937 H   0  0  0  0  0  0  0  0  0  0  0  0
   30.4384   52.5141   21.5986 H   0  0  0  0  0  0  0  0  0  0  0  0
   30.1024   49.6203   22.8641 H   0  0  0  0  0  0  0  0  0  0  0  0
   28.0298   49.1741   24.0065 H   0  0  0  0  0  0  0  0  0  0  0  0
   37.6835   51.0408   18.7921 H   0  0  0  0  0  0  0  0  0  0  0  0
   38.2596   49.9442   17.4913 H   0  0  0  0  0  0  0  0  0  0  0  0
   36.5587   50.5219   17.4913 H   0  0  0  0  0  0  0  0  0  0  0  0
   36.6508   48.8756   21.0874 H   0  0  0  0  0  0  0  0  0  0  0  0
   38.3446   48.5575   20.5808 H   0  0  0  0  0  0  0  0  0  0  0  0
   37.7075   50.2370   20.5808 H   0  0  0  0  0  0  0  0  0  0  0  0
   32.7986   47.6482   19.4785 H   0  0  0  0  0  0  0  0  0  0  0  0
   33.0676   48.5503   17.9486 H   0  0  0  0  0  0  0  0  0  0  0  0
   33.0931   46.7542   17.9486 H   0  0  0  0  0  0  0  0  0  0  0  0
   32.8546   53.2754   20.6294 H   0  0  0  0  0  0  0  0  0  0  0  0
   33.6983   52.6978   19.1525 H   0  0  0  0  0  0  0  0  0  0  0  0
   31.9114   52.8807   19.1525 H   0  0  0  0  0  0  0  0  0  0  0  0
   27.9184   53.0476   23.9518 H   0  0  0  0  0  0  0  0  0  0  0  0
   28.8492   53.0794   22.4159 H   0  0  0  0  0  0  0  0  0  0  0  0
   27.1343   52.5449   22.4159 H   0  0  0  0  0  0  0  0  0  0  0  0
   25.2794   51.9503   25.3156 H   0  0  0  0  0  0  0  0  0  0  0  0
  1  2  1  0
  2  3  1  0
  3  4  1  0
  4  5  1  0
  1  6  1  0
  5  6  2  0
  6  7  1  0
  7  8  2  0
  8  9  1  0
  9 10  2  0
 10 11  1  0
 11 12  2  0
 12 13  1  0
 13 14  2  0
 14 15  1  0
  1 16  1  0
  1 17  1  0
  5 18  1  0
  9 19  1  0
 13 20  1  0
 15 21  2  0
 15 22  1  0
  2 23  1  0
  2 24  1  0
  3 25  1  0
  3 26  1  0
  4 27  1  0
  4 28  1  0
  7 29  1  0
  8 30  1  0
 10 31  1  0
 11 32  1  0
 12 33  1  0
 14 34  1  0
 16 35  1  0
 16 36  1  0
 16 37  1  0
 17 38  1  0
 17 39  1  0
 17 40  1  0
 18 41  1  0
 18 42  1  0
 18 43  1  0
 19 44  1  0
 19 45  1  0
 19 46  1  0
 20 47  1  0
 20 48  1  0
 20 49  1  0
 22 50  1  0
M  END
>  <PDBID>  (1) 
3A9E

>  <PDB ID>  (1) 
3A9E

>  <Generic Name>  (1) 
Tretinoin

>  <Brand Name>  (1) 
Atralin#Avita#Biacna Topical Gel#Clindamycin Phosphate and Tretinoin#Dr. Throwers Hydrotet#Dr. Throwers Pbc No. 1#Obagi#Refissa#Rejuva-A#Renova#Retin-A#Retin-A Micro#Retisol-A#Solagé#Stie Vaa Sol 0.05%#Stieva-A Cream#Stieva-A Gel#Stieva-A Solution#Stievaa Gel 0.01%#Stievamycin Forte#Stievamycin Mild#Stievamycin Regular#Tretin.x#Tretinoin#Tretinoin Cream#Tretinoin Gel#Tretinoin Gel Microsphere#Tretinx#Tri-luma#Veltin#Vesanoid#Vitamin A Acid 0.01% Cream#Vitamin A Acid 0.01% Gel#Vitamin A Acid 0.025% Cream#Vitamin A Acid 0.025% Gel#Vitamin A Acid 0.05% Cream#Vitamin A Acid 0.05% Gel#Vitamin A Acid 0.1% Cream#Vitinoin - Crm 0.025%#Vitinoin - Crm 0.05%#Vitinoin - Crm 0.1%#Vitinoin Gel - 0.025%#Ziana#Aberel#Aberela#Airol#Dermairol#Eudyna#Kétrel#Retisol-A#Sotret#Stieva-A#Vitinoin

>  <DrugBank ID>  (1) 
DB00755

>  <ATC Codes>  (1) 
L01XX14#D10AD01#D10AD51

>  <Ligand ID>  (1) 
3KV,REA

>  <Target Name>  (1) 
Retinoic acid receptor RXR-beta

>  <UniProt ID>  (1) 
P28702

>  <PDB ID.1>  (1) 
3A9E

>  <Seq. Identity>  (1) 
87%

$$$$
