PDB_DB00218_96
     RDKit          3D

130138  0  0  0  0  0  0  0  0999 V2000
  -13.0830   33.6730  -25.3420 F   0  0  0  0  0  0  0  0  0  0  0  0
  -15.1660   30.0590  -23.1360 O   0  0  0  0  0  0  0  0  0  0  0  0
  -17.8070   34.2700  -26.3460 O   0  0  0  0  0  0  0  0  0  0  0  0
  -20.3240   34.1010  -26.5020 O   0  0  0  0  0  0  0  0  0  0  0  0
  -21.4470   32.3940  -25.4960 O   0  0  0  0  0  0  0  0  0  0  0  0
  -12.8370   31.5630  -23.8800 N   0  0  0  0  0  0  0  0  0  0  0  0
  -11.0120   29.2420  -22.5290 N   0  0  0  0  0  0  0  0  0  0  0  0
  -17.7810   31.0030  -24.1020 N   0  0  0  0  0  0  0  0  0  0  0  0
  -12.6480   30.7020  -21.7230 C   0  0  2  0  0  0  0  0  0  0  0  0
  -12.4220   29.5950  -22.7150 C   0  0  1  0  0  0  0  0  0  0  0  0
  -12.6390   31.9760  -22.5110 C   0  0  0  0  0  0  0  0  0  0  0  0
  -12.6050   30.1620  -24.0910 C   0  0  0  0  0  0  0  0  0  0  0  0
  -11.5660   30.6760  -20.6690 C   0  0  0  0  0  0  0  0  0  0  0  0
  -17.9080   29.7960  -23.3390 C   0  0  1  0  0  0  0  0  0  0  0  0
  -11.4530   29.2600  -20.1770 C   0  0  0  0  0  0  0  0  0  0  0  0
  -19.2430   29.1350  -23.2350 C   0  0  0  0  0  0  0  0  0  0  0  0
  -18.2020   28.5770  -24.1600 C   0  0  0  0  0  0  0  0  0  0  0  0
  -10.8930   28.4290  -21.3000 C   0  0  0  0  0  0  0  0  0  0  0  0
  -14.1460   31.8870  -24.2650 C   0  0  0  0  0  0  0  0  0  0  0  0
  -16.5390   31.6110  -24.3680 C   0  0  0  0  0  0  0  0  0  0  0  0
  -15.2930   31.1900  -23.9220 C   0  0  0  0  0  0  0  0  0  0  0  0
  -16.5620   32.7440  -25.1450 C   0  0  0  0  0  0  0  0  0  0  0  0
  -14.2220   33.0130  -25.0420 C   0  0  0  0  0  0  0  0  0  0  0  0
  -18.9590   31.4880  -24.5860 C   0  0  0  0  0  0  0  0  0  0  0  0
  -15.4380   33.4550  -25.4880 C   0  0  0  0  0  0  0  0  0  0  0  0
  -19.0660   32.5710  -25.3440 C   0  0  0  0  0  0  0  0  0  0  0  0
  -17.8240   33.2660  -25.6630 C   0  0  0  0  0  0  0  0  0  0  0  0
  -20.4120   33.0460  -25.8250 C   0  0  0  0  0  0  0  0  0  0  0  0
  -15.5150   30.4780  -21.8310 C   0  0  0  0  0  0  0  0  0  0  0  0
  -17.2210   43.9140  -11.8190 F   0  0  0  0  0  0  0  0  0  0  0  0
  -18.0770   46.6410  -15.6480 O   0  0  0  0  0  0  0  0  0  0  0  0
  -21.9040   43.0420  -12.9470 O   0  0  0  0  0  0  0  0  0  0  0  0
  -24.3530   43.1550  -14.2740 O   0  0  0  0  0  0  0  0  0  0  0  0
  -24.3940   44.5860  -16.0590 O   0  0  0  0  0  0  0  0  0  0  0  0
  -16.2620   45.7900  -13.7230 N   0  0  0  0  0  0  0  0  0  0  0  0
  -13.4810   46.4570  -12.9760 N   0  0  0  0  0  0  0  0  0  0  0  0
  -20.7050   45.7080  -15.7140 N   0  0  0  0  0  0  0  0  0  0  0  0
  -15.2570   47.9520  -13.5360 C   0  0  2  0  0  0  0  0  0  0  0  0
  -14.7530   47.0340  -12.4660 C   0  0  1  0  0  0  0  0  0  0  0  0
  -16.1450   47.0760  -14.3950 C   0  0  0  0  0  0  0  0  0  0  0  0
  -15.7640   45.9140  -12.3750 C   0  0  0  0  0  0  0  0  0  0  0  0
  -14.1010   48.5410  -14.3060 C   0  0  0  0  0  0  0  0  0  0  0  0
  -20.3670   46.6720  -16.7510 C   0  0  1  0  0  0  0  0  0  0  0  0
  -13.4690   47.4610  -15.1430 C   0  0  0  0  0  0  0  0  0  0  0  0
  -21.2160   47.9000  -16.9060 C   0  0  0  0  0  0  0  0  0  0  0  0
  -19.8040   48.0160  -16.4110 C   0  0  0  0  0  0  0  0  0  0  0  0
  -13.5330   46.1430  -14.4190 C   0  0  0  0  0  0  0  0  0  0  0  0
  -17.5900   45.3040  -13.7330 C   0  0  0  0  0  0  0  0  0  0  0  0
  -19.7870   45.2820  -14.7480 C   0  0  0  0  0  0  0  0  0  0  0  0
  -18.4860   45.7320  -14.6980 C   0  0  0  0  0  0  0  0  0  0  0  0
  -20.1870   44.3690  -13.8020 C   0  0  0  0  0  0  0  0  0  0  0  0
  -18.0250   44.3870  -12.7920 C   0  0  0  0  0  0  0  0  0  0  0  0
  -21.9750   45.2300  -15.7130 C   0  0  0  0  0  0  0  0  0  0  0  0
  -19.3210   43.9230  -12.8330 C   0  0  0  0  0  0  0  0  0  0  0  0
  -22.4540   44.3520  -14.8440 C   0  0  0  0  0  0  0  0  0  0  0  0
  -21.5590   43.8480  -13.7940 C   0  0  0  0  0  0  0  0  0  0  0  0
  -23.8780   43.9930  -15.0740 C   0  0  0  0  0  0  0  0  0  0  0  0
  -17.0090   45.9460  -16.2700 C   0  0  0  0  0  0  0  0  0  0  0  0
  -17.7935   35.0677  -25.7598 H   0  0  0  0  0  0  0  0  0  0  0  0
  -20.2591   34.8792  -25.8934 H   0  0  0  0  0  0  0  0  0  0  0  0
  -21.5115   32.3534  -24.5089 H   0  0  0  0  0  0  0  0  0  0  0  0
  -10.6795   28.6992  -23.3388 H   0  0  0  0  0  0  0  0  0  0  0  0
  -13.6035   30.5958  -21.1885 H   0  0  0  0  0  0  0  0  0  0  0  0
  -13.0991   28.7377  -22.5865 H   0  0  0  0  0  0  0  0  0  0  0  0
  -11.6757   32.4949  -22.3981 H   0  0  0  0  0  0  0  0  0  0  0  0
  -13.4141   32.6794  -22.1728 H   0  0  0  0  0  0  0  0  0  0  0  0
  -13.4676   29.6969  -24.5906 H   0  0  0  0  0  0  0  0  0  0  0  0
  -11.7338   29.9770  -24.7366 H   0  0  0  0  0  0  0  0  0  0  0  0
  -10.6092   31.0005  -21.1040 H   0  0  0  0  0  0  0  0  0  0  0  0
  -11.8133   31.3567  -19.8411 H   0  0  0  0  0  0  0  0  0  0  0  0
  -17.1644   30.1034  -22.5889 H   0  0  0  0  0  0  0  0  0  0  0  0
  -10.7799   29.2179  -19.3080 H   0  0  0  0  0  0  0  0  0  0  0  0
  -12.4381   28.8790  -19.8698 H   0  0  0  0  0  0  0  0  0  0  0  0
  -19.5159   28.5880  -22.3205 H   0  0  0  0  0  0  0  0  0  0  0  0
  -20.2856   29.4669  -23.3480 H   0  0  0  0  0  0  0  0  0  0  0  0
  -18.3294   28.6641  -25.2491 H   0  0  0  0  0  0  0  0  0  0  0  0
  -17.7254   27.5949  -24.2953 H   0  0  0  0  0  0  0  0  0  0  0  0
  -11.4673   27.4967  -21.4049 H   0  0  0  0  0  0  0  0  0  0  0  0
   -9.8454   28.1554  -21.1060 H   0  0  0  0  0  0  0  0  0  0  0  0
  -14.0359   31.2632  -25.1643 H   0  0  0  0  0  0  0  0  0  0  0  0
  -16.6509   32.2334  -23.4679 H   0  0  0  0  0  0  0  0  0  0  0  0
  -15.3974   31.8070  -23.0173 H   0  0  0  0  0  0  0  0  0  0  0  0
  -16.6767   33.3611  -24.2417 H   0  0  0  0  0  0  0  0  0  0  0  0
  -14.1033   32.3973  -25.9458 H   0  0  0  0  0  0  0  0  0  0  0  0
  -19.3975   30.6690  -25.1751 H   0  0  0  0  0  0  0  0  0  0  0  0
  -19.4344   31.8383  -23.6579 H   0  0  0  0  0  0  0  0  0  0  0  0
  -15.3916   33.4780  -26.5868 H   0  0  0  0  0  0  0  0  0  0  0  0
  -15.5710   34.4252  -24.9870 H   0  0  0  0  0  0  0  0  0  0  0  0
  -19.1812   33.1906  -24.4424 H   0  0  0  0  0  0  0  0  0  0  0  0
  -17.7095   32.6473  -26.5653 H   0  0  0  0  0  0  0  0  0  0  0  0
  -20.5157   33.6661  -24.9224 H   0  0  0  0  0  0  0  0  0  0  0  0
  -14.9931   29.8514  -21.0928 H   0  0  0  0  0  0  0  0  0  0  0  0
  -15.2216   31.5291  -21.6926 H   0  0  0  0  0  0  0  0  0  0  0  0
  -16.6018   30.3794  -21.6926 H   0  0  0  0  0  0  0  0  0  0  0  0
  -21.7422   43.4200  -12.0464 H   0  0  0  0  0  0  0  0  0  0  0  0
  -24.1841   43.4529  -13.3451 H   0  0  0  0  0  0  0  0  0  0  0  0
  -25.0080   45.2916  -15.7347 H   0  0  0  0  0  0  0  0  0  0  0  0
  -12.7234   47.1357  -12.8139 H   0  0  0  0  0  0  0  0  0  0  0  0
  -15.8141   48.8160  -13.1446 H   0  0  0  0  0  0  0  0  0  0  0  0
  -14.6073   47.5349  -11.4975 H   0  0  0  0  0  0  0  0  0  0  0  0
  -15.6936   46.9419  -15.3891 H   0  0  0  0  0  0  0  0  0  0  0  0
  -17.1345   47.5371  -14.5301 H   0  0  0  0  0  0  0  0  0  0  0  0
  -16.5757   46.1743  -11.6797 H   0  0  0  0  0  0  0  0  0  0  0  0
  -15.3291   44.9781  -11.9943 H   0  0  0  0  0  0  0  0  0  0  0  0
  -14.4655   49.3478  -14.9588 H   0  0  0  0  0  0  0  0  0  0  0  0
  -13.3584   48.9511  -13.6058 H   0  0  0  0  0  0  0  0  0  0  0  0
  -20.0381   45.8497  -17.4034 H   0  0  0  0  0  0  0  0  0  0  0  0
  -14.0083   47.3782  -16.0981 H   0  0  0  0  0  0  0  0  0  0  0  0
  -12.4161   47.7191  -15.3295 H   0  0  0  0  0  0  0  0  0  0  0  0
  -21.4791   48.2643  -17.9100 H   0  0  0  0  0  0  0  0  0  0  0  0
  -22.2008   48.2183  -16.5333 H   0  0  0  0  0  0  0  0  0  0  0  0
  -19.6095   48.2810  -15.3613 H   0  0  0  0  0  0  0  0  0  0  0  0
  -18.9166   48.5877  -16.7202 H   0  0  0  0  0  0  0  0  0  0  0  0
  -12.6779   45.5115  -14.7020 H   0  0  0  0  0  0  0  0  0  0  0  0
  -14.4499   45.5917  -14.6745 H   0  0  0  0  0  0  0  0  0  0  0  0
  -17.8983   46.1330  -13.0790 H   0  0  0  0  0  0  0  0  0  0  0  0
  -19.4765   44.4575  -15.4067 H   0  0  0  0  0  0  0  0  0  0  0  0
  -18.1740   44.9060  -15.3540 H   0  0  0  0  0  0  0  0  0  0  0  0
  -19.8719   43.5472  -14.4619 H   0  0  0  0  0  0  0  0  0  0  0  0
  -18.3373   45.2109  -12.1335 H   0  0  0  0  0  0  0  0  0  0  0  0
  -22.6219   46.1151  -15.6231 H   0  0  0  0  0  0  0  0  0  0  0  0
  -21.9580   44.6173  -16.6264 H   0  0  0  0  0  0  0  0  0  0  0  0
  -19.7766   44.1718  -11.8632 H   0  0  0  0  0  0  0  0  0  0  0  0
  -19.1970   42.8583  -13.0802 H   0  0  0  0  0  0  0  0  0  0  0  0
  -22.1430   43.5289  -15.5042 H   0  0  0  0  0  0  0  0  0  0  0  0
  -21.8682   44.6724  -13.1347 H   0  0  0  0  0  0  0  0  0  0  0  0
  -23.5641   43.1705  -15.7336 H   0  0  0  0  0  0  0  0  0  0  0  0
  -16.3515   45.5181  -15.4989 H   0  0  0  0  0  0  0  0  0  0  0  0
  -17.4134   45.1376  -16.8968 H   0  0  0  0  0  0  0  0  0  0  0  0
  -16.4336   46.6431  -16.8968 H   0  0  0  0  0  0  0  0  0  0  0  0
  7 10  1  0
  9 10  1  0
  6 11  1  0
  9 11  1  0
  6 12  1  0
 10 12  1  0
  9 13  1  0
  8 14  1  0
 13 15  1  0
 14 16  1  0
 14 17  1  0
 16 17  1  0
  7 18  1  0
 15 18  1  0
  6 19  1  0
  8 20  1  0
  2 21  1  0
 19 21  1  0
 20 21  1  0
 20 22  1  0
  1 23  1  0
 19 23  1  0
  8 24  1  0
 22 25  1  0
 23 25  1  0
 24 26  1  0
 22 27  1  0
 26 27  1  0
 27  3  1  0
  5 28  1  0
 26 28  1  0
 28  4  1  0
  2 29  1  0
 36 39  1  0
 38 39  1  0
 35 40  1  0
 38 40  1  0
 35 41  1  0
 39 41  1  0
 38 42  1  0
 37 43  1  0
 42 44  1  0
 43 45  1  0
 43 46  1  0
 45 46  1  0
 36 47  1  0
 44 47  1  0
 35 48  1  0
 37 49  1  0
 31 50  1  0
 48 50  1  0
 49 50  1  0
 49 51  1  0
 30 52  1  0
 48 52  1  0
 37 53  1  0
 51 54  1  0
 52 54  1  0
 53 55  1  0
 51 56  1  0
 55 56  1  0
 56 32  1  0
 34 57  1  0
 55 57  1  0
 57 33  1  0
 31 58  1  0
  3 59  1  0
  4 60  1  0
  5 61  1  0
  7 62  1  0
  9 63  1  1
 10 64  1  1
 11 65  1  0
 11 66  1  0
 12 67  1  0
 12 68  1  0
 13 69  1  0
 13 70  1  0
 14 71  1  1
 15 72  1  0
 15 73  1  0
 16 74  1  0
 16 75  1  0
 17 76  1  0
 17 77  1  0
 18 78  1  0
 18 79  1  0
 19 80  1  0
 20 81  1  0
 21 82  1  0
 22 83  1  0
 23 84  1  0
 24 85  1  0
 24 86  1  0
 25 87  1  0
 25 88  1  0
 26 89  1  0
 27 90  1  0
 28 91  1  0
 29 92  1  0
 29 93  1  0
 29 94  1  0
 32 95  1  0
 33 96  1  0
 34 97  1  0
 36 98  1  0
 38 99  1  1
 39100  1  1
 40101  1  0
 40102  1  0
 41103  1  0
 41104  1  0
 42105  1  0
 42106  1  0
 43107  1  6
 44108  1  0
 44109  1  0
 45110  1  0
 45111  1  0
 46112  1  0
 46113  1  0
 47114  1  0
 47115  1  0
 48116  1  0
 49117  1  0
 50118  1  0
 51119  1  0
 52120  1  0
 53121  1  0
 53122  1  0
 54123  1  0
 54124  1  0
 55125  1  0
 56126  1  0
 57127  1  0
 58128  1  0
 58129  1  0
 58130  1  0
M  END
>  <PDBID>  (1) 
2XKK

>  <PDB ID>  (1) 
2XKK

>  <Generic Name>  (1) 
Moxifloxacin

>  <Brand Name>  (1) 
Act Moxifloxacin#Apo-moxifloxacin#Auro-moxifloxacin#Avelox#Avelox Abc Pack#Avelox I.V.#Bio-moxifloxacin#Dom-moxifloxacin#Ipg-moxifloxacin#Jamp-moxifloxacin#Jamp-moxifloxacin Tablets#Mar-moxifloxacin#Med-moxifloxacin#Moxeza#Moxifloxacin#Moxifloxacin Hydrochloride#Moxifloxacin Injection#Mylan-moxifloxacin#Mylan-moxifloxacin HCl Ophthalmic Solution#PHL-moxifloxacin#PMS-moxifloxacin#Priva-moxifloxacin#Riva-moxifloxacin#Sandoz Moxifloxacin#Teva-moxifloxacin#Torrent-moxifloxacin#Vigamox

>  <DrugBank ID>  (1) 
DB00218

>  <ATC Codes>  (1) 
J01MA14#S01AE07

>  <Ligand ID>  (1) 
MFX

>  <Target Name>  (1) 
DNA topoisomerase 4 subunit A

>  <UniProt ID>  (1) 
P43702

>  <PDB ID.1>  (1) 
2XKK

>  <Seq. Identity>  (1) 
63%

$$$$
