PDB_DB01041_99
     RDKit          3D

172180  0  0  0  0  0  0  0  0999 V2000
   35.9570   -1.8110  -46.9150 O   0  0  0  0  0  0  0  0  0  0  0  0
   35.4660   -2.8700  -47.3250 C   0  0  0  0  0  0  0  0  0  0  0  0
   34.4130   -3.4380  -46.7100 N   0  0  0  0  0  0  0  0  0  0  0  0
   33.7250   -4.4940  -47.2030 C   0  0  0  0  0  0  0  0  0  0  0  0
   32.6440   -4.8120  -46.7160 O   0  0  0  0  0  0  0  0  0  0  0  0
   34.3120   -5.2800  -48.3760 C   0  0  0  0  0  0  0  0  0  0  0  0
   35.8140   -5.0590  -48.4880 C   0  0  0  0  0  0  0  0  0  0  0  0
   36.0390   -3.5680  -48.5470 C   0  0  2  0  0  0  0  0  0  0  0  0
   37.4660   -3.1950  -48.6610 N   0  0  0  0  0  0  0  0  0  0  0  0
   42.0160   -1.9650  -48.4670 C   0  0  0  0  0  0  0  0  0  0  0  0
   41.0150   -2.5460  -47.6750 C   0  0  0  0  0  0  0  0  0  0  0  0
   39.7520   -2.6950  -48.2530 C   0  0  0  0  0  0  0  0  0  0  0  0
   39.4840   -2.3040  -49.5370 C   0  0  0  0  0  0  0  0  0  0  0  0
   38.2920   -3.7750  -46.4330 O   0  0  0  0  0  0  0  0  0  0  0  0
   37.2730   -2.3760  -50.9160 O   0  0  0  0  0  0  0  0  0  0  0  0
   40.4550   -1.7290  -50.3470 C   0  0  0  0  0  0  0  0  0  0  0  0
   41.7370   -1.5610  -49.7910 C   0  0  0  0  0  0  0  0  0  0  0  0
   38.0490   -2.6660  -49.7270 C   0  0  1  0  0  0  0  0  0  0  0  0
   38.4550   -3.2410  -47.7670 C   0  0  0  0  0  0  0  0  0  0  0  0
   24.5540  -36.3140  -70.1790 O   0  0  0  0  0  0  0  0  0  0  0  0
   24.0730  -35.8140  -69.1690 C   0  0  0  0  0  0  0  0  0  0  0  0
   24.7220  -34.8650  -68.5030 N   0  0  0  0  0  0  0  0  0  0  0  0
   24.1940  -34.1140  -67.5270 C   0  0  0  0  0  0  0  0  0  0  0  0
   24.8090  -33.1340  -67.1100 O   0  0  0  0  0  0  0  0  0  0  0  0
   22.8400  -34.5070  -66.9490 C   0  0  0  0  0  0  0  0  0  0  0  0
   22.6070  -36.0010  -67.1720 C   0  0  0  0  0  0  0  0  0  0  0  0
   22.7150  -36.2520  -68.6680 C   0  0  2  0  0  0  0  0  0  0  0  0
   22.5180  -37.6840  -69.0300 N   0  0  0  0  0  0  0  0  0  0  0  0
   22.4490  -42.2660  -70.1360 C   0  0  0  0  0  0  0  0  0  0  0  0
   23.2830  -41.3030  -69.5360 C   0  0  0  0  0  0  0  0  0  0  0  0
   22.7890  -40.0100  -69.4570 C   0  0  0  0  0  0  0  0  0  0  0  0
   21.5570  -39.6680  -69.9320 C   0  0  0  0  0  0  0  0  0  0  0  0
   24.6560  -38.6490  -68.3230 O   0  0  0  0  0  0  0  0  0  0  0  0
   20.3260  -37.3850  -69.9570 O   0  0  0  0  0  0  0  0  0  0  0  0
   20.7000  -40.6030  -70.5180 C   0  0  0  0  0  0  0  0  0  0  0  0
   21.1740  -41.9220  -70.6260 C   0  0  0  0  0  0  0  0  0  0  0  0
   21.4520  -38.2170  -69.6170 C   0  0  1  0  0  0  0  0  0  0  0  0
   23.3380  -38.7350  -68.9150 C   0  0  0  0  0  0  0  0  0  0  0  0
   47.6110  -34.1180  -68.9540 O   0  0  0  0  0  0  0  0  0  0  0  0
   48.0570  -34.6960  -67.9450 C   0  0  0  0  0  0  0  0  0  0  0  0
   47.4320  -35.7840  -67.4610 N   0  0  0  0  0  0  0  0  0  0  0  0
   47.8480  -36.4950  -66.3970 C   0  0  0  0  0  0  0  0  0  0  0  0
   47.2740  -37.5230  -66.0810 O   0  0  0  0  0  0  0  0  0  0  0  0
   49.0350  -36.0050  -65.6050 C   0  0  0  0  0  0  0  0  0  0  0  0
   49.2050  -34.4790  -65.7490 C   0  0  0  0  0  0  0  0  0  0  0  0
   49.3130  -34.2120  -67.2320 C   0  0  2  0  0  0  0  0  0  0  0  0
   49.5200  -32.8010  -67.5980 N   0  0  0  0  0  0  0  0  0  0  0  0
   49.5280  -28.2690  -68.8800 C   0  0  0  0  0  0  0  0  0  0  0  0
   48.6810  -29.2090  -68.2450 C   0  0  0  0  0  0  0  0  0  0  0  0
   49.1980  -30.5010  -68.1120 C   0  0  0  0  0  0  0  0  0  0  0  0
   50.4740  -30.8530  -68.5570 C   0  0  0  0  0  0  0  0  0  0  0  0
   47.3280  -31.8370  -66.9420 O   0  0  0  0  0  0  0  0  0  0  0  0
   51.7470  -33.0840  -68.4930 O   0  0  0  0  0  0  0  0  0  0  0  0
   51.3290  -29.9520  -69.1820 C   0  0  0  0  0  0  0  0  0  0  0  0
   50.8270  -28.6360  -69.3310 C   0  0  0  0  0  0  0  0  0  0  0  0
   50.5890  -32.2910  -68.2050 C   0  0  0  0  0  0  0  0  0  0  0  0
   48.6660  -31.7570  -67.5250 C   0  0  0  0  0  0  0  0  0  0  0  0
   47.5870  -34.8400  -72.2250 O   0  0  0  0  0  0  0  0  0  0  0  0
   48.0310  -34.3560  -73.2720 C   0  0  0  0  0  0  0  0  0  0  0  0
   47.4090  -33.3120  -73.8370 N   0  0  0  0  0  0  0  0  0  0  0  0
   47.8810  -32.6690  -74.9330 C   0  0  0  0  0  0  0  0  0  0  0  0
   47.3290  -31.6940  -75.3630 O   0  0  0  0  0  0  0  0  0  0  0  0
   49.1200  -33.2010  -75.6280 C   0  0  0  0  0  0  0  0  0  0  0  0
   49.2640  -34.7090  -75.4220 C   0  0  0  0  0  0  0  0  0  0  0  0
   49.2890  -34.9050  -73.9190 C   0  0  2  0  0  0  0  0  0  0  0  0
   49.4460  -36.3150  -73.5120 N   0  0  0  0  0  0  0  0  0  0  0  0
   49.4190  -40.7870  -72.1150 C   0  0  0  0  0  0  0  0  0  0  0  0
   48.5680  -39.8540  -72.7380 C   0  0  0  0  0  0  0  0  0  0  0  0
   49.0990  -38.5920  -72.9330 C   0  0  0  0  0  0  0  0  0  0  0  0
   50.3860  -38.2760  -72.5550 C   0  0  0  0  0  0  0  0  0  0  0  0
   47.2410  -37.2060  -74.0690 O   0  0  0  0  0  0  0  0  0  0  0  0
   51.7160  -36.1080  -72.6630 O   0  0  0  0  0  0  0  0  0  0  0  0
   51.2500  -39.1690  -71.9280 C   0  0  0  0  0  0  0  0  0  0  0  0
   50.7460  -40.4590  -71.7250 C   0  0  0  0  0  0  0  0  0  0  0  0
   50.5230  -36.8630  -72.9410 C   0  0  1  0  0  0  0  0  0  0  0  0
   48.5750  -37.3270  -73.5270 C   0  0  0  0  0  0  0  0  0  0  0  0
   35.9579   -1.8092  -45.9250 H   0  0  0  0  0  0  0  0  0  0  0  0
   36.1504   -3.4379  -46.6777 H   0  0  0  0  0  0  0  0  0  0  0  0
   34.7575   -3.7365  -45.7864 H   0  0  0  0  0  0  0  0  0  0  0  0
   34.2399   -5.1600  -46.4950 H   0  0  0  0  0  0  0  0  0  0  0  0
   32.7086   -4.7930  -45.7283 H   0  0  0  0  0  0  0  0  0  0  0  0
   34.1171   -6.3518  -48.2235 H   0  0  0  0  0  0  0  0  0  0  0  0
   33.8374   -4.9285  -49.3040 H   0  0  0  0  0  0  0  0  0  0  0  0
   36.3244   -5.4834  -47.6109 H   0  0  0  0  0  0  0  0  0  0  0  0
   36.2168   -5.5519  -49.3851 H   0  0  0  0  0  0  0  0  0  0  0  0
   35.5177   -3.2392  -49.4581 H   0  0  0  0  0  0  0  0  0  0  0  0
   42.3625   -1.0694  -47.9304 H   0  0  0  0  0  0  0  0  0  0  0  0
   42.7320   -2.7886  -48.6050 H   0  0  0  0  0  0  0  0  0  0  0  0
   41.3646   -3.5465  -47.3805 H   0  0  0  0  0  0  0  0  0  0  0  0
   40.8658   -1.8417  -46.8433 H   0  0  0  0  0  0  0  0  0  0  0  0
   39.4679   -1.6964  -47.8896 H   0  0  0  0  0  0  0  0  0  0  0  0
   39.1967   -1.3064  -49.1733 H   0  0  0  0  0  0  0  0  0  0  0  0
   38.5062   -3.0734  -45.7682 H   0  0  0  0  0  0  0  0  0  0  0  0
   36.3789   -2.0419  -50.6532 H   0  0  0  0  0  0  0  0  0  0  0  0
   40.5613   -2.3643  -51.2387 H   0  0  0  0  0  0  0  0  0  0  0  0
   40.0941   -0.7086  -50.5430 H   0  0  0  0  0  0  0  0  0  0  0  0
   41.9616   -0.4855  -49.8433 H   0  0  0  0  0  0  0  0  0  0  0  0
   42.3510   -2.2513  -50.3881 H   0  0  0  0  0  0  0  0  0  0  0  0
   37.7512   -1.6616  -49.3915 H   0  0  0  0  0  0  0  0  0  0  0  0
   38.7385   -4.2392  -48.1320 H   0  0  0  0  0  0  0  0  0  0  0  0
   25.2169  -37.0031  -69.9225 H   0  0  0  0  0  0  0  0  0  0  0  0
   24.5653  -36.5820  -68.5543 H   0  0  0  0  0  0  0  0  0  0  0  0
   25.5354  -35.3338  -68.0794 H   0  0  0  0  0  0  0  0  0  0  0  0
   24.6887  -34.7449  -66.7739 H   0  0  0  0  0  0  0  0  0  0  0  0
   24.8058  -33.1391  -66.1200 H   0  0  0  0  0  0  0  0  0  0  0  0
   22.8244  -34.2901  -65.8707 H   0  0  0  0  0  0  0  0  0  0  0  0
   22.0463  -33.9327  -67.4493 H   0  0  0  0  0  0  0  0  0  0  0  0
   23.3685  -36.5859  -66.6353 H   0  0  0  0  0  0  0  0  0  0  0  0
   21.6192  -36.3038  -66.7945 H   0  0  0  0  0  0  0  0  0  0  0  0
   21.9124  -35.6671  -69.1411 H   0  0  0  0  0  0  0  0  0  0  0  0
   23.0101  -42.6773  -70.9880 H   0  0  0  0  0  0  0  0  0  0  0  0
   22.2110  -42.9347  -69.2957 H   0  0  0  0  0  0  0  0  0  0  0  0
   23.4973  -41.6405  -68.5112 H   0  0  0  0  0  0  0  0  0  0  0  0
   24.1629  -41.2352  -70.1926 H   0  0  0  0  0  0  0  0  0  0  0  0
   23.2308  -39.7813  -70.4381 H   0  0  0  0  0  0  0  0  0  0  0  0
   21.9965  -39.4533  -70.9173 H   0  0  0  0  0  0  0  0  0  0  0  0
   24.5755  -38.6542  -67.3363 H   0  0  0  0  0  0  0  0  0  0  0  0
   19.8909  -37.0635  -69.1279 H   0  0  0  0  0  0  0  0  0  0  0  0
   19.7779  -40.6296  -69.9188 H   0  0  0  0  0  0  0  0  0  0  0  0
   20.5687  -40.2603  -71.5550 H   0  0  0  0  0  0  0  0  0  0  0  0
   21.1703  -42.1714  -71.6973 H   0  0  0  0  0  0  0  0  0  0  0  0
   20.4959  -42.4833  -69.9664 H   0  0  0  0  0  0  0  0  0  0  0  0
   21.8729  -37.9724  -70.6034 H   0  0  0  0  0  0  0  0  0  0  0  0
   22.9037  -38.9662  -67.9312 H   0  0  0  0  0  0  0  0  0  0  0  0
   47.0309  -33.3662  -68.6742 H   0  0  0  0  0  0  0  0  0  0  0  0
   47.4364  -34.0538  -67.3028 H   0  0  0  0  0  0  0  0  0  0  0  0
   46.4772  -35.4743  -67.2301 H   0  0  0  0  0  0  0  0  0  0  0  0
   47.1728  -35.9184  -65.7477 H   0  0  0  0  0  0  0  0  0  0  0  0
   47.2366  -37.5900  -65.0940 H   0  0  0  0  0  0  0  0  0  0  0  0
   48.8854  -36.2515  -64.5435 H   0  0  0  0  0  0  0  0  0  0  0  0
   49.9403  -36.4960  -65.9914 H   0  0  0  0  0  0  0  0  0  0  0  0
   48.3336  -33.9557  -65.3286 H   0  0  0  0  0  0  0  0  0  0  0  0
   50.0927  -34.1190  -65.2083 H   0  0  0  0  0  0  0  0  0  0  0  0
   50.2111  -34.7635  -67.5470 H   0  0  0  0  0  0  0  0  0  0  0  0
   48.9827  -27.9040  -69.7628 H   0  0  0  0  0  0  0  0  0  0  0  0
   49.7468  -27.5571  -68.0705 H   0  0  0  0  0  0  0  0  0  0  0  0
   48.4531  -28.8313  -67.2373 H   0  0  0  0  0  0  0  0  0  0  0  0
   47.7999  -29.3053  -68.8965 H   0  0  0  0  0  0  0  0  0  0  0  0
   48.7816  -30.7688  -69.0943 H   0  0  0  0  0  0  0  0  0  0  0  0
   50.0555  -31.1341  -69.5347 H   0  0  0  0  0  0  0  0  0  0  0  0
   47.3975  -31.8328  -65.9545 H   0  0  0  0  0  0  0  0  0  0  0  0
   52.1685  -33.3727  -67.6450 H   0  0  0  0  0  0  0  0  0  0  0  0
   52.2542  -29.8965  -68.5896 H   0  0  0  0  0  0  0  0  0  0  0  0
   51.4772  -30.3353  -70.2023 H   0  0  0  0  0  0  0  0  0  0  0  0
   50.8521  -28.4170  -70.4087 H   0  0  0  0  0  0  0  0  0  0  0  0
   51.4772  -28.0626  -68.6539 H   0  0  0  0  0  0  0  0  0  0  0  0
   50.1644  -32.5642  -69.1823 H   0  0  0  0  0  0  0  0  0  0  0  0
   49.0887  -31.4795  -66.5481 H   0  0  0  0  0  0  0  0  0  0  0  0
   48.0030  -34.3866  -71.4494 H   0  0  0  0  0  0  0  0  0  0  0  0
   47.4044  -35.0457  -73.8565 H   0  0  0  0  0  0  0  0  0  0  0  0
   46.4680  -33.6465  -74.0891 H   0  0  0  0  0  0  0  0  0  0  0  0
   47.2562  -33.3063  -75.5760 H   0  0  0  0  0  0  0  0  0  0  0  0
   47.0124  -31.1349  -74.6098 H   0  0  0  0  0  0  0  0  0  0  0  0
   49.0452  -32.9914  -76.7053 H   0  0  0  0  0  0  0  0  0  0  0  0
   50.0018  -32.7045  -75.1970 H   0  0  0  0  0  0  0  0  0  0  0  0
   48.4105  -35.2421  -75.8662 H   0  0  0  0  0  0  0  0  0  0  0  0
   50.1707  -35.1046  -75.9030 H   0  0  0  0  0  0  0  0  0  0  0  0
   50.1732  -34.3497  -73.5729 H   0  0  0  0  0  0  0  0  0  0  0  0
   48.9015  -41.1115  -71.2002 H   0  0  0  0  0  0  0  0  0  0  0  0
   49.5908  -41.5146  -72.9219 H   0  0  0  0  0  0  0  0  0  0  0  0
   48.2871  -40.2578  -73.7219 H   0  0  0  0  0  0  0  0  0  0  0  0
   47.7194  -39.7184  -72.0514 H   0  0  0  0  0  0  0  0  0  0  0  0
   48.7326  -38.2848  -71.9424 H   0  0  0  0  0  0  0  0  0  0  0  0
   50.0163  -37.9445  -71.5734 H   0  0  0  0  0  0  0  0  0  0  0  0
   46.5877  -37.1467  -73.3275 H   0  0  0  0  0  0  0  0  0  0  0  0
   51.8372  -36.0313  -71.6834 H   0  0  0  0  0  0  0  0  0  0  0  0
   52.1560  -39.2534  -72.5461 H   0  0  0  0  0  0  0  0  0  0  0  0
   51.4318  -38.7564  -70.9246 H   0  0  0  0  0  0  0  0  0  0  0  0
   50.8148  -40.6574  -70.6452 H   0  0  0  0  0  0  0  0  0  0  0  0
   51.3601  -41.0725  -72.4007 H   0  0  0  0  0  0  0  0  0  0  0  0
   50.1540  -36.5568  -71.9510 H   0  0  0  0  0  0  0  0  0  0  0  0
   48.9500  -37.6352  -74.5141 H   0  0  0  0  0  0  0  0  0  0  0  0
  1  2  1  0
  2  3  1  0
  3  4  1  0
  4  5  1  0
  4  6  1  0
  6  7  1  0
  2  8  1  0
  7  8  1  0
  8  9  1  0
 10 11  1  0
 11 12  1  0
 12 13  1  0
 13 16  1  0
 10 17  1  0
 16 17  1  0
  9 18  1  0
 13 18  1  0
 15 18  1  0
  9 19  1  0
 12 19  1  0
 14 19  1  0
 20 21  1  0
 21 22  1  0
 22 23  1  0
 23 24  1  0
 23 25  1  0
 25 26  1  0
 21 27  1  0
 26 27  1  0
 27 28  1  0
 29 30  1  0
 30 31  1  0
 31 32  1  0
 32 35  1  0
 29 36  1  0
 35 36  1  0
 28 37  1  0
 32 37  1  0
 34 37  1  0
 28 38  1  0
 31 38  1  0
 33 38  1  0
 39 40  1  0
 40 41  1  0
 41 42  1  0
 42 43  1  0
 42 44  1  0
 44 45  1  0
 40 46  1  0
 45 46  1  0
 46 47  1  0
 48 49  1  0
 49 50  1  0
 50 51  1  0
 51 54  1  0
 48 55  1  0
 54 55  1  0
 47 56  1  0
 51 56  1  0
 53 56  1  0
 47 57  1  0
 50 57  1  0
 52 57  1  0
 58 59  1  0
 59 60  1  0
 60 61  1  0
 61 62  1  0
 61 63  1  0
 63 64  1  0
 59 65  1  0
 64 65  1  0
 65 66  1  0
 67 68  1  0
 68 69  1  0
 69 70  1  0
 70 73  1  0
 67 74  1  0
 73 74  1  0
 66 75  1  0
 70 75  1  0
 72 75  1  0
 66 76  1  0
 69 76  1  0
 71 76  1  0
  1 77  1  0
  2 78  1  0
  3 79  1  0
  4 80  1  0
  5 81  1  0
  6 82  1  0
  6 83  1  0
  7 84  1  0
  7 85  1  0
  8 86  1  6
 10 87  1  0
 10 88  1  0
 11 89  1  0
 11 90  1  0
 12 91  1  0
 13 92  1  0
 14 93  1  0
 15 94  1  0
 16 95  1  0
 16 96  1  0
 17 97  1  0
 17 98  1  0
 18 99  1  6
 19100  1  0
 20101  1  0
 21102  1  0
 22103  1  0
 23104  1  0
 24105  1  0
 25106  1  0
 25107  1  0
 26108  1  0
 26109  1  0
 27110  1  6
 29111  1  0
 29112  1  0
 30113  1  0
 30114  1  0
 31115  1  0
 32116  1  0
 33117  1  0
 34118  1  0
 35119  1  0
 35120  1  0
 36121  1  0
 36122  1  0
 37123  1  1
 38124  1  0
 39125  1  0
 40126  1  0
 41127  1  0
 42128  1  0
 43129  1  0
 44130  1  0
 44131  1  0
 45132  1  0
 45133  1  0
 46134  1  6
 48135  1  0
 48136  1  0
 49137  1  0
 49138  1  0
 50139  1  0
 51140  1  0
 52141  1  0
 53142  1  0
 54143  1  0
 54144  1  0
 55145  1  0
 55146  1  0
 56147  1  0
 57148  1  0
 58149  1  0
 59150  1  0
 60151  1  0
 61152  1  0
 62153  1  0
 63154  1  0
 63155  1  0
 64156  1  0
 64157  1  0
 65158  1  1
 67159  1  0
 67160  1  0
 68161  1  0
 68162  1  0
 69163  1  0
 70164  1  0
 71165  1  0
 72166  1  0
 73167  1  0
 73168  1  0
 74169  1  0
 74170  1  0
 75171  1  6
 76172  1  0
M  END
>  <PDBID>  (1) 
4TZC

>  <PDB ID>  (1) 
4TZC

>  <Generic Name>  (1) 
Thalidomide

>  <Brand Name>  (1) 
Thalomid#Contergan#Distaval#K-17#Pro-ban M#Sedalis#Softenon#Talimol#Thaled

>  <DrugBank ID>  (1) 
DB01041

>  <ATC Codes>  (1) 
L04AX02

>  <Ligand ID>  (1) 
EF2

>  <Target Name>  (1) 
Protein cereblon

>  <UniProt ID>  (1) 
Q96SW2

>  <PDB ID.1>  (1) 
4TZC

>  <Seq. Identity>  (1) 
97%

$$$$
