PDB_DB00582_96
     RDKit          3D

 39 41  0  0  0  0  0  0  0  0999 V2000
  138.9250  247.0780    6.8610 F   0  0  0  0  0  0  0  0  0  0  0  0
  140.1630  243.3520    8.9940 F   0  0  0  0  0  0  0  0  0  0  0  0
  138.3010  251.6930    6.6620 F   0  0  0  0  0  0  0  0  0  0  0  0
  140.6570  247.5990   10.7370 O   0  0  0  0  0  0  0  0  0  0  0  0
  137.7450  247.4740   10.2670 N   0  0  0  0  0  0  0  0  0  0  0  0
  142.4460  245.6410   10.5960 N   0  0  0  0  0  0  0  0  0  0  0  0
  136.4470  247.2110    9.9280 N   0  0  0  0  0  0  0  0  0  0  0  0
  136.5780  249.0330   11.0460 N   0  0  0  0  0  0  0  0  0  0  0  0
  142.6270  243.5040   11.5130 N   0  0  0  0  0  0  0  0  0  0  0  0
  140.0470  247.1990    9.5220 C   0  0  1  0  0  0  0  0  0  0  0  0
  140.9190  246.2010    8.8000 C   0  0  1  0  0  0  0  0  0  0  0  0
  138.7290  246.5180    9.7950 C   0  0  0  0  0  0  0  0  0  0  0  0
  139.6070  248.3870    8.7400 C   0  0  0  0  0  0  0  0  0  0  0  0
  142.0780  246.9080    8.1390 C   0  0  0  0  0  0  0  0  0  0  0  0
  141.4990  245.2350    9.7540 C   0  0  0  0  0  0  0  0  0  0  0  0
  139.0250  248.2620    7.4140 C   0  0  0  0  0  0  0  0  0  0  0  0
  139.6700  249.6420    9.2770 C   0  0  0  0  0  0  0  0  0  0  0  0
  141.0960  243.8240    9.8120 C   0  0  0  0  0  0  0  0  0  0  0  0
  138.6050  249.3680    6.7310 C   0  0  0  0  0  0  0  0  0  0  0  0
  139.2360  250.7360    8.5690 C   0  0  0  0  0  0  0  0  0  0  0  0
  137.8260  248.5930   10.9250 C   0  0  0  0  0  0  0  0  0  0  0  0
  138.7090  250.6060    7.3120 C   0  0  0  0  0  0  0  0  0  0  0  0
  141.6950  242.9960   10.7220 C   0  0  0  0  0  0  0  0  0  0  0  0
  142.9930  244.7840   11.4460 C   0  0  0  0  0  0  0  0  0  0  0  0
  135.7360  248.2010   10.4390 C   0  0  0  0  0  0  0  0  0  0  0  0
  140.1298  247.2533   11.5004 H   0  0  0  0  0  0  0  0  0  0  0  0
  140.2896  245.6877    8.0581 H   0  0  0  0  0  0  0  0  0  0  0  0
  138.8753  245.7425   10.5613 H   0  0  0  0  0  0  0  0  0  0  0  0
  138.3638  246.0674    8.8603 H   0  0  0  0  0  0  0  0  0  0  0  0
  142.7470  247.3161    8.9109 H   0  0  0  0  0  0  0  0  0  0  0  0
  142.6334  246.1947    7.5123 H   0  0  0  0  0  0  0  0  0  0  0  0
  141.6979  247.7282    7.5123 H   0  0  0  0  0  0  0  0  0  0  0  0
  140.0742  249.7780   10.2910 H   0  0  0  0  0  0  0  0  0  0  0  0
  138.1852  249.2661    5.7194 H   0  0  0  0  0  0  0  0  0  0  0  0
  139.3133  251.7360    9.0206 H   0  0  0  0  0  0  0  0  0  0  0  0
  138.7392  249.0756   11.3033 H   0  0  0  0  0  0  0  0  0  0  0  0
  141.4096  241.9361   10.7943 H   0  0  0  0  0  0  0  0  0  0  0  0
  143.7812  245.1436   12.1239 H   0  0  0  0  0  0  0  0  0  0  0  0
  134.6440  248.3163   10.3740 H   0  0  0  0  0  0  0  0  0  0  0  0
  5  7  1  0
 10  4  1  1
 10 11  1  0
  5 12  1  0
 10 12  1  0
 10 13  1  0
 11 14  1  0
  6 15  2  0
 11 15  1  0
  1 16  1  0
 13 16  2  0
 13 17  1  0
  2 18  1  0
 15 18  1  0
 16 19  1  0
 17 20  2  0
  5 21  1  0
 21  8  2  0
  3 22  1  0
 19 22  2  0
 20 22  1  0
  9 23  1  0
 18 23  2  0
  6 24  1  0
  9 24  2  0
  7 25  2  0
 25  8  1  0
  4 26  1  0
 11 27  1  6
 12 28  1  0
 12 29  1  0
 14 30  1  0
 14 31  1  0
 14 32  1  0
 17 33  1  0
 19 34  1  0
 20 35  1  0
 21 36  1  0
 23 37  1  0
 24 38  1  0
 25 39  1  0
M  END
$$$$
