PDB_DB00360_98
     RDKit          3D

 32 33  0  0  0  0  0  0  0  0999 V2000
   -5.8020   22.4160    8.1870 N   0  0  0  0  0  0  0  0  0  0  0  0
   -4.8240   21.5300    8.5420 C   0  0  0  0  0  0  0  0  0  0  0  0
   -5.0820   20.3210    9.0470 N   0  0  0  0  0  0  0  0  0  0  0  0
   -3.5240   21.9290    8.3720 N   0  0  0  0  0  0  0  0  0  0  0  0
   -3.0960   23.1940    7.8270 C   0  0  0  0  0  0  0  0  0  0  0  0
   -1.8860   23.4120    7.7360 O   0  0  0  0  0  0  0  0  0  0  0  0
   -4.1900   24.0690    7.4850 C   0  0  0  0  0  0  0  0  0  0  0  0
   -5.5330   23.6800    7.6490 C   0  0  0  0  0  0  0  0  0  0  0  0
   -3.9030   25.4090    6.9150 N   0  0  0  0  0  0  0  0  0  0  0  0
   -6.5680   24.4850    7.3240 N   0  0  0  0  0  0  0  0  0  0  0  0
   -5.0190   26.4600    7.1620 C   0  0  2  0  0  0  0  0  0  0  0  0
   -6.3730   25.8470    6.7490 C   0  0  0  0  0  0  0  0  0  0  0  0
   -4.5330   27.7710    6.4370 C   0  0  1  0  0  0  0  0  0  0  0  0
   -4.2840   27.5580    5.0420 O   0  0  0  0  0  0  0  0  0  0  0  0
   -5.5210   28.9940    6.5360 C   0  0  2  0  0  0  0  0  0  0  0  0
   -5.8050   29.4250    7.9370 C   0  0  0  0  0  0  0  0  0  0  0  0
   -6.7240   28.6470    5.8410 O   0  0  0  0  0  0  0  0  0  0  0  0
   -4.3064   19.6916    9.2982 H   0  0  0  0  0  0  0  0  0  0  0  0
   -6.0566   20.0179    9.1853 H   0  0  0  0  0  0  0  0  0  0  0  0
   -2.7882   21.2677    8.6585 H   0  0  0  0  0  0  0  0  0  0  0  0
   -3.0374   25.6235    6.3996 H   0  0  0  0  0  0  0  0  0  0  0  0
   -7.5279   24.1453    7.4792 H   0  0  0  0  0  0  0  0  0  0  0  0
   -5.1956   26.7456    8.2095 H   0  0  0  0  0  0  0  0  0  0  0  0
   -6.4119   25.7782    5.6518 H   0  0  0  0  0  0  0  0  0  0  0  0
   -7.1722   26.4966    7.1354 H   0  0  0  0  0  0  0  0  0  0  0  0
   -3.6104   28.0188    6.9823 H   0  0  0  0  0  0  0  0  0  0  0  0
   -3.5362   26.9183    4.9342 H   0  0  0  0  0  0  0  0  0  0  0  0
   -5.0394   29.8662    6.0698 H   0  0  0  0  0  0  0  0  0  0  0  0
   -5.3393   28.7182    8.6396 H   0  0  0  0  0  0  0  0  0  0  0  0
   -5.3925   30.4313    8.1018 H   0  0  0  0  0  0  0  0  0  0  0  0
   -6.8924   29.4430    8.1018 H   0  0  0  0  0  0  0  0  0  0  0  0
   -7.4365   28.4415    6.4969 H   0  0  0  0  0  0  0  0  0  0  0  0
  1  2  2  0
  2  3  1  0
  2  4  1  0
  4  5  1  0
  5  6  2  0
  5  7  1  0
  1  8  1  0
  7  8  2  0
  7  9  1  0
  8 10  1  0
  9 11  1  0
 10 12  1  0
 11 12  1  0
 11 13  1  0
 13 14  1  0
 13 15  1  0
 15 16  1  0
 15 17  1  0
  3 18  1  0
  3 19  1  0
  4 20  1  0
  9 21  1  0
 10 22  1  0
 11 23  1  1
 12 24  1  0
 12 25  1  0
 13 26  1  1
 14 27  1  0
 15 28  1  6
 16 29  1  0
 16 30  1  0
 16 31  1  0
 17 32  1  0
M  END
>  <PDBID>  (1) 
1MMK

>  <PDB ID>  (1) 
1MMK

>  <Generic Name>  (1) 
Sapropterin

>  <Brand Name>  (1) 
Kuvan#BH4#Biopten

>  <DrugBank ID>  (1) 
DB00360

>  <ATC Codes>  (1) 
A16AX07

>  <Ligand ID>  (1) 
BH4,BHS,H4B,THB

>  <Target Name>  (1) 
Tryptophan 5-hydroxylase 1

>  <UniProt ID>  (1) 
P17752

>  <PDB ID.1>  (1) 
1MMK

>  <Seq. Identity>  (1) 
65%

$$$$
