PDB_DB01137_96
     RDKit          3D

 46 49  0  0  0  0  0  0  0  0999 V2000
  141.7910    2.7190   22.5010 C   0  0  0  0  0  0  0  0  0  0  0  0
  148.2250    2.4680   18.6410 F   0  0  0  0  0  0  0  0  0  0  0  0
  152.5400    2.2300   21.1980 N   0  0  0  0  0  0  0  0  0  0  0  0
  141.1220    2.5470   21.4700 O   0  0  0  0  0  0  0  0  0  0  0  0
  150.3400    1.1130   20.8540 C   0  0  0  0  0  0  0  0  0  0  0  0
  149.8510    2.4300   21.1290 N   0  0  0  0  0  0  0  0  0  0  0  0
  148.4390    2.5000   23.5950 O   0  0  0  0  0  0  0  0  0  0  0  0
  150.4870    3.3570   20.2770 C   0  0  0  0  0  0  0  0  0  0  0  0
  145.5540    2.6010   23.6590 N   0  0  0  0  0  0  0  0  0  0  0  0
  143.3280    2.6490   20.1190 O   0  0  0  0  0  0  0  0  0  0  0  0
  146.2480    2.5780   24.8140 C   0  0  2  0  0  0  0  0  0  0  0  0
  141.2300    2.9280   23.5980 O   0  0  0  0  0  0  0  0  0  0  0  0
  148.3600    2.4850   21.0770 C   0  0  0  0  0  0  0  0  0  0  0  0
  146.2550    2.5660   22.3620 C   0  0  0  0  0  0  0  0  0  0  0  0
  147.6580    2.5150   22.3200 C   0  0  0  0  0  0  0  0  0  0  0  0
  151.8510    0.9980   21.1000 C   0  0  0  0  0  0  0  0  0  0  0  0
  151.9860    3.3940   20.5240 C   0  0  0  0  0  0  0  0  0  0  0  0
  147.6970    3.1330   24.6780 C   0  0  0  0  0  0  0  0  0  0  0  0
  145.5180    2.5830   21.1510 C   0  0  0  0  0  0  0  0  0  0  0  0
  147.6120    2.5000   19.8760 C   0  0  0  0  0  0  0  0  0  0  0  0
  144.0680    2.6510   23.7040 C   0  0  0  0  0  0  0  0  0  0  0  0
  146.1940    2.5510   19.9200 C   0  0  0  0  0  0  0  0  0  0  0  0
  146.3160    1.1010   25.3110 C   0  0  0  0  0  0  0  0  0  0  0  0
  143.9810    2.6350   21.1860 C   0  0  0  0  0  0  0  0  0  0  0  0
  153.9380    2.0620   20.8060 C   0  0  0  0  0  0  0  0  0  0  0  0
  143.2980    2.6700   22.4430 C   0  0  0  0  0  0  0  0  0  0  0  0
  141.5771    2.3822   20.6064 H   0  0  0  0  0  0  0  0  0  0  0  0
  149.8184    0.3971   21.5062 H   0  0  0  0  0  0  0  0  0  0  0  0
  150.1508    0.8949   19.7926 H   0  0  0  0  0  0  0  0  0  0  0  0
  150.3029    3.0681   19.2317 H   0  0  0  0  0  0  0  0  0  0  0  0
  150.0760    4.3565   20.4821 H   0  0  0  0  0  0  0  0  0  0  0  0
  145.7248    3.2318   25.5273 H   0  0  0  0  0  0  0  0  0  0  0  0
  152.2891    0.4281   20.2673 H   0  0  0  0  0  0  0  0  0  0  0  0
  151.9651    0.5054   22.0769 H   0  0  0  0  0  0  0  0  0  0  0  0
  152.2060    4.2785   21.1399 H   0  0  0  0  0  0  0  0  0  0  0  0
  152.4548    3.4176   19.5292 H   0  0  0  0  0  0  0  0  0  0  0  0
  148.2323    2.9562   25.6225 H   0  0  0  0  0  0  0  0  0  0  0  0
  147.6231    4.2064   24.4491 H   0  0  0  0  0  0  0  0  0  0  0  0
  143.5449    2.6737   24.6714 H   0  0  0  0  0  0  0  0  0  0  0  0
  145.6196    2.5656   18.9820 H   0  0  0  0  0  0  0  0  0  0  0  0
  146.3168    1.0839   26.4109 H   0  0  0  0  0  0  0  0  0  0  0  0
  145.4424    0.5475   24.9363 H   0  0  0  0  0  0  0  0  0  0  0  0
  147.2368    0.6301   24.9363 H   0  0  0  0  0  0  0  0  0  0  0  0
  154.5649    1.9867   21.7068 H   0  0  0  0  0  0  0  0  0  0  0  0
  154.0435    1.1447   20.2081 H   0  0  0  0  0  0  0  0  0  0  0  0
  154.2578    2.9282   20.2081 H   0  0  0  0  0  0  0  0  0  0  0  0
  1  4  1  0
  5  6  1  0
  6  8  1  0
  9 11  1  0
  1 12  2  0
  6 13  1  0
  9 14  1  0
  7 15  1  0
 13 15  1  0
 14 15  2  0
  3 16  1  0
  5 16  1  0
  3 17  1  0
  8 17  1  0
  7 18  1  0
 11 18  1  0
 14 19  1  0
  2 20  1  0
 13 20  2  0
  9 21  1  0
 19 22  2  0
 20 22  1  0
 11 23  1  0
 10 24  2  0
 19 24  1  0
  3 25  1  0
  1 26  1  0
 21 26  2  0
 24 26  1  0
  4 27  1  0
  5 28  1  0
  5 29  1  0
  8 30  1  0
  8 31  1  0
 11 32  1  1
 16 33  1  0
 16 34  1  0
 17 35  1  0
 17 36  1  0
 18 37  1  0
 18 38  1  0
 21 39  1  0
 22 40  1  0
 23 41  1  0
 23 42  1  0
 23 43  1  0
 25 44  1  0
 25 45  1  0
 25 46  1  0
M  END
$$$$
