PDB_DB02703_98
     RDKit          3D

 85 88  0  0  0  0  0  0  0  0999 V2000
 -112.4800    9.8030  130.0170 C   0  0  0  0  0  0  0  0  0  0  0  0
 -112.3640    8.6550  129.0190 C   0  0  0  0  0  0  0  0  0  0  0  0
 -112.0590    7.4120  129.8240 C   0  0  2  0  0  0  0  0  0  0  0  0
 -113.0940    7.0040  130.8640 C   0  0  2  0  0  0  0  0  0  0  0  0
 -113.2720    8.1660  131.8340 C   0  0  2  0  0  0  0  0  0  0  0  0
 -114.3850    7.9090  132.8490 C   0  0  0  0  0  0  0  0  0  0  0  0
 -114.4570    9.0440  133.8800 C   0  0  0  0  0  0  0  0  0  0  0  0
 -113.3580   10.0970  133.6990 C   0  0  1  0  0  0  0  0  0  0  0  0
 -113.3120   10.6060  132.2570 C   0  0  2  0  0  0  0  0  0  0  0  0
 -113.4580    9.5320  131.1660 C   0  0  1  0  0  0  0  0  0  0  0  0
 -112.2300   11.6880  132.1570 C   0  0  1  0  0  0  0  0  0  0  0  0
 -112.4250   12.9270  133.0150 C   0  0  0  0  0  0  0  0  0  0  0  0
 -112.5480   12.3490  134.4300 C   0  0  2  0  0  0  0  0  0  0  0  0
 -113.6840   11.3260  134.5430 C   0  0  2  0  0  0  0  0  0  0  0  0
 -113.6200   11.0520  136.0480 C   0  0  0  0  0  0  0  0  0  0  0  0
 -113.4390   12.4470  136.6710 C   0  0  1  0  0  0  0  0  0  0  0  0
 -112.9090   13.3450  135.5330 C   0  0  0  0  0  0  0  0  0  0  0  0
 -112.7280    5.7110  131.5980 C   0  0  0  0  0  0  0  0  0  0  0  0
 -114.8790    9.6080  130.6060 C   0  0  0  0  0  0  0  0  0  0  0  0
 -112.0040    9.5740  134.1870 C   0  0  0  0  0  0  0  0  0  0  0  0
 -115.0350   11.9090  134.1070 C   0  0  0  0  0  0  0  0  0  0  0  0
 -112.4380   14.6570  135.6040 C   0  0  0  0  0  0  0  0  0  0  0  0
 -111.0510   14.8060  135.4360 C   0  0  0  0  0  0  0  0  0  0  0  0
 -110.2960   15.9650  135.6130 C   0  0  0  0  0  0  0  0  0  0  0  0
 -108.9160   15.9170  135.3720 C   0  0  0  0  0  0  0  0  0  0  0  0
 -108.0840   17.0320  135.4790 C   0  0  0  0  0  0  0  0  0  0  0  0
 -106.5940   16.9100  135.1450 C   0  0  0  0  0  0  0  0  0  0  0  0
 -108.6440   18.4050  135.8630 C   0  0  0  0  0  0  0  0  0  0  0  0
 -113.4140   15.8110  135.9060 C   0  0  0  0  0  0  0  0  0  0  0  0
 -114.8260   12.6610  138.5280 C   0  0  0  0  0  0  0  0  0  0  0  0
 -113.6490   11.9850  139.2440 C   0  0  0  0  0  0  0  0  0  0  0  0
 -110.9660   11.0990  132.4910 O   0  0  0  0  0  0  0  0  0  0  0  0
 -114.6930   12.9180  137.1920 O   0  0  0  0  0  0  0  0  0  0  0  0
 -115.8290   12.9620  139.1770 O   0  0  0  0  0  0  0  0  0  0  0  0
 -114.6440   15.5920  135.9990 O   0  0  0  0  0  0  0  0  0  0  0  0
 -113.0130   16.9860  136.0650 O   0  0  0  0  0  0  0  0  0  0  0  0
 -110.8020    7.6010  130.4880 O   0  0  0  0  0  0  0  0  0  0  0  0
 -111.4848    9.9903  130.4464 H   0  0  0  0  0  0  0  0  0  0  0  0
 -112.8711   10.6690  129.4629 H   0  0  0  0  0  0  0  0  0  0  0  0
 -113.3103    8.5304  128.4722 H   0  0  0  0  0  0  0  0  0  0  0  0
 -111.5749    8.8515  128.2783 H   0  0  0  0  0  0  0  0  0  0  0  0
 -112.0532    6.5921  129.0907 H   0  0  0  0  0  0  0  0  0  0  0  0
 -114.0424    6.7841  130.3520 H   0  0  0  0  0  0  0  0  0  0  0  0
 -112.3120    8.2170  132.3687 H   0  0  0  0  0  0  0  0  0  0  0  0
 -115.3469    7.8414  132.3197 H   0  0  0  0  0  0  0  0  0  0  0  0
 -114.1703    6.9677  133.3761 H   0  0  0  0  0  0  0  0  0  0  0  0
 -115.4345    9.5396  133.7862 H   0  0  0  0  0  0  0  0  0  0  0  0
 -114.3155    8.5922  134.8729 H   0  0  0  0  0  0  0  0  0  0  0  0
 -114.2424   11.1275  131.9879 H   0  0  0  0  0  0  0  0  0  0  0  0
 -112.2872   12.0499  131.1198 H   0  0  0  0  0  0  0  0  0  0  0  0
 -111.5601   13.6022  132.9373 H   0  0  0  0  0  0  0  0  0  0  0  0
 -113.2948   13.5300  132.7153 H   0  0  0  0  0  0  0  0  0  0  0  0
 -111.5363   11.9420  134.5742 H   0  0  0  0  0  0  0  0  0  0  0  0
 -114.5509   10.5838  136.4004 H   0  0  0  0  0  0  0  0  0  0  0  0
 -112.8104   10.3583  136.3187 H   0  0  0  0  0  0  0  0  0  0  0  0
 -112.7368   12.4440  137.5177 H   0  0  0  0  0  0  0  0  0  0  0  0
 -112.7758    5.8797  132.6839 H   0  0  0  0  0  0  0  0  0  0  0  0
 -113.4368    4.9176  131.3187 H   0  0  0  0  0  0  0  0  0  0  0  0
 -111.7085    5.4068  131.3187 H   0  0  0  0  0  0  0  0  0  0  0  0
 -115.5989    9.6465  131.4368 H   0  0  0  0  0  0  0  0  0  0  0  0
 -114.9821   10.5129  129.9892 H   0  0  0  0  0  0  0  0  0  0  0  0
 -115.0781    8.7192  129.9892 H   0  0  0  0  0  0  0  0  0  0  0  0
 -111.9881    9.5679  135.2869 H   0  0  0  0  0  0  0  0  0  0  0  0
 -111.8493    8.5514  133.8123 H   0  0  0  0  0  0  0  0  0  0  0  0
 -111.2020   10.2270  133.8123 H   0  0  0  0  0  0  0  0  0  0  0  0
 -115.6283   12.1650  134.9972 H   0  0  0  0  0  0  0  0  0  0  0  0
 -114.8667   12.8146  133.5057 H   0  0  0  0  0  0  0  0  0  0  0  0
 -115.5784   11.1653  133.5057 H   0  0  0  0  0  0  0  0  0  0  0  0
 -110.6040   14.0715  136.1220 H   0  0  0  0  0  0  0  0  0  0  0  0
 -111.0014   14.7338  134.3395 H   0  0  0  0  0  0  0  0  0  0  0  0
 -110.7148   16.7290  134.9414 H   0  0  0  0  0  0  0  0  0  0  0  0
 -110.3700   16.1677  136.6916 H   0  0  0  0  0  0  0  0  0  0  0  0
 -108.4676   14.9545  135.0848 H   0  0  0  0  0  0  0  0  0  0  0  0
 -106.0120   16.8623  136.0772 H   0  0  0  0  0  0  0  0  0  0  0  0
 -106.4233   15.9949  134.5590 H   0  0  0  0  0  0  0  0  0  0  0  0
 -106.2767   17.7852  134.5590 H   0  0  0  0  0  0  0  0  0  0  0  0
 -108.6799   18.4929  136.9589 H   0  0  0  0  0  0  0  0  0  0  0  0
 -107.9955   19.1932  135.4529 H   0  0  0  0  0  0  0  0  0  0  0  0
 -109.6588   18.5148  135.4529 H   0  0  0  0  0  0  0  0  0  0  0  0
 -113.7874   12.0645  140.3324 H   0  0  0  0  0  0  0  0  0  0  0  0
 -113.6053   10.9242  138.9564 H   0  0  0  0  0  0  0  0  0  0  0  0
 -112.7107   12.4818  138.9564 H   0  0  0  0  0  0  0  0  0  0  0  0
 -110.8722   11.0553  133.4756 H   0  0  0  0  0  0  0  0  0  0  0  0
 -113.6616   17.7085  136.2581 H   0  0  0  0  0  0  0  0  0  0  0  0
 -110.9401    7.5802  131.4681 H   0  0  0  0  0  0  0  0  0  0  0  0
  2  1  1  0
  3  2  1  0
  4  3  1  0
  5  4  1  0
  6  5  1  0
  7  6  1  0
  8  7  1  0
  9  8  1  0
 10  1  1  0
 10  9  1  0
 10  5  1  0
 11  9  1  0
 12 11  1  0
 13 12  1  0
 14  8  1  0
 14 13  1  0
 15 14  1  0
 16 15  1  0
 17 13  1  0
 17 16  1  0
 18  4  1  0
 10 19  1  6
  8 20  1  1
 14 21  1  6
 22 17  2  0
 23 22  1  0
 24 23  1  0
 25 24  1  0
 26 25  2  3
 27 26  1  0
 28 26  1  0
 29 22  1  0
 31 30  1  0
 32 11  1  0
 33 30  1  0
 33 16  1  0
 34 30  2  0
 35 29  2  0
 36 29  1  0
 37  3  1  0
  1 38  1  0
  1 39  1  0
  2 40  1  0
  2 41  1  0
  3 42  1  6
  4 43  1  6
  5 44  1  1
  6 45  1  0
  6 46  1  0
  7 47  1  0
  7 48  1  0
  9 49  1  1
 11 50  1  6
 12 51  1  0
 12 52  1  0
 13 53  1  1
 15 54  1  0
 15 55  1  0
 16 56  1  1
 18 57  1  0
 18 58  1  0
 18 59  1  0
 19 60  1  0
 19 61  1  0
 19 62  1  0
 20 63  1  0
 20 64  1  0
 20 65  1  0
 21 66  1  0
 21 67  1  0
 21 68  1  0
 23 69  1  0
 23 70  1  0
 24 71  1  0
 24 72  1  0
 25 73  1  0
 27 74  1  0
 27 75  1  0
 27 76  1  0
 28 77  1  0
 28 78  1  0
 28 79  1  0
 31 80  1  0
 31 81  1  0
 31 82  1  0
 32 83  1  0
 36 84  1  0
 37 85  1  0
M  END
$$$$
