PDB_DB00317_98
     RDKit          3D

 55 58  0  0  0  0  0  0  0  0999 V2000
  -45.3040   -2.9970  -16.8970 C   0  0  0  0  0  0  0  0  0  0  0  0
  -43.8270   -3.4930  -16.9960 C   0  0  0  0  0  0  0  0  0  0  0  0
  -43.2200   -3.2470  -18.3060 O   0  0  0  0  0  0  0  0  0  0  0  0
  -43.9940   -3.9060  -19.3500 C   0  0  0  0  0  0  0  0  0  0  0  0
  -45.4960   -3.4890  -19.3580 C   0  0  0  0  0  0  0  0  0  0  0  0
  -46.1610   -3.4980  -18.0110 N   0  0  0  0  0  0  0  0  0  0  0  0
  -47.4070   -2.6730  -18.0340 C   0  0  0  0  0  0  0  0  0  0  0  0
  -48.6050   -3.3750  -18.8720 C   0  0  0  0  0  0  0  0  0  0  0  0
  -49.3370   -2.1730  -19.9370 C   0  0  0  0  0  0  0  0  0  0  0  0
  -50.0110   -1.1150  -19.0520 O   0  0  0  0  0  0  0  0  0  0  0  0
  -51.0590   -0.4110  -19.6070 C   0  0  0  0  0  0  0  0  0  0  0  0
  -51.8510    0.3220  -18.7380 C   0  0  0  0  0  0  0  0  0  0  0  0
  -52.9420    1.0520  -19.2100 C   0  0  0  0  0  0  0  0  0  0  0  0
  -51.5280    0.2890  -17.4160 O   0  0  0  0  0  0  0  0  0  0  0  0
  -51.8800    1.5010  -16.6950 C   0  0  0  0  0  0  0  0  0  0  0  0
  -51.3720   -0.4090  -20.9680 C   0  0  0  0  0  0  0  0  0  0  0  0
  -52.4640    0.3240  -21.4520 C   0  0  0  0  0  0  0  0  0  0  0  0
  -53.2450    1.0570  -20.5630 C   0  0  0  0  0  0  0  0  0  0  0  0
  -54.2870    1.7660  -21.0240 N   0  0  0  0  0  0  0  0  0  0  0  0
  -54.5850    1.7670  -22.3190 C   0  0  0  0  0  0  0  0  0  0  0  0
  -53.8690    1.0820  -23.2060 N   0  0  0  0  0  0  0  0  0  0  0  0
  -52.8030    0.3520  -22.8180 C   0  0  0  0  0  0  0  0  0  0  0  0
  -52.0740   -0.3550  -23.7040 N   0  0  0  0  0  0  0  0  0  0  0  0
  -52.1840   -0.3870  -25.0470 C   0  0  0  0  0  0  0  0  0  0  0  0
  -52.1700    0.7900  -25.8000 C   0  0  0  0  0  0  0  0  0  0  0  0
  -52.2600    0.7300  -27.1910 C   0  0  0  0  0  0  0  0  0  0  0  0
  -52.2640    2.1910  -28.1230 Cl  0  0  0  0  0  0  0  0  0  0  0  0
  -52.3590   -0.4990  -27.8370 C   0  0  0  0  0  0  0  0  0  0  0  0
  -52.4480   -0.5200  -29.1770 F   0  0  0  0  0  0  0  0  0  0  0  0
  -52.3660   -1.6850  -27.0980 C   0  0  0  0  0  0  0  0  0  0  0  0
  -52.2700   -1.6270  -25.7050 C   0  0  0  0  0  0  0  0  0  0  0  0
  -45.7281   -3.3457  -15.9438 H   0  0  0  0  0  0  0  0  0  0  0  0
  -45.2883   -1.8990  -16.9609 H   0  0  0  0  0  0  0  0  0  0  0  0
  -43.2317   -2.9717  -16.2319 H   0  0  0  0  0  0  0  0  0  0  0  0
  -43.8379   -4.5820  -16.8412 H   0  0  0  0  0  0  0  0  0  0  0  0
  -43.5549   -3.6493  -20.3253 H   0  0  0  0  0  0  0  0  0  0  0  0
  -43.9564   -4.9872  -19.1511 H   0  0  0  0  0  0  0  0  0  0  0  0
  -45.5658   -2.4702  -19.7670 H   0  0  0  0  0  0  0  0  0  0  0  0
  -46.0217   -4.2391  -19.9671 H   0  0  0  0  0  0  0  0  0  0  0  0
  -47.7454   -2.5172  -16.9990 H   0  0  0  0  0  0  0  0  0  0  0  0
  -47.1669   -1.7211  -18.5302 H   0  0  0  0  0  0  0  0  0  0  0  0
  -48.1999   -4.2028  -19.4726 H   0  0  0  0  0  0  0  0  0  0  0  0
  -49.3626   -3.7705  -18.1795 H   0  0  0  0  0  0  0  0  0  0  0  0
  -48.5618   -1.7023  -20.5595 H   0  0  0  0  0  0  0  0  0  0  0  0
  -50.0744   -2.6456  -20.6024 H   0  0  0  0  0  0  0  0  0  0  0  0
  -53.5638    1.6254  -18.5067 H   0  0  0  0  0  0  0  0  0  0  0  0
  -51.8253    1.3127  -15.6126 H   0  0  0  0  0  0  0  0  0  0  0  0
  -51.1780    2.3043  -16.9634 H   0  0  0  0  0  0  0  0  0  0  0  0
  -52.9030    1.8033  -16.9634 H   0  0  0  0  0  0  0  0  0  0  0  0
  -50.7540   -0.9898  -21.6685 H   0  0  0  0  0  0  0  0  0  0  0  0
  -55.4492    2.3515  -22.6675 H   0  0  0  0  0  0  0  0  0  0  0  0
  -51.3352   -0.9494  -23.3017 H   0  0  0  0  0  0  0  0  0  0  0  0
  -52.0880    1.7642  -25.2959 H   0  0  0  0  0  0  0  0  0  0  0  0
  -52.4464   -2.6561  -27.6084 H   0  0  0  0  0  0  0  0  0  0  0  0
  -52.2616   -2.5579  -25.1190 H   0  0  0  0  0  0  0  0  0  0  0  0
  1  2  1  0
  2  3  1  0
  3  4  1  0
  4  5  1  0
  1  6  1  0
  5  6  1  0
  6  7  1  0
  7  8  1  0
  8  9  1  0
  9 10  1  0
 10 11  1  0
 11 12  2  0
 12 13  1  0
 12 14  1  0
 14 15  1  0
 11 16  1  0
 16 17  2  0
 13 18  2  0
 17 18  1  0
 18 19  1  0
 19 20  2  0
 20 21  1  0
 17 22  1  0
 21 22  2  0
 22 23  1  0
 23 24  1  0
 24 25  2  0
 25 26  1  0
 26 27  1  0
 26 28  2  0
 28 29  1  0
 28 30  1  0
 24 31  1  0
 30 31  2  0
  1 32  1  0
  1 33  1  0
  2 34  1  0
  2 35  1  0
  4 36  1  0
  4 37  1  0
  5 38  1  0
  5 39  1  0
  7 40  1  0
  7 41  1  0
  8 42  1  0
  8 43  1  0
  9 44  1  0
  9 45  1  0
 13 46  1  0
 15 47  1  0
 15 48  1  0
 15 49  1  0
 16 50  1  0
 20 51  1  0
 23 52  1  0
 25 53  1  0
 30 54  1  0
 31 55  1  0
M  END
>  <PDBID>  (1) 
2ITY

>  <PDB ID>  (1) 
2ITY

>  <Generic Name>  (1) 
Gefitinib

>  <Brand Name>  (1) 
Iressa

>  <DrugBank ID>  (1) 
DB00317

>  <ATC Codes>  (1) 
L01XE02

>  <Ligand ID>  (1) 
IRE

>  <Target Name>  (1) 
Epidermal growth factor receptor

>  <UniProt ID>  (1) 
P00533

>  <PDB ID.1>  (1) 
2ITY

>  <Seq. Identity>  (1) 
96%

$$$$
