PDB_DB00360_89
     RDKit          3D

 32 33  0  0  0  0  0  0  0  0999 V2000
   72.9420   15.4420 -167.0100 N   0  0  0  0  0  0  0  0  0  0  0  0
   73.3790   14.2820 -166.4580 C   0  0  0  0  0  0  0  0  0  0  0  0
   72.5510   13.2040 -166.3560 N   0  0  0  0  0  0  0  0  0  0  0  0
   74.6500   14.2110 -165.9980 N   0  0  0  0  0  0  0  0  0  0  0  0
   75.4860   15.2640 -166.0970 C   0  0  0  0  0  0  0  0  0  0  0  0
   76.6580   15.1610 -165.6850 O   0  0  0  0  0  0  0  0  0  0  0  0
   75.0420   16.4530 -166.6540 C   0  0  0  0  0  0  0  0  0  0  0  0
   73.7440   16.5320 -167.1250 C   0  0  0  0  0  0  0  0  0  0  0  0
   75.8670   17.5170 -166.7760 N   0  0  0  0  0  0  0  0  0  0  0  0
   73.2730   17.6850 -167.6920 N   0  0  0  0  0  0  0  0  0  0  0  0
   75.2620   18.8340 -166.8840 C   0  0  2  0  0  0  0  0  0  0  0  0
   74.1010   18.8740 -167.8820 C   0  0  0  0  0  0  0  0  0  0  0  0
   76.3360   19.9220 -167.0660 C   0  0  1  0  0  0  0  0  0  0  0  0
   77.3440   19.5080 -167.9960 O   0  0  0  0  0  0  0  0  0  0  0  0
   75.7070   21.2370 -167.4900 C   0  0  2  0  0  0  0  0  0  0  0  0
   76.7370   22.3610 -167.5420 C   0  0  0  0  0  0  0  0  0  0  0  0
   74.6740   21.5720 -166.5620 O   0  0  0  0  0  0  0  0  0  0  0  0
   72.8943   12.3289 -165.9350 H   0  0  0  0  0  0  0  0  0  0  0  0
   71.5820   13.2645 -166.6999 H   0  0  0  0  0  0  0  0  0  0  0  0
   74.9840   13.3381 -165.5652 H   0  0  0  0  0  0  0  0  0  0  0  0
   76.8900   17.3983 -166.7919 H   0  0  0  0  0  0  0  0  0  0  0  0
   72.2902   17.7162 -167.9988 H   0  0  0  0  0  0  0  0  0  0  0  0
   74.7729   19.0723 -165.9280 H   0  0  0  0  0  0  0  0  0  0  0  0
   74.4965   18.8885 -168.9083 H   0  0  0  0  0  0  0  0  0  0  0  0
   73.4978   19.7788 -167.7163 H   0  0  0  0  0  0  0  0  0  0  0  0
   76.8261   20.0774 -166.0935 H   0  0  0  0  0  0  0  0  0  0  0  0
   78.1367   19.1824 -167.5002 H   0  0  0  0  0  0  0  0  0  0  0  0
   75.2926   21.1181 -168.5020 H   0  0  0  0  0  0  0  0  0  0  0  0
   77.0085   22.6572 -166.5180 H   0  0  0  0  0  0  0  0  0  0  0  0
   77.6348   22.0113 -168.0727 H   0  0  0  0  0  0  0  0  0  0  0  0
   76.3105   23.2249 -168.0727 H   0  0  0  0  0  0  0  0  0  0  0  0
   75.0122   21.4623 -165.6380 H   0  0  0  0  0  0  0  0  0  0  0  0
  1  2  2  0
  2  3  1  0
  2  4  1  0
  4  5  1  0
  5  6  2  0
  5  7  1  0
  1  8  1  0
  7  8  2  0
  7  9  1  0
  8 10  1  0
  9 11  1  0
 10 12  1  0
 11 12  1  0
 11 13  1  0
 13 14  1  0
 13 15  1  0
 15 16  1  0
 15 17  1  0
  3 18  1  0
  3 19  1  0
  4 20  1  0
  9 21  1  0
 10 22  1  0
 11 23  1  1
 12 24  1  0
 12 25  1  0
 13 26  1  1
 14 27  1  0
 15 28  1  6
 16 29  1  0
 16 30  1  0
 16 31  1  0
 17 32  1  0
M  END
$$$$
