PDB_DB01229_97
     RDKit          3D

145151  0  0  0  0  0  0  0  0999 V2000
   -2.1860  -18.1850   15.8430 O   0  0  0  0  0  0  0  0  0  0  0  0
   -0.7850  -18.3750   15.5660 C   0  0  1  0  0  0  0  0  0  0  0  0
   -0.7040  -19.0240   14.0730 C   0  0  1  0  0  0  0  0  0  0  0  0
   -1.3580  -17.9810   13.2510 O   0  0  0  0  0  0  0  0  0  0  0  0
   -2.6470  -18.2450   12.7320 C   0  0  0  0  0  0  0  0  0  0  0  0
   -3.2330  -19.2880   12.8920 O   0  0  0  0  0  0  0  0  0  0  0  0
   -3.1740  -17.1450   11.9660 C   0  0  0  0  0  0  0  0  0  0  0  0
   -4.5560  -16.8450   12.3410 C   0  0  0  0  0  0  0  0  0  0  0  0
   -5.1760  -15.7150   11.5820 C   0  0  0  0  0  0  0  0  0  0  0  0
   -4.4540  -15.0080   10.5800 C   0  0  0  0  0  0  0  0  0  0  0  0
   -3.2720  -15.3520   10.3440 C   0  0  0  0  0  0  0  0  0  0  0  0
   -2.5370  -16.3960   10.9680 C   0  0  0  0  0  0  0  0  0  0  0  0
    0.7530  -19.3200   13.4240 C   0  0  2  0  0  0  0  0  0  0  0  0
    0.9040  -18.8570   11.8880 C   0  0  2  0  0  0  0  0  0  0  0  0
    0.7630  -17.3850   11.7260 O   0  0  0  0  0  0  0  0  0  0  0  0
    1.6980  -16.5020   12.2150 C   0  0  0  0  0  0  0  0  0  0  0  0
    2.6910  -16.8020   12.8080 O   0  0  0  0  0  0  0  0  0  0  0  0
    1.2730  -15.0890   11.8770 C   0  0  0  0  0  0  0  0  0  0  0  0
   -0.0870  -19.3890   10.8190 C   0  0  0  0  0  0  0  0  0  0  0  0
    0.9710  -19.9510   10.0080 O   0  0  0  0  0  0  0  0  0  0  0  0
    1.9670  -19.4890   10.9450 C   0  0  2  0  0  0  0  0  0  0  0  0
    2.8460  -20.6610   11.4950 C   0  0  0  0  0  0  0  0  0  0  0  0
    2.7900  -20.8190   13.0090 C   0  0  2  0  0  0  0  0  0  0  0  0
    3.6010  -21.9570   13.4020 O   0  0  0  0  0  0  0  0  0  0  0  0
    1.2950  -20.9080   13.5840 C   0  0  2  0  0  0  0  0  0  0  0  0
    0.4850  -21.9430   12.7460 C   0  0  0  0  0  0  0  0  0  0  0  0
    1.3140  -21.5680   15.0650 C   0  0  0  0  0  0  0  0  0  0  0  0
    0.7780  -22.6510   15.2340 O   0  0  0  0  0  0  0  0  0  0  0  0
    1.9650  -20.8690   16.2650 C   0  0  2  0  0  0  0  0  0  0  0  0
    1.7740  -21.7440   17.4580 O   0  0  0  0  0  0  0  0  0  0  0  0
    2.8600  -22.3590   18.0470 C   0  0  0  0  0  0  0  0  0  0  0  0
    3.9910  -22.2550   17.6840 O   0  0  0  0  0  0  0  0  0  0  0  0
    2.4200  -23.1910   19.2200 C   0  0  0  0  0  0  0  0  0  0  0  0
    1.3490  -19.4840   16.4760 C   0  0  1  0  0  0  0  0  0  0  0  0
    2.1410  -18.3510   16.3200 C   0  0  1  0  0  0  0  0  0  0  0  0
    1.4030  -16.9790   16.3910 C   0  0  1  0  0  0  0  0  0  0  0  0
    2.1820  -15.8480   15.8660 O   0  0  0  0  0  0  0  0  0  0  0  0
    2.8990  -15.1380   16.7270 C   0  0  0  0  0  0  0  0  0  0  0  0
    3.0020  -15.3100   17.9020 O   0  0  0  0  0  0  0  0  0  0  0  0
    3.6200  -13.9770   15.9930 C   0  0  2  0  0  0  0  0  0  0  0  0
    4.3330  -13.2270   16.9580 O   0  0  0  0  0  0  0  0  0  0  0  0
    2.5530  -13.1370   15.2470 C   0  0  1  0  0  0  0  0  0  0  0  0
    1.5290  -12.7850   16.2240 N   0  0  0  0  0  0  0  0  0  0  0  0
    0.2430  -12.5310   15.8860 C   0  0  0  0  0  0  0  0  0  0  0  0
   -0.1660  -12.5580   14.7310 O   0  0  0  0  0  0  0  0  0  0  0  0
   -0.6430  -12.2440   17.0490 C   0  0  0  0  0  0  0  0  0  0  0  0
   -0.4530  -11.1770   17.9250 C   0  0  0  0  0  0  0  0  0  0  0  0
   -1.3300  -10.9640   19.0230 C   0  0  0  0  0  0  0  0  0  0  0  0
   -2.4180  -11.8560   19.2330 C   0  0  0  0  0  0  0  0  0  0  0  0
   -2.6140  -12.9190   18.3680 C   0  0  0  0  0  0  0  0  0  0  0  0
   -1.7560  -13.1370   17.2850 C   0  0  0  0  0  0  0  0  0  0  0  0
    3.1890  -11.9270   14.5300 C   0  0  0  0  0  0  0  0  0  0  0  0
    3.5850  -12.0880   13.1920 C   0  0  0  0  0  0  0  0  0  0  0  0
    4.1830  -11.0160   12.4780 C   0  0  0  0  0  0  0  0  0  0  0  0
    4.3780   -9.7780   13.1150 C   0  0  0  0  0  0  0  0  0  0  0  0
    3.9870   -9.6140   14.4320 C   0  0  0  0  0  0  0  0  0  0  0  0
    3.3880  -10.6850   15.1550 C   0  0  0  0  0  0  0  0  0  0  0  0
    0.0560  -17.0090   15.5710 C   0  0  0  0  0  0  0  0  0  0  0  0
    3.6310  -18.3290   15.9960 C   0  0  0  0  0  0  0  0  0  0  0  0
   -0.2210  -19.3430   16.7880 C   0  0  1  0  0  0  0  0  0  0  0  0
   -0.4020  -18.6900   18.2330 C   0  0  0  0  0  0  0  0  0  0  0  0
   -1.0750  -20.6280   16.8900 C   0  0  0  0  0  0  0  0  0  0  0  0
   -2.3291  -18.1656   16.8224 H   0  0  0  0  0  0  0  0  0  0  0  0
   -1.1482  -20.0294   14.1160 H   0  0  0  0  0  0  0  0  0  0  0  0
   -2.1950  -18.6404   11.8104 H   0  0  0  0  0  0  0  0  0  0  0  0
   -3.3326  -19.4653   13.8609 H   0  0  0  0  0  0  0  0  0  0  0  0
   -3.5343  -17.8496   11.2020 H   0  0  0  0  0  0  0  0  0  0  0  0
   -5.1617  -17.7470   12.1690 H   0  0  0  0  0  0  0  0  0  0  0  0
   -4.5325  -16.5358   13.3964 H   0  0  0  0  0  0  0  0  0  0  0  0
   -6.0697  -16.1255   11.0892 H   0  0  0  0  0  0  0  0  0  0  0  0
   -5.3084  -14.9506   12.3619 H   0  0  0  0  0  0  0  0  0  0  0  0
   -5.0165  -15.1102    9.6403 H   0  0  0  0  0  0  0  0  0  0  0  0
   -4.3645  -13.9872   10.9798 H   0  0  0  0  0  0  0  0  0  0  0  0
   -3.2595  -15.6003    9.2725 H   0  0  0  0  0  0  0  0  0  0  0  0
   -2.7499  -14.4879   10.7808 H   0  0  0  0  0  0  0  0  0  0  0  0
   -1.6436  -15.9413   11.4208 H   0  0  0  0  0  0  0  0  0  0  0  0
   -2.3488  -17.1191   10.1607 H   0  0  0  0  0  0  0  0  0  0  0  0
    1.4037  -18.6835   14.0416 H   0  0  0  0  0  0  0  0  0  0  0  0
    1.1474  -16.4454   13.1656 H   0  0  0  0  0  0  0  0  0  0  0  0
    2.5218  -16.7509   13.7821 H   0  0  0  0  0  0  0  0  0  0  0  0
    1.1034  -14.5250   12.8060 H   0  0  0  0  0  0  0  0  0  0  0  0
    2.0635  -14.5989   11.2897 H   0  0  0  0  0  0  0  0  0  0  0  0
    0.3433  -15.1163   11.2897 H   0  0  0  0  0  0  0  0  0  0  0  0
   -0.7868  -20.1431   11.2084 H   0  0  0  0  0  0  0  0  0  0  0  0
   -0.7934  -18.6852   10.3547 H   0  0  0  0  0  0  0  0  0  0  0  0
    2.7844  -18.8218   10.6342 H   0  0  0  0  0  0  0  0  0  0  0  0
    2.4989  -21.5986   11.0362 H   0  0  0  0  0  0  0  0  0  0  0  0
    3.8891  -20.4246   11.2378 H   0  0  0  0  0  0  0  0  0  0  0  0
    3.2071  -19.9071   13.4611 H   0  0  0  0  0  0  0  0  0  0  0  0
    3.6387  -22.0099   14.3899 H   0  0  0  0  0  0  0  0  0  0  0  0
   -0.0492  -22.6256   13.4233 H   0  0  0  0  0  0  0  0  0  0  0  0
   -0.2410  -21.4134   12.1116 H   0  0  0  0  0  0  0  0  0  0  0  0
    1.1736  -22.5205   12.1116 H   0  0  0  0  0  0  0  0  0  0  0  0
    0.3666  -21.0620   15.3026 H   0  0  0  0  0  0  0  0  0  0  0  0
    0.6904  -22.8280   16.2041 H   0  0  0  0  0  0  0  0  0  0  0  0
    3.0400  -20.7144   16.0903 H   0  0  0  0  0  0  0  0  0  0  0  0
    2.7273  -23.2274   17.3849 H   0  0  0  0  0  0  0  0  0  0  0  0
    4.5870  -22.2002   18.4726 H   0  0  0  0  0  0  0  0  0  0  0  0
    2.6909  -22.6788   20.1550 H   0  0  0  0  0  0  0  0  0  0  0  0
    1.3297  -23.3315   19.1815 H   0  0  0  0  0  0  0  0  0  0  0  0
    2.9176  -24.1713   19.1815 H   0  0  0  0  0  0  0  0  0  0  0  0
    1.6192  -19.5262   17.5415 H   0  0  0  0  0  0  0  0  0  0  0  0
    1.9746  -18.3843   15.2332 H   0  0  0  0  0  0  0  0  0  0  0  0
    1.2292  -16.8280   17.4666 H   0  0  0  0  0  0  0  0  0  0  0  0
    2.0371  -14.4766   16.8994 H   0  0  0  0  0  0  0  0  0  0  0  0
    2.5578  -14.5682   18.3843 H   0  0  0  0  0  0  0  0  0  0  0  0
    4.3415  -14.3367   15.2447 H   0  0  0  0  0  0  0  0  0  0  0  0
    4.0607  -13.5134   17.8657 H   0  0  0  0  0  0  0  0  0  0  0  0
    2.0814  -13.7087   14.4342 H   0  0  0  0  0  0  0  0  0  0  0  0
    1.4970  -13.5657   16.8951 H   0  0  0  0  0  0  0  0  0  0  0  0
    0.4828  -11.4631   15.7761 H   0  0  0  0  0  0  0  0  0  0  0  0
   -1.1538  -12.6232   14.7322 H   0  0  0  0  0  0  0  0  0  0  0  0
   -0.0117  -12.8801   17.6869 H   0  0  0  0  0  0  0  0  0  0  0  0
    0.5549  -11.2966   18.3490 H   0  0  0  0  0  0  0  0  0  0  0  0
   -0.6495  -10.3031   17.2865 H   0  0  0  0  0  0  0  0  0  0  0  0
   -0.7143  -10.9901   19.9342 H   0  0  0  0  0  0  0  0  0  0  0  0
   -1.8209  -10.0099   18.7806 H   0  0  0  0  0  0  0  0  0  0  0  0
   -2.2898  -12.2833   20.2385 H   0  0  0  0  0  0  0  0  0  0  0  0
   -3.3020  -11.2236   19.0637 H   0  0  0  0  0  0  0  0  0  0  0  0
   -2.5802  -13.8313   18.9817 H   0  0  0  0  0  0  0  0  0  0  0  0
   -3.5619  -12.6568   17.8752 H   0  0  0  0  0  0  0  0  0  0  0  0
   -2.3783  -13.1143   16.3782 H   0  0  0  0  0  0  0  0  0  0  0  0
   -1.2655  -14.0879   17.5405 H   0  0  0  0  0  0  0  0  0  0  0  0
    4.1852  -12.2527   14.8640 H   0  0  0  0  0  0  0  0  0  0  0  0
    4.3072  -12.9175   13.1760 H   0  0  0  0  0  0  0  0  0  0  0  0
    2.6276  -12.2268   12.6684 H   0  0  0  0  0  0  0  0  0  0  0  0
    5.1729  -11.3648   12.1489 H   0  0  0  0  0  0  0  0  0  0  0  0
    3.4459  -10.7875   11.6941 H   0  0  0  0  0  0  0  0  0  0  0  0
    5.4564   -9.5648   13.0738 H   0  0  0  0  0  0  0  0  0  0  0  0
    3.7103   -9.0993   12.5640 H   0  0  0  0  0  0  0  0  0  0  0  0
    4.8876   -9.3226   14.9924 H   0  0  0  0  0  0  0  0  0  0  0  0
    3.1672   -8.8847   14.3535 H   0  0  0  0  0  0  0  0  0  0  0  0
    2.3993  -10.3327   15.4842 H   0  0  0  0  0  0  0  0  0  0  0  0
    4.1292  -10.9098   15.9361 H   0  0  0  0  0  0  0  0  0  0  0  0
    0.3027  -16.7715   14.5257 H   0  0  0  0  0  0  0  0  0  0  0  0
   -0.5954  -16.2839   16.0808 H   0  0  0  0  0  0  0  0  0  0  0  0
    4.2096  -18.3205   16.9315 H   0  0  0  0  0  0  0  0  0  0  0  0
    3.8924  -19.2234   15.4114 H   0  0  0  0  0  0  0  0  0  0  0  0
    3.8658  -17.4273   15.4114 H   0  0  0  0  0  0  0  0  0  0  0  0
   -0.1928  -19.4448   19.0053 H   0  0  0  0  0  0  0  0  0  0  0  0
    0.2965  -17.8476   18.3448 H   0  0  0  0  0  0  0  0  0  0  0  0
   -1.4345  -18.3275   18.3448 H   0  0  0  0  0  0  0  0  0  0  0  0
   -1.2396  -20.8757   17.9490 H   0  0  0  0  0  0  0  0  0  0  0  0
   -2.0445  -20.4641   16.3968 H   0  0  0  0  0  0  0  0  0  0  0  0
   -0.5484  -21.4583   16.3968 H   0  0  0  0  0  0  0  0  0  0  0  0
  2  1  1  1
  2  3  1  0
  3  4  1  0
  4  5  1  0
  5  6  1  0
  5  7  1  0
  7  8  1  0
  8  9  1  0
  9 10  1  0
 10 11  1  0
  7 12  1  0
 11 12  1  0
  3 13  1  0
 13 14  1  0
 14 15  1  1
 15 16  1  0
 16 17  1  0
 16 18  1  0
 14 19  1  0
 19 20  1  0
 14 21  1  0
 20 21  1  0
 21 22  1  0
 22 23  1  0
 23 24  1  0
 13 25  1  0
 23 25  1  0
 25 26  1  6
 25 27  1  0
 27 28  1  0
 27 29  1  0
 29 30  1  0
 30 31  1  0
 31 32  1  0
 31 33  1  0
 29 34  1  0
 34 35  1  0
 35 36  1  0
 36 37  1  0
 37 38  1  0
 38 39  1  0
 38 40  1  0
 40 41  1  0
 40 42  1  0
 42 43  1  0
 43 44  1  0
 44 45  1  0
 44 46  1  0
 46 47  1  0
 47 48  1  0
 48 49  1  0
 49 50  1  0
 46 51  1  0
 50 51  1  0
 42 52  1  0
 52 53  1  0
 53 54  1  0
 54 55  1  0
 55 56  1  0
 52 57  1  0
 56 57  1  0
  2 58  1  0
 36 58  1  0
 35 59  1  0
  2 60  1  0
 34 60  1  0
 60 61  1  1
 60 62  1  0
  1 63  1  0
  3 64  1  1
  5 65  1  0
  6 66  1  0
  7 67  1  0
  8 68  1  0
  8 69  1  0
  9 70  1  0
  9 71  1  0
 10 72  1  0
 10 73  1  0
 11 74  1  0
 11 75  1  0
 12 76  1  0
 12 77  1  0
 13 78  1  1
 16 79  1  0
 17 80  1  0
 18 81  1  0
 18 82  1  0
 18 83  1  0
 19 84  1  0
 19 85  1  0
 21 86  1  6
 22 87  1  0
 22 88  1  0
 23 89  1  1
 24 90  1  0
 26 91  1  0
 26 92  1  0
 26 93  1  0
 27 94  1  0
 28 95  1  0
 29 96  1  6
 31 97  1  0
 32 98  1  0
 33 99  1  0
 33100  1  0
 33101  1  0
 34102  1  1
 35103  1  1
 36104  1  1
 38105  1  0
 39106  1  0
 40107  1  6
 41108  1  0
 42109  1  6
 43110  1  0
 44111  1  0
 45112  1  0
 46113  1  0
 47114  1  0
 47115  1  0
 48116  1  0
 48117  1  0
 49118  1  0
 49119  1  0
 50120  1  0
 50121  1  0
 51122  1  0
 51123  1  0
 52124  1  0
 53125  1  0
 53126  1  0
 54127  1  0
 54128  1  0
 55129  1  0
 55130  1  0
 56131  1  0
 56132  1  0
 57133  1  0
 57134  1  0
 58135  1  0
 58136  1  0
 59137  1  0
 59138  1  0
 59139  1  0
 61140  1  0
 61141  1  0
 61142  1  0
 62143  1  0
 62144  1  0
 62145  1  0
M  END
>  <PDBID>  (1) 
1JFF

>  <PDB ID>  (1) 
1JFF

>  <Generic Name>  (1) 
Paclitaxel

>  <Brand Name>  (1) 
Abraxane#Abraxane for Injectable Suspension#Aj-paclitaxel#Apo-paclitaxel Injectable#Paclitaxel#Paclitaxel Injection#Paclitaxel Injection USP#Paclitaxel Injection, USP#Paclitaxel Paclitaxel#Paclitaxel for Injection#Paclitaxel for Injection USP#Paxene#Taxol#Teva-paclitaxel for Injection#Onxol#Paxceed

>  <DrugBank ID>  (1) 
DB01229

>  <ATC Codes>  (1) 
L01CD01

>  <Ligand ID>  (1) 
TA1

>  <Target Name>  (1) 
Tubulin beta-1 chain

>  <UniProt ID>  (1) 
Q9H4B7

>  <PDB ID.1>  (1) 
1JFF

>  <Seq. Identity>  (1) 
77%

$$$$
