PDB_DB00701_98
     RDKit          3D

 86 88  0  0  0  0  0  0  0  0999 V2000
   17.1170  -25.4400  -18.8550 C   0  0  0  0  0  0  0  0  0  0  0  0
   15.5050  -24.7200  -20.5230 C   0  0  0  0  0  0  0  0  0  0  0  0
   14.8190  -22.6550  -18.2110 C   0  0  0  0  0  0  0  0  0  0  0  0
   15.7740  -24.7530  -19.0370 C   0  0  2  0  0  0  0  0  0  0  0  0
   14.3400  -20.3810  -17.2870 C   0  0  2  0  0  0  0  0  0  0  0  0
   13.9040  -19.2740  -18.2720 C   0  0  1  0  0  0  0  0  0  0  0  0
   15.1390  -19.9090  -16.0330 C   0  0  0  0  0  0  0  0  0  0  0  0
   15.4860  -21.0800  -15.1060 C   0  0  0  0  0  0  0  0  0  0  0  0
   16.7700  -21.6340  -15.1000 C   0  0  0  0  0  0  0  0  0  0  0  0
   14.4510  -21.5910  -14.2580 C   0  0  0  0  0  0  0  0  0  0  0  0
   17.0800  -22.7350  -14.2500 C   0  0  0  0  0  0  0  0  0  0  0  0
   14.7550  -22.6860  -13.3880 C   0  0  0  0  0  0  0  0  0  0  0  0
   16.0570  -23.2200  -13.4190 C   0  0  0  0  0  0  0  0  0  0  0  0
   12.7630  -18.4050  -17.7670 C   0  0  0  0  0  0  0  0  0  0  0  0
   10.5700  -18.6330  -18.7870 C   0  0  0  0  0  0  0  0  0  0  0  0
   10.7490  -19.3230  -20.1480 C   0  0  1  0  0  0  0  0  0  0  0  0
    9.9230  -17.8770  -15.7100 C   0  0  0  0  0  0  0  0  0  0  0  0
   10.6850  -16.8900  -14.9850 C   0  0  0  0  0  0  0  0  0  0  0  0
   10.0650  -15.7100  -14.5370 C   0  0  0  0  0  0  0  0  0  0  0  0
    8.7200  -15.5110  -14.7920 C   0  0  0  0  0  0  0  0  0  0  0  0
    7.9110  -16.4730  -15.5060 C   0  0  0  0  0  0  0  0  0  0  0  0
    8.5430  -17.6750  -15.9750 C   0  0  0  0  0  0  0  0  0  0  0  0
   10.6030  -20.8520  -20.0650 C   0  0  0  0  0  0  0  0  0  0  0  0
    9.7100  -18.7550  -21.1400 C   0  0  0  0  0  0  0  0  0  0  0  0
   16.8670  -25.0200  -21.2010 C   0  0  0  0  0  0  0  0  0  0  0  0
   15.2070  -21.3440  -17.9550 N   0  0  0  0  0  0  0  0  0  0  0  0
   11.4960  -19.1140  -17.7350 N   0  0  0  0  0  0  0  0  0  0  0  0
    8.0350  -14.3640  -14.3740 N   0  0  0  0  0  0  0  0  0  0  0  0
   15.9290  -23.3370  -18.5840 O   0  0  0  0  0  0  0  0  0  0  0  0
   13.6380  -23.0650  -18.1010 O   0  0  0  0  0  0  0  0  0  0  0  0
   15.0520  -18.4320  -18.6020 O   0  0  0  0  0  0  0  0  0  0  0  0
   11.7990  -19.6400  -15.2950 O   0  0  0  0  0  0  0  0  0  0  0  0
    9.7600  -20.3830  -16.4880 O   0  0  0  0  0  0  0  0  0  0  0  0
   17.8250  -25.1000  -20.1160 O   0  0  0  0  0  0  0  0  0  0  0  0
   10.7540  -19.3530  -16.2600 S   0  0  1  0  0  4  0  0  0  0  0  0
   17.6030  -25.0170  -18.0690 H   0  0  0  0  0  0  0  0  0  0  0  0
   17.0220  -26.4260  -18.7240 H   0  0  0  0  0  0  0  0  0  0  0  0
   15.2130  -23.7790  -20.7750 H   0  0  0  0  0  0  0  0  0  0  0  0
   14.8100  -25.3790  -20.7910 H   0  0  0  0  0  0  0  0  0  0  0  0
   15.0470  -25.2260  -18.5410 H   0  0  0  0  0  0  0  0  0  0  0  0
   13.5240  -20.8640  -16.9710 H   0  0  0  0  0  0  0  0  0  0  0  0
   13.6010  -19.7210  -19.1160 H   0  0  0  0  0  0  0  0  0  0  0  0
   16.0160  -19.5100  -16.3580 H   0  0  0  0  0  0  0  0  0  0  0  0
   14.6240  -19.2100  -15.5300 H   0  0  0  0  0  0  0  0  0  0  0  0
   17.4760  -21.2670  -15.7090 H   0  0  0  0  0  0  0  0  0  0  0  0
   13.5340  -21.1830  -14.2630 H   0  0  0  0  0  0  0  0  0  0  0  0
   17.9960  -23.1350  -14.2420 H   0  0  0  0  0  0  0  0  0  0  0  0
   14.0590  -23.0700  -12.7850 H   0  0  0  0  0  0  0  0  0  0  0  0
   16.2660  -23.9930  -12.8140 H   0  0  0  0  0  0  0  0  0  0  0  0
   12.9870  -18.1400  -16.8100 H   0  0  0  0  0  0  0  0  0  0  0  0
   12.6810  -17.5820  -18.3340 H   0  0  0  0  0  0  0  0  0  0  0  0
    9.6250  -18.7350  -18.4800 H   0  0  0  0  0  0  0  0  0  0  0  0
   10.7630  -17.6490  -18.9240 H   0  0  0  0  0  0  0  0  0  0  0  0
   11.6650  -19.1150  -20.4890 H   0  0  0  0  0  0  0  0  0  0  0  0
   11.6560  -17.0410  -14.8060 H   0  0  0  0  0  0  0  0  0  0  0  0
   10.5920  -15.0220  -14.0330 H   0  0  0  0  0  0  0  0  0  0  0  0
    6.9390  -16.2990  -15.6810 H   0  0  0  0  0  0  0  0  0  0  0  0
    8.0180  -18.3650  -16.4720 H   0  0  0  0  0  0  0  0  0  0  0  0
    9.7860  -21.0870  -19.5350 H   0  0  0  0  0  0  0  0  0  0  0  0
   11.4100  -21.2380  -19.6190 H   0  0  0  0  0  0  0  0  0  0  0  0
   10.5310  -21.2250  -21.0000 H   0  0  0  0  0  0  0  0  0  0  0  0
    8.7880  -18.9010  -20.7890 H   0  0  0  0  0  0  0  0  0  0  0  0
    9.8690  -17.7740  -21.2800 H   0  0  0  0  0  0  0  0  0  0  0  0
    9.7950  -19.2420  -22.0170 H   0  0  0  0  0  0  0  0  0  0  0  0
   17.1170  -24.3170  -21.8680 H   0  0  0  0  0  0  0  0  0  0  0  0
   16.8130  -25.9280  -21.6540 H   0  0  0  0  0  0  0  0  0  0  0  0
   16.1250  -21.0460  -18.2340 H   0  0  0  0  0  0  0  0  0  0  0  0
    8.3210  -13.8860  -13.5500 H   0  0  0  0  0  0  0  0  0  0  0  0
    7.2570  -14.0260  -14.9040 H   0  0  0  0  0  0  0  0  0  0  0  0
   15.5540  -18.1950  -17.7710 H   0  0  0  0  0  0  0  0  0  0  0  0
   14.6269  -22.3929  -19.2619 H   0  0  0  0  0  0  0  0  0  0  0  0
   15.1833  -21.7901  -15.8897 H   0  0  0  0  0  0  0  0  0  0  0  0
   17.0676  -20.9356  -14.3039 H   0  0  0  0  0  0  0  0  0  0  0  0
   14.1551  -22.2992  -15.0460 H   0  0  0  0  0  0  0  0  0  0  0  0
   17.3914  -22.0367  -13.4591 H   0  0  0  0  0  0  0  0  0  0  0  0
   14.4460  -23.3940  -14.1711 H   0  0  0  0  0  0  0  0  0  0  0  0
   16.3641  -22.5170  -12.6307 H   0  0  0  0  0  0  0  0  0  0  0  0
    9.6682  -18.3757  -14.7632 H   0  0  0  0  0  0  0  0  0  0  0  0
   10.9441  -16.3943  -15.9322 H   0  0  0  0  0  0  0  0  0  0  0  0
   10.3181  -15.2164  -15.4869 H   0  0  0  0  0  0  0  0  0  0  0  0
    8.9731  -15.0184  -15.7424 H   0  0  0  0  0  0  0  0  0  0  0  0
    8.1555  -15.9740  -16.4553 H   0  0  0  0  0  0  0  0  0  0  0  0
    8.2880  -18.1776  -15.0304 H   0  0  0  0  0  0  0  0  0  0  0  0
   13.4047  -23.1460  -17.1423 H   0  0  0  0  0  0  0  0  0  0  0  0
   11.4381  -19.5409  -14.3785 H   0  0  0  0  0  0  0  0  0  0  0  0
    9.4317  -20.7231  -15.6181 H   0  0  0  0  0  0  0  0  0  0  0  0
  1  4  1  0
  2  4  1  0
  5  6  1  0
  5  7  1  0
  7  8  1  0
  8  9  1  0
  8 10  1  0
  9 11  1  0
 10 12  1  0
 11 13  1  0
 12 13  1  0
  6 14  1  0
 15 16  1  0
 17 18  1  0
 18 19  1  0
 19 20  1  0
 20 21  1  0
 17 22  1  0
 21 22  1  0
 16 23  1  0
 16 24  1  0
  2 25  1  0
  3 26  1  0
  5 26  1  0
 14 27  1  0
 15 27  1  0
 20 28  1  0
  3 29  1  0
  4 29  1  0
  3 30  1  0
  6 31  1  0
  1 34  1  0
 25 34  1  0
 17 35  1  0
 27 35  1  0
 35 32  1  1
 33 35  1  0
  1 36  1  0
  1 37  1  0
  2 38  1  0
  2 39  1  0
  4 40  1  1
  5 41  1  1
  6 42  1  6
  7 43  1  0
  7 44  1  0
  9 45  1  0
 10 46  1  0
 11 47  1  0
 12 48  1  0
 13 49  1  0
 14 50  1  0
 14 51  1  0
 15 52  1  0
 15 53  1  0
 16 54  1  6
 18 55  1  0
 19 56  1  0
 21 57  1  0
 22 58  1  0
 23 59  1  0
 23 60  1  0
 23 61  1  0
 24 62  1  0
 24 63  1  0
 24 64  1  0
 25 65  1  0
 25 66  1  0
 67 26  1  0
 68 28  1  0
 69 28  1  0
 70 31  1  0
  3 71  1  0
  8 72  1  0
  9 73  1  0
 10 74  1  0
 11 75  1  0
 12 76  1  0
 13 77  1  0
 17 78  1  0
 18 79  1  0
 19 80  1  0
 20 81  1  0
 21 82  1  0
 22 83  1  0
 30 84  1  0
 32 85  1  0
 33 86  1  0
M  ISO  4  67   2  68   2  69   2  70   2
M  END
>  <PDBID>  (1) 
4JEC

>  <PDB ID>  (1) 
4JEC

>  <Generic Name>  (1) 
Amprenavir

>  <Brand Name>  (1) 
Agenerase#Agemerase#Prozei

>  <DrugBank ID>  (1) 
DB00701

>  <ATC Codes>  (1) 
J05AE05

>  <Ligand ID>  (1) 
478

>  <Target Name>  (1) 
Pol polyprotein

>  <UniProt ID>  (1) 
Q72874

>  <PDB ID.1>  (1) 
4JEC

>  <Seq. Identity>  (1) 
94%

$$$$
