PDB_DB00655_99
     RDKit          3D

100106  0  0  0  0  0  0  0  0999 V2000
    5.6330    3.5170   -6.4850 C   0  0  2  0  0  0  0  0  0  0  0  0
    3.3130    2.5280   -6.9890 C   0  0  0  0  0  0  0  0  0  0  0  0
    3.1750    2.2730   -5.4990 C   0  0  2  0  0  0  0  0  0  0  0  0
    3.6460    0.8720   -5.1320 C   0  0  0  0  0  0  0  0  0  0  0  0
    0.7660    2.1360   -5.3840 O   0  0  0  0  0  0  0  0  0  0  0  0
   11.0910    3.2900   -7.9400 O   0  0  0  0  0  0  0  0  0  0  0  0
    1.8230    2.5020   -4.8840 C   0  0  1  0  0  0  0  0  0  0  0  0
    1.9170    3.1430   -3.5150 C   0  0  0  0  0  0  0  0  0  0  0  0
    3.4070    3.4450   -3.3650 C   0  0  0  0  0  0  0  0  0  0  0  0
    3.9450    3.3700   -4.7970 C   0  0  1  0  0  0  0  0  0  0  0  0
    5.4330    3.1930   -5.0130 C   0  0  2  0  0  0  0  0  0  0  0  0
    4.7960    2.5750   -7.3630 C   0  0  0  0  0  0  0  0  0  0  0  0
    6.2600    4.1030   -4.1180 C   0  0  0  0  0  0  0  0  0  0  0  0
    7.7500    4.1510   -4.4810 C   0  0  0  0  0  0  0  0  0  0  0  0
    8.0690    3.7610   -5.9190 C   0  0  0  0  0  0  0  0  0  0  0  0
    7.0780    3.4630   -6.8520 C   0  0  0  0  0  0  0  0  0  0  0  0
    9.4180    3.6910   -6.2960 C   0  0  0  0  0  0  0  0  0  0  0  0
    9.7710    3.3470   -7.5890 C   0  0  0  0  0  0  0  0  0  0  0  0
    8.7730    3.0520   -8.5280 C   0  0  0  0  0  0  0  0  0  0  0  0
    7.4300    3.1080   -8.1580 C   0  0  0  0  0  0  0  0  0  0  0  0
   -3.5330   -5.2470   22.0210 C   0  0  2  0  0  0  0  0  0  0  0  0
   -5.7870   -4.7330   20.8670 C   0  0  0  0  0  0  0  0  0  0  0  0
   -4.9760   -4.4050   19.6250 C   0  0  2  0  0  0  0  0  0  0  0  0
   -4.6050   -2.9270   19.5790 C   0  0  0  0  0  0  0  0  0  0  0  0
   -6.7590   -4.7660   18.0050 O   0  0  0  0  0  0  0  0  0  0  0  0
   -0.4430   -4.4160   26.7000 O   0  0  0  0  0  0  0  0  0  0  0  0
   -5.5660   -4.8300   18.3050 C   0  0  1  0  0  0  0  0  0  0  0  0
   -4.4920   -5.2530   17.3330 C   0  0  0  0  0  0  0  0  0  0  0  0
   -3.2370   -5.3180   18.2120 C   0  0  0  0  0  0  0  0  0  0  0  0
   -3.7520   -5.2860   19.6450 C   0  0  1  0  0  0  0  0  0  0  0  0
   -2.8070   -4.8400   20.7500 C   0  0  2  0  0  0  0  0  0  0  0  0
   -4.9080   -4.5560   22.1110 C   0  0  0  0  0  0  0  0  0  0  0  0
   -1.4500   -5.5170   20.6460 C   0  0  0  0  0  0  0  0  0  0  0  0
   -0.5680   -5.3970   21.8890 C   0  0  0  0  0  0  0  0  0  0  0  0
   -1.3130   -5.1020   23.1780 C   0  0  0  0  0  0  0  0  0  0  0  0
   -2.7000   -5.0230   23.2360 C   0  0  0  0  0  0  0  0  0  0  0  0
   -0.5510   -4.8900   24.3420 C   0  0  0  0  0  0  0  0  0  0  0  0
   -1.1770   -4.6190   25.5550 C   0  0  0  0  0  0  0  0  0  0  0  0
   -2.5700   -4.5430   25.6060 C   0  0  0  0  0  0  0  0  0  0  0  0
   -3.3260   -4.7470   24.4560 C   0  0  0  0  0  0  0  0  0  0  0  0
    5.2849    4.5450   -6.6643 H   0  0  0  0  0  0  0  0  0  0  0  0
    2.8196    1.7184   -7.5468 H   0  0  0  0  0  0  0  0  0  0  0  0
    2.8403    3.4885   -7.2420 H   0  0  0  0  0  0  0  0  0  0  0  0
    3.6798    0.7716   -4.0371 H   0  0  0  0  0  0  0  0  0  0  0  0
    2.9479    0.1300   -5.5469 H   0  0  0  0  0  0  0  0  0  0  0  0
    4.6505    0.7024   -5.5469 H   0  0  0  0  0  0  0  0  0  0  0  0
    0.1214    1.9128   -4.6665 H   0  0  0  0  0  0  0  0  0  0  0  0
   11.6491    3.2659   -7.1226 H   0  0  0  0  0  0  0  0  0  0  0  0
    1.7430    3.4610   -5.4169 H   0  0  0  0  0  0  0  0  0  0  0  0
    1.3221    4.0672   -3.4718 H   0  0  0  0  0  0  0  0  0  0  0  0
    1.5271    2.4995   -2.7126 H   0  0  0  0  0  0  0  0  0  0  0  0
    3.5621    4.4480   -2.9409 H   0  0  0  0  0  0  0  0  0  0  0  0
    3.9147    2.7458   -2.6843 H   0  0  0  0  0  0  0  0  0  0  0  0
    3.7894    4.3761   -5.2136 H   0  0  0  0  0  0  0  0  0  0  0  0
    5.7692    2.1782   -4.7539 H   0  0  0  0  0  0  0  0  0  0  0  0
    4.8787    2.9110   -8.4072 H   0  0  0  0  0  0  0  0  0  0  0  0
    5.1944    1.5610   -7.2110 H   0  0  0  0  0  0  0  0  0  0  0  0
    5.8533    5.1224   -4.1914 H   0  0  0  0  0  0  0  0  0  0  0  0
    6.1942    3.6923   -3.0997 H   0  0  0  0  0  0  0  0  0  0  0  0
    8.1095    5.1775   -4.3168 H   0  0  0  0  0  0  0  0  0  0  0  0
    8.2494    3.4092   -3.8404 H   0  0  0  0  0  0  0  0  0  0  0  0
    8.1087    2.7023   -5.6231 H   0  0  0  0  0  0  0  0  0  0  0  0
    7.0415    4.5209   -7.1512 H   0  0  0  0  0  0  0  0  0  0  0  0
    9.8499    4.6846   -6.1057 H   0  0  0  0  0  0  0  0  0  0  0  0
    9.7956    2.8442   -5.7040 H   0  0  0  0  0  0  0  0  0  0  0  0
    9.8025    2.2866   -7.2983 H   0  0  0  0  0  0  0  0  0  0  0  0
    8.9025    3.7579   -9.3616 H   0  0  0  0  0  0  0  0  0  0  0  0
    8.9328    1.9846   -8.7403 H   0  0  0  0  0  0  0  0  0  0  0  0
    7.0088    2.1082   -8.3396 H   0  0  0  0  0  0  0  0  0  0  0  0
    7.0366    3.9400   -8.7605 H   0  0  0  0  0  0  0  0  0  0  0  0
   -3.7143   -6.3310   21.9745 H   0  0  0  0  0  0  0  0  0  0  0  0
   -6.6521   -4.0564   20.9296 H   0  0  0  0  0  0  0  0  0  0  0  0
   -6.1395   -5.7735   20.8113 H   0  0  0  0  0  0  0  0  0  0  0  0
   -4.5082   -2.5412   20.6046 H   0  0  0  0  0  0  0  0  0  0  0  0
   -3.6485   -2.8054   19.0496 H   0  0  0  0  0  0  0  0  0  0  0  0
   -5.3907   -2.3680   19.0496 H   0  0  0  0  0  0  0  0  0  0  0  0
   -7.3056   -4.7367   18.8299 H   0  0  0  0  0  0  0  0  0  0  0  0
   -1.0159   -4.5744   27.4917 H   0  0  0  0  0  0  0  0  0  0  0  0
   -5.7199   -5.8448   18.7005 H   0  0  0  0  0  0  0  0  0  0  0  0
   -4.7197   -6.2363   16.8956 H   0  0  0  0  0  0  0  0  0  0  0  0
   -4.3873   -4.5688   16.4781 H   0  0  0  0  0  0  0  0  0  0  0  0
   -2.6809   -6.2480   18.0225 H   0  0  0  0  0  0  0  0  0  0  0  0
   -2.5459   -4.4877   18.0045 H   0  0  0  0  0  0  0  0  0  0  0  0
   -3.9332   -6.3346   19.9236 H   0  0  0  0  0  0  0  0  0  0  0  0
   -2.5861   -3.7633   20.7055 H   0  0  0  0  0  0  0  0  0  0  0  0
   -5.4466   -4.9721   22.9752 H   0  0  0  0  0  0  0  0  0  0  0  0
   -4.7125   -3.4778   22.2072 H   0  0  0  0  0  0  0  0  0  0  0  0
   -1.6169   -6.5862   20.4486 H   0  0  0  0  0  0  0  0  0  0  0  0
   -0.9115   -5.0009   19.8375 H   0  0  0  0  0  0  0  0  0  0  0  0
   -0.0275   -6.3465   22.0169 H   0  0  0  0  0  0  0  0  0  0  0  0
    0.0952   -4.5372   21.7135 H   0  0  0  0  0  0  0  0  0  0  0  0
   -1.2607   -4.0247   22.9617 H   0  0  0  0  0  0  0  0  0  0  0  0
   -2.7514   -6.0968   23.4692 H   0  0  0  0  0  0  0  0  0  0  0  0
    0.0518   -5.7975   24.4940 H   0  0  0  0  0  0  0  0  0  0  0  0
   -0.0189   -3.9526   24.1227 H   0  0  0  0  0  0  0  0  0  0  0  0
   -1.1341   -3.5418   25.3365 H   0  0  0  0  0  0  0  0  0  0  0  0
   -2.9010   -5.2931   26.3393 H   0  0  0  0  0  0  0  0  0  0  0  0
   -2.7541   -3.4844   25.8416 H   0  0  0  0  0  0  0  0  0  0  0  0
   -3.9229   -3.8354   24.3051 H   0  0  0  0  0  0  0  0  0  0  0  0
   -3.8641   -5.6809   24.6755 H   0  0  0  0  0  0  0  0  0  0  0  0
  2  3  1  0
  3  4  1  6
  3  7  1  0
  5  7  1  0
  7  8  1  0
  8  9  1  0
  3 10  1  0
  9 10  1  0
  1 11  1  0
 10 11  1  0
  1 12  1  0
  2 12  1  0
 11 13  1  0
 13 14  1  0
 14 15  1  0
  1 16  1  0
 15 16  1  0
 15 17  1  0
  6 18  1  0
 17 18  1  0
 18 19  1  0
 16 20  1  0
 19 20  1  0
 22 23  1  0
 23 24  1  6
 23 27  1  0
 25 27  1  0
 27 28  1  0
 28 29  1  0
 23 30  1  0
 29 30  1  0
 21 31  1  0
 30 31  1  0
 21 32  1  0
 22 32  1  0
 31 33  1  0
 33 34  1  0
 34 35  1  0
 21 36  1  0
 35 36  1  0
 35 37  1  0
 26 38  1  0
 37 38  1  0
 38 39  1  0
 36 40  1  0
 39 40  1  0
  1 41  1  1
  2 42  1  0
  2 43  1  0
  4 44  1  0
  4 45  1  0
  4 46  1  0
  5 47  1  0
  6 48  1  0
  7 49  1  6
  8 50  1  0
  8 51  1  0
  9 52  1  0
  9 53  1  0
 10 54  1  6
 11 55  1  6
 12 56  1  0
 12 57  1  0
 13 58  1  0
 13 59  1  0
 14 60  1  0
 14 61  1  0
 15 62  1  0
 16 63  1  0
 17 64  1  0
 17 65  1  0
 18 66  1  0
 19 67  1  0
 19 68  1  0
 20 69  1  0
 20 70  1  0
 21 71  1  6
 22 72  1  0
 22 73  1  0
 24 74  1  0
 24 75  1  0
 24 76  1  0
 25 77  1  0
 26 78  1  0
 27 79  1  1
 28 80  1  0
 28 81  1  0
 29 82  1  0
 29 83  1  0
 30 84  1  1
 31 85  1  1
 32 86  1  0
 32 87  1  0
 33 88  1  0
 33 89  1  0
 34 90  1  0
 34 91  1  0
 35 92  1  0
 36 93  1  0
 37 94  1  0
 37 95  1  0
 38 96  1  0
 39 97  1  0
 39 98  1  0
 40 99  1  0
 40100  1  0
M  END
>  <PDBID>  (1) 
3HM1

>  <PDB ID>  (1) 
3HM1

>  <Generic Name>  (1) 
Estrone

>  <Brand Name>  (1) 
Estragyn Vaginal Cream#Oestrilin Cones Vaginaux#Oestrilin Creme Vaginale 1mg#Estrone

>  <DrugBank ID>  (1) 
DB00655

>  <ATC Codes>  (1) 
G03CA07#G03CC04

>  <Ligand ID>  (1) 
J3Z

>  <Target Name>  (1) 
Estrogen receptor

>  <UniProt ID>  (1) 
P03372

>  <PDB ID.1>  (1) 
3HM1

>  <Seq. Identity>  (1) 
93%

$$$$
