PDB_DB01273_95
     RDKit          3D

 29 32  0  0  0  0  0  0  0  0999 V2000
   32.3490   25.2230   12.1810 C   0  0  0  0  0  0  0  0  0  0  0  0
   31.9310   23.7980   12.3420 N   0  0  0  0  0  0  0  0  0  0  0  0
   30.8350   23.3510   11.3400 C   0  0  0  0  0  0  0  0  0  0  0  0
   29.8120   24.3680   11.2390 C   0  0  2  0  0  0  0  0  0  0  0  0
   30.4190   25.6530   10.8730 C   0  0  0  0  0  0  0  0  0  0  0  0
   31.1970   26.1220   11.9950 C   0  0  1  0  0  0  0  0  0  0  0  0
   30.2660   25.7410   12.9550 C   0  0  0  0  0  0  0  0  0  0  0  0
   30.1000   26.2850   14.2530 C   0  0  0  0  0  0  0  0  0  0  0  0
   29.0970   25.7720   15.1270 C   0  0  0  0  0  0  0  0  0  0  0  0
   28.9350   26.3280   16.4160 N   0  0  0  0  0  0  0  0  0  0  0  0
   27.9800   25.8340   17.2380 C   0  0  0  0  0  0  0  0  0  0  0  0
   27.1460   24.7990   16.8320 C   0  0  0  0  0  0  0  0  0  0  0  0
   27.3110   24.2780   15.5910 N   0  0  0  0  0  0  0  0  0  0  0  0
   28.3030   24.7600   14.7360 C   0  0  0  0  0  0  0  0  0  0  0  0
   28.4260   24.1960   13.4390 C   0  0  0  0  0  0  0  0  0  0  0  0
   29.4240   24.7080   12.5550 C   0  0  0  0  0  0  0  0  0  0  0  0
   32.9001   25.5345   13.0806 H   0  0  0  0  0  0  0  0  0  0  0  0
   32.9796   25.2910   11.2823 H   0  0  0  0  0  0  0  0  0  0  0  0
   32.7583   23.1995   12.2069 H   0  0  0  0  0  0  0  0  0  0  0  0
   31.2890   23.1917   10.3508 H   0  0  0  0  0  0  0  0  0  0  0  0
   30.3797   22.4154   11.6969 H   0  0  0  0  0  0  0  0  0  0  0  0
   29.0391   23.9911   10.5530 H   0  0  0  0  0  0  0  0  0  0  0  0
   31.0714   25.5203    9.9973 H   0  0  0  0  0  0  0  0  0  0  0  0
   29.6365   26.3842   10.6219 H   0  0  0  0  0  0  0  0  0  0  0  0
   31.5627   27.1589   11.9612 H   0  0  0  0  0  0  0  0  0  0  0  0
   30.7487   27.1077   14.5882 H   0  0  0  0  0  0  0  0  0  0  0  0
   27.8618   26.2593   18.2455 H   0  0  0  0  0  0  0  0  0  0  0  0
   26.3671   24.4100   17.5044 H   0  0  0  0  0  0  0  0  0  0  0  0
   27.7634   23.3779   13.1201 H   0  0  0  0  0  0  0  0  0  0  0  0
  1  2  1  0
  2  3  1  0
  3  4  1  0
  4  5  1  0
  1  6  1  0
  5  6  1  0
  6  7  1  0
  7  8  1  0
  8  9  2  0
  9 10  1  0
 10 11  2  0
 11 12  1  0
 12 13  2  0
  9 14  1  0
 13 14  1  0
 14 15  2  0
  4 16  1  0
  7 16  2  0
 15 16  1  0
  1 17  1  0
  1 18  1  0
  2 19  1  0
  3 20  1  0
  3 21  1  0
  4 22  1  6
  5 23  1  0
  5 24  1  0
  6 25  1  6
  8 26  1  0
 11 27  1  0
 12 28  1  0
 15 29  1  0
M  END
$$$$
