PDB_DB05812_97
     RDKit          3D

 57 61  0  0  0  0  0  0  0  0999 V2000
   -2.7730   25.7620   24.5740 C   0  0  0  0  0  0  0  0  0  0  0  0
   -1.6360   26.5310   25.2240 C   0  0  0  0  0  0  0  0  0  0  0  0
   -1.9090   27.0720   26.6180 C   0  0  2  0  0  0  0  0  0  0  0  0
   -0.6310   27.3650   27.1610 O   0  0  0  0  0  0  0  0  0  0  0  0
   -2.5660   26.0360   27.5320 C   0  0  0  0  0  0  0  0  0  0  0  0
   -3.7460   25.4740   26.8140 C   0  0  0  0  0  0  0  0  0  0  0  0
   -4.9650   25.6360   27.3340 C   0  0  0  0  0  0  0  0  0  0  0  0
   -6.0750   24.6590   27.0610 C   0  0  0  0  0  0  0  0  0  0  0  0
   -5.8650   23.8640   25.7750 C   0  0  2  0  0  0  0  0  0  0  0  0
   -4.8430   24.5130   24.8400 C   0  0  1  0  0  0  0  0  0  0  0  0
   -3.4900   24.7850   25.4940 C   0  0  1  0  0  0  0  0  0  0  0  0
   -4.7230   23.7960   23.4920 C   0  0  0  0  0  0  0  0  0  0  0  0
   -6.0690   23.5270   22.8020 C   0  0  0  0  0  0  0  0  0  0  0  0
   -7.0810   22.9110   23.7630 C   0  0  1  0  0  0  0  0  0  0  0  0
   -7.1450   23.8490   24.9490 C   0  0  1  0  0  0  0  0  0  0  0  0
   -8.5080   23.7450   25.6270 C   0  0  0  0  0  0  0  0  0  0  0  0
   -9.4520   23.3760   24.4860 C   0  0  0  0  0  0  0  0  0  0  0  0
   -8.5370   22.9790   23.3470 C   0  0  0  0  0  0  0  0  0  0  0  0
   -6.6920   21.4550   24.0860 C   0  0  0  0  0  0  0  0  0  0  0  0
   -2.6250   23.5230   25.7450 C   0  0  0  0  0  0  0  0  0  0  0  0
   -9.0090   22.7330   21.9350 C   0  0  0  0  0  0  0  0  0  0  0  0
  -10.0060   23.5030   21.3550 C   0  0  0  0  0  0  0  0  0  0  0  0
  -10.3890   23.3170   20.0730 N   0  0  0  0  0  0  0  0  0  0  0  0
   -9.8170   22.3710   19.3260 C   0  0  0  0  0  0  0  0  0  0  0  0
   -8.8000   21.5840   19.8450 C   0  0  0  0  0  0  0  0  0  0  0  0
   -8.3920   21.7740   21.1530 C   0  0  0  0  0  0  0  0  0  0  0  0
   -3.5112   26.4893   24.2050 H   0  0  0  0  0  0  0  0  0  0  0  0
   -2.3208   25.1585   23.7732 H   0  0  0  0  0  0  0  0  0  0  0  0
   -0.7680   25.8583   25.2880 H   0  0  0  0  0  0  0  0  0  0  0  0
   -1.4746   27.4147   24.5892 H   0  0  0  0  0  0  0  0  0  0  0  0
   -2.5881   27.9348   26.5523 H   0  0  0  0  0  0  0  0  0  0  0  0
   -0.6819   27.3533   28.1496 H   0  0  0  0  0  0  0  0  0  0  0  0
   -1.8505   25.2326   27.7612 H   0  0  0  0  0  0  0  0  0  0  0  0
   -2.8794   26.5030   28.4773 H   0  0  0  0  0  0  0  0  0  0  0  0
   -5.1622   26.5057   27.9780 H   0  0  0  0  0  0  0  0  0  0  0  0
   -6.1368   23.9540   27.9031 H   0  0  0  0  0  0  0  0  0  0  0  0
   -7.0025   25.2384   26.9426 H   0  0  0  0  0  0  0  0  0  0  0  0
   -5.5353   22.8682   26.1061 H   0  0  0  0  0  0  0  0  0  0  0  0
   -5.2556   25.5082   24.6180 H   0  0  0  0  0  0  0  0  0  0  0  0
   -4.1103   24.4183   22.8232 H   0  0  0  0  0  0  0  0  0  0  0  0
   -4.2688   22.8148   23.6942 H   0  0  0  0  0  0  0  0  0  0  0  0
   -6.4711   24.4776   22.4216 H   0  0  0  0  0  0  0  0  0  0  0  0
   -5.8979   22.8154   21.9808 H   0  0  0  0  0  0  0  0  0  0  0  0
   -7.1283   24.9027   24.6337 H   0  0  0  0  0  0  0  0  0  0  0  0
   -8.5028   22.9628   26.4004 H   0  0  0  0  0  0  0  0  0  0  0  0
   -8.8011   24.6730   26.1398 H   0  0  0  0  0  0  0  0  0  0  0  0
  -10.5518   23.3944   24.4902 H   0  0  0  0  0  0  0  0  0  0  0  0
   -6.6556   21.3186   25.1769 H   0  0  0  0  0  0  0  0  0  0  0  0
   -7.4391   20.7718   23.6558 H   0  0  0  0  0  0  0  0  0  0  0  0
   -5.7037   21.2355   23.6558 H   0  0  0  0  0  0  0  0  0  0  0  0
   -2.5154   23.3630   26.8278 H   0  0  0  0  0  0  0  0  0  0  0  0
   -3.1138   22.6475   25.2927 H   0  0  0  0  0  0  0  0  0  0  0  0
   -1.6321   23.6631   25.2927 H   0  0  0  0  0  0  0  0  0  0  0  0
  -10.4970   24.2844   21.9536 H   0  0  0  0  0  0  0  0  0  0  0  0
  -10.1546   22.2142   18.2909 H   0  0  0  0  0  0  0  0  0  0  0  0
   -8.3214   20.8146   19.2214 H   0  0  0  0  0  0  0  0  0  0  0  0
   -7.5780   21.1631   21.5704 H   0  0  0  0  0  0  0  0  0  0  0  0
  1  2  1  0
  2  3  1  0
  3  4  1  0
  3  5  1  0
  5  6  1  0
  6  7  2  0
  7  8  1  0
  8  9  1  0
  9 10  1  0
  1 11  1  0
  6 11  1  0
 10 11  1  0
 10 12  1  0
 12 13  1  0
 13 14  1  0
  9 15  1  0
 14 15  1  0
 15 16  1  0
 16 17  1  0
 14 18  1  0
 17 18  2  0
 14 19  1  1
 11 20  1  1
 18 21  1  0
 21 22  2  0
 22 23  1  0
 24 23  2  0
 24 25  1  0
 21 26  1  0
 25 26  2  0
  1 27  1  0
  1 28  1  0
  2 29  1  0
  2 30  1  0
  3 31  1  6
  4 32  1  0
  5 33  1  0
  5 34  1  0
  7 35  1  0
  8 36  1  0
  8 37  1  0
  9 38  1  1
 10 39  1  6
 12 40  1  0
 12 41  1  0
 13 42  1  0
 13 43  1  0
 15 44  1  6
 16 45  1  0
 16 46  1  0
 17 47  1  0
 19 48  1  0
 19 49  1  0
 19 50  1  0
 20 51  1  0
 20 52  1  0
 20 53  1  0
 22 54  1  0
 24 55  1  0
 25 56  1  0
 26 57  1  0
M  END
$$$$
