PDB_DB00819_92
     RDKit          3D

 54 54  0  0  0  0  0  0  0  0999 V2000
   33.8190   59.3640   18.1560 C   0  0  0  0  0  0  0  0  0  0  0  0
   35.4080   60.0500   19.7330 C   0  0  0  0  0  0  0  0  0  0  0  0
   36.0940   61.9150   21.1990 C   0  0  0  0  0  0  0  0  0  0  0  0
   37.3070   62.4470   21.8940 C   0  0  0  0  0  0  0  0  0  0  0  0
   33.0630   59.1140   15.5560 N   0  0  0  0  0  0  0  0  0  0  0  0
   35.6360   58.8370   19.2900 N   0  0  0  0  0  0  0  0  0  0  0  0
   34.6980   58.4400   18.3630 N   0  0  0  0  0  0  0  0  0  0  0  0
   36.2400   60.6350   20.6680 N   0  0  0  0  0  0  0  0  0  0  0  0
   31.9450   57.8730   17.3260 O   0  0  0  0  0  0  0  0  0  0  0  0
   31.6640   60.3250   17.1420 O   0  0  0  0  0  0  0  0  0  0  0  0
   35.0410   62.5320   21.0950 O   0  0  0  0  0  0  0  0  0  0  0  0
   32.4740   59.1560   17.0090 S   0  0  1  0  0  4  0  0  0  0  0  0
   34.0170   60.8120   19.0530 S   0  0  0  0  0  0  0  0  0  0  0  0
   42.9740   58.4670   38.0890 C   0  0  0  0  0  0  0  0  0  0  0  0
   41.5570   59.4150   36.4870 C   0  0  0  0  0  0  0  0  0  0  0  0
   41.2780   61.3930   35.0420 C   0  0  0  0  0  0  0  0  0  0  0  0
   40.2750   62.0910   34.1830 C   0  0  0  0  0  0  0  0  0  0  0  0
   43.6500   58.0400   40.6920 N   0  0  0  0  0  0  0  0  0  0  0  0
   41.1160   58.2530   36.9150 N   0  0  0  0  0  0  0  0  0  0  0  0
   41.9610   57.7010   37.8610 N   0  0  0  0  0  0  0  0  0  0  0  0
   40.8740   60.1540   35.5390 N   0  0  0  0  0  0  0  0  0  0  0  0
   44.6370   56.7280   38.8980 O   0  0  0  0  0  0  0  0  0  0  0  0
   45.1950   59.1300   39.1600 O   0  0  0  0  0  0  0  0  0  0  0  0
   42.3760   61.8510   35.3060 O   0  0  0  0  0  0  0  0  0  0  0  0
   44.2580   58.0570   39.2490 S   0  0  1  0  0  4  0  0  0  0  0  0
   43.0290   59.9230   37.2020 S   0  0  0  0  0  0  0  0  0  0  0  0
   34.4429   59.7768   17.3496 H   0  0  0  0  0  0  0  0  0  0  0  0
   34.7879   59.6377   20.5427 H   0  0  0  0  0  0  0  0  0  0  0  0
   36.4468   62.3483   20.2515 H   0  0  0  0  0  0  0  0  0  0  0  0
   37.1630   62.3839   22.9827 H   0  0  0  0  0  0  0  0  0  0  0  0
   38.1857   61.8517   21.6052 H   0  0  0  0  0  0  0  0  0  0  0  0
   37.4643   63.4967   21.6052 H   0  0  0  0  0  0  0  0  0  0  0  0
   34.0893   59.0408   15.6035 H   0  0  0  0  0  0  0  0  0  0  0  0
   32.6834   58.2979   15.0551 H   0  0  0  0  0  0  0  0  0  0  0  0
   36.5676   58.8131   18.8512 H   0  0  0  0  0  0  0  0  0  0  0  0
   34.2211   57.5954   18.7095 H   0  0  0  0  0  0  0  0  0  0  0  0
   36.2240   60.0011   21.4797 H   0  0  0  0  0  0  0  0  0  0  0  0
   31.9016   57.7677   18.3094 H   0  0  0  0  0  0  0  0  0  0  0  0
   31.5264   60.5236   18.1021 H   0  0  0  0  0  0  0  0  0  0  0  0
   34.6889   62.7383   21.9970 H   0  0  0  0  0  0  0  0  0  0  0  0
   42.4124   58.9716   38.8890 H   0  0  0  0  0  0  0  0  0  0  0  0
   42.1175   58.9079   35.6878 H   0  0  0  0  0  0  0  0  0  0  0  0
   40.8594   61.8863   35.9316 H   0  0  0  0  0  0  0  0  0  0  0  0
   39.5392   62.6030   34.8206 H   0  0  0  0  0  0  0  0  0  0  0  0
   40.7866   62.8292   33.5479 H   0  0  0  0  0  0  0  0  0  0  0  0
   39.7605   61.3548   33.5479 H   0  0  0  0  0  0  0  0  0  0  0  0
   44.4112   58.0613   41.3856 H   0  0  0  0  0  0  0  0  0  0  0  0
   43.0459   58.8644   40.8198 H   0  0  0  0  0  0  0  0  0  0  0  0
   40.1848   58.3838   37.3352 H   0  0  0  0  0  0  0  0  0  0  0  0
   42.2993   56.7906   37.5181 H   0  0  0  0  0  0  0  0  0  0  0  0
   40.7986   59.5400   34.7154 H   0  0  0  0  0  0  0  0  0  0  0  0
   44.7877   56.1995   39.7214 H   0  0  0  0  0  0  0  0  0  0  0  0
   45.4499   59.4219   40.0710 H   0  0  0  0  0  0  0  0  0  0  0  0
   42.4867   61.8972   36.2887 H   0  0  0  0  0  0  0  0  0  0  0  0
  3  4  1  0
  2  6  1  0
  1  7  1  0
  6  7  1  0
  2  8  1  0
  3  8  1  0
  3 11  1  0
  1 12  1  0
  5 12  1  0
 12  9  1  1
 10 12  1  0
  1 13  1  0
  2 13  1  0
 16 17  1  0
 15 19  1  0
 14 20  1  0
 19 20  1  0
 15 21  1  0
 16 21  1  0
 16 24  1  0
 14 25  1  0
 18 25  1  0
 25 22  1  6
 23 25  1  0
 14 26  1  0
 15 26  1  0
  1 27  1  0
  2 28  1  0
  3 29  1  0
  4 30  1  0
  4 31  1  0
  4 32  1  0
  5 33  1  0
  5 34  1  0
  6 35  1  0
  7 36  1  0
  8 37  1  0
  9 38  1  0
 10 39  1  0
 11 40  1  0
 14 41  1  0
 15 42  1  0
 16 43  1  0
 17 44  1  0
 17 45  1  0
 17 46  1  0
 18 47  1  0
 18 48  1  0
 19 49  1  0
 20 50  1  0
 21 51  1  0
 22 52  1  0
 23 53  1  0
 24 54  1  0
M  END
>  <PDBID>  (1) 
3CZV

>  <PDB ID>  (1) 
3CZV

>  <Generic Name>  (1) 
Acetazolamide

>  <Brand Name>  (1) 
Acetazolam#Acetazolamide#Acetazolamide for Injection, USP#Diamox IV 500mg#Diamox Pws 500mg/vial#Diamox Sequels#Diamox Src 500mg#Diamox Tab 250mg#Diamox Tablets 250mg#Novo-zolamide Tab 250mg#Acemit#Acemox#Acetak#Acetamide#Acetazolamax#Azm#Azol#Azomid#Carbinib#Defiltran#Diabo#Diacarb#Diamox#Diamox Depot#Diazomid#Diluran#Diuramid#Défiltran#Edemox#Glaumox#Glaupax#Glupax#Huma-Zolamide#Iopar-SR#Medene#Oculten#Uramox#Zolmide#Ödemin

>  <DrugBank ID>  (1) 
DB00819

>  <ATC Codes>  (1) 
S01EC01

>  <Ligand ID>  (1) 
AZM

>  <Target Name>  (1) 
Carbonic anhydrase 4

>  <UniProt ID>  (1) 
P22748

>  <PDB ID.1>  (1) 
3CZV

>  <Seq. Identity>  (1) 
35%

$$$$
