PDB_DB01283_95
     RDKit          3D

 33 34  0  0  0  0  0  0  0  0999 V2000
  -47.5930    7.3320   13.9980 O   0  0  0  0  0  0  0  0  0  0  0  0
  -46.6730    8.1240   13.9020 C   0  0  0  0  0  0  0  0  0  0  0  0
  -46.6520    8.9670   12.8720 O   0  0  0  0  0  0  0  0  0  0  0  0
  -45.5700    8.1450   14.9350 C   0  0  0  0  0  0  0  0  0  0  0  0
  -46.0330    8.8270   16.2010 C   0  0  0  0  0  0  0  0  0  0  0  0
  -45.7620   10.1710   16.4090 C   0  0  0  0  0  0  0  0  0  0  0  0
  -46.1880   10.7870   17.5790 C   0  0  0  0  0  0  0  0  0  0  0  0
  -45.8930   12.2470   17.7960 C   0  0  0  0  0  0  0  0  0  0  0  0
  -46.8830   10.0690   18.5490 C   0  0  0  0  0  0  0  0  0  0  0  0
  -47.1810    8.7200   18.3870 C   0  0  0  0  0  0  0  0  0  0  0  0
  -46.7730    8.0640   17.2340 C   0  0  0  0  0  0  0  0  0  0  0  0
  -47.0310    6.7550   17.0270 N   0  0  0  0  0  0  0  0  0  0  0  0
  -47.5890    5.9450   17.9550 C   0  0  0  0  0  0  0  0  0  0  0  0
  -48.9050    5.3250   17.6920 C   0  0  0  0  0  0  0  0  0  0  0  0
  -49.7600    5.6720   16.1560 Cl  0  0  0  0  0  0  0  0  0  0  0  0
  -49.4640    4.4840   18.6430 C   0  0  0  0  0  0  0  0  0  0  0  0
  -48.7950    4.2190   19.8360 C   0  0  0  0  0  0  0  0  0  0  0  0
  -47.5500    4.7710   20.1310 C   0  0  0  0  0  0  0  0  0  0  0  0
  -46.9150    5.6210   19.2350 C   0  0  0  0  0  0  0  0  0  0  0  0
  -45.7160    6.1520   19.5340 F   0  0  0  0  0  0  0  0  0  0  0  0
  -45.9111    9.6171   12.7794 H   0  0  0  0  0  0  0  0  0  0  0  0
  -45.2757    7.1113   15.1692 H   0  0  0  0  0  0  0  0  0  0  0  0
  -44.7150    8.7035   14.5263 H   0  0  0  0  0  0  0  0  0  0  0  0
  -45.2118   10.7471   15.6505 H   0  0  0  0  0  0  0  0  0  0  0  0
  -45.8508   12.4561   18.8751 H   0  0  0  0  0  0  0  0  0  0  0  0
  -44.9260   12.4980   17.3357 H   0  0  0  0  0  0  0  0  0  0  0  0
  -46.6867   12.8538   17.3357 H   0  0  0  0  0  0  0  0  0  0  0  0
  -47.2047   10.5821   19.4673 H   0  0  0  0  0  0  0  0  0  0  0  0
  -47.7357    8.1774   19.1666 H   0  0  0  0  0  0  0  0  0  0  0  0
  -46.7893    6.3507   16.1110 H   0  0  0  0  0  0  0  0  0  0  0  0
  -50.4442    4.0222   18.4535 H   0  0  0  0  0  0  0  0  0  0  0  0
  -49.2664    3.5502   20.5712 H   0  0  0  0  0  0  0  0  0  0  0  0
  -47.0631    4.5300   21.0875 H   0  0  0  0  0  0  0  0  0  0  0  0
  1  2  2  0
  2  3  1  0
  2  4  1  0
  4  5  1  0
  5  6  2  0
  6  7  1  0
  7  8  1  0
  7  9  2  0
  9 10  1  0
  5 11  1  0
 10 11  2  0
 11 12  1  0
 12 13  1  0
 13 14  2  0
 14 15  1  0
 14 16  1  0
 16 17  2  0
 17 18  1  0
 13 19  1  0
 18 19  2  0
 19 20  1  0
  3 21  1  0
  4 22  1  0
  4 23  1  0
  6 24  1  0
  8 25  1  0
  8 26  1  0
  8 27  1  0
  9 28  1  0
 10 29  1  0
 12 30  1  0
 16 31  1  0
 17 32  1  0
 18 33  1  0
M  END
$$$$
