PDB_DB00503_99
     RDKit          3D

124127  0  0  0  0  0  0  0  0999 V2000
   16.6620   17.7900    1.4940 C   0  0  0  0  0  0  0  0  0  0  0  0
   16.2290   17.9350    2.7840 C   0  0  0  0  0  0  0  0  0  0  0  0
   17.3450   17.3240    4.0360 S   0  0  0  0  0  0  0  0  0  0  0  0
   18.3160   17.1130    2.5550 C   0  0  0  0  0  0  0  0  0  0  0  0
   17.8670   17.3660    1.3770 N   0  0  0  0  0  0  0  0  0  0  0  0
   15.0730   18.4170    3.4890 C   0  0  0  0  0  0  0  0  0  0  0  0
   15.1860   19.8130    3.7080 O   0  0  0  0  0  0  0  0  0  0  0  0
   14.2160   20.6020    4.3390 C   0  0  0  0  0  0  0  0  0  0  0  0
   13.1030   20.1700    4.6600 O   0  0  0  0  0  0  0  0  0  0  0  0
   14.6500   21.8720    4.5250 N   0  0  0  0  0  0  0  0  0  0  0  0
   13.8730   22.9120    5.2280 C   0  0  2  0  0  0  0  0  0  0  0  0
   13.5030   24.1400    4.3920 C   0  0  2  0  0  0  0  0  0  0  0  0
   12.6720   23.8060    3.1710 C   0  0  0  0  0  0  0  0  0  0  0  0
   11.1400   23.5720    3.3150 C   0  0  2  0  0  0  0  0  0  0  0  0
   14.2610   23.2430    6.6710 C   0  0  0  0  0  0  0  0  0  0  0  0
   14.8160   22.2250    7.5340 C   0  0  1  0  0  0  0  0  0  0  0  0
   13.7990   21.7080    8.3440 C   0  0  0  0  0  0  0  0  0  0  0  0
   14.0980   20.6030    9.1570 C   0  0  0  0  0  0  0  0  0  0  0  0
   15.3740   20.0130    9.1710 C   0  0  0  0  0  0  0  0  0  0  0  0
   16.3920   20.5660    8.3640 C   0  0  0  0  0  0  0  0  0  0  0  0
   16.1150   21.6680    7.5490 C   0  0  0  0  0  0  0  0  0  0  0  0
   14.7540   24.6640    3.9780 O   0  0  0  0  0  0  0  0  0  0  0  0
   10.5690   23.5860    1.9290 C   0  0  0  0  0  0  0  0  0  0  0  0
    9.2540   22.9780    2.0010 C   0  0  1  0  0  0  0  0  0  0  0  0
    8.1490   23.8450    2.0180 C   0  0  0  0  0  0  0  0  0  0  0  0
    6.8360   23.3350    2.0410 C   0  0  0  0  0  0  0  0  0  0  0  0
    6.6600   21.9490    2.0260 C   0  0  0  0  0  0  0  0  0  0  0  0
    7.7560   21.0900    2.0030 C   0  0  0  0  0  0  0  0  0  0  0  0
    9.0590   21.5930    1.9920 C   0  0  0  0  0  0  0  0  0  0  0  0
   10.4690   24.5540    4.1370 N   0  0  0  0  0  0  0  0  0  0  0  0
    7.9060   25.6800    5.5030 N   0  0  0  0  0  0  0  0  0  0  0  0
    9.2740   25.5150    5.9960 C   0  0  2  0  0  0  0  0  0  0  0  0
    9.9600   24.2980    5.3480 C   0  0  1  0  0  0  0  0  0  0  0  0
    9.9680   23.1590    5.8580 O   0  0  0  0  0  0  0  0  0  0  0  0
    9.2550   25.5670    7.5570 C   0  0  1  0  0  0  0  0  0  0  0  0
   10.5960   25.2750    8.2820 C   0  0  0  0  0  0  0  0  0  0  0  0
    8.5650   26.8410    8.0950 C   0  0  0  0  0  0  0  0  0  0  0  0
    7.6650   26.5180    4.4810 C   0  0  1  0  0  0  0  0  0  0  0  0
    6.4230   26.4000    3.9580 N   0  0  0  0  0  0  0  0  0  0  0  0
    5.9690   27.3450    2.9380 C   0  0  0  0  0  0  0  0  0  0  0  0
    8.4710   27.4270    4.1920 O   0  0  0  0  0  0  0  0  0  0  0  0
    5.9100   26.8490    1.5590 C   0  0  0  0  0  0  0  0  0  0  0  0
    7.0240   27.0120    0.7840 C   0  0  0  0  0  0  0  0  0  0  0  0
    6.6390   26.2570   -0.7850 S   0  0  0  0  0  0  0  0  0  0  0  0
    5.0870   25.7360   -0.1240 C   0  0  0  0  0  0  0  0  0  0  0  0
    4.8710   26.2630    1.0440 N   0  0  0  0  0  0  0  0  0  0  0  0
    4.4970   24.8860   -1.0460 C   0  0  2  0  0  0  0  0  0  0  0  0
    4.1390   25.1310   -2.5060 C   0  0  0  0  0  0  0  0  0  0  0  0
    3.2450   24.3730   -0.4620 C   0  0  0  0  0  0  0  0  0  0  0  0
    5.4840   25.5080    4.2400 C   0  0  0  0  0  0  0  0  0  0  0  0
   15.9967   17.0752    0.9877 H   0  0  0  0  0  0  0  0  0  0  0  0
   16.6412   18.7939    1.0449 H   0  0  0  0  0  0  0  0  0  0  0  0
   15.7460   16.9480    2.7328 H   0  0  0  0  0  0  0  0  0  0  0  0
   19.2042   17.7492    2.6829 H   0  0  0  0  0  0  0  0  0  0  0  0
   18.4216   16.0187    2.5176 H   0  0  0  0  0  0  0  0  0  0  0  0
   17.8820   16.5090    0.8058 H   0  0  0  0  0  0  0  0  0  0  0  0
   14.1715   18.2136    2.8925 H   0  0  0  0  0  0  0  0  0  0  0  0
   15.0018   17.9038    4.4593 H   0  0  0  0  0  0  0  0  0  0  0  0
   13.8180   20.8979    3.3572 H   0  0  0  0  0  0  0  0  0  0  0  0
   13.0318   20.1424    5.6471 H   0  0  0  0  0  0  0  0  0  0  0  0
   15.5390   21.7915    5.0389 H   0  0  0  0  0  0  0  0  0  0  0  0
   12.9305   22.3622    5.3671 H   0  0  0  0  0  0  0  0  0  0  0  0
   12.8892   24.8371    4.9814 H   0  0  0  0  0  0  0  0  0  0  0  0
   12.8015   24.6365    2.4614 H   0  0  0  0  0  0  0  0  0  0  0  0
   13.0520   22.8193    2.8676 H   0  0  0  0  0  0  0  0  0  0  0  0
   10.9806   22.6122    3.8282 H   0  0  0  0  0  0  0  0  0  0  0  0
   15.0045   24.0520    6.6196 H   0  0  0  0  0  0  0  0  0  0  0  0
   13.2924   23.4653    7.1425 H   0  0  0  0  0  0  0  0  0  0  0  0
   15.0338   22.9889    8.2950 H   0  0  0  0  0  0  0  0  0  0  0  0
   13.4647   22.5199    9.0066 H   0  0  0  0  0  0  0  0  0  0  0  0
   13.0491   21.3299    7.6336 H   0  0  0  0  0  0  0  0  0  0  0  0
   13.8922   20.9167   10.1911 H   0  0  0  0  0  0  0  0  0  0  0  0
   13.4818   19.8109    8.7066 H   0  0  0  0  0  0  0  0  0  0  0  0
   15.7329   20.0456   10.2103 H   0  0  0  0  0  0  0  0  0  0  0  0
   15.2081   19.0147    8.7398 H   0  0  0  0  0  0  0  0  0  0  0  0
   17.2054   20.8674    9.0405 H   0  0  0  0  0  0  0  0  0  0  0  0
   16.6069   19.7643    7.6421 H   0  0  0  0  0  0  0  0  0  0  0  0
   16.3430   21.3651    6.5164 H   0  0  0  0  0  0  0  0  0  0  0  0
   16.7292   22.4684    7.9872 H   0  0  0  0  0  0  0  0  0  0  0  0
   15.2965   24.8912    4.7744 H   0  0  0  0  0  0  0  0  0  0  0  0
   10.4863   24.6210    1.5658 H   0  0  0  0  0  0  0  0  0  0  0  0
   11.2176   23.0328    1.2338 H   0  0  0  0  0  0  0  0  0  0  0  0
    9.2981   23.0127    3.0996 H   0  0  0  0  0  0  0  0  0  0  0  0
    8.2573   24.4748    2.9133 H   0  0  0  0  0  0  0  0  0  0  0  0
    8.2053   24.3340    1.0343 H   0  0  0  0  0  0  0  0  0  0  0  0
    6.3563   23.7136    2.9556 H   0  0  0  0  0  0  0  0  0  0  0  0
    6.3986   23.6729    1.0899 H   0  0  0  0  0  0  0  0  0  0  0  0
    6.0828   21.6966    2.9277 H   0  0  0  0  0  0  0  0  0  0  0  0
    6.1925   21.7735    1.0458 H   0  0  0  0  0  0  0  0  0  0  0  0
    7.6735   20.4523    2.8955 H   0  0  0  0  0  0  0  0  0  0  0  0
    7.6707   20.6119    1.0160 H   0  0  0  0  0  0  0  0  0  0  0  0
    9.5459   21.2054    1.0850 H   0  0  0  0  0  0  0  0  0  0  0  0
    9.4759   21.2629    2.9549 H   0  0  0  0  0  0  0  0  0  0  0  0
   11.1507   25.3135    4.2762 H   0  0  0  0  0  0  0  0  0  0  0  0
    7.5797   24.7483    5.2091 H   0  0  0  0  0  0  0  0  0  0  0  0
    9.9219   26.3473    5.6837 H   0  0  0  0  0  0  0  0  0  0  0  0
   10.9144   24.5896    5.8108 H   0  0  0  0  0  0  0  0  0  0  0  0
    9.9674   23.2392    6.8447 H   0  0  0  0  0  0  0  0  0  0  0  0
    8.6355   24.6977    7.8226 H   0  0  0  0  0  0  0  0  0  0  0  0
   10.4395   25.3091    9.3703 H   0  0  0  0  0  0  0  0  0  0  0  0
   10.9584   24.2769    7.9948 H   0  0  0  0  0  0  0  0  0  0  0  0
   11.3405   26.0321    7.9948 H   0  0  0  0  0  0  0  0  0  0  0  0
    8.5732   26.8258    9.1949 H   0  0  0  0  0  0  0  0  0  0  0  0
    9.1051   27.7297    7.7365 H   0  0  0  0  0  0  0  0  0  0  0  0
    7.5256   26.8742    7.7365 H   0  0  0  0  0  0  0  0  0  0  0  0
    8.2639   26.4094    3.5648 H   0  0  0  0  0  0  0  0  0  0  0  0
    4.9575   27.6756    3.2167 H   0  0  0  0  0  0  0  0  0  0  0  0
    6.7265   28.1426    2.9258 H   0  0  0  0  0  0  0  0  0  0  0  0
    8.8273   27.8288    5.0237 H   0  0  0  0  0  0  0  0  0  0  0  0
    5.5335   27.8266    1.2235 H   0  0  0  0  0  0  0  0  0  0  0  0
    7.2447   28.0813    0.6506 H   0  0  0  0  0  0  0  0  0  0  0  0
    7.9101   26.5536    1.2473 H   0  0  0  0  0  0  0  0  0  0  0  0
    5.5794   24.8767    0.3548 H   0  0  0  0  0  0  0  0  0  0  0  0
    4.5691   25.5160    1.6857 H   0  0  0  0  0  0  0  0  0  0  0  0
    5.4128   24.2938   -1.1891 H   0  0  0  0  0  0  0  0  0  0  0  0
    3.2324   25.7514   -2.5621 H   0  0  0  0  0  0  0  0  0  0  0  0
    4.9703   25.6504   -3.0052 H   0  0  0  0  0  0  0  0  0  0  0  0
    3.9558   24.1681   -3.0052 H   0  0  0  0  0  0  0  0  0  0  0  0
    3.3138   24.4012    0.6355 H   0  0  0  0  0  0  0  0  0  0  0  0
    2.4028   24.9985   -0.7928 H   0  0  0  0  0  0  0  0  0  0  0  0
    3.0839   23.3364   -0.7928 H   0  0  0  0  0  0  0  0  0  0  0  0
    5.3842   25.4132    5.3314 H   0  0  0  0  0  0  0  0  0  0  0  0
    4.5257   25.8364    3.8113 H   0  0  0  0  0  0  0  0  0  0  0  0
    5.7628   24.5341    3.8113 H   0  0  0  0  0  0  0  0  0  0  0  0
  1  2  1  0
  2  3  1  0
  3  4  1  0
  1  5  1  0
  4  5  1  0
  2  6  1  0
  6  7  1  0
  7  8  1  0
  8  9  1  0
  8 10  1  0
 10 11  1  0
 11 12  1  0
 12 13  1  0
 13 14  1  0
 11 15  1  0
 15 16  1  0
 16 17  1  0
 17 18  1  0
 18 19  1  0
 19 20  1  0
 16 21  1  0
 20 21  1  0
 12 22  1  0
 14 23  1  0
 23 24  1  0
 24 25  1  0
 25 26  1  0
 26 27  1  0
 27 28  1  0
 24 29  1  0
 28 29  1  0
 14 30  1  0
 31 32  1  0
 30 33  1  0
 32 33  1  0
 33 34  1  0
 32 35  1  0
 35 36  1  0
 35 37  1  0
 31 38  1  0
 38 39  1  0
 39 40  1  0
 38 41  1  0
 40 42  1  0
 42 43  1  0
 43 44  1  0
 44 45  1  0
 42 46  1  0
 45 46  1  0
 45 47  1  0
 47 48  1  0
 47 49  1  0
 39 50  1  0
  1 51  1  0
  1 52  1  0
  2 53  1  0
  4 54  1  0
  4 55  1  0
  5 56  1  0
  6 57  1  0
  6 58  1  0
  8 59  1  0
  9 60  1  0
 10 61  1  0
 11 62  1  1
 12 63  1  1
 13 64  1  0
 13 65  1  0
 14 66  1  1
 15 67  1  0
 15 68  1  0
 16 69  1  1
 17 70  1  0
 17 71  1  0
 18 72  1  0
 18 73  1  0
 19 74  1  0
 19 75  1  0
 20 76  1  0
 20 77  1  0
 21 78  1  0
 21 79  1  0
 22 80  1  0
 23 81  1  0
 23 82  1  0
 24 83  1  1
 25 84  1  0
 25 85  1  0
 26 86  1  0
 26 87  1  0
 27 88  1  0
 27 89  1  0
 28 90  1  0
 28 91  1  0
 29 92  1  0
 29 93  1  0
 30 94  1  0
 31 95  1  0
 32 96  1  6
 33 97  1  1
 34 98  1  0
 35 99  1  1
 36100  1  0
 36101  1  0
 36102  1  0
 37103  1  0
 37104  1  0
 37105  1  0
 38106  1  6
 40107  1  0
 40108  1  0
 41109  1  0
 42110  1  0
 43111  1  0
 43112  1  0
 45113  1  0
 46114  1  0
 47115  1  6
 48116  1  0
 48117  1  0
 48118  1  0
 49119  1  0
 49120  1  0
 49121  1  0
 50122  1  0
 50123  1  0
 50124  1  0
M  END
>  <PDBID>  (1) 
1HXW

>  <PDB ID>  (1) 
1HXW

>  <Generic Name>  (1) 
Ritonavir

>  <Brand Name>  (1) 
Holkira Pak#Kaletra#Lopinavir-ritonavir#Norvir#Norvir Sec#Technivie#Viekira Pak#Viekira XR#Busvir#Empetus#Normune

>  <DrugBank ID>  (1) 
DB00503

>  <ATC Codes>  (1) 
J05AX67#J05AR10#J05AE03#J05AX66

>  <Ligand ID>  (1) 
RIT

>  <Target Name>  (1) 
Pol polyprotein

>  <UniProt ID>  (1) 
Q72874

>  <PDB ID.1>  (1) 
1HXW

>  <Seq. Identity>  (1) 
98%

$$$$
