PDB_DB00399_95
     RDKit          3D

 26 26  0  0  0  0  0  0  0  0999 V2000
   22.3660   24.9030   27.7890 O   0  0  0  0  0  0  0  0  0  0  0  0
   22.4190   24.8090   29.3940 P   0  0  0  0  0  0  0  0  0  0  0  0
   22.3050   23.2440   29.7500 O   0  0  0  0  0  0  0  0  0  0  0  0
   21.4010   25.6330   30.0850 O   0  0  0  0  0  0  0  0  0  0  0  0
   24.1270   25.3180   29.9370 C   0  0  0  0  0  0  0  0  0  0  0  0
   25.2960   24.3270   28.8750 P   0  0  0  0  0  0  0  0  0  0  0  0
   25.0820   24.8850   27.3810 O   0  0  0  0  0  0  0  0  0  0  0  0
   26.7900   24.6450   29.3840 O   0  0  0  0  0  0  0  0  0  0  0  0
   24.9840   22.8850   28.9630 O   0  0  0  0  0  0  0  0  0  0  0  0
   24.2960   24.9560   31.3100 O   0  0  0  0  0  0  0  0  0  0  0  0
   24.3010   26.8270   29.7310 C   0  0  0  0  0  0  0  0  0  0  0  0
   25.5790   27.3600   30.2310 N   0  0  0  0  0  0  0  0  0  0  0  0
   26.1310   27.0820   31.4100 C   0  0  0  0  0  0  0  0  0  0  0  0
   27.2290   27.8280   31.5000 N   0  0  0  0  0  0  0  0  0  0  0  0
   27.3440   28.5560   30.3890 C   0  0  0  0  0  0  0  0  0  0  0  0
   26.3150   28.2680   29.5950 C   0  0  0  0  0  0  0  0  0  0  0  0
   21.8977   25.7335   27.5224 H   0  0  0  0  0  0  0  0  0  0  0  0
   22.2966   23.1290   30.7333 H   0  0  0  0  0  0  0  0  0  0  0  0
   24.7278   25.8086   27.4213 H   0  0  0  0  0  0  0  0  0  0  0  0
   26.8076   24.6487   30.3738 H   0  0  0  0  0  0  0  0  0  0  0  0
   23.9559   25.6845   31.8876 H   0  0  0  0  0  0  0  0  0  0  0  0
   24.2371   27.0379   28.6533 H   0  0  0  0  0  0  0  0  0  0  0  0
   23.5050   27.3192   30.3090 H   0  0  0  0  0  0  0  0  0  0  0  0
   25.7533   26.3741   32.1625 H   0  0  0  0  0  0  0  0  0  0  0  0
   28.1498   29.2710   30.1668 H   0  0  0  0  0  0  0  0  0  0  0  0
   26.1120   28.6982   28.6032 H   0  0  0  0  0  0  0  0  0  0  0  0
  1  2  1  0
  2  3  1  0
  2  4  2  0
  2  5  1  0
  5  6  1  0
  6  7  1  0
  6  8  1  0
  6  9  2  0
  5 10  1  0
  5 11  1  0
 11 12  1  0
 12 13  1  0
 13 14  2  0
 14 15  1  0
 12 16  1  0
 15 16  2  0
  1 17  1  0
  3 18  1  0
  7 19  1  0
  8 20  1  0
 10 21  1  0
 11 22  1  0
 11 23  1  0
 13 24  1  0
 15 25  1  0
 16 26  1  0
M  END
$$$$
