PDB_DB00190_99
     RDKit          3D

 30 30  0  0  0  0  0  0  0  0999 V2000
   42.8360   38.7470   67.5080 N   0  0  0  0  0  0  0  0  0  0  0  0
   42.9920   37.3500   67.2730 N   0  0  0  0  0  0  0  0  0  0  0  0
   41.6280   39.1120   67.6850 C   0  0  2  0  0  0  0  0  0  0  0  0
   40.8910   38.2800   68.7760 C   0  0  0  0  0  0  0  0  0  0  0  0
   40.8700   38.9700   66.3620 C   0  0  0  0  0  0  0  0  0  0  0  0
   40.4610   36.8370   68.4620 C   0  0  0  0  0  0  0  0  0  0  0  0
   41.1650   35.7550   69.0050 C   0  0  0  0  0  0  0  0  0  0  0  0
   40.7870   34.4320   68.7610 C   0  0  0  0  0  0  0  0  0  0  0  0
   39.3490   36.5490   67.6600 C   0  0  0  0  0  0  0  0  0  0  0  0
   38.9550   35.2000   67.4050 C   0  0  0  0  0  0  0  0  0  0  0  0
   39.6960   34.1510   67.9700 C   0  0  0  0  0  0  0  0  0  0  0  0
   39.3740   32.8200   67.7580 O   0  0  0  0  0  0  0  0  0  0  0  0
   41.4920   33.3740   69.2970 O   0  0  0  0  0  0  0  0  0  0  0  0
   41.6150   40.5760   68.1540 C   0  0  0  0  0  0  0  0  0  0  0  0
   40.4920   41.0840   68.3500 O   0  0  0  0  0  0  0  0  0  0  0  0
   42.5920   40.9000   68.8720 O   0  0  0  0  0  0  0  0  0  0  0  0
   43.3759   38.9960   68.3490 H   0  0  0  0  0  0  0  0  0  0  0  0
   43.0474   36.8543   68.1742 H   0  0  0  0  0  0  0  0  0  0  0  0
   42.1849   36.9997   66.7375 H   0  0  0  0  0  0  0  0  0  0  0  0
   41.5589   38.2327   69.6488 H   0  0  0  0  0  0  0  0  0  0  0  0
   39.9375   38.8122   68.9085 H   0  0  0  0  0  0  0  0  0  0  0  0
   39.8078   38.7710   66.5675 H   0  0  0  0  0  0  0  0  0  0  0  0
   40.9635   39.9013   65.7841 H   0  0  0  0  0  0  0  0  0  0  0  0
   41.2942   38.1357   65.7841 H   0  0  0  0  0  0  0  0  0  0  0  0
   42.0402   35.9521   69.6415 H   0  0  0  0  0  0  0  0  0  0  0  0
   38.7704   37.3745   67.2199 H   0  0  0  0  0  0  0  0  0  0  0  0
   38.0806   34.9859   66.7729 H   0  0  0  0  0  0  0  0  0  0  0  0
   38.5955   32.5828   67.1942 H   0  0  0  0  0  0  0  0  0  0  0  0
   41.2068   32.4443   69.1113 H   0  0  0  0  0  0  0  0  0  0  0  0
   40.4199   42.0237   68.6529 H   0  0  0  0  0  0  0  0  0  0  0  0
  1  2  1  0
  1  3  1  0
  3  4  1  0
  3  5  1  0
  4  6  1  0
  6  7  2  0
  7  8  1  0
  6  9  1  0
  9 10  2  0
  8 11  2  0
 10 11  1  0
 11 12  1  0
  8 13  1  0
  3 14  1  1
 14 15  1  0
 14 16  2  0
  1 17  1  0
  2 18  1  0
  2 19  1  0
  4 20  1  0
  4 21  1  0
  5 22  1  0
  5 23  1  0
  5 24  1  0
  7 25  1  0
  9 26  1  0
 10 27  1  0
 12 28  1  0
 13 29  1  0
 15 30  1  0
M  END
$$$$
