PDB_DB00558_98
     RDKit          3D

 43 43  0  0  0  0  0  0  0  0999 V2000
   47.6690  -27.3240   22.3130 C   0  0  0  0  0  0  0  0  0  0  0  0
   48.4830  -27.6890   21.5790 O   0  0  0  0  0  0  0  0  0  0  0  0
   47.6260  -26.0650   22.7840 O   0  0  0  0  0  0  0  0  0  0  0  0
   46.4210  -28.1620   22.4670 C   0  0  0  0  0  0  0  0  0  0  0  0
   45.1240  -27.4810   22.9880 C   0  0  0  0  0  0  0  0  0  0  0  0
   43.8310  -28.2810   22.8890 C   0  0  1  0  0  0  0  0  0  0  0  0
   43.9690  -29.7330   22.4610 C   0  0  1  0  0  0  0  0  0  0  0  0
   42.8150  -30.5240   22.2760 N   0  0  0  0  0  0  0  0  0  0  0  0
   42.1800  -31.2480   23.2880 C   0  0  0  0  0  0  0  0  0  0  0  0
   42.5610  -31.2610   24.4040 O   0  0  0  0  0  0  0  0  0  0  0  0
   40.8550  -31.7560   22.8320 C   0  0  0  0  0  0  0  0  0  0  0  0
   45.1800  -30.1400   21.6410 C   0  0  1  0  0  0  0  0  0  0  0  0
   46.2840  -29.2940   21.5610 O   0  0  0  0  0  0  0  0  0  0  0  0
   45.6160  -31.6160   21.5510 C   0  0  2  0  0  0  0  0  0  0  0  0
   46.1720  -31.9420   22.7220 O   0  0  0  0  0  0  0  0  0  0  0  0
   46.5270  -31.8710   20.3530 C   0  0  2  0  0  0  0  0  0  0  0  0
   46.1520  -31.2290   19.2270 O   0  0  0  0  0  0  0  0  0  0  0  0
   46.8770  -33.3190   20.2100 C   0  0  0  0  0  0  0  0  0  0  0  0
   45.8690  -33.9940   19.7020 O   0  0  0  0  0  0  0  0  0  0  0  0
   42.9830  -27.9990   23.9790 N   0  0  0  0  0  0  0  0  0  0  0  0
   41.5780  -28.0450   23.9160 C   0  0  0  0  0  0  0  0  0  0  0  0
   41.0600  -28.1440   22.7530 N   0  0  0  0  0  0  0  0  0  0  0  0
   40.8340  -27.9770   24.9830 N   0  0  0  0  0  0  0  0  0  0  0  0
   48.4760  -28.6254   21.2578 H   0  0  0  0  0  0  0  0  0  0  0  0
   45.1392  -26.4653   23.4100 H   0  0  0  0  0  0  0  0  0  0  0  0
   43.2930  -27.9145   22.0023 H   0  0  0  0  0  0  0  0  0  0  0  0
   44.2561  -30.0612   23.4709 H   0  0  0  0  0  0  0  0  0  0  0  0
   42.4129  -30.5708   21.3289 H   0  0  0  0  0  0  0  0  0  0  0  0
   40.2328  -31.9946   23.7072 H   0  0  0  0  0  0  0  0  0  0  0  0
   40.3557  -30.9856   22.2261 H   0  0  0  0  0  0  0  0  0  0  0  0
   40.9987  -32.6628   22.2261 H   0  0  0  0  0  0  0  0  0  0  0  0
   44.5857  -29.9643   20.7322 H   0  0  0  0  0  0  0  0  0  0  0  0
   44.7470  -32.2665   21.3729 H   0  0  0  0  0  0  0  0  0  0  0  0
   45.6039  -31.6089   23.4612 H   0  0  0  0  0  0  0  0  0  0  0  0
   47.4888  -31.3837   20.5710 H   0  0  0  0  0  0  0  0  0  0  0  0
   45.6674  -30.3994   19.4659 H   0  0  0  0  0  0  0  0  0  0  0  0
   47.7478  -33.4158   19.5450 H   0  0  0  0  0  0  0  0  0  0  0  0
   47.1089  -33.7262   21.2052 H   0  0  0  0  0  0  0  0  0  0  0  0
   45.3165  -34.3640   20.4355 H   0  0  0  0  0  0  0  0  0  0  0  0
   40.0362  -28.1819   22.6468 H   0  0  0  0  0  0  0  0  0  0  0  0
   41.6660  -28.1860   21.9212 H   0  0  0  0  0  0  0  0  0  0  0  0
   39.8081  -28.0138   24.8987 H   0  0  0  0  0  0  0  0  0  0  0  0
   41.2716  -27.8864   25.9110 H   0  0  0  0  0  0  0  0  0  0  0  0
  1  2  1  0
  1  3  2  0
  1  4  1  0
  4  5  2  0
  5  6  1  0
  6  7  1  0
  7  8  1  0
  8  9  1  0
  9 10  2  0
  9 11  1  0
  7 12  1  0
  4 13  1  0
 12 13  1  0
 12 14  1  0
 14 15  1  0
 14 16  1  0
 16 17  1  0
 16 18  1  0
 18 19  1  0
  6 20  1  0
 20 21  2  3
 21 22  1  0
 21 23  1  0
  2 24  1  0
  5 25  1  0
  6 26  1  6
  7 27  1  1
  8 28  1  0
 11 29  1  0
 11 30  1  0
 11 31  1  0
 12 32  1  6
 14 33  1  6
 15 34  1  0
 16 35  1  1
 17 36  1  0
 18 37  1  0
 18 38  1  0
 19 39  1  0
 22 40  1  0
 22 41  1  0
 23 42  1  0
 23 43  1  0
M  END
$$$$
