PDB_DB01199_98
     RDKit          3D

 86 92  0  0  0  0  0  0  0  0999 V2000
   23.4980  118.0930    4.6190 N   0  0  0  0  0  0  0  0  0  0  0  0
   24.8140  117.7740    4.1740 C   0  0  0  0  0  0  0  0  0  0  0  0
   24.8890  116.4330    3.5290 C   0  0  0  0  0  0  0  0  0  0  0  0
   23.6630  116.0700    2.7660 C   0  0  0  0  0  0  0  0  0  0  0  0
   22.5370  116.9420    2.7040 C   0  0  0  0  0  0  0  0  0  0  0  0
   22.5180  118.2320    3.4760 C   0  0  2  0  0  0  0  0  0  0  0  0
   23.6360  114.8430    2.0680 C   0  0  0  0  0  0  0  0  0  0  0  0
   22.4910  114.4800    1.3170 C   0  0  0  0  0  0  0  0  0  0  0  0
   21.3670  115.3480    1.2710 C   0  0  0  0  0  0  0  0  0  0  0  0
   21.3860  116.5790    1.9690 C   0  0  0  0  0  0  0  0  0  0  0  0
   20.2410  114.9910    0.4900 O   0  0  0  0  0  0  0  0  0  0  0  0
   19.0380  115.6080    0.9330 C   0  0  0  0  0  0  0  0  0  0  0  0
   18.2280  114.8950    1.8330 C   0  0  0  0  0  0  0  0  0  0  0  0
   17.0400  115.4330    2.2620 C   0  0  0  0  0  0  0  0  0  0  0  0
   16.6390  116.6970    1.7850 C   0  0  0  0  0  0  0  0  0  0  0  0
   17.4280  117.4060    0.8800 C   0  0  0  0  0  0  0  0  0  0  0  0
   18.6360  116.8670    0.4530 C   0  0  0  0  0  0  0  0  0  0  0  0
   16.9330  118.8140    0.4100 C   0  0  0  0  0  0  0  0  0  0  0  0
   16.6610  118.9810   -1.1240 C   0  0  1  0  0  0  0  0  0  0  0  0
   15.3730  118.5370   -1.5970 N   0  0  0  0  0  0  0  0  0  0  0  0
   14.2430  119.3480   -1.2130 C   0  0  0  0  0  0  0  0  0  0  0  0
   14.3790  120.8420   -1.3660 C   0  0  0  0  0  0  0  0  0  0  0  0
   15.7680  121.3720   -1.4970 C   0  0  0  0  0  0  0  0  0  0  0  0
   16.8890  120.4970   -1.4320 C   0  0  0  0  0  0  0  0  0  0  0  0
   15.9680  122.7610   -1.7200 C   0  0  0  0  0  0  0  0  0  0  0  0
   17.2440  123.2760   -1.8730 C   0  0  0  0  0  0  0  0  0  0  0  0
   18.3780  122.3960   -1.8070 C   0  0  0  0  0  0  0  0  0  0  0  0
   18.1740  121.0070   -1.5670 C   0  0  0  0  0  0  0  0  0  0  0  0
   19.2540  120.1080   -1.6210 O   0  0  0  0  0  0  0  0  0  0  0  0
   20.0810  120.0340   -0.5050 C   0  0  0  0  0  0  0  0  0  0  0  0
   21.2890  119.3260   -0.6860 C   0  0  0  0  0  0  0  0  0  0  0  0
   22.1730  119.1870    0.3760 C   0  0  0  0  0  0  0  0  0  0  0  0
   21.8570  119.7390    1.5970 C   0  0  0  0  0  0  0  0  0  0  0  0
   20.6360  120.4560    1.7900 C   0  0  0  0  0  0  0  0  0  0  0  0
   19.7500  120.6010    0.7340 C   0  0  0  0  0  0  0  0  0  0  0  0
   22.8410  119.5420    2.7170 C   0  0  0  0  0  0  0  0  0  0  0  0
   22.4790  113.2500    0.6350 O   0  0  0  0  0  0  0  0  0  0  0  0
   22.5440  112.0580    1.3900 C   0  0  0  0  0  0  0  0  0  0  0  0
   18.6470  113.6600    2.2870 O   0  0  0  0  0  0  0  0  0  0  0  0
   17.4070  124.6410   -2.0730 O   0  0  0  0  0  0  0  0  0  0  0  0
   16.9910  125.2240   -3.2400 C   0  0  0  0  0  0  0  0  0  0  0  0
   19.6670  122.8880   -1.9580 O   0  0  0  0  0  0  0  0  0  0  0  0
   23.3680  117.3120    5.8310 C   0  0  0  0  0  0  0  0  0  0  0  0
   15.1270  117.1470   -1.1490 C   0  0  0  0  0  0  0  0  0  0  0  0
   15.4320  118.4910   -3.0810 C   0  0  0  0  0  0  0  0  0  0  0  0
   25.1341  118.5340    3.4460 H   0  0  0  0  0  0  0  0  0  0  0  0
   25.4704  117.7575    5.0566 H   0  0  0  0  0  0  0  0  0  0  0  0
   25.7440  116.4272    2.8369 H   0  0  0  0  0  0  0  0  0  0  0  0
   24.9987  115.6926    4.3351 H   0  0  0  0  0  0  0  0  0  0  0  0
   21.4670  118.3574    3.7756 H   0  0  0  0  0  0  0  0  0  0  0  0
   24.5043  114.1688    2.1074 H   0  0  0  0  0  0  0  0  0  0  0  0
   20.5127  117.2472    1.9396 H   0  0  0  0  0  0  0  0  0  0  0  0
   16.4062  114.8819    2.9723 H   0  0  0  0  0  0  0  0  0  0  0  0
   15.6895  117.1307    2.1318 H   0  0  0  0  0  0  0  0  0  0  0  0
   19.2717  117.4203   -0.2539 H   0  0  0  0  0  0  0  0  0  0  0  0
   15.9956  119.0338    0.9419 H   0  0  0  0  0  0  0  0  0  0  0  0
   17.7586  119.5046    0.6371 H   0  0  0  0  0  0  0  0  0  0  0  0
   17.3482  118.3162   -1.6679 H   0  0  0  0  0  0  0  0  0  0  0  0
   13.3855  119.0301   -1.8242 H   0  0  0  0  0  0  0  0  0  0  0  0
   14.1331  119.1842   -0.1308 H   0  0  0  0  0  0  0  0  0  0  0  0
   13.8214  121.1383   -2.2667 H   0  0  0  0  0  0  0  0  0  0  0  0
   13.9908  121.2682   -0.4291 H   0  0  0  0  0  0  0  0  0  0  0  0
   15.0997  123.4343   -1.7716 H   0  0  0  0  0  0  0  0  0  0  0  0
   21.5292  118.8859   -1.6651 H   0  0  0  0  0  0  0  0  0  0  0  0
   23.1181  118.6402    0.2427 H   0  0  0  0  0  0  0  0  0  0  0  0
   20.4003  120.8910    2.7725 H   0  0  0  0  0  0  0  0  0  0  0  0
   18.8059  121.1500    0.8653 H   0  0  0  0  0  0  0  0  0  0  0  0
   22.7774  120.3919    3.4124 H   0  0  0  0  0  0  0  0  0  0  0  0
   23.8570  119.4786    2.3002 H   0  0  0  0  0  0  0  0  0  0  0  0
   22.5307  112.3021    2.4625 H   0  0  0  0  0  0  0  0  0  0  0  0
   21.6792  111.4229    1.1477 H   0  0  0  0  0  0  0  0  0  0  0  0
   23.4728  111.5207    1.1477 H   0  0  0  0  0  0  0  0  0  0  0  0
   18.0844  113.1488    2.9213 H   0  0  0  0  0  0  0  0  0  0  0  0
   16.3662  126.0996   -3.0100 H   0  0  0  0  0  0  0  0  0  0  0  0
   17.8674  125.5420   -3.8237 H   0  0  0  0  0  0  0  0  0  0  0  0
   16.4052  124.4987   -3.8237 H   0  0  0  0  0  0  0  0  0  0  0  0
   20.4406  122.2721   -1.9106 H   0  0  0  0  0  0  0  0  0  0  0  0
   23.4776  117.9707    6.7052 H   0  0  0  0  0  0  0  0  0  0  0  0
   22.3778  116.8334    5.8544 H   0  0  0  0  0  0  0  0  0  0  0  0
   24.1497  116.5385    5.8544 H   0  0  0  0  0  0  0  0  0  0  0  0
   15.1208  117.1118   -0.0496 H   0  0  0  0  0  0  0  0  0  0  0  0
   14.1544  116.8049   -1.5323 H   0  0  0  0  0  0  0  0  0  0  0  0
   15.9232  116.4919   -1.5323 H   0  0  0  0  0  0  0  0  0  0  0  0
   16.2634  117.8428   -3.3950 H   0  0  0  0  0  0  0  0  0  0  0  0
   14.4859  118.0898   -3.4733 H   0  0  0  0  0  0  0  0  0  0  0  0
   15.5904  119.5064   -3.4733 H   0  0  0  0  0  0  0  0  0  0  0  0
  1  2  1  0
  2  3  1  0
  3  4  1  0
  4  5  2  0
  1  6  1  0
  5  6  1  0
  4  7  1  0
  7  8  2  0
  8  9  1  0
  5 10  1  0
  9 10  2  0
  9 11  1  0
 11 12  1  0
 12 13  2  0
 13 14  1  0
 14 15  2  0
 15 16  1  0
 12 17  1  0
 16 17  2  0
 16 18  1  0
 18 19  1  0
 19 20  1  0
 20 21  1  0
 21 22  1  0
 22 23  1  0
 19 24  1  0
 23 24  2  0
 23 25  1  0
 25 26  2  0
 26 27  1  0
 24 28  1  0
 27 28  2  0
 28 29  1  0
 29 30  1  0
 30 31  2  0
 31 32  1  0
 32 33  2  0
 33 34  1  0
 30 35  1  0
 34 35  2  0
  6 36  1  0
 33 36  1  0
  8 37  1  0
 37 38  1  0
 13 39  1  0
 26 40  1  0
 40 41  1  0
 27 42  1  0
  1 43  1  0
 20 44  1  0
 20 45  1  0
  2 46  1  0
  2 47  1  0
  3 48  1  0
  3 49  1  0
  6 50  1  1
  7 51  1  0
 10 52  1  0
 14 53  1  0
 15 54  1  0
 17 55  1  0
 18 56  1  0
 18 57  1  0
 19 58  1  6
 21 59  1  0
 21 60  1  0
 22 61  1  0
 22 62  1  0
 25 63  1  0
 31 64  1  0
 32 65  1  0
 34 66  1  0
 35 67  1  0
 36 68  1  0
 36 69  1  0
 38 70  1  0
 38 71  1  0
 38 72  1  0
 39 73  1  0
 41 74  1  0
 41 75  1  0
 41 76  1  0
 42 77  1  0
 43 78  1  0
 43 79  1  0
 43 80  1  0
 44 81  1  0
 44 82  1  0
 44 83  1  0
 45 84  1  0
 45 85  1  0
 45 86  1  0
M  CHG  1  20   1
M  END
$$$$
