PDB_DB00476_99
     RDKit          3D

 40 42  0  0  0  0  0  0  0  0999 V2000
  179.0310  -12.1730  183.0910 C   0  0  0  0  0  0  0  0  0  0  0  0
  177.9270  -11.2860  183.4050 N   0  0  0  0  0  0  0  0  0  0  0  0
  176.7320  -11.2960  182.5720 C   0  0  0  0  0  0  0  0  0  0  0  0
  176.6940  -12.5740  181.7420 C   0  0  0  0  0  0  0  0  0  0  0  0
  176.0650  -12.3230  180.3920 C   0  0  1  0  0  0  0  0  0  0  0  0
  175.7120  -13.6440  179.8340 C   0  0  0  0  0  0  0  0  0  0  0  0
  176.0280  -14.1370  178.2160 S   0  0  0  0  0  0  0  0  0  0  0  0
  175.3360  -15.7160  178.4410 C   0  0  0  0  0  0  0  0  0  0  0  0
  174.8920  -15.7860  179.7680 C   0  0  0  0  0  0  0  0  0  0  0  0
  175.0950  -14.6420  180.5620 C   0  0  0  0  0  0  0  0  0  0  0  0
  174.8880  -11.5790  180.6630 O   0  0  0  0  0  0  0  0  0  0  0  0
  174.2890  -10.8780  179.6630 C   0  0  0  0  0  0  0  0  0  0  0  0
  172.8070  -10.7990  179.5820 C   0  0  0  0  0  0  0  0  0  0  0  0
  171.9700  -11.4250  180.4950 C   0  0  0  0  0  0  0  0  0  0  0  0
  170.5930  -11.2900  180.3190 C   0  0  0  0  0  0  0  0  0  0  0  0
  170.0340  -10.5520  179.2710 C   0  0  0  0  0  0  0  0  0  0  0  0
  170.8390   -9.9140  178.3350 C   0  0  0  0  0  0  0  0  0  0  0  0
  172.2170  -10.0180  178.4650 C   0  0  0  0  0  0  0  0  0  0  0  0
  173.0670   -9.4020  177.5560 C   0  0  0  0  0  0  0  0  0  0  0  0
  174.4550   -9.5060  177.6780 C   0  0  0  0  0  0  0  0  0  0  0  0
  175.0630  -10.2270  178.7090 C   0  0  0  0  0  0  0  0  0  0  0  0
  179.4851  -12.5378  184.0241 H   0  0  0  0  0  0  0  0  0  0  0  0
  178.6600  -13.0271  182.5054 H   0  0  0  0  0  0  0  0  0  0  0  0
  179.7851  -11.6268  182.5054 H   0  0  0  0  0  0  0  0  0  0  0  0
  177.6248  -11.5133  184.3631 H   0  0  0  0  0  0  0  0  0  0  0  0
  175.8393  -11.2498  183.2130 H   0  0  0  0  0  0  0  0  0  0  0  0
  176.7498  -10.4257  181.8995 H   0  0  0  0  0  0  0  0  0  0  0  0
  177.7212  -12.9403  181.5980 H   0  0  0  0  0  0  0  0  0  0  0  0
  176.0902  -13.3219  182.2768 H   0  0  0  0  0  0  0  0  0  0  0  0
  176.7165  -11.7874  179.6858 H   0  0  0  0  0  0  0  0  0  0  0  0
  175.2609  -16.5105  177.6840 H   0  0  0  0  0  0  0  0  0  0  0  0
  174.4092  -16.6894  180.1689 H   0  0  0  0  0  0  0  0  0  0  0  0
  174.8021  -14.5547  181.6187 H   0  0  0  0  0  0  0  0  0  0  0  0
  172.3800  -12.0097  181.3317 H   0  0  0  0  0  0  0  0  0  0  0  0
  169.9190  -11.7844  181.0340 H   0  0  0  0  0  0  0  0  0  0  0  0
  168.9400  -10.4753  179.1862 H   0  0  0  0  0  0  0  0  0  0  0  0
  170.3940   -9.3393  177.5094 H   0  0  0  0  0  0  0  0  0  0  0  0
  172.6399   -8.8217  176.7249 H   0  0  0  0  0  0  0  0  0  0  0  0
  175.0918   -9.0023  176.9359 H   0  0  0  0  0  0  0  0  0  0  0  0
  176.1602  -10.2798  178.7662 H   0  0  0  0  0  0  0  0  0  0  0  0
  1  2  1  0
  2  3  1  0
  3  4  1  0
  4  5  1  0
  5  6  1  0
  6  7  1  0
  7  8  1  0
  8  9  2  0
  6 10  2  0
  9 10  1  0
  5 11  1  0
 11 12  1  0
 12 13  1  0
 13 14  2  0
 14 15  1  0
 15 16  2  0
 16 17  1  0
 13 18  1  0
 17 18  2  0
 18 19  1  0
 19 20  2  0
 12 21  2  0
 20 21  1  0
  1 22  1  0
  1 23  1  0
  1 24  1  0
  2 25  1  0
  3 26  1  0
  3 27  1  0
  4 28  1  0
  4 29  1  0
  5 30  1  6
  8 31  1  0
  9 32  1  0
 10 33  1  0
 14 34  1  0
 15 35  1  0
 16 36  1  0
 17 37  1  0
 19 38  1  0
 20 39  1  0
 21 40  1  0
M  END
>  <PDBID>  (1) 
4MM6

>  <PDB ID>  (1) 
4MM6

>  <Generic Name>  (1) 
Duloxetine

>  <Brand Name>  (1) 
Act Duloxetine#Apo-duloxetine#Auro-duloxetine#Cymbalta#Dom-duloxetine#Duloxetine#Duloxetine Delayed-release#Duloxetine Dr#Duloxetine Hydrochloride#Duloxetine Hydrochloride 20 mg#Duloxetine Hydrochloride 30 mg#Duloxetine Hydrochloride 60 mg#Ipg-duloxetine#Irenka#Jamp-duloxetine#Mar-duloxetine#Mint-duloxetine#Mylan-duloxetine#PMS-duloxetine#Ran-duloxetine#Riva-duloxetine#Sandoz Duloxetine#Taro-duloxetine#Teva-duloxetine Dr#Torrent-duloxetine#Ariclaim#Dulane#Duzela#Xeristar#Yentreve

>  <DrugBank ID>  (1) 
DB00476

>  <ATC Codes>  (1) 
N06AX21

>  <Ligand ID>  (1) 
29E

>  <Target Name>  (1) 
Sodium-dependent noradrenaline transporter

>  <UniProt ID>  (1) 
P23975

>  <PDB ID.1>  (1) 
4MM6

>  <Seq. Identity>  (1) 
30%

$$$$
