PDB_DB00674_99
     RDKit          3D

100106  0  0  0  0  0  0  0  0999 V2000
   -9.6990  -43.4080   32.4090 C   0  0  0  0  0  0  0  0  0  0  0  0
   -8.5070  -43.1600   32.9410 C   0  0  0  0  0  0  0  0  0  0  0  0
   -7.2150  -43.7890   32.4760 C   0  0  1  0  0  0  0  0  0  0  0  0
   -7.5140  -45.1090   31.7730 C   0  0  0  0  0  0  0  0  0  0  0  0
   -8.6190  -44.9810   30.7300 C   0  0  1  0  0  0  0  0  0  0  0  0
   -9.9290  -44.3330   31.2230 C   0  0  1  0  0  0  0  0  0  0  0  0
   -8.1850  -44.2210   29.5900 O   0  0  0  0  0  0  0  0  0  0  0  0
   -9.3180  -42.6300   27.9300 C   0  0  0  0  0  0  0  0  0  0  0  0
  -10.5070  -41.9130   27.7330 C   0  0  0  0  0  0  0  0  0  0  0  0
  -11.5720  -41.9400   28.6500 C   0  0  0  0  0  0  0  0  0  0  0  0
  -12.6840  -42.7100   30.8080 C   0  0  0  0  0  0  0  0  0  0  0  0
  -13.1180  -44.1010   31.0540 N   0  0  0  0  0  0  0  0  0  0  0  0
  -12.2660  -44.7480   32.0580 C   0  0  0  0  0  0  0  0  0  0  0  0
  -11.0180  -45.3810   31.4570 C   0  0  0  0  0  0  0  0  0  0  0  0
   -9.2000  -43.4300   29.1520 C   0  0  0  0  0  0  0  0  0  0  0  0
  -10.2990  -43.4630   30.0830 C   0  0  0  0  0  0  0  0  0  0  0  0
  -11.5260  -42.6830   29.8340 C   0  0  0  0  0  0  0  0  0  0  0  0
   -8.3430  -41.6700   25.9660 C   0  0  0  0  0  0  0  0  0  0  0  0
   -8.2840  -42.6030   27.0370 O   0  0  0  0  0  0  0  0  0  0  0  0
   -6.4910  -42.8850   31.6190 O   0  0  0  0  0  0  0  0  0  0  0  0
  -14.4930  -44.0840   31.5840 C   0  0  0  0  0  0  0  0  0  0  0  0
    8.9620  -62.0110  -25.7940 C   0  0  0  0  0  0  0  0  0  0  0  0
    8.0120  -62.9390  -25.9730 C   0  0  0  0  0  0  0  0  0  0  0  0
    7.3170  -63.6560  -24.8280 C   0  0  1  0  0  0  0  0  0  0  0  0
    8.2200  -63.6640  -23.6010 C   0  0  0  0  0  0  0  0  0  0  0  0
    8.7050  -62.2540  -23.2810 C   0  0  1  0  0  0  0  0  0  0  0  0
    9.4370  -61.5180  -24.4380 C   0  0  1  0  0  0  0  0  0  0  0  0
    7.5900  -61.4310  -22.8880 O   0  0  0  0  0  0  0  0  0  0  0  0
    7.0800  -58.9210  -22.9980 C   0  0  0  0  0  0  0  0  0  0  0  0
    7.5120  -57.7420  -23.6030 C   0  0  0  0  0  0  0  0  0  0  0  0
    8.5890  -57.7110  -24.5080 C   0  0  0  0  0  0  0  0  0  0  0  0
   10.4580  -58.7700  -25.8500 C   0  0  0  0  0  0  0  0  0  0  0  0
   11.6750  -59.3480  -25.2530 N   0  0  0  0  0  0  0  0  0  0  0  0
   11.6890  -60.8130  -25.4240 C   0  0  0  0  0  0  0  0  0  0  0  0
   10.9670  -61.5560  -24.3040 C   0  0  0  0  0  0  0  0  0  0  0  0
    7.7900  -60.1650  -23.3380 C   0  0  0  0  0  0  0  0  0  0  0  0
    8.9020  -60.1360  -24.2650 C   0  0  0  0  0  0  0  0  0  0  0  0
    9.3040  -58.8530  -24.8800 C   0  0  0  0  0  0  0  0  0  0  0  0
    5.2000  -57.8170  -21.9560 C   0  0  0  0  0  0  0  0  0  0  0  0
    6.0340  -58.9540  -22.1190 O   0  0  0  0  0  0  0  0  0  0  0  0
    6.0600  -63.0460  -24.4980 O   0  0  0  0  0  0  0  0  0  0  0  0
   12.8270  -58.7700  -25.9640 C   0  0  0  0  0  0  0  0  0  0  0  0
  -10.3110  -43.8155   33.2272 H   0  0  0  0  0  0  0  0  0  0  0  0
   -9.9328  -42.4317   31.9593 H   0  0  0  0  0  0  0  0  0  0  0  0
   -8.3595  -42.0744   32.8429 H   0  0  0  0  0  0  0  0  0  0  0  0
   -8.6213  -43.6345   33.9268 H   0  0  0  0  0  0  0  0  0  0  0  0
   -6.5758  -43.9967   33.3468 H   0  0  0  0  0  0  0  0  0  0  0  0
   -6.5977  -45.4580   31.2744 H   0  0  0  0  0  0  0  0  0  0  0  0
   -7.8576  -45.8226   32.5364 H   0  0  0  0  0  0  0  0  0  0  0  0
   -8.8339  -46.0292   30.4750 H   0  0  0  0  0  0  0  0  0  0  0  0
   -8.8836  -41.7658   28.4538 H   0  0  0  0  0  0  0  0  0  0  0  0
  -10.2135  -40.8571   27.6386 H   0  0  0  0  0  0  0  0  0  0  0  0
  -10.9429  -42.4373   26.8698 H   0  0  0  0  0  0  0  0  0  0  0  0
  -11.7422  -40.8958   28.9511 H   0  0  0  0  0  0  0  0  0  0  0  0
  -12.3470  -42.4729   28.0796 H   0  0  0  0  0  0  0  0  0  0  0  0
  -13.5240  -42.1371   30.3883 H   0  0  0  0  0  0  0  0  0  0  0  0
  -12.3601  -42.2637   31.7598 H   0  0  0  0  0  0  0  0  0  0  0  0
  -11.9562  -43.9924   32.7949 H   0  0  0  0  0  0  0  0  0  0  0  0
  -12.8547  -45.5538   32.5207 H   0  0  0  0  0  0  0  0  0  0  0  0
  -11.2792  -45.8488   30.4963 H   0  0  0  0  0  0  0  0  0  0  0  0
  -10.6337  -46.1339   32.1610 H   0  0  0  0  0  0  0  0  0  0  0  0
   -8.7539  -42.5695   29.6722 H   0  0  0  0  0  0  0  0  0  0  0  0
   -9.8787  -42.5937   30.6100 H   0  0  0  0  0  0  0  0  0  0  0  0
  -11.1023  -41.8158   30.3617 H   0  0  0  0  0  0  0  0  0  0  0  0
   -8.4075  -40.6496   26.3718 H   0  0  0  0  0  0  0  0  0  0  0  0
   -7.4372  -41.7626   25.3488 H   0  0  0  0  0  0  0  0  0  0  0  0
   -9.2299  -41.8759   25.3488 H   0  0  0  0  0  0  0  0  0  0  0  0
   -5.9781  -42.2446   32.1730 H   0  0  0  0  0  0  0  0  0  0  0  0
  -14.4622  -44.0844   32.6836 H   0  0  0  0  0  0  0  0  0  0  0  0
  -15.0105  -43.1794   31.2320 H   0  0  0  0  0  0  0  0  0  0  0  0
  -15.0327  -44.9755   31.2320 H   0  0  0  0  0  0  0  0  0  0  0  0
    9.8581  -62.4040  -26.2965 H   0  0  0  0  0  0  0  0  0  0  0  0
    8.4450  -61.1148  -26.1675 H   0  0  0  0  0  0  0  0  0  0  0  0
    7.2143  -62.4462  -26.5481 H   0  0  0  0  0  0  0  0  0  0  0  0
    8.5931  -63.7591  -26.4200 H   0  0  0  0  0  0  0  0  0  0  0  0
    7.1151  -64.6871  -25.1537 H   0  0  0  0  0  0  0  0  0  0  0  0
    7.6576  -64.0565  -22.7410 H   0  0  0  0  0  0  0  0  0  0  0  0
    9.0930  -64.3004  -23.8079 H   0  0  0  0  0  0  0  0  0  0  0  0
    9.4399  -62.3963  -22.4749 H   0  0  0  0  0  0  0  0  0  0  0  0
    6.3815  -59.0922  -23.8303 H   0  0  0  0  0  0  0  0  0  0  0  0
    6.6438  -57.3407  -24.1463 H   0  0  0  0  0  0  0  0  0  0  0  0
    7.9184  -57.1832  -22.7471 H   0  0  0  0  0  0  0  0  0  0  0  0
    8.1889  -57.2868  -25.4407 H   0  0  0  0  0  0  0  0  0  0  0  0
    9.3444  -57.1564  -23.9320 H   0  0  0  0  0  0  0  0  0  0  0  0
   10.6440  -57.7156  -26.1024 H   0  0  0  0  0  0  0  0  0  0  0  0
   10.2023  -59.3370  -26.7573 H   0  0  0  0  0  0  0  0  0  0  0  0
   11.1998  -61.0582  -26.3782 H   0  0  0  0  0  0  0  0  0  0  0  0
   12.7409  -61.1343  -25.4042 H   0  0  0  0  0  0  0  0  0  0  0  0
   11.2450  -61.0963  -23.3441 H   0  0  0  0  0  0  0  0  0  0  0  0
   11.2733  -62.6109  -24.3622 H   0  0  0  0  0  0  0  0  0  0  0  0
    7.0811  -60.3450  -24.1596 H   0  0  0  0  0  0  0  0  0  0  0  0
    8.2080  -60.2998  -25.1026 H   0  0  0  0  0  0  0  0  0  0  0  0
    8.6106  -59.0139  -25.7187 H   0  0  0  0  0  0  0  0  0  0  0  0
    5.0550  -57.6193  -20.8837 H   0  0  0  0  0  0  0  0  0  0  0  0
    5.6736  -56.9441  -22.4290 H   0  0  0  0  0  0  0  0  0  0  0  0
    4.2251  -58.0065  -22.4290 H   0  0  0  0  0  0  0  0  0  0  0  0
    5.9641  -62.9995  -23.5138 H   0  0  0  0  0  0  0  0  0  0  0  0
   13.5617  -58.4014  -25.2330 H   0  0  0  0  0  0  0  0  0  0  0  0
   13.2929  -59.5411  -26.5952 H   0  0  0  0  0  0  0  0  0  0  0  0
   12.4873  -57.9356  -26.5952 H   0  0  0  0  0  0  0  0  0  0  0  0
  1  2  1  0
  2  3  1  0
  3  4  1  0
  4  5  1  0
  6  1  1  1
  5  6  1  0
  5  7  1  0
  8  9  1  0
  9 10  1  0
 11 12  1  0
 12 13  1  0
  6 14  1  0
 13 14  1  0
  7 15  1  0
  8 15  1  0
  6 16  1  0
 15 16  1  0
 10 17  1  0
 11 17  1  0
 16 17  1  0
  8 19  1  0
 18 19  1  0
  3 20  1  0
 12 21  1  0
 22 23  1  0
 23 24  1  0
 24 25  1  0
 25 26  1  0
 27 22  1  6
 26 27  1  0
 26 28  1  0
 29 30  1  0
 30 31  1  0
 32 33  1  0
 33 34  1  0
 27 35  1  0
 34 35  1  0
 28 36  1  0
 29 36  1  0
 27 37  1  0
 36 37  1  0
 31 38  1  0
 32 38  1  0
 37 38  1  0
 29 40  1  0
 39 40  1  0
 24 41  1  0
 33 42  1  0
  1 43  1  0
  1 44  1  0
  2 45  1  0
  2 46  1  0
  3 47  1  1
  4 48  1  0
  4 49  1  0
  5 50  1  6
  8 51  1  0
  9 52  1  0
  9 53  1  0
 10 54  1  0
 10 55  1  0
 11 56  1  0
 11 57  1  0
 13 58  1  0
 13 59  1  0
 14 60  1  0
 14 61  1  0
 15 62  1  0
 16 63  1  0
 17 64  1  0
 18 65  1  0
 18 66  1  0
 18 67  1  0
 20 68  1  0
 21 69  1  0
 21 70  1  0
 21 71  1  0
 22 72  1  0
 22 73  1  0
 23 74  1  0
 23 75  1  0
 24 76  1  6
 25 77  1  0
 25 78  1  0
 26 79  1  1
 29 80  1  0
 30 81  1  0
 30 82  1  0
 31 83  1  0
 31 84  1  0
 32 85  1  0
 32 86  1  0
 34 87  1  0
 34 88  1  0
 35 89  1  0
 35 90  1  0
 36 91  1  0
 37 92  1  0
 38 93  1  0
 39 94  1  0
 39 95  1  0
 39 96  1  0
 41 97  1  0
 42 98  1  0
 42 99  1  0
 42100  1  0
M  END
>  <PDBID>  (1) 
4EY6

>  <PDB ID>  (1) 
4EY6

>  <Generic Name>  (1) 
Galantamine

>  <Brand Name>  (1) 
Apo-galantamine#Auro-galantamine ER#Galantamine#Galantamine ER#Galantamine Hydrobromide#Ipg-galantamine ER#Mar-galantamine ER#Mylan-galantamine ER#PMS-galantamine#PMS-galantamine ER#Pat-galantamine ER#Pendo-galantamine ER#Ratio-galantamine#Razadyne#Reminyl   -(12mg)#Reminyl   -(4mg)#Reminyl   -(8mg)#Reminyl ER#Sandoz Galantamine ER#Teva-galantamine ER#Lycoremine#Nivalin#Reminyl

>  <DrugBank ID>  (1) 
DB00674

>  <ATC Codes>  (1) 
N06DA04

>  <Ligand ID>  (1) 
GNT

>  <Target Name>  (1) 
Acetylcholinesterase

>  <UniProt ID>  (1) 
P22303

>  <PDB ID.1>  (1) 
4EY6

>  <Seq. Identity>  (1) 
97%

$$$$
