PDB_DB00932_98
     RDKit          3D

 75 78  0  0  0  0  0  0  0  0999 V2000
  -16.0880   22.0460   17.0640 O   0  0  0  0  0  0  0  0  0  0  0  0
  -17.3050   21.3080   17.2500 C   0  0  0  0  0  0  0  0  0  0  0  0
  -17.2570   19.9700   17.8440 C   0  0  0  0  0  0  0  0  0  0  0  0
  -16.0410   19.4140   18.0920 C   0  0  0  0  0  0  0  0  0  0  0  0
  -14.7450   20.1290   17.7510 C   0  0  0  0  0  0  0  0  0  0  0  0
  -14.8580   21.6540   17.6830 C   0  0  2  0  0  0  0  0  0  0  0  0
  -18.3210   21.8640   16.8750 O   0  0  0  0  0  0  0  0  0  0  0  0
  -15.9190   18.1980   18.6100 O   0  0  0  0  0  0  0  0  0  0  0  0
  -14.7790   22.2010   19.1190 C   0  0  0  0  0  0  0  0  0  0  0  0
  -14.9540   23.7160   19.2320 C   0  0  0  0  0  0  0  0  0  0  0  0
  -14.8230   24.1530   20.6710 C   0  0  0  0  0  0  0  0  0  0  0  0
  -13.7470   22.2220   16.7960 C   0  0  0  0  0  0  0  0  0  0  0  0
  -13.8150   21.7920   15.3290 C   0  0  0  0  0  0  0  0  0  0  0  0
  -12.7100   22.4940   14.5620 C   0  0  0  0  0  0  0  0  0  0  0  0
  -11.4090   21.9960   14.6290 C   0  0  0  0  0  0  0  0  0  0  0  0
  -10.3780   22.6300   13.9420 C   0  0  0  0  0  0  0  0  0  0  0  0
  -10.6470   23.7590   13.1720 C   0  0  0  0  0  0  0  0  0  0  0  0
  -11.9520   24.2610   13.0980 C   0  0  0  0  0  0  0  0  0  0  0  0
  -12.9830   23.6270   13.7910 C   0  0  0  0  0  0  0  0  0  0  0  0
  -18.5930   19.2740   18.0760 C   0  0  2  0  0  0  0  0  0  0  0  0
  -18.6860   18.4680   19.3850 C   0  0  0  0  0  0  0  0  0  0  0  0
  -18.5710   19.3060   20.6440 C   0  0  0  0  0  0  0  0  0  0  0  0
  -18.9780   18.4390   16.8780 C   0  0  0  0  0  0  0  0  0  0  0  0
  -18.0340   18.0090   15.9410 C   0  0  0  0  0  0  0  0  0  0  0  0
  -18.4250   17.2430   14.8460 C   0  0  0  0  0  0  0  0  0  0  0  0
  -19.7590   16.8950   14.6730 C   0  0  0  0  0  0  0  0  0  0  0  0
  -20.7190   17.3000   15.5930 C   0  0  0  0  0  0  0  0  0  0  0  0
  -22.0280   16.9480   15.4050 N   0  0  0  0  0  0  0  0  0  0  0  0
  -20.3210   18.0740   16.6870 C   0  0  0  0  0  0  0  0  0  0  0  0
  -22.6400   15.5980   16.0560 S   0  0  0  0  0  0  0  0  0  0  0  0
  -21.7500   14.5110   15.6780 O   0  0  0  0  0  0  0  0  0  0  0  0
  -24.0140   15.4550   15.6110 O   0  0  0  0  0  0  0  0  0  0  0  0
  -22.5560   15.8920   17.6470 C   0  0  0  0  0  0  0  0  0  0  0  0
  -21.5050   15.4150   18.3750 N   0  0  0  0  0  0  0  0  0  0  0  0
  -21.3790   15.6760   19.6930 C   0  0  0  0  0  0  0  0  0  0  0  0
  -22.3150   16.4520   20.3730 C   0  0  0  0  0  0  0  0  0  0  0  0
  -23.3950   16.9690   19.6480 C   0  0  0  0  0  0  0  0  0  0  0  0
  -23.5280   16.6890   18.2820 C   0  0  0  0  0  0  0  0  0  0  0  0
  -22.1310   16.7670   21.8380 C   0  0  0  0  0  0  0  0  0  0  0  0
  -21.4310   15.8570   22.4940 F   0  0  0  0  0  0  0  0  0  0  0  0
  -23.2750   16.9800   22.4520 F   0  0  0  0  0  0  0  0  0  0  0  0
  -21.4210   17.8850   21.8740 F   0  0  0  0  0  0  0  0  0  0  0  0
  -14.0000   19.8740   18.5191 H   0  0  0  0  0  0  0  0  0  0  0  0
  -14.4586   19.7922   16.7438 H   0  0  0  0  0  0  0  0  0  0  0  0
  -15.0198   17.8200   18.7793 H   0  0  0  0  0  0  0  0  0  0  0  0
  -15.5685   21.7188   19.7141 H   0  0  0  0  0  0  0  0  0  0  0  0
  -13.7661   21.9754   19.4840 H   0  0  0  0  0  0  0  0  0  0  0  0
  -14.1819   24.2164   18.6291 H   0  0  0  0  0  0  0  0  0  0  0  0
  -15.9544   23.9888   18.8650 H   0  0  0  0  0  0  0  0  0  0  0  0
  -15.0751   23.3122   21.3339 H   0  0  0  0  0  0  0  0  0  0  0  0
  -13.7889   24.4747   20.8638 H   0  0  0  0  0  0  0  0  0  0  0  0
  -15.5096   24.9905   20.8638 H   0  0  0  0  0  0  0  0  0  0  0  0
  -13.8061   23.3197   16.8340 H   0  0  0  0  0  0  0  0  0  0  0  0
  -12.8007   21.8247   17.1919 H   0  0  0  0  0  0  0  0  0  0  0  0
  -13.6809   20.7026   15.2565 H   0  0  0  0  0  0  0  0  0  0  0  0
  -14.7936   22.0618   14.9054 H   0  0  0  0  0  0  0  0  0  0  0  0
  -11.1968   21.0979   15.2276 H   0  0  0  0  0  0  0  0  0  0  0  0
   -9.3516   22.2398   14.0071 H   0  0  0  0  0  0  0  0  0  0  0  0
   -9.8344   24.2562   12.6221 H   0  0  0  0  0  0  0  0  0  0  0  0
  -12.1640   25.1552   12.4934 H   0  0  0  0  0  0  0  0  0  0  0  0
  -14.0093   24.0182   13.7308 H   0  0  0  0  0  0  0  0  0  0  0  0
  -19.3267   20.0840   18.2009 H   0  0  0  0  0  0  0  0  0  0  0  0
  -19.6568   17.9510   19.4029 H   0  0  0  0  0  0  0  0  0  0  0  0
  -17.8320   17.7747   19.3892 H   0  0  0  0  0  0  0  0  0  0  0  0
  -18.6602   18.6557   21.5267 H   0  0  0  0  0  0  0  0  0  0  0  0
  -17.5949   19.8129   20.6592 H   0  0  0  0  0  0  0  0  0  0  0  0
  -19.3745   20.0571   20.6592 H   0  0  0  0  0  0  0  0  0  0  0  0
  -16.9751   18.2776   16.0696 H   0  0  0  0  0  0  0  0  0  0  0  0
  -17.6738   16.9116   14.1140 H   0  0  0  0  0  0  0  0  0  0  0  0
  -20.0577   16.2943   13.8012 H   0  0  0  0  0  0  0  0  0  0  0  0
  -22.6367   17.5548   14.8373 H   0  0  0  0  0  0  0  0  0  0  0  0
  -21.0766   18.4047   17.4148 H   0  0  0  0  0  0  0  0  0  0  0  0
  -20.5183   15.2670   20.2425 H   0  0  0  0  0  0  0  0  0  0  0  0
  -24.1427   17.5980   20.1533 H   0  0  0  0  0  0  0  0  0  0  0  0
  -24.3809   17.0866   17.7124 H   0  0  0  0  0  0  0  0  0  0  0  0
  1  2  1  0
  2  3  1  0
  3  4  2  0
  4  5  1  0
  1  6  1  0
  5  6  1  0
  2  7  2  0
  4  8  1  0
  6  9  1  1
  9 10  1  0
 10 11  1  0
  6 12  1  0
 12 13  1  0
 13 14  1  0
 14 15  2  0
 15 16  1  0
 16 17  2  0
 17 18  1  0
 14 19  1  0
 18 19  2  0
  3 20  1  0
 20 21  1  0
 21 22  1  0
 20 23  1  0
 23 24  2  0
 24 25  1  0
 25 26  2  0
 26 27  1  0
 27 28  1  0
 23 29  1  0
 27 29  2  0
 28 30  1  0
 30 31  2  0
 30 32  2  0
 30 33  1  0
 33 34  2  0
 34 35  1  0
 35 36  2  0
 36 37  1  0
 33 38  1  0
 37 38  2  0
 36 39  1  0
 39 40  1  0
 39 41  1  0
 39 42  1  0
  5 43  1  0
  5 44  1  0
  8 45  1  0
  9 46  1  0
  9 47  1  0
 10 48  1  0
 10 49  1  0
 11 50  1  0
 11 51  1  0
 11 52  1  0
 12 53  1  0
 12 54  1  0
 13 55  1  0
 13 56  1  0
 15 57  1  0
 16 58  1  0
 17 59  1  0
 18 60  1  0
 19 61  1  0
 20 62  1  1
 21 63  1  0
 21 64  1  0
 22 65  1  0
 22 66  1  0
 22 67  1  0
 24 68  1  0
 25 69  1  0
 26 70  1  0
 28 71  1  0
 29 72  1  0
 35 73  1  0
 37 74  1  0
 38 75  1  0
M  END
>  <PDBID>  (1) 
2O4L

>  <PDB ID>  (1) 
2O4L

>  <Generic Name>  (1) 
Tipranavir

>  <Brand Name>  (1) 
Aptivus

>  <DrugBank ID>  (1) 
DB00932

>  <ATC Codes>  (1) 
J05AE09

>  <Ligand ID>  (1) 
TPV

>  <Target Name>  (1) 
Pol polyprotein

>  <UniProt ID>  (1) 
Q72874

>  <PDB ID.1>  (1) 
2O4L

>  <Seq. Identity>  (1) 
97%

$$$$
