PDB_DB01144_99
     RDKit          3D

 32 32  0  0  0  0  0  0  0  0999 V2000
   -3.8520    2.1690   11.9070 S   0  0  1  0  0  4  0  0  0  0  0  0
   -4.5040    2.9300   10.8880 O   0  0  0  0  0  0  0  0  0  0  0  0
   -3.8880    0.7430   11.8550 O   0  0  0  0  0  0  0  0  0  0  0  0
   -2.3410    2.6200   11.9690 N   0  0  0  0  0  0  0  0  0  0  0  0
   -5.9440    0.7900   16.7620 S   0  0  2  0  0  4  0  0  0  0  0  0
   -5.2420    1.1140   17.9710 O   0  0  0  0  0  0  0  0  0  0  0  0
   -7.3690    0.7690   16.7720 O   0  0  0  0  0  0  0  0  0  0  0  0
   -5.4090   -0.5950   16.2520 N   0  0  0  0  0  0  0  0  0  0  0  0
   -4.5900    2.6530   13.4350 C   0  0  0  0  0  0  0  0  0  0  0  0
   -4.9290    1.6710   14.3820 C   0  0  0  0  0  0  0  0  0  0  0  0
   -5.5260    2.0580   15.5950 C   0  0  0  0  0  0  0  0  0  0  0  0
   -5.7820    3.4210   15.8600 C   0  0  0  0  0  0  0  0  0  0  0  0
   -5.4310    4.3870   14.9070 C   0  0  0  0  0  0  0  0  0  0  0  0
   -4.8370    4.0240   13.6910 C   0  0  0  0  0  0  0  0  0  0  0  0
   -6.5140    3.9040   17.3140 Cl  0  0  0  0  0  0  0  0  0  0  0  0
   -5.7340    6.0460   15.2320 Cl  0  0  0  0  0  0  0  0  0  0  0  0
   -5.0875    3.6111   11.3072 H   0  0  0  0  0  0  0  0  0  0  0  0
   -3.8972    0.3793   12.7757 H   0  0  0  0  0  0  0  0  0  0  0  0
   -2.0488    2.7072   12.9528 H   0  0  0  0  0  0  0  0  0  0  0  0
   -1.7535    1.9177   11.4973 H   0  0  0  0  0  0  0  0  0  0  0  0
   -5.7945    0.8590   18.7519 H   0  0  0  0  0  0  0  0  0  0  0  0
   -7.6924    0.7642   17.7077 H   0  0  0  0  0  0  0  0  0  0  0  0
   -5.1783   -1.1922   17.0589 H   0  0  0  0  0  0  0  0  0  0  0  0
   -6.1333   -1.0538   15.6813 H   0  0  0  0  0  0  0  0  0  0  0  0
   -5.5882    2.5608   12.9821 H   0  0  0  0  0  0  0  0  0  0  0  0
   -5.6260    0.9775   13.8888 H   0  0  0  0  0  0  0  0  0  0  0  0
   -3.9557    1.2620   14.6910 H   0  0  0  0  0  0  0  0  0  0  0  0
   -4.5310    2.1528   16.0544 H   0  0  0  0  0  0  0  0  0  0  0  0
   -4.7891    3.5174   16.3234 H   0  0  0  0  0  0  0  0  0  0  0  0
   -4.4355    4.4782   15.3661 H   0  0  0  0  0  0  0  0  0  0  0  0
   -3.8685    4.5427   13.6367 H   0  0  0  0  0  0  0  0  0  0  0  0
   -5.5849    4.3054   12.9350 H   0  0  0  0  0  0  0  0  0  0  0  0
  1  2  1  6
  1  3  1  0
  1  4  1  0
  5  6  1  1
  5  7  1  0
  5  8  1  0
  1  9  1  0
  9 10  1  0
  5 11  1  0
 10 11  1  0
 11 12  1  0
 12 13  1  0
  9 14  1  0
 13 14  1  0
 12 15  1  0
 13 16  1  0
  2 17  1  0
  3 18  1  0
  4 19  1  0
  4 20  1  0
  6 21  1  0
  7 22  1  0
  8 23  1  0
  8 24  1  0
  9 25  1  0
 10 26  1  0
 10 27  1  0
 11 28  1  0
 12 29  1  0
 13 30  1  0
 14 31  1  0
 14 32  1  0
M  END
>  <PDBID>  (1) 
2POU

>  <PDB ID>  (1) 
2POU

>  <Generic Name>  (1) 
Diclofenamide

>  <Brand Name>  (1) 
Daranide#Keveyis#Oratrol

>  <DrugBank ID>  (1) 
DB01144

>  <ATC Codes>  (1) 
S01EC02

>  <Ligand ID>  (1) 
I7A

>  <Target Name>  (1) 
Carbonic anhydrase 1

>  <UniProt ID>  (1) 
P00915

>  <PDB ID.1>  (1) 
2POU

>  <Seq. Identity>  (1) 
61%

$$$$
