PDB_DB01137_99
     RDKit          3D

116122  0  0  0  0  0  0  0  0999 V2000
  107.4180    7.7370   37.3120 C   0  0  0  0  0  0  0  0  0  0  0  0
  107.6090   12.9400   42.6550 F   0  0  0  0  0  0  0  0  0  0  0  0
  109.2570   11.6630   47.1610 N   0  0  0  0  0  0  0  0  0  0  0  0
  106.9010    8.4490   36.3850 O   0  0  0  0  0  0  0  0  0  0  0  0
  107.7560   11.9020   45.2410 C   0  0  0  0  0  0  0  0  0  0  0  0
  108.7270   11.1440   44.4520 N   0  0  0  0  0  0  0  0  0  0  0  0
  109.1640    8.5860   43.5040 O   0  0  0  0  0  0  0  0  0  0  0  0
  110.1110   11.0580   44.9260 C   0  0  0  0  0  0  0  0  0  0  0  0
  108.5460    7.8420   40.8710 N   0  0  0  0  0  0  0  0  0  0  0  0
  106.8740   10.5800   38.2700 O   0  0  0  0  0  0  0  0  0  0  0  0
  109.1550    6.8510   41.7920 C   0  0  2  0  0  0  0  0  0  0  0  0
  107.7390    6.5330   37.1570 O   0  0  0  0  0  0  0  0  0  0  0  0
  108.4080   10.7750   43.1310 C   0  0  0  0  0  0  0  0  0  0  0  0
  108.3040    9.1360   41.3120 C   0  0  0  0  0  0  0  0  0  0  0  0
  108.6330    9.4900   42.6380 C   0  0  0  0  0  0  0  0  0  0  0  0
  107.8850   11.5390   46.7000 C   0  0  0  0  0  0  0  0  0  0  0  0
  110.1000   10.7410   46.4140 C   0  0  0  0  0  0  0  0  0  0  0  0
  109.9430    7.5720   42.8540 C   0  0  0  0  0  0  0  0  0  0  0  0
  107.7380   10.0680   40.4330 C   0  0  0  0  0  0  0  0  0  0  0  0
  107.8370   11.6730   42.2070 C   0  0  0  0  0  0  0  0  0  0  0  0
  108.2340    7.5100   39.6070 C   0  0  0  0  0  0  0  0  0  0  0  0
  107.5020   11.3710   40.9140 C   0  0  0  0  0  0  0  0  0  0  0  0
  110.1390    5.9370   41.0790 C   0  0  0  0  0  0  0  0  0  0  0  0
  107.3900    9.7090   39.0350 C   0  0  0  0  0  0  0  0  0  0  0  0
  109.3130   11.3390   48.5760 C   0  0  0  0  0  0  0  0  0  0  0  0
  107.6760    8.3460   38.6650 C   0  0  0  0  0  0  0  0  0  0  0  0
  107.9210   12.8700   45.1240 H   0  0  0  0  0  0  0  0  0  0  0  0
  106.8390   11.7050   44.9250 H   0  0  0  0  0  0  0  0  0  0  0  0
  110.5990   10.3540   44.4310 H   0  0  0  0  0  0  0  0  0  0  0  0
  110.5710   11.9210   44.7710 H   0  0  0  0  0  0  0  0  0  0  0  0
  108.4310    6.3150   42.2260 H   0  0  0  0  0  0  0  0  0  0  0  0
  107.5790   10.6070   46.8330 H   0  0  0  0  0  0  0  0  0  0  0  0
  107.3000   12.1290   47.2380 H   0  0  0  0  0  0  0  0  0  0  0  0
  109.7660    9.8190   46.5460 H   0  0  0  0  0  0  0  0  0  0  0  0
  111.0260   10.7820   46.7640 H   0  0  0  0  0  0  0  0  0  0  0  0
  110.7300    8.0020   42.4340 H   0  0  0  0  0  0  0  0  0  0  0  0
  110.2760    6.9210   43.5210 H   0  0  0  0  0  0  0  0  0  0  0  0
  108.4130    6.6170   39.3380 H   0  0  0  0  0  0  0  0  0  0  0  0
  107.1230   12.0320   40.3480 H   0  0  0  0  0  0  0  0  0  0  0  0
  110.8500    6.4750   40.6730 H   0  0  0  0  0  0  0  0  0  0  0  0
  110.5310    5.3110   41.7240 H   0  0  0  0  0  0  0  0  0  0  0  0
  109.6700    5.4350   40.3800 H   0  0  0  0  0  0  0  0  0  0  0  0
  108.9960   10.4220   48.7160 H   0  0  0  0  0  0  0  0  0  0  0  0
  108.7430   11.9610   49.0770 H   0  0  0  0  0  0  0  0  0  0  0  0
  110.2380   11.4170   48.8930 H   0  0  0  0  0  0  0  0  0  0  0  0
   92.5260    5.1640   39.8260 C   0  0  0  0  0  0  0  0  0  0  0  0
   92.2450    9.3830   45.9740 F   0  0  0  0  0  0  0  0  0  0  0  0
   90.6290   14.0340   45.6360 N   0  0  0  0  0  0  0  0  0  0  0  0
   92.2450    5.2620   38.6070 O   0  0  0  0  0  0  0  0  0  0  0  0
   92.1130   12.0980   45.5010 C   0  0  0  0  0  0  0  0  0  0  0  0
   91.1790   11.5080   44.5430 N   0  0  0  0  0  0  0  0  0  0  0  0
   90.7990   11.0860   41.8420 O   0  0  0  0  0  0  0  0  0  0  0  0
   89.8020   12.0080   44.4950 C   0  0  0  0  0  0  0  0  0  0  0  0
   91.4200    8.6430   40.6120 N   0  0  0  0  0  0  0  0  0  0  0  0
   92.9980    5.5220   42.8130 O   0  0  0  0  0  0  0  0  0  0  0  0
   90.8350    9.7480   39.8130 C   0  0  2  0  0  0  0  0  0  0  0  0
   93.0330    4.1100   40.3420 O   0  0  0  0  0  0  0  0  0  0  0  0
   91.5010   10.2810   43.9300 C   0  0  0  0  0  0  0  0  0  0  0  0
   91.6330    8.8170   41.9720 C   0  0  0  0  0  0  0  0  0  0  0  0
   91.3050   10.0530   42.5700 C   0  0  0  0  0  0  0  0  0  0  0  0
   92.0050   13.6020   45.4690 C   0  0  0  0  0  0  0  0  0  0  0  0
   89.8330   13.5280   44.5280 C   0  0  0  0  0  0  0  0  0  0  0  0
   90.0350   10.6550   40.7090 C   0  0  0  0  0  0  0  0  0  0  0  0
   92.1700    7.7630   42.7250 C   0  0  0  0  0  0  0  0  0  0  0  0
   92.0420    9.1920   44.6410 C   0  0  0  0  0  0  0  0  0  0  0  0
   91.7310    7.4660   40.0440 C   0  0  0  0  0  0  0  0  0  0  0  0
   92.3770    7.9790   44.1030 C   0  0  0  0  0  0  0  0  0  0  0  0
   89.8660    9.2360   38.7600 C   0  0  0  0  0  0  0  0  0  0  0  0
   92.5170    6.4590   42.1040 C   0  0  0  0  0  0  0  0  0  0  0  0
   90.5910   15.4870   45.6410 C   0  0  0  0  0  0  0  0  0  0  0  0
   92.2610    6.3710   40.6890 C   0  0  0  0  0  0  0  0  0  0  0  0
   91.9010   11.7710   46.4100 H   0  0  0  0  0  0  0  0  0  0  0  0
   93.0380   11.8230   45.2810 H   0  0  0  0  0  0  0  0  0  0  0  0
   89.3510   11.6930   43.6720 H   0  0  0  0  0  0  0  0  0  0  0  0
   89.2970   11.6670   45.2750 H   0  0  0  0  0  0  0  0  0  0  0  0
   91.5720   10.2720   39.3860 H   0  0  0  0  0  0  0  0  0  0  0  0
   92.3510   13.9370   44.6040 H   0  0  0  0  0  0  0  0  0  0  0  0
   92.5640   13.9870   46.1900 H   0  0  0  0  0  0  0  0  0  0  0  0
   90.2140   13.8630   43.6780 H   0  0  0  0  0  0  0  0  0  0  0  0
   88.9070   13.8720   44.6020 H   0  0  0  0  0  0  0  0  0  0  0  0
   89.2380   10.1660   41.0340 H   0  0  0  0  0  0  0  0  0  0  0  0
   89.7190   11.4390   40.1940 H   0  0  0  0  0  0  0  0  0  0  0  0
   91.5710    7.3810   39.1110 H   0  0  0  0  0  0  0  0  0  0  0  0
   92.7350    7.2920   44.6510 H   0  0  0  0  0  0  0  0  0  0  0  0
   89.1430    8.7390   39.1950 H   0  0  0  0  0  0  0  0  0  0  0  0
   89.4890    9.9940   38.2660 H   0  0  0  0  0  0  0  0  0  0  0  0
   90.3410    8.6450   38.1400 H   0  0  0  0  0  0  0  0  0  0  0  0
   90.9510   15.8280   44.7960 H   0  0  0  0  0  0  0  0  0  0  0  0
   91.1310   15.8260   46.3860 H   0  0  0  0  0  0  0  0  0  0  0  0
   89.6640   15.7900   45.7470 H   0  0  0  0  0  0  0  0  0  0  0  0
  106.4130    7.4275   37.6348 H   0  0  0  0  0  0  0  0  0  0  0  0
  106.3698    9.1806   36.7882 H   0  0  0  0  0  0  0  0  0  0  0  0
  106.4530   11.2907   38.8157 H   0  0  0  0  0  0  0  0  0  0  0  0
  107.8530    6.1053   38.0425 H   0  0  0  0  0  0  0  0  0  0  0  0
  109.4140   11.0767   42.8038 H   0  0  0  0  0  0  0  0  0  0  0  0
  107.2985    8.8356   41.6417 H   0  0  0  0  0  0  0  0  0  0  0  0
  107.6205    9.1933   42.9492 H   0  0  0  0  0  0  0  0  0  0  0  0
  106.7322    9.7652   40.7596 H   0  0  0  0  0  0  0  0  0  0  0  0
  108.8425   11.9712   41.8754 H   0  0  0  0  0  0  0  0  0  0  0  0
  107.2283    7.2079   39.9346 H   0  0  0  0  0  0  0  0  0  0  0  0
  106.4981   11.0669   41.2451 H   0  0  0  0  0  0  0  0  0  0  0  0
  106.3859    9.4027   39.3636 H   0  0  0  0  0  0  0  0  0  0  0  0
  106.6703    8.0440   38.9927 H   0  0  0  0  0  0  0  0  0  0  0  0
   91.5163    4.7770   40.0277 H   0  0  0  0  0  0  0  0  0  0  0  0
   91.3149    5.5864   38.5078 H   0  0  0  0  0  0  0  0  0  0  0  0
   92.8850    5.7422   43.7716 H   0  0  0  0  0  0  0  0  0  0  0  0
   93.0006    4.1774   41.3292 H   0  0  0  0  0  0  0  0  0  0  0  0
   90.4864    9.9107   44.1383 H   0  0  0  0  0  0  0  0  0  0  0  0
   92.6484    9.1863   41.7657 H   0  0  0  0  0  0  0  0  0  0  0  0
   92.3257   10.4074   42.3635 H   0  0  0  0  0  0  0  0  0  0  0  0
   93.1854    8.1302   42.5149 H   0  0  0  0  0  0  0  0  0  0  0  0
   91.0267    8.8231   44.8485 H   0  0  0  0  0  0  0  0  0  0  0  0
   92.7462    7.8347   39.8358 H   0  0  0  0  0  0  0  0  0  0  0  0
   93.3901    8.3522   43.8923 H   0  0  0  0  0  0  0  0  0  0  0  0
   93.5335    6.8266   41.9002 H   0  0  0  0  0  0  0  0  0  0  0  0
   93.2762    6.7411   40.4831 H   0  0  0  0  0  0  0  0  0  0  0  0
  1  4  1  0
  5  6  1  0
  6  8  1  0
  9 11  1  0
  1 12  1  0
  6 13  1  0
  9 14  1  0
  7 15  1  0
 13 15  1  0
 14 15  1  0
  3 16  1  0
  5 16  1  0
  3 17  1  0
  8 17  1  0
  7 18  1  0
 11 18  1  0
 14 19  1  0
  2 20  1  0
 13 20  1  0
  9 21  1  0
 19 22  1  0
 20 22  1  0
 11 23  1  0
 19 24  1  0
 24 10  1  0
  3 25  1  0
  1 26  1  0
 21 26  1  0
 24 26  1  0
  5 27  1  0
  5 28  1  0
  8 29  1  0
  8 30  1  0
 11 31  1  1
 16 32  1  0
 16 33  1  0
 17 34  1  0
 17 35  1  0
 18 36  1  0
 18 37  1  0
 21 38  1  0
 22 39  1  0
 23 40  1  0
 23 41  1  0
 23 42  1  0
 25 43  1  0
 25 44  1  0
 25 45  1  0
 46 49  1  0
 50 51  1  0
 51 53  1  0
 54 56  1  0
 46 57  1  0
 51 58  1  0
 54 59  1  0
 52 60  1  0
 58 60  1  0
 59 60  1  0
 48 61  1  0
 50 61  1  0
 48 62  1  0
 53 62  1  0
 52 63  1  0
 56 63  1  0
 59 64  1  0
 47 65  1  0
 58 65  1  0
 54 66  1  0
 64 67  1  0
 65 67  1  0
 56 68  1  0
 64 69  1  0
 69 55  1  0
 48 70  1  0
 46 71  1  0
 66 71  1  0
 69 71  1  0
 50 72  1  0
 50 73  1  0
 53 74  1  0
 53 75  1  0
 56 76  1  6
 61 77  1  0
 61 78  1  0
 62 79  1  0
 62 80  1  0
 63 81  1  0
 63 82  1  0
 66 83  1  0
 67 84  1  0
 68 85  1  0
 68 86  1  0
 68 87  1  0
 70 88  1  0
 70 89  1  0
 70 90  1  0
  1 91  1  0
  4 92  1  0
 10 93  1  0
 12 94  1  0
 13 95  1  0
 14 96  1  0
 15 97  1  0
 19 98  1  0
 20 99  1  0
 21100  1  0
 22101  1  0
 24102  1  0
 26103  1  0
 46104  1  0
 49105  1  0
 55106  1  0
 57107  1  0
 58108  1  0
 59109  1  0
 60110  1  0
 64111  1  0
 65112  1  0
 66113  1  0
 67114  1  0
 69115  1  0
 71116  1  0
M  END
>  <PDBID>  (1) 
4Z2D

>  <PDB ID>  (1) 
4Z2D

>  <Generic Name>  (1) 
Levofloxacin

>  <Brand Name>  (1) 
Act Levofloxacin#Apo-levofloxacin#Auro-levofloxacin#Ava-levofloxacin#Dom-levofloxacin#Iquix#Levaquin#Levaquin 25mg/ml#Levaquin 500mg#Levaquin 5mg/ml#Levaquin 750mg#Levofloxacin#Levofloxacin In 5% Dextrose Injection#Levofloxacin Injection#Mylan-levofloxacin#Ntp-levofloxacin#PHL-levofloxacin#PMS-levofloxacin#Quinsair#Quixin#Sandoz Levofloxacin#Teva-levofloxacin#Cravit#Elequine#Floxel#Leroxacin#Levokacin#Levox#Levoxacin#Mosardal#Nofaxin#Reskuin#Tavanic

>  <DrugBank ID>  (1) 
DB01137

>  <ATC Codes>  (1) 
A02BD10#J01RA05#S01AE05#J01MA12

>  <Ligand ID>  (1) 
LFX

>  <Target Name>  (1) 
DNA gyrase subunit A

>  <UniProt ID>  (1) 
P43700

>  <PDB ID.1>  (1) 
4Z2D

>  <Seq. Identity>  (1) 
50%

$$$$
