PDB_DB00819_99
     RDKit          3D

 19 19  0  0  0  0  0  0  0  0999 V2000
   34.7630   17.1930  -17.9380 C   0  0  0  0  0  0  0  0  0  0  0  0
   34.4370   16.4480  -20.1450 C   0  0  0  0  0  0  0  0  0  0  0  0
   32.9390   14.7710  -20.9940 C   0  0  0  0  0  0  0  0  0  0  0  0
   32.4510   14.0020  -22.1390 C   0  0  0  0  0  0  0  0  0  0  0  0
   36.4910   17.6300  -15.9610 N   0  0  0  0  0  0  0  0  0  0  0  0
   35.0660   17.6270  -20.0430 N   0  0  0  0  0  0  0  0  0  0  0  0
   35.1880   18.0710  -18.7670 N   0  0  0  0  0  0  0  0  0  0  0  0
   33.7590   15.8350  -21.2140 N   0  0  0  0  0  0  0  0  0  0  0  0
   34.6720   16.0100  -15.7230 O   0  0  0  0  0  0  0  0  0  0  0  0
   34.1710   18.4170  -15.6930 O   0  0  0  0  0  0  0  0  0  0  0  0
   32.5820   14.4290  -19.8630 O   0  0  0  0  0  0  0  0  0  0  0  0
   34.9540   17.3730  -16.1930 S   0  0  0  0  0  0  0  0  0  0  0  0
   34.0480   15.8110  -18.6090 S   0  0  0  0  0  0  0  0  0  0  0  0
   31.8938   13.1240  -21.7804 H   0  0  0  0  0  0  0  0  0  0  0  0
   31.7878   14.6332  -22.7488 H   0  0  0  0  0  0  0  0  0  0  0  0
   33.3045   13.6707  -22.7488 H   0  0  0  0  0  0  0  0  0  0  0  0
   36.6849   17.6624  -14.9499 H   0  0  0  0  0  0  0  0  0  0  0  0
   37.0352   16.8683  -16.3907 H   0  0  0  0  0  0  0  0  0  0  0  0
   33.8840   16.1942  -22.1712 H   0  0  0  0  0  0  0  0  0  0  0  0
  3  4  1  0
  2  6  2  0
  1  7  2  0
  6  7  1  0
  2  8  1  0
  3  8  1  0
  3 11  2  0
  1 12  1  0
  5 12  1  0
  9 12  2  0
 10 12  2  0
  1 13  1  0
  2 13  1  0
  4 14  1  0
  4 15  1  0
  4 16  1  0
  5 17  1  0
  5 18  1  0
  8 19  1  0
M  END
>  <PDBID>  (1) 
1AZM

>  <PDB ID>  (1) 
1AZM

>  <Generic Name>  (1) 
Acetazolamide

>  <Brand Name>  (1) 
Acetazolam#Acetazolamide#Acetazolamide for Injection, USP#Diamox IV 500mg#Diamox Pws 500mg/vial#Diamox Sequels#Diamox Src 500mg#Diamox Tab 250mg#Diamox Tablets 250mg#Novo-zolamide Tab 250mg#Acemit#Acemox#Acetak#Acetamide#Acetazolamax#Azm#Azol#Azomid#Carbinib#Defiltran#Diabo#Diacarb#Diamox#Diamox Depot#Diazomid#Diluran#Diuramid#Défiltran#Edemox#Glaumox#Glaupax#Glupax#Huma-Zolamide#Iopar-SR#Medene#Oculten#Uramox#Zolmide#Ödemin

>  <DrugBank ID>  (1) 
DB00819

>  <ATC Codes>  (1) 
S01EC01

>  <Ligand ID>  (1) 
AZM

>  <Target Name>  (1) 
Carbonic anhydrase 1

>  <UniProt ID>  (1) 
P00915

>  <PDB ID.1>  (1) 
1AZM

>  <Seq. Identity>  (1) 
100%

$$$$
