PDB_DB01167_95
     RDKit          3D

 87 93  0  0  0  0  0  0  0  0999 V2000
    7.8060   -4.5960    8.3230 C   0  0  0  0  0  0  0  0  0  0  0  0
    7.1100   -5.3690    7.3860 C   0  0  0  0  0  0  0  0  0  0  0  0
    9.0060   -4.2170    2.9430 C   0  0  0  0  0  0  0  0  0  0  0  0
    7.8200   -3.9210    2.0430 C   0  0  0  0  0  0  0  0  0  0  0  0
    6.5160   -4.5150    2.5830 C   0  0  1  0  0  0  0  0  0  0  0  0
    6.2900   -5.9130    2.0300 C   0  0  0  0  0  0  0  0  0  0  0  0
    6.6000   -4.5450    4.0610 N   0  0  0  0  0  0  0  0  0  0  0  0
    6.9570   -5.4270    4.9960 C   0  0  0  0  0  0  0  0  0  0  0  0
    7.3260   -6.6470    4.7790 O   0  0  0  0  0  0  0  0  0  0  0  0
    6.8200   -4.8410    6.1820 N   0  0  0  0  0  0  0  0  0  0  0  0
    6.4240   -3.5680    6.0400 C   0  0  0  0  0  0  0  0  0  0  0  0
    6.2620   -3.3440    4.7040 N   0  0  0  0  0  0  0  0  0  0  0  0
    8.1620   -5.0610    9.5880 C   0  0  0  0  0  0  0  0  0  0  0  0
    7.8280   -6.3480    9.9840 C   0  0  0  0  0  0  0  0  0  0  0  0
    7.1450   -7.1440    9.0770 C   0  0  0  0  0  0  0  0  0  0  0  0
    6.7950   -6.6650    7.8080 C   0  0  0  0  0  0  0  0  0  0  0  0
    8.1920   -6.8330   11.2600 N   0  0  0  0  0  0  0  0  0  0  0  0
    8.7560   -8.1560   11.4220 C   0  0  0  0  0  0  0  0  0  0  0  0
   10.2160   -7.8480   11.7300 C   0  0  0  0  0  0  0  0  0  0  0  0
   10.2940   -6.9300   12.8720 N   0  0  0  0  0  0  0  0  0  0  0  0
    9.5040   -5.7000   12.9110 C   0  0  0  0  0  0  0  0  0  0  0  0
    8.0790   -6.0410   12.4730 C   0  0  0  0  0  0  0  0  0  0  0  0
   11.1900   -7.2660   13.9110 C   0  0  0  0  0  0  0  0  0  0  0  0
   11.7840   -6.3150   14.7440 C   0  0  0  0  0  0  0  0  0  0  0  0
   12.6780   -6.7110   15.7460 C   0  0  0  0  0  0  0  0  0  0  0  0
   12.9830   -8.0600   15.9200 C   0  0  0  0  0  0  0  0  0  0  0  0
   12.3920   -8.9950   15.0800 C   0  0  0  0  0  0  0  0  0  0  0  0
   11.5100   -8.6020   14.0900 C   0  0  0  0  0  0  0  0  0  0  0  0
   13.8620   -8.5060   16.8920 O   0  0  0  0  0  0  0  0  0  0  0  0
   14.1840   -7.7650   18.0780 C   0  0  0  0  0  0  0  0  0  0  0  0
   15.3850   -8.4350   18.7270 C   0  0  1  0  0  0  0  0  0  0  0  0
   16.1370   -9.0510   17.5630 C   0  0  0  0  0  0  0  0  0  0  0  0
   17.2220   -8.1620   17.3410 O   0  0  0  0  0  0  0  0  0  0  0  0
   17.3920   -7.2960   18.4580 C   0  0  2  0  0  0  0  0  0  0  0  0
   16.2970   -7.5300   19.3560 O   0  0  0  0  0  0  0  0  0  0  0  0
   17.3550   -5.8600   17.9610 C   0  0  0  0  0  0  0  0  0  0  0  0
   17.9440   -4.9180   18.9000 N   0  0  0  0  0  0  0  0  0  0  0  0
   18.0620   -4.9010   20.2160 C   0  0  0  0  0  0  0  0  0  0  0  0
   18.6810   -3.7470   20.5420 N   0  0  0  0  0  0  0  0  0  0  0  0
   18.9690   -3.0690   19.4070 C   0  0  0  0  0  0  0  0  0  0  0  0
   18.5070   -3.7680   18.3500 N   0  0  0  0  0  0  0  0  0  0  0  0
   18.7450   -7.6980   18.9380 C   0  0  0  0  0  0  0  0  0  0  0  0
   19.8650   -7.7120   17.9600 C   0  0  0  0  0  0  0  0  0  0  0  0
   21.1330   -8.0940   18.3580 C   0  0  0  0  0  0  0  0  0  0  0  0
   21.3370   -8.4840   19.6710 C   0  0  0  0  0  0  0  0  0  0  0  0
   20.2840   -8.4950   20.5920 C   0  0  0  0  0  0  0  0  0  0  0  0
   18.9960   -8.1050   20.2290 C   0  0  0  0  0  0  0  0  0  0  0  0
   22.9860   -8.9780   20.1790 Cl  0  0  0  0  0  0  0  0  0  0  0  0
   19.5980   -7.2000   16.2570 Cl  0  0  0  0  0  0  0  0  0  0  0  0
    8.0864   -3.5688    8.0468 H   0  0  0  0  0  0  0  0  0  0  0  0
    8.6959   -4.1396    3.9955 H   0  0  0  0  0  0  0  0  0  0  0  0
    9.3733   -5.2344    2.7428 H   0  0  0  0  0  0  0  0  0  0  0  0
    9.8083   -3.4915    2.7428 H   0  0  0  0  0  0  0  0  0  0  0  0
    7.7035   -2.8304    1.9591 H   0  0  0  0  0  0  0  0  0  0  0  0
    8.0184   -4.3812    1.0638 H   0  0  0  0  0  0  0  0  0  0  0  0
    5.6636   -3.8957    2.2668 H   0  0  0  0  0  0  0  0  0  0  0  0
    6.1753   -6.6226    2.8627 H   0  0  0  0  0  0  0  0  0  0  0  0
    5.3790   -5.9206    1.4136 H   0  0  0  0  0  0  0  0  0  0  0  0
    7.1522   -6.2073    1.4136 H   0  0  0  0  0  0  0  0  0  0  0  0
    6.2604   -2.8407    6.8489 H   0  0  0  0  0  0  0  0  0  0  0  0
    8.7116   -4.4029   10.2771 H   0  0  0  0  0  0  0  0  0  0  0  0
    6.8727   -8.1716    9.3595 H   0  0  0  0  0  0  0  0  0  0  0  0
    6.2539   -7.3309    7.1197 H   0  0  0  0  0  0  0  0  0  0  0  0
    8.2779   -8.6943   12.2537 H   0  0  0  0  0  0  0  0  0  0  0  0
    8.6172   -8.8056   10.5452 H   0  0  0  0  0  0  0  0  0  0  0  0
   10.7438   -8.7818   11.9740 H   0  0  0  0  0  0  0  0  0  0  0  0
   10.6842   -7.3797   10.8516 H   0  0  0  0  0  0  0  0  0  0  0  0
    9.4936   -5.2950   13.9337 H   0  0  0  0  0  0  0  0  0  0  0  0
    9.9396   -4.9440   12.2411 H   0  0  0  0  0  0  0  0  0  0  0  0
    7.5135   -5.1191   12.2723 H   0  0  0  0  0  0  0  0  0  0  0  0
    7.5461   -6.5960   13.2591 H   0  0  0  0  0  0  0  0  0  0  0  0
   11.5480   -5.2488   14.6119 H   0  0  0  0  0  0  0  0  0  0  0  0
   13.1410   -5.9555   16.3978 H   0  0  0  0  0  0  0  0  0  0  0  0
   12.6286  -10.0621   15.2038 H   0  0  0  0  0  0  0  0  0  0  0  0
   11.0562   -9.3608   13.4355 H   0  0  0  0  0  0  0  0  0  0  0  0
   14.4308   -6.7257   17.8155 H   0  0  0  0  0  0  0  0  0  0  0  0
   13.3286   -7.7519   18.7694 H   0  0  0  0  0  0  0  0  0  0  0  0
   15.0298   -9.1245   19.5070 H   0  0  0  0  0  0  0  0  0  0  0  0
   16.5023  -10.0557   17.8222 H   0  0  0  0  0  0  0  0  0  0  0  0
   15.5050   -9.1761   16.6714 H   0  0  0  0  0  0  0  0  0  0  0  0
   17.9097   -5.8029   17.0128 H   0  0  0  0  0  0  0  0  0  0  0  0
   16.2980   -5.5823   17.8359 H   0  0  0  0  0  0  0  0  0  0  0  0
   17.7204   -5.6799   20.9136 H   0  0  0  0  0  0  0  0  0  0  0  0
   19.4947   -2.1042   19.3548 H   0  0  0  0  0  0  0  0  0  0  0  0
   21.9678   -8.0882   17.6418 H   0  0  0  0  0  0  0  0  0  0  0  0
   20.4768   -8.8186   21.6255 H   0  0  0  0  0  0  0  0  0  0  0  0
   18.1838   -8.1223   20.9706 H   0  0  0  0  0  0  0  0  0  0  0  0
  1  2  2  0
  3  4  1  0
  4  5  1  0
  5  6  1  0
  5  7  1  0
  7  8  1  0
  8  9  2  0
  2 10  1  0
  8 10  1  0
 10 11  1  0
  7 12  1  0
 11 12  2  0
  1 13  1  0
 13 14  2  0
 14 15  1  0
  2 16  1  0
 15 16  2  0
 14 17  1  0
 17 18  1  0
 18 19  1  0
 19 20  1  0
 20 21  1  0
 17 22  1  0
 21 22  1  0
 20 23  1  0
 23 24  2  0
 24 25  1  0
 25 26  2  0
 26 27  1  0
 23 28  1  0
 27 28  2  0
 26 29  1  0
 29 30  1  0
 30 31  1  0
 31 32  1  0
 32 33  1  0
 33 34  1  0
 31 35  1  0
 34 35  1  0
 34 36  1  6
 36 37  1  0
 37 38  1  0
 38 39  2  0
 40 39  1  0
 37 41  1  0
 40 41  2  0
 34 42  1  0
 42 43  2  0
 43 44  1  0
 44 45  2  0
 45 46  1  0
 42 47  1  0
 46 47  2  0
 45 48  1  0
 43 49  1  0
  1 50  1  0
  3 51  1  0
  3 52  1  0
  3 53  1  0
  4 54  1  0
  4 55  1  0
  5 56  1  1
  6 57  1  0
  6 58  1  0
  6 59  1  0
 11 60  1  0
 13 61  1  0
 15 62  1  0
 16 63  1  0
 18 64  1  0
 18 65  1  0
 19 66  1  0
 19 67  1  0
 21 68  1  0
 21 69  1  0
 22 70  1  0
 22 71  1  0
 24 72  1  0
 25 73  1  0
 27 74  1  0
 28 75  1  0
 30 76  1  0
 30 77  1  0
 31 78  1  1
 32 79  1  0
 32 80  1  0
 36 81  1  0
 36 82  1  0
 38 83  1  0
 40 84  1  0
 44 85  1  0
 46 86  1  0
 47 87  1  0
M  END
>  <PDBID>  (1) 
6AYC

>  <PDB ID>  (1) 
6AYC

>  <Generic Name>  (1) 
Itraconazole

>  <Brand Name>  (1) 
Itraconazole#Onmel#Sporanox#Sporanox Oral Solution 10mg/ml#Itrizole#Oriconazole#Sporal

>  <DrugBank ID>  (1) 
DB01167

>  <ATC Codes>  (1) 
J02AC02

>  <Ligand ID>  (1) 
1YN

>  <Target Name>  (1) 
Lanosterol 14-alpha demethylase

>  <UniProt ID>  (1) 
Q16850

>  <PDB ID.1>  (1) 
6AYC

>  <Seq. Identity>  (1) 
36%

$$$$
