PDB_DB00919_99
     RDKit          3D

 47 49  0  0  0  0  0  0  0  0999 V2000
  113.4250   34.8270  -17.4410 O   0  0  0  0  0  0  0  0  0  0  0  0
  113.0030   33.7120  -16.6050 C   0  0  2  0  0  0  0  0  0  0  0  0
  112.4470   32.6070  -17.4910 C   0  0  0  0  0  0  0  0  0  0  0  0
  111.9080   34.0970  -15.5400 C   0  0  0  0  0  0  0  0  0  0  0  0
  111.7810   35.6010  -15.2150 C   0  0  0  0  0  0  0  0  0  0  0  0
  110.9730   35.9950  -14.4090 O   0  0  0  0  0  0  0  0  0  0  0  0
  112.7150   36.5990  -15.9370 C   0  0  1  0  0  0  0  0  0  0  0  0
  113.1700   37.5980  -15.0250 O   0  0  0  0  0  0  0  0  0  0  0  0
  113.9090   35.8100  -16.5570 C   0  0  2  0  0  0  0  0  0  0  0  0
  112.0310   37.3760  -16.9810 O   0  0  0  0  0  0  0  0  0  0  0  0
  114.8120   36.6970  -17.2780 O   0  0  0  0  0  0  0  0  0  0  0  0
  112.9420   38.2790  -17.6800 C   0  0  2  0  0  0  0  0  0  0  0  0
  112.1760   39.0680  -18.7580 C   0  0  1  0  0  0  0  0  0  0  0  0
  111.0650   39.8270  -18.0830 N   0  0  0  0  0  0  0  0  0  0  0  0
  110.2370   40.6220  -18.9990 C   0  0  0  0  0  0  0  0  0  0  0  0
  113.1940   40.0170  -19.5110 C   0  0  1  0  0  0  0  0  0  0  0  0
  113.7460   40.9530  -18.6280 O   0  0  0  0  0  0  0  0  0  0  0  0
  114.3350   39.1800  -20.1670 C   0  0  1  0  0  0  0  0  0  0  0  0
  115.2540   40.0430  -20.8550 N   0  0  0  0  0  0  0  0  0  0  0  0
  115.1970   39.7010  -22.2540 C   0  0  0  0  0  0  0  0  0  0  0  0
  115.0920   38.3810  -19.0690 C   0  0  2  0  0  0  0  0  0  0  0  0
  116.1300   37.6210  -19.6600 O   0  0  0  0  0  0  0  0  0  0  0  0
  114.1040   37.4490  -18.3250 C   0  0  1  0  0  0  0  0  0  0  0  0
  113.8940   33.3838  -16.0497 H   0  0  0  0  0  0  0  0  0  0  0  0
  112.0416   31.8013  -16.8614 H   0  0  0  0  0  0  0  0  0  0  0  0
  111.6464   33.0141  -18.1261 H   0  0  0  0  0  0  0  0  0  0  0  0
  113.2510   32.2067  -18.1261 H   0  0  0  0  0  0  0  0  0  0  0  0
  110.9346   33.7506  -15.9175 H   0  0  0  0  0  0  0  0  0  0  0  0
  112.2234   33.6160  -14.6024 H   0  0  0  0  0  0  0  0  0  0  0  0
  113.0280   37.2862  -14.0962 H   0  0  0  0  0  0  0  0  0  0  0  0
  114.4646   35.3372  -15.7337 H   0  0  0  0  0  0  0  0  0  0  0  0
  113.3705   38.9967  -16.9650 H   0  0  0  0  0  0  0  0  0  0  0  0
  111.7249   38.4054  -19.5113 H   0  0  0  0  0  0  0  0  0  0  0  0
  110.4560   39.1493  -17.6026 H   0  0  0  0  0  0  0  0  0  0  0  0
  109.5637   41.2685  -18.4171 H   0  0  0  0  0  0  0  0  0  0  0  0
  110.8856   41.2443  -19.6330 H   0  0  0  0  0  0  0  0  0  0  0  0
  109.6415   39.9486  -19.6330 H   0  0  0  0  0  0  0  0  0  0  0  0
  112.6414   40.5529  -20.2967 H   0  0  0  0  0  0  0  0  0  0  0  0
  113.5771   40.6666  -17.6955 H   0  0  0  0  0  0  0  0  0  0  0  0
  113.8923   38.4816  -20.8925 H   0  0  0  0  0  0  0  0  0  0  0  0
  114.9810   41.0271  -20.7212 H   0  0  0  0  0  0  0  0  0  0  0  0
  115.0170   38.6211  -22.3604 H   0  0  0  0  0  0  0  0  0  0  0  0
  114.3793   40.2581  -22.7346 H   0  0  0  0  0  0  0  0  0  0  0  0
  116.1512   39.9628  -22.7346 H   0  0  0  0  0  0  0  0  0  0  0  0
  115.5323   39.0833  -18.3459 H   0  0  0  0  0  0  0  0  0  0  0  0
  116.6863   37.2137  -18.9496 H   0  0  0  0  0  0  0  0  0  0  0  0
  113.6756   36.7457  -19.0543 H   0  0  0  0  0  0  0  0  0  0  0  0
  2  1  1  0
  3  2  1  0
  4  2  1  0
  5  4  1  0
  6  5  2  0
  7  5  1  0
  7  8  1  1
  9  1  1  0
  9  7  1  0
 10  7  1  0
 11  9  1  0
 12 10  1  0
 13 12  1  0
 14 13  1  0
 15 14  1  0
 16 13  1  0
 17 16  1  0
 18 16  1  0
 19 18  1  0
 20 19  1  0
 21 18  1  0
 22 21  1  0
 23 12  1  0
 23 11  1  0
 23 21  1  0
  2 24  1  1
  3 25  1  0
  3 26  1  0
  3 27  1  0
  4 28  1  0
  4 29  1  0
  8 30  1  0
  9 31  1  1
 12 32  1  1
 13 33  1  6
 14 34  1  0
 15 35  1  0
 15 36  1  0
 15 37  1  0
 16 38  1  6
 17 39  1  0
 18 40  1  6
 19 41  1  0
 20 42  1  0
 20 43  1  0
 20 44  1  0
 21 45  1  1
 22 46  1  0
 23 47  1  6
M  END
$$$$
