PDB_DB01264_97
     RDKit          3D

 75 78  0  0  0  0  0  0  0  0999 V2000
   21.0910   28.7350   14.0670 N   0  0  0  0  0  0  0  0  0  0  0  0
   20.5400   27.5660   14.5190 C   0  0  0  0  0  0  0  0  0  0  0  0
   19.1880   27.3330   14.2100 C   0  0  0  0  0  0  0  0  0  0  0  0
   18.6260   26.1600   14.6750 C   0  0  0  0  0  0  0  0  0  0  0  0
   19.3840   25.2160   15.3450 C   0  0  0  0  0  0  0  0  0  0  0  0
   20.7110   25.4230   15.7210 C   0  0  0  0  0  0  0  0  0  0  0  0
   21.2630   26.6460   15.2920 C   0  0  0  0  0  0  0  0  0  0  0  0
   18.4500   23.7990   15.9930 S   0  0  0  0  0  0  0  0  0  0  0  0
   17.2570   23.4660   15.0690 O   0  0  0  0  0  0  0  0  0  0  0  0
   19.4810   22.6380   16.2400 O   0  0  0  0  0  0  0  0  0  0  0  0
   17.7940   24.1570   17.5840 N   0  0  0  0  0  0  0  0  0  0  0  0
   18.7830   24.4260   18.6320 C   0  0  0  0  0  0  0  0  0  0  0  0
   18.4000   23.8560   20.0060 C   0  0  0  0  0  0  0  0  0  0  0  0
   18.3680   22.3520   19.8930 C   0  0  0  0  0  0  0  0  0  0  0  0
   19.5030   24.3350   20.9200 C   0  0  0  0  0  0  0  0  0  0  0  0
   16.5050   24.8940   17.5640 C   0  0  0  0  0  0  0  0  0  0  0  0
   15.3940   23.9640   18.1580 C   0  0  1  0  0  0  0  0  0  0  0  0
   14.2320   24.7640   18.4090 O   0  0  0  0  0  0  0  0  0  0  0  0
   15.0130   22.8280   17.1770 C   0  0  1  0  0  0  0  0  0  0  0  0
   14.1320   21.9410   17.8870 N   0  0  0  0  0  0  0  0  0  0  0  0
   14.4880   20.6750   18.2230 C   0  0  0  0  0  0  0  0  0  0  0  0
   15.5870   20.0860   17.9550 O   0  0  0  0  0  0  0  0  0  0  0  0
   13.4210   20.0660   18.9520 O   0  0  0  0  0  0  0  0  0  0  0  0
   13.5050   18.6020   19.1020 C   0  0  1  0  0  0  0  0  0  0  0  0
   12.8390   18.3510   20.4850 C   0  0  0  0  0  0  0  0  0  0  0  0
   11.4120   18.4700   20.2840 O   0  0  0  0  0  0  0  0  0  0  0  0
   11.2200   17.9780   18.9680 C   0  0  1  0  0  0  0  0  0  0  0  0
   10.2970   18.8060   18.2910 O   0  0  0  0  0  0  0  0  0  0  0  0
   11.0420   19.4440   17.2410 C   0  0  0  0  0  0  0  0  0  0  0  0
   12.1310   18.4320   16.8180 C   0  0  0  0  0  0  0  0  0  0  0  0
   12.4700   17.8870   18.2130 C   0  0  1  0  0  0  0  0  0  0  0  0
   14.2940   23.2850   15.8960 C   0  0  0  0  0  0  0  0  0  0  0  0
   12.5490   21.7500   14.8810 C   0  0  0  0  0  0  0  0  0  0  0  0
   12.1480   20.6610   14.0690 C   0  0  0  0  0  0  0  0  0  0  0  0
   13.1190   19.9330   13.3910 C   0  0  0  0  0  0  0  0  0  0  0  0
   14.4710   20.2400   13.5170 C   0  0  0  0  0  0  0  0  0  0  0  0
   14.8600   21.3260   14.3140 C   0  0  0  0  0  0  0  0  0  0  0  0
   13.9020   22.1140   14.9680 C   0  0  0  0  0  0  0  0  0  0  0  0
   22.0779   28.9507   14.2680 H   0  0  0  0  0  0  0  0  0  0  0  0
   20.5186   29.3987   13.5260 H   0  0  0  0  0  0  0  0  0  0  0  0
   18.6022   28.0551   13.6223 H   0  0  0  0  0  0  0  0  0  0  0  0
   17.5548   25.9727   14.5094 H   0  0  0  0  0  0  0  0  0  0  0  0
   21.2823   24.6882   16.3072 H   0  0  0  0  0  0  0  0  0  0  0  0
   22.2985   26.8881   15.5735 H   0  0  0  0  0  0  0  0  0  0  0  0
   19.7416   23.9811   18.3268 H   0  0  0  0  0  0  0  0  0  0  0  0
   18.8429   25.5187   18.7435 H   0  0  0  0  0  0  0  0  0  0  0  0
   17.4155   24.1732   20.3802 H   0  0  0  0  0  0  0  0  0  0  0  0
   18.3586   21.9088   20.8997 H   0  0  0  0  0  0  0  0  0  0  0  0
   17.4631   22.0444   19.3484 H   0  0  0  0  0  0  0  0  0  0  0  0
   19.2590   22.0062   19.3484 H   0  0  0  0  0  0  0  0  0  0  0  0
   19.1951   24.2013   21.9675 H   0  0  0  0  0  0  0  0  0  0  0  0
   20.4163   23.7525   20.7290 H   0  0  0  0  0  0  0  0  0  0  0  0
   19.7008   25.4001   20.7290 H   0  0  0  0  0  0  0  0  0  0  0  0
   16.5896   25.8067   18.1721 H   0  0  0  0  0  0  0  0  0  0  0  0
   16.2483   25.1780   16.5328 H   0  0  0  0  0  0  0  0  0  0  0  0
   15.7767   23.5030   19.0805 H   0  0  0  0  0  0  0  0  0  0  0  0
   14.0991   24.8555   19.3858 H   0  0  0  0  0  0  0  0  0  0  0  0
   15.9525   22.3620   16.8451 H   0  0  0  0  0  0  0  0  0  0  0  0
   13.1954   22.2790   18.1506 H   0  0  0  0  0  0  0  0  0  0  0  0
   14.5380   18.2738   18.9143 H   0  0  0  0  0  0  0  0  0  0  0  0
   13.0883   17.3434   20.8490 H   0  0  0  0  0  0  0  0  0  0  0  0
   13.1957   19.0733   21.2340 H   0  0  0  0  0  0  0  0  0  0  0  0
   10.8247   16.9545   19.0469 H   0  0  0  0  0  0  0  0  0  0  0  0
   10.3835   19.6750   16.3907 H   0  0  0  0  0  0  0  0  0  0  0  0
   11.4828   20.3936   17.5785 H   0  0  0  0  0  0  0  0  0  0  0  0
   11.7376   17.6515   16.1501 H   0  0  0  0  0  0  0  0  0  0  0  0
   12.9737   18.8423   16.2422 H   0  0  0  0  0  0  0  0  0  0  0  0
   12.9195   16.9044   18.0071 H   0  0  0  0  0  0  0  0  0  0  0  0
   13.3797   23.8256   16.1821 H   0  0  0  0  0  0  0  0  0  0  0  0
   14.9942   23.9241   15.3382 H   0  0  0  0  0  0  0  0  0  0  0  0
   11.7944   22.3149   15.4479 H   0  0  0  0  0  0  0  0  0  0  0  0
   11.0846   20.3954   13.9763 H   0  0  0  0  0  0  0  0  0  0  0  0
   12.8133   19.0986   12.7427 H   0  0  0  0  0  0  0  0  0  0  0  0
   15.2278   19.6356   12.9956 H   0  0  0  0  0  0  0  0  0  0  0  0
   15.9283   21.5624   14.4275 H   0  0  0  0  0  0  0  0  0  0  0  0
  1  2  1  0
  2  3  2  0
  3  4  1  0
  4  5  2  0
  5  6  1  0
  2  7  1  0
  6  7  2  0
  5  8  1  0
  8  9  2  0
  8 10  2  0
  8 11  1  0
 11 12  1  0
 12 13  1  0
 13 14  1  0
 13 15  1  0
 11 16  1  0
 16 17  1  0
 17 18  1  0
 17 19  1  0
 19 20  1  0
 20 21  1  0
 21 22  2  0
 21 23  1  0
 23 24  1  0
 24 25  1  0
 25 26  1  0
 26 27  1  0
 27 28  1  0
 28 29  1  0
 29 30  1  0
 24 31  1  0
 27 31  1  0
 30 31  1  0
 19 32  1  0
 33 34  2  0
 34 35  1  0
 35 36  2  0
 36 37  1  0
 32 38  1  0
 33 38  1  0
 37 38  2  0
  1 39  1  0
  1 40  1  0
  3 41  1  0
  4 42  1  0
  6 43  1  0
  7 44  1  0
 12 45  1  0
 12 46  1  0
 13 47  1  0
 14 48  1  0
 14 49  1  0
 14 50  1  0
 15 51  1  0
 15 52  1  0
 15 53  1  0
 16 54  1  0
 16 55  1  0
 17 56  1  1
 18 57  1  0
 19 58  1  6
 20 59  1  0
 24 60  1  1
 25 61  1  0
 25 62  1  0
 27 63  1  1
 29 64  1  0
 29 65  1  0
 30 66  1  0
 30 67  1  0
 31 68  1  6
 32 69  1  0
 32 70  1  0
 33 71  1  0
 34 72  1  0
 35 73  1  0
 36 74  1  0
 37 75  1  0
M  END
>  <PDBID>  (1) 
2IEN

>  <PDB ID>  (1) 
2IEN

>  <Generic Name>  (1) 
Darunavir

>  <Brand Name>  (1) 
Pat-darunavir#Prezcobix#Prezista

>  <DrugBank ID>  (1) 
DB01264

>  <ATC Codes>  (1) 
J05AE10#J05AR14

>  <Ligand ID>  (1) 
17

>  <Target Name>  (1) 
Pol polyprotein

>  <UniProt ID>  (1) 
Q72874

>  <PDB ID.1>  (1) 
2IEN

>  <Seq. Identity>  (1) 
94%

$$$$
