PDB_DB00503_98
     RDKit          3D

 98101  0  0  0  0  0  0  0  0999 V2000
   -9.2070   15.4970   20.2170 C   0  0  0  0  0  0  0  0  0  0  0  0
   -8.2300   14.8300   20.8950 C   0  0  0  0  0  0  0  0  0  0  0  0
   -6.6410   14.7540   20.0990 S   0  0  0  0  0  0  0  0  0  0  0  0
   -7.5990   15.6790   18.9220 C   0  0  0  0  0  0  0  0  0  0  0  0
   -8.8380   15.9770   19.0910 N   0  0  0  0  0  0  0  0  0  0  0  0
   -8.0800   14.1440   22.1310 C   0  0  0  0  0  0  0  0  0  0  0  0
   -8.1820   15.1400   23.1290 O   0  0  0  0  0  0  0  0  0  0  0  0
   -8.0930   14.9330   24.5140 C   0  0  0  0  0  0  0  0  0  0  0  0
   -7.9070   13.8100   25.0060 O   0  0  0  0  0  0  0  0  0  0  0  0
   -8.2450   16.0970   25.2210 N   0  0  0  0  0  0  0  0  0  0  0  0
   -8.2060   16.1370   26.7000 C   0  0  2  0  0  0  0  0  0  0  0  0
   -9.5310   16.5030   27.3890 C   0  0  2  0  0  0  0  0  0  0  0  0
  -10.6470   15.5190   27.1530 C   0  0  0  0  0  0  0  0  0  0  0  0
  -10.6990   14.1920   27.9330 C   0  0  2  0  0  0  0  0  0  0  0  0
   -7.0630   17.0020   27.2890 C   0  0  0  0  0  0  0  0  0  0  0  0
   -5.7050   16.8790   26.8020 C   0  0  0  0  0  0  0  0  0  0  0  0
   -5.0090   15.8680   27.5320 C   0  0  0  0  0  0  0  0  0  0  0  0
   -3.6600   15.6000   27.1830 C   0  0  0  0  0  0  0  0  0  0  0  0
   -3.0010   16.3150   26.1330 C   0  0  0  0  0  0  0  0  0  0  0  0
   -3.7150   17.3350   25.4080 C   0  0  0  0  0  0  0  0  0  0  0  0
   -5.0640   17.6150   25.7410 C   0  0  0  0  0  0  0  0  0  0  0  0
   -9.9440   17.7420   26.8730 O   0  0  0  0  0  0  0  0  0  0  0  0
  -12.0480   13.5970   27.6040 C   0  0  0  0  0  0  0  0  0  0  0  0
  -12.0560   12.1780   27.9300 C   0  0  0  0  0  0  0  0  0  0  0  0
  -12.8470   11.7880   29.0530 C   0  0  0  0  0  0  0  0  0  0  0  0
  -12.9150   10.4070   29.4500 C   0  0  0  0  0  0  0  0  0  0  0  0
  -12.1860    9.4480   28.7060 C   0  0  0  0  0  0  0  0  0  0  0  0
  -11.4060    9.8410   27.5930 C   0  0  0  0  0  0  0  0  0  0  0  0
  -11.3340   11.2040   27.1950 C   0  0  0  0  0  0  0  0  0  0  0  0
  -10.6000   14.3790   29.3700 N   0  0  0  0  0  0  0  0  0  0  0  0
  -10.5820   13.1210   32.2350 N   0  0  0  0  0  0  0  0  0  0  0  0
   -9.7870   14.2160   31.6230 C   0  0  2  0  0  0  0  0  0  0  0  0
   -9.6000   13.9110   30.1280 C   0  0  0  0  0  0  0  0  0  0  0  0
   -8.6280   13.2630   29.6720 O   0  0  0  0  0  0  0  0  0  0  0  0
   -8.4460   14.3670   32.4340 C   0  0  0  0  0  0  0  0  0  0  0  0
   -7.4570   15.4480   31.9260 C   0  0  0  0  0  0  0  0  0  0  0  0
   -8.7310   14.6610   33.9260 C   0  0  0  0  0  0  0  0  0  0  0  0
  -11.8820   13.2440   32.6200 C   0  0  0  0  0  0  0  0  0  0  0  0
  -12.4700   12.0490   32.9860 N   0  0  0  0  0  0  0  0  0  0  0  0
  -13.8770   11.9990   33.4240 C   0  0  0  0  0  0  0  0  0  0  0  0
  -12.4590   14.3630   32.6270 O   0  0  0  0  0  0  0  0  0  0  0  0
  -14.8420   11.5630   32.4020 C   0  0  0  0  0  0  0  0  0  0  0  0
  -15.5060   12.5240   31.6880 C   0  0  0  0  0  0  0  0  0  0  0  0
  -16.5490   11.6600   30.5280 S   0  0  0  0  0  0  0  0  0  0  0  0
  -15.9510   10.1210   31.1780 C   0  0  0  0  0  0  0  0  0  0  0  0
  -15.0820   10.3100   32.1350 N   0  0  0  0  0  0  0  0  0  0  0  0
  -16.5550    9.0920   30.4850 C   0  0  0  0  0  0  0  0  0  0  0  0
  -18.0090    8.8000   30.1280 C   0  0  0  0  0  0  0  0  0  0  0  0
  -16.0270    7.8390   31.0660 C   0  0  0  0  0  0  0  0  0  0  0  0
  -11.9350   10.8230   33.0100 C   0  0  0  0  0  0  0  0  0  0  0  0
  -10.2290   15.6126   20.6069 H   0  0  0  0  0  0  0  0  0  0  0  0
   -7.1047   16.0148   17.9985 H   0  0  0  0  0  0  0  0  0  0  0  0
   -8.8751   13.3938   22.2535 H   0  0  0  0  0  0  0  0  0  0  0  0
   -7.1218   13.6065   22.1864 H   0  0  0  0  0  0  0  0  0  0  0  0
   -8.3917   16.9759   24.7044 H   0  0  0  0  0  0  0  0  0  0  0  0
   -7.9996   15.0823   26.9346 H   0  0  0  0  0  0  0  0  0  0  0  0
   -9.3381   16.5129   28.4719 H   0  0  0  0  0  0  0  0  0  0  0  0
  -11.5857   16.0493   27.3710 H   0  0  0  0  0  0  0  0  0  0  0  0
  -10.4712   15.1901   26.1181 H   0  0  0  0  0  0  0  0  0  0  0  0
   -9.8505   13.5522   27.6487 H   0  0  0  0  0  0  0  0  0  0  0  0
   -7.3554   18.0514   27.1369 H   0  0  0  0  0  0  0  0  0  0  0  0
   -6.9840   16.6269   28.3201 H   0  0  0  0  0  0  0  0  0  0  0  0
   -5.5047   15.3127   28.3419 H   0  0  0  0  0  0  0  0  0  0  0  0
   -3.1074   14.8239   27.7328 H   0  0  0  0  0  0  0  0  0  0  0  0
   -1.9549   16.0870   25.8808 H   0  0  0  0  0  0  0  0  0  0  0  0
   -3.2166   17.8927   24.6015 H   0  0  0  0  0  0  0  0  0  0  0  0
   -5.6192   18.3902   25.1925 H   0  0  0  0  0  0  0  0  0  0  0  0
  -10.1495   18.3585   27.6198 H   0  0  0  0  0  0  0  0  0  0  0  0
  -12.8255   14.1101   28.1890 H   0  0  0  0  0  0  0  0  0  0  0  0
  -12.2474   13.7231   26.5296 H   0  0  0  0  0  0  0  0  0  0  0  0
  -13.4074   12.5477   29.6176 H   0  0  0  0  0  0  0  0  0  0  0  0
  -13.5219   10.1018   30.3152 H   0  0  0  0  0  0  0  0  0  0  0  0
  -12.2265    8.3877   28.9960 H   0  0  0  0  0  0  0  0  0  0  0  0
  -10.8471    9.0809   27.0273 H   0  0  0  0  0  0  0  0  0  0  0  0
  -10.7256   11.4993   26.3274 H   0  0  0  0  0  0  0  0  0  0  0  0
  -11.3500   14.9076   29.8379 H   0  0  0  0  0  0  0  0  0  0  0  0
  -10.1207   12.2111   32.3771 H   0  0  0  0  0  0  0  0  0  0  0  0
  -10.2952   15.1902   31.6756 H   0  0  0  0  0  0  0  0  0  0  0  0
   -7.9561   13.3936   32.2843 H   0  0  0  0  0  0  0  0  0  0  0  0
   -6.9938   15.9543   32.7858 H   0  0  0  0  0  0  0  0  0  0  0  0
   -6.6752   14.9720   31.3160 H   0  0  0  0  0  0  0  0  0  0  0  0
   -8.0005   16.1845   31.3160 H   0  0  0  0  0  0  0  0  0  0  0  0
   -8.1024   14.0126   34.5541 H   0  0  0  0  0  0  0  0  0  0  0  0
   -8.5017   15.7149   34.1424 H   0  0  0  0  0  0  0  0  0  0  0  0
   -9.7915   14.4646   34.1424 H   0  0  0  0  0  0  0  0  0  0  0  0
  -13.9435   11.3022   34.2725 H   0  0  0  0  0  0  0  0  0  0  0  0
  -14.1519   13.0333   33.6781 H   0  0  0  0  0  0  0  0  0  0  0  0
  -15.4143   13.6138   31.8064 H   0  0  0  0  0  0  0  0  0  0  0  0
  -16.3197    9.5275   29.5027 H   0  0  0  0  0  0  0  0  0  0  0  0
  -18.5965    8.6820   31.0505 H   0  0  0  0  0  0  0  0  0  0  0  0
  -18.4164    9.6343   29.5380 H   0  0  0  0  0  0  0  0  0  0  0  0
  -18.0627    7.8731   29.5380 H   0  0  0  0  0  0  0  0  0  0  0  0
  -16.0543    7.9038   32.1637 H   0  0  0  0  0  0  0  0  0  0  0  0
  -16.6446    6.9918   30.7332 H   0  0  0  0  0  0  0  0  0  0  0  0
  -14.9893    7.6893   30.7332 H   0  0  0  0  0  0  0  0  0  0  0  0
  -11.7958   10.5040   34.0535 H   0  0  0  0  0  0  0  0  0  0  0  0
  -12.6078   10.1192   32.4981 H   0  0  0  0  0  0  0  0  0  0  0  0
  -10.9615   10.8377   32.4981 H   0  0  0  0  0  0  0  0  0  0  0  0
  1  2  2  0
  2  3  1  0
  3  4  1  0
  1  5  1  0
  4  5  2  0
  2  6  1  0
  6  7  1  0
  7  8  1  0
  8  9  2  0
  8 10  1  0
 10 11  1  0
 11 12  1  0
 12 13  1  0
 13 14  1  0
 11 15  1  0
 15 16  1  0
 16 17  2  0
 17 18  1  0
 18 19  2  0
 19 20  1  0
 16 21  1  0
 20 21  2  0
 12 22  1  0
 14 23  1  0
 23 24  1  0
 24 25  2  0
 25 26  1  0
 26 27  2  0
 27 28  1  0
 24 29  1  0
 28 29  2  0
 14 30  1  0
 31 32  1  0
 30 33  1  0
 32 33  1  0
 33 34  2  0
 32 35  1  0
 35 36  1  0
 35 37  1  0
 31 38  1  0
 38 39  1  0
 39 40  1  0
 38 41  2  0
 40 42  1  0
 42 43  2  0
 43 44  1  0
 44 45  1  0
 42 46  1  0
 45 46  2  0
 45 47  1  0
 47 48  1  0
 47 49  1  0
 39 50  1  0
  1 51  1  0
  4 52  1  0
  6 53  1  0
  6 54  1  0
 10 55  1  0
 11 56  1  1
 12 57  1  1
 13 58  1  0
 13 59  1  0
 14 60  1  6
 15 61  1  0
 15 62  1  0
 17 63  1  0
 18 64  1  0
 19 65  1  0
 20 66  1  0
 21 67  1  0
 22 68  1  0
 23 69  1  0
 23 70  1  0
 25 71  1  0
 26 72  1  0
 27 73  1  0
 28 74  1  0
 29 75  1  0
 30 76  1  0
 31 77  1  0
 32 78  1  6
 35 79  1  0
 36 80  1  0
 36 81  1  0
 36 82  1  0
 37 83  1  0
 37 84  1  0
 37 85  1  0
 40 86  1  0
 40 87  1  0
 43 88  1  0
 47 89  1  0
 48 90  1  0
 48 91  1  0
 48 92  1  0
 49 93  1  0
 49 94  1  0
 49 95  1  0
 50 96  1  0
 50 97  1  0
 50 98  1  0
M  END
>  <PDBID>  (1) 
1RL8

>  <PDB ID>  (1) 
1RL8

>  <Generic Name>  (1) 
Ritonavir

>  <Brand Name>  (1) 
Holkira Pak#Kaletra#Lopinavir-ritonavir#Norvir#Norvir Sec#Technivie#Viekira Pak#Viekira XR#Busvir#Empetus#Normune

>  <DrugBank ID>  (1) 
DB00503

>  <ATC Codes>  (1) 
J05AX67#J05AR10#J05AE03#J05AX66

>  <Ligand ID>  (1) 
RIT

>  <Target Name>  (1) 
Pol polyprotein

>  <UniProt ID>  (1) 
Q72874

>  <PDB ID.1>  (1) 
1RL8

>  <Seq. Identity>  (1) 
97%

$$$$
