PDB_DB01394_98
     RDKit          3D

 54 56  0  0  0  0  0  0  0  0999 V2000
   89.8580   17.1320   21.1040 O   0  0  0  0  0  0  0  0  0  0  0  0
   90.6150   18.0970   21.0650 C   0  0  0  0  0  0  0  0  0  0  0  0
   91.3980   18.4580   19.8290 C   0  0  0  0  0  0  0  0  0  0  0  0
   90.8240   18.9030   22.1760 N   0  0  0  0  0  0  0  0  0  0  0  0
   90.0790   18.7060   23.4230 C   0  0  2  0  0  0  0  0  0  0  0  0
   88.6660   19.2820   23.3980 C   0  0  0  0  0  0  0  0  0  0  0  0
   88.4020   20.3040   22.5720 C   0  0  0  0  0  0  0  0  0  0  0  0
   90.8600   19.3620   24.5800 C   0  0  0  0  0  0  0  0  0  0  0  0
   90.0580   19.3740   25.8860 C   0  0  0  0  0  0  0  0  0  0  0  0
   89.4020   18.0520   26.1070 C   0  0  0  0  0  0  0  0  0  0  0  0
   89.8830   17.1800   27.0780 C   0  0  0  0  0  0  0  0  0  0  0  0
   89.2600   15.9470   27.2610 C   0  0  0  0  0  0  0  0  0  0  0  0
   88.2060   15.5660   26.4170 C   0  0  0  0  0  0  0  0  0  0  0  0
   87.7730   16.4350   25.4200 C   0  0  0  0  0  0  0  0  0  0  0  0
   86.7410   16.0500   24.6080 O   0  0  0  0  0  0  0  0  0  0  0  0
   87.1790   15.1940   23.5730 C   0  0  0  0  0  0  0  0  0  0  0  0
   87.6210   14.3370   26.5460 O   0  0  0  0  0  0  0  0  0  0  0  0
   86.4230   14.4340   27.2920 C   0  0  0  0  0  0  0  0  0  0  0  0
   89.5590   15.0410   28.2290 O   0  0  0  0  0  0  0  0  0  0  0  0
   90.7190   15.2840   28.9900 C   0  0  0  0  0  0  0  0  0  0  0  0
   88.3230   17.7120   25.2980 C   0  0  0  0  0  0  0  0  0  0  0  0
   87.7590   18.6790   24.3460 C   0  0  0  0  0  0  0  0  0  0  0  0
   86.4350   18.8900   24.4760 C   0  0  0  0  0  0  0  0  0  0  0  0
   85.5340   19.6430   23.6670 C   0  0  0  0  0  0  0  0  0  0  0  0
   85.8440   20.5630   22.7390 C   0  0  0  0  0  0  0  0  0  0  0  0
   87.1820   21.0740   22.3540 C   0  0  0  0  0  0  0  0  0  0  0  0
   87.2520   22.1580   21.7920 O   0  0  0  0  0  0  0  0  0  0  0  0
   84.9300   21.2520   22.0000 O   0  0  0  0  0  0  0  0  0  0  0  0
   83.5750   20.9030   22.1130 C   0  0  0  0  0  0  0  0  0  0  0  0
   92.3609   18.9020   20.1216 H   0  0  0  0  0  0  0  0  0  0  0  0
   91.5783   17.5521   19.2316 H   0  0  0  0  0  0  0  0  0  0  0  0
   90.8262   19.1834   19.2316 H   0  0  0  0  0  0  0  0  0  0  0  0
   91.5210   19.6594   22.1226 H   0  0  0  0  0  0  0  0  0  0  0  0
   89.9762   17.6192   23.5586 H   0  0  0  0  0  0  0  0  0  0  0  0
   89.2536   20.6168   21.9500 H   0  0  0  0  0  0  0  0  0  0  0  0
   91.7919   18.8004   24.7417 H   0  0  0  0  0  0  0  0  0  0  0  0
   91.0652   20.4058   24.3000 H   0  0  0  0  0  0  0  0  0  0  0  0
   90.7361   19.5868   26.7256 H   0  0  0  0  0  0  0  0  0  0  0  0
   89.2817   20.1505   25.8203 H   0  0  0  0  0  0  0  0  0  0  0  0
   90.7481   17.4614   27.6964 H   0  0  0  0  0  0  0  0  0  0  0  0
   87.6388   14.2954   24.0103 H   0  0  0  0  0  0  0  0  0  0  0  0
   86.3201   14.9009   22.9514 H   0  0  0  0  0  0  0  0  0  0  0  0
   87.9192   15.7191   22.9514 H   0  0  0  0  0  0  0  0  0  0  0  0
   86.6576   14.4150   28.3665 H   0  0  0  0  0  0  0  0  0  0  0  0
   85.9124   15.3764   27.0448 H   0  0  0  0  0  0  0  0  0  0  0  0
   85.7674   13.5860   27.0448 H   0  0  0  0  0  0  0  0  0  0  0  0
   90.4725   15.2324   30.0608 H   0  0  0  0  0  0  0  0  0  0  0  0
   91.4794   14.5256   28.7518 H   0  0  0  0  0  0  0  0  0  0  0  0
   91.1111   16.2838   28.7518 H   0  0  0  0  0  0  0  0  0  0  0  0
   85.9741   18.4023   25.3476 H   0  0  0  0  0  0  0  0  0  0  0  0
   84.4624   19.4480   23.8206 H   0  0  0  0  0  0  0  0  0  0  0  0
   83.3019   20.8327   23.1762 H   0  0  0  0  0  0  0  0  0  0  0  0
   82.9566   21.6712   21.6257 H   0  0  0  0  0  0  0  0  0  0  0  0
   83.4047   19.9317   21.6257 H   0  0  0  0  0  0  0  0  0  0  0  0
  1  2  2  0
  2  3  1  0
  2  4  1  0
  4  5  1  0
  5  6  1  0
  6  7  2  0
  5  8  1  0
  8  9  1  0
  9 10  1  0
 10 11  1  0
 11 12  2  0
 12 13  1  0
 13 14  2  0
 14 15  1  0
 15 16  1  0
 13 17  1  0
 17 18  1  0
 12 19  1  0
 19 20  1  0
 10 21  2  0
 14 21  1  0
  6 22  1  0
 21 22  1  0
 22 23  2  0
 23 24  1  0
 24 25  2  0
  7 26  1  0
 25 26  1  0
 26 27  2  0
 25 28  1  0
 28 29  1  0
  3 30  1  0
  3 31  1  0
  3 32  1  0
  4 33  1  0
  5 34  1  1
  7 35  1  0
  8 36  1  0
  8 37  1  0
  9 38  1  0
  9 39  1  0
 11 40  1  0
 16 41  1  0
 16 42  1  0
 16 43  1  0
 18 44  1  0
 18 45  1  0
 18 46  1  0
 20 47  1  0
 20 48  1  0
 20 49  1  0
 23 50  1  0
 24 51  1  0
 29 52  1  0
 29 53  1  0
 29 54  1  0
M  END
>  <PDBID>  (1) 
5NM5

>  <PDB ID>  (1) 
5NM5

>  <Generic Name>  (1) 
Colchicine

>  <Brand Name>  (1) 
Colchicine#Colchicine Tab 0.6mg#Colchicine Tab 1mg#Colcrys#Euro-colchicine#Jamp-colchicine#Mitigare#PMS-colchicine#Probenecid and Colchicine#Verban Ont

>  <DrugBank ID>  (1) 
DB01394

>  <ATC Codes>  (1) 
M04AC01

>  <Ligand ID>  (1) 
LOC

>  <Target Name>  (1) 
Tubulin beta-1 chain

>  <UniProt ID>  (1) 
Q9H4B7

>  <PDB ID.1>  (1) 
5NM5

>  <Seq. Identity>  (1) 
78%

$$$$
