PDB_DB00951_94
     RDKit          3D

 17 17  0  0  0  0  0  0  0  0999 V2000
  -12.6360  -36.3980    0.0330 C   0  0  0  0  0  0  0  0  0  0  0  0
  -13.8840  -35.6110    0.0440 C   0  0  0  0  0  0  0  0  0  0  0  0
  -16.3100  -34.3310   -0.1800 N   0  0  0  0  0  0  0  0  0  0  0  0
  -11.8380  -36.0460   -0.7970 O   0  0  0  0  0  0  0  0  0  0  0  0
  -14.9080  -35.9800    0.9260 C   0  0  0  0  0  0  0  0  0  0  0  0
  -12.4810  -37.5380    0.7470 N   0  0  0  0  0  0  0  0  0  0  0  0
  -16.1180  -35.2330    0.7920 C   0  0  0  0  0  0  0  0  0  0  0  0
  -11.4980  -38.4060    0.6190 N   0  0  0  0  0  0  0  0  0  0  0  0
  -15.2680  -33.9180   -1.1130 C   0  0  0  0  0  0  0  0  0  0  0  0
  -14.1020  -34.6180   -1.0010 C   0  0  0  0  0  0  0  0  0  0  0  0
  -14.7891  -36.7848    1.6663 H   0  0  0  0  0  0  0  0  0  0  0  0
  -13.1983  -37.7460    1.4563 H   0  0  0  0  0  0  0  0  0  0  0  0
  -16.9266  -35.4055    1.5176 H   0  0  0  0  0  0  0  0  0  0  0  0
  -11.1711  -38.6946    1.5521 H   0  0  0  0  0  0  0  0  0  0  0  0
  -11.8339  -39.2314    0.1024 H   0  0  0  0  0  0  0  0  0  0  0  0
  -15.4101  -33.1099   -1.8457 H   0  0  0  0  0  0  0  0  0  0  0  0
  -13.2971  -34.4260   -1.7257 H   0  0  0  0  0  0  0  0  0  0  0  0
  1  2  1  0
  1  4  2  0
  2  5  2  0
  1  6  1  0
  3  7  2  0
  5  7  1  0
  6  8  1  0
  3  9  1  0
  2 10  1  0
  9 10  2  0
  5 11  1  0
  6 12  1  0
  7 13  1  0
  8 14  1  0
  8 15  1  0
  9 16  1  0
 10 17  1  0
M  END
$$$$
