PDB_DB00396_99
     RDKit          3D

 53 56  0  0  0  0  0  0  0  0999 V2000
  -21.1960   28.3880  -15.7420 C   0  0  0  0  0  0  0  0  0  0  0  0
  -22.0250   28.9550  -14.6350 C   0  0  0  0  0  0  0  0  0  0  0  0
  -22.5400   27.9430  -13.6570 C   0  0  0  0  0  0  0  0  0  0  0  0
  -22.7660   28.2510  -12.4780 O   0  0  0  0  0  0  0  0  0  0  0  0
  -22.7920   26.5580  -14.1520 C   0  0  0  0  0  0  0  0  0  0  0  0
  -22.7070   26.3660  -15.6290 C   0  0  0  0  0  0  0  0  0  0  0  0
  -23.0370   25.0420  -16.2570 C   0  0  0  0  0  0  0  0  0  0  0  0
  -23.5160   25.2330  -17.6750 C   0  0  0  0  0  0  0  0  0  0  0  0
  -22.5790   26.1220  -18.5180 C   0  0  2  0  0  0  0  0  0  0  0  0
  -22.2210   27.4180  -17.8160 C   0  0  1  0  0  0  0  0  0  0  0  0
  -21.6920   27.1300  -16.4080 C   0  0  1  0  0  0  0  0  0  0  0  0
  -21.2620   28.2760  -18.6770 C   0  0  0  0  0  0  0  0  0  0  0  0
  -21.7660   28.4830  -20.0970 C   0  0  0  0  0  0  0  0  0  0  0  0
  -22.2120   27.1680  -20.8250 C   0  0  1  0  0  0  0  0  0  0  0  0
  -23.1270   26.3400  -19.9760 C   0  0  1  0  0  0  0  0  0  0  0  0
  -23.4610   25.1200  -20.7960 C   0  0  0  0  0  0  0  0  0  0  0  0
  -23.1760   25.4960  -22.2250 C   0  0  0  0  0  0  0  0  0  0  0  0
  -22.7660   27.0130  -22.1980 C   0  0  2  0  0  0  0  0  0  0  0  0
  -20.8800   26.5960  -20.9240 C   0  0  0  0  0  0  0  0  0  0  0  0
  -20.4040   26.3370  -16.4600 C   0  0  0  0  0  0  0  0  0  0  0  0
  -21.9290   27.4480  -23.4470 C   0  0  0  0  0  0  0  0  0  0  0  0
  -21.2680   26.6230  -24.0440 O   0  0  0  0  0  0  0  0  0  0  0  0
  -21.9390   28.9060  -23.9450 C   0  0  0  0  0  0  0  0  0  0  0  0
  -21.1113   29.1613  -16.5197 H   0  0  0  0  0  0  0  0  0  0  0  0
  -20.2494   28.0973  -15.2630 H   0  0  0  0  0  0  0  0  0  0  0  0
  -21.4101   29.6819  -14.0841 H   0  0  0  0  0  0  0  0  0  0  0  0
  -22.9088   29.4070  -15.1088 H   0  0  0  0  0  0  0  0  0  0  0  0
  -23.0264   25.7284  -13.4688 H   0  0  0  0  0  0  0  0  0  0  0  0
  -22.1372   24.4093  -16.2612 H   0  0  0  0  0  0  0  0  0  0  0  0
  -23.8364   24.5616  -15.6737 H   0  0  0  0  0  0  0  0  0  0  0  0
  -23.5878   24.2462  -18.1557 H   0  0  0  0  0  0  0  0  0  0  0  0
  -24.4908   25.7402  -17.6253 H   0  0  0  0  0  0  0  0  0  0  0  0
  -21.6316   25.5737  -18.6264 H   0  0  0  0  0  0  0  0  0  0  0  0
  -23.1290   28.0264  -17.6920 H   0  0  0  0  0  0  0  0  0  0  0  0
  -21.1463   29.2598  -18.1988 H   0  0  0  0  0  0  0  0  0  0  0  0
  -20.3053   27.7371  -18.7417 H   0  0  0  0  0  0  0  0  0  0  0  0
  -22.6283   29.1649  -20.0598 H   0  0  0  0  0  0  0  0  0  0  0  0
  -20.9218   28.8895  -20.6732 H   0  0  0  0  0  0  0  0  0  0  0  0
  -24.0741   26.8473  -19.7401 H   0  0  0  0  0  0  0  0  0  0  0  0
  -22.8331   24.2698  -20.4911 H   0  0  0  0  0  0  0  0  0  0  0  0
  -24.5088   24.8144  -20.6590 H   0  0  0  0  0  0  0  0  0  0  0  0
  -22.3537   24.8845  -22.6248 H   0  0  0  0  0  0  0  0  0  0  0  0
  -24.0510   25.3257  -22.8695 H   0  0  0  0  0  0  0  0  0  0  0  0
  -23.5764   27.7446  -22.3324 H   0  0  0  0  0  0  0  0  0  0  0  0
  -20.4789   26.4238  -19.9143 H   0  0  0  0  0  0  0  0  0  0  0  0
  -20.9307   25.6403  -21.4663 H   0  0  0  0  0  0  0  0  0  0  0  0
  -20.2219   27.2909  -21.4663 H   0  0  0  0  0  0  0  0  0  0  0  0
  -20.0616   26.1262  -15.4361 H   0  0  0  0  0  0  0  0  0  0  0  0
  -20.5780   25.3894  -16.9908 H   0  0  0  0  0  0  0  0  0  0  0  0
  -19.6362   26.9190  -16.9908 H   0  0  0  0  0  0  0  0  0  0  0  0
  -21.9437   29.5882  -23.0821 H   0  0  0  0  0  0  0  0  0  0  0  0
  -21.0421   29.0915  -24.5542 H   0  0  0  0  0  0  0  0  0  0  0  0
  -22.8384   29.0792  -24.5542 H   0  0  0  0  0  0  0  0  0  0  0  0
  1  2  1  0
  2  3  1  0
  3  4  2  0
  3  5  1  0
  5  6  2  0
  6  7  1  0
  7  8  1  0
  8  9  1  0
  9 10  1  0
  1 11  1  0
  6 11  1  0
 10 11  1  0
 10 12  1  0
 12 13  1  0
 13 14  1  0
  9 15  1  0
 14 15  1  0
 15 16  1  0
 16 17  1  0
 14 18  1  0
 17 18  1  0
 14 19  1  6
 11 20  1  6
 18 21  1  0
 21 22  2  0
 21 23  1  0
  1 24  1  0
  1 25  1  0
  2 26  1  0
  2 27  1  0
  5 28  1  0
  7 29  1  0
  7 30  1  0
  8 31  1  0
  8 32  1  0
  9 33  1  6
 10 34  1  1
 12 35  1  0
 12 36  1  0
 13 37  1  0
 13 38  1  0
 15 39  1  1
 16 40  1  0
 16 41  1  0
 17 42  1  0
 17 43  1  0
 18 44  1  1
 19 45  1  0
 19 46  1  0
 19 47  1  0
 20 48  1  0
 20 49  1  0
 20 50  1  0
 23 51  1  0
 23 52  1  0
 23 53  1  0
M  END
$$$$
