PDB_DB00398_96
     RDKit          3D

 48 50  0  0  0  0  0  0  0  0999 V2000
   97.4390   32.6310   64.4430 C   0  0  0  0  0  0  0  0  0  0  0  0
   98.5430   32.6540   65.2530 C   0  0  0  0  0  0  0  0  0  0  0  0
   99.8240   32.8580   64.7400 C   0  0  0  0  0  0  0  0  0  0  0  0
   99.9800   33.0320   63.3840 C   0  0  0  0  0  0  0  0  0  0  0  0
   97.6190   31.4940   67.6390 C   0  0  0  0  0  0  0  0  0  0  0  0
   96.9410   30.6670   70.0600 C   0  0  0  0  0  0  0  0  0  0  0  0
   96.7630   31.0330   71.4700 C   0  0  0  0  0  0  0  0  0  0  0  0
   96.1330   30.1310   72.3250 C   0  0  0  0  0  0  0  0  0  0  0  0
   95.6740   28.9120   71.8440 C   0  0  0  0  0  0  0  0  0  0  0  0
   95.8410   28.5680   70.5010 C   0  0  0  0  0  0  0  0  0  0  0  0
   96.4710   29.4310   69.6120 C   0  0  0  0  0  0  0  0  0  0  0  0
   95.0620   28.0390   72.7080 O   0  0  0  0  0  0  0  0  0  0  0  0
   92.6430   28.7190   72.0820 C   0  0  0  0  0  0  0  0  0  0  0  0
   91.3230   28.2700   72.0590 C   0  0  0  0  0  0  0  0  0  0  0  0
   92.0960   26.0980   73.0070 C   0  0  0  0  0  0  0  0  0  0  0  0
   93.3500   26.5660   73.0110 C   0  0  0  0  0  0  0  0  0  0  0  0
   90.8040   23.7300   73.1400 N   0  0  0  0  0  0  0  0  0  0  0  0
   89.8590   23.5480   74.2000 C   0  0  0  0  0  0  0  0  0  0  0  0
   98.8590   33.0100   62.5450 C   0  0  0  0  0  0  0  0  0  0  0  0
   97.5340   32.7970   63.0920 C   0  0  0  0  0  0  0  0  0  0  0  0
   96.3730   32.7550   62.3340 C   0  0  0  0  0  0  0  0  0  0  0  0
   96.1820   33.9020   61.6910 F   0  0  0  0  0  0  0  0  0  0  0  0
   96.4840   31.7570   61.4570 F   0  0  0  0  0  0  0  0  0  0  0  0
   95.2670   32.5160   63.0470 F   0  0  0  0  0  0  0  0  0  0  0  0
   99.1700   33.2420   60.7940 Cl  0  0  0  0  0  0  0  0  0  0  0  0
   98.2940   32.4470   66.6210 N   0  0  0  0  0  0  0  0  0  0  0  0
   97.6960   31.6230   69.0510 N   0  0  0  0  0  0  0  0  0  0  0  0
   96.6860   30.9070   67.1450 O   0  0  0  0  0  0  0  0  0  0  0  0
   93.6740   27.7950   72.5920 C   0  0  0  0  0  0  0  0  0  0  0  0
   91.0430   26.9170   72.5320 N   0  0  0  0  0  0  0  0  0  0  0  0
   91.9130   24.6340   73.5250 C   0  0  0  0  0  0  0  0  0  0  0  0
   92.9960   23.9820   73.7350 O   0  0  0  0  0  0  0  0  0  0  0  0
   96.4481   32.4743   64.8941 H   0  0  0  0  0  0  0  0  0  0  0  0
  100.6965   32.8795   65.4095 H   0  0  0  0  0  0  0  0  0  0  0  0
  100.9829   33.1880   62.9600 H   0  0  0  0  0  0  0  0  0  0  0  0
   97.1209   32.0030   71.8455 H   0  0  0  0  0  0  0  0  0  0  0  0
   95.9986   30.3860   73.3866 H   0  0  0  0  0  0  0  0  0  0  0  0
   95.4678   27.5980   70.1406 H   0  0  0  0  0  0  0  0  0  0  0  0
   96.5989   29.1410   68.5586 H   0  0  0  0  0  0  0  0  0  0  0  0
   92.9067   29.7279   71.7318 H   0  0  0  0  0  0  0  0  0  0  0  0
   90.5131   28.9186   71.6938 H   0  0  0  0  0  0  0  0  0  0  0  0
   94.1529   25.9088   73.3763 H   0  0  0  0  0  0  0  0  0  0  0  0
   90.7223   23.2835   72.2154 H   0  0  0  0  0  0  0  0  0  0  0  0
   90.3710   23.6466   75.1686 H   0  0  0  0  0  0  0  0  0  0  0  0
   89.0701   24.3107   74.1229 H   0  0  0  0  0  0  0  0  0  0  0  0
   89.4098   22.5468   74.1229 H   0  0  0  0  0  0  0  0  0  0  0  0
   98.7229   33.2230   67.1451 H   0  0  0  0  0  0  0  0  0  0  0  0
   98.2754   32.3808   69.4396 H   0  0  0  0  0  0  0  0  0  0  0  0
  1  2  2  0
  2  3  1  0
  3  4  2  0
  6  7  2  0
  7  8  1  0
  8  9  2  0
  9 10  1  0
  6 11  1  0
 10 11  2  0
  9 12  1  0
 13 14  2  0
 15 16  1  0
 17 18  1  0
  4 19  1  0
  1 20  1  0
 19 20  2  0
 20 21  1  0
 21 22  1  0
 21 23  1  0
 21 24  1  0
 19 25  1  0
  2 26  1  0
  5 26  1  0
  5 27  1  0
  6 27  1  0
  5 28  2  0
 12 29  1  0
 13 29  1  0
 16 29  2  0
 14 30  1  0
 15 30  2  0
 15 31  1  0
 17 31  1  0
 31 32  2  0
  1 33  1  0
  3 34  1  0
  4 35  1  0
  7 36  1  0
  8 37  1  0
 10 38  1  0
 11 39  1  0
 13 40  1  0
 14 41  1  0
 16 42  1  0
 17 43  1  0
 18 44  1  0
 18 45  1  0
 18 46  1  0
 26 47  1  0
 27 48  1  0
M  END
$$$$
