PDB_DB01128_98
     RDKit          3D

 43 44  0  0  0  0  0  0  0  0999 V2000
   29.1830    1.6830    8.6540 C   0  0  0  0  0  0  0  0  0  0  0  0
   28.6980    1.5240    9.9420 C   0  0  0  0  0  0  0  0  0  0  0  0
   29.4370    0.8180   10.8600 C   0  0  0  0  0  0  0  0  0  0  0  0
   29.0730    0.5900   12.1410 F   0  0  0  0  0  0  0  0  0  0  0  0
   30.6620    0.3310   10.5270 C   0  0  0  0  0  0  0  0  0  0  0  0
   31.1460    0.4820    9.2570 C   0  0  0  0  0  0  0  0  0  0  0  0
   30.4400    1.1690    8.2950 C   0  0  0  0  0  0  0  0  0  0  0  0
   31.0770    1.3140    6.8140 S   0  0  0  0  0  0  0  0  0  0  0  0
   30.5120    2.5410    6.2920 O   0  0  0  0  0  0  0  0  0  0  0  0
   32.5380    1.1990    6.8040 O   0  0  0  0  0  0  0  0  0  0  0  0
   30.5410    0.0300    5.8510 C   0  0  0  0  0  0  0  0  0  0  0  0
   29.9670    0.4130    4.4840 C   0  0  1  0  0  0  0  0  0  0  0  0
   30.9580    1.0480    3.6520 O   0  0  0  0  0  0  0  0  0  0  0  0
   29.5980   -0.8590    3.6990 C   0  0  0  0  0  0  0  0  0  0  0  0
   28.7090    1.2640    4.6180 C   0  0  0  0  0  0  0  0  0  0  0  0
   27.6960    0.8240    5.1740 O   0  0  0  0  0  0  0  0  0  0  0  0
   28.8030    2.5130    4.1210 N   0  0  0  0  0  0  0  0  0  0  0  0
   27.7510    3.3810    4.0530 C   0  0  0  0  0  0  0  0  0  0  0  0
   26.4090    3.0490    4.2900 C   0  0  0  0  0  0  0  0  0  0  0  0
   28.0850    4.7320    3.8230 C   0  0  0  0  0  0  0  0  0  0  0  0
   27.1230    5.7230    3.7540 C   0  0  0  0  0  0  0  0  0  0  0  0
   25.8130    5.4500    4.0110 C   0  0  0  0  0  0  0  0  0  0  0  0
   25.0340    6.4510    3.8890 C   0  0  0  0  0  0  0  0  0  0  0  0
   24.2970    7.3310    3.7570 N   0  0  0  0  0  0  0  0  0  0  0  0
   25.4210    4.0440    4.2510 C   0  0  0  0  0  0  0  0  0  0  0  0
   23.9780    3.7180    4.5350 C   0  0  0  0  0  0  0  0  0  0  0  0
   23.7490    3.6520    5.8010 F   0  0  0  0  0  0  0  0  0  0  0  0
   23.1520    4.6430    4.1270 F   0  0  0  0  0  0  0  0  0  0  0  0
   23.7400    2.5570    4.0500 F   0  0  0  0  0  0  0  0  0  0  0  0
   28.5783    2.2165    7.9058 H   0  0  0  0  0  0  0  0  0  0  0  0
   27.7290    1.9595   10.2273 H   0  0  0  0  0  0  0  0  0  0  0  0
   31.2678   -0.1880   11.2844 H   0  0  0  0  0  0  0  0  0  0  0  0
   32.1215    0.0447    8.9980 H   0  0  0  0  0  0  0  0  0  0  0  0
   31.3943   -0.6432    5.6815 H   0  0  0  0  0  0  0  0  0  0  0  0
   29.7092   -0.4301    6.4046 H   0  0  0  0  0  0  0  0  0  0  0  0
   31.6385    1.4841    4.2237 H   0  0  0  0  0  0  0  0  0  0  0  0
   29.3628   -1.6698    4.4042 H   0  0  0  0  0  0  0  0  0  0  0  0
   28.7212   -0.6578    3.0660 H   0  0  0  0  0  0  0  0  0  0  0  0
   30.4464   -1.1582    3.0660 H   0  0  0  0  0  0  0  0  0  0  0  0
   29.7190    2.8305    3.7732 H   0  0  0  0  0  0  0  0  0  0  0  0
   26.1310    2.0070    4.5067 H   0  0  0  0  0  0  0  0  0  0  0  0
   29.1427    5.0055    3.6946 H   0  0  0  0  0  0  0  0  0  0  0  0
   27.4200    6.7480    3.4874 H   0  0  0  0  0  0  0  0  0  0  0  0
  1  2  2  0
  2  3  1  0
  3  4  1  0
  3  5  2  0
  5  6  1  0
  1  7  1  0
  6  7  2  0
  7  8  1  0
  8  9  2  0
  8 10  2  0
  8 11  1  0
 11 12  1  0
 12 13  1  6
 12 14  1  0
 12 15  1  0
 15 16  2  0
 15 17  1  0
 17 18  1  0
 18 19  2  0
 18 20  1  0
 20 21  2  0
 21 22  1  0
 22 23  1  0
 23 24  3  0
 19 25  1  0
 22 25  2  0
 25 26  1  0
 26 27  1  0
 26 28  1  0
 26 29  1  0
  1 30  1  0
  2 31  1  0
  5 32  1  0
  6 33  1  0
 11 34  1  0
 11 35  1  0
 13 36  1  0
 14 37  1  0
 14 38  1  0
 14 39  1  0
 17 40  1  0
 19 41  1  0
 20 42  1  0
 21 43  1  0
M  END
>  <PDBID>  (1) 
4OJB

>  <PDB ID>  (1) 
4OJB

>  <Generic Name>  (1) 
Bicalutamide

>  <Brand Name>  (1) 
Accel-bicalutamide Tablets USP#Ach-bicalutamide#Act Bicalutamide#Ag-bicalutamide#Apo-bicalutamide#Ava-bicalutamide#Bicalutamide#Bicalutamide Tablets#Casodex#Dom-bicalutamide#Jamp-bicalutamide#Med-bicalutamide#Mylan-bicalutamide#Ntp-bicalutamide#Nu-bicalutamide#PHL-bicalutamide#PMS-bicalutamide#Pro-bicalutamide - 50#Ran-bicalutamide#Ratio-bicalutamide#Sandoz Bicalutamide#Teva-bicalutamide#Van-bicalutamide

>  <DrugBank ID>  (1) 
DB01128

>  <ATC Codes>  (1) 
L02BB03

>  <Ligand ID>  (1) 
0U9,198

>  <Target Name>  (1) 
Androgen receptor

>  <UniProt ID>  (1) 
P10275

>  <PDB ID.1>  (1) 
4OJB

>  <Seq. Identity>  (1) 
99%

$$$$
