PDB_DB00205_99
     RDKit          3D

 30 31  0  0  0  0  0  0  0  0999 V2000
  -21.8540   24.6870    7.1500 N   0  0  0  0  0  0  0  0  0  0  0  0
  -22.6600   23.7000    7.7340 C   0  0  0  0  0  0  0  0  0  0  0  0
  -20.4650   24.6640    7.3240 C   0  0  0  0  0  0  0  0  0  0  0  0
  -19.7890   23.5690    8.1460 C   0  0  0  0  0  0  0  0  0  0  0  0
  -20.7980   22.5570    8.7340 C   0  0  0  0  0  0  0  0  0  0  0  0
  -22.1620   22.6550    8.5120 N   0  0  0  0  0  0  0  0  0  0  0  0
  -18.3540   23.4550    8.3640 C   0  0  0  0  0  0  0  0  0  0  0  0
  -17.6240   24.1240    9.4060 C   0  0  0  0  0  0  0  0  0  0  0  0
  -16.2020   23.9550    9.5710 C   0  0  0  0  0  0  0  0  0  0  0  0
  -15.4560   23.0660    8.6460 C   0  0  0  0  0  0  0  0  0  0  0  0
  -16.1250   22.3780    7.5920 C   0  0  0  0  0  0  0  0  0  0  0  0
  -17.5570   22.5690    7.4520 C   0  0  0  0  0  0  0  0  0  0  0  0
  -19.6990   25.6200    6.7570 N   0  0  0  0  0  0  0  0  0  0  0  0
  -24.0360   23.7490    7.5470 N   0  0  0  0  0  0  0  0  0  0  0  0
  -20.3160   21.4060    9.5830 C   0  0  0  0  0  0  0  0  0  0  0  0
  -20.4580   20.0020    9.0360 C   0  0  0  0  0  0  0  0  0  0  0  0
  -13.8440   22.9460    8.9410 Cl  0  0  0  0  0  0  0  0  0  0  0  0
  -18.1667   24.7846   10.0981 H   0  0  0  0  0  0  0  0  0  0  0  0
  -15.6726   24.4822   10.3783 H   0  0  0  0  0  0  0  0  0  0  0  0
  -15.5719   21.7212    6.9045 H   0  0  0  0  0  0  0  0  0  0  0  0
  -18.0811   22.0411    6.6417 H   0  0  0  0  0  0  0  0  0  0  0  0
  -18.6770   25.6039    6.8844 H   0  0  0  0  0  0  0  0  0  0  0  0
  -20.1365   26.3655    6.1969 H   0  0  0  0  0  0  0  0  0  0  0  0
  -24.6393   23.0297    7.9708 H   0  0  0  0  0  0  0  0  0  0  0  0
  -24.4527   24.5046    6.9846 H   0  0  0  0  0  0  0  0  0  0  0  0
  -19.2466   21.5721    9.7800 H   0  0  0  0  0  0  0  0  0  0  0  0
  -20.9762   21.4226   10.4627 H   0  0  0  0  0  0  0  0  0  0  0  0
  -20.5301   19.2889    9.8705 H   0  0  0  0  0  0  0  0  0  0  0  0
  -21.3671   19.9387    8.4200 H   0  0  0  0  0  0  0  0  0  0  0  0
  -19.5800   19.7579    8.4200 H   0  0  0  0  0  0  0  0  0  0  0  0
  1  2  2  0
  1  3  1  0
  3  4  2  0
  4  5  1  0
  2  6  1  0
  5  6  2  0
  4  7  1  0
  7  8  2  0
  8  9  1  0
  9 10  2  0
 10 11  1  0
  7 12  1  0
 11 12  2  0
  3 13  1  0
  2 14  1  0
  5 15  1  0
 15 16  1  0
 10 17  1  0
  8 18  1  0
  9 19  1  0
 11 20  1  0
 12 21  1  0
 13 22  1  0
 13 23  1  0
 14 24  1  0
 14 25  1  0
 15 26  1  0
 15 27  1  0
 16 28  1  0
 16 29  1  0
 16 30  1  0
M  END
$$$$
