PDB_DB01283_98
     RDKit          3D

 94 96  0  0  0  0  0  0  0  0999 V2000
   26.7440  -37.2070  -17.4740 O   0  0  0  0  0  0  0  0  0  0  0  0
   26.5050  -38.1630  -16.5830 C   0  0  0  0  0  0  0  0  0  0  0  0
   27.4440  -38.7270  -16.0510 O   0  0  0  0  0  0  0  0  0  0  0  0
   25.0920  -38.5510  -16.2330 C   0  0  0  0  0  0  0  0  0  0  0  0
   24.7630  -39.8800  -16.8640 C   0  0  0  0  0  0  0  0  0  0  0  0
   24.4520  -39.9540  -18.2130 C   0  0  0  0  0  0  0  0  0  0  0  0
   24.1480  -41.1830  -18.7820 C   0  0  0  0  0  0  0  0  0  0  0  0
   23.8120  -41.2510  -20.2460 C   0  0  0  0  0  0  0  0  0  0  0  0
   24.1470  -42.3470  -18.0180 C   0  0  0  0  0  0  0  0  0  0  0  0
   24.4530  -42.3240  -16.6610 C   0  0  0  0  0  0  0  0  0  0  0  0
   24.7610  -41.1180  -16.0480 C   0  0  0  0  0  0  0  0  0  0  0  0
   25.0620  -41.0470  -14.7330 N   0  0  0  0  0  0  0  0  0  0  0  0
   24.9130  -42.0990  -13.8980 C   0  0  0  0  0  0  0  0  0  0  0  0
   26.0960  -42.7460  -13.2830 C   0  0  0  0  0  0  0  0  0  0  0  0
   27.7480  -42.1480  -13.6480 Cl  0  0  0  0  0  0  0  0  0  0  0  0
   25.9080  -43.8210  -12.4230 C   0  0  0  0  0  0  0  0  0  0  0  0
   24.6290  -44.2920  -12.1320 C   0  0  0  0  0  0  0  0  0  0  0  0
   23.4850  -43.7160  -12.6820 C   0  0  0  0  0  0  0  0  0  0  0  0
   23.5730  -42.6360  -13.5520 C   0  0  0  0  0  0  0  0  0  0  0  0
   22.4600  -42.0950  -14.0770 F   0  0  0  0  0  0  0  0  0  0  0  0
   67.1890  -48.2020  -26.0460 O   0  0  0  0  0  0  0  0  0  0  0  0
   67.1950  -48.8640  -24.8950 C   0  0  0  0  0  0  0  0  0  0  0  0
   66.1400  -49.0250  -24.3120 O   0  0  0  0  0  0  0  0  0  0  0  0
   68.4770  -49.4130  -24.3170 C   0  0  0  0  0  0  0  0  0  0  0  0
   68.8840  -48.6200  -23.0990 C   0  0  0  0  0  0  0  0  0  0  0  0
   69.2340  -47.2820  -23.2140 C   0  0  0  0  0  0  0  0  0  0  0  0
   69.6130  -46.5680  -22.0830 C   0  0  0  0  0  0  0  0  0  0  0  0
   69.9880  -45.1170  -22.2190 C   0  0  0  0  0  0  0  0  0  0  0  0
   69.6510  -47.1740  -20.8310 C   0  0  0  0  0  0  0  0  0  0  0  0
   69.3120  -48.5120  -20.6660 C   0  0  0  0  0  0  0  0  0  0  0  0
   68.9290  -49.2680  -21.7660 C   0  0  0  0  0  0  0  0  0  0  0  0
   68.5920  -50.5710  -21.6510 N   0  0  0  0  0  0  0  0  0  0  0  0
   68.6250  -51.2340  -20.4730 C   0  0  0  0  0  0  0  0  0  0  0  0
   67.3700  -51.6710  -19.8160 C   0  0  0  0  0  0  0  0  0  0  0  0
   65.7760  -51.3170  -20.5620 Cl  0  0  0  0  0  0  0  0  0  0  0  0
   67.4440  -52.3580  -18.6100 C   0  0  0  0  0  0  0  0  0  0  0  0
   68.6740  -52.6390  -18.0190 C   0  0  0  0  0  0  0  0  0  0  0  0
   69.8810  -52.2540  -18.5980 C   0  0  0  0  0  0  0  0  0  0  0  0
   69.9080  -51.5650  -19.8040 C   0  0  0  0  0  0  0  0  0  0  0  0
   71.0810  -51.1950  -20.3470 F   0  0  0  0  0  0  0  0  0  0  0  0
   26.9552  -36.3622  -17.0030 H   0  0  0  0  0  0  0  0  0  0  0  0
   26.5097  -38.9136  -17.3871 H   0  0  0  0  0  0  0  0  0  0  0  0
   27.3489  -38.6699  -15.0672 H   0  0  0  0  0  0  0  0  0  0  0  0
   24.9938  -38.6300  -15.1402 H   0  0  0  0  0  0  0  0  0  0  0  0
   24.3982  -37.7852  -16.6100 H   0  0  0  0  0  0  0  0  0  0  0  0
   23.6995  -39.7292  -16.6271 H   0  0  0  0  0  0  0  0  0  0  0  0
   23.5805  -39.3028  -18.3757 H   0  0  0  0  0  0  0  0  0  0  0  0
   25.3913  -39.6675  -18.7086 H   0  0  0  0  0  0  0  0  0  0  0  0
   23.0848  -41.0297  -18.5451 H   0  0  0  0  0  0  0  0  0  0  0  0
   22.7404  -41.4679  -20.3666 H   0  0  0  0  0  0  0  0  0  0  0  0
   24.0468  -40.2871  -20.7212 H   0  0  0  0  0  0  0  0  0  0  0  0
   24.4031  -42.0477  -20.7212 H   0  0  0  0  0  0  0  0  0  0  0  0
   23.1361  -42.7726  -18.1014 H   0  0  0  0  0  0  0  0  0  0  0  0
   24.9914  -42.9101  -18.4422 H   0  0  0  0  0  0  0  0  0  0  0  0
   23.5834  -42.7391  -16.1304 H   0  0  0  0  0  0  0  0  0  0  0  0
   25.3936  -42.8910  -16.5999 H   0  0  0  0  0  0  0  0  0  0  0  0
   23.6967  -40.9638  -15.8166 H   0  0  0  0  0  0  0  0  0  0  0  0
   26.0549  -40.7781  -14.6805 H   0  0  0  0  0  0  0  0  0  0  0  0
   24.9811  -42.7875  -14.7532 H   0  0  0  0  0  0  0  0  0  0  0  0
   26.1591  -43.4398  -14.1343 H   0  0  0  0  0  0  0  0  0  0  0  0
   26.4624  -44.6674  -12.8545 H   0  0  0  0  0  0  0  0  0  0  0  0
   26.2436  -43.4187  -11.4558 H   0  0  0  0  0  0  0  0  0  0  0  0
   24.6153  -45.3501  -12.4323 H   0  0  0  0  0  0  0  0  0  0  0  0
   24.5263  -44.0359  -11.0672 H   0  0  0  0  0  0  0  0  0  0  0  0
   22.9645  -44.5160  -13.2289 H   0  0  0  0  0  0  0  0  0  0  0  0
   22.9894  -43.2778  -11.8031 H   0  0  0  0  0  0  0  0  0  0  0  0
   23.6300  -43.3279  -14.4052 H   0  0  0  0  0  0  0  0  0  0  0  0
   67.1802  -47.2284  -25.8667 H   0  0  0  0  0  0  0  0  0  0  0  0
   67.3506  -47.9197  -24.3527 H   0  0  0  0  0  0  0  0  0  0  0  0
   66.2961  -49.0012  -23.3347 H   0  0  0  0  0  0  0  0  0  0  0  0
   68.3254  -50.4644  -24.0315 H   0  0  0  0  0  0  0  0  0  0  0  0
   69.2715  -49.3390  -25.0742 H   0  0  0  0  0  0  0  0  0  0  0  0
   69.9330  -48.9084  -23.2618 H   0  0  0  0  0  0  0  0  0  0  0  0
   70.0767  -47.2325  -23.9193 H   0  0  0  0  0  0  0  0  0  0  0  0
   68.2946  -46.7976  -23.5189 H   0  0  0  0  0  0  0  0  0  0  0  0
   70.6612  -46.8549  -22.2532 H   0  0  0  0  0  0  0  0  0  0  0  0
   70.1028  -44.6727  -21.2193 H   0  0  0  0  0  0  0  0  0  0  0  0
   70.9372  -45.0336  -22.7686 H   0  0  0  0  0  0  0  0  0  0  0  0
   69.1981  -44.5841  -22.7686 H   0  0  0  0  0  0  0  0  0  0  0  0
   70.6825  -47.0667  -20.4643 H   0  0  0  0  0  0  0  0  0  0  0  0
   68.8458  -46.6553  -20.2901 H   0  0  0  0  0  0  0  0  0  0  0  0
   70.1884  -49.0107  -20.2265 H   0  0  0  0  0  0  0  0  0  0  0  0
   68.3982  -48.4699  -20.0551 H   0  0  0  0  0  0  0  0  0  0  0  0
   69.9784  -49.5492  -21.9381 H   0  0  0  0  0  0  0  0  0  0  0  0
   67.6233  -50.6460  -21.9930 H   0  0  0  0  0  0  0  0  0  0  0  0
   68.5745  -50.2770  -19.9330 H   0  0  0  0  0  0  0  0  0  0  0  0
   67.3251  -50.7183  -19.2680 H   0  0  0  0  0  0  0  0  0  0  0  0
   66.8729  -51.7678  -17.8782 H   0  0  0  0  0  0  0  0  0  0  0  0
   67.0699  -53.3573  -18.8773 H   0  0  0  0  0  0  0  0  0  0  0  0
   68.6493  -52.1735  -17.0227 H   0  0  0  0  0  0  0  0  0  0  0  0
   68.7212  -53.7351  -18.0992 H   0  0  0  0  0  0  0  0  0  0  0  0
   70.3917  -51.6160  -17.8617 H   0  0  0  0  0  0  0  0  0  0  0  0
   70.3424  -53.2177  -18.8594 H   0  0  0  0  0  0  0  0  0  0  0  0
   69.8703  -50.6101  -19.2593 H   0  0  0  0  0  0  0  0  0  0  0  0
  1  2  1  0
  2  3  1  0
  2  4  1  0
  4  5  1  0
  5  6  1  0
  6  7  1  0
  7  8  1  0
  7  9  1  0
  9 10  1  0
  5 11  1  0
 10 11  1  0
 11 12  1  0
 12 13  1  0
 13 14  1  0
 14 15  1  0
 14 16  1  0
 16 17  1  0
 17 18  1  0
 13 19  1  0
 18 19  1  0
 19 20  1  0
 21 22  1  0
 22 23  1  0
 22 24  1  0
 24 25  1  0
 25 26  1  0
 26 27  1  0
 27 28  1  0
 27 29  1  0
 29 30  1  0
 25 31  1  0
 30 31  1  0
 31 32  1  0
 32 33  1  0
 33 34  1  0
 34 35  1  0
 34 36  1  0
 36 37  1  0
 37 38  1  0
 33 39  1  0
 38 39  1  0
 39 40  1  0
  1 41  1  0
  2 42  1  0
  3 43  1  0
  4 44  1  0
  4 45  1  0
  5 46  1  0
  6 47  1  0
  6 48  1  0
  7 49  1  0
  8 50  1  0
  8 51  1  0
  8 52  1  0
  9 53  1  0
  9 54  1  0
 10 55  1  0
 10 56  1  0
 11 57  1  0
 12 58  1  0
 13 59  1  0
 14 60  1  0
 16 61  1  0
 16 62  1  0
 17 63  1  0
 17 64  1  0
 18 65  1  0
 18 66  1  0
 19 67  1  0
 21 68  1  0
 22 69  1  0
 23 70  1  0
 24 71  1  0
 24 72  1  0
 25 73  1  0
 26 74  1  0
 26 75  1  0
 27 76  1  0
 28 77  1  0
 28 78  1  0
 28 79  1  0
 29 80  1  0
 29 81  1  0
 30 82  1  0
 30 83  1  0
 31 84  1  0
 32 85  1  0
 33 86  1  0
 34 87  1  0
 36 88  1  0
 36 89  1  0
 37 90  1  0
 37 91  1  0
 38 92  1  0
 38 93  1  0
 39 94  1  0
M  END
>  <PDBID>  (1) 
4RRX

>  <PDB ID>  (1) 
4RRX

>  <Generic Name>  (1) 
Lumiracoxib

>  <Brand Name>  (1) 
Prexige

>  <DrugBank ID>  (1) 
DB01283

>  <ATC Codes>  (1) 
M01AH06

>  <Ligand ID>  (1) 
LUR

>  <Target Name>  (1) 
Prostaglandin G/H synthase 1

>  <UniProt ID>  (1) 
P23219

>  <PDB ID.1>  (1) 
4RRX

>  <Seq. Identity>  (1) 
62%

$$$$
