PDB_DB00907_99
     RDKit          3D

 53 55  0  0  0  0  0  0  0  0999 V2000
  203.9500  280.4220   26.1460 C   0  0  0  0  0  0  0  0  0  0  0  0
  203.8500  280.9500   27.4900 O   0  0  0  0  0  0  0  0  0  0  0  0
  202.5740  281.5850   27.7530 C   0  0  0  0  0  0  0  0  0  0  0  0
  201.6400  281.3850   26.9880 O   0  0  0  0  0  0  0  0  0  0  0  0
  202.4100  282.4810   28.9270 C   0  0  2  0  0  0  0  0  0  0  0  0
  201.1890  282.1150   29.6700 C   0  0  2  0  0  0  0  0  0  0  0  0
  200.0830  282.4250   29.0370 N   0  0  0  0  0  0  0  0  0  0  0  0
  198.9570  281.7420   29.6770 C   0  0  0  0  0  0  0  0  0  0  0  0
  201.1000  283.0280   30.9330 C   0  0  0  0  0  0  0  0  0  0  0  0
  200.2040  284.1060   30.5040 C   0  0  0  0  0  0  0  0  0  0  0  0
  199.8590  283.7220   29.0430 C   0  0  1  0  0  0  0  0  0  0  0  0
  200.7850  284.4920   28.1260 C   0  0  0  0  0  0  0  0  0  0  0  0
  202.3250  284.0570   28.3380 C   0  0  2  0  0  0  0  0  0  0  0  0
  202.9080  284.0900   27.2160 O   0  0  0  0  0  0  0  0  0  0  0  0
  204.3300  284.5130   27.2550 C   0  0  0  0  0  0  0  0  0  0  0  0
  204.9490  284.4890   28.2930 O   0  0  0  0  0  0  0  0  0  0  0  0
  204.9940  284.9680   25.9830 C   0  0  0  0  0  0  0  0  0  0  0  0
  206.3490  285.2200   25.9550 C   0  0  0  0  0  0  0  0  0  0  0  0
  206.9270  285.6290   24.7840 C   0  0  0  0  0  0  0  0  0  0  0  0
  206.1570  285.7870   23.6380 C   0  0  0  0  0  0  0  0  0  0  0  0
  204.8170  285.5310   23.6710 C   0  0  0  0  0  0  0  0  0  0  0  0
  204.2310  285.1190   24.8450 C   0  0  0  0  0  0  0  0  0  0  0  0
  204.1545  279.3421   26.1906 H   0  0  0  0  0  0  0  0  0  0  0  0
  203.0033  280.5942   25.6130 H   0  0  0  0  0  0  0  0  0  0  0  0
  204.7682  280.9285   25.6130 H   0  0  0  0  0  0  0  0  0  0  0  0
  202.8816  282.4525   27.1507 H   0  0  0  0  0  0  0  0  0  0  0  0
  200.8176  281.2089   27.5102 H   0  0  0  0  0  0  0  0  0  0  0  0
  203.2540  282.3881   29.6264 H   0  0  0  0  0  0  0  0  0  0  0  0
  201.2627  281.0322   29.8494 H   0  0  0  0  0  0  0  0  0  0  0  0
  199.0626  281.8061   30.7700 H   0  0  0  0  0  0  0  0  0  0  0  0
  198.0154  282.2213   29.3709 H   0  0  0  0  0  0  0  0  0  0  0  0
  198.9470  280.6855   29.3709 H   0  0  0  0  0  0  0  0  0  0  0  0
  200.6765  282.4795   31.7873 H   0  0  0  0  0  0  0  0  0  0  0  0
  202.0810  283.3917   31.2726 H   0  0  0  0  0  0  0  0  0  0  0  0
  199.2984  284.1374   31.1276 H   0  0  0  0  0  0  0  0  0  0  0  0
  200.6584  285.1039   30.5911 H   0  0  0  0  0  0  0  0  0  0  0  0
  198.8383  283.9546   28.7052 H   0  0  0  0  0  0  0  0  0  0  0  0
  200.4987  284.2956   27.0822 H   0  0  0  0  0  0  0  0  0  0  0  0
  200.6933  285.5623   28.3629 H   0  0  0  0  0  0  0  0  0  0  0  0
  202.7996  284.7431   29.0550 H   0  0  0  0  0  0  0  0  0  0  0  0
  204.0169  285.5462   27.4656 H   0  0  0  0  0  0  0  0  0  0  0  0
  204.3171  284.5135   29.0547 H   0  0  0  0  0  0  0  0  0  0  0  0
  204.8048  286.0159   26.2591 H   0  0  0  0  0  0  0  0  0  0  0  0
  206.5459  286.0034   26.7016 H   0  0  0  0  0  0  0  0  0  0  0  0
  206.8026  284.2353   26.1412 H   0  0  0  0  0  0  0  0  0  0  0  0
  207.3954  286.6035   24.9866 H   0  0  0  0  0  0  0  0  0  0  0  0
  207.5877  284.7883   24.5258 H   0  0  0  0  0  0  0  0  0  0  0  0
  206.2716  286.8342   23.3214 H   0  0  0  0  0  0  0  0  0  0  0  0
  206.5448  285.0074   22.9658 H   0  0  0  0  0  0  0  0  0  0  0  0
  204.3076  286.4577   23.3682 H   0  0  0  0  0  0  0  0  0  0  0  0
  204.7063  284.6591   23.0095 H   0  0  0  0  0  0  0  0  0  0  0  0
  203.7675  284.1423   24.6422 H   0  0  0  0  0  0  0  0  0  0  0  0
  203.5625  285.9547   25.0993 H   0  0  0  0  0  0  0  0  0  0  0  0
  1  2  1  0
  2  3  1  0
  3  4  1  0
  3  5  1  0
  5  6  1  0
  6  7  1  0
  7  8  1  0
  6  9  1  0
  9 10  1  0
  7 11  1  0
 10 11  1  0
 11 12  1  0
  5 13  1  0
 12 13  1  0
 13 14  1  0
 14 15  1  0
 15 16  1  0
 15 17  1  0
 17 18  1  0
 18 19  1  0
 19 20  1  0
 20 21  1  0
 17 22  1  0
 21 22  1  0
  1 23  1  0
  1 24  1  0
  1 25  1  0
  3 26  1  0
  4 27  1  0
  5 28  1  1
  6 29  1  1
  8 30  1  0
  8 31  1  0
  8 32  1  0
  9 33  1  0
  9 34  1  0
 10 35  1  0
 10 36  1  0
 11 37  1  6
 12 38  1  0
 12 39  1  0
 13 40  1  1
 15 41  1  0
 16 42  1  0
 17 43  1  0
 18 44  1  0
 18 45  1  0
 19 46  1  0
 19 47  1  0
 20 48  1  0
 20 49  1  0
 21 50  1  0
 21 51  1  0
 22 52  1  0
 22 53  1  0
M  END
>  <PDBID>  (1) 
4XP4

>  <PDB ID>  (1) 
4XP4

>  <Generic Name>  (1) 
Cocaine

>  <Brand Name>  (1) 
Cocaine Hydrochloride#Cocaine Hydrochloride Top Sol 40mg/ml#Cocaine Hydrochloride Topical Sol 10%#PMS-cocaine Hydrochloride  Topical Sol 4%#PMS-cocaine Hydrochloride Topical Sol 10%

>  <DrugBank ID>  (1) 
DB00907

>  <ATC Codes>  (1) 
S01HA01#N01BC01#R02AD03#S02DA02

>  <Ligand ID>  (1) 
COC

>  <Target Name>  (1) 
Sodium-dependent noradrenaline transporter

>  <UniProt ID>  (1) 
P23975

>  <PDB ID.1>  (1) 
4XP4

>  <Seq. Identity>  (1) 
58%

$$$$
