PDB_DB00703_99
     RDKit          3D

 30 30  0  0  0  0  0  0  0  0999 V2000
   36.3600   17.8050  -15.7860 N   0  0  0  0  0  0  0  0  0  0  0  0
   34.9080   17.3530  -16.1370 S   0  0  1  0  0  4  0  0  0  0  0  0
   34.6790   16.0280  -15.6410 O   0  0  0  0  0  0  0  0  0  0  0  0
   34.0480   18.4260  -15.8230 O   0  0  0  0  0  0  0  0  0  0  0  0
   34.8760   17.1320  -17.9080 C   0  0  1  0  0  0  0  0  0  0  0  0
   34.2110   15.7370  -18.6070 S   0  0  0  0  0  0  0  0  0  0  0  0
   34.3950   16.5430  -20.0990 C   0  0  2  0  0  0  0  0  0  0  0  0
   34.9250   17.7320  -20.0140 N   0  0  0  0  0  0  0  0  0  0  0  0
   35.2870   18.6210  -21.1220 C   0  0  0  0  0  0  0  0  0  0  0  0
   35.1730   18.1010  -18.7010 N   0  0  0  0  0  0  0  0  0  0  0  0
   33.5060   16.0660  -21.0220 N   0  0  0  0  0  0  0  0  0  0  0  0
   32.7970   15.0930  -21.1080 C   0  0  0  0  0  0  0  0  0  0  0  0
   32.7640   14.2200  -20.2590 O   0  0  0  0  0  0  0  0  0  0  0  0
   31.9350   14.8680  -22.2870 C   0  0  0  0  0  0  0  0  0  0  0  0
   36.4709   17.8395  -14.7626 H   0  0  0  0  0  0  0  0  0  0  0  0
   37.0336   17.1339  -16.1819 H   0  0  0  0  0  0  0  0  0  0  0  0
   34.6813   16.0412  -14.6511 H   0  0  0  0  0  0  0  0  0  0  0  0
   33.9767   18.5149  -14.8396 H   0  0  0  0  0  0  0  0  0  0  0  0
   35.8771   16.7525  -17.6552 H   0  0  0  0  0  0  0  0  0  0  0  0
   35.2559   16.3225  -20.7472 H   0  0  0  0  0  0  0  0  0  0  0  0
   35.6732   19.5693  -20.7201 H   0  0  0  0  0  0  0  0  0  0  0  0
   36.0616   18.1417  -21.7387 H   0  0  0  0  0  0  0  0  0  0  0  0
   34.3979   18.8191  -21.7387 H   0  0  0  0  0  0  0  0  0  0  0  0
   34.6003   18.9236  -18.4639 H   0  0  0  0  0  0  0  0  0  0  0  0
   32.8357   16.8428  -21.1126 H   0  0  0  0  0  0  0  0  0  0  0  0
   33.6004   14.5538  -21.6312 H   0  0  0  0  0  0  0  0  0  0  0  0
   32.7796   14.6336  -19.3596 H   0  0  0  0  0  0  0  0  0  0  0  0
   30.9205   14.6032  -21.9543 H   0  0  0  0  0  0  0  0  0  0  0  0
   31.8946   15.7857  -22.8922 H   0  0  0  0  0  0  0  0  0  0  0  0
   32.3483   14.0476  -22.8922 H   0  0  0  0  0  0  0  0  0  0  0  0
  1  2  1  0
  2  3  1  1
  2  4  1  0
  2  5  1  0
  5  6  1  0
  6  7  1  0
  7  8  1  0
  8  9  1  0
  5 10  1  0
  8 10  1  0
  7 11  1  0
 11 12  1  0
 12 13  1  0
 12 14  1  0
  1 15  1  0
  1 16  1  0
  3 17  1  0
  4 18  1  0
  5 19  1  1
  7 20  1  6
  9 21  1  0
  9 22  1  0
  9 23  1  0
 10 24  1  0
 11 25  1  0
 12 26  1  0
 13 27  1  0
 14 28  1  0
 14 29  1  0
 14 30  1  0
M  END
>  <PDBID>  (1) 
1BZM

>  <PDB ID>  (1) 
1BZM

>  <Generic Name>  (1) 
Methazolamide

>  <Brand Name>  (1) 
Methazolamide#Neptazane#Neptazane Tablets 25mg#Neptazane Tablets 25mg USP#Neptazane Tablets 50mg#Naptazane

>  <DrugBank ID>  (1) 
DB00703

>  <ATC Codes>  (1) 
S01EC05

>  <Ligand ID>  (1) 
MZM

>  <Target Name>  (1) 
Carbonic anhydrase 1

>  <UniProt ID>  (1) 
P00915

>  <PDB ID.1>  (1) 
1BZM

>  <Seq. Identity>  (1) 
100%

$$$$
