PDB_DB00834_99
     RDKit          3D

 83 87  0  0  0  0  0  0  0  0999 V2000
   13.5700    7.3990    2.9280 O   0  0  0  0  0  0  0  0  0  0  0  0
   13.0500    6.7680    3.8260 C   0  0  0  0  0  0  0  0  0  0  0  0
   11.5590    6.8400    3.9510 C   0  0  0  0  0  0  0  0  0  0  0  0
   13.8510    6.0290    4.7120 C   0  0  0  0  0  0  0  0  0  0  0  0
   13.3270    5.4180    5.7940 C   0  0  0  0  0  0  0  0  0  0  0  0
   14.2400    4.5480    6.6190 C   0  0  0  0  0  0  0  0  0  0  0  0
   11.9040    5.5750    6.1810 C   0  0  1  0  0  0  0  0  0  0  0  0
   10.9900    6.4020    5.2970 C   0  0  0  0  0  0  0  0  0  0  0  0
   11.4250    5.0620    7.3410 C   0  0  0  0  0  0  0  0  0  0  0  0
    9.9510    5.2980    7.7360 C   0  0  1  0  0  0  0  0  0  0  0  0
    8.9960    4.3080    7.0470 C   0  0  1  0  0  0  0  0  0  0  0  0
    9.4150    3.3370    6.1400 C   0  0  0  0  0  0  0  0  0  0  0  0
    8.5020    2.4920    5.5140 C   0  0  0  0  0  0  0  0  0  0  0  0
    7.1330    2.5810    5.7760 C   0  0  0  0  0  0  0  0  0  0  0  0
    6.2080    1.7330    5.1350 N   0  0  0  0  0  0  0  0  0  0  0  0
    6.5760    0.4340    4.5630 C   0  0  0  0  0  0  0  0  0  0  0  0
    4.9060    2.2840    4.7370 C   0  0  0  0  0  0  0  0  0  0  0  0
    6.7050    3.5560    6.6660 C   0  0  0  0  0  0  0  0  0  0  0  0
    7.6300    4.4050    7.2770 C   0  0  0  0  0  0  0  0  0  0  0  0
    9.7350    5.4050    9.2750 C   0  0  0  0  0  0  0  0  0  0  0  0
   10.4890    4.3300   10.0310 C   0  0  2  0  0  0  0  0  0  0  0  0
   10.0060    2.9410    9.5910 C   0  0  0  0  0  0  0  0  0  0  0  0
   10.5030    4.4320   11.5660 C   0  0  1  0  0  0  0  0  0  0  0  0
   10.7170    5.7960   12.0840 C   0  0  0  0  0  0  0  0  0  0  0  0
   10.9420    6.8570   12.5160 C   0  0  0  0  0  0  0  0  0  0  0  0
   11.2490    8.1660   13.1150 C   0  0  0  0  0  0  0  0  0  0  0  0
    9.3380    3.8990   12.1630 O   0  0  0  0  0  0  0  0  0  0  0  0
   11.7210    3.5760   11.9630 C   0  0  0  0  0  0  0  0  0  0  0  0
   12.6580    3.5960   10.7300 C   0  0  0  0  0  0  0  0  0  0  0  0
   11.9900    4.5410    9.7220 C   0  0  1  0  0  0  0  0  0  0  0  0
   12.3190    4.2570    8.2550 C   0  0  2  0  0  0  0  0  0  0  0  0
   13.7880    4.5820    8.0740 C   0  0  0  0  0  0  0  0  0  0  0  0
   14.1502    8.1031    3.3124 H   0  0  0  0  0  0  0  0  0  0  0  0
   13.1479    7.6370    4.4933 H   0  0  0  0  0  0  0  0  0  0  0  0
   11.2545    7.8827    3.7777 H   0  0  0  0  0  0  0  0  0  0  0  0
   11.1597    6.1319    3.2099 H   0  0  0  0  0  0  0  0  0  0  0  0
   14.3307    5.2411    4.1128 H   0  0  0  0  0  0  0  0  0  0  0  0
   14.4836    6.8074    5.1636 H   0  0  0  0  0  0  0  0  0  0  0  0
   13.0596    4.5495    5.1741 H   0  0  0  0  0  0  0  0  0  0  0  0
   14.1991    3.5142    6.2455 H   0  0  0  0  0  0  0  0  0  0  0  0
   15.2719    4.9217    6.5446 H   0  0  0  0  0  0  0  0  0  0  0  0
   12.1604    6.4755    6.7584 H   0  0  0  0  0  0  0  0  0  0  0  0
   10.7162    7.3093    5.8554 H   0  0  0  0  0  0  0  0  0  0  0  0
   10.1439    5.7421    5.0547 H   0  0  0  0  0  0  0  0  0  0  0  0
   11.7137    5.9835    7.8677 H   0  0  0  0  0  0  0  0  0  0  0  0
    9.6844    6.2920    7.3476 H   0  0  0  0  0  0  0  0  0  0  0  0
    8.8550    5.0196    6.2201 H   0  0  0  0  0  0  0  0  0  0  0  0
    9.9480    3.8689    5.3381 H   0  0  0  0  0  0  0  0  0  0  0  0
    9.9847    2.6443    6.7769 H   0  0  0  0  0  0  0  0  0  0  0  0
    8.6228    2.6500    4.4321 H   0  0  0  0  0  0  0  0  0  0  0  0
    8.7615    1.5084    5.9325 H   0  0  0  0  0  0  0  0  0  0  0  0
    7.0250    3.3137    4.9626 H   0  0  0  0  0  0  0  0  0  0  0  0
    6.7783   -0.2801    5.3749 H   0  0  0  0  0  0  0  0  0  0  0  0
    5.7487    0.0590    3.9425 H   0  0  0  0  0  0  0  0  0  0  0  0
    7.4770    0.5486    3.9425 H   0  0  0  0  0  0  0  0  0  0  0  0
    4.3222    2.5311    5.6359 H   0  0  0  0  0  0  0  0  0  0  0  0
    5.0604    3.1939    4.1385 H   0  0  0  0  0  0  0  0  0  0  0  0
    4.3603    1.5397    4.1385 H   0  0  0  0  0  0  0  0  0  0  0  0
    6.0005    4.1982    6.1171 H   0  0  0  0  0  0  0  0  0  0  0  0
    6.3090    2.9696    7.5082 H   0  0  0  0  0  0  0  0  0  0  0  0
    7.4927    4.2773    8.3609 H   0  0  0  0  0  0  0  0  0  0  0  0
    7.3906    5.3724    6.8114 H   0  0  0  0  0  0  0  0  0  0  0  0
   10.0859    6.3905    9.6150 H   0  0  0  0  0  0  0  0  0  0  0  0
    8.6618    5.2727    9.4771 H   0  0  0  0  0  0  0  0  0  0  0  0
    9.7930    2.3284   10.4795 H   0  0  0  0  0  0  0  0  0  0  0  0
    9.0911    3.0446    8.9891 H   0  0  0  0  0  0  0  0  0  0  0  0
   10.7878    2.4546    8.9891 H   0  0  0  0  0  0  0  0  0  0  0  0
   10.5392    6.2216   11.0854 H   0  0  0  0  0  0  0  0  0  0  0  0
   10.2447    5.5089   13.0351 H   0  0  0  0  0  0  0  0  0  0  0  0
   11.5367    7.1090   11.6256 H   0  0  0  0  0  0  0  0  0  0  0  0
    9.9376    6.8878   12.9634 H   0  0  0  0  0  0  0  0  0  0  0  0
   11.2291    8.0812   14.2115 H   0  0  0  0  0  0  0  0  0  0  0  0
   12.2481    8.4925   12.7906 H   0  0  0  0  0  0  0  0  0  0  0  0
   10.4992    8.9026   12.7906 H   0  0  0  0  0  0  0  0  0  0  0  0
    9.4245    3.9386   13.1484 H   0  0  0  0  0  0  0  0  0  0  0  0
   12.2272    4.0096   12.8380 H   0  0  0  0  0  0  0  0  0  0  0  0
   11.4288    2.5518   12.2378 H   0  0  0  0  0  0  0  0  0  0  0  0
   13.6529    3.9731   11.0094 H   0  0  0  0  0  0  0  0  0  0  0  0
   12.8026    2.5892   10.3112 H   0  0  0  0  0  0  0  0  0  0  0  0
   12.3434    5.5766    9.8349 H   0  0  0  0  0  0  0  0  0  0  0  0
   12.1356    3.2051    7.9907 H   0  0  0  0  0  0  0  0  0  0  0  0
   14.3800    3.8480    8.6404 H   0  0  0  0  0  0  0  0  0  0  0  0
   13.9409    5.6087    8.4379 H   0  0  0  0  0  0  0  0  0  0  0  0
  1  2  1  0
  2  3  1  0
  2  4  1  0
  4  5  1  0
  5  6  1  0
  5  7  1  0
  3  8  1  0
  7  8  1  0
  7  9  1  0
  9 10  1  0
 10 11  1  0
 11 12  1  0
 12 13  1  0
 13 14  1  0
 14 15  1  0
 15 16  1  0
 15 17  1  0
 14 18  1  0
 11 19  1  0
 18 19  1  0
 10 20  1  0
 20 21  1  0
 21 22  1  1
 21 23  1  0
 23 24  1  0
 24 25  1  0
 25 26  1  0
 23 27  1  1
 23 28  1  0
 28 29  1  0
 21 30  1  0
 29 30  1  0
  9 31  1  0
 30 31  1  0
  6 32  1  0
 31 32  1  0
  1 33  1  0
  2 34  1  0
  3 35  1  0
  3 36  1  0
  4 37  1  0
  4 38  1  0
  5 39  1  0
  6 40  1  0
  6 41  1  0
  7 42  1  6
  8 43  1  0
  8 44  1  0
  9 45  1  0
 10 46  1  6
 11 47  1  1
 12 48  1  0
 12 49  1  0
 13 50  1  0
 13 51  1  0
 14 52  1  0
 16 53  1  0
 16 54  1  0
 16 55  1  0
 17 56  1  0
 17 57  1  0
 17 58  1  0
 18 59  1  0
 18 60  1  0
 19 61  1  0
 19 62  1  0
 20 63  1  0
 20 64  1  0
 22 65  1  0
 22 66  1  0
 22 67  1  0
 24 68  1  0
 24 69  1  0
 25 70  1  0
 25 71  1  0
 26 72  1  0
 26 73  1  0
 26 74  1  0
 27 75  1  0
 28 76  1  0
 28 77  1  0
 29 78  1  0
 29 79  1  0
 30 80  1  1
 31 81  1  6
 32 82  1  0
 32 83  1  0
M  END
>  <PDBID>  (1) 
2W8Y

>  <PDB ID>  (1) 
2W8Y

>  <Generic Name>  (1) 
Mifepristone

>  <Brand Name>  (1) 
Korlym#Mifegymiso#Corlux#Mefipil#Mifegyne#Mifeprex

>  <DrugBank ID>  (1) 
DB00834

>  <ATC Codes>  (1) 
G03XB01#G03XB51

>  <Ligand ID>  (1) 
486

>  <Target Name>  (1) 
Progesterone receptor

>  <UniProt ID>  (1) 
P06401

>  <PDB ID.1>  (1) 
2W8Y

>  <Seq. Identity>  (1) 
96%

$$$$
