PDB_DB00152_98
     RDKit          3D

 35 36  0  0  0  0  0  0  0  0999 V2000
   19.3390   39.6510   23.0300 C   0  0  0  0  0  0  0  0  0  0  0  0
   23.9870   39.0710   21.4980 N   0  0  0  0  0  0  0  0  0  0  0  0
   25.6750   40.2260   16.9580 C   0  0  0  0  0  0  0  0  0  0  0  0
   28.1250   44.5160   15.9890 O   0  0  0  0  0  0  0  0  0  0  0  0
   27.0400   44.1140   16.8020 C   0  0  0  0  0  0  0  0  0  0  0  0
   27.3760   42.7450   17.4460 C   0  0  0  0  0  0  0  0  0  0  0  0
   24.3100   42.1240   19.7210 C   0  0  0  0  0  0  0  0  0  0  0  0
   25.5530   43.3650   19.6040 S   0  0  0  0  0  0  0  0  0  0  0  0
   26.1650   42.3590   18.2430 C   0  0  0  0  0  0  0  0  0  0  0  0
   25.3950   41.2550   18.0460 C   0  0  0  0  0  0  0  0  0  0  0  0
   24.4090   41.1850   18.8730 N   0  0  0  0  0  0  0  0  0  0  0  0
   23.4190   40.0960   18.8720 C   0  0  0  0  0  0  0  0  0  0  0  0
   22.6750   39.4700   21.2150 C   0  0  0  0  0  0  0  0  0  0  0  0
   21.6930   39.3680   22.2080 N   0  0  0  0  0  0  0  0  0  0  0  0
   20.3740   39.7670   21.9510 C   0  0  0  0  0  0  0  0  0  0  0  0
   20.0340   40.2820   20.6810 N   0  0  0  0  0  0  0  0  0  0  0  0
   21.0180   40.3880   19.6760 C   0  0  0  0  0  0  0  0  0  0  0  0
   22.3520   39.9850   19.9420 C   0  0  0  0  0  0  0  0  0  0  0  0
   19.8275   39.7057   24.0141 H   0  0  0  0  0  0  0  0  0  0  0  0
   18.6151   40.4736   22.9337 H   0  0  0  0  0  0  0  0  0  0  0  0
   18.8152   38.6885   22.9337 H   0  0  0  0  0  0  0  0  0  0  0  0
   24.7149   39.1430   20.7729 H   0  0  0  0  0  0  0  0  0  0  0  0
   24.2242   38.7055   22.4313 H   0  0  0  0  0  0  0  0  0  0  0  0
   25.9369   39.2637   17.4221 H   0  0  0  0  0  0  0  0  0  0  0  0
   24.7785   40.0999   16.3332 H   0  0  0  0  0  0  0  0  0  0  0  0
   26.5118   40.5715   16.3332 H   0  0  0  0  0  0  0  0  0  0  0  0
   28.8814   44.7962   16.5630 H   0  0  0  0  0  0  0  0  0  0  0  0
   26.8726   44.8621   17.5909 H   0  0  0  0  0  0  0  0  0  0  0  0
   26.1294   44.0253   16.1914 H   0  0  0  0  0  0  0  0  0  0  0  0
   27.5770   41.9946   16.6673 H   0  0  0  0  0  0  0  0  0  0  0  0
   28.2741   42.8050   18.0783 H   0  0  0  0  0  0  0  0  0  0  0  0
   23.5077   42.1597   20.4727 H   0  0  0  0  0  0  0  0  0  0  0  0
   22.8872   40.1632   17.9115 H   0  0  0  0  0  0  0  0  0  0  0  0
   24.0437   39.2133   19.0737 H   0  0  0  0  0  0  0  0  0  0  0  0
   20.7508   40.7835   18.6850 H   0  0  0  0  0  0  0  0  0  0  0  0
  4  5  1  0
  5  6  1  0
  7  8  1  0
  6  9  1  0
  8  9  1  0
  3 10  1  0
  9 10  2  0
  7 11  2  0
 10 11  1  0
 11 12  1  0
  2 13  1  0
 13 14  2  0
  1 15  1  0
 14 15  1  0
 15 16  2  0
 16 17  1  0
 12 18  1  0
 13 18  1  0
 17 18  2  0
  1 19  1  0
  1 20  1  0
  1 21  1  0
  2 22  1  0
  2 23  1  0
  3 24  1  0
  3 25  1  0
  3 26  1  0
  4 27  1  0
  5 28  1  0
  5 29  1  0
  6 30  1  0
  6 31  1  0
  7 32  1  0
 12 33  1  0
 12 34  1  0
 17 35  1  0
M  CHG  1  11   1
M  END
$$$$
