PDB_DB01283_98
     RDKit          3D

 33 34  0  0  0  0  0  0  0  0999 V2000
  -26.3860   48.0870   66.8820 O   0  0  0  0  0  0  0  0  0  0  0  0
  -25.6890   48.9140   67.4460 C   0  0  0  0  0  0  0  0  0  0  0  0
  -25.0380   49.8160   66.7210 O   0  0  0  0  0  0  0  0  0  0  0  0
  -25.5630   48.9150   68.9490 C   0  0  0  0  0  0  0  0  0  0  0  0
  -24.3090   48.1930   69.3770 C   0  0  0  0  0  0  0  0  0  0  0  0
  -24.3450   46.8470   69.7130 C   0  0  0  0  0  0  0  0  0  0  0  0
  -23.1790   46.2020   70.1110 C   0  0  0  0  0  0  0  0  0  0  0  0
  -23.2220   44.7400   70.4750 C   0  0  0  0  0  0  0  0  0  0  0  0
  -21.9720   46.8940   70.1790 C   0  0  0  0  0  0  0  0  0  0  0  0
  -21.8840   48.2420   69.8490 C   0  0  0  0  0  0  0  0  0  0  0  0
  -23.0230   48.9270   69.4480 C   0  0  0  0  0  0  0  0  0  0  0  0
  -22.9910   50.2380   69.1180 N   0  0  0  0  0  0  0  0  0  0  0  0
  -21.8980   51.0180   69.2800 C   0  0  0  0  0  0  0  0  0  0  0  0
  -21.1990   51.6030   68.1090 C   0  0  0  0  0  0  0  0  0  0  0  0
  -21.7790   51.2720   66.4440 Cl  0  0  0  0  0  0  0  0  0  0  0  0
  -20.0870   52.4120   68.3150 C   0  0  0  0  0  0  0  0  0  0  0  0
  -19.6250   52.6780   69.6010 C   0  0  0  0  0  0  0  0  0  0  0  0
  -20.2480   52.1570   70.7320 C   0  0  0  0  0  0  0  0  0  0  0  0
  -21.3690   51.3400   70.6290 C   0  0  0  0  0  0  0  0  0  0  0  0
  -21.9590   50.8410   71.7320 F   0  0  0  0  0  0  0  0  0  0  0  0
  -24.4691   50.4925   67.1669 H   0  0  0  0  0  0  0  0  0  0  0  0
  -25.5223   49.9541   69.3077 H   0  0  0  0  0  0  0  0  0  0  0  0
  -26.4340   48.3982   69.3784 H   0  0  0  0  0  0  0  0  0  0  0  0
  -25.2933   46.2917   69.6646 H   0  0  0  0  0  0  0  0  0  0  0  0
  -23.2251   44.6347   71.5699 H   0  0  0  0  0  0  0  0  0  0  0  0
  -24.1339   44.2856   70.0604 H   0  0  0  0  0  0  0  0  0  0  0  0
  -22.3384   44.2328   70.0604 H   0  0  0  0  0  0  0  0  0  0  0  0
  -21.0657   46.3608   70.5019 H   0  0  0  0  0  0  0  0  0  0  0  0
  -20.9168   48.7629   69.9054 H   0  0  0  0  0  0  0  0  0  0  0  0
  -23.8418   50.6640   68.7234 H   0  0  0  0  0  0  0  0  0  0  0  0
  -19.5653   52.8477   67.4501 H   0  0  0  0  0  0  0  0  0  0  0  0
  -18.7405   53.3196   69.7275 H   0  0  0  0  0  0  0  0  0  0  0  0
  -19.8454   52.3964   71.7273 H   0  0  0  0  0  0  0  0  0  0  0  0
  1  2  2  0
  2  3  1  0
  2  4  1  0
  4  5  1  0
  5  6  2  0
  6  7  1  0
  7  8  1  0
  7  9  2  0
  9 10  1  0
  5 11  1  0
 10 11  2  0
 11 12  1  0
 12 13  1  0
 13 14  2  0
 14 15  1  0
 14 16  1  0
 16 17  2  0
 17 18  1  0
 13 19  1  0
 18 19  2  0
 19 20  1  0
  3 21  1  0
  4 22  1  0
  4 23  1  0
  6 24  1  0
  8 25  1  0
  8 26  1  0
  8 27  1  0
  9 28  1  0
 10 29  1  0
 12 30  1  0
 16 31  1  0
 17 32  1  0
 18 33  1  0
M  END
$$$$
