PDB_DB01015_99
     RDKit          3D

 28 29  0  0  0  0  0  0  0  0999 V2000
   28.0110    0.9430   10.0560 O   0  0  0  0  0  0  0  0  0  0  0  0
   28.6160   -0.3560   10.0270 S   0  0  0  0  0  0  0  0  0  0  0  0
   28.6610   -0.8880   11.3620 O   0  0  0  0  0  0  0  0  0  0  0  0
   27.7800   -1.3230    9.0630 C   0  0  0  0  0  0  0  0  0  0  0  0
   27.4780   -2.6260    9.4680 C   0  0  0  0  0  0  0  0  0  0  0  0
   26.7640   -3.4740    8.6280 C   0  0  0  0  0  0  0  0  0  0  0  0
   27.3660   -0.8720    7.8070 C   0  0  0  0  0  0  0  0  0  0  0  0
   26.6490   -1.7190    6.9630 C   0  0  0  0  0  0  0  0  0  0  0  0
   26.3500   -3.0190    7.3750 C   0  0  0  0  0  0  0  0  0  0  0  0
   25.6570   -3.8470    6.5560 N   0  0  0  0  0  0  0  0  0  0  0  0
   30.1060   -0.2350    9.4420 N   0  0  0  0  0  0  0  0  0  0  0  0
   31.0710   -1.1800    9.5980 C   0  0  0  0  0  0  0  0  0  0  0  0
   30.6330   -2.4680    9.7360 N   0  0  0  0  0  0  0  0  0  0  0  0
   31.7400   -3.2080    9.8590 O   0  0  0  0  0  0  0  0  0  0  0  0
   32.8280   -2.4040    9.7970 C   0  0  0  0  0  0  0  0  0  0  0  0
   32.4680   -1.0830    9.6280 C   0  0  0  0  0  0  0  0  0  0  0  0
   34.2450   -2.9000    9.9050 C   0  0  0  0  0  0  0  0  0  0  0  0
   27.8064   -2.9825   10.4554 H   0  0  0  0  0  0  0  0  0  0  0  0
   26.5266   -4.4988    8.9497 H   0  0  0  0  0  0  0  0  0  0  0  0
   27.6059    0.1518    7.4840 H   0  0  0  0  0  0  0  0  0  0  0  0
   26.3198   -1.3640    5.9753 H   0  0  0  0  0  0  0  0  0  0  0  0
   25.3490   -3.5165    5.6303 H   0  0  0  0  0  0  0  0  0  0  0  0
   25.4383   -4.8068    6.8592 H   0  0  0  0  0  0  0  0  0  0  0  0
   30.3471    0.6153    8.9131 H   0  0  0  0  0  0  0  0  0  0  0  0
   33.1070   -0.1920    9.5403 H   0  0  0  0  0  0  0  0  0  0  0  0
   34.5199   -2.9962   10.9657 H   0  0  0  0  0  0  0  0  0  0  0  0
   34.3286   -3.8808    9.4141 H   0  0  0  0  0  0  0  0  0  0  0  0
   34.9220   -2.1854    9.4141 H   0  0  0  0  0  0  0  0  0  0  0  0
  1  2  2  0
  2  3  2  0
  2  4  1  0
  4  5  2  0
  5  6  1  0
  4  7  1  0
  7  8  2  0
  6  9  2  0
  8  9  1  0
  9 10  1  0
  2 11  1  0
 11 12  1  0
 12 13  2  0
 13 14  1  0
 14 15  1  0
 12 16  1  0
 15 16  2  0
 15 17  1  0
  5 18  1  0
  6 19  1  0
  7 20  1  0
  8 21  1  0
 10 22  1  0
 10 23  1  0
 11 24  1  0
 16 25  1  0
 17 26  1  0
 17 27  1  0
 17 28  1  0
M  END
>  <PDBID>  (1) 
3TZF

>  <PDB ID>  (1) 
3TZF

>  <Generic Name>  (1) 
Sulfamethoxazole

>  <Brand Name>  (1) 
Apo Sulfamethoxazole Tab 500mg#Apo Sulfatrim DS Tab#Apo Sulfatrim Pediatric#Apo Sulfatrim Tab#Apo-sulfatrim Oral Suspension#Bactrim#Bactrim DS#Bactrim DS Roche Tab#Bactrim Roche Inj#Bactrim Roche Suspension Paediatric#Bactrim Roche Tab#Nu-cotrimox Sus 40/8mg/ml#Nu-cotrimox Tab 400/80mg#Nu-cotrimox-DS Tab 800/160mg#Protrin Df Tab#Protrin Tab#Riva-sep DS#Roubac Tab 160/800#Roubac Tab 80/400#Septra#Septra DS Tablets#Septra Injection#Septra Pediatric Suspension#Sulfamethoxazole Tab 500mg#Sulfamethoxazole and Trimethoprim#Sulfamethoxazole and Trimethoprim (double Strength)#Sulfamethoxazole and Trimethoprim DS#Sulfamethoxazole and Trimethoprim Double Strength#Sulfamethoxazole and Trimethoprim Tablets#Sulfatrim#Teva-trimel#Teva-trimel DS#Trisulfa DS Tab#Trisulfa S Suspension#Trisulfa Tab#Gantanol#Sinomin#Urobak

>  <DrugBank ID>  (1) 
DB01015

>  <ATC Codes>  (1) 
J01EE01#J01EC01

>  <Ligand ID>  (1) 
08D

>  <Target Name>  (1) 
Dihydropteroate synthase

>  <UniProt ID>  (1) 
P0AC13

>  <PDB ID.1>  (1) 
3TZF

>  <Seq. Identity>  (1) 
75%

$$$$
