PDB_DB04743_99
     RDKit          3D

 96 98  0  0  0  0  0  0  0  0999 V2000
  -19.6820  -50.4130   -2.5820 O   0  0  0  0  0  1  0  0  0  0  0  0
  -19.3270  -49.3020   -1.7690 N   0  0  0  0  0  0  0  0  0  0  0  0
  -18.7010  -48.1830   -2.4240 O   0  0  0  0  0  0  0  0  0  0  0  0
  -19.5230  -49.3110   -0.4360 C   0  0  0  0  0  0  0  0  0  0  0  0
  -19.3040  -48.1430    0.2870 C   0  0  0  0  0  0  0  0  0  0  0  0
  -19.4860  -48.1350    1.6650 C   0  0  0  0  0  0  0  0  0  0  0  0
  -19.8740  -49.2850    2.3490 C   0  0  0  0  0  0  0  0  0  0  0  0
  -20.0550  -49.2900    3.6660 N   0  0  0  0  0  0  0  0  0  0  0  0
  -19.4460  -48.1520    4.6650 S   0  0  1  0  0  4  0  0  0  0  0  0
  -20.0980  -46.8380    4.3600 O   0  0  0  0  0  0  0  0  0  0  0  0
  -19.7850  -48.4830    6.0820 O   0  0  0  0  0  0  0  0  0  0  0  0
  -17.6800  -48.0840    4.4920 C   0  0  0  0  0  0  0  0  0  0  0  0
  -19.9180  -50.4730    0.2490 C   0  0  0  0  0  0  0  0  0  0  0  0
  -20.1130  -50.4570    1.6410 C   0  0  0  0  0  0  0  0  0  0  0  0
  -20.4810  -51.5800    2.3460 O   0  0  0  0  0  0  0  0  0  0  0  0
  -21.7580  -52.0580    2.4260 C   0  0  0  0  0  0  0  0  0  0  0  0
  -21.9900  -53.1480    3.2670 C   0  0  0  0  0  0  0  0  0  0  0  0
  -23.2750  -53.6880    3.3920 C   0  0  0  0  0  0  0  0  0  0  0  0
  -24.3410  -53.1370    2.6830 C   0  0  0  0  0  0  0  0  0  0  0  0
  -24.1180  -52.0520    1.8390 C   0  0  0  0  0  0  0  0  0  0  0  0
  -22.8290  -51.5170    1.7100 C   0  0  0  0  0  0  0  0  0  0  0  0
  -33.2420  -43.2930   51.3600 O   0  0  0  0  0  1  0  0  0  0  0  0
  -32.3850  -42.3740   50.7100 N   0  0  0  0  0  0  0  0  0  0  0  0
  -31.7570  -41.4230   51.5140 O   0  0  0  0  0  0  0  0  0  0  0  0
  -32.2000  -42.3830   49.3900 C   0  0  0  0  0  0  0  0  0  0  0  0
  -31.3770  -41.4270   48.7840 C   0  0  0  0  0  0  0  0  0  0  0  0
  -31.1830  -41.4280   47.4030 C   0  0  0  0  0  0  0  0  0  0  0  0
  -31.8390  -42.3900   46.6310 C   0  0  0  0  0  0  0  0  0  0  0  0
  -31.7190  -42.4700   45.3150 N   0  0  0  0  0  0  0  0  0  0  0  0
  -31.0850  -41.2960   44.4390 S   0  0  1  0  0  4  0  0  0  0  0  0
  -29.6430  -41.2440   44.8310 O   0  0  0  0  0  0  0  0  0  0  0  0
  -31.1930  -41.7030   42.9960 O   0  0  0  0  0  0  0  0  0  0  0  0
  -31.9450  -39.7430   44.6290 C   0  0  0  0  0  0  0  0  0  0  0  0
  -32.8430  -43.3450   48.6080 C   0  0  0  0  0  0  0  0  0  0  0  0
  -32.6490  -43.3580   47.2260 C   0  0  0  0  0  0  0  0  0  0  0  0
  -33.2500  -44.2750   46.3980 O   0  0  0  0  0  0  0  0  0  0  0  0
  -33.0220  -45.6010   46.5980 C   0  0  0  0  0  0  0  0  0  0  0  0
  -33.9820  -46.4970   46.1410 C   0  0  0  0  0  0  0  0  0  0  0  0
  -33.7930  -47.8620   46.3270 C   0  0  0  0  0  0  0  0  0  0  0  0
  -32.6360  -48.3280   46.9580 C   0  0  0  0  0  0  0  0  0  0  0  0
  -31.6660  -47.4310   47.4110 C   0  0  0  0  0  0  0  0  0  0  0  0
  -31.8650  -46.0670   47.2200 C   0  0  0  0  0  0  0  0  0  0  0  0
  -18.3502  -47.5560   -1.7429 H   0  0  0  0  0  0  0  0  0  0  0  0
  -18.4732  -49.6022   -0.2836 H   0  0  0  0  0  0  0  0  0  0  0  0
  -18.2610  -47.8460    0.1026 H   0  0  0  0  0  0  0  0  0  0  0  0
  -20.0932  -47.4684   -0.0765 H   0  0  0  0  0  0  0  0  0  0  0  0
  -18.5280  -47.8196    2.1040 H   0  0  0  0  0  0  0  0  0  0  0  0
  -20.3594  -47.4776    1.7873 H   0  0  0  0  0  0  0  0  0  0  0  0
  -18.8176  -49.5557    2.4932 H   0  0  0  0  0  0  0  0  0  0  0  0
  -21.0748  -49.2736    3.8097 H   0  0  0  0  0  0  0  0  0  0  0  0
  -20.3261  -46.3784    5.2067 H   0  0  0  0  0  0  0  0  0  0  0  0
  -19.2265  -47.9377    6.6909 H   0  0  0  0  0  0  0  0  0  0  0  0
  -17.2144  -48.0661    5.4884 H   0  0  0  0  0  0  0  0  0  0  0  0
  -17.3313  -48.9694    3.9402 H   0  0  0  0  0  0  0  0  0  0  0  0
  -17.4004  -47.1744    3.9402 H   0  0  0  0  0  0  0  0  0  0  0  0
  -20.8714  -50.7916   -0.1976 H   0  0  0  0  0  0  0  0  0  0  0  0
  -19.0460  -51.1333    0.1324 H   0  0  0  0  0  0  0  0  0  0  0  0
  -21.1594  -50.1529    1.4909 H   0  0  0  0  0  0  0  0  0  0  0  0
  -21.5530  -52.7452    1.5919 H   0  0  0  0  0  0  0  0  0  0  0  0
  -21.3391  -53.9618    2.9149 H   0  0  0  0  0  0  0  0  0  0  0  0
  -21.7975  -52.7337    4.2676 H   0  0  0  0  0  0  0  0  0  0  0  0
  -23.2054  -54.7431    3.0889 H   0  0  0  0  0  0  0  0  0  0  0  0
  -23.5348  -53.4746    4.4394 H   0  0  0  0  0  0  0  0  0  0  0  0
  -24.7629  -53.9422    2.0636 H   0  0  0  0  0  0  0  0  0  0  0  0
  -24.9867  -52.7217    3.4708 H   0  0  0  0  0  0  0  0  0  0  0  0
  -24.4350  -52.3624    0.8325 H   0  0  0  0  0  0  0  0  0  0  0  0
  -24.6821  -51.2387    2.3189 H   0  0  0  0  0  0  0  0  0  0  0  0
  -22.8977  -50.4580    1.9995 H   0  0  0  0  0  0  0  0  0  0  0  0
  -22.5697  -51.7500    0.6667 H   0  0  0  0  0  0  0  0  0  0  0  0
  -31.9049  -41.6470   52.4669 H   0  0  0  0  0  0  0  0  0  0  0  0
  -33.0664  -41.7170   49.2640 H   0  0  0  0  0  0  0  0  0  0  0  0
  -31.7957  -40.4430   49.0419 H   0  0  0  0  0  0  0  0  0  0  0  0
  -30.3794  -41.6804   49.1722 H   0  0  0  0  0  0  0  0  0  0  0  0
  -31.5018  -40.4430   47.0312 H   0  0  0  0  0  0  0  0  0  0  0  0
  -30.1174  -41.6741   47.2847 H   0  0  0  0  0  0  0  0  0  0  0  0
  -32.6955  -41.7101   46.5116 H   0  0  0  0  0  0  0  0  0  0  0  0
  -31.1464  -43.3060   45.1302 H   0  0  0  0  0  0  0  0  0  0  0  0
  -29.5693  -41.2413   45.8182 H   0  0  0  0  0  0  0  0  0  0  0  0
  -31.4465  -42.6584   42.9407 H   0  0  0  0  0  0  0  0  0  0  0  0
  -32.0682  -39.5206   45.6992 H   0  0  0  0  0  0  0  0  0  0  0  0
  -31.3626  -38.9407   44.1524 H   0  0  0  0  0  0  0  0  0  0  0  0
  -32.9341  -39.8109   44.1524 H   0  0  0  0  0  0  0  0  0  0  0  0
  -32.5220  -44.3276   48.9840 H   0  0  0  0  0  0  0  0  0  0  0  0
  -33.9077  -43.0896   48.7137 H   0  0  0  0  0  0  0  0  0  0  0  0
  -31.7735  -44.0113   47.3550 H   0  0  0  0  0  0  0  0  0  0  0  0
  -33.5376  -45.5433   47.5680 H   0  0  0  0  0  0  0  0  0  0  0  0
  -34.9266  -46.2347   46.6398 H   0  0  0  0  0  0  0  0  0  0  0  0
  -33.9433  -46.3792   45.0480 H   0  0  0  0  0  0  0  0  0  0  0  0
  -34.6458  -48.2226   46.9210 H   0  0  0  0  0  0  0  0  0  0  0  0
  -33.6932  -48.2455   45.3008 H   0  0  0  0  0  0  0  0  0  0  0  0
  -32.9656  -48.9051   47.8345 H   0  0  0  0  0  0  0  0  0  0  0  0
  -32.1163  -48.8695   46.1538 H   0  0  0  0  0  0  0  0  0  0  0  0
  -31.5588  -47.5923   48.4938 H   0  0  0  0  0  0  0  0  0  0  0  0
  -30.7869  -47.6582   46.7900 H   0  0  0  0  0  0  0  0  0  0  0  0
  -31.0171  -45.7059   46.6194 H   0  0  0  0  0  0  0  0  0  0  0  0
  -31.9655  -45.6856   48.2469 H   0  0  0  0  0  0  0  0  0  0  0  0
  1  2  1  0
  2  3  1  0
  2  4  1  0
  4  5  1  0
  5  6  1  0
  6  7  1  0
  7  8  1  0
  8  9  1  0
  9 10  1  6
  9 11  1  0
  9 12  1  0
  4 13  1  0
  7 14  1  0
 13 14  1  0
 14 15  1  0
 15 16  1  0
 16 17  1  0
 17 18  1  0
 18 19  1  0
 19 20  1  0
 16 21  1  0
 20 21  1  0
 22 23  1  0
 23 24  1  0
 23 25  1  0
 25 26  1  0
 26 27  1  0
 27 28  1  0
 28 29  1  0
 29 30  1  0
 30 31  1  1
 30 32  1  0
 30 33  1  0
 25 34  1  0
 28 35  1  0
 34 35  1  0
 35 36  1  0
 36 37  1  0
 37 38  1  0
 38 39  1  0
 39 40  1  0
 40 41  1  0
 37 42  1  0
 41 42  1  0
  3 43  1  0
  4 44  1  0
  5 45  1  0
  5 46  1  0
  6 47  1  0
  6 48  1  0
  7 49  1  0
  8 50  1  0
 10 51  1  0
 11 52  1  0
 12 53  1  0
 12 54  1  0
 12 55  1  0
 13 56  1  0
 13 57  1  0
 14 58  1  0
 16 59  1  0
 17 60  1  0
 17 61  1  0
 18 62  1  0
 18 63  1  0
 19 64  1  0
 19 65  1  0
 20 66  1  0
 20 67  1  0
 21 68  1  0
 21 69  1  0
 24 70  1  0
 25 71  1  0
 26 72  1  0
 26 73  1  0
 27 74  1  0
 27 75  1  0
 28 76  1  0
 29 77  1  0
 31 78  1  0
 32 79  1  0
 33 80  1  0
 33 81  1  0
 33 82  1  0
 34 83  1  0
 34 84  1  0
 35 85  1  0
 37 86  1  0
 38 87  1  0
 38 88  1  0
 39 89  1  0
 39 90  1  0
 40 91  1  0
 40 92  1  0
 41 93  1  0
 41 94  1  0
 42 95  1  0
 42 96  1  0
M  CHG  2   1  -1  22  -1
M  END
>  <PDBID>  (1) 
3N8X

>  <PDB ID>  (1) 
3N8X

>  <Generic Name>  (1) 
Nimesulide

>  <Brand Name>  (1) 
Ainex#Aulin#Coxtal#Eskaflam#Mesulid#Nilsid#Nimalox#Nimside#Nise#Octaprin#Sintalgin#Sulide

>  <DrugBank ID>  (1) 
DB04743

>  <ATC Codes>  (1) 
M02AA26#M01AX17

>  <Ligand ID>  (1) 
NIM

>  <Target Name>  (1) 
Prostaglandin G/H synthase 2

>  <UniProt ID>  (1) 
P35354

>  <PDB ID.1>  (1) 
3N8X

>  <Seq. Identity>  (1) 
61%

$$$$
