PDB_DB00523_93
     RDKit          3D

 50 50  0  0  0  0  0  0  0  0999 V2000
   40.9090   22.1030   82.2580 C   0  0  0  0  0  0  0  0  0  0  0  0
   40.4120   20.7260   81.6770 C   0  0  0  0  0  0  0  0  0  0  0  0
   38.9800   20.6340   81.1550 C   0  0  0  0  0  0  0  0  0  0  0  0
   38.6370   21.7300   80.1830 C   0  0  0  0  0  0  0  0  0  0  0  0
   39.2730   23.1220   80.4300 C   0  0  0  0  0  0  0  0  0  0  0  0
   40.3170   23.3240   81.3650 C   0  0  0  0  0  0  0  0  0  0  0  0
   40.9060   24.6610   81.5940 C   0  0  0  0  0  0  0  0  0  0  0  0
   41.4730   25.4510   80.6800 C   0  0  0  0  0  0  0  0  0  0  0  0
   42.0020   26.7400   80.6980 C   0  0  0  0  0  0  0  0  0  0  0  0
   42.4960   27.2600   79.5600 C   0  0  0  0  0  0  0  0  0  0  0  0
   42.6510   26.7310   78.2000 C   0  0  0  0  0  0  0  0  0  0  0  0
   43.1030   27.4590   77.1490 C   0  0  0  0  0  0  0  0  0  0  0  0
   43.2740   26.9060   75.7620 C   0  0  0  0  0  0  0  0  0  0  0  0
   43.6590   27.7750   74.8580 C   0  0  0  0  0  0  0  0  0  0  0  0
   43.9190   27.7180   73.3960 C   0  0  0  0  0  0  0  0  0  0  0  0
   42.4520   21.9330   82.2810 C   0  0  0  0  0  0  0  0  0  0  0  0
   40.4510   22.2100   83.7060 C   0  0  0  0  0  0  0  0  0  0  0  0
   38.5540   24.0850   79.5130 C   0  0  0  0  0  0  0  0  0  0  0  0
   41.9630   27.5260   81.9740 C   0  0  0  0  0  0  0  0  0  0  0  0
   42.9820   25.4510   75.4480 C   0  0  0  0  0  0  0  0  0  0  0  0
   43.5660   28.7440   72.7300 O   0  0  0  0  0  0  0  0  0  0  0  0
   44.4230   26.6880   72.8250 O   0  0  0  0  0  0  0  0  0  0  0  0
   41.0799   20.4646   80.8430 H   0  0  0  0  0  0  0  0  0  0  0  0
   40.4298   20.0451   82.5408 H   0  0  0  0  0  0  0  0  0  0  0  0
   38.8526   19.6651   80.6500 H   0  0  0  0  0  0  0  0  0  0  0  0
   38.3075   20.7383   82.0192 H   0  0  0  0  0  0  0  0  0  0  0  0
   38.9510   21.3956   79.1832 H   0  0  0  0  0  0  0  0  0  0  0  0
   37.5551   21.8875   80.3042 H   0  0  0  0  0  0  0  0  0  0  0  0
   40.8734   25.0441   82.6246 H   0  0  0  0  0  0  0  0  0  0  0  0
   41.5372   24.9780   79.6890 H   0  0  0  0  0  0  0  0  0  0  0  0
   42.8577   28.2928   79.6717 H   0  0  0  0  0  0  0  0  0  0  0  0
   42.3840   25.6788   78.0221 H   0  0  0  0  0  0  0  0  0  0  0  0
   43.3592   28.5148   77.3215 H   0  0  0  0  0  0  0  0  0  0  0  0
   43.8285   28.7769   75.2792 H   0  0  0  0  0  0  0  0  0  0  0  0
   42.8011   21.8945   83.3234 H   0  0  0  0  0  0  0  0  0  0  0  0
   42.7257   20.9993   81.7679 H   0  0  0  0  0  0  0  0  0  0  0  0
   42.9224   22.7848   81.7679 H   0  0  0  0  0  0  0  0  0  0  0  0
   41.3012   22.0114   84.3751 H   0  0  0  0  0  0  0  0  0  0  0  0
   40.0648   23.2226   83.8945 H   0  0  0  0  0  0  0  0  0  0  0  0
   39.6561   21.4734   83.8945 H   0  0  0  0  0  0  0  0  0  0  0  0
   38.0032   24.8227   80.1151 H   0  0  0  0  0  0  0  0  0  0  0  0
   39.2875   24.6039   78.8783 H   0  0  0  0  0  0  0  0  0  0  0  0
   37.8481   23.5292   78.8783 H   0  0  0  0  0  0  0  0  0  0  0  0
   41.9972   26.8366   82.8305 H   0  0  0  0  0  0  0  0  0  0  0  0
   42.8286   28.2036   82.0139 H   0  0  0  0  0  0  0  0  0  0  0  0
   41.0345   28.1145   82.0139 H   0  0  0  0  0  0  0  0  0  0  0  0
   42.8692   24.8888   76.3867 H   0  0  0  0  0  0  0  0  0  0  0  0
   42.0519   25.3813   74.8648 H   0  0  0  0  0  0  0  0  0  0  0  0
   43.8131   25.0278   74.8648 H   0  0  0  0  0  0  0  0  0  0  0  0
   43.7103   28.7724   71.7510 H   0  0  0  0  0  0  0  0  0  0  0  0
  1  2  1  0
  2  3  1  0
  3  4  1  0
  4  5  1  0
  1  6  1  0
  5  6  2  0
  6  7  1  0
  7  8  2  0
  8  9  1  0
  9 10  2  0
 10 11  1  0
 11 12  2  0
 12 13  1  0
 13 14  2  0
 14 15  1  0
  1 16  1  0
  1 17  1  0
  5 18  1  0
  9 19  1  0
 13 20  1  0
 15 21  1  0
 15 22  2  0
  2 23  1  0
  2 24  1  0
  3 25  1  0
  3 26  1  0
  4 27  1  0
  4 28  1  0
  7 29  1  0
  8 30  1  0
 10 31  1  0
 11 32  1  0
 12 33  1  0
 14 34  1  0
 16 35  1  0
 16 36  1  0
 16 37  1  0
 17 38  1  0
 17 39  1  0
 17 40  1  0
 18 41  1  0
 18 42  1  0
 18 43  1  0
 19 44  1  0
 19 45  1  0
 19 46  1  0
 20 47  1  0
 20 48  1  0
 20 49  1  0
 21 50  1  0
M  END
$$$$
