PDB_DB00884_98
     RDKit          3D

 38 38  0  0  0  0  0  0  0  0999 V2000
   16.9290   35.8050   -6.9220 O   0  0  0  0  0  0  0  0  0  0  0  0
   15.4960   35.8010   -7.4940 P   0  0  0  0  0  5  0  0  0  0  0  0
   15.2150   36.9870   -8.3310 O   0  0  0  0  0  0  0  0  0  0  0  0
   14.5440   35.7640   -6.3180 O   0  0  0  0  0  0  0  0  0  0  0  0
   15.2100   34.3000   -8.4990 C   0  0  1  0  0  0  0  0  0  0  0  0
   13.8980   34.3720   -9.0590 O   0  0  0  0  0  0  0  0  0  0  0  0
   16.4420   34.1670   -9.8350 P   0  0  0  0  0  5  0  0  0  0  0  0
   16.4710   35.4380  -10.6700 O   0  0  0  0  0  0  0  0  0  0  0  0
   17.6410   34.1050   -8.9840 O   0  0  0  0  0  0  0  0  0  0  0  0
   16.3990   32.9640  -10.7290 O   0  0  0  0  0  0  0  0  0  0  0  0
   15.2280   33.1760   -7.4690 C   0  0  0  0  0  0  0  0  0  0  0  0
   15.0830   31.7530   -7.9680 C   0  0  0  0  0  0  0  0  0  0  0  0
   15.6970   30.7730   -7.1920 C   0  0  0  0  0  0  0  0  0  0  0  0
   15.6210   29.4420   -7.5590 C   0  0  0  0  0  0  0  0  0  0  0  0
   14.8930   29.1130   -8.6950 C   0  0  0  0  0  0  0  0  0  0  0  0
   14.2740   30.0580   -9.4170 N   0  0  0  0  0  0  0  0  0  0  0  0
   14.3510   31.3690   -9.0950 C   0  0  0  0  0  0  0  0  0  0  0  0
   16.8895   35.8049   -5.9328 H   0  0  0  0  0  0  0  0  0  0  0  0
    0.0000    0.0000    0.0000 H   0  0  0  0  0  0  0  0  0  0  0  0
   15.0305   37.7658   -7.7484 H   0  0  0  0  0  0  0  0  0  0  0  0
   15.0611   35.7841   -5.4740 H   0  0  0  0  0  0  0  0  0  0  0  0
   13.2295   34.4087   -8.3297 H   0  0  0  0  0  0  0  0  0  0  0  0
    0.0000    0.0000    0.0000 H   0  0  0  0  0  0  0  0  0  0  0  0
   16.4890   36.2260  -10.0710 H   0  0  0  0  0  0  0  0  0  0  0  0
   17.3708   34.1190   -8.0317 H   0  0  0  0  0  0  0  0  0  0  0  0
   16.3697   32.1431  -10.1764 H   0  0  0  0  0  0  0  0  0  0  0  0
   16.1864   33.2387   -6.9328 H   0  0  0  0  0  0  0  0  0  0  0  0
   14.3284   33.3469   -6.8595 H   0  0  0  0  0  0  0  0  0  0  0  0
   16.0057   31.8653   -8.5563 H   0  0  0  0  0  0  0  0  0  0  0  0
   16.7661   31.0282   -7.1487 H   0  0  0  0  0  0  0  0  0  0  0  0
   15.1259   30.8053   -6.2524 H   0  0  0  0  0  0  0  0  0  0  0  0
   16.6505   29.0887   -7.7182 H   0  0  0  0  0  0  0  0  0  0  0  0
   15.0699   28.9643   -6.7355 H   0  0  0  0  0  0  0  0  0  0  0  0
   15.5907   28.6053   -9.3772 H   0  0  0  0  0  0  0  0  0  0  0  0
   14.0528   28.5339   -8.2841 H   0  0  0  0  0  0  0  0  0  0  0  0
   14.6400   29.9744  -10.3761 H   0  0  0  0  0  0  0  0  0  0  0  0
   13.3207   31.7241   -8.9452 H   0  0  0  0  0  0  0  0  0  0  0  0
   14.9098   31.8115   -9.9328 H   0  0  0  0  0  0  0  0  0  0  0  0
  1  2  1  0
  2  3  1  0
  2  4  1  0
  2  5  1  0
  5  6  1  6
  5  7  1  0
  7  8  1  0
  7  9  1  0
  7 10  1  0
  5 11  1  0
 11 12  1  0
 12 13  1  0
 13 14  1  0
 14 15  1  0
 15 16  1  0
 12 17  1  0
 16 17  1  0
  1 18  1  0
  2 19  1  0
  3 20  1  0
  4 21  1  0
  6 22  1  0
  7 23  1  0
  8 24  1  0
  9 25  1  1
 10 26  1  0
 11 27  1  0
 11 28  1  0
 12 29  1  0
 13 30  1  0
 13 31  1  0
 14 32  1  0
 14 33  1  0
 15 34  1  0
 15 35  1  0
 16 36  1  0
 17 37  1  0
 17 38  1  0
M  END
>  <PDBID>  (1) 
1YV5

>  <PDB ID>  (1) 
1YV5

>  <Generic Name>  (1) 
Risedronate

>  <Brand Name>  (1) 
Actonel#Actonel Dr#Actonel Plus Calcium#Actonel Sachet Kit#Apo-risedronate#Atelvia#Auro-risedronate#Dom-risedronate#Jamp-risedronate#Mylan-risedronate#Ntp-risedronate#PHL-risedronate#PMS-risedronate#PMS-risedronate Plus Calcium#Pendo-risedronate#Q-risedronate#Ratio-risedronate#Risedronate#Risedronate Sodium#Risedronate-35#Riva-risedronate#Sandoz Risedronate#Teva-risedronate#Benet

>  <DrugBank ID>  (1) 
DB00884

>  <ATC Codes>  (1) 
M05BB02#M05BA07#M05BB04#M05BB07

>  <Ligand ID>  (1) 
RIS

>  <Target Name>  (1) 
Farnesyl pyrophosphate synthase

>  <UniProt ID>  (1) 
P14324

>  <PDB ID.1>  (1) 
1YV5

>  <Seq. Identity>  (1) 
100%

$$$$
