PDB_DB00619_97
     RDKit          3D

 94 98  0  0  0  0  0  0  0  0999 V2000
    3.9380    3.4650   11.7780 C   0  0  0  0  0  0  0  0  0  0  0  0
    3.6290    2.3700   12.6010 C   0  0  0  0  0  0  0  0  0  0  0  0
    4.6170    1.8690   13.4470 C   0  0  0  0  0  0  0  0  0  0  0  0
    5.8700    2.4920   13.4700 C   0  0  0  0  0  0  0  0  0  0  0  0
    6.1530    3.5280   12.6580 N   0  0  0  0  0  0  0  0  0  0  0  0
    5.2200    4.0130   11.8200 C   0  0  0  0  0  0  0  0  0  0  0  0
    4.3560    0.7770   14.2950 C   0  0  0  0  0  0  0  0  0  0  0  0
    5.3540    0.2660   15.1580 C   0  0  0  0  0  0  0  0  0  0  0  0
    5.0000   -0.7930   15.9910 C   0  0  0  0  0  0  0  0  0  0  0  0
    3.7150   -1.2770   15.9520 N   0  0  0  0  0  0  0  0  0  0  0  0
    2.7860   -0.8100   15.0840 C   0  0  1  0  0  0  0  0  0  0  0  0
    3.0970    0.2260   14.2690 N   0  0  0  0  0  0  0  0  0  0  0  0
    1.5510   -1.3980   15.1430 N   0  0  0  0  0  0  0  0  0  0  0  0
    0.4250   -1.0900   14.4150 C   0  0  0  0  0  0  0  0  0  0  0  0
   -0.6890   -1.8950   14.6570 C   0  0  0  0  0  0  0  0  0  0  0  0
   -1.8910   -1.6720   13.9850 C   0  0  0  0  0  0  0  0  0  0  0  0
   -1.9570   -0.6360   13.0540 C   0  0  0  0  0  0  0  0  0  0  0  0
   -0.8630    0.1810   12.7910 C   0  0  0  0  0  0  0  0  0  0  0  0
    0.3500   -0.0450   13.4700 C   0  0  0  0  0  0  0  0  0  0  0  0
   -1.1130    1.1520   11.8590 N   0  0  0  0  0  0  0  0  0  0  0  0
   -0.2990    2.0520   11.3120 C   0  0  1  0  0  0  0  0  0  0  0  0
   -0.8540    3.2160   10.5210 C   0  0  0  0  0  0  0  0  0  0  0  0
   -0.1590    3.6410    9.3840 C   0  0  0  0  0  0  0  0  0  0  0  0
   -0.6230    4.7160    8.6260 C   0  0  0  0  0  0  0  0  0  0  0  0
   -1.7950    5.3740    9.0020 C   0  0  0  0  0  0  0  0  0  0  0  0
   -2.4920    4.9560   10.1450 C   0  0  0  0  0  0  0  0  0  0  0  0
   -2.0220    3.8790   10.9050 C   0  0  0  0  0  0  0  0  0  0  0  0
   -2.2480    6.5420    8.1440 C   0  0  0  0  0  0  0  0  0  0  0  0
   -3.6840    6.7940    8.1130 N   0  0  0  0  0  0  0  0  0  0  0  0
   -4.2520    7.7800    9.0360 C   0  0  0  0  0  0  0  0  0  0  0  0
   -5.4660    7.1450    9.7170 C   0  0  0  0  0  0  0  0  0  0  0  0
   -6.2730    6.6010    8.6310 N   0  0  0  0  0  0  0  0  0  0  0  0
   -7.6040    7.1290    8.3640 C   0  0  0  0  0  0  0  0  0  0  0  0
   -5.7380    5.5230    7.8110 C   0  0  0  0  0  0  0  0  0  0  0  0
   -4.5020    6.0990    7.1150 C   0  0  0  0  0  0  0  0  0  0  0  0
    0.9160    1.9340   11.3550 O   0  0  0  0  0  0  0  0  0  0  0  0
   -0.6400   -3.0270   15.6600 C   0  0  0  0  0  0  0  0  0  0  0  0
    3.7596    3.1464   10.7404 H   0  0  0  0  0  0  0  0  0  0  0  0
    3.2986    4.2708   12.1676 H   0  0  0  0  0  0  0  0  0  0  0  0
    2.7816    2.6703   13.2349 H   0  0  0  0  0  0  0  0  0  0  0  0
    3.4412    1.5487   11.8937 H   0  0  0  0  0  0  0  0  0  0  0  0
    4.9642    1.2003   12.6455 H   0  0  0  0  0  0  0  0  0  0  0  0
    6.0187    2.8533   14.4983 H   0  0  0  0  0  0  0  0  0  0  0  0
    6.5348    1.7028   13.0889 H   0  0  0  0  0  0  0  0  0  0  0  0
    6.4390    4.3093   13.2652 H   0  0  0  0  0  0  0  0  0  0  0  0
    5.6331    3.9206   10.8047 H   0  0  0  0  0  0  0  0  0  0  0  0
    5.0388    5.0225   12.2176 H   0  0  0  0  0  0  0  0  0  0  0  0
    4.6846    0.0853   13.5054 H   0  0  0  0  0  0  0  0  0  0  0  0
    6.1909   -0.0736   14.5301 H   0  0  0  0  0  0  0  0  0  0  0  0
    5.5869    1.0959   15.8414 H   0  0  0  0  0  0  0  0  0  0  0  0
    5.6669   -1.6323   15.7445 H   0  0  0  0  0  0  0  0  0  0  0  0
    5.0893   -0.3705   17.0027 H   0  0  0  0  0  0  0  0  0  0  0  0
    3.7957   -2.2872   15.7680 H   0  0  0  0  0  0  0  0  0  0  0  0
    2.4288   -0.1026   15.8469 H   0  0  0  0  0  0  0  0  0  0  0  0
    2.4373    0.9852   14.4910 H   0  0  0  0  0  0  0  0  0  0  0  0
    1.7271   -2.3924   14.9402 H   0  0  0  0  0  0  0  0  0  0  0  0
    0.7500   -1.7785   13.6210 H   0  0  0  0  0  0  0  0  0  0  0  0
   -1.0093   -1.2112   15.4569 H   0  0  0  0  0  0  0  0  0  0  0  0
   -2.1413   -2.6016   13.4528 H   0  0  0  0  0  0  0  0  0  0  0  0
   -2.5864   -1.3615   14.7788 H   0  0  0  0  0  0  0  0  0  0  0  0
   -2.2350   -1.0987   12.0956 H   0  0  0  0  0  0  0  0  0  0  0  0
   -2.6614    0.0620   13.5300 H   0  0  0  0  0  0  0  0  0  0  0  0
   -1.1826    0.8662   13.5900 H   0  0  0  0  0  0  0  0  0  0  0  0
    0.6002    0.8860   13.9997 H   0  0  0  0  0  0  0  0  0  0  0  0
    1.0404   -0.3615   12.6743 H   0  0  0  0  0  0  0  0  0  0  0  0
   -1.4892    0.6331   11.0527 H   0  0  0  0  0  0  0  0  0  0  0  0
   -0.2512    1.4500   10.3926 H   0  0  0  0  0  0  0  0  0  0  0  0
   -0.2702    3.9142   11.1388 H   0  0  0  0  0  0  0  0  0  0  0  0
    0.8555    3.9058    9.7167 H   0  0  0  0  0  0  0  0  0  0  0  0
   -0.2705    2.7899    8.6962 H   0  0  0  0  0  0  0  0  0  0  0  0
    0.1777    5.4702    8.6190 H   0  0  0  0  0  0  0  0  0  0  0  0
   -0.8867    4.2546    7.6629 H   0  0  0  0  0  0  0  0  0  0  0  0
   -2.3836    4.6765    8.3880 H   0  0  0  0  0  0  0  0  0  0  0  0
   -2.5394    5.8227   10.8207 H   0  0  0  0  0  0  0  0  0  0  0  0
   -3.4393    4.5766    9.7343 H   0  0  0  0  0  0  0  0  0  0  0  0
   -2.8244    3.1268   10.9218 H   0  0  0  0  0  0  0  0  0  0  0  0
   -1.7482    4.3435   11.8638 H   0  0  0  0  0  0  0  0  0  0  0  0
   -1.7553    7.4493    8.5236 H   0  0  0  0  0  0  0  0  0  0  0  0
   -1.9713    6.2770    7.1129 H   0  0  0  0  0  0  0  0  0  0  0  0
   -3.5031    8.0586    9.7920 H   0  0  0  0  0  0  0  0  0  0  0  0
   -4.5508    8.6870    8.4901 H   0  0  0  0  0  0  0  0  0  0  0  0
   -5.1493    6.3438   10.4009 H   0  0  0  0  0  0  0  0  0  0  0  0
   -6.0268    7.8740   10.3204 H   0  0  0  0  0  0  0  0  0  0  0  0
   -8.1158    7.3320    9.3163 H   0  0  0  0  0  0  0  0  0  0  0  0
   -7.5195    8.0617    7.7870 H   0  0  0  0  0  0  0  0  0  0  0  0
   -8.1819    6.3920    7.7870 H   0  0  0  0  0  0  0  0  0  0  0  0
   -5.4578    4.6660    8.4410 H   0  0  0  0  0  0  0  0  0  0  0  0
   -6.4801    5.1627    7.0833 H   0  0  0  0  0  0  0  0  0  0  0  0
   -4.8135    6.8072    6.3330 H   0  0  0  0  0  0  0  0  0  0  0  0
   -3.9204    5.2887    6.6511 H   0  0  0  0  0  0  0  0  0  0  0  0
    1.2115    1.9053   12.2994 H   0  0  0  0  0  0  0  0  0  0  0  0
   -0.6579   -2.6145   16.6796 H   0  0  0  0  0  0  0  0  0  0  0  0
   -1.5106   -3.6835   15.5148 H   0  0  0  0  0  0  0  0  0  0  0  0
    0.2840   -3.6058   15.5148 H   0  0  0  0  0  0  0  0  0  0  0  0
  1  2  1  0
  2  3  1  0
  3  4  1  0
  4  5  1  0
  1  6  1  0
  5  6  1  0
  3  7  1  0
  7  8  1  0
  8  9  1  0
  9 10  1  0
 10 11  1  0
  7 12  1  0
 11 12  1  0
 11 13  1  0
 13 14  1  0
 14 15  1  0
 15 16  1  0
 16 17  1  0
 17 18  1  0
 14 19  1  0
 18 19  1  0
 18 20  1  0
 20 21  1  0
 21 22  1  0
 22 23  1  0
 23 24  1  0
 24 25  1  0
 25 26  1  0
 22 27  1  0
 26 27  1  0
 25 28  1  0
 28 29  1  0
 29 30  1  0
 30 31  1  0
 31 32  1  0
 32 33  1  0
 32 34  1  0
 29 35  1  0
 34 35  1  0
 21 36  1  0
 15 37  1  0
  1 38  1  0
  1 39  1  0
  2 40  1  0
  2 41  1  0
  3 42  1  0
  4 43  1  0
  4 44  1  0
  5 45  1  0
  6 46  1  0
  6 47  1  0
  7 48  1  0
  8 49  1  0
  8 50  1  0
  9 51  1  0
  9 52  1  0
 10 53  1  0
 11 54  1  6
 12 55  1  0
 13 56  1  0
 14 57  1  0
 15 58  1  0
 16 59  1  0
 16 60  1  0
 17 61  1  0
 17 62  1  0
 18 63  1  0
 19 64  1  0
 19 65  1  0
 20 66  1  0
 21 67  1  1
 22 68  1  0
 23 69  1  0
 23 70  1  0
 24 71  1  0
 24 72  1  0
 25 73  1  0
 26 74  1  0
 26 75  1  0
 27 76  1  0
 27 77  1  0
 28 78  1  0
 28 79  1  0
 30 80  1  0
 30 81  1  0
 31 82  1  0
 31 83  1  0
 33 84  1  0
 33 85  1  0
 33 86  1  0
 34 87  1  0
 34 88  1  0
 35 89  1  0
 35 90  1  0
 36 91  1  0
 37 92  1  0
 37 93  1  0
 37 94  1  0
M  END
>  <PDBID>  (1) 
1XBB

>  <PDB ID>  (1) 
1XBB

>  <Generic Name>  (1) 
Imatinib

>  <Brand Name>  (1) 
Apo-imatinib#Gleevec#Imatinib Mesylate#Mylan-imatinib#Nat-imatinib#PMS-imatinib#Ran-imatinib#Teva-imatinib#Celonib#Enliven#Glivec#Imatib#Mesylonib#Mitinab#Plivatinib#Shantinib

>  <DrugBank ID>  (1) 
DB00619

>  <ATC Codes>  (1) 
L01XE01

>  <Ligand ID>  (1) 
STI

>  <Target Name>  (1) 
Mast/stem cell growth factor receptor Kit

>  <UniProt ID>  (1) 
P10721

>  <PDB ID.1>  (1) 
1XBB

>  <Seq. Identity>  (1) 
45%

$$$$
