PDB_DB08901_96
     RDKit          3D

 66 70  0  0  0  0  0  0  0  0999 V2000
    2.9280   -0.9870    6.5170 N   0  0  0  0  0  0  0  0  0  0  0  0
   -1.1290   -3.2240   21.9190 N   0  0  0  0  0  0  0  0  0  0  0  0
    1.3100   -3.7980   10.0600 C   0  0  0  0  0  0  0  0  0  0  0  0
    0.5840   -4.4930   11.0730 C   0  0  0  0  0  0  0  0  0  0  0  0
   -0.1620   -5.6410   10.8280 C   0  0  0  0  0  0  0  0  0  0  0  0
   -0.8450   -6.2510   11.8660 C   0  0  0  0  0  0  0  0  0  0  0  0
   -0.7580   -5.7500   13.1510 C   0  0  0  0  0  0  0  0  0  0  0  0
    0.6510   -3.9710   12.3460 C   0  0  0  0  0  0  0  0  0  0  0  0
   -0.9380   -3.8660   16.9090 C   0  0  0  0  0  0  0  0  0  0  0  0
   -1.3280   -4.2080   19.2150 C   0  0  0  0  0  0  0  0  0  0  0  0
   -1.1570   -1.9670   18.3820 C   0  0  0  0  0  0  0  0  0  0  0  0
   -1.5710   -2.3360   20.8320 C   0  0  0  0  0  0  0  0  0  0  0  0
    0.3010   -3.0080   22.2200 C   0  0  0  0  0  0  0  0  0  0  0  0
    0.6500   -4.0100   23.2870 C   0  0  0  0  0  0  0  0  0  0  0  0
   -2.1180   -3.1550   23.0330 C   0  0  0  0  0  0  0  0  0  0  0  0
    5.3440   -1.4890    6.3130 C   0  0  0  0  0  0  0  0  0  0  0  0
    6.3430   -2.2080    6.8350 C   0  0  0  0  0  0  0  0  0  0  0  0
    5.9620   -3.0930    7.9470 C   0  0  0  0  0  0  0  0  0  0  0  0
    4.7760   -3.2550    8.4480 N   0  0  0  0  0  0  0  0  0  0  0  0
    3.8590   -2.4990    7.8560 N   0  0  0  0  0  0  0  0  0  0  0  0
    4.0460   -1.6050    6.8380 C   0  0  0  0  0  0  0  0  0  0  0  0
    1.9840   -1.5000    7.3660 C   0  0  0  0  0  0  0  0  0  0  0  0
    2.5460   -2.4440    8.1990 C   0  0  0  0  0  0  0  0  0  0  0  0
    1.9040   -3.2000    9.2090 C   0  0  0  0  0  0  0  0  0  0  0  0
   -0.0100   -4.6100   13.3690 C   0  0  0  0  0  0  0  0  0  0  0  0
   -0.2300   -6.2350    9.4570 C   0  0  0  0  0  0  0  0  0  0  0  0
    0.0990   -3.9680   14.6820 C   0  0  0  0  0  0  0  0  0  0  0  0
    0.9150   -3.0650   14.7990 O   0  0  0  0  0  0  0  0  0  0  0  0
   -0.7730   -4.4400   15.6350 N   0  0  0  0  0  0  0  0  0  0  0  0
   -1.1070   -4.7320   17.9640 C   0  0  0  0  0  0  0  0  0  0  0  0
   -1.3510   -2.8420   19.4390 C   0  0  0  0  0  0  0  0  0  0  0  0
   -0.9660   -2.4990   17.1180 C   0  0  0  0  0  0  0  0  0  0  0  0
   -1.1670   -0.4690   18.5630 C   0  0  0  0  0  0  0  0  0  0  0  0
   -0.9870    0.1800   17.3880 F   0  0  0  0  0  0  0  0  0  0  0  0
   -2.2980    0.0510   19.1430 F   0  0  0  0  0  0  0  0  0  0  0  0
   -0.1470   -0.0270   19.3390 F   0  0  0  0  0  0  0  0  0  0  0  0
   -1.6400   -3.9270   24.2580 C   0  0  0  0  0  0  0  0  0  0  0  0
    0.3200   -4.3240   25.6810 C   0  0  0  0  0  0  0  0  0  0  0  0
   -0.1920   -3.6560   24.4640 N   0  0  0  0  0  0  0  0  0  0  0  0
   -1.4610   -7.1403   11.6668 H   0  0  0  0  0  0  0  0  0  0  0  0
   -1.2745   -6.2496   13.9838 H   0  0  0  0  0  0  0  0  0  0  0  0
    1.2262   -3.0541   12.5420 H   0  0  0  0  0  0  0  0  0  0  0  0
   -1.4910   -4.8921   20.0609 H   0  0  0  0  0  0  0  0  0  0  0  0
   -2.6492   -2.1593   20.9594 H   0  0  0  0  0  0  0  0  0  0  0  0
   -0.9526   -1.4305   20.9193 H   0  0  0  0  0  0  0  0  0  0  0  0
    0.9117   -3.1772   21.3209 H   0  0  0  0  0  0  0  0  0  0  0  0
    0.4940   -1.9775   22.5529 H   0  0  0  0  0  0  0  0  0  0  0  0
    0.4212   -5.0300   22.9447 H   0  0  0  0  0  0  0  0  0  0  0  0
    1.7219   -3.9846   23.5325 H   0  0  0  0  0  0  0  0  0  0  0  0
   -2.2687   -2.1016   23.3116 H   0  0  0  0  0  0  0  0  0  0  0  0
   -3.0582   -3.6086   22.6863 H   0  0  0  0  0  0  0  0  0  0  0  0
    5.5383   -0.8066    5.4724 H   0  0  0  0  0  0  0  0  0  0  0  0
    7.3751   -2.1427    6.4603 H   0  0  0  0  0  0  0  0  0  0  0  0
    6.7712   -3.6818    8.4037 H   0  0  0  0  0  0  0  0  0  0  0  0
    0.9256   -1.2008    7.3813 H   0  0  0  0  0  0  0  0  0  0  0  0
   -0.3548   -7.3251    9.5355 H   0  0  0  0  0  0  0  0  0  0  0  0
   -1.0849   -5.8062    8.9136 H   0  0  0  0  0  0  0  0  0  0  0  0
    0.6997   -6.0105    8.9136 H   0  0  0  0  0  0  0  0  0  0  0  0
   -1.3416   -5.2664   15.4012 H   0  0  0  0  0  0  0  0  0  0  0  0
   -1.0662   -5.8204   17.8098 H   0  0  0  0  0  0  0  0  0  0  0  0
   -0.8338   -1.8205   16.2624 H   0  0  0  0  0  0  0  0  0  0  0  0
   -2.2061   -3.6018   25.1433 H   0  0  0  0  0  0  0  0  0  0  0  0
   -1.7992   -5.0046   24.1047 H   0  0  0  0  0  0  0  0  0  0  0  0
   -0.0720   -3.8125   26.5725 H   0  0  0  0  0  0  0  0  0  0  0  0
   -0.0065   -5.3744   25.6876 H   0  0  0  0  0  0  0  0  0  0  0  0
    1.4192   -4.2817   25.6876 H   0  0  0  0  0  0  0  0  0  0  0  0
  3  4  1  0
  4  5  2  0
  5  6  1  0
  6  7  2  0
  4  8  1  0
  2 12  1  0
  2 13  1  0
 13 14  1  0
  2 15  1  0
 16 17  2  0
 17 18  1  0
 18 19  2  0
 19 20  1  0
  1 21  2  0
 16 21  1  0
 20 21  1  0
  1 22  1  0
 20 23  1  0
 22 23  2  0
  3 24  3  0
 23 24  1  0
  7 25  1  0
  8 25  2  0
  5 26  1  0
 25 27  1  0
 27 28  2  0
  9 29  1  0
 27 29  1  0
  9 30  1  0
 10 30  2  0
 10 31  1  0
 11 31  2  0
 12 31  1  0
  9 32  2  0
 11 32  1  0
 11 33  1  0
 33 34  1  0
 33 35  1  0
 33 36  1  0
 15 37  1  0
 14 39  1  0
 37 39  1  0
 38 39  1  0
  6 40  1  0
  7 41  1  0
  8 42  1  0
 10 43  1  0
 12 44  1  0
 12 45  1  0
 13 46  1  0
 13 47  1  0
 14 48  1  0
 14 49  1  0
 15 50  1  0
 15 51  1  0
 16 52  1  0
 17 53  1  0
 18 54  1  0
 22 55  1  0
 26 56  1  0
 26 57  1  0
 26 58  1  0
 29 59  1  0
 30 60  1  0
 32 61  1  0
 37 62  1  0
 37 63  1  0
 38 64  1  0
 38 65  1  0
 38 66  1  0
M  END
>  <PDBID>  (1) 
4UXQ

>  <PDB ID>  (1) 
4UXQ

>  <Generic Name>  (1) 
Ponatinib

>  <Brand Name>  (1) 
Iclusig

>  <DrugBank ID>  (1) 
DB08901

>  <ATC Codes>  (1) 
L01XE24

>  <Ligand ID>  (1) 
0LI

>  <Target Name>  (1) 
Tyrosine-protein kinase ABL1

>  <UniProt ID>  (1) 
P00519

>  <PDB ID.1>  (1) 
4UXQ

>  <Seq. Identity>  (1) 
42%

$$$$
