PDB_DB00360_96
     RDKit          3D

 32 33  0  0  0  0  0  0  0  0999 V2000
   19.8440  236.0790   23.3290 N   0  0  0  0  0  0  0  0  0  0  0  0
   19.5710  237.2980   23.8390 C   0  0  0  0  0  0  0  0  0  0  0  0
   20.5570  238.0180   24.4380 N   0  0  0  0  0  0  0  0  0  0  0  0
   18.3230  237.8080   23.7410 N   0  0  0  0  0  0  0  0  0  0  0  0
   17.3200  237.1160   23.1500 C   0  0  0  0  0  0  0  0  0  0  0  0
   16.1730  237.6440   23.0860 O   0  0  0  0  0  0  0  0  0  0  0  0
   17.5810  235.8510   22.6350 C   0  0  0  0  0  0  0  0  0  0  0  0
   18.8730  235.3420   22.7360 C   0  0  0  0  0  0  0  0  0  0  0  0
   16.6230  235.1000   22.0220 N   0  0  0  0  0  0  0  0  0  0  0  0
   19.1880  234.1140   22.2410 N   0  0  0  0  0  0  0  0  0  0  0  0
   16.8160  233.6630   22.0420 C   0  0  2  0  0  0  0  0  0  0  0  0
   18.2080  233.2970   21.5230 C   0  0  0  0  0  0  0  0  0  0  0  0
   15.7310  232.9390   21.2430 C   0  0  1  0  0  0  0  0  0  0  0  0
   15.6310  233.4900   19.9190 O   0  0  0  0  0  0  0  0  0  0  0  0
   16.0630  231.4460   21.1640 C   0  0  2  0  0  0  0  0  0  0  0  0
   14.9420  230.6800   20.4650 C   0  0  0  0  0  0  0  0  0  0  0  0
   16.2750  230.9100   22.4810 O   0  0  0  0  0  0  0  0  0  0  0  0
   20.3507  238.9487   24.8280 H   0  0  0  0  0  0  0  0  0  0  0  0
   21.5100  237.6326   24.5017 H   0  0  0  0  0  0  0  0  0  0  0  0
   18.1305  238.7443   24.1246 H   0  0  0  0  0  0  0  0  0  0  0  0
   15.8047  235.5306   21.5683 H   0  0  0  0  0  0  0  0  0  0  0  0
   20.1419  233.7495   22.3752 H   0  0  0  0  0  0  0  0  0  0  0  0
   16.7355  233.3304   23.0874 H   0  0  0  0  0  0  0  0  0  0  0  0
   18.2699  233.5021   20.4441 H   0  0  0  0  0  0  0  0  0  0  0  0
   18.4081  232.2279   21.6874 H   0  0  0  0  0  0  0  0  0  0  0  0
   14.7645  233.0724   21.7510 H   0  0  0  0  0  0  0  0  0  0  0  0
   15.4545  234.4623   19.9787 H   0  0  0  0  0  0  0  0  0  0  0  0
   16.9866  231.3306   20.5778 H   0  0  0  0  0  0  0  0  0  0  0  0
   14.2809  230.2283   21.2192 H   0  0  0  0  0  0  0  0  0  0  0  0
   14.3621  231.3715   19.8361 H   0  0  0  0  0  0  0  0  0  0  0  0
   15.3755  229.8884   19.8361 H   0  0  0  0  0  0  0  0  0  0  0  0
   16.0092  231.5821   23.1575 H   0  0  0  0  0  0  0  0  0  0  0  0
  1  2  2  0
  2  3  1  0
  2  4  1  0
  4  5  1  0
  5  6  2  0
  5  7  1  0
  1  8  1  0
  7  8  2  0
  7  9  1  0
  8 10  1  0
  9 11  1  0
 10 12  1  0
 11 12  1  0
 11 13  1  0
 13 14  1  0
 13 15  1  0
 15 16  1  0
 15 17  1  0
  3 18  1  0
  3 19  1  0
  4 20  1  0
  9 21  1  0
 10 22  1  0
 11 23  1  1
 12 24  1  0
 12 25  1  0
 13 26  1  1
 14 27  1  0
 15 28  1  6
 16 29  1  0
 16 30  1  0
 16 31  1  0
 17 32  1  0
M  END
$$$$
