PDB_DB01179_99
     RDKit          3D

 52 56  0  0  0  0  0  0  0  0999 V2000
  115.8170   88.0870    9.5210 O   0  0  0  0  0  0  0  0  0  0  0  0
  116.7590   88.7760    9.2880 C   0  0  0  0  0  0  0  0  0  0  0  0
  117.8560   89.0970   10.1540 O   0  0  0  0  0  0  0  0  0  0  0  0
  116.8600   89.6020    8.1320 C   0  0  1  0  0  0  0  0  0  0  0  0
  118.1620   90.3260    8.1850 C   0  0  2  0  0  0  0  0  0  0  0  0
  118.7580   90.0630    9.5740 C   0  0  0  0  0  0  0  0  0  0  0  0
  115.8340   89.5410    7.1110 C   0  0  1  0  0  0  0  0  0  0  0  0
  116.0340   90.7580    6.2810 C   0  0  0  0  0  0  0  0  0  0  0  0
  117.1200   91.5930    6.3780 C   0  0  0  0  0  0  0  0  0  0  0  0
  118.3010   91.5950    7.3500 C   0  0  2  0  0  0  0  0  0  0  0  0
  119.6020   91.6540    6.7170 O   0  0  0  0  0  0  0  0  0  0  0  0
  116.9360   92.4330    5.4950 C   0  0  0  0  0  0  0  0  0  0  0  0
  116.2460   92.8600    4.5880 C   0  0  0  0  0  0  0  0  0  0  0  0
  115.2130   92.0860    4.4790 C   0  0  0  0  0  0  0  0  0  0  0  0
  115.0820   91.0220    5.3250 C   0  0  0  0  0  0  0  0  0  0  0  0
  116.2490   93.9360    3.6420 O   0  0  0  0  0  0  0  0  0  0  0  0
  115.0440   93.7610    2.8620 C   0  0  0  0  0  0  0  0  0  0  0  0
  114.3920   92.5890    3.3990 O   0  0  0  0  0  0  0  0  0  0  0  0
  116.0330   88.2880    6.3640 C   0  0  0  0  0  0  0  0  0  0  0  0
  115.2670   87.2070    6.7290 C   0  0  0  0  0  0  0  0  0  0  0  0
  115.3410   85.9830    6.0670 C   0  0  0  0  0  0  0  0  0  0  0  0
  114.5720   84.9050    6.4100 O   0  0  0  0  0  0  0  0  0  0  0  0
  114.6830   84.1330    7.6000 C   0  0  0  0  0  0  0  0  0  0  0  0
  116.1890   85.8210    5.0250 C   0  0  0  0  0  0  0  0  0  0  0  0
  116.2390   84.6140    4.3940 O   0  0  0  0  0  0  0  0  0  0  0  0
  115.2090   83.6380    4.2380 C   0  0  0  0  0  0  0  0  0  0  0  0
  116.9580   86.8840    4.6520 C   0  0  0  0  0  0  0  0  0  0  0  0
  116.8980   88.1190    5.3020 C   0  0  0  0  0  0  0  0  0  0  0  0
  117.7840   86.6800    3.6070 O   0  0  0  0  0  0  0  0  0  0  0  0
  117.4220   87.2960    2.3700 C   0  0  0  0  0  0  0  0  0  0  0  0
  116.3793   90.4264    8.6791 H   0  0  0  0  0  0  0  0  0  0  0  0
  118.9670   89.9687    7.5259 H   0  0  0  0  0  0  0  0  0  0  0  0
  118.7822   90.9860   10.1720 H   0  0  0  0  0  0  0  0  0  0  0  0
  119.7974   89.7053    9.5320 H   0  0  0  0  0  0  0  0  0  0  0  0
  114.8021   89.5308    7.4919 H   0  0  0  0  0  0  0  0  0  0  0  0
  118.2603   92.5113    7.9573 H   0  0  0  0  0  0  0  0  0  0  0  0
  120.3061   91.6859    7.4122 H   0  0  0  0  0  0  0  0  0  0  0  0
  117.7972   93.1148    5.5545 H   0  0  0  0  0  0  0  0  0  0  0  0
  114.2024   90.3670    5.2403 H   0  0  0  0  0  0  0  0  0  0  0  0
  114.3921   94.6413    2.9622 H   0  0  0  0  0  0  0  0  0  0  0  0
  115.2690   93.6435    1.7917 H   0  0  0  0  0  0  0  0  0  0  0  0
  114.5705   87.3117    7.5740 H   0  0  0  0  0  0  0  0  0  0  0  0
  114.5882   84.7926    8.4752 H   0  0  0  0  0  0  0  0  0  0  0  0
  113.8843   83.3769    7.6224 H   0  0  0  0  0  0  0  0  0  0  0  0
  115.6623   83.6326    7.6224 H   0  0  0  0  0  0  0  0  0  0  0  0
  114.8622   83.3094    5.2288 H   0  0  0  0  0  0  0  0  0  0  0  0
  114.3678   84.0782    3.6825 H   0  0  0  0  0  0  0  0  0  0  0  0
  115.6033   82.7743    3.6825 H   0  0  0  0  0  0  0  0  0  0  0  0
  117.5359   88.9512    4.9696 H   0  0  0  0  0  0  0  0  0  0  0  0
  116.8741   88.2284    2.5712 H   0  0  0  0  0  0  0  0  0  0  0  0
  118.3309   87.5220    1.7931 H   0  0  0  0  0  0  0  0  0  0  0  0
  116.7822   86.6119    1.7931 H   0  0  0  0  0  0  0  0  0  0  0  0
  1  2  2  0
  2  3  1  0
  2  4  1  0
  4  5  1  0
  3  6  1  0
  5  6  1  0
  4  7  1  0
  7  8  1  0
  8  9  2  0
  5 10  1  0
  9 10  1  0
 10 11  1  0
  9 12  1  0
 12 13  2  0
 13 14  1  0
  8 15  1  0
 14 15  2  0
 13 16  1  0
 16 17  1  0
 14 18  1  0
 17 18  1  0
  7 19  1  0
 19 20  2  0
 20 21  1  0
 21 22  1  0
 22 23  1  0
 21 24  2  0
 24 25  1  0
 25 26  1  0
 24 27  1  0
 19 28  1  0
 27 28  2  0
 27 29  1  0
 29 30  1  0
  4 31  1  1
  5 32  1  6
  6 33  1  0
  6 34  1  0
  7 35  1  1
 10 36  1  1
 11 37  1  0
 12 38  1  0
 15 39  1  0
 17 40  1  0
 17 41  1  0
 20 42  1  0
 23 43  1  0
 23 44  1  0
 23 45  1  0
 26 46  1  0
 26 47  1  0
 26 48  1  0
 28 49  1  0
 30 50  1  0
 30 51  1  0
 30 52  1  0
M  END
$$$$
