PDB_DB00551_97
     RDKit          3D

 12 11  0  0  0  0  0  0  0  0999 V2000
  127.1070  130.7170   85.9540 C   0  0  0  0  0  0  0  0  0  0  0  0
  127.6460  129.4310   86.5920 C   0  0  0  0  0  0  0  0  0  0  0  0
  127.3910  129.1820   87.7800 O   0  0  0  0  0  0  0  0  0  0  0  0
  128.3870  128.6160   85.8160 N   0  0  0  0  0  0  0  0  0  0  0  0
  128.8260  127.5700   86.3310 O   0  0  0  0  0  0  0  0  0  0  0  0
  126.8113  131.4225   86.7445 H   0  0  0  0  0  0  0  0  0  0  0  0
  127.8898  131.1727   85.3299 H   0  0  0  0  0  0  0  0  0  0  0  0
  126.2332  130.4784   85.3299 H   0  0  0  0  0  0  0  0  0  0  0  0
  128.5570  129.9654   86.8995 H   0  0  0  0  0  0  0  0  0  0  0  0
  127.9628  129.7403   88.3643 H   0  0  0  0  0  0  0  0  0  0  0  0
  127.8042  128.3424   85.0121 H   0  0  0  0  0  0  0  0  0  0  0  0
  128.7930  127.6487   87.3173 H   0  0  0  0  0  0  0  0  0  0  0  0
  1  2  1  0
  2  3  1  0
  2  4  1  0
  4  5  1  0
  1  6  1  0
  1  7  1  0
  1  8  1  0
  2  9  1  0
  3 10  1  0
  4 11  1  0
  5 12  1  6
M  END
>  <PDBID>  (1) 
1E9Y

>  <PDB ID>  (1) 
1E9Y

>  <Generic Name>  (1) 
Acetohydroxamic Acid

>  <Brand Name>  (1) 
Lithostat

>  <DrugBank ID>  (1) 
DB00551

>  <ATC Codes>  (1) 
G04BX03

>  <Ligand ID>  (1) 
HAE

>  <Target Name>  (1) 
Urease subunit alpha

>  <UniProt ID>  (1) 
P18314

>  <PDB ID.1>  (1) 
1E9Y

>  <Seq. Identity>  (1) 
58%

$$$$
