PDB_DB00399_97
     RDKit          3D

 26 26  0  0  0  0  0  0  0  0999 V2000
   16.8100   76.0560   23.2620 O   0  0  0  0  0  0  0  0  0  0  0  0
   15.4290   76.0940   23.8230 P   0  0  0  0  0  0  0  0  0  0  0  0
   15.1510   74.8320   24.7620 O   0  0  0  0  0  0  0  0  0  0  0  0
   14.2300   76.0720   22.7420 O   0  0  0  0  0  0  0  0  0  0  0  0
   15.0700   77.5070   24.8860 C   0  0  0  0  0  0  0  0  0  0  0  0
   16.4230   77.6300   26.1450 P   0  0  0  0  0  0  0  0  0  0  0  0
   15.9760   78.9300   26.9840 O   0  0  0  0  0  0  0  0  0  0  0  0
   16.2300   76.2730   26.9310 O   0  0  0  0  0  0  0  0  0  0  0  0
   17.7470   77.8020   25.4670 O   0  0  0  0  0  0  0  0  0  0  0  0
   13.7940   77.2930   25.5300 O   0  0  0  0  0  0  0  0  0  0  0  0
   15.0610   78.7550   23.9450 C   0  0  0  0  0  0  0  0  0  0  0  0
   14.7610   80.0300   24.5850 N   0  0  0  0  0  0  0  0  0  0  0  0
   13.7150   80.3000   25.2650 C   0  0  0  0  0  0  0  0  0  0  0  0
   13.7750   81.4660   25.6410 N   0  0  0  0  0  0  0  0  0  0  0  0
   14.8430   82.0740   25.2620 C   0  0  0  0  0  0  0  0  0  0  0  0
   15.5290   81.1210   24.5450 C   0  0  0  0  0  0  0  0  0  0  0  0
   17.4667   76.0379   24.0026 H   0  0  0  0  0  0  0  0  0  0  0  0
   15.2116   75.1071   25.7111 H   0  0  0  0  0  0  0  0  0  0  0  0
   16.0425   78.7365   27.9526 H   0  0  0  0  0  0  0  0  0  0  0  0
   16.2551   76.4493   27.9049 H   0  0  0  0  0  0  0  0  0  0  0  0
   13.9128   77.3129   26.5126 H   0  0  0  0  0  0  0  0  0  0  0  0
   16.0555   78.8356   23.4818 H   0  0  0  0  0  0  0  0  0  0  0  0
   14.2457   78.5820   23.2271 H   0  0  0  0  0  0  0  0  0  0  0  0
   12.8933   79.6007   25.4790 H   0  0  0  0  0  0  0  0  0  0  0  0
   15.1391   83.1139   25.4641 H   0  0  0  0  0  0  0  0  0  0  0  0
   16.5025   81.2340   24.0455 H   0  0  0  0  0  0  0  0  0  0  0  0
  1  2  1  0
  2  3  1  0
  2  4  2  0
  2  5  1  0
  5  6  1  0
  6  7  1  0
  6  8  1  0
  6  9  2  0
  5 10  1  0
  5 11  1  0
 11 12  1  0
 12 13  1  0
 13 14  2  0
 14 15  1  0
 12 16  1  0
 15 16  2  0
  1 17  1  0
  3 18  1  0
  7 19  1  0
  8 20  1  0
 10 21  1  0
 11 22  1  0
 11 23  1  0
 13 24  1  0
 15 25  1  0
 16 26  1  0
M  END
>  <PDBID>  (1) 
2F8C

>  <PDB ID>  (1) 
2F8C

>  <Generic Name>  (1) 
Zoledronic acid

>  <Brand Name>  (1) 
Aclasta#Act Zoledronic Acid#Act Zoledronic Acid Concentrate#PMS-zoledronic Acid#Reclast#Taro-zoledronic Acid#Taro-zoledronic Acid Concentrate#Val-zoledronic Acid#Zoledronic Acid#Zoledronic Acid - A#Zoledronic Acid - Z#Zoledronic Acid Concentrate#Zoledronic Acid Concentrate for Injection#Zoledronic Acid Injection#Zoledronic Acid for Injection#Zoledronic Acid for Injection Concentrate#Zometa#Zometa Concentrate#Zometa Lyophilized Powder

>  <DrugBank ID>  (1) 
DB00399

>  <ATC Codes>  (1) 
M05BB08#M05BA08

>  <Ligand ID>  (1) 
ZOL

>  <Target Name>  (1) 
Farnesyl pyrophosphate synthase

>  <UniProt ID>  (1) 
P14324

>  <PDB ID.1>  (1) 
2F8C

>  <Seq. Identity>  (1) 
100%

$$$$
