PDB_DB00730_99
     RDKit          3D

 33 35  0  0  0  0  0  0  0  0999 V2000
   85.2100   65.0860   86.1900 C   0  0  0  0  0  0  0  0  0  0  0  0
   84.1680   65.9500   86.1360 N   0  0  0  0  0  0  0  0  0  0  0  0
   83.0910   65.1490   86.1240 C   0  0  0  0  0  0  0  0  0  0  0  0
   81.6970   65.6790   86.0650 C   0  0  0  0  0  0  0  0  0  0  0  0
   81.5020   67.0530   86.0270 C   0  0  0  0  0  0  0  0  0  0  0  0
   79.7750   67.1510   85.9730 S   0  0  0  0  0  0  0  0  0  0  0  0
   79.4330   65.4450   86.0040 C   0  0  0  0  0  0  0  0  0  0  0  0
   80.6390   64.8130   86.0540 N   0  0  0  0  0  0  0  0  0  0  0  0
   83.3560   63.8330   86.1670 N   0  0  0  0  0  0  0  0  0  0  0  0
   84.7040   63.7710   86.2100 C   0  0  0  0  0  0  0  0  0  0  0  0
   85.5730   62.6810   86.2660 C   0  0  0  0  0  0  0  0  0  0  0  0
   86.9490   62.9040   86.3010 C   0  0  0  0  0  0  0  0  0  0  0  0
   87.4540   64.2080   86.2780 C   0  0  0  0  0  0  0  0  0  0  0  0
   86.5890   65.3020   86.2230 C   0  0  0  0  0  0  0  0  0  0  0  0
   85.1773   65.1153   87.2891 H   0  0  0  0  0  0  0  0  0  0  0  0
   84.1585   66.5660   86.9614 H   0  0  0  0  0  0  0  0  0  0  0  0
   83.0561   65.1795   87.2230 H   0  0  0  0  0  0  0  0  0  0  0  0
   81.6600   65.7042   87.1641 H   0  0  0  0  0  0  0  0  0  0  0  0
   81.9048   67.5416   86.9264 H   0  0  0  0  0  0  0  0  0  0  0  0
   82.0075   67.5561   85.1895 H   0  0  0  0  0  0  0  0  0  0  0  0
   78.8340   65.1929   86.8915 H   0  0  0  0  0  0  0  0  0  0  0  0
   78.8572   65.1370   85.1188 H   0  0  0  0  0  0  0  0  0  0  0  0
   80.7237   64.2021   85.2290 H   0  0  0  0  0  0  0  0  0  0  0  0
   82.9430   63.4039   87.0074 H   0  0  0  0  0  0  0  0  0  0  0  0
   84.6703   63.8007   87.3091 H   0  0  0  0  0  0  0  0  0  0  0  0
   85.3172   62.1134   87.1729 H   0  0  0  0  0  0  0  0  0  0  0  0
   85.4166   62.1746   85.3021 H   0  0  0  0  0  0  0  0  0  0  0  0
   87.3213   62.4373   87.2249 H   0  0  0  0  0  0  0  0  0  0  0  0
   87.2936   62.4864   85.3434 H   0  0  0  0  0  0  0  0  0  0  0  0
   88.0569   64.3285   87.1901 H   0  0  0  0  0  0  0  0  0  0  0  0
   87.9737   64.2548   85.3097 H   0  0  0  0  0  0  0  0  0  0  0  0
   86.8462   65.8682   85.3156 H   0  0  0  0  0  0  0  0  0  0  0  0
   86.7488   65.8070   87.1871 H   0  0  0  0  0  0  0  0  0  0  0  0
  1  2  1  0
  2  3  1  0
  3  4  1  0
  4  5  1  0
  5  6  1  0
  6  7  1  0
  4  8  1  0
  7  8  1  0
  3  9  1  0
  1 10  1  0
  9 10  1  0
 10 11  1  0
 11 12  1  0
 12 13  1  0
  1 14  1  0
 13 14  1  0
  1 15  1  0
  2 16  1  0
  3 17  1  0
  4 18  1  0
  5 19  1  0
  5 20  1  0
  7 21  1  0
  7 22  1  0
  8 23  1  0
  9 24  1  0
 10 25  1  0
 11 26  1  0
 11 27  1  0
 12 28  1  0
 12 29  1  0
 13 30  1  0
 13 31  1  0
 14 32  1  0
 14 33  1  0
M  END
>  <PDBID>  (1) 
3SFE

>  <PDB ID>  (1) 
3SFE

>  <Generic Name>  (1) 
Thiabendazole

>  <Brand Name>  (1) 
Mintezol Chewable Tab 500mg#Mintezol

>  <DrugBank ID>  (1) 
DB00730

>  <ATC Codes>  (1) 
D01AC06#P02CA02

>  <Ligand ID>  (1) 
TMG

>  <Target Name>  (1) 
Fumarate reductase flavoprotein subunit

>  <UniProt ID>  (1) 
P00363

>  <PDB ID.1>  (1) 
3SFE

>  <Seq. Identity>  (1) 
38%

$$$$
