PDB_DB01072_97
     RDKit          3D

129131  0  0  0  0  0  0  0  0999 V2000
   20.7340   23.4750    9.2320 C   0  0  0  0  0  0  0  0  0  0  0  0
   21.0810   24.8530    9.3900 O   0  0  0  0  0  0  0  0  0  0  0  0
   21.5960   25.3580   10.6480 C   0  0  0  0  0  0  0  0  0  0  0  0
   21.8310   24.5800   11.5650 O   0  0  0  0  0  0  0  0  0  0  0  0
   21.8050   26.6660   10.7200 N   0  0  0  0  0  0  0  0  0  0  0  0
   22.3140   27.3330   11.9070 C   0  0  1  0  0  0  0  0  0  0  0  0
   23.7220   27.8930   11.6700 C   0  0  1  0  0  0  0  0  0  0  0  0
   24.7030   26.7280   11.5370 C   0  0  0  0  0  0  0  0  0  0  0  0
   23.8190   28.7630   10.4170 C   0  0  0  0  0  0  0  0  0  0  0  0
   24.1400   28.7380   12.8720 C   0  0  0  0  0  0  0  0  0  0  0  0
   21.2880   28.3430   12.3560 C   0  0  0  0  0  0  0  0  0  0  0  0
   21.1160   29.3870   11.7420 O   0  0  0  0  0  0  0  0  0  0  0  0
   20.5650   28.0520   13.4440 N   0  0  0  0  0  0  0  0  0  0  0  0
   19.5270   28.9070   14.0080 C   0  0  1  0  0  0  0  0  0  0  0  0
   18.2010   28.1830   13.7830 C   0  0  0  0  0  0  0  0  0  0  0  0
   17.9890   27.7590   12.3410 C   0  0  0  0  0  0  0  0  0  0  0  0
   17.4460   28.6400   11.4150 C   0  0  0  0  0  0  0  0  0  0  0  0
   17.2490   28.2370   10.0990 C   0  0  0  0  0  0  0  0  0  0  0  0
   17.5900   26.9490    9.6940 C   0  0  0  0  0  0  0  0  0  0  0  0
   18.1330   26.0610   10.6160 C   0  0  0  0  0  0  0  0  0  0  0  0
   18.3210   26.4710   11.9370 C   0  0  0  0  0  0  0  0  0  0  0  0
   19.7420   29.1900   15.5070 C   0  0  1  0  0  0  0  0  0  0  0  0
   19.9670   28.0220   16.2910 O   0  0  0  0  0  0  0  0  0  0  0  0
   20.9700   29.9990   15.8320 C   0  0  0  0  0  0  0  0  0  0  0  0
   20.8690   31.4120   15.4740 N   0  0  0  0  0  0  0  0  0  0  0  0
   19.8860   32.0270   16.1480 N   0  0  0  0  0  0  0  0  0  0  0  0
   18.9560   32.7770   15.5440 C   0  0  0  0  0  0  0  0  0  0  0  0
   18.9320   32.9270   14.3330 O   0  0  0  0  0  0  0  0  0  0  0  0
   17.9460   33.4790   16.4100 C   0  0  2  0  0  0  0  0  0  0  0  0
   16.5010   33.4390   15.9010 C   0  0  1  0  0  0  0  0  0  0  0  0
   16.2520   34.3140   14.6630 C   0  0  0  0  0  0  0  0  0  0  0  0
   16.1180   31.9950   15.5890 C   0  0  0  0  0  0  0  0  0  0  0  0
   15.6170   33.9250   17.0420 C   0  0  0  0  0  0  0  0  0  0  0  0
   18.3790   34.8660   16.5280 N   0  0  0  0  0  0  0  0  0  0  0  0
   18.5720   35.4530   17.6960 C   0  0  0  0  0  0  0  0  0  0  0  0
   18.4140   34.8850   18.7830 O   0  0  0  0  0  0  0  0  0  0  0  0
   19.0030   36.8360   17.6570 O   0  0  0  0  0  0  0  0  0  0  0  0
   19.1700   37.5880   18.8500 C   0  0  0  0  0  0  0  0  0  0  0  0
   22.1780   32.0110   15.8450 C   0  0  0  0  0  0  0  0  0  0  0  0
   22.1500   33.5280   15.8970 C   0  0  0  0  0  0  0  0  0  0  0  0
   22.2870   34.2970   14.7380 C   0  0  0  0  0  0  0  0  0  0  0  0
   22.2550   35.6910   14.8130 C   0  0  0  0  0  0  0  0  0  0  0  0
   21.9850   34.1750   17.1190 C   0  0  0  0  0  0  0  0  0  0  0  0
   21.9500   35.5680   17.1900 C   0  0  0  0  0  0  0  0  0  0  0  0
   22.0800   36.3400   16.0380 C   0  0  0  0  0  0  0  0  0  0  0  0
   22.0340   37.8410   16.1250 C   0  0  0  0  0  0  0  0  0  0  0  0
   21.3440   38.5810   15.1590 C   0  0  0  0  0  0  0  0  0  0  0  0
   21.3040   39.9710   15.2400 C   0  0  0  0  0  0  0  0  0  0  0  0
   21.9460   40.6140   16.2950 C   0  0  0  0  0  0  0  0  0  0  0  0
   22.6140   39.8450   17.2470 C   0  0  0  0  0  0  0  0  0  0  0  0
   22.6390   38.5000   17.1460 N   0  0  0  0  0  0  0  0  0  0  0  0
   20.6170   23.0105   10.2222 H   0  0  0  0  0  0  0  0  0  0  0  0
   19.7880   23.3965    8.6761 H   0  0  0  0  0  0  0  0  0  0  0  0
   21.5300   22.9579    8.6761 H   0  0  0  0  0  0  0  0  0  0  0  0
   20.5679   25.4839   11.0183 H   0  0  0  0  0  0  0  0  0  0  0  0
   21.6923   25.0392   12.4310 H   0  0  0  0  0  0  0  0  0  0  0  0
   22.4709   26.8866    9.9658 H   0  0  0  0  0  0  0  0  0  0  0  0
   22.4525   26.6237   12.7363 H   0  0  0  0  0  0  0  0  0  0  0  0
   24.9964   26.3796   12.5383 H   0  0  0  0  0  0  0  0  0  0  0  0
   24.2222   25.9046   10.9885 H   0  0  0  0  0  0  0  0  0  0  0  0
   25.5962   27.0616   10.9885 H   0  0  0  0  0  0  0  0  0  0  0  0
   23.9365   29.8166   10.7104 H   0  0  0  0  0  0  0  0  0  0  0  0
   24.6878   28.4497    9.8194 H   0  0  0  0  0  0  0  0  0  0  0  0
   22.9026   28.6488    9.8194 H   0  0  0  0  0  0  0  0  0  0  0  0
   23.8785   28.2094   13.8005 H   0  0  0  0  0  0  0  0  0  0  0  0
   25.2263   28.9083   12.8405 H   0  0  0  0  0  0  0  0  0  0  0  0
   23.6162   29.7048   12.8405 H   0  0  0  0  0  0  0  0  0  0  0  0
   22.0469   28.8359   12.9814 H   0  0  0  0  0  0  0  0  0  0  0  0
   20.9934   30.1309   12.3837 H   0  0  0  0  0  0  0  0  0  0  0  0
   20.1006   27.1568   13.2346 H   0  0  0  0  0  0  0  0  0  0  0  0
   19.5458   29.8904   13.5155 H   0  0  0  0  0  0  0  0  0  0  0  0
   18.1806   27.2851   14.4181 H   0  0  0  0  0  0  0  0  0  0  0  0
   17.3960   28.8878   14.0385 H   0  0  0  0  0  0  0  0  0  0  0  0
   16.9795   27.4029   12.5941 H   0  0  0  0  0  0  0  0  0  0  0  0
   16.4626   28.9422   11.8043 H   0  0  0  0  0  0  0  0  0  0  0  0
   18.2184   29.4182   11.3262 H   0  0  0  0  0  0  0  0  0  0  0  0
   16.1760   28.3591    9.8897 H   0  0  0  0  0  0  0  0  0  0  0  0
   17.9566   28.8667    9.5398 H   0  0  0  0  0  0  0  0  0  0  0  0
   16.6730   26.4834    9.3036 H   0  0  0  0  0  0  0  0  0  0  0  0
   18.4104   27.1123    8.9797 H   0  0  0  0  0  0  0  0  0  0  0  0
   17.4696   25.1840   10.6446 H   0  0  0  0  0  0  0  0  0  0  0  0
   19.1568   25.9000   10.2474 H   0  0  0  0  0  0  0  0  0  0  0  0
   19.3912   26.3408   12.1556 H   0  0  0  0  0  0  0  0  0  0  0  0
   17.5985   25.8509   12.4879 H   0  0  0  0  0  0  0  0  0  0  0  0
   18.8037   29.7148   15.7398 H   0  0  0  0  0  0  0  0  0  0  0  0
   19.9220   28.2558   17.2519 H   0  0  0  0  0  0  0  0  0  0  0  0
   21.1521   29.9297   16.9146 H   0  0  0  0  0  0  0  0  0  0  0  0
   21.7921   29.5795   15.2335 H   0  0  0  0  0  0  0  0  0  0  0  0
   19.3745   31.2851   16.6469 H   0  0  0  0  0  0  0  0  0  0  0  0
   19.6052   33.6597   15.6405 H   0  0  0  0  0  0  0  0  0  0  0  0
   18.7792   33.8820   14.1217 H   0  0  0  0  0  0  0  0  0  0  0  0
   17.9163   32.9456   17.3716 H   0  0  0  0  0  0  0  0  0  0  0  0
   15.9638   35.3266   14.9817 H   0  0  0  0  0  0  0  0  0  0  0  0
   17.1708   34.3668   14.0605 H   0  0  0  0  0  0  0  0  0  0  0  0
   15.4431   33.8751   14.0605 H   0  0  0  0  0  0  0  0  0  0  0  0
   15.9716   31.4431   16.5292 H   0  0  0  0  0  0  0  0  0  0  0  0
   15.1850   31.9808   15.0064 H   0  0  0  0  0  0  0  0  0  0  0  0
   16.9213   31.5203   15.0064 H   0  0  0  0  0  0  0  0  0  0  0  0
   16.0850   33.6677   18.0036 H   0  0  0  0  0  0  0  0  0  0  0  0
   15.4964   35.0162   16.9732 H   0  0  0  0  0  0  0  0  0  0  0  0
   14.6310   33.4421   16.9732 H   0  0  0  0  0  0  0  0  0  0  0  0
   19.2753   34.9296   16.0245 H   0  0  0  0  0  0  0  0  0  0  0  0
   17.5193   35.7719   17.7097 H   0  0  0  0  0  0  0  0  0  0  0  0
   18.5917   35.5239   19.5181 H   0  0  0  0  0  0  0  0  0  0  0  0
   19.0242   36.9316   19.7206 H   0  0  0  0  0  0  0  0  0  0  0  0
   20.1843   38.0127   18.8768 H   0  0  0  0  0  0  0  0  0  0  0  0
   18.4308   38.4021   18.8768 H   0  0  0  0  0  0  0  0  0  0  0  0
   22.4667   31.6328   16.8368 H   0  0  0  0  0  0  0  0  0  0  0  0
   22.9002   31.7246   15.0663 H   0  0  0  0  0  0  0  0  0  0  0  0
   23.2411   33.5434   16.0362 H   0  0  0  0  0  0  0  0  0  0  0  0
   23.2547   34.0260   14.2906 H   0  0  0  0  0  0  0  0  0  0  0  0
   21.3781   34.0554   14.1675 H   0  0  0  0  0  0  0  0  0  0  0  0
   23.2109   36.0487   14.4028 H   0  0  0  0  0  0  0  0  0  0  0  0
   21.3315   35.9423   14.2709 H   0  0  0  0  0  0  0  0  0  0  0  0
   21.0339   33.8153   17.5387 H   0  0  0  0  0  0  0  0  0  0  0  0
   22.9130   33.9262   17.6546 H   0  0  0  0  0  0  0  0  0  0  0  0
   20.9831   35.8359   17.6409 H   0  0  0  0  0  0  0  0  0  0  0  0
   22.8641   35.8090   17.7525 H   0  0  0  0  0  0  0  0  0  0  0  0
   20.9895   36.3127   15.8967 H   0  0  0  0  0  0  0  0  0  0  0  0
   22.9499   37.9042   15.5192 H   0  0  0  0  0  0  0  0  0  0  0  0
   21.7959   38.3330   14.1873 H   0  0  0  0  0  0  0  0  0  0  0  0
   20.2957   38.2894   15.3203 H   0  0  0  0  0  0  0  0  0  0  0  0
   21.7477   40.3588   14.3111 H   0  0  0  0  0  0  0  0  0  0  0  0
   20.2399   40.1897   15.4126 H   0  0  0  0  0  0  0  0  0  0  0  0
   22.6871   41.2967   15.8538 H   0  0  0  0  0  0  0  0  0  0  0  0
   21.1251   41.0800   16.8598 H   0  0  0  0  0  0  0  0  0  0  0  0
   23.6615   40.1807   17.2446 H   0  0  0  0  0  0  0  0  0  0  0  0
   22.0234   40.0135   18.1596 H   0  0  0  0  0  0  0  0  0  0  0  0
   22.2156   38.1386   18.0126 H   0  0  0  0  0  0  0  0  0  0  0  0
  1  2  1  0
  2  3  1  0
  3  4  1  0
  3  5  1  0
  5  6  1  0
  6  7  1  0
  7  8  1  6
  7  9  1  0
  7 10  1  0
  6 11  1  0
 11 12  1  0
 11 13  1  0
 13 14  1  0
 14 15  1  0
 15 16  1  0
 16 17  1  0
 17 18  1  0
 18 19  1  0
 19 20  1  0
 16 21  1  0
 20 21  1  0
 14 22  1  0
 22 23  1  0
 22 24  1  0
 24 25  1  0
 25 26  1  0
 26 27  1  0
 27 28  1  0
 27 29  1  0
 29 30  1  0
 30 31  1  6
 30 32  1  0
 30 33  1  0
 29 34  1  0
 34 35  1  0
 35 36  1  0
 35 37  1  0
 37 38  1  0
 25 39  1  0
 39 40  1  0
 40 41  1  0
 41 42  1  0
 40 43  1  0
 43 44  1  0
 42 45  1  0
 44 45  1  0
 45 46  1  0
 46 47  1  0
 47 48  1  0
 48 49  1  0
 49 50  1  0
 46 51  1  0
 50 51  1  0
  1 52  1  0
  1 53  1  0
  1 54  1  0
  3 55  1  0
  4 56  1  0
  5 57  1  0
  6 58  1  1
  8 59  1  0
  8 60  1  0
  8 61  1  0
  9 62  1  0
  9 63  1  0
  9 64  1  0
 10 65  1  0
 10 66  1  0
 10 67  1  0
 11 68  1  0
 12 69  1  0
 13 70  1  0
 14 71  1  6
 15 72  1  0
 15 73  1  0
 16 74  1  0
 17 75  1  0
 17 76  1  0
 18 77  1  0
 18 78  1  0
 19 79  1  0
 19 80  1  0
 20 81  1  0
 20 82  1  0
 21 83  1  0
 21 84  1  0
 22 85  1  1
 23 86  1  0
 24 87  1  0
 24 88  1  0
 26 89  1  0
 27 90  1  0
 28 91  1  0
 29 92  1  1
 31 93  1  0
 31 94  1  0
 31 95  1  0
 32 96  1  0
 32 97  1  0
 32 98  1  0
 33 99  1  0
 33100  1  0
 33101  1  0
 34102  1  0
 35103  1  0
 36104  1  0
 38105  1  0
 38106  1  0
 38107  1  0
 39108  1  0
 39109  1  0
 40110  1  0
 41111  1  0
 41112  1  0
 42113  1  0
 42114  1  0
 43115  1  0
 43116  1  0
 44117  1  0
 44118  1  0
 45119  1  0
 46120  1  0
 47121  1  0
 47122  1  0
 48123  1  0
 48124  1  0
 49125  1  0
 49126  1  0
 50127  1  0
 50128  1  0
 51129  1  0
M  END
>  <PDBID>  (1) 
3EKY

>  <PDB ID>  (1) 
3EKY

>  <Generic Name>  (1) 
Atazanavir

>  <Brand Name>  (1) 
Evotaz#Reyataz#Latazanavir#Zrivada

>  <DrugBank ID>  (1) 
DB01072

>  <ATC Codes>  (1) 
J05AE08#J05AR15

>  <Ligand ID>  (1) 
DR7

>  <Target Name>  (1) 
Pol polyprotein

>  <UniProt ID>  (1) 
Q72874

>  <PDB ID.1>  (1) 
3EKY

>  <Seq. Identity>  (1) 
94%

$$$$
