PDB_DB00140_98
     RDKit          3D

122126  0  0  0  0  0  0  0  0999 V2000
   35.9520   -5.0630   26.0370 N   0  0  0  0  0  0  0  0  0  0  0  0
   35.3780   -5.5930   27.1110 C   0  0  0  0  0  0  0  0  0  0  0  0
   35.3590   -5.0160   28.1830 O   0  0  0  0  0  0  0  0  0  0  0  0
   34.7440   -6.8890   27.0430 N   0  0  0  0  0  0  0  0  0  0  0  0
   34.6950   -7.6440   25.8750 C   0  0  0  0  0  0  0  0  0  0  0  0
   34.1700   -8.6750   25.8980 O   0  0  0  0  0  0  0  0  0  0  0  0
   35.3150   -7.0810   24.6700 C   0  0  0  0  0  0  0  0  0  0  0  0
   35.2970   -7.7740   23.4890 N   0  0  0  0  0  0  0  0  0  0  0  0
   35.8860   -7.2120   22.3930 C   0  0  0  0  0  0  0  0  0  0  0  0
   35.8410   -7.9760   21.1670 C   0  0  0  0  0  0  0  0  0  0  0  0
   36.4160   -7.4910   19.9900 C   0  0  0  0  0  0  0  0  0  0  0  0
   36.3420   -8.3220   18.7410 C   0  0  0  0  0  0  0  0  0  0  0  0
   37.0940   -6.1720   19.9860 C   0  0  0  0  0  0  0  0  0  0  0  0
   37.7370   -5.5930   18.7510 C   0  0  0  0  0  0  0  0  0  0  0  0
   37.1540   -5.3970   21.1900 C   0  0  0  0  0  0  0  0  0  0  0  0
   36.5630   -5.8830   22.4070 C   0  0  0  0  0  0  0  0  0  0  0  0
   36.5600   -5.1700   23.7100 N   0  0  0  0  0  0  0  0  0  0  0  0
   35.9550   -5.7460   24.8110 C   0  0  0  0  0  0  0  0  0  0  0  0
   37.2210   -3.7810   23.9660 C   0  0  0  0  0  0  0  0  0  0  0  0
   37.0070   -2.4960   23.0920 C   0  0  2  0  0  0  0  0  0  0  0  0
   37.7200   -2.7310   21.9040 O   0  0  0  0  0  0  0  0  0  0  0  0
   37.6210   -1.1990   23.7660 C   0  0  2  0  0  0  0  0  0  0  0  0
   39.0220   -1.3960   24.0280 O   0  0  0  0  0  0  0  0  0  0  0  0
   36.8900   -0.8200   25.1170 C   0  0  2  0  0  0  0  0  0  0  0  0
   35.4580   -0.6020   24.8910 O   0  0  0  0  0  0  0  0  0  0  0  0
   37.5300    0.4620   25.7140 C   0  0  0  0  0  0  0  0  0  0  0  0
   36.7670    0.8360   27.1010 O   0  0  0  0  0  0  0  0  0  0  0  0
  -17.9910   -3.3030   35.7990 N   0  0  0  0  0  0  0  0  0  0  0  0
  -18.6640   -2.7940   36.8210 C   0  0  0  0  0  0  0  0  0  0  0  0
  -19.4820   -3.4540   37.4530 O   0  0  0  0  0  0  0  0  0  0  0  0
  -18.4500   -1.4200   37.2280 N   0  0  0  0  0  0  0  0  0  0  0  0
  -17.5470   -0.5730   36.5890 C   0  0  0  0  0  0  0  0  0  0  0  0
  -17.4360    0.5100   36.9790 O   0  0  0  0  0  0  0  0  0  0  0  0
  -16.7850   -1.1120   35.4480 C   0  0  0  0  0  0  0  0  0  0  0  0
  -15.8780   -0.3350   34.7740 N   0  0  0  0  0  0  0  0  0  0  0  0
  -15.1960   -0.8910   33.7100 C   0  0  0  0  0  0  0  0  0  0  0  0
  -14.2470   -0.0380   33.0250 C   0  0  0  0  0  0  0  0  0  0  0  0
  -13.5010   -0.5030   31.9350 C   0  0  0  0  0  0  0  0  0  0  0  0
  -12.5280    0.4300   31.2560 C   0  0  0  0  0  0  0  0  0  0  0  0
  -13.6690   -1.8960   31.4610 C   0  0  0  0  0  0  0  0  0  0  0  0
  -12.8840   -2.4290   30.2950 C   0  0  0  0  0  0  0  0  0  0  0  0
  -14.6050   -2.7820   32.1190 C   0  0  0  0  0  0  0  0  0  0  0  0
  -15.3790   -2.3050   33.2470 C   0  0  0  0  0  0  0  0  0  0  0  0
  -16.3670   -3.1000   34.0140 N   0  0  0  0  0  0  0  0  0  0  0  0
  -17.0530   -2.5300   35.0830 C   0  0  0  0  0  0  0  0  0  0  0  0
  -16.7070   -4.5980   33.7310 C   0  0  0  0  0  0  0  0  0  0  0  0
  -17.0870   -5.2380   32.3370 C   0  0  2  0  0  0  0  0  0  0  0  0
  -17.8060   -4.2830   31.6180 O   0  0  0  0  0  0  0  0  0  0  0  0
  -17.9750   -6.5250   32.5550 C   0  0  2  0  0  0  0  0  0  0  0  0
  -19.1750   -6.1810   33.2700 O   0  0  0  0  0  0  0  0  0  0  0  0
  -17.1740   -7.6220   33.3640 C   0  0  2  0  0  0  0  0  0  0  0  0
  -15.9720   -7.9740   32.6290 O   0  0  0  0  0  0  0  0  0  0  0  0
  -18.0320   -8.9010   33.5910 C   0  0  0  0  0  0  0  0  0  0  0  0
  -17.1280   -9.9770   34.4320 O   0  0  0  0  0  0  0  0  0  0  0  0
   35.4840   -4.1610   25.8692 H   0  0  0  0  0  0  0  0  0  0  0  0
   36.3306   -6.0701   27.3847 H   0  0  0  0  0  0  0  0  0  0  0  0
   35.3809   -5.6810   28.9161 H   0  0  0  0  0  0  0  0  0  0  0  0
   35.2211   -7.4763   27.7418 H   0  0  0  0  0  0  0  0  0  0  0  0
   35.6477   -8.1231   26.1447 H   0  0  0  0  0  0  0  0  0  0  0  0
   34.0287   -8.9525   26.8378 H   0  0  0  0  0  0  0  0  0  0  0  0
   36.2685   -7.5603   24.9367 H   0  0  0  0  0  0  0  0  0  0  0  0
   35.7672   -8.6747   23.6582 H   0  0  0  0  0  0  0  0  0  0  0  0
   36.8388   -7.6936   22.6581 H   0  0  0  0  0  0  0  0  0  0  0  0
   36.3317   -8.9371   21.3805 H   0  0  0  0  0  0  0  0  0  0  0  0
   34.7678   -7.9786   20.9258 H   0  0  0  0  0  0  0  0  0  0  0  0
   37.3676   -7.9748   20.2555 H   0  0  0  0  0  0  0  0  0  0  0  0
   36.2474   -9.3839   19.0122 H   0  0  0  0  0  0  0  0  0  0  0  0
   35.4676   -8.0157   18.1481 H   0  0  0  0  0  0  0  0  0  0  0  0
   37.2568   -8.1750   18.1481 H   0  0  0  0  0  0  0  0  0  0  0  0
   38.0436   -6.6593   20.2519 H   0  0  0  0  0  0  0  0  0  0  0  0
   38.5245   -4.8839   19.0458 H   0  0  0  0  0  0  0  0  0  0  0  0
   38.1788   -6.4038   18.1532 H   0  0  0  0  0  0  0  0  0  0  0  0
   36.9768   -5.0690   18.1532 H   0  0  0  0  0  0  0  0  0  0  0  0
   38.2202   -5.2305   21.4034 H   0  0  0  0  0  0  0  0  0  0  0  0
   36.5329   -4.5218   20.9488 H   0  0  0  0  0  0  0  0  0  0  0  0
   37.5127   -6.3696   22.6739 H   0  0  0  0  0  0  0  0  0  0  0  0
   36.9046   -6.2300   25.0829 H   0  0  0  0  0  0  0  0  0  0  0  0
   36.9138   -3.4956   24.9830 H   0  0  0  0  0  0  0  0  0  0  0  0
   38.2657   -4.0147   23.7132 H   0  0  0  0  0  0  0  0  0  0  0  0
   35.9306   -2.3203   22.9491 H   0  0  0  0  0  0  0  0  0  0  0  0
   38.6368   -3.0332   22.1237 H   0  0  0  0  0  0  0  0  0  0  0  0
   37.4768   -0.3697   23.0579 H   0  0  0  0  0  0  0  0  0  0  0  0
   39.1750   -1.4175   25.0059 H   0  0  0  0  0  0  0  0  0  0  0  0
   37.0063   -1.6542   25.8245 H   0  0  0  0  0  0  0  0  0  0  0  0
   34.9934   -0.5313   25.7624 H   0  0  0  0  0  0  0  0  0  0  0  0
   38.5963    0.2825   25.9161 H   0  0  0  0  0  0  0  0  0  0  0  0
   37.4337    1.2934   25.0002 H   0  0  0  0  0  0  0  0  0  0  0  0
   37.3269    0.5616   27.8700 H   0  0  0  0  0  0  0  0  0  0  0  0
  -17.4789   -4.1187   36.1641 H   0  0  0  0  0  0  0  0  0  0  0  0
  -19.4587   -2.4664   36.1346 H   0  0  0  0  0  0  0  0  0  0  0  0
  -19.3278   -3.3296   38.4230 H   0  0  0  0  0  0  0  0  0  0  0  0
  -19.3682   -0.9579   37.1624 H   0  0  0  0  0  0  0  0  0  0  0  0
  -18.3411   -0.2444   35.9024 H   0  0  0  0  0  0  0  0  0  0  0  0
  -17.4364    0.5059   37.9690 H   0  0  0  0  0  0  0  0  0  0  0  0
  -17.5785   -0.7811   34.7618 H   0  0  0  0  0  0  0  0  0  0  0  0
  -16.3879    0.4842   34.4136 H   0  0  0  0  0  0  0  0  0  0  0  0
  -15.9901   -0.5566   33.0262 H   0  0  0  0  0  0  0  0  0  0  0  0
  -14.8154    0.8318   32.6639 H   0  0  0  0  0  0  0  0  0  0  0  0
  -13.4738    0.1197   33.7914 H   0  0  0  0  0  0  0  0  0  0  0  0
  -14.2958   -0.1726   31.2501 H   0  0  0  0  0  0  0  0  0  0  0  0
  -11.9549    0.9795   32.0173 H   0  0  0  0  0  0  0  0  0  0  0  0
  -11.8384   -0.1531   30.6279 H   0  0  0  0  0  0  0  0  0  0  0  0
  -13.0816    1.1435   30.6279 H   0  0  0  0  0  0  0  0  0  0  0  0
  -14.4638   -1.5669   30.7755 H   0  0  0  0  0  0  0  0  0  0  0  0
  -12.0270   -3.0109   30.6652 H   0  0  0  0  0  0  0  0  0  0  0  0
  -13.5298   -3.0761   29.6833 H   0  0  0  0  0  0  0  0  0  0  0  0
  -12.5208   -1.5900   29.6833 H   0  0  0  0  0  0  0  0  0  0  0  0
  -15.3251   -3.1088   31.3544 H   0  0  0  0  0  0  0  0  0  0  0  0
  -13.9571   -3.5523   32.5627 H   0  0  0  0  0  0  0  0  0  0  0  0
  -16.1752   -1.9777   32.5622 H   0  0  0  0  0  0  0  0  0  0  0  0
  -17.8471   -2.2030   34.3957 H   0  0  0  0  0  0  0  0  0  0  0  0
  -15.8229   -5.1585   34.0690 H   0  0  0  0  0  0  0  0  0  0  0  0
  -17.6880   -4.6540   34.2255 H   0  0  0  0  0  0  0  0  0  0  0  0
  -16.1800   -5.5352   31.7902 H   0  0  0  0  0  0  0  0  0  0  0  0
  -18.2654   -3.6727   32.2478 H   0  0  0  0  0  0  0  0  0  0  0  0
  -18.2411   -6.9333   31.5689 H   0  0  0  0  0  0  0  0  0  0  0  0
  -19.0043   -6.2299   34.2439 H   0  0  0  0  0  0  0  0  0  0  0  0
  -16.9144   -7.2044   34.3480 H   0  0  0  0  0  0  0  0  0  0  0  0
  -15.2455   -8.1868   33.2670 H   0  0  0  0  0  0  0  0  0  0  0  0
  -18.9366   -8.6466   34.1627 H   0  0  0  0  0  0  0  0  0  0  0  0
  -18.3373   -9.3315   32.6259 H   0  0  0  0  0  0  0  0  0  0  0  0
  -17.2542   -9.8268   35.4024 H   0  0  0  0  0  0  0  0  0  0  0  0
  1  2  1  0
  2  3  1  0
  2  4  1  0
  4  5  1  0
  5  6  1  0
  5  7  1  0
  7  8  1  0
  8  9  1  0
  9 10  1  0
 10 11  1  0
 11 12  1  0
 11 13  1  0
 13 14  1  0
 13 15  1  0
  9 16  1  0
 15 16  1  0
 16 17  1  0
  1 18  1  0
  7 18  1  0
 17 18  1  0
 17 19  1  0
 19 20  1  0
 20 21  1  0
 20 22  1  0
 22 23  1  0
 22 24  1  0
 24 25  1  0
 24 26  1  0
 26 27  1  0
 28 29  1  0
 29 30  1  0
 29 31  1  0
 31 32  1  0
 32 33  1  0
 32 34  1  0
 34 35  1  0
 35 36  1  0
 36 37  1  0
 37 38  1  0
 38 39  1  0
 38 40  1  0
 40 41  1  0
 40 42  1  0
 36 43  1  0
 42 43  1  0
 43 44  1  0
 28 45  1  0
 34 45  1  0
 44 45  1  0
 44 46  1  0
 46 47  1  0
 47 48  1  0
 47 49  1  0
 49 50  1  0
 49 51  1  0
 51 52  1  0
 51 53  1  0
 53 54  1  0
  1 55  1  0
  2 56  1  0
  3 57  1  0
  4 58  1  0
  5 59  1  0
  6 60  1  0
  7 61  1  0
  8 62  1  0
  9 63  1  0
 10 64  1  0
 10 65  1  0
 11 66  1  0
 12 67  1  0
 12 68  1  0
 12 69  1  0
 13 70  1  0
 14 71  1  0
 14 72  1  0
 14 73  1  0
 15 74  1  0
 15 75  1  0
 16 76  1  0
 18 77  1  0
 19 78  1  0
 19 79  1  0
 20 80  1  6
 21 81  1  0
 22 82  1  6
 23 83  1  0
 24 84  1  1
 25 85  1  0
 26 86  1  0
 26 87  1  0
 27 88  1  0
 28 89  1  0
 29 90  1  0
 30 91  1  0
 31 92  1  0
 32 93  1  0
 33 94  1  0
 34 95  1  0
 35 96  1  0
 36 97  1  0
 37 98  1  0
 37 99  1  0
 38100  1  0
 39101  1  0
 39102  1  0
 39103  1  0
 40104  1  0
 41105  1  0
 41106  1  0
 41107  1  0
 42108  1  0
 42109  1  0
 43110  1  0
 45111  1  0
 46112  1  0
 46113  1  0
 47114  1  6
 48115  1  0
 49116  1  6
 50117  1  0
 51118  1  1
 52119  1  0
 53120  1  0
 53121  1  0
 54122  1  0
M  END
>  <PDBID>  (1) 
1T6Z

>  <PDB ID>  (1) 
1T6Z

>  <Generic Name>  (1) 
Riboflavin

>  <Brand Name>  (1) 
Active Fe#Alertonic#Allbee With C 550 Cap#Allbee With Vitamin C Cap#Alsimine W Vitamins A D#Am Caps#Antlerviron#Appedrine#B 50 Capsules#B 6 Plus#B C Antistress Cap#B Complex 25mg Vitamin Supplement#B Complex 50 Vitamin Cap#B Complex 50+ Caplet#B Complex 500 Tab#B Complex Plus C 300mg Tab#B Complex Tablets#B Complex W C Forte Cap#B Complex W C and B12 Inj#B Complex W Vit C W Non-med Yeast&liver Tab#B Complex W Vitamin C Fortis Cap#B Complex With C 300mg#B Complex With C 300mg Tab#B Complex With C 550mg#B Compound 50mg Tab#B Plus C 300 mg#B Plus C 300mg Timed Release#B Stress C + Iron & Vite#B Totum 500#B Virol#B Vitamin Compound With B12 Thunas#B With C 500 Cap#B-100 Caps#B-100 Complex Tablets#B-100 Hi Potency B Vitamins Tab#B-100 Vitamin Supplement#B-2 100mg With C 20mg#B-2 Caps 100mg#B-50 Complex#B-50 Complex Tab#B-50 Hi Potency B Vitamins Tab#B-combo#B-complex#B-complex 100#B-complex 50#B-complex Tab#B-complex Tablets#B-complex With Vitamin C, Biotin, Folic Acid#B-complex-50 Tab#B-plex#B-plex 100#B-plus - Tab#B2 Tab 100mg#B50 B Complex Tab#B50 Complex#B6 Plus Tab#Bacmin#Balanced B 125 Srt#Balanced B-100 B-complex Vitamins Tab#Balanced B-100 Timed Release#Balanced B-50 B-complex Vitamins Tab#Balanced B-50 B-complex Vitamins, Timed Rele#Balanced B-50 Complex#Balanced B-complex Vit + Vit C&e Tab#Balanced B100#Balanced B50 Complex#Beautel Supplement De Vitamines Et Mineral#Beminal W C Fortis Inj#Beminal With C Fortis Cap#Beminal With C Fortis Pws#Bev 29 Tab#Bev B-150#Bio-fen#Biovim Tab#Biovita#Bugs Bunny Chew Multi Vit Plus Iron#Bugs Bunny and Friends Multiple Vitamins#C-B Complex#C-nate DHA#C.A.G. Tab#C.R.T. X Multivitamin & Mineral Powder Mix#Carbassist Tablets#Cc II#Cda-21 Vitamins With Non-medicinal Probiotic Complex#Cedevita Plus Vitamin Supplement#Cedevita Sugar-free Vitamin Supplement#Chela Potassium Plus#Chela-chromium 200#Chew.multiple Vits.with Extra C for Children#Chewable Multiple Vit Plus Iron for Children#Chewable Multiple Vitamins Plus Extra C#Chewable Multiple Vitamins Plus Iron Tab#Chewable Multiple Vitamins Tab#Chewable Multiple Vitamins for Children#Chewable Multivitamins#Chewable Multivitamins Plus Iron#Children Choice Multivit Chewable Tab#Children Choice Multivitamin W Iron Chew Tab#Children's Chewable Multi Vit W Iron#Children's Chewable Multi Vitamins#Children's Chewable Multi Vitamins With Iron Tablets#Children's Chewable Multi-vitamin#Children's Chewable Multi-vitamin Complete With Minerals#Children's Chewable Multiple Vit.plus Iron#Children's Chewable Multiple Vitamins (chewable Tablets)#Children's Chewable Multiple Vitamins - Tab#Children's Chewable Multiple Vitamins With Extra Vitamin C (chewable Tablets)#Children's Chewable Multiple Vitamins With Iron Tablets (chewable Tablets)#Children's Vitamins Chewable#Children's Vitamins W Iron Chewable#Childrens Chew Multi Vitamin Tab#Childrens Chewable Multiple Vitamins#Childrens Chewable Multiple Vitamins Plus Fe#Childrens Chewable Multiple Vitamins Tab#Childrens Chewable Multivitamins#Childrens Chewable Multivitamins W Iron#Childrens Chewable Vitamin Tab#Childrens Chewable Vitamins#Childrens Multiple Vit and Min Chew Tab#Citranatal DHA#Citranatal Rx#Coenzyme Q10 Isotonix Vitamin and Mineral Supplement#Complete Mega B#Complete Multivitamins and Minerals Tablets Timed Release#Complex 5 - Pwr#Complex-75#Complexe B 75mg#Complexe B Compose 75#Complexe B-75#Concept DHA#Concept Ob#Croq-vit Pour Enfants#D'pantothenic Acid-B1-B2 Tab#Daily Energy Brand B-complex#Derma-force#Dexatrim Tablets#Dia-vite#Diaplex#Dynam Ampoule Et Tablet#E & I Formulae#E.S.T. Complex#Efferlife Multivitamins and Minerals#Enviroflex - Tab#Escavite#Essential B Tablets#Everyday Multiple Vitamins#Everyday Multiple Vitamins With Iron#Extra P.N. Vitamin-mineral Drink Mix#Ez-flex#Feminique W Iron and Calcium Tab#Ferra Naka Plus Vitamins#Flinstones Multiple Plus Iron#Flintstones Multiple Vitamins#Flintstones Multiple Vitamins Plus Iron#Flintstones Multiple Vitamins Tab#Flintstones W Extra C Tab#Floradix Formula Liq#Floravit - Syr#Floriva#Floriva Plus#Folcaps Care One#Foltabs Prenatal#For Kids Only Chewable Multivit. Plus Iron#For Kids Only Chewable Multivitamins - Tab#Formula Adr-vitamin B2,b6 W Calpan Tab#Formula Cn#Formula D.S.#Formula Fm Vitamins & Minerals Tab#Formula Lf#Formula O#Formula O-care Vitamin and Mineral Supplement#Formula Pro-B#Fortamines 10 Capsules#Fortamines-10 Comprimes#Fortaplex Inj#Fortistress Tab#Forty Plus Vitamin Supplement#Garfield Chewable Multivits Plus Iron Tab#Gemvites Jr Tab Chewable#Geritol Liquid#Gestamine Comprimes#Gesticare DHA#Globucel - Methode#Glyco-aide Tab#Harvest Of Values All B Complex Tab#Healthy Mamabe Well Rounded Be Well Rounded#Hemarexin Amp#Hemarexin Liquid and Drinkable Ampoules#Hemarexin Tab#Hemenatal OB#Hi Potency B Complex W Chelated Minerals#Hi Potency B52 B Complex Tab#Hi Potency Balanced B-100 Complex - Tab#Hi Potency Stress B Tension With C#High Potency Vitamin B Complex + C Tab#Hill.vite#Homosistrol Capsules#Hypo Vites Tab#Iberet 500#Icaps#Icaps Time Release#Inatal Advance#Inatal Ultra#Infa Drops Multivitamins#Infant Multivitamin Drops#Infantol Drops#Insur-all Vitamin Supplement#Integra Plus#Iron 25mg With Vit B-cmplx, Vit C, Cu & Mo#Iron Polysaccharides Folic Acid DHA#Isotonix Advanced B-complex Vitamins With Potassium and Magnesium#Isotonix Calcium Plus Formula#Isotonix Vitamin B-folic Acid-mineral Supple#Itabs Plus#Kanga Sport Vitamins B & C Plus Minerals#Kanga-B Vitamin B Group + C#Kanga-V Multivitamins & Minerals#Kanga-kid Multi-vitamin & Mineral#Kenwood Liquid Supplement#Kid's Choice Children's Chewable Vitamins - Tab#Kids Stuff Tablets#Kids Stuff With Iron Tablets#Kimchi Vitamin Chewable Multivitamin#Kindervites#Leritone Junior#Lipo-B-C Tab#Liqui B Complex#Liqui B Complex Plus#Liqui Infant Vitamins#Liqui Vita#Liquid B Complex 50#Livron Plus Ampoule#Livron Plus Tab#Low Potency B Complex Tab#Lysamine Diet Supp Amp-tab#M.V.I. 12#M.V.I. Paediatric#M.V.I. Pediatric#Maltlevol 12 Liq#Maltlevol Liq#Maxi 10 Tab#Maxi 6 Liq#Mega 13 Multivitamin Formula#Megavites Tab#Meplex T 750#Methaver#Mini-B Tab#Mor-vites Tab#Multi - N.T.O.x Formula - Tab#Multi 12 Injection#Multi B#Multi Enfants Tab#Multi Nt-OX#Multi Rol#Multi Vitamin & Minerals#Multi Vitamin - Mineral#Multi Vitamin Drops With Fluoride#Multi Vitamin Drops With Fluoride With Iron#Multi Vitamin Drops With Fluoride and Iron#Multi Vitamin Plus Iron#Multi Vitamin With Fluoride#Multi Vitamin and Fluoride#Multi Vitamin, Iron and Fluoride#Multi Vitamin-mineral Formula#Multi Vitamines - Liq#Multi Vitamins & Minerals#Multi Vite Liq Adult#Multi Vite Liq Junior#Multi-11#Multi-12 Pediatric#Multi-12/k1 Pediatric#Multi-min Electro C Pow Plus B2#Multi-vit With Fluoride#Multi-vit With Fluoride and Iron#Multi-vitamin#Multi-vitamin Dietary Supplement#Multi-vitamin Drops With Fluoride and Iron#Multi-vitamin Fluoride#Multi-vitamin Fluoride Drops#Multi-vitamin Fluoride and Iron Drops#Multi-vitamin With Fluoride#Multi-vitamines Enfants Comprime#Multi-vitamins#Multi-vitamins With Minerals#Multiple Vitamin Plus Minerals Tab#Multiple Vitamin Tab#Multiple Vitamins#Multiple Vitamins Plus Iron Tab#Multiple Vitamins Plus Iron for Women#Multiple Vitamins Tab#Multiple Vitamins W Iron Tab#Multiple Vitamins W Minerals Tab#Multiple Vitamins With Iron#Multiple Vitamins With Minerals Tablets#Multiple Vitamins and Minerals Tab#Multisol#Multivit-liq#Multivitamin#Multivitamin With Fluoride#Multivitamines#Multivitamines Et Mineraux#Multivitamines Plus Fer Pour Enfants (chewable Tablets)#Multivitamines Pour Enfants (chewable Tablets)#Multivitamins#Multivitamins W Iron#Multivitamins for Children#Mvc#Mvc-fluoride#Myhephron Dialysis and Stress Supplement#Mynephrocaps Dialysis/stress Vitamin Supplement#Nata Komplete#Natafort#Natavite#Neo Bex Elixir#Neo Vites Tab#Neo-bex#Neo-bex Injectable#Neo-vites & Minerals Tab#Nephrocaps#Nutrifer Plus Tablets#Nutrilite Double X#Nutrol-B-complex#O-cal Fa Multivitamin#O-cal Prenatal Vitamin#Onccor#One A Day Advance Adults#One A Day Advance Adults 50+#One A Day Advance Fem#One A Day Tab#Orange Flavored Crystal Chews Tab#Orifer F#Original Bioscal Forte Multi-vitamin Supplement Capsules#Orti B#P.N.P. Vitamin Drink#P.R.O. Complex#PM Caps#PNF-First#Paramettes Chewable Multivitamins Plus Iron#Paramettes Chewable Multivits With Iron Tab#Paramettes Multivits Plus Iron Tab (teens)#Paramettes Syrup#Permathene-12  -  Caplet#Phosthenine Vitamines Et Fer (ampoules Buvable)#Photrexa#Photrexa Viscous#Phytofortis + Calcium A-D#Phytoplex B Liq#Phytopure#Pnv Ferrous Fumarate Docusate Folic Acid#Pnv Prenatal Plus Multivitamin#Pnv Prenatal Vitamin#Pnv Prenatal Vitamin Plus Vitamin A#Pnv-select#Poly-VI-sol Drops#Polymine Avec Zinc Et Cuivre#Prefera Ob Plus DHA#Preferaob#Preferaob Plus DHA#Pregvit#Pregvit Folic 4#Pregvit Folic 5#Prenatal 19#Prenatal Mega Antioxidant#Prenatal Plus#Prenatal Plus Iron#Prenatal Vitamins Plus#Prenatal Vitamins Plus Low Iron#Prenate Elite#Prenate Star#Preplus#Pretab#Prevital Tab#Purevit Dualfe Plus#Q.T. Vitamin and Mineral Drink Mix#Reaphirm Plant Source DHA#Reno Caps#Replavite#Revit Plus Cap#Revit Tab#Revitex Ampoules Et Comprimes#Revival 1 Tab#Riboflavin 5 Phosphate Cap 50mg#Riboflavin Inj 50mg/ml#Riboflavin Tab 10mg#Riboflavin Tab 5mg#Riboflavin-S Tab 25mg#Right Choice A.M. Multi Formula - Caplet#Se-natal 19#Se-natal 19 Chewable#Se-natal One#Se-tan Plus#Sibergin B - Cap#Somarexin and C 1000#Somavit Brand Vitamins and Minerals Complex#Sopalamine/3b Plus C#Spectrum 2 Cap#Stress B & C  Caplet#Stress B Capsules With Vitamin C#Stress B Complex With C, E & Iron#Stress B With 1000 Mg Vitamin C#Stress B&c Tab#Stress Complex 600 Avec Vit E Cuivre Zinc#Stress Ctr Srt#Stress Formula#Stress Formula + Iron#Stress Formula B-comp + 500mg Vit C Tab#Stress Formula Multi-B Comp + 500mg Vit C Cap#Stress Formula Multivitamin Tablets USP#Stress Formula Tab#Stress Formula Vit B With C Complex#Stress Forte Plus Lipotropic Factors#Stress Tab#Stress Tablets#Stress Vitamin B With C Complex Tablets#Stressmates#Strovite Forte Caplet#Strovite One Caplets#Sun-rype Vitaburst#Super B Compound W 500mg Vit C#Super Charged Energy#Super Daily No 2#Super Pantoplex#Super Stress Capsules#Super Stress Mega B Plus 1000mg Vit C Tab#Super Vitalex Ampoule Buvable#Super-pote Vitamin Supplement#Supplement De Multivitamines Infusion Arome Fruits Rouges#Supravite 10ml Ampoule#Supravite Bouteille 250ml#Supravite C 1000#Supravite Pour Enfants#Supravite Stress Avec Vit E#Supravite Stress Avec Vit E Cuivre Et Zinc#Supravite Stress Avec Vit E Et Fer#Surbex 500 Filmtab#Surbex-500 With Iron#Surbex-500 With Zinc#Swical-energy-2#T.R.I. B-plex Src#Tandem Ob#Tandem Plus#Tender Age Multi Vitamins#Time Release B 100 Compound  -  Tablet#Timed Release B Complex 100 Srt#Timed Release B-complex 100#Timed Release B-complex 50#Tini-cal Ampoules#Toni Com Liq#Tonicol Et A-D-C Ampoules/comprimes#Tonimol Cap Liq#Triadvance#Tricare Prenatal#Trinatal Gt#Twin Ultra Liquid Fruit Punch Flavor#Twin Ultra Liquid Grape Flavor#Twin Ultra Liquid Lemon-lime Flavor#Twin Ultra Liquid Orange Flavor#Ultimatecare One Nf#Ultra Enerforce#Ultra Hr#Usana Megavitamin Tablets - Tab#V-natal#VP-heme OB#Vasodyn Tab#Viamon Ampoules Et Comprimes#Vigo Multivitamins Drops/lozenge#Vimeral Tab#Virt-PN#Virt-bal DHA Plus#Virt-caps#Virt-vite Plus#Vit B Complex Ctr#Vit B Complex Plus Vit C 550mg#Vit B2 Ctr Srt 200mg#Vit-HA Multi Vitamin and Zinc Supplement#Vita B + C 500 Tab#Vita B Complex Tab#Vita Day Tab#Vita-B#Vita-B-75 Cap#Vita-flavine Cap 100mg#Vita-worth B-complex Tablets#Vitabanks Vitamin Tab#Vitachrom Gc#Vitaday Tab#Vitafant#Vitafer - Liq#Vitaflex Dietary Suplement#Vitafol Caplet#Vitafol Ob Caplet#Vitafol One#Vitafol Plus#Vitafol Ultra#Vitalife  -  Capsule#Vitamin B + C Cap#Vitamin B Complex#Vitamin B Complex + C 300mg Cap#Vitamin B Complex + C 600mg Tab#Vitamin B Complex 100 Tab#Vitamin B Complex 50#Vitamin B Complex Plus 300mg Vitamin C#Vitamin B Complex Plus C 300mg Timed Release#Vitamin B Complex Suppl#Vitamin B Complex Tab#Vitamin B Complex W C 300mg Tab#Vitamin B Complex W C Tab#Vitamin B Compound Tab#Vitamin B Compound W C Tab 500mg#Vitamin B Compound W Vit C 250mg Tab#Vitamin B Compound With Vitamin C Fortis Capsule Dtc#Vitamin B Cpd W Vit C Tab#Vitamin B Tablets#Vitamin B-2#Vitamin B-2 50 Mg Tablets#Vitamin B-2 Riboflavin 100mg Capsules#Vitamin B2 100 mg#Vitamin B2 100mg#Vitamin B2 Tab 100mg#Vitamin B2 Tab 4mg USP Chewable#Vitamin B2 Tablets 100mg#Vitamin and Mineral Supplement - Liq#Vitamine 110 Liq#Vitamine Du Groupe B Plus Fer - Liq#Vitamines Pour Bebes Et Enfants#Vitamins Chewable#Vitamins W Iron Chewable#Vitogen B Stress C Vit E Zinc & Cop#Vitogen B Stress C600#Vtb Vitamin and Mineral Supplement#Women's Formula#Zoo Chews#Bisulase

>  <DrugBank ID>  (1) 
DB00140

>  <ATC Codes>  (1) 
A11HA04

>  <Ligand ID>  (1) 
RBF

>  <Target Name>  (1) 
Riboflavin kinase

>  <UniProt ID>  (1) 
Q969G6

>  <PDB ID.1>  (1) 
1T6Z

>  <Seq. Identity>  (1) 
31%

$$$$
