PDB_DB00399_98
     RDKit          3D

 26 26  0  0  0  0  0  0  0  0999 V2000
   16.6780   75.6210   24.1760 O   0  0  0  0  0  0  0  0  0  0  0  0
   15.3220   75.5810   24.7890 P   0  0  0  0  0  0  0  0  0  0  0  0
   15.1240   74.2770   25.6680 O   0  0  0  0  0  0  0  0  0  0  0  0
   14.1300   75.5570   23.7330 O   0  0  0  0  0  0  0  0  0  0  0  0
   15.0210   77.0200   25.8670 C   0  0  0  0  0  0  0  0  0  0  0  0
   16.3800   77.1240   27.0700 P   0  0  0  0  0  0  0  0  0  0  0  0
   16.0060   78.3290   28.0570 O   0  0  0  0  0  0  0  0  0  0  0  0
   16.2000   75.8340   27.9790 O   0  0  0  0  0  0  0  0  0  0  0  0
   17.7260   77.2050   26.4520 O   0  0  0  0  0  0  0  0  0  0  0  0
   13.7750   76.8000   26.5490 O   0  0  0  0  0  0  0  0  0  0  0  0
   14.9610   78.2850   24.9600 C   0  0  0  0  0  0  0  0  0  0  0  0
   14.6850   79.5740   25.5980 N   0  0  0  0  0  0  0  0  0  0  0  0
   13.6500   79.8790   26.3320 C   0  0  0  0  0  0  0  0  0  0  0  0
   13.7430   81.0720   26.6940 N   0  0  0  0  0  0  0  0  0  0  0  0
   14.9480   81.6670   26.1730 C   0  0  0  0  0  0  0  0  0  0  0  0
   15.4800   80.6270   25.4920 C   0  0  0  0  0  0  0  0  0  0  0  0
   17.3628   75.6412   24.8907 H   0  0  0  0  0  0  0  0  0  0  0  0
   15.1605   74.5173   26.6277 H   0  0  0  0  0  0  0  0  0  0  0  0
   16.0994   78.0280   28.9955 H   0  0  0  0  0  0  0  0  0  0  0  0
   16.2364   76.0950   28.9333 H   0  0  0  0  0  0  0  0  0  0  0  0
   13.9251   76.8265   27.5272 H   0  0  0  0  0  0  0  0  0  0  0  0
   15.9340   78.3717   24.4542 H   0  0  0  0  0  0  0  0  0  0  0  0
   14.0960   78.1120   24.3028 H   0  0  0  0  0  0  0  0  0  0  0  0
   12.8276   79.1959   26.5907 H   0  0  0  0  0  0  0  0  0  0  0  0
   15.3313   82.6907   26.2961 H   0  0  0  0  0  0  0  0  0  0  0  0
   16.4283   80.6522   24.9351 H   0  0  0  0  0  0  0  0  0  0  0  0
  1  2  1  0
  2  3  1  0
  2  4  2  0
  2  5  1  0
  5  6  1  0
  6  7  1  0
  6  8  1  0
  6  9  2  0
  5 10  1  0
  5 11  1  0
 11 12  1  0
 12 13  1  0
 13 14  2  0
 14 15  1  0
 12 16  1  0
 15 16  2  0
  1 17  1  0
  3 18  1  0
  7 19  1  0
  8 20  1  0
 10 21  1  0
 11 22  1  0
 11 23  1  0
 13 24  1  0
 15 25  1  0
 16 26  1  0
M  END
>  <PDBID>  (1) 
2F9K

>  <PDB ID>  (1) 
2F9K

>  <Generic Name>  (1) 
Zoledronic acid

>  <Brand Name>  (1) 
Aclasta#Act Zoledronic Acid#Act Zoledronic Acid Concentrate#PMS-zoledronic Acid#Reclast#Taro-zoledronic Acid#Taro-zoledronic Acid Concentrate#Val-zoledronic Acid#Zoledronic Acid#Zoledronic Acid - A#Zoledronic Acid - Z#Zoledronic Acid Concentrate#Zoledronic Acid Concentrate for Injection#Zoledronic Acid Injection#Zoledronic Acid for Injection#Zoledronic Acid for Injection Concentrate#Zometa#Zometa Concentrate#Zometa Lyophilized Powder

>  <DrugBank ID>  (1) 
DB00399

>  <ATC Codes>  (1) 
M05BB08#M05BA08

>  <Ligand ID>  (1) 
ZOL

>  <Target Name>  (1) 
Farnesyl pyrophosphate synthase

>  <UniProt ID>  (1) 
P14324

>  <PDB ID.1>  (1) 
2F9K

>  <Seq. Identity>  (1) 
100%

$$$$
