PDB_DB00841_98
     RDKit          3D

 45 46  0  0  0  0  0  0  0  0999 V2000
   19.1750  -13.4290   17.7850 O   0  0  0  0  0  0  0  0  0  0  0  0
   17.8660  -13.0720   17.7030 C   0  0  0  0  0  0  0  0  0  0  0  0
   17.3110  -12.6170   16.5010 C   0  0  0  0  0  0  0  0  0  0  0  0
   15.9680  -12.2520   16.4440 C   0  0  0  0  0  0  0  0  0  0  0  0
   17.0990  -13.1560   18.8510 C   0  0  0  0  0  0  0  0  0  0  0  0
   15.7560  -12.7800   18.7990 C   0  0  0  0  0  0  0  0  0  0  0  0
   15.1900  -12.3300   17.6050 C   0  0  0  0  0  0  0  0  0  0  0  0
   13.7340  -11.9340   17.5880 C   0  0  0  0  0  0  0  0  0  0  0  0
   12.8620  -13.1560   17.8690 C   0  0  0  0  0  0  0  0  0  0  0  0
   11.3740  -12.8460   17.7770 C   0  0  1  0  0  0  0  0  0  0  0  0
   10.5960  -14.1540   17.9680 C   0  0  0  0  0  0  0  0  0  0  0  0
   10.9560  -11.8240   18.7420 N   0  0  0  0  0  0  0  0  0  0  0  0
    9.6240  -11.2110   18.7020 C   0  0  0  0  0  0  0  0  0  0  0  0
    9.2190  -10.6120   20.0530 C   0  0  0  0  0  0  0  0  0  0  0  0
    7.7910  -10.0990   20.0690 C   0  0  0  0  0  0  0  0  0  0  0  0
    7.2410   -9.5000   18.9250 C   0  0  0  0  0  0  0  0  0  0  0  0
    5.9270   -9.0510   18.9640 C   0  0  0  0  0  0  0  0  0  0  0  0
    5.3140   -8.4710   17.9160 O   0  0  0  0  0  0  0  0  0  0  0  0
    5.1260   -9.1930   20.1860 C   0  0  0  0  0  0  0  0  0  0  0  0
    3.8550   -8.7080   20.1290 O   0  0  0  0  0  0  0  0  0  0  0  0
    5.6950   -9.7930   21.3110 C   0  0  0  0  0  0  0  0  0  0  0  0
    7.0300  -10.2220   21.2440 C   0  0  0  0  0  0  0  0  0  0  0  0
   19.5481  -13.7483   18.6446 H   0  0  0  0  0  0  0  0  0  0  0  0
   17.9371  -12.5476   15.5992 H   0  0  0  0  0  0  0  0  0  0  0  0
   15.5244  -11.9068   15.4985 H   0  0  0  0  0  0  0  0  0  0  0  0
   17.5416  -13.5143   19.7922 H   0  0  0  0  0  0  0  0  0  0  0  0
   15.1380  -12.8388   19.7071 H   0  0  0  0  0  0  0  0  0  0  0  0
   13.5539  -11.1716   18.3602 H   0  0  0  0  0  0  0  0  0  0  0  0
   13.4800  -11.5265   16.5983 H   0  0  0  0  0  0  0  0  0  0  0  0
   13.1050  -13.9387   17.1353 H   0  0  0  0  0  0  0  0  0  0  0  0
   13.0711  -13.4857   18.8974 H   0  0  0  0  0  0  0  0  0  0  0  0
   11.1564  -12.4231   16.7851 H   0  0  0  0  0  0  0  0  0  0  0  0
   10.4760  -14.3557   19.0427 H   0  0  0  0  0  0  0  0  0  0  0  0
    9.6051  -14.0630   17.4991 H   0  0  0  0  0  0  0  0  0  0  0  0
   11.1489  -14.9813   17.4991 H   0  0  0  0  0  0  0  0  0  0  0  0
   11.0470  -12.2538   19.6736 H   0  0  0  0  0  0  0  0  0  0  0  0
    9.6250  -10.4115   17.9465 H   0  0  0  0  0  0  0  0  0  0  0  0
    8.8982  -11.9988   18.4519 H   0  0  0  0  0  0  0  0  0  0  0  0
    9.3214  -11.3882   20.8256 H   0  0  0  0  0  0  0  0  0  0  0  0
    9.8796   -9.7534   20.2440 H   0  0  0  0  0  0  0  0  0  0  0  0
    7.8419   -9.3877   18.0105 H   0  0  0  0  0  0  0  0  0  0  0  0
    4.3748   -8.1686   17.9972 H   0  0  0  0  0  0  0  0  0  0  0  0
    3.2642   -8.7737   20.9206 H   0  0  0  0  0  0  0  0  0  0  0  0
    5.1086   -9.9270   22.2320 H   0  0  0  0  0  0  0  0  0  0  0  0
    7.4936  -10.6671   22.1367 H   0  0  0  0  0  0  0  0  0  0  0  0
  1  2  1  0
  2  3  2  0
  3  4  1  0
  2  5  1  0
  5  6  2  0
  4  7  2  0
  6  7  1  0
  7  8  1  0
  8  9  1  0
  9 10  1  0
 10 11  1  0
 10 12  1  0
 12 13  1  0
 13 14  1  0
 14 15  1  0
 15 16  2  0
 16 17  1  0
 17 18  1  0
 17 19  2  0
 19 20  1  0
 19 21  1  0
 15 22  1  0
 21 22  2  0
  1 23  1  0
  3 24  1  0
  4 25  1  0
  5 26  1  0
  6 27  1  0
  8 28  1  0
  8 29  1  0
  9 30  1  0
  9 31  1  0
 10 32  1  6
 11 33  1  0
 11 34  1  0
 11 35  1  0
 12 36  1  0
 13 37  1  0
 13 38  1  0
 14 39  1  0
 14 40  1  0
 16 41  1  0
 18 42  1  0
 20 43  1  0
 21 44  1  0
 22 45  1  0
M  END
$$$$
