PDB_DB05812_99
     RDKit          3D

268284  0  0  0  0  0  0  0  0999 V2000
   27.8520    1.7560   32.4260 C   0  0  0  0  0  0  0  0  0  0  0  0
   28.1460    3.1800   31.9760 C   0  0  0  0  0  0  0  0  0  0  0  0
   29.4440    3.2620   31.2140 C   0  0  2  0  0  0  0  0  0  0  0  0
   29.5830    4.6050   30.7620 O   0  0  0  0  0  0  0  0  0  0  0  0
   29.3920    2.3620   29.9760 C   0  0  0  0  0  0  0  0  0  0  0  0
   28.9100    0.9730   30.2900 C   0  0  0  0  0  0  0  0  0  0  0  0
   29.5390   -0.0010   29.6360 C   0  0  0  0  0  0  0  0  0  0  0  0
   29.4550   -1.4600   30.0090 C   0  0  0  0  0  0  0  0  0  0  0  0
   28.2430   -1.7880   30.8760 C   0  0  2  0  0  0  0  0  0  0  0  0
   28.0110   -0.6780   31.9130 C   0  0  1  0  0  0  0  0  0  0  0  0
   27.7920    0.7150   31.3030 C   0  0  1  0  0  0  0  0  0  0  0  0
   26.9780   -1.0430   32.9820 C   0  0  0  0  0  0  0  0  0  0  0  0
   27.1990   -2.4360   33.5850 C   0  0  0  0  0  0  0  0  0  0  0  0
   27.2530   -3.4800   32.5040 C   0  0  1  0  0  0  0  0  0  0  0  0
   28.4590   -3.0720   31.6850 C   0  0  1  0  0  0  0  0  0  0  0  0
   28.9390   -4.3240   30.9550 C   0  0  0  0  0  0  0  0  0  0  0  0
   28.5780   -5.5020   31.8420 C   0  0  0  0  0  0  0  0  0  0  0  0
   27.6350   -4.8770   32.8640 C   0  0  0  0  0  0  0  0  0  0  0  0
   25.9050   -3.6210   31.7750 C   0  0  0  0  0  0  0  0  0  0  0  0
   26.4090    0.8530   30.6830 C   0  0  0  0  0  0  0  0  0  0  0  0
   27.1180   -5.6210   34.0780 C   0  0  0  0  0  0  0  0  0  0  0  0
   27.9690   -6.4660   34.7770 C   0  0  0  0  0  0  0  0  0  0  0  0
   27.5100   -7.1210   35.8500 N   0  0  0  0  0  0  0  0  0  0  0  0
   26.2300   -6.9880   36.2690 C   0  0  0  0  0  0  0  0  0  0  0  0
   25.3330   -6.1570   35.6120 C   0  0  0  0  0  0  0  0  0  0  0  0
   25.7850   -5.4680   34.4980 C   0  0  0  0  0  0  0  0  0  0  0  0
   27.2280   31.4370   54.8720 C   0  0  0  0  0  0  0  0  0  0  0  0
   27.5630   30.0200   55.3190 C   0  0  0  0  0  0  0  0  0  0  0  0
   28.9420   30.0450   55.9350 C   0  0  2  0  0  0  0  0  0  0  0  0
   29.3380   28.7240   56.2740 O   0  0  0  0  0  0  0  0  0  0  0  0
   28.8970   30.8400   57.2340 C   0  0  0  0  0  0  0  0  0  0  0  0
   28.3880   32.2260   56.9790 C   0  0  0  0  0  0  0  0  0  0  0  0
   28.9460   33.2170   57.6900 C   0  0  0  0  0  0  0  0  0  0  0  0
   29.0070   34.6130   57.1010 C   0  0  0  0  0  0  0  0  0  0  0  0
   27.7180   34.9360   56.3620 C   0  0  2  0  0  0  0  0  0  0  0  0
   27.4740   33.8480   55.3100 C   0  0  1  0  0  0  0  0  0  0  0  0
   27.2550   32.4810   55.9830 C   0  0  1  0  0  0  0  0  0  0  0  0
   26.4140   34.2230   54.2430 C   0  0  0  0  0  0  0  0  0  0  0  0
   26.3910   35.6890   53.7790 C   0  0  0  0  0  0  0  0  0  0  0  0
   26.5330   36.6930   54.9240 C   0  0  1  0  0  0  0  0  0  0  0  0
   27.7840   36.3020   55.6850 C   0  0  1  0  0  0  0  0  0  0  0  0
   28.1560   37.5160   56.5120 C   0  0  0  0  0  0  0  0  0  0  0  0
   27.7360   38.7150   55.6840 C   0  0  0  0  0  0  0  0  0  0  0  0
   26.8940   38.1110   54.5830 C   0  0  0  0  0  0  0  0  0  0  0  0
   25.2820   36.8310   55.7940 C   0  0  0  0  0  0  0  0  0  0  0  0
   25.9600   32.4070   56.8170 C   0  0  0  0  0  0  0  0  0  0  0  0
   26.5180   38.8840   53.3280 C   0  0  0  0  0  0  0  0  0  0  0  0
   27.4330   39.7520   52.7220 C   0  0  0  0  0  0  0  0  0  0  0  0
   27.1290   40.4600   51.6170 N   0  0  0  0  0  0  0  0  0  0  0  0
   25.9260   40.3380   51.0630 C   0  0  0  0  0  0  0  0  0  0  0  0
   24.9610   39.4950   51.5930 C   0  0  0  0  0  0  0  0  0  0  0  0
   25.2490   38.7630   52.7440 C   0  0  0  0  0  0  0  0  0  0  0  0
   -2.7730   25.7620   24.5740 C   0  0  0  0  0  0  0  0  0  0  0  0
   -1.6360   26.5310   25.2240 C   0  0  0  0  0  0  0  0  0  0  0  0
   -1.9090   27.0720   26.6180 C   0  0  2  0  0  0  0  0  0  0  0  0
   -0.6310   27.3650   27.1610 O   0  0  0  0  0  0  0  0  0  0  0  0
   -2.5660   26.0360   27.5320 C   0  0  0  0  0  0  0  0  0  0  0  0
   -3.7460   25.4740   26.8140 C   0  0  0  0  0  0  0  0  0  0  0  0
   -4.9650   25.6360   27.3340 C   0  0  0  0  0  0  0  0  0  0  0  0
   -6.0750   24.6590   27.0610 C   0  0  0  0  0  0  0  0  0  0  0  0
   -5.8650   23.8640   25.7750 C   0  0  2  0  0  0  0  0  0  0  0  0
   -4.8430   24.5130   24.8400 C   0  0  1  0  0  0  0  0  0  0  0  0
   -3.4900   24.7850   25.4940 C   0  0  1  0  0  0  0  0  0  0  0  0
   -4.7230   23.7960   23.4920 C   0  0  0  0  0  0  0  0  0  0  0  0
   -6.0690   23.5270   22.8020 C   0  0  0  0  0  0  0  0  0  0  0  0
   -7.0810   22.9110   23.7630 C   0  0  1  0  0  0  0  0  0  0  0  0
   -7.1450   23.8490   24.9490 C   0  0  1  0  0  0  0  0  0  0  0  0
   -8.5080   23.7450   25.6270 C   0  0  0  0  0  0  0  0  0  0  0  0
   -9.4520   23.3760   24.4860 C   0  0  0  0  0  0  0  0  0  0  0  0
   -8.5370   22.9790   23.3470 C   0  0  1  0  0  0  0  0  0  0  0  0
   -6.6920   21.4550   24.0860 C   0  0  0  0  0  0  0  0  0  0  0  0
   -2.6250   23.5230   25.7450 C   0  0  0  0  0  0  0  0  0  0  0  0
   -9.0090   22.7330   21.9350 C   0  0  1  0  0  0  0  0  0  0  0  0
  -10.0060   23.5030   21.3550 C   0  0  0  0  0  0  0  0  0  0  0  0
  -10.3890   23.3170   20.0730 N   0  0  0  0  0  0  0  0  0  0  0  0
   -9.8170   22.3710   19.3260 C   0  0  0  0  0  0  0  0  0  0  0  0
   -8.8000   21.5840   19.8450 C   0  0  0  0  0  0  0  0  0  0  0  0
   -8.3920   21.7740   21.1530 C   0  0  0  0  0  0  0  0  0  0  0  0
   -3.1900    7.6900   61.6790 C   0  0  0  0  0  0  0  0  0  0  0  0
   -1.9210    7.2000   60.9740 C   0  0  0  0  0  0  0  0  0  0  0  0
   -2.2170    6.4940   59.6310 C   0  0  2  0  0  0  0  0  0  0  0  0
   -0.9840    5.9940   59.0610 O   0  0  0  0  0  0  0  0  0  0  0  0
   -3.0250    7.3890   58.6580 C   0  0  0  0  0  0  0  0  0  0  0  0
   -4.2250    7.9440   59.3880 C   0  0  1  0  0  0  0  0  0  0  0  0
   -5.4350    7.7820   58.8250 C   0  0  0  0  0  0  0  0  0  0  0  0
   -6.7050    8.4850   59.2680 C   0  0  0  0  0  0  0  0  0  0  0  0
   -6.4560    9.3180   60.5190 C   0  0  2  0  0  0  0  0  0  0  0  0
   -5.3570    8.7340   61.4510 C   0  0  1  0  0  0  0  0  0  0  0  0
   -4.0240    8.6020   60.7820 C   0  0  1  0  0  0  0  0  0  0  0  0
   -5.1710    9.4440   62.7790 C   0  0  0  0  0  0  0  0  0  0  0  0
   -6.4850    9.7200   63.4830 C   0  0  0  0  0  0  0  0  0  0  0  0
   -7.5250   10.3770   62.5750 C   0  0  1  0  0  0  0  0  0  0  0  0
   -7.7250    9.4560   61.3720 C   0  0  1  0  0  0  0  0  0  0  0  0
   -9.0700    9.7520   60.7140 C   0  0  0  0  0  0  0  0  0  0  0  0
   -9.9320   10.1070   61.9300 C   0  0  0  0  0  0  0  0  0  0  0  0
   -8.9580   10.3930   63.0660 C   0  0  0  0  0  0  0  0  0  0  0  0
   -7.0940   11.8380   62.3400 C   0  0  0  0  0  0  0  0  0  0  0  0
   -3.3410    9.9810   60.6840 C   0  0  0  0  0  0  0  0  0  0  0  0
   -9.3770   10.6520   64.5190 C   0  0  0  0  0  0  0  0  0  0  0  0
  -10.5160   10.0680   65.0690 C   0  0  0  0  0  0  0  0  0  0  0  0
  -10.8870   10.2800   66.3630 N   0  0  0  0  0  0  0  0  0  0  0  0
  -10.1680   11.0670   67.1550 C   0  0  0  0  0  0  0  0  0  0  0  0
   -9.0070   11.6690   66.6740 C   0  0  0  0  0  0  0  0  0  0  0  0
   -8.6120   11.4650   65.3680 C   0  0  0  0  0  0  0  0  0  0  0  0
   28.6409    1.4520   33.1298 H   0  0  0  0  0  0  0  0  0  0  0  0
   26.8477    1.7792   32.8741 H   0  0  0  0  0  0  0  0  0  0  0  0
   27.3280    3.5257   31.3268 H   0  0  0  0  0  0  0  0  0  0  0  0
   28.2306    3.8141   32.8709 H   0  0  0  0  0  0  0  0  0  0  0  0
   30.2761    2.9478   31.8613 H   0  0  0  0  0  0  0  0  0  0  0  0
   29.6457    5.2110   31.5423 H   0  0  0  0  0  0  0  0  0  0  0  0
   28.7099    2.8137   29.2407 H   0  0  0  0  0  0  0  0  0  0  0  0
   30.4157    2.2780   29.5823 H   0  0  0  0  0  0  0  0  0  0  0  0
   28.1739    1.0444   29.4757 H   0  0  0  0  0  0  0  0  0  0  0  0
   29.1852    0.0615   28.5963 H   0  0  0  0  0  0  0  0  0  0  0  0
   30.5862    0.2194   29.8906 H   0  0  0  0  0  0  0  0  0  0  0  0
   29.3958   -2.0545   29.0854 H   0  0  0  0  0  0  0  0  0  0  0  0
   30.3531   -1.7002   30.5969 H   0  0  0  0  0  0  0  0  0  0  0  0
   27.3919   -1.8962   30.1875 H   0  0  0  0  0  0  0  0  0  0  0  0
   28.9682   -0.6002   32.4495 H   0  0  0  0  0  0  0  0  0  0  0  0
   27.0337   -0.2992   33.7905 H   0  0  0  0  0  0  0  0  0  0  0  0
   25.9919   -1.0504   32.4947 H   0  0  0  0  0  0  0  0  0  0  0  0
   28.1480   -2.4424   34.1411 H   0  0  0  0  0  0  0  0  0  0  0  0
   26.3607   -2.6671   34.2587 H   0  0  0  0  0  0  0  0  0  0  0  0
   29.2977   -2.7329   32.3107 H   0  0  0  0  0  0  0  0  0  0  0  0
   28.4358   -4.4129   29.9809 H   0  0  0  0  0  0  0  0  0  0  0  0
   30.0218   -4.2846   30.7653 H   0  0  0  0  0  0  0  0  0  0  0  0
   28.0721   -6.2912   31.2665 H   0  0  0  0  0  0  0  0  0  0  0  0
   29.4529   -5.9895   32.2969 H   0  0  0  0  0  0  0  0  0  0  0  0
   26.7710   -5.2586   32.3001 H   0  0  0  0  0  0  0  0  0  0  0  0
   25.0952   -3.7057   32.5147 H   0  0  0  0  0  0  0  0  0  0  0  0
   25.7347   -2.7358   31.1446 H   0  0  0  0  0  0  0  0  0  0  0  0
   25.9216   -4.5223   31.1446 H   0  0  0  0  0  0  0  0  0  0  0  0
   25.6554    0.9282   31.4808 H   0  0  0  0  0  0  0  0  0  0  0  0
   26.3752    1.7590   30.0601 H   0  0  0  0  0  0  0  0  0  0  0  0
   26.1968   -0.0284   30.0601 H   0  0  0  0  0  0  0  0  0  0  0  0
   26.8138   -6.4597   33.4345 H   0  0  0  0  0  0  0  0  0  0  0  0
   28.3219   -7.2261   34.0645 H   0  0  0  0  0  0  0  0  0  0  0  0
   28.7258   -5.7849   35.1934 H   0  0  0  0  0  0  0  0  0  0  0  0
   27.6501   -8.1235   35.6596 H   0  0  0  0  0  0  0  0  0  0  0  0
   25.7907   -7.9963   36.2484 H   0  0  0  0  0  0  0  0  0  0  0  0
   26.3508   -6.4842   37.2393 H   0  0  0  0  0  0  0  0  0  0  0  0
   24.4848   -6.7793   35.2906 H   0  0  0  0  0  0  0  0  0  0  0  0
   25.0961   -5.3718   36.3450 H   0  0  0  0  0  0  0  0  0  0  0  0
   25.6359   -4.3976   34.7027 H   0  0  0  0  0  0  0  0  0  0  0  0
   25.2045   -5.9061   33.6728 H   0  0  0  0  0  0  0  0  0  0  0  0
   27.9573   31.7351   54.1044 H   0  0  0  0  0  0  0  0  0  0  0  0
   26.1934   31.4078   54.4995 H   0  0  0  0  0  0  0  0  0  0  0  0
   26.8273   29.6780   56.0618 H   0  0  0  0  0  0  0  0  0  0  0  0
   27.5368   29.3302   54.4625 H   0  0  0  0  0  0  0  0  0  0  0  0
   29.6418   30.4931   55.2143 H   0  0  0  0  0  0  0  0  0  0  0  0
   29.3660   28.6305   57.2592 H   0  0  0  0  0  0  0  0  0  0  0  0
   28.2290   30.3336   57.9462 H   0  0  0  0  0  0  0  0  0  0  0  0
   29.9134   30.9033   57.6497 H   0  0  0  0  0  0  0  0  0  0  0  0
   27.6283   32.0913   57.7630 H   0  0  0  0  0  0  0  0  0  0  0  0
   28.3835   33.2912   58.6324 H   0  0  0  0  0  0  0  0  0  0  0  0
   30.0026   32.9202   57.7636 H   0  0  0  0  0  0  0  0  0  0  0  0
   29.1518   35.3420   57.9119 H   0  0  0  0  0  0  0  0  0  0  0  0
   29.8461   34.6634   56.3915 H   0  0  0  0  0  0  0  0  0  0  0  0
   26.8925   34.9665   57.0883 H   0  0  0  0  0  0  0  0  0  0  0  0
   28.3924   33.7604   54.7109 H   0  0  0  0  0  0  0  0  0  0  0  0
   26.5956   33.5958   53.3577 H   0  0  0  0  0  0  0  0  0  0  0  0
   25.4418   34.0584   54.7305 H   0  0  0  0  0  0  0  0  0  0  0  0
   27.2214   35.8444   53.0745 H   0  0  0  0  0  0  0  0  0  0  0  0
   25.4104   35.8658   53.3130 H   0  0  0  0  0  0  0  0  0  0  0  0
   28.6325   36.0787   55.0215 H   0  0  0  0  0  0  0  0  0  0  0  0
   27.6202   37.5056   57.4726 H   0  0  0  0  0  0  0  0  0  0  0  0
   29.2309   37.5373   56.7446 H   0  0  0  0  0  0  0  0  0  0  0  0
   27.1461   39.4211   56.2868 H   0  0  0  0  0  0  0  0  0  0  0  0
   28.5918   39.2898   55.3004 H   0  0  0  0  0  0  0  0  0  0  0  0
   25.9821   38.4643   55.0866 H   0  0  0  0  0  0  0  0  0  0  0  0
   25.5684   36.7994   56.8556 H   0  0  0  0  0  0  0  0  0  0  0  0
   24.7876   37.7891   55.5759 H   0  0  0  0  0  0  0  0  0  0  0  0
   24.5906   36.0037   55.5759 H   0  0  0  0  0  0  0  0  0  0  0  0
   26.2121   32.4214   57.8876 H   0  0  0  0  0  0  0  0  0  0  0  0
   25.3209   33.2701   56.5791 H   0  0  0  0  0  0  0  0  0  0  0  0
   25.4233   31.4767   56.5791 H   0  0  0  0  0  0  0  0  0  0  0  0
   26.1447   39.7113   53.9494 H   0  0  0  0  0  0  0  0  0  0  0  0
   27.7128   40.4878   53.4903 H   0  0  0  0  0  0  0  0  0  0  0  0
   28.1937   39.0535   52.3433 H   0  0  0  0  0  0  0  0  0  0  0  0
   27.2465   41.4544   51.8584 H   0  0  0  0  0  0  0  0  0  0  0  0
   25.4855   41.3459   51.0553 H   0  0  0  0  0  0  0  0  0  0  0  0
   26.1586   39.8531   50.1034 H   0  0  0  0  0  0  0  0  0  0  0  0
   24.0823   40.1166   51.8201 H   0  0  0  0  0  0  0  0  0  0  0  0
   24.8374   38.7232   50.8190 H   0  0  0  0  0  0  0  0  0  0  0  0
   25.1096   37.7010   52.4936 H   0  0  0  0  0  0  0  0  0  0  0  0
   24.5699   39.1836   53.5003 H   0  0  0  0  0  0  0  0  0  0  0  0
   -3.5112   26.4893   24.2050 H   0  0  0  0  0  0  0  0  0  0  0  0
   -2.3208   25.1585   23.7732 H   0  0  0  0  0  0  0  0  0  0  0  0
   -0.7680   25.8583   25.2880 H   0  0  0  0  0  0  0  0  0  0  0  0
   -1.4746   27.4147   24.5892 H   0  0  0  0  0  0  0  0  0  0  0  0
   -2.5881   27.9348   26.5523 H   0  0  0  0  0  0  0  0  0  0  0  0
   -0.6819   27.3533   28.1496 H   0  0  0  0  0  0  0  0  0  0  0  0
   -1.8505   25.2326   27.7612 H   0  0  0  0  0  0  0  0  0  0  0  0
   -2.8794   26.5030   28.4773 H   0  0  0  0  0  0  0  0  0  0  0  0
   -3.6346   24.5309   27.3691 H   0  0  0  0  0  0  0  0  0  0  0  0
   -4.8352   25.6600   28.4260 H   0  0  0  0  0  0  0  0  0  0  0  0
   -5.3197   26.5434   26.8232 H   0  0  0  0  0  0  0  0  0  0  0  0
   -6.1368   23.9540   27.9031 H   0  0  0  0  0  0  0  0  0  0  0  0
   -7.0025   25.2384   26.9426 H   0  0  0  0  0  0  0  0  0  0  0  0
   -5.5353   22.8682   26.1061 H   0  0  0  0  0  0  0  0  0  0  0  0
   -5.2556   25.5082   24.6180 H   0  0  0  0  0  0  0  0  0  0  0  0
   -4.1103   24.4183   22.8232 H   0  0  0  0  0  0  0  0  0  0  0  0
   -4.2688   22.8148   23.6942 H   0  0  0  0  0  0  0  0  0  0  0  0
   -6.4711   24.4776   22.4216 H   0  0  0  0  0  0  0  0  0  0  0  0
   -5.8979   22.8154   21.9808 H   0  0  0  0  0  0  0  0  0  0  0  0
   -7.1283   24.9027   24.6337 H   0  0  0  0  0  0  0  0  0  0  0  0
   -8.5028   22.9628   26.4004 H   0  0  0  0  0  0  0  0  0  0  0  0
   -8.8011   24.6730   26.1398 H   0  0  0  0  0  0  0  0  0  0  0  0
  -10.1001   22.5354   24.7746 H   0  0  0  0  0  0  0  0  0  0  0  0
  -10.1216   24.2051   24.2137 H   0  0  0  0  0  0  0  0  0  0  0  0
   -8.6630   21.9196   23.6150 H   0  0  0  0  0  0  0  0  0  0  0  0
   -6.6556   21.3186   25.1769 H   0  0  0  0  0  0  0  0  0  0  0  0
   -7.4391   20.7718   23.6558 H   0  0  0  0  0  0  0  0  0  0  0  0
   -5.7037   21.2355   23.6558 H   0  0  0  0  0  0  0  0  0  0  0  0
   -2.5154   23.3630   26.8278 H   0  0  0  0  0  0  0  0  0  0  0  0
   -3.1138   22.6475   25.2927 H   0  0  0  0  0  0  0  0  0  0  0  0
   -1.6321   23.6631   25.2927 H   0  0  0  0  0  0  0  0  0  0  0  0
   -9.7690   22.0323   22.3111 H   0  0  0  0  0  0  0  0  0  0  0  0
  -10.9060   23.3596   21.9710 H   0  0  0  0  0  0  0  0  0  0  0  0
   -9.5425   24.4999   21.3196 H   0  0  0  0  0  0  0  0  0  0  0  0
  -11.3972   23.1073   20.0937 H   0  0  0  0  0  0  0  0  0  0  0  0
  -10.6196   21.6853   19.0167 H   0  0  0  0  0  0  0  0  0  0  0  0
   -9.3067   22.9496   18.5419 H   0  0  0  0  0  0  0  0  0  0  0  0
   -9.1305   20.5381   19.7616 H   0  0  0  0  0  0  0  0  0  0  0  0
   -7.9195   21.8771   19.2545 H   0  0  0  0  0  0  0  0  0  0  0  0
   -7.3231   22.0313   21.1185 H   0  0  0  0  0  0  0  0  0  0  0  0
   -8.6677   20.8295   21.6448 H   0  0  0  0  0  0  0  0  0  0  0  0
   -3.7979    6.8184   61.9634 H   0  0  0  0  0  0  0  0  0  0  0  0
   -2.8864    8.2678   62.5644 H   0  0  0  0  0  0  0  0  0  0  0  0
   -1.2701    8.0653   60.7803 H   0  0  0  0  0  0  0  0  0  0  0  0
   -1.4373    6.4656   61.6349 H   0  0  0  0  0  0  0  0  0  0  0  0
   -2.8710    5.6306   59.8228 H   0  0  0  0  0  0  0  0  0  0  0  0
   -0.3623    5.7419   59.7890 H   0  0  0  0  0  0  0  0  0  0  0  0
   -2.3920    8.2165   58.3051 H   0  0  0  0  0  0  0  0  0  0  0  0
   -3.3560    6.7957   57.7928 H   0  0  0  0  0  0  0  0  0  0  0  0
   -4.1059    8.8999   58.8570 H   0  0  0  0  0  0  0  0  0  0  0  0
   -5.3042    8.0530   57.7670 H   0  0  0  0  0  0  0  0  0  0  0  0
   -5.6611    6.7516   59.1368 H   0  0  0  0  0  0  0  0  0  0  0  0
   -7.0526    9.1446   58.4592 H   0  0  0  0  0  0  0  0  0  0  0  0
   -7.4663    7.7248   59.4972 H   0  0  0  0  0  0  0  0  0  0  0  0
   -6.1248   10.2916   60.1286 H   0  0  0  0  0  0  0  0  0  0  0  0
   -5.7612    7.7362   61.6769 H   0  0  0  0  0  0  0  0  0  0  0  0
   -4.5479    8.8140   63.4308 H   0  0  0  0  0  0  0  0  0  0  0  0
   -4.6935   10.4135   62.5738 H   0  0  0  0  0  0  0  0  0  0  0  0
   -6.8928    8.7665   63.8498 H   0  0  0  0  0  0  0  0  0  0  0  0
   -6.2763   10.4215   64.3042 H   0  0  0  0  0  0  0  0  0  0  0  0
   -7.8386    8.4030   61.6693 H   0  0  0  0  0  0  0  0  0  0  0  0
   -8.9973   10.5962   60.0125 H   0  0  0  0  0  0  0  0  0  0  0  0
   -9.4662    8.9228   60.1095 H   0  0  0  0  0  0  0  0  0  0  0  0
  -10.5439   10.9962   61.7182 H   0  0  0  0  0  0  0  0  0  0  0  0
  -10.6221    9.2899   62.1871 H   0  0  0  0  0  0  0  0  0  0  0  0
   -9.0205   11.4695   62.8486 H   0  0  0  0  0  0  0  0  0  0  0  0
   -6.9467   12.3372   63.3091 H   0  0  0  0  0  0  0  0  0  0  0  0
   -6.1524   11.8556   61.7716 H   0  0  0  0  0  0  0  0  0  0  0  0
   -7.8753   12.3639   61.7716 H   0  0  0  0  0  0  0  0  0  0  0  0
   -3.1493   10.3680   61.6957 H   0  0  0  0  0  0  0  0  0  0  0  0
   -2.3884    9.8808   60.1432 H   0  0  0  0  0  0  0  0  0  0  0  0
   -3.9981   10.6780   60.1432 H   0  0  0  0  0  0  0  0  0  0  0  0
   -9.9768   11.5142   64.1923 H   0  0  0  0  0  0  0  0  0  0  0  0
  -11.3615   10.4002   64.4487 H   0  0  0  0  0  0  0  0  0  0  0  0
  -10.2445    9.0021   65.0801 H   0  0  0  0  0  0  0  0  0  0  0  0
  -11.8361   10.6791   66.3351 H   0  0  0  0  0  0  0  0  0  0  0  0
  -10.8333   11.8789   67.4840 H   0  0  0  0  0  0  0  0  0  0  0  0
   -9.7932   10.3757   67.9242 H   0  0  0  0  0  0  0  0  0  0  0  0
   -9.1367   12.7540   66.8002 H   0  0  0  0  0  0  0  0  0  0  0  0
   -8.2110   11.1823   67.2567 H   0  0  0  0  0  0  0  0  0  0  0  0
   -7.6053   11.0234   65.4069 H   0  0  0  0  0  0  0  0  0  0  0  0
   -8.7120   12.4632   64.9168 H   0  0  0  0  0  0  0  0  0  0  0  0
  1  2  1  0
  2  3  1  0
  3  4  1  0
  3  5  1  0
  5  6  1  0
  6  7  1  0
  7  8  1  0
  8  9  1  0
  9 10  1  0
  1 11  1  0
  6 11  1  0
 10 11  1  0
 10 12  1  0
 12 13  1  0
 13 14  1  0
  9 15  1  0
 14 15  1  0
 15 16  1  0
 16 17  1  0
 14 18  1  0
 17 18  1  0
 14 19  1  6
 11 20  1  6
 18 21  1  0
 21 22  1  0
 22 23  1  0
 24 23  1  0
 24 25  1  0
 21 26  1  0
 25 26  1  0
 27 28  1  0
 28 29  1  0
 29 30  1  0
 29 31  1  0
 31 32  1  0
 32 33  1  0
 33 34  1  0
 34 35  1  0
 35 36  1  0
 27 37  1  0
 32 37  1  0
 36 37  1  0
 36 38  1  0
 38 39  1  0
 39 40  1  0
 35 41  1  0
 40 41  1  0
 41 42  1  0
 42 43  1  0
 40 44  1  0
 43 44  1  0
 40 45  1  1
 37 46  1  1
 44 47  1  0
 47 48  1  0
 48 49  1  0
 50 49  1  0
 50 51  1  0
 47 52  1  0
 51 52  1  0
 53 54  1  0
 54 55  1  0
 55 56  1  0
 55 57  1  0
 57 58  1  0
 58 59  1  0
 59 60  1  0
 60 61  1  0
 61 62  1  0
 53 63  1  0
 58 63  1  0
 62 63  1  0
 62 64  1  0
 64 65  1  0
 65 66  1  0
 61 67  1  0
 66 67  1  0
 67 68  1  0
 68 69  1  0
 66 70  1  0
 69 70  1  0
 66 71  1  1
 63 72  1  1
 70 73  1  0
 73 74  1  0
 74 75  1  0
 76 75  1  0
 76 77  1  0
 73 78  1  0
 77 78  1  0
 79 80  1  0
 80 81  1  0
 81 82  1  0
 81 83  1  0
 83 84  1  0
 84 85  1  0
 85 86  1  0
 86 87  1  0
 87 88  1  0
 79 89  1  0
 84 89  1  0
 88 89  1  0
 88 90  1  0
 90 91  1  0
 91 92  1  0
 87 93  1  0
 92 93  1  0
 93 94  1  0
 94 95  1  0
 92 96  1  0
 95 96  1  0
 92 97  1  6
 89 98  1  6
 96 99  1  0
 99100  1  0
100101  1  0
102101  1  0
102103  1  0
 99104  1  0
103104  1  0
  1105  1  0
  1106  1  0
  2107  1  0
  2108  1  0
  3109  1  1
  4110  1  0
  5111  1  0
  5112  1  0
  6113  1  0
  7114  1  0
  7115  1  0
  8116  1  0
  8117  1  0
  9118  1  6
 10119  1  1
 12120  1  0
 12121  1  0
 13122  1  0
 13123  1  0
 15124  1  1
 16125  1  0
 16126  1  0
 17127  1  0
 17128  1  0
 18129  1  0
 19130  1  0
 19131  1  0
 19132  1  0
 20133  1  0
 20134  1  0
 20135  1  0
 21136  1  0
 22137  1  0
 22138  1  0
 23139  1  6
 24140  1  0
 24141  1  0
 25142  1  0
 25143  1  0
 26144  1  0
 26145  1  0
 27146  1  0
 27147  1  0
 28148  1  0
 28149  1  0
 29150  1  6
 30151  1  0
 31152  1  0
 31153  1  0
 32154  1  0
 33155  1  0
 33156  1  0
 34157  1  0
 34158  1  0
 35159  1  1
 36160  1  6
 38161  1  0
 38162  1  0
 39163  1  0
 39164  1  0
 41165  1  6
 42166  1  0
 42167  1  0
 43168  1  0
 43169  1  0
 44170  1  0
 45171  1  0
 45172  1  0
 45173  1  0
 46174  1  0
 46175  1  0
 46176  1  0
 47177  1  0
 48178  1  0
 48179  1  0
 49180  1  1
 50181  1  0
 50182  1  0
 51183  1  0
 51184  1  0
 52185  1  0
 52186  1  0
 53187  1  0
 53188  1  0
 54189  1  0
 54190  1  0
 55191  1  6
 56192  1  0
 57193  1  0
 57194  1  0
 58195  1  0
 59196  1  0
 59197  1  0
 60198  1  0
 60199  1  0
 61200  1  1
 62201  1  6
 64202  1  0
 64203  1  0
 65204  1  0
 65205  1  0
 67206  1  6
 68207  1  0
 68208  1  0
 69209  1  0
 69210  1  0
 70211  1  1
 71212  1  0
 71213  1  0
 71214  1  0
 72215  1  0
 72216  1  0
 72217  1  0
 73218  1  1
 74219  1  0
 74220  1  0
 75221  1  1
 76222  1  0
 76223  1  0
 77224  1  0
 77225  1  0
 78226  1  0
 78227  1  0
 79228  1  0
 79229  1  0
 80230  1  0
 80231  1  0
 81232  1  1
 82233  1  0
 83234  1  0
 83235  1  0
 84236  1  6
 85237  1  0
 85238  1  0
 86239  1  0
 86240  1  0
 87241  1  6
 88242  1  1
 90243  1  0
 90244  1  0
 91245  1  0
 91246  1  0
 93247  1  1
 94248  1  0
 94249  1  0
 95250  1  0
 95251  1  0
 96252  1  0
 97253  1  0
 97254  1  0
 97255  1  0
 98256  1  0
 98257  1  0
 98258  1  0
 99259  1  0
100260  1  0
100261  1  0
101262  1  6
102263  1  0
102264  1  0
103265  1  0
103266  1  0
104267  1  0
104268  1  0
M  END
>  <PDBID>  (1) 
3RUK

>  <PDB ID>  (1) 
3RUK

>  <Generic Name>  (1) 
Abiraterone

>  <Brand Name>  (1) 
Zytiga

>  <DrugBank ID>  (1) 
DB05812

>  <ATC Codes>  (1) 
L02BX03

>  <Ligand ID>  (1) 
AER

>  <Target Name>  (1) 
Steroid 17-alpha-hydroxylase/17,20 lyase

>  <UniProt ID>  (1) 
P05093

>  <PDB ID.1>  (1) 
3RUK

>  <Seq. Identity>  (1) 
97%

$$$$
