PDB_DB00558_94
     RDKit          3D

 43 43  0  0  0  0  0  0  0  0999 V2000
   33.3280    9.7770   50.5190 C   0  0  0  0  0  0  0  0  0  0  0  0
   32.5000   10.1950   51.3630 O   0  0  0  0  0  0  0  0  0  0  0  0
   33.1810    9.9780   49.2750 O   0  0  0  0  0  0  0  0  0  0  0  0
   34.5380    9.0270   50.9250 C   0  0  0  0  0  0  0  0  0  0  0  0
   34.8560    8.5500   52.1350 C   0  0  0  0  0  0  0  0  0  0  0  0
   36.0860    7.6910   52.3200 C   0  0  1  0  0  0  0  0  0  0  0  0
   37.1800    8.0580   51.2950 C   0  0  1  0  0  0  0  0  0  0  0  0
   38.1390    6.9530   51.3310 N   0  0  0  0  0  0  0  0  0  0  0  0
   39.3100    7.1320   51.9260 C   0  0  0  0  0  0  0  0  0  0  0  0
   39.6220    8.1960   52.4650 O   0  0  0  0  0  0  0  0  0  0  0  0
   40.2400    5.9640   51.9040 C   0  0  0  0  0  0  0  0  0  0  0  0
   36.5780    8.0440   49.8870 C   0  0  1  0  0  0  0  0  0  0  0  0
   35.4020    8.8390   49.8300 O   0  0  0  0  0  0  0  0  0  0  0  0
   37.3800    8.7130   48.7930 C   0  0  2  0  0  0  0  0  0  0  0  0
   38.0370    9.7150   49.0350 O   0  0  0  0  0  0  0  0  0  0  0  0
   37.2170    8.2740   47.5280 C   0  0  1  0  0  0  0  0  0  0  0  0
   36.4460    7.2290   47.2300 O   0  0  0  0  0  0  0  0  0  0  0  0
   37.9820    8.8910   46.3790 C   0  0  0  0  0  0  0  0  0  0  0  0
   39.0970    8.0210   46.0710 O   0  0  0  0  0  0  0  0  0  0  0  0
   36.6840    7.8120   53.6420 N   0  0  0  0  0  0  0  0  0  0  0  0
   37.2210    6.7880   54.3520 C   0  0  0  0  0  0  0  0  0  0  0  0
   37.7920    7.0360   55.5510 N   0  0  0  0  0  0  0  0  0  0  0  0
   37.2240    5.5300   53.8850 N   0  0  0  0  0  0  0  0  0  0  0  0
   32.6447   10.0208   52.3268 H   0  0  0  0  0  0  0  0  0  0  0  0
   34.2182    8.7847   52.9999 H   0  0  0  0  0  0  0  0  0  0  0  0
   35.7312    6.6594   52.1791 H   0  0  0  0  0  0  0  0  0  0  0  0
   37.6183    9.0412   51.5214 H   0  0  0  0  0  0  0  0  0  0  0  0
   37.9068    6.0471   50.8992 H   0  0  0  0  0  0  0  0  0  0  0  0
   40.4779    5.6652   52.9356 H   0  0  0  0  0  0  0  0  0  0  0  0
   39.7610    5.1237   51.3801 H   0  0  0  0  0  0  0  0  0  0  0  0
   41.1662    6.2426   51.3801 H   0  0  0  0  0  0  0  0  0  0  0  0
   36.4757    6.9616   49.7200 H   0  0  0  0  0  0  0  0  0  0  0  0
   38.3718    8.2596   48.9372 H   0  0  0  0  0  0  0  0  0  0  0  0
   38.1130    9.8310   50.0152 H   0  0  0  0  0  0  0  0  0  0  0  0
   38.0798    7.6027   47.6498 H   0  0  0  0  0  0  0  0  0  0  0  0
   36.1311    6.8022   48.0659 H   0  0  0  0  0  0  0  0  0  0  0  0
   37.3266    8.9843   45.5005 H   0  0  0  0  0  0  0  0  0  0  0  0
   38.3417    9.8941   46.6519 H   0  0  0  0  0  0  0  0  0  0  0  0
   39.5078    7.7005   46.9128 H   0  0  0  0  0  0  0  0  0  0  0  0
   38.2018    6.2639   56.0958 H   0  0  0  0  0  0  0  0  0  0  0  0
   37.8176    7.9972   55.9203 H   0  0  0  0  0  0  0  0  0  0  0  0
   37.6391    4.7731   54.4468 H   0  0  0  0  0  0  0  0  0  0  0  0
   36.8112    5.3213   52.9647 H   0  0  0  0  0  0  0  0  0  0  0  0
  1  2  1  0
  1  3  2  0
  1  4  1  0
  4  5  2  0
  5  6  1  0
  6  7  1  0
  7  8  1  0
  8  9  1  0
  9 10  2  0
  9 11  1  0
  7 12  1  0
  4 13  1  0
 12 13  1  0
 12 14  1  0
 14 15  1  0
 14 16  1  0
 16 17  1  0
 16 18  1  0
 18 19  1  0
  6 20  1  0
 20 21  2  3
 21 22  1  0
 21 23  1  0
  2 24  1  0
  5 25  1  0
  6 26  1  6
  7 27  1  1
  8 28  1  0
 11 29  1  0
 11 30  1  0
 11 31  1  0
 12 32  1  6
 14 33  1  1
 15 34  1  0
 16 35  1  6
 17 36  1  0
 18 37  1  0
 18 38  1  0
 19 39  1  0
 22 40  1  0
 22 41  1  0
 23 42  1  0
 23 43  1  0
M  END
$$$$
