PDB_DB00820_97
     RDKit          3D

 48 53  0  0  0  0  0  0  0  0999 V2000
   42.8220   37.8770   10.1470 C   0  0  0  0  0  0  0  0  0  0  0  0
   42.9660   38.2730   11.5040 C   0  0  0  0  0  0  0  0  0  0  0  0
   43.8200   37.6730   12.4150 C   0  0  0  0  0  0  0  0  0  0  0  0
   44.5670   36.6040   11.8900 C   0  0  0  0  0  0  0  0  0  0  0  0
   45.5670   35.7220   12.5090 C   0  0  0  0  0  0  0  0  0  0  0  0
   45.9500   34.8780   11.5180 C   0  0  0  0  0  0  0  0  0  0  0  0
   45.3070   35.1450   10.3960 N   0  0  0  0  0  0  0  0  0  0  0  0
   44.4430   36.1950   10.5540 C   0  0  0  0  0  0  0  0  0  0  0  0
   43.5880   36.7990    9.6480 C   0  0  0  0  0  0  0  0  0  0  0  0
   46.9640   33.8340   11.7720 C   0  0  2  0  0  0  0  0  0  0  0  0
   47.2580   33.5750   13.1710 N   0  0  0  0  0  0  0  0  0  0  0  0
   48.1380   32.5760   13.3970 C   0  0  0  0  0  0  0  0  0  0  0  0
   48.6650   31.9330   12.5250 O   0  0  0  0  0  0  0  0  0  0  0  0
   48.4930   32.2400   14.7760 C   0  0  0  0  0  0  0  0  0  0  0  0
   48.1260   33.1800   15.8350 N   0  0  0  0  0  0  0  0  0  0  0  0
   47.2490   34.1540   15.6280 C   0  0  0  0  0  0  0  0  0  0  0  0
   46.8900   34.9790   16.4840 O   0  0  0  0  0  0  0  0  0  0  0  0
   46.6300   34.3090   14.2750 C   0  0  1  0  0  0  0  0  0  0  0  0
   46.0970   35.7020   13.9150 C   0  0  0  0  0  0  0  0  0  0  0  0
   48.7160   33.0530   17.1550 C   0  0  0  0  0  0  0  0  0  0  0  0
   48.2060   34.2980   10.9340 C   0  0  0  0  0  0  0  0  0  0  0  0
   48.7360   33.4820    9.8960 C   0  0  0  0  0  0  0  0  0  0  0  0
   49.8220   33.8410    9.1280 C   0  0  0  0  0  0  0  0  0  0  0  0
   50.4030   35.0570    9.4070 C   0  0  0  0  0  0  0  0  0  0  0  0
   51.4800   35.6170    8.7840 O   0  0  0  0  0  0  0  0  0  0  0  0
   51.8080   36.6900    9.6600 C   0  0  0  0  0  0  0  0  0  0  0  0
   50.6580   37.0270   10.4910 O   0  0  0  0  0  0  0  0  0  0  0  0
   49.9300   35.8680   10.3900 C   0  0  0  0  0  0  0  0  0  0  0  0
   48.8280   35.5130   11.1710 C   0  0  0  0  0  0  0  0  0  0  0  0
   42.1181   38.4066    9.4882 H   0  0  0  0  0  0  0  0  0  0  0  0
   42.3552   39.1171   11.8567 H   0  0  0  0  0  0  0  0  0  0  0  0
   43.9063   38.0048   13.4602 H   0  0  0  0  0  0  0  0  0  0  0  0
   45.4387   34.6290    9.5143 H   0  0  0  0  0  0  0  0  0  0  0  0
   43.5096   36.4608    8.6042 H   0  0  0  0  0  0  0  0  0  0  0  0
   46.5945   32.8448   11.4639 H   0  0  0  0  0  0  0  0  0  0  0  0
   48.0112   31.2796   15.0116 H   0  0  0  0  0  0  0  0  0  0  0  0
   49.5930   32.2410   14.7812 H   0  0  0  0  0  0  0  0  0  0  0  0
   45.7022   33.7388   14.4303 H   0  0  0  0  0  0  0  0  0  0  0  0
   46.9128   36.4346   14.0036 H   0  0  0  0  0  0  0  0  0  0  0  0
   45.2786   35.9561   14.6046 H   0  0  0  0  0  0  0  0  0  0  0  0
   47.9430   33.2194   17.9197 H   0  0  0  0  0  0  0  0  0  0  0  0
   49.1371   32.0436   17.2729 H   0  0  0  0  0  0  0  0  0  0  0  0
   49.5151   33.7997   17.2729 H   0  0  0  0  0  0  0  0  0  0  0  0
   48.2535   32.5139    9.6962 H   0  0  0  0  0  0  0  0  0  0  0  0
   50.2060   33.1876    8.3307 H   0  0  0  0  0  0  0  0  0  0  0  0
   52.6474   36.3900   10.3046 H   0  0  0  0  0  0  0  0  0  0  0  0
   52.0909   37.5693    9.0626 H   0  0  0  0  0  0  0  0  0  0  0  0
   48.4606   36.1858   11.9599 H   0  0  0  0  0  0  0  0  0  0  0  0
  1  2  2  0
  2  3  1  0
  3  4  2  0
  4  5  1  0
  5  6  2  0
  6  7  1  0
  4  8  1  0
  7  8  1  0
  1  9  1  0
  8  9  2  0
  6 10  1  0
 10 11  1  0
 11 12  1  0
 12 13  2  0
 12 14  1  0
 14 15  1  0
 15 16  1  0
 16 17  2  0
 11 18  1  0
 16 18  1  0
  5 19  1  0
 18 19  1  0
 15 20  1  0
 10 21  1  0
 21 22  2  0
 22 23  1  0
 23 24  2  0
 24 25  1  0
 25 26  1  0
 26 27  1  0
 24 28  1  0
 27 28  1  0
 21 29  1  0
 28 29  2  0
  1 30  1  0
  2 31  1  0
  3 32  1  0
  7 33  1  0
  9 34  1  0
 10 35  1  6
 14 36  1  0
 14 37  1  0
 18 38  1  1
 19 39  1  0
 19 40  1  0
 20 41  1  0
 20 42  1  0
 20 43  1  0
 22 44  1  0
 23 45  1  0
 26 46  1  0
 26 47  1  0
 29 48  1  0
M  END
>  <PDBID>  (1) 
1XOZ

>  <PDB ID>  (1) 
1XOZ

>  <Generic Name>  (1) 
Tadalafil

>  <Brand Name>  (1) 
Act Tadalafil#Adcirca#Apo-tadalafil#Apo-tadalafil Pah#Auro-tadalafil#Cialis#Dom-tadalafil#Ipg-tadalafil#Jamp-tadalafil#Mar-tadalafil#Mint-tadalafil#Mylan-tadalafil#PMS-tadalafil#Priva-tadalafil#Ran-tadalafil#Riva-tadalafil#Tadalafil#Teva-tadalafil

>  <DrugBank ID>  (1) 
DB00820

>  <ATC Codes>  (1) 
G04BE08

>  <Ligand ID>  (1) 
CIA

>  <Target Name>  (1) 
cGMP-specific 3',5'-cyclic phosphodiesterase

>  <UniProt ID>  (1) 
O76074

>  <PDB ID.1>  (1) 
1XOZ

>  <Seq. Identity>  (1) 
88%

$$$$
