PDB_DB00218_94
     RDKit          3D

 53 57  0  0  0  0  0  0  0  0999 V2000
   96.0780   -6.0130   -8.4190 F   0  0  0  0  0  0  0  0  0  0  0  0
  100.4460   -8.3520   -8.0150 O   0  0  0  0  0  0  0  0  0  0  0  0
   97.5020   -4.9010   -3.7400 O   0  0  0  0  0  0  0  0  0  0  0  0
  100.7190   -5.7900   -1.2220 O   0  0  0  0  0  0  0  0  0  0  0  0
   98.6220   -5.1120   -1.3130 O   0  0  0  0  0  0  0  0  0  0  0  0
   98.2540   -7.7910   -9.6560 N   0  0  0  0  0  0  0  0  0  0  0  0
   96.5420   -8.3570  -12.5400 N   0  0  0  0  0  0  0  0  0  0  0  0
  100.6230   -7.2620   -5.1420 N   0  0  0  0  0  0  0  0  0  0  0  0
   96.4320   -9.2830  -10.2360 C   0  0  2  0  0  0  0  0  0  0  0  0
   96.3240   -8.0490  -11.1330 C   0  0  1  0  0  0  0  0  0  0  0  0
   97.8300   -9.2050   -9.6560 C   0  0  0  0  0  0  0  0  0  0  0  0
   97.4360   -7.1170  -10.6790 C   0  0  0  0  0  0  0  0  0  0  0  0
   96.3090  -10.6390  -10.9370 C   0  0  0  0  0  0  0  0  0  0  0  0
  101.7330   -8.1810   -5.4620 C   0  0  0  0  0  0  0  0  0  0  0  0
   95.4700  -10.6000  -12.2200 C   0  0  0  0  0  0  0  0  0  0  0  0
  102.9630   -8.0400   -4.5650 C   0  0  0  0  0  0  0  0  0  0  0  0
  102.9720   -7.4610   -5.9730 C   0  0  0  0  0  0  0  0  0  0  0  0
   95.8630   -9.4730  -13.1860 C   0  0  0  0  0  0  0  0  0  0  0  0
   98.2730   -7.2160   -8.3320 C   0  0  0  0  0  0  0  0  0  0  0  0
   99.5200   -7.0480   -6.0480 C   0  0  0  0  0  0  0  0  0  0  0  0
   99.4680   -7.5390   -7.4790 C   0  0  0  0  0  0  0  0  0  0  0  0
   98.3880   -6.1720   -5.5890 C   0  0  0  0  0  0  0  0  0  0  0  0
   97.2000   -6.3340   -7.7360 C   0  0  0  0  0  0  0  0  0  0  0  0
  100.5720   -6.8290   -3.8600 C   0  0  0  0  0  0  0  0  0  0  0  0
   97.3290   -5.8300   -6.4380 C   0  0  0  0  0  0  0  0  0  0  0  0
   99.5740   -6.0230   -3.3200 C   0  0  0  0  0  0  0  0  0  0  0  0
   98.4350   -5.6160   -4.1980 C   0  0  0  0  0  0  0  0  0  0  0  0
   99.6490   -5.6050   -1.8650 C   0  0  0  0  0  0  0  0  0  0  0  0
  101.3210   -7.7980   -9.0080 C   0  0  0  0  0  0  0  0  0  0  0  0
  100.7781   -5.5204   -0.2712 H   0  0  0  0  0  0  0  0  0  0  0  0
   96.2796   -7.5119  -13.0672 H   0  0  0  0  0  0  0  0  0  0  0  0
   95.5973   -9.2537   -9.5202 H   0  0  0  0  0  0  0  0  0  0  0  0
   95.3150   -7.6194  -11.0474 H   0  0  0  0  0  0  0  0  0  0  0  0
   98.5213   -9.8005  -10.2704 H   0  0  0  0  0  0  0  0  0  0  0  0
   97.8374   -9.6027   -8.6304 H   0  0  0  0  0  0  0  0  0  0  0  0
   96.9972   -6.2024  -10.2536 H   0  0  0  0  0  0  0  0  0  0  0  0
   98.0685   -6.8540  -11.5397 H   0  0  0  0  0  0  0  0  0  0  0  0
   97.3196  -10.9891  -11.1943 H   0  0  0  0  0  0  0  0  0  0  0  0
   95.7938  -11.3146  -10.2384 H   0  0  0  0  0  0  0  0  0  0  0  0
  101.1151   -9.0278   -5.7953 H   0  0  0  0  0  0  0  0  0  0  0  0
   95.5900  -11.5610  -12.7417 H   0  0  0  0  0  0  0  0  0  0  0  0
   94.4298  -10.4118  -11.9158 H   0  0  0  0  0  0  0  0  0  0  0  0
  102.9351   -7.3688   -3.6939 H   0  0  0  0  0  0  0  0  0  0  0  0
  103.6033   -8.7380   -4.0057 H   0  0  0  0  0  0  0  0  0  0  0  0
  103.5937   -7.9242   -6.7533 H   0  0  0  0  0  0  0  0  0  0  0  0
  103.1707   -6.4680   -6.4025 H   0  0  0  0  0  0  0  0  0  0  0  0
   94.9492   -9.0926  -13.6658 H   0  0  0  0  0  0  0  0  0  0  0  0
   96.5700   -9.9031  -13.9106 H   0  0  0  0  0  0  0  0  0  0  0  0
  101.3869   -7.1400   -3.1898 H   0  0  0  0  0  0  0  0  0  0  0  0
   96.5632   -5.1329   -6.0672 H   0  0  0  0  0  0  0  0  0  0  0  0
  102.1510   -7.2725   -8.5132 H   0  0  0  0  0  0  0  0  0  0  0  0
  101.7218   -8.6072   -9.6361 H   0  0  0  0  0  0  0  0  0  0  0  0
  100.7609   -7.0896   -9.6361 H   0  0  0  0  0  0  0  0  0  0  0  0
  7 10  1  0
  9 10  1  0
  6 11  1  0
  9 11  1  0
  6 12  1  0
 10 12  1  0
  9 13  1  0
  8 14  1  0
 13 15  1  0
 14 16  1  0
 14 17  1  0
 16 17  1  0
  7 18  1  0
 15 18  1  0
  6 19  1  0
  8 20  1  0
  2 21  1  0
 19 21  2  0
 20 21  1  0
 20 22  2  0
  1 23  1  0
 19 23  1  0
  8 24  1  0
 22 25  1  0
 23 25  2  0
 24 26  2  0
 22 27  1  0
 26 27  1  0
 27  3  2  0
  4 28  1  0
 26 28  1  0
 28  5  2  0
  2 29  1  0
  4 30  1  0
  7 31  1  0
  9 32  1  1
 10 33  1  6
 11 34  1  0
 11 35  1  0
 12 36  1  0
 12 37  1  0
 13 38  1  0
 13 39  1  0
 14 40  1  0
 15 41  1  0
 15 42  1  0
 16 43  1  0
 16 44  1  0
 17 45  1  0
 17 46  1  0
 18 47  1  0
 18 48  1  0
 24 49  1  0
 25 50  1  0
 29 51  1  0
 29 52  1  0
 29 53  1  0
M  END
$$$$
