PDB_DB00207_98
     RDKit          3D

124126  0  0  0  0  0  0  0  0999 V2000
  195.2110 -105.0370 -143.9210 C   0  0  0  0  0  0  0  0  0  0  0  0
  194.0440 -105.8090 -143.3080 C   0  0  1  0  0  0  0  0  0  0  0  0
  192.7240 -105.0070 -143.6150 C   0  0  2  0  0  0  0  0  0  0  0  0
  192.0460 -104.5700 -142.2560 C   0  0  1  0  0  0  0  0  0  0  0  0
  191.0870 -103.3320 -142.5210 C   0  0  2  0  0  0  0  0  0  0  0  0
  191.7360 -101.8810 -142.3580 C   0  0  2  0  0  0  0  0  0  0  0  0
  192.0430 -101.5340 -140.8900 C   0  0  0  0  0  0  0  0  0  0  0  0
  192.6310 -100.1700 -140.4900 C   0  0  2  0  0  0  0  0  0  0  0  0
  194.1490 -100.0530 -140.5440 C   0  0  0  0  0  0  0  0  0  0  0  0
  194.7430 -100.2540 -141.8930 N   0  0  0  0  0  0  0  0  0  0  0  0
  196.1320 -100.7320 -141.6880 C   0  0  1  0  0  0  0  0  0  0  0  0
  196.3060 -101.9590 -142.6410 C   0  0  2  0  0  0  0  0  0  0  0  0
  197.5640 -102.9190 -142.3520 C   0  0  2  0  0  0  0  0  0  0  0  0
  197.4710 -104.1470 -143.3800 C   0  0  1  0  0  0  0  0  0  0  0  0
  198.6560 -105.1700 -143.2470 C   0  0  0  0  0  0  0  0  0  0  0  0
  198.5830 -106.3190 -144.2270 C   0  0  0  0  0  0  0  0  0  0  0  0
  194.0920 -107.2690 -143.8510 C   0  0  0  0  0  0  0  0  0  0  0  0
  191.3570 -105.7640 -141.5540 C   0  0  0  0  0  0  0  0  0  0  0  0
  190.8160 -100.8010 -142.9940 C   0  0  0  0  0  0  0  0  0  0  0  0
  192.2540  -99.9230 -139.0310 C   0  0  0  0  0  0  0  0  0  0  0  0
  194.5690  -99.0290 -142.7400 C   0  0  0  0  0  0  0  0  0  0  0  0
  197.2630  -99.6330 -141.8260 C   0  0  0  0  0  0  0  0  0  0  0  0
  197.6790 -103.3410 -140.8830 C   0  0  0  0  0  0  0  0  0  0  0  0
  195.2560 -104.6400 -145.0710 O   0  0  0  0  0  0  0  0  0  0  0  0
  192.9310 -101.9250 -143.2230 O   0  0  0  0  0  0  0  0  0  0  0  0
  196.4310 -101.4660 -144.0040 O   0  0  0  0  0  0  0  0  0  0  0  0
  198.8220 -102.2140 -142.7000 O   0  0  0  0  0  0  0  0  0  0  0  0
  196.2160 -104.8550 -143.0170 O   0  0  0  0  0  0  0  0  0  0  0  0
  188.6560 -103.6120 -142.1690 C   0  0  2  0  0  0  0  0  0  0  0  0
  187.6800 -103.9190 -141.0070 C   0  0  1  0  0  0  0  0  0  0  0  0
  186.2680 -104.2010 -141.5850 C   0  0  2  0  0  0  0  0  0  0  0  0
  185.8590 -102.9500 -142.4100 C   0  0  0  0  0  0  0  0  0  0  0  0
  186.8660 -102.6670 -143.5490 C   0  0  1  0  0  0  0  0  0  0  0  0
  186.4950 -101.4460 -144.3400 C   0  0  0  0  0  0  0  0  0  0  0  0
  184.0830 -105.0610 -140.9670 C   0  0  0  0  0  0  0  0  0  0  0  0
  185.0850 -103.4630 -139.4930 C   0  0  0  0  0  0  0  0  0  0  0  0
  189.9210 -103.3260 -141.6310 O   0  0  0  0  0  0  0  0  0  0  0  0
  188.1260 -105.0170 -140.2510 O   0  0  0  0  0  0  0  0  0  0  0  0
  185.3500 -104.5770 -140.4410 N   0  0  0  0  0  0  0  0  0  0  0  0
  188.1830 -102.4660 -142.9470 O   0  0  0  0  0  0  0  0  0  0  0  0
  191.7850 -105.5390 -145.7950 C   0  0  2  0  0  0  0  0  0  0  0  0
  191.3640 -106.7780 -146.5140 C   0  0  0  0  0  0  0  0  0  0  0  0
  189.8610 -107.1810 -146.4000 C   0  0  1  0  0  0  0  0  0  0  0  0
  189.0880 -105.9480 -146.9090 C   0  0  2  0  0  0  0  0  0  0  0  0
  189.4750 -104.6780 -146.1050 C   0  0  2  0  0  0  0  0  0  0  0  0
  188.8050 -103.4000 -146.5680 C   0  0  0  0  0  0  0  0  0  0  0  0
  189.5170 -108.4640 -147.1970 C   0  0  0  0  0  0  0  0  0  0  0  0
  189.9750 -108.4590 -144.2720 C   0  0  0  0  0  0  0  0  0  0  0  0
  191.7520 -105.7750 -144.3880 O   0  0  0  0  0  0  0  0  0  0  0  0
  189.4190 -107.3700 -145.0050 O   0  0  0  0  0  0  0  0  0  0  0  0
  187.6540 -106.1500 -146.8400 O   0  0  0  0  0  0  0  0  0  0  0  0
  190.8990 -104.4530 -146.1790 O   0  0  0  0  0  0  0  0  0  0  0  0
  194.0944 -105.8992 -142.2129 H   0  0  0  0  0  0  0  0  0  0  0  0
  193.0185 -104.1357 -144.2184 H   0  0  0  0  0  0  0  0  0  0  0  0
  192.8159 -104.2362 -141.5447 H   0  0  0  0  0  0  0  0  0  0  0  0
  190.8274 -103.4922 -143.5779 H   0  0  0  0  0  0  0  0  0  0  0  0
  191.0941 -101.6347 -140.3429 H   0  0  0  0  0  0  0  0  0  0  0  0
  192.8662 -102.2238 -140.6524 H   0  0  0  0  0  0  0  0  0  0  0  0
  192.2251  -99.4536 -141.2194 H   0  0  0  0  0  0  0  0  0  0  0  0
  194.4273  -99.0480 -140.1939 H   0  0  0  0  0  0  0  0  0  0  0  0
  194.5443 -100.8592 -139.9085 H   0  0  0  0  0  0  0  0  0  0  0  0
  196.2715 -101.0237 -140.6366 H   0  0  0  0  0  0  0  0  0  0  0  0
  195.4147 -102.5797 -142.4671 H   0  0  0  0  0  0  0  0  0  0  0  0
  197.5054 -103.7624 -144.4100 H   0  0  0  0  0  0  0  0  0  0  0  0
  199.6001 -104.6308 -143.4144 H   0  0  0  0  0  0  0  0  0  0  0  0
  198.5925 -105.6045 -142.2385 H   0  0  0  0  0  0  0  0  0  0  0  0
  198.5227 -107.2685 -143.6749 H   0  0  0  0  0  0  0  0  0  0  0  0
  197.6903 -106.2053 -144.8595 H   0  0  0  0  0  0  0  0  0  0  0  0
  199.4829 -106.3192 -144.8595 H   0  0  0  0  0  0  0  0  0  0  0  0
  194.1152 -107.9737 -143.0066 H   0  0  0  0  0  0  0  0  0  0  0  0
  193.1997 -107.4614 -144.4648 H   0  0  0  0  0  0  0  0  0  0  0  0
  194.9950 -107.4024 -144.4648 H   0  0  0  0  0  0  0  0  0  0  0  0
  191.4289 -105.6394 -140.4635 H   0  0  0  0  0  0  0  0  0  0  0  0
  190.2982 -105.8019 -141.8497 H   0  0  0  0  0  0  0  0  0  0  0  0
  191.8540 -106.6997 -141.8497 H   0  0  0  0  0  0  0  0  0  0  0  0
  190.3239 -100.2234 -142.1976 H   0  0  0  0  0  0  0  0  0  0  0  0
  191.4203 -100.1254 -143.6172 H   0  0  0  0  0  0  0  0  0  0  0  0
  190.0529 -101.2902 -143.6172 H   0  0  0  0  0  0  0  0  0  0  0  0
  192.9923 -100.4067 -138.3746 H   0  0  0  0  0  0  0  0  0  0  0  0
  192.2413  -98.8409 -138.8337 H   0  0  0  0  0  0  0  0  0  0  0  0
  191.2568 -100.3434 -138.8337 H   0  0  0  0  0  0  0  0  0  0  0  0
  194.4441  -98.1494 -142.0913 H   0  0  0  0  0  0  0  0  0  0  0  0
  195.4569  -98.8931 -143.3750 H   0  0  0  0  0  0  0  0  0  0  0  0
  193.6784  -99.1458 -143.3750 H   0  0  0  0  0  0  0  0  0  0  0  0
  197.5898  -99.3154 -140.8248 H   0  0  0  0  0  0  0  0  0  0  0  0
  198.1185 -100.0541 -142.3745 H   0  0  0  0  0  0  0  0  0  0  0  0
  196.8666  -98.7658 -142.3745 H   0  0  0  0  0  0  0  0  0  0  0  0
  197.4452 -102.4830 -140.2356 H   0  0  0  0  0  0  0  0  0  0  0  0
  196.9706 -104.1576 -140.6796 H   0  0  0  0  0  0  0  0  0  0  0  0
  198.7037 -103.6853 -140.6796 H   0  0  0  0  0  0  0  0  0  0  0  0
  193.7449 -101.9550 -142.6601 H   0  0  0  0  0  0  0  0  0  0  0  0
  196.6743 -100.5065 -143.9869 H   0  0  0  0  0  0  0  0  0  0  0  0
  199.2928 -101.9501 -141.8701 H   0  0  0  0  0  0  0  0  0  0  0  0
  188.7143 -104.4849 -142.8358 H   0  0  0  0  0  0  0  0  0  0  0  0
  187.6371 -103.0462 -140.3389 H   0  0  0  0  0  0  0  0  0  0  0  0
  186.2211 -105.0558 -142.2757 H   0  0  0  0  0  0  0  0  0  0  0  0
  184.8639 -103.1199 -142.8469 H   0  0  0  0  0  0  0  0  0  0  0  0
  185.8480 -102.0809 -141.7358 H   0  0  0  0  0  0  0  0  0  0  0  0
  186.8631 -103.5220 -144.2411 H   0  0  0  0  0  0  0  0  0  0  0  0
  186.2455 -100.6250 -143.6517 H   0  0  0  0  0  0  0  0  0  0  0  0
  187.3432 -101.1481 -144.9739 H   0  0  0  0  0  0  0  0  0  0  0  0
  185.6245 -101.6703 -144.9739 H   0  0  0  0  0  0  0  0  0  0  0  0
  183.4134 -105.3168 -140.1327 H   0  0  0  0  0  0  0  0  0  0  0  0
  183.6183 -104.2771 -141.5830 H   0  0  0  0  0  0  0  0  0  0  0  0
  184.2593 -105.9551 -141.5830 H   0  0  0  0  0  0  0  0  0  0  0  0
  185.1727 -103.8316 -138.4603 H   0  0  0  0  0  0  0  0  0  0  0  0
  185.8169 -102.6587 -139.6586 H   0  0  0  0  0  0  0  0  0  0  0  0
  184.0693 -103.0744 -139.6586 H   0  0  0  0  0  0  0  0  0  0  0  0
  188.0418 -104.8097 -139.2866 H   0  0  0  0  0  0  0  0  0  0  0  0
  192.8142 -105.2601 -146.0652 H   0  0  0  0  0  0  0  0  0  0  0  0
  191.5907 -106.6369 -147.5811 H   0  0  0  0  0  0  0  0  0  0  0  0
  191.9187 -107.5948 -146.0291 H   0  0  0  0  0  0  0  0  0  0  0  0
  189.3685 -105.8058 -147.9631 H   0  0  0  0  0  0  0  0  0  0  0  0
  189.1301 -104.8896 -145.0821 H   0  0  0  0  0  0  0  0  0  0  0  0
  188.4958 -102.8102 -145.6925 H   0  0  0  0  0  0  0  0  0  0  0  0
  189.5119 -102.8141 -147.1738 H   0  0  0  0  0  0  0  0  0  0  0  0
  187.9210 -103.6481 -147.1738 H   0  0  0  0  0  0  0  0  0  0  0  0
  189.2974 -109.2831 -146.4964 H   0  0  0  0  0  0  0  0  0  0  0  0
  188.6372 -108.2774 -147.8303 H   0  0  0  0  0  0  0  0  0  0  0  0
  190.3722 -108.7426 -147.8303 H   0  0  0  0  0  0  0  0  0  0  0  0
  189.8755 -108.2642 -143.1940 H   0  0  0  0  0  0  0  0  0  0  0  0
  189.4393 -109.3850 -144.5282 H   0  0  0  0  0  0  0  0  0  0  0  0
  191.0392 -108.5681 -144.5282 H   0  0  0  0  0  0  0  0  0  0  0  0
  187.3716 -106.1898 -145.8920 H   0  0  0  0  0  0  0  0  0  0  0  0
  2  1  1  0
  3  2  1  0
  4  3  1  0
  5  4  1  0
  6  5  1  0
  7  6  1  0
  8  7  1  0
  9  8  1  0
 10  9  1  0
 11 10  1  0
 12 11  1  0
 13 12  1  0
 14 13  1  0
 15 14  1  0
 16 15  1  0
 17  2  1  0
 18  4  1  0
 19  6  1  0
 20  8  1  0
 21 10  1  0
 22 11  1  0
 23 13  1  0
 24  1  2  0
  6 25  1  6
 26 12  1  0
 13 27  1  6
 28  1  1  0
 28 14  1  0
 30 29  1  0
 31 30  1  0
 32 31  1  0
 33 32  1  0
 34 33  1  0
 37 29  1  0
 37  5  1  0
 38 30  1  0
 39 35  1  0
 39 36  1  0
 39 31  1  0
 40 29  1  0
 40 33  1  0
 42 41  1  0
 43 42  1  0
 44 43  1  0
 45 44  1  0
 46 45  1  0
 47 43  1  0
 49 41  1  0
 49  3  1  0
 50 48  1  0
 43 50  1  1
 51 44  1  0
 52 45  1  0
 52 41  1  0
  2 53  1  1
  3 54  1  6
  4 55  1  1
  5 56  1  6
  7 57  1  0
  7 58  1  0
  8 59  1  6
  9 60  1  0
  9 61  1  0
 11 62  1  1
 12 63  1  6
 14 64  1  6
 15 65  1  0
 15 66  1  0
 16 67  1  0
 16 68  1  0
 16 69  1  0
 17 70  1  0
 17 71  1  0
 17 72  1  0
 18 73  1  0
 18 74  1  0
 18 75  1  0
 19 76  1  0
 19 77  1  0
 19 78  1  0
 20 79  1  0
 20 80  1  0
 20 81  1  0
 21 82  1  0
 21 83  1  0
 21 84  1  0
 22 85  1  0
 22 86  1  0
 22 87  1  0
 23 88  1  0
 23 89  1  0
 23 90  1  0
 25 91  1  0
 26 92  1  0
 27 93  1  0
 29 94  1  6
 30 95  1  1
 31 96  1  6
 32 97  1  0
 32 98  1  0
 33 99  1  6
 34100  1  0
 34101  1  0
 34102  1  0
 35103  1  0
 35104  1  0
 35105  1  0
 36106  1  0
 36107  1  0
 36108  1  0
 38109  1  0
 41110  1  6
 42111  1  0
 42112  1  0
 44113  1  6
 45114  1  1
 46115  1  0
 46116  1  0
 46117  1  0
 47118  1  0
 47119  1  0
 47120  1  0
 48121  1  0
 48122  1  0
 48123  1  0
 51124  1  0
M  END
$$$$
