PDB_DB00642_96
     RDKit          3D

 52 54  0  0  0  0  0  0  0  0999 V2000
   46.4160   62.0280   53.6840 C   0  0  0  0  0  0  0  0  0  0  0  0
   45.8350   63.0240   52.8570 C   0  0  0  0  0  0  0  0  0  0  0  0
   44.9350   63.9850   53.4030 C   0  0  0  0  0  0  0  0  0  0  0  0
   44.5870   63.9790   54.7930 C   0  0  0  0  0  0  0  0  0  0  0  0
   45.1890   62.9610   55.6060 C   0  0  0  0  0  0  0  0  0  0  0  0
   46.0880   62.0040   55.0620 C   0  0  0  0  0  0  0  0  0  0  0  0
   47.3960   60.9890   53.0870 C   0  0  0  0  0  0  0  0  0  0  0  0
   46.7440   59.6430   52.6190 C   0  0  0  0  0  0  0  0  0  0  0  0
   46.3950   58.7170   53.7860 C   0  0  0  0  0  0  0  0  0  0  0  0
   47.2970   58.1620   54.6910 C   0  0  0  0  0  0  0  0  0  0  0  0
   46.6330   57.3730   55.6350 N   0  0  0  0  0  0  0  0  0  0  0  0
   45.2990   57.4300   55.3220 C   0  0  0  0  0  0  0  0  0  0  0  0
   45.1580   58.2570   54.1770 C   0  0  0  0  0  0  0  0  0  0  0  0
   43.7260   58.4940   53.6000 C   0  0  0  0  0  0  0  0  0  0  0  0
   43.4800   59.1770   52.6280 O   0  0  0  0  0  0  0  0  0  0  0  0
   42.7050   57.8760   54.2570 N   0  0  0  0  0  0  0  0  0  0  0  0
   42.9210   57.0400   55.4350 C   0  0  0  0  0  0  0  0  0  0  0  0
   44.1150   56.8430   55.9100 N   0  0  0  0  0  0  0  0  0  0  0  0
   41.8460   56.4500   56.0520 N   0  0  0  0  0  0  0  0  0  0  0  0
   43.6240   64.9850   55.4620 C   0  0  0  0  0  0  0  0  0  0  0  0
   43.3800   64.9130   56.6740 O   0  0  0  0  0  0  0  0  0  0  0  0
   43.0550   65.9570   54.7000 N   0  0  0  0  0  0  0  0  0  0  0  0
   42.1270   67.0140   55.1780 C   0  0  1  0  0  0  0  0  0  0  0  0
   42.8570   68.3560   55.4880 C   0  0  0  0  0  0  0  0  0  0  0  0
   44.0000   68.2150   56.5420 C   0  0  0  0  0  0  0  0  0  0  0  0
   44.8330   69.4290   56.9500 C   0  0  0  0  0  0  0  0  0  0  0  0
   45.6580   69.2990   57.8750 O   0  0  0  0  0  0  0  0  0  0  0  0
   44.6950   70.5120   56.3450 O   0  0  0  0  0  0  0  0  0  0  0  0
   40.9450   67.1080   54.1570 C   0  0  0  0  0  0  0  0  0  0  0  0
   39.8430   67.6140   54.4690 O   0  0  0  0  0  0  0  0  0  0  0  0
   41.1290   66.6430   53.0080 O   0  0  0  0  0  0  0  0  0  0  0  0
   46.0813   63.0547   51.7854 H   0  0  0  0  0  0  0  0  0  0  0  0
   44.4978   64.7483   52.7425 H   0  0  0  0  0  0  0  0  0  0  0  0
   44.9482   62.9203   56.6786 H   0  0  0  0  0  0  0  0  0  0  0  0
   46.5324   61.2390   55.7157 H   0  0  0  0  0  0  0  0  0  0  0  0
   47.8891   61.4479   52.2173 H   0  0  0  0  0  0  0  0  0  0  0  0
   48.0894   60.7242   53.8989 H   0  0  0  0  0  0  0  0  0  0  0  0
   45.8221   59.8729   52.0647 H   0  0  0  0  0  0  0  0  0  0  0  0
   47.4787   59.1201   51.9891 H   0  0  0  0  0  0  0  0  0  0  0  0
   48.3849   58.3228   54.6662 H   0  0  0  0  0  0  0  0  0  0  0  0
   47.0616   56.8513   56.4129 H   0  0  0  0  0  0  0  0  0  0  0  0
   44.2225   56.2433   56.7405 H   0  0  0  0  0  0  0  0  0  0  0  0
   41.9898   55.8590   56.8832 H   0  0  0  0  0  0  0  0  0  0  0  0
   40.8956   56.5983   55.6837 H   0  0  0  0  0  0  0  0  0  0  0  0
   43.2895   65.9607   53.6971 H   0  0  0  0  0  0  0  0  0  0  0  0
   41.7008   66.7495   56.1570 H   0  0  0  0  0  0  0  0  0  0  0  0
   43.2911   68.7401   54.5531 H   0  0  0  0  0  0  0  0  0  0  0  0
   42.1082   69.0406   55.9129 H   0  0  0  0  0  0  0  0  0  0  0  0
   43.5352   67.8285   57.4610 H   0  0  0  0  0  0  0  0  0  0  0  0
   44.7320   67.5741   56.0287 H   0  0  0  0  0  0  0  0  0  0  0  0
   46.2099   70.0706   58.1581 H   0  0  0  0  0  0  0  0  0  0  0  0
   39.1129   67.6600   53.8020 H   0  0  0  0  0  0  0  0  0  0  0  0
  1  2  2  0
  2  3  1  0
  3  4  2  0
  4  5  1  0
  1  6  1  0
  5  6  2  0
  1  7  1  0
  7  8  1  0
  8  9  1  0
  9 10  2  0
 10 11  1  0
 11 12  1  0
  9 13  1  0
 12 13  2  0
 13 14  1  0
 14 15  2  0
 14 16  1  0
 16 17  2  0
 12 18  1  0
 17 18  1  0
 17 19  1  0
  4 20  1  0
 20 21  2  0
 20 22  1  0
 22 23  1  0
 23 24  1  0
 24 25  1  0
 25 26  1  0
 26 27  1  0
 26 28  2  0
 23 29  1  0
 29 30  1  0
 29 31  2  0
  2 32  1  0
  3 33  1  0
  5 34  1  0
  6 35  1  0
  7 36  1  0
  7 37  1  0
  8 38  1  0
  8 39  1  0
 10 40  1  0
 11 41  1  0
 18 42  1  0
 19 43  1  0
 19 44  1  0
 22 45  1  0
 23 46  1  1
 24 47  1  0
 24 48  1  0
 25 49  1  0
 25 50  1  0
 27 51  1  0
 30 52  1  0
M  END
$$$$
