PDB_DB02546_97
     RDKit          3D

 98 98  0  0  0  0  0  0  0  0999 V2000
    4.6730  -28.2080   16.9090 O   0  0  0  0  0  0  0  0  0  0  0  0
    3.5880  -29.3710   19.0730 O   0  0  0  0  0  0  0  0  0  0  0  0
    3.8140  -29.3020   16.8510 N   0  0  0  0  0  0  0  0  0  0  0  0
    3.3220  -29.8180   17.9720 C   0  0  0  0  0  0  0  0  0  0  0  0
    2.3940  -31.0010   17.8290 C   0  0  0  0  0  0  0  0  0  0  0  0
    3.0420  -32.0840   16.9770 C   0  0  0  0  0  0  0  0  0  0  0  0
    2.1410  -33.3110   16.9200 C   0  0  0  0  0  0  0  0  0  0  0  0
    2.4190  -34.2530   18.0810 C   0  0  0  0  0  0  0  0  0  0  0  0
    3.5680  -35.1870   17.7310 C   0  0  0  0  0  0  0  0  0  0  0  0
    3.1260  -36.6430   17.7980 C   0  0  0  0  0  0  0  0  0  0  0  0
    2.8800  -37.0230   19.2400 C   0  0  0  0  0  0  0  0  0  0  0  0
    3.6750  -36.6520   20.0880 O   0  0  0  0  0  0  0  0  0  0  0  0
    1.7840  -37.7600   19.4560 N   0  0  0  0  0  0  0  0  0  0  0  0
    1.3200  -38.2560   20.6900 C   0  0  0  0  0  0  0  0  0  0  0  0
    2.0350  -38.1250   21.8790 C   0  0  0  0  0  0  0  0  0  0  0  0
    1.5310  -38.6390   23.0690 C   0  0  0  0  0  0  0  0  0  0  0  0
    0.3060  -39.2940   23.0810 C   0  0  0  0  0  0  0  0  0  0  0  0
   -0.4130  -39.4310   21.9000 C   0  0  0  0  0  0  0  0  0  0  0  0
    0.0940  -38.9160   20.7120 C   0  0  0  0  0  0  0  0  0  0  0  0
    1.6310  -45.5110   31.2350 O   0  0  0  0  0  0  0  0  0  0  0  0
    0.9550  -44.3740   28.8720 O   0  0  0  0  0  0  0  0  0  0  0  0
    0.8360  -44.3760   31.1100 N   0  0  0  0  0  0  0  0  0  0  0  0
    0.5500  -43.8810   29.9120 C   0  0  0  0  0  0  0  0  0  0  0  0
   -0.3200  -42.6480   29.8950 C   0  0  0  0  0  0  0  0  0  0  0  0
    0.5400  -41.3960   30.0110 C   0  0  0  0  0  0  0  0  0  0  0  0
   -0.3550  -40.1880   30.2580 C   0  0  0  0  0  0  0  0  0  0  0  0
    0.1990  -38.9180   29.6280 C   0  0  0  0  0  0  0  0  0  0  0  0
    1.4600  -38.4410   30.3310 C   0  0  0  0  0  0  0  0  0  0  0  0
    1.6870  -36.9590   30.0560 C   0  0  0  0  0  0  0  0  0  0  0  0
    1.8740  -36.7230   28.5750 C   0  0  0  0  0  0  0  0  0  0  0  0
    2.7470  -37.3370   27.9840 O   0  0  0  0  0  0  0  0  0  0  0  0
    1.0440  -35.8220   28.0360 N   0  0  0  0  0  0  0  0  0  0  0  0
    0.9980  -35.3970   26.6930 C   0  0  0  0  0  0  0  0  0  0  0  0
    1.8330  -35.9080   25.7020 C   0  0  0  0  0  0  0  0  0  0  0  0
    1.7430  -35.4460   24.3930 C   0  0  0  0  0  0  0  0  0  0  0  0
    0.8170  -34.4650   24.0630 C   0  0  0  0  0  0  0  0  0  0  0  0
   -0.0180  -33.9480   25.0450 C   0  0  0  0  0  0  0  0  0  0  0  0
    0.0740  -34.4130   26.3520 C   0  0  0  0  0  0  0  0  0  0  0  0
    4.8526  -27.9793   17.8553 H   0  0  0  0  0  0  0  0  0  0  0  0
    3.2285  -29.9751   19.7701 H   0  0  0  0  0  0  0  0  0  0  0  0
    3.0085  -29.0179   16.2754 H   0  0  0  0  0  0  0  0  0  0  0  0
    4.1854  -30.4962   18.0388 H   0  0  0  0  0  0  0  0  0  0  0  0
    2.1708  -31.4091   18.8258 H   0  0  0  0  0  0  0  0  0  0  0  0
    1.4662  -30.6696   17.3398 H   0  0  0  0  0  0  0  0  0  0  0  0
    3.1997  -31.7003   15.9582 H   0  0  0  0  0  0  0  0  0  0  0  0
    4.0072  -32.3653   17.4234 H   0  0  0  0  0  0  0  0  0  0  0  0
    1.0907  -32.9871   16.9646 H   0  0  0  0  0  0  0  0  0  0  0  0
    2.3425  -33.8473   15.9809 H   0  0  0  0  0  0  0  0  0  0  0  0
    2.6862  -33.6647   18.9712 H   0  0  0  0  0  0  0  0  0  0  0  0
    1.5180  -34.8502   18.2846 H   0  0  0  0  0  0  0  0  0  0  0  0
    3.9162  -34.9631   16.7119 H   0  0  0  0  0  0  0  0  0  0  0  0
    4.3795  -35.0327   18.4575 H   0  0  0  0  0  0  0  0  0  0  0  0
    2.1990  -36.7728   17.2202 H   0  0  0  0  0  0  0  0  0  0  0  0
    3.9113  -37.2869   17.3754 H   0  0  0  0  0  0  0  0  0  0  0  0
    3.4631  -37.9447   19.0966 H   0  0  0  0  0  0  0  0  0  0  0  0
    3.3022  -36.8260   20.9885 H   0  0  0  0  0  0  0  0  0  0  0  0
    1.0069  -37.1912   19.0908 H   0  0  0  0  0  0  0  0  0  0  0  0
    1.8223  -39.2147   20.4935 H   0  0  0  0  0  0  0  0  0  0  0  0
    3.0093  -38.6086   21.7151 H   0  0  0  0  0  0  0  0  0  0  0  0
    2.0227  -37.0393   22.0552 H   0  0  0  0  0  0  0  0  0  0  0  0
    2.2767  -39.3541   23.4466 H   0  0  0  0  0  0  0  0  0  0  0  0
    1.3413  -37.7388   23.6720 H   0  0  0  0  0  0  0  0  0  0  0  0
    0.4909  -40.3094   23.4615 H   0  0  0  0  0  0  0  0  0  0  0  0
   -0.3296  -38.6372   23.6931 H   0  0  0  0  0  0  0  0  0  0  0  0
   -0.5596  -40.5096   21.7412 H   0  0  0  0  0  0  0  0  0  0  0  0
   -1.3093  -38.8187   22.0780 H   0  0  0  0  0  0  0  0  0  0  0  0
   -0.6536  -38.2031   20.3341 H   0  0  0  0  0  0  0  0  0  0  0  0
    0.2910  -39.8199   20.1168 H   0  0  0  0  0  0  0  0  0  0  0  0
    1.7714  -45.7115   32.1943 H   0  0  0  0  0  0  0  0  0  0  0  0
    1.5696  -45.1221   29.0788 H   0  0  0  0  0  0  0  0  0  0  0  0
   -0.0637  -44.5951   31.5609 H   0  0  0  0  0  0  0  0  0  0  0  0
    1.4469  -43.2460   29.9603 H   0  0  0  0  0  0  0  0  0  0  0  0
   -0.8848  -42.6148   28.9517 H   0  0  0  0  0  0  0  0  0  0  0  0
   -1.0144  -42.6868   30.7472 H   0  0  0  0  0  0  0  0  0  0  0  0
    1.2425  -41.5098   30.8498 H   0  0  0  0  0  0  0  0  0  0  0  0
    1.1044  -41.2504   29.0781 H   0  0  0  0  0  0  0  0  0  0  0  0
   -1.3480  -40.3905   29.8303 H   0  0  0  0  0  0  0  0  0  0  0  0
   -0.4098  -40.0274   31.3448 H   0  0  0  0  0  0  0  0  0  0  0  0
    0.4342  -39.1179   28.5722 H   0  0  0  0  0  0  0  0  0  0  0  0
   -0.5629  -38.1301   29.7217 H   0  0  0  0  0  0  0  0  0  0  0  0
    1.3533  -38.5974   31.4146 H   0  0  0  0  0  0  0  0  0  0  0  0
    2.3203  -39.0124   29.9522 H   0  0  0  0  0  0  0  0  0  0  0  0
    0.8156  -36.3871   30.4074 H   0  0  0  0  0  0  0  0  0  0  0  0
    2.5924  -36.6310   30.5877 H   0  0  0  0  0  0  0  0  0  0  0  0
    2.5894  -35.9165   28.7938 H   0  0  0  0  0  0  0  0  0  0  0  0
    3.3530  -37.7632   28.6407 H   0  0  0  0  0  0  0  0  0  0  0  0
    0.0996  -36.1842   28.2304 H   0  0  0  0  0  0  0  0  0  0  0  0
    1.7396  -34.6155   26.9149 H   0  0  0  0  0  0  0  0  0  0  0  0
    2.8652  -35.7194   26.0321 H   0  0  0  0  0  0  0  0  0  0  0  0
    1.5034  -36.9540   25.6173 H   0  0  0  0  0  0  0  0  0  0  0  0
    2.7339  -35.0487   24.1281 H   0  0  0  0  0  0  0  0  0  0  0  0
    1.3853  -36.3265   23.8392 H   0  0  0  0  0  0  0  0  0  0  0  0
    1.3836  -33.6184   23.6481 H   0  0  0  0  0  0  0  0  0  0  0  0
    0.1238  -34.9850   23.3855 H   0  0  0  0  0  0  0  0  0  0  0  0
    0.1663  -32.8641   25.0800 H   0  0  0  0  0  0  0  0  0  0  0  0
   -1.0172  -34.2814   24.7281 H   0  0  0  0  0  0  0  0  0  0  0  0
   -0.9180  -34.8088   26.6152 H   0  0  0  0  0  0  0  0  0  0  0  0
    0.4400  -33.5324   26.9003 H   0  0  0  0  0  0  0  0  0  0  0  0
  1  3  1  0
  3  4  1  0
  4  2  1  0
  4  5  1  0
  5  6  1  0
  6  7  1  0
  7  8  1  0
  8  9  1  0
  9 10  1  0
 10 11  1  0
 11 12  1  0
 11 13  1  0
 13 14  1  0
 14 15  1  0
 15 16  1  0
 16 17  1  0
 17 18  1  0
 14 19  1  0
 18 19  1  0
 20 22  1  0
 22 23  1  0
 23 21  1  0
 23 24  1  0
 24 25  1  0
 25 26  1  0
 26 27  1  0
 27 28  1  0
 28 29  1  0
 29 30  1  0
 30 31  1  0
 30 32  1  0
 32 33  1  0
 33 34  1  0
 34 35  1  0
 35 36  1  0
 36 37  1  0
 33 38  1  0
 37 38  1  0
  1 39  1  0
  2 40  1  0
  3 41  1  0
  4 42  1  0
  5 43  1  0
  5 44  1  0
  6 45  1  0
  6 46  1  0
  7 47  1  0
  7 48  1  0
  8 49  1  0
  8 50  1  0
  9 51  1  0
  9 52  1  0
 10 53  1  0
 10 54  1  0
 11 55  1  0
 12 56  1  0
 13 57  1  0
 14 58  1  0
 15 59  1  0
 15 60  1  0
 16 61  1  0
 16 62  1  0
 17 63  1  0
 17 64  1  0
 18 65  1  0
 18 66  1  0
 19 67  1  0
 19 68  1  0
 20 69  1  0
 21 70  1  0
 22 71  1  0
 23 72  1  0
 24 73  1  0
 24 74  1  0
 25 75  1  0
 25 76  1  0
 26 77  1  0
 26 78  1  0
 27 79  1  0
 27 80  1  0
 28 81  1  0
 28 82  1  0
 29 83  1  0
 29 84  1  0
 30 85  1  0
 31 86  1  0
 32 87  1  0
 33 88  1  0
 34 89  1  0
 34 90  1  0
 35 91  1  0
 35 92  1  0
 36 93  1  0
 36 94  1  0
 37 95  1  0
 37 96  1  0
 38 97  1  0
 38 98  1  0
M  END
>  <PDBID>  (1) 
4QA2

>  <PDB ID>  (1) 
4QA2

>  <Generic Name>  (1) 
Vorinostat

>  <Brand Name>  (1) 
Zolinza

>  <DrugBank ID>  (1) 
DB02546

>  <ATC Codes>  (1) 
L01XX38

>  <Ligand ID>  (1) 
SHH

>  <Target Name>  (1) 
Histone deacetylase 1

>  <UniProt ID>  (1) 
Q13547

>  <PDB ID.1>  (1) 
4QA2

>  <Seq. Identity>  (1) 
43%

$$$$
