PDB_DB00932_99
     RDKit          3D

 75 78  0  0  0  0  0  0  0  0999 V2000
   13.6940   22.0290   16.5860 O   0  0  0  0  0  0  0  0  0  0  0  0
   12.4450   21.3450   16.8100 C   0  0  0  0  0  0  0  0  0  0  0  0
   12.4600   20.0390   17.4770 C   0  0  0  0  0  0  0  0  0  0  0  0
   13.6860   19.5000   17.7840 C   0  0  0  0  0  0  0  0  0  0  0  0
   15.0150   20.1740   17.4840 C   0  0  0  0  0  0  0  0  0  0  0  0
   14.9040   21.6890   17.2540 C   0  0  2  0  0  0  0  0  0  0  0  0
   11.4360   21.8930   16.4140 O   0  0  0  0  0  0  0  0  0  0  0  0
   13.8160   18.3200   18.3550 O   0  0  0  0  0  0  0  0  0  0  0  0
   14.8370   22.2820   18.6830 C   0  0  0  0  0  0  0  0  0  0  0  0
   15.2090   23.7360   18.8770 C   0  0  0  0  0  0  0  0  0  0  0  0
   15.1790   24.0350   20.3650 C   0  0  0  0  0  0  0  0  0  0  0  0
   16.0530   22.2100   16.3850 C   0  0  0  0  0  0  0  0  0  0  0  0
   16.0850   21.7480   14.9010 C   0  0  0  0  0  0  0  0  0  0  0  0
   17.2110   22.5020   14.1730 C   0  0  0  0  0  0  0  0  0  0  0  0
   16.9200   23.6110   13.3770 C   0  0  0  0  0  0  0  0  0  0  0  0
   17.9730   24.2740   12.7280 C   0  0  0  0  0  0  0  0  0  0  0  0
   19.3070   23.8590   12.8950 C   0  0  0  0  0  0  0  0  0  0  0  0
   19.6000   22.7600   13.6920 C   0  0  0  0  0  0  0  0  0  0  0  0
   18.5490   22.0790   14.2970 C   0  0  0  0  0  0  0  0  0  0  0  0
   11.0990   19.3940   17.7140 C   0  0  2  0  0  0  0  0  0  0  0  0
   10.8720   18.7230   19.0910 C   0  0  0  0  0  0  0  0  0  0  0  0
   11.0610   19.6620   20.2900 C   0  0  0  0  0  0  0  0  0  0  0  0
   10.7490   18.4410   16.6240 C   0  0  0  0  0  0  0  0  0  0  0  0
   11.6810   17.8550   15.7750 C   0  0  0  0  0  0  0  0  0  0  0  0
   11.2710   16.9740   14.7660 C   0  0  0  0  0  0  0  0  0  0  0  0
    9.9140   16.6820   14.6130 C   0  0  0  0  0  0  0  0  0  0  0  0
    8.9630   17.2540   15.4560 C   0  0  0  0  0  0  0  0  0  0  0  0
    7.6170   16.9830   15.3240 N   0  0  0  0  0  0  0  0  0  0  0  0
    9.3950   18.1330   16.4430 C   0  0  0  0  0  0  0  0  0  0  0  0
    7.0060   15.6130   15.8950 S   0  0  0  0  0  0  0  0  0  0  0  0
    7.8350   14.5030   15.4400 O   0  0  0  0  0  0  0  0  0  0  0  0
    5.6300   15.4630   15.4740 O   0  0  0  0  0  0  0  0  0  0  0  0
    7.1150   15.8600   17.4940 C   0  0  0  0  0  0  0  0  0  0  0  0
    8.1990   15.4390   18.2020 N   0  0  0  0  0  0  0  0  0  0  0  0
    8.3130   15.7160   19.5290 C   0  0  0  0  0  0  0  0  0  0  0  0
    7.3350   16.4380   20.2360 C   0  0  0  0  0  0  0  0  0  0  0  0
    6.2270   16.9090   19.5160 C   0  0  0  0  0  0  0  0  0  0  0  0
    6.1380   16.6190   18.1520 C   0  0  0  0  0  0  0  0  0  0  0  0
    7.4870   16.7890   21.7000 C   0  0  0  0  0  0  0  0  0  0  0  0
    7.9660   15.8230   22.4870 F   0  0  0  0  0  0  0  0  0  0  0  0
    6.3480   17.2330   22.1870 F   0  0  0  0  0  0  0  0  0  0  0  0
    8.3380   17.8100   21.7340 F   0  0  0  0  0  0  0  0  0  0  0  0
   15.6913   20.0009   18.3341 H   0  0  0  0  0  0  0  0  0  0  0  0
   15.3930   19.7349   16.5490 H   0  0  0  0  0  0  0  0  0  0  0  0
   14.7175   17.9661   18.5604 H   0  0  0  0  0  0  0  0  0  0  0  0
   13.8026   22.1609   19.0372 H   0  0  0  0  0  0  0  0  0  0  0  0
   15.6067   21.7291   19.2415 H   0  0  0  0  0  0  0  0  0  0  0  0
   16.2184   23.9189   18.4800 H   0  0  0  0  0  0  0  0  0  0  0  0
   14.5000   24.3857   18.3430 H   0  0  0  0  0  0  0  0  0  0  0  0
   15.2732   23.0957   20.9297 H   0  0  0  0  0  0  0  0  0  0  0  0
   16.0147   24.7026   20.6218 H   0  0  0  0  0  0  0  0  0  0  0  0
   14.2274   24.5233   20.6218 H   0  0  0  0  0  0  0  0  0  0  0  0
   15.9994   23.3087   16.3888 H   0  0  0  0  0  0  0  0  0  0  0  0
   16.9636   21.7870   16.8342 H   0  0  0  0  0  0  0  0  0  0  0  0
   16.2744   20.6654   14.8545 H   0  0  0  0  0  0  0  0  0  0  0  0
   15.1190   21.9632   14.4209 H   0  0  0  0  0  0  0  0  0  0  0  0
   15.8832   23.9593   13.2604 H   0  0  0  0  0  0  0  0  0  0  0  0
   17.7516   25.1330   12.0775 H   0  0  0  0  0  0  0  0  0  0  0  0
   20.1191   24.4058   12.3935 H   0  0  0  0  0  0  0  0  0  0  0  0
   20.6403   22.4353   13.8415 H   0  0  0  0  0  0  0  0  0  0  0  0
   18.7698   21.1805   14.8919 H   0  0  0  0  0  0  0  0  0  0  0  0
   10.4191   20.2587   17.7113 H   0  0  0  0  0  0  0  0  0  0  0  0
    9.8442   18.3319   19.1184 H   0  0  0  0  0  0  0  0  0  0  0  0
   11.6324   17.9339   19.1860 H   0  0  0  0  0  0  0  0  0  0  0  0
   10.9463   19.0920   21.2238 H   0  0  0  0  0  0  0  0  0  0  0  0
   12.0666   20.1063   20.2528 H   0  0  0  0  0  0  0  0  0  0  0  0
   10.3056   20.4608   20.2528 H   0  0  0  0  0  0  0  0  0  0  0  0
   12.7498   18.0852   15.8966 H   0  0  0  0  0  0  0  0  0  0  0  0
   12.0141   16.5146   14.0977 H   0  0  0  0  0  0  0  0  0  0  0  0
    9.5922   15.9929   13.8183 H   0  0  0  0  0  0  0  0  0  0  0  0
    7.0008   17.6633   14.8566 H   0  0  0  0  0  0  0  0  0  0  0  0
    8.6495   18.6013   17.1025 H   0  0  0  0  0  0  0  0  0  0  0  0
    9.2035   15.3620   20.0692 H   0  0  0  0  0  0  0  0  0  0  0  0
    5.4425   17.4959   20.0161 H   0  0  0  0  0  0  0  0  0  0  0  0
    5.2780   16.9966   17.5795 H   0  0  0  0  0  0  0  0  0  0  0  0
  1  2  1  0
  2  3  1  0
  3  4  2  0
  4  5  1  0
  1  6  1  0
  5  6  1  0
  2  7  2  0
  4  8  1  0
  6  9  1  1
  9 10  1  0
 10 11  1  0
  6 12  1  0
 12 13  1  0
 13 14  1  0
 14 15  2  0
 15 16  1  0
 16 17  2  0
 17 18  1  0
 14 19  1  0
 18 19  2  0
  3 20  1  0
 20 21  1  0
 21 22  1  0
 20 23  1  0
 23 24  2  0
 24 25  1  0
 25 26  2  0
 26 27  1  0
 27 28  1  0
 23 29  1  0
 27 29  2  0
 28 30  1  0
 30 31  2  0
 30 32  2  0
 30 33  1  0
 33 34  2  0
 34 35  1  0
 35 36  2  0
 36 37  1  0
 33 38  1  0
 37 38  2  0
 36 39  1  0
 39 40  1  0
 39 41  1  0
 39 42  1  0
  5 43  1  0
  5 44  1  0
  8 45  1  0
  9 46  1  0
  9 47  1  0
 10 48  1  0
 10 49  1  0
 11 50  1  0
 11 51  1  0
 11 52  1  0
 12 53  1  0
 12 54  1  0
 13 55  1  0
 13 56  1  0
 15 57  1  0
 16 58  1  0
 17 59  1  0
 18 60  1  0
 19 61  1  0
 20 62  1  1
 21 63  1  0
 21 64  1  0
 22 65  1  0
 22 66  1  0
 22 67  1  0
 24 68  1  0
 25 69  1  0
 26 70  1  0
 28 71  1  0
 29 72  1  0
 35 73  1  0
 37 74  1  0
 38 75  1  0
M  END
>  <PDBID>  (1) 
2O4P

>  <PDB ID>  (1) 
2O4P

>  <Generic Name>  (1) 
Tipranavir

>  <Brand Name>  (1) 
Aptivus

>  <DrugBank ID>  (1) 
DB00932

>  <ATC Codes>  (1) 
J05AE09

>  <Ligand ID>  (1) 
TPV

>  <Target Name>  (1) 
Pol polyprotein

>  <UniProt ID>  (1) 
Q72874

>  <PDB ID.1>  (1) 
2O4P

>  <Seq. Identity>  (1) 
98%

$$$$
