PDB_DB00819_86
     RDKit          3D

 27 27  0  0  0  0  0  0  0  0999 V2000
   67.8850   37.2270    2.7800 C   0  0  0  0  0  0  0  0  0  0  0  0
   67.5850   37.0520    0.4730 C   0  0  0  0  0  0  0  0  0  0  0  0
   66.1600   36.0660   -1.2050 C   0  0  0  0  0  0  0  0  0  0  0  0
   65.9440   35.9590   -2.6780 C   0  0  0  0  0  0  0  0  0  0  0  0
   69.2650   36.9960    5.1320 N   0  0  0  0  0  0  0  0  0  0  0  0
   68.6130   37.8030    0.7830 N   0  0  0  0  0  0  0  0  0  0  0  0
   68.7810   37.8990    2.1400 N   0  0  0  0  0  0  0  0  0  0  0  0
   67.2370   36.8430   -0.8250 N   0  0  0  0  0  0  0  0  0  0  0  0
   67.3430   38.5080    4.8250 O   0  0  0  0  0  0  0  0  0  0  0  0
   66.9630   36.1000    4.9280 O   0  0  0  0  0  0  0  0  0  0  0  0
   65.4650   35.5260   -0.3740 O   0  0  0  0  0  0  0  0  0  0  0  0
   67.8190   37.1840    4.5540 S   0  0  0  0  0  4  0  0  0  0  0  0
   66.7240   36.3870    1.8190 S   0  0  0  0  0  0  0  0  0  0  0  0
   68.5465   36.3481    2.7833 H   0  0  0  0  0  0  0  0  0  0  0  0
   66.9298   37.9350    0.5065 H   0  0  0  0  0  0  0  0  0  0  0  0
   66.8105   35.1795   -1.2360 H   0  0  0  0  0  0  0  0  0  0  0  0
   64.9738   35.4784   -2.8724 H   0  0  0  0  0  0  0  0  0  0  0  0
   65.9508   36.9647   -3.1236 H   0  0  0  0  0  0  0  0  0  0  0  0
   66.7482   35.3551   -3.1236 H   0  0  0  0  0  0  0  0  0  0  0  0
   69.2267   37.0010    6.1613 H   0  0  0  0  0  0  0  0  0  0  0  0
   69.6505   36.0978    4.8071 H   0  0  0  0  0  0  0  0  0  0  0  0
   69.4626   37.3927    0.3698 H   0  0  0  0  0  0  0  0  0  0  0  0
   68.7155   38.8894    2.4153 H   0  0  0  0  0  0  0  0  0  0  0  0
   67.0673   37.7765   -1.2259 H   0  0  0  0  0  0  0  0  0  0  0  0
   67.2931   38.6468    5.8039 H   0  0  0  0  0  0  0  0  0  0  0  0
   66.9168   36.0415    5.9152 H   0  0  0  0  0  0  0  0  0  0  0  0
   65.7815   35.7719    0.5312 H   0  0  0  0  0  0  0  0  0  0  0  0
  3  4  1  0
  2  6  1  0
  1  7  1  0
  6  7  1  0
  2  8  1  0
  3  8  1  0
  3 11  1  0
  1 12  1  0
  5 12  1  0
  9 12  1  0
 10 12  1  0
  1 13  1  0
  2 13  1  0
  1 14  1  0
  2 15  1  0
  3 16  1  0
  4 17  1  0
  4 18  1  0
  4 19  1  0
  5 20  1  0
  5 21  1  0
  6 22  1  0
  7 23  1  0
  8 24  1  0
  9 25  1  0
 10 26  1  0
 11 27  1  0
M  END
>  <PDBID>  (1) 
4LU3

>  <PDB ID>  (1) 
4LU3

>  <Generic Name>  (1) 
Acetazolamide

>  <Brand Name>  (1) 
Acetazolam#Acetazolamide#Acetazolamide for Injection, USP#Diamox IV 500mg#Diamox Pws 500mg/vial#Diamox Sequels#Diamox Src 500mg#Diamox Tab 250mg#Diamox Tablets 250mg#Novo-zolamide Tab 250mg#Acemit#Acemox#Acetak#Acetamide#Acetazolamax#Azm#Azol#Azomid#Carbinib#Defiltran#Diabo#Diacarb#Diamox#Diamox Depot#Diazomid#Diluran#Diuramid#Défiltran#Edemox#Glaumox#Glaupax#Glupax#Huma-Zolamide#Iopar-SR#Medene#Oculten#Uramox#Zolmide#Ödemin

>  <DrugBank ID>  (1) 
DB00819

>  <ATC Codes>  (1) 
S01EC01

>  <Ligand ID>  (1) 
AZM

>  <Target Name>  (1) 
Carbonic anhydrase 14

>  <UniProt ID>  (1) 
Q9ULX7

>  <PDB ID.1>  (1) 
4LU3

>  <Seq. Identity>  (1) 
100%

$$$$
