PDB_DB00558_89
     RDKit          3D

 43 43  0  0  0  0  0  0  0  0999 V2000
   63.6290   18.2740   72.5290 C   0  0  0  0  0  0  0  0  0  0  0  0
   64.2870   18.4590   73.5670 O   0  0  0  0  0  0  0  0  0  0  0  0
   64.1310   17.6470   71.5700 O   0  0  0  0  0  0  0  0  0  0  0  0
   62.2620   18.7830   72.4670 C   0  0  0  0  0  0  0  0  0  0  0  0
   61.5000   18.6370   71.3760 C   0  0  0  0  0  0  0  0  0  0  0  0
   60.1330   19.2810   71.2440 C   0  0  1  0  0  0  0  0  0  0  0  0
   59.4800   19.6210   72.5960 C   0  0  1  0  0  0  0  0  0  0  0  0
   58.3480   18.6980   72.6240 N   0  0  0  0  0  0  0  0  0  0  0  0
   57.0890   18.9760   72.2520 C   0  0  0  0  0  0  0  0  0  0  0  0
   56.6780   20.0520   71.8400 O   0  0  0  0  0  0  0  0  0  0  0  0
   56.1750   17.8090   72.3900 C   0  0  0  0  0  0  0  0  0  0  0  0
   60.3350   19.3700   73.8600 C   0  0  1  0  0  0  0  0  0  0  0  0
   61.7420   19.4760   73.6240 O   0  0  0  0  0  0  0  0  0  0  0  0
   60.0140   20.3800   74.9510 C   0  0  0  0  0  0  0  0  0  0  0  0
   59.1390   21.2150   74.7530 O   0  0  0  0  0  0  0  0  0  0  0  0
   60.6590   20.4120   76.1380 C   0  0  0  0  0  0  0  0  0  0  0  0
   61.6330   19.5480   76.4110 O   0  0  0  0  0  0  0  0  0  0  0  0
   60.2820   21.4510   77.1830 C   0  0  0  0  0  0  0  0  0  0  0  0
   60.6350   20.9930   78.4950 O   0  0  0  0  0  0  0  0  0  0  0  0
   60.1680   20.5590   70.5490 N   0  0  0  0  0  0  0  0  0  0  0  0
   59.1850   21.0490   69.7960 C   0  0  0  0  0  0  0  0  0  0  0  0
   59.3380   22.2470   69.2340 N   0  0  0  0  0  0  0  0  0  0  0  0
   58.0580   20.3730   69.5820 N   0  0  0  0  0  0  0  0  0  0  0  0
   63.8874   18.9555   74.3245 H   0  0  0  0  0  0  0  0  0  0  0  0
   61.8798   18.0266   70.5434 H   0  0  0  0  0  0  0  0  0  0  0  0
   59.5657   18.5173   70.6919 H   0  0  0  0  0  0  0  0  0  0  0  0
   59.2653   20.6989   72.6403 H   0  0  0  0  0  0  0  0  0  0  0  0
   58.5340   17.7428   72.9614 H   0  0  0  0  0  0  0  0  0  0  0  0
   56.0092   17.5973   73.4566 H   0  0  0  0  0  0  0  0  0  0  0  0
   55.2132   18.0375   71.9077 H   0  0  0  0  0  0  0  0  0  0  0  0
   56.6273   16.9299   71.9077 H   0  0  0  0  0  0  0  0  0  0  0  0
   60.0844   18.3425   74.1624 H   0  0  0  0  0  0  0  0  0  0  0  0
   60.7647   21.0680   74.5349 H   0  0  0  0  0  0  0  0  0  0  0  0
   58.7943   21.5439   75.6208 H   0  0  0  0  0  0  0  0  0  0  0  0
   59.9210   19.7127   76.5579 H   0  0  0  0  0  0  0  0  0  0  0  0
   61.7313   19.4608   77.3922 H   0  0  0  0  0  0  0  0  0  0  0  0
   60.8165   22.3887   76.9707 H   0  0  0  0  0  0  0  0  0  0  0  0
   59.1954   21.6174   77.1441 H   0  0  0  0  0  0  0  0  0  0  0  0
   60.1948   21.5641   79.1734 H   0  0  0  0  0  0  0  0  0  0  0  0
   58.5876   22.6409   68.6486 H   0  0  0  0  0  0  0  0  0  0  0  0
   60.2067   22.7795   69.3848 H   0  0  0  0  0  0  0  0  0  0  0  0
   57.3167   20.7805   68.9943 H   0  0  0  0  0  0  0  0  0  0  0  0
   57.9274   19.4426   70.0042 H   0  0  0  0  0  0  0  0  0  0  0  0
  1  2  1  0
  1  3  2  0
  1  4  1  0
  4  5  2  0
  5  6  1  0
  6  7  1  0
  7  8  1  0
  8  9  1  0
  9 10  2  0
  9 11  1  0
  7 12  1  0
  4 13  1  0
 12 13  1  0
 12 14  1  0
 14 15  1  0
 14 16  1  0
 16 17  1  0
 16 18  1  0
 18 19  1  0
  6 20  1  0
 20 21  2  3
 21 22  1  0
 21 23  1  0
  2 24  1  0
  5 25  1  0
  6 26  1  6
  7 27  1  6
  8 28  1  0
 11 29  1  0
 11 30  1  0
 11 31  1  0
 12 32  1  1
 14 33  1  0
 15 34  1  0
 16 35  1  0
 17 36  1  0
 18 37  1  0
 18 38  1  0
 19 39  1  0
 22 40  1  0
 22 41  1  0
 23 42  1  0
 23 43  1  0
M  END
$$$$
