PDB_DB06616_98
     RDKit          3D

170176  0  0  0  0  0  0  0  0999 V2000
   10.6830  -40.3670   -5.6270 C   0  0  0  0  0  0  0  0  0  0  0  0
    7.4200  -35.4650  -12.6170 O   0  0  0  0  0  0  0  0  0  0  0  0
   16.4310  -40.0600   -3.7600 C   0  0  0  0  0  0  0  0  0  0  0  0
    8.5490  -32.8100   -9.3190 N   0  0  0  0  0  0  0  0  0  0  0  0
    4.6420  -34.4180  -11.9310 Cl  0  0  0  0  0  0  0  0  0  0  0  0
    6.2000  -35.3890   -6.6850 Cl  0  0  0  0  0  0  0  0  0  0  0  0
    9.3840  -33.4810   -8.9310 C   0  0  0  0  0  0  0  0  0  0  0  0
   11.8690  -33.8560   -8.3430 C   0  0  0  0  0  0  0  0  0  0  0  0
    5.5090  -34.9400   -9.3440 C   0  0  0  0  0  0  0  0  0  0  0  0
    8.1730  -35.9190  -10.3200 C   0  0  0  0  0  0  0  0  0  0  0  0
   13.8600  -36.7470   -6.6700 C   0  0  0  0  0  0  0  0  0  0  0  0
   11.1210  -37.9580   -6.8020 C   0  0  0  0  0  0  0  0  0  0  0  0
   16.9240  -39.3370   -5.0010 C   0  0  0  0  0  0  0  0  0  0  0  0
   15.9140  -38.2500   -5.3880 C   0  0  0  0  0  0  0  0  0  0  0  0
   21.0490  -40.5570   -0.3430 C   0  0  0  0  0  0  0  0  0  0  0  0
   17.4560  -40.5070   -1.4150 C   0  0  0  0  0  0  0  0  0  0  0  0
   18.7670  -39.5210   -3.1470 C   0  0  0  0  0  0  0  0  0  0  0  0
   18.7270  -41.1750   -0.8600 C   0  0  0  0  0  0  0  0  0  0  0  0
   19.9900  -40.1910   -2.6000 C   0  0  0  0  0  0  0  0  0  0  0  0
   12.9430  -34.6580   -7.8520 N   0  0  0  0  0  0  0  0  0  0  0  0
    8.8470  -36.3470   -7.8950 N   0  0  0  0  0  0  0  0  0  0  0  0
   11.9810  -39.8870   -5.5250 O   0  0  0  0  0  0  0  0  0  0  0  0
   14.6150  -38.7740   -5.3780 O   0  0  0  0  0  0  0  0  0  0  0  0
    7.1390  -35.4450  -11.2830 C   0  0  0  0  0  0  0  0  0  0  0  0
    5.8180  -34.9570  -10.7980 C   0  0  0  0  0  0  0  0  0  0  0  0
    6.5360  -35.4090   -8.3780 C   0  0  0  0  0  0  0  0  0  0  0  0
   10.4700  -34.3750   -8.4260 C   0  0  0  0  0  0  0  0  0  0  0  0
    7.8580  -35.8990   -8.8550 C   0  0  0  0  0  0  0  0  0  0  0  0
   12.2390  -38.6700   -6.1040 C   0  0  0  0  0  0  0  0  0  0  0  0
   13.5930  -38.0830   -6.0360 C   0  0  0  0  0  0  0  0  0  0  0  0
   10.1960  -35.7920   -7.9680 C   0  0  1  0  0  0  0  0  0  0  0  0
   12.7470  -36.0100   -7.4030 C   0  0  2  0  0  0  0  0  0  0  0  0
   11.3700  -36.6270   -7.4550 C   0  0  1  0  0  0  0  0  0  0  0  0
   17.6010  -40.3220   -2.8600 N   0  0  0  0  0  0  0  0  0  0  0  0
   19.8710  -40.3650   -1.1810 N   0  0  0  0  0  0  0  0  0  0  0  0
    8.7290  -35.7670  -12.9630 C   0  0  0  0  0  0  0  0  0  0  0  0
    6.9570   -9.0420   28.5790 C   0  0  0  0  0  0  0  0  0  0  0  0
    9.8210   -4.2070   35.7090 O   0  0  0  0  0  0  0  0  0  0  0  0
    1.4440   -8.6340   26.4410 C   0  0  0  0  0  0  0  0  0  0  0  0
    9.0810   -1.4950   32.1940 N   0  0  0  0  0  0  0  0  0  0  0  0
   12.5950   -3.0910   35.2590 Cl  0  0  0  0  0  0  0  0  0  0  0  0
   11.5210   -3.8960   29.8780 Cl  0  0  0  0  0  0  0  0  0  0  0  0
    8.2340   -2.1420   31.7950 C   0  0  0  0  0  0  0  0  0  0  0  0
    5.7340   -2.5030   31.1820 C   0  0  0  0  0  0  0  0  0  0  0  0
   11.9720   -3.5320   32.5980 C   0  0  0  0  0  0  0  0  0  0  0  0
    9.2610   -4.6150   33.3160 C   0  0  0  0  0  0  0  0  0  0  0  0
    3.8120   -5.3390   29.3980 C   0  0  0  0  0  0  0  0  0  0  0  0
    6.5580   -6.5630   29.5990 C   0  0  0  0  0  0  0  0  0  0  0  0
    0.8280   -7.8870   27.6080 C   0  0  0  0  0  0  0  0  0  0  0  0
    1.8040   -6.8170   28.1030 C   0  0  0  0  0  0  0  0  0  0  0  0
   -3.0540   -9.5810   22.9680 C   0  0  0  0  0  0  0  0  0  0  0  0
    0.4860   -8.9750   24.0540 C   0  0  0  0  0  0  0  0  0  0  0  0
   -0.9730   -8.5960   25.9100 C   0  0  0  0  0  0  0  0  0  0  0  0
   -0.6290   -9.7980   23.3810 C   0  0  0  0  0  0  0  0  0  0  0  0
   -2.0170   -9.4550   25.2650 C   0  0  0  0  0  0  0  0  0  0  0  0
    4.6610   -3.3050   30.6850 N   0  0  0  0  0  0  0  0  0  0  0  0
    8.7810   -4.9840   30.8340 N   0  0  0  0  0  0  0  0  0  0  0  0
    5.7800   -8.4120   28.1930 O   0  0  0  0  0  0  0  0  0  0  0  0
    3.1220   -7.2710   27.9760 O   0  0  0  0  0  0  0  0  0  0  0  0
   10.1930   -4.1440   34.3860 C   0  0  0  0  0  0  0  0  0  0  0  0
   11.5370   -3.6130   34.0180 C   0  0  0  0  0  0  0  0  0  0  0  0
   11.0430   -3.9960   31.5320 C   0  0  0  0  0  0  0  0  0  0  0  0
    7.1340   -3.0190   31.2750 C   0  0  0  0  0  0  0  0  0  0  0  0
    9.6890   -4.5380   31.8770 C   0  0  0  0  0  0  0  0  0  0  0  0
    5.4750   -7.2300   28.8120 C   0  0  0  0  0  0  0  0  0  0  0  0
    4.1220   -6.6330   28.7140 C   0  0  0  0  0  0  0  0  0  0  0  0
    7.4280   -4.4310   30.8180 C   0  0  0  0  0  0  0  0  0  0  0  0
    4.8830   -4.6450   30.2200 C   0  0  2  0  0  0  0  0  0  0  0  0
    6.2650   -5.2670   30.2930 C   0  0  1  0  0  0  0  0  0  0  0  0
    0.3410   -9.0430   25.5120 N   0  0  0  0  0  0  0  0  0  0  0  0
   -1.9120   -9.3270   23.8420 N   0  0  0  0  0  0  0  0  0  0  0  0
    8.4850   -4.4440   36.0290 C   0  0  0  0  0  0  0  0  0  0  0  0
   10.2685  -40.5203   -4.6197 H   0  0  0  0  0  0  0  0  0  0  0  0
   10.0643  -39.6382   -6.1711 H   0  0  0  0  0  0  0  0  0  0  0  0
   10.6873  -41.3230   -6.1711 H   0  0  0  0  0  0  0  0  0  0  0  0
   15.6934  -39.4346   -3.2357 H   0  0  0  0  0  0  0  0  0  0  0  0
   15.9561  -41.0107   -4.0438 H   0  0  0  0  0  0  0  0  0  0  0  0
    8.0396  -32.4006   -8.5229 H   0  0  0  0  0  0  0  0  0  0  0  0
    8.9531  -32.0558   -9.8924 H   0  0  0  0  0  0  0  0  0  0  0  0
   10.1001  -32.9841   -9.6021 H   0  0  0  0  0  0  0  0  0  0  0  0
    8.9320  -33.4637   -7.9283 H   0  0  0  0  0  0  0  0  0  0  0  0
   11.8298  -32.9652   -7.6989 H   0  0  0  0  0  0  0  0  0  0  0  0
   12.1352  -33.7356   -9.4035 H   0  0  0  0  0  0  0  0  0  0  0  0
    5.2699  -33.8996   -9.0786 H   0  0  0  0  0  0  0  0  0  0  0  0
    4.6981  -35.6761   -9.2408 H   0  0  0  0  0  0  0  0  0  0  0  0
    8.4094  -36.9599  -10.5857 H   0  0  0  0  0  0  0  0  0  0  0  0
    8.9899  -35.1901  -10.4265 H   0  0  0  0  0  0  0  0  0  0  0  0
   14.2064  -36.0794   -5.8673 H   0  0  0  0  0  0  0  0  0  0  0  0
   14.5714  -36.9889   -7.4734 H   0  0  0  0  0  0  0  0  0  0  0  0
   10.7557  -38.6345   -7.5888 H   0  0  0  0  0  0  0  0  0  0  0  0
   10.4273  -37.7129   -5.9842 H   0  0  0  0  0  0  0  0  0  0  0  0
   17.9003  -38.8746   -4.7936 H   0  0  0  0  0  0  0  0  0  0  0  0
   17.0292  -40.0542   -5.8284 H   0  0  0  0  0  0  0  0  0  0  0  0
   15.9775  -37.4213   -4.6675 H   0  0  0  0  0  0  0  0  0  0  0  0
   16.1473  -37.8856   -6.3993 H   0  0  0  0  0  0  0  0  0  0  0  0
   20.7570  -40.5094    0.7165 H   0  0  0  0  0  0  0  0  0  0  0  0
   21.4948  -41.5397   -0.5567 H   0  0  0  0  0  0  0  0  0  0  0  0
   21.7837  -39.7668   -0.5567 H   0  0  0  0  0  0  0  0  0  0  0  0
   16.5851  -41.1474   -1.2117 H   0  0  0  0  0  0  0  0  0  0  0  0
   17.3101  -39.5304   -0.9303 H   0  0  0  0  0  0  0  0  0  0  0  0
   18.6537  -38.5310   -2.6811 H   0  0  0  0  0  0  0  0  0  0  0  0
   18.8711  -39.4083   -4.2362 H   0  0  0  0  0  0  0  0  0  0  0  0
   18.6424  -41.2743    0.2322 H   0  0  0  0  0  0  0  0  0  0  0  0
   18.8446  -42.1719   -1.3098 H   0  0  0  0  0  0  0  0  0  0  0  0
   20.1087  -41.1749   -3.0774 H   0  0  0  0  0  0  0  0  0  0  0  0
   20.8669  -39.5612   -2.8105 H   0  0  0  0  0  0  0  0  0  0  0  0
   13.6369  -34.7053   -8.6117 H   0  0  0  0  0  0  0  0  0  0  0  0
    8.4799  -36.1296   -6.9575 H   0  0  0  0  0  0  0  0  0  0  0  0
    6.7358  -36.4661  -11.3526 H   0  0  0  0  0  0  0  0  0  0  0  0
    6.2166  -33.9344  -10.7252 H   0  0  0  0  0  0  0  0  0  0  0  0
    6.1334  -36.4304   -8.4458 H   0  0  0  0  0  0  0  0  0  0  0  0
   10.6601  -34.7235   -9.4519 H   0  0  0  0  0  0  0  0  0  0  0  0
    7.4630  -36.9232   -8.9260 H   0  0  0  0  0  0  0  0  0  0  0  0
   11.9727  -38.1660   -5.1632 H   0  0  0  0  0  0  0  0  0  0  0  0
   13.8611  -38.5836   -6.9781 H   0  0  0  0  0  0  0  0  0  0  0  0
   10.2849  -36.1447   -9.0061 H   0  0  0  0  0  0  0  0  0  0  0  0
   13.0769  -36.3596   -8.3924 H   0  0  0  0  0  0  0  0  0  0  0  0
   11.5242  -37.1292   -8.4214 H   0  0  0  0  0  0  0  0  0  0  0  0
    9.3270  -35.9050  -12.0501 H   0  0  0  0  0  0  0  0  0  0  0  0
    8.7471  -36.6929  -13.5566 H   0  0  0  0  0  0  0  0  0  0  0  0
    9.1509  -34.9426  -13.5566 H   0  0  0  0  0  0  0  0  0  0  0  0
    7.0136   -9.0723   29.6771 H   0  0  0  0  0  0  0  0  0  0  0  0
    6.9707  -10.0680   28.1827 H   0  0  0  0  0  0  0  0  0  0  0  0
    7.8184   -8.4843   28.1827 H   0  0  0  0  0  0  0  0  0  0  0  0
    2.1527   -7.9796   25.9123 H   0  0  0  0  0  0  0  0  0  0  0  0
    1.9860   -9.5209   26.8011 H   0  0  0  0  0  0  0  0  0  0  0  0
    9.0660   -1.5065   33.2238 H   0  0  0  0  0  0  0  0  0  0  0  0
    9.9823   -1.8648   31.8596 H   0  0  0  0  0  0  0  0  0  0  0  0
    7.5316   -1.6647   32.4941 H   0  0  0  0  0  0  0  0  0  0  0  0
    8.6709   -2.0921   30.7867 H   0  0  0  0  0  0  0  0  0  0  0  0
    5.7766   -1.6127   30.5374 H   0  0  0  0  0  0  0  0  0  0  0  0
    5.4615   -2.3850   32.2412 H   0  0  0  0  0  0  0  0  0  0  0  0
   12.1996   -2.4761   32.3902 H   0  0  0  0  0  0  0  0  0  0  0  0
   12.8145   -4.2367   32.5392 H   0  0  0  0  0  0  0  0  0  0  0  0
    9.0380   -5.6711   33.5277 H   0  0  0  0  0  0  0  0  0  0  0  0
    8.4208   -3.9075   33.3745 H   0  0  0  0  0  0  0  0  0  0  0  0
    3.5026   -4.6310   28.6151 H   0  0  0  0  0  0  0  0  0  0  0  0
    3.0578   -5.6208   30.1475 H   0  0  0  0  0  0  0  0  0  0  0  0
    6.8793   -7.2763   30.3723 H   0  0  0  0  0  0  0  0  0  0  0  0
    7.3041   -6.2897   28.8383 H   0  0  0  0  0  0  0  0  0  0  0  0
   -0.1075   -7.4078   27.2836 H   0  0  0  0  0  0  0  0  0  0  0  0
    0.6150   -8.5937   28.4236 H   0  0  0  0  0  0  0  0  0  0  0  0
    1.6751   -5.9027   27.5051 H   0  0  0  0  0  0  0  0  0  0  0  0
    1.5975   -6.6043   29.1623 H   0  0  0  0  0  0  0  0  0  0  0  0
   -3.9466   -9.7795   23.5794 H   0  0  0  0  0  0  0  0  0  0  0  0
   -3.2328   -8.7007   22.3331 H   0  0  0  0  0  0  0  0  0  0  0  0
   -2.8428  -10.4541   22.3331 H   0  0  0  0  0  0  0  0  0  0  0  0
    1.4660   -9.3823   23.7649 H   0  0  0  0  0  0  0  0  0  0  0  0
    0.4106   -7.9267   23.7295 H   0  0  0  0  0  0  0  0  0  0  0  0
   -1.1143   -7.5513   25.5959 H   0  0  0  0  0  0  0  0  0  0  0  0
   -1.0664   -8.6695   27.0036 H   0  0  0  0  0  0  0  0  0  0  0  0
   -0.5648   -9.6804   22.2892 H   0  0  0  0  0  0  0  0  0  0  0  0
   -0.5111  -10.8605   23.6402 H   0  0  0  0  0  0  0  0  0  0  0  0
   -1.8606  -10.5049   25.5534 H   0  0  0  0  0  0  0  0  0  0  0  0
   -3.0167   -9.1354   25.5942 H   0  0  0  0  0  0  0  0  0  0  0  0
    3.9704   -3.3716   31.4463 H   0  0  0  0  0  0  0  0  0  0  0  0
    9.2167   -4.7533   29.9296 H   0  0  0  0  0  0  0  0  0  0  0  0
   10.6209   -5.1548   34.4582 H   0  0  0  0  0  0  0  0  0  0  0  0
   11.1187   -2.5981   33.9477 H   0  0  0  0  0  0  0  0  0  0  0  0
   11.4744   -5.0059   31.5956 H   0  0  0  0  0  0  0  0  0  0  0  0
    6.9349   -3.3750   32.2966 H   0  0  0  0  0  0  0  0  0  0  0  0
   10.1071   -5.5530   31.9470 H   0  0  0  0  0  0  0  0  0  0  0  0
    5.7884   -6.6785   27.9133 H   0  0  0  0  0  0  0  0  0  0  0  0
    3.8093   -7.1834   29.6136 H   0  0  0  0  0  0  0  0  0  0  0  0
    7.2666   -4.7963   31.8429 H   0  0  0  0  0  0  0  0  0  0  0  0
    4.5879   -5.0308   31.2070 H   0  0  0  0  0  0  0  0  0  0  0  0
    6.0025   -5.7887   31.2252 H   0  0  0  0  0  0  0  0  0  0  0  0
    8.3680   -4.4648   37.1226 H   0  0  0  0  0  0  0  0  0  0  0  0
    7.8595   -3.6428   35.6085 H   0  0  0  0  0  0  0  0  0  0  0  0
    8.1733   -5.4115   35.6085 H   0  0  0  0  0  0  0  0  0  0  0  0
  4  7  1  0
  3 13  1  0
 13 14  1  0
 16 18  1  0
 17 19  1  0
  8 20  1  0
  1 22  1  0
 14 23  1  0
  2 24  1  0
 10 24  1  0
  5 25  1  0
  9 25  1  0
 24 25  1  0
  6 26  1  0
  9 26  1  0
  7 27  1  0
  8 27  1  0
 10 28  1  0
 21 28  1  0
 26 28  1  0
 12 29  1  0
 22 29  1  0
 11 30  1  0
 23 30  1  0
 29 30  1  0
 21 31  1  0
 27 31  1  0
 11 32  1  0
 20 32  1  0
 12 33  1  0
 31 33  1  0
 32 33  1  0
  3 34  1  0
 16 34  1  0
 17 34  1  0
 15 35  1  0
 18 35  1  0
 19 35  1  0
  2 36  1  0
 40 43  1  0
 39 49  1  0
 49 50  1  0
 52 54  1  0
 53 55  1  0
 44 56  1  0
 37 58  1  0
 50 59  1  0
 38 60  1  0
 46 60  1  0
 41 61  1  0
 45 61  1  0
 60 61  1  0
 42 62  1  0
 45 62  1  0
 43 63  1  0
 44 63  1  0
 46 64  1  0
 57 64  1  0
 62 64  1  0
 48 65  1  0
 58 65  1  0
 47 66  1  0
 59 66  1  0
 65 66  1  0
 57 67  1  0
 63 67  1  0
 47 68  1  0
 56 68  1  0
 48 69  1  0
 67 69  1  0
 68 69  1  0
 39 70  1  0
 52 70  1  0
 53 70  1  0
 51 71  1  0
 54 71  1  0
 55 71  1  0
 38 72  1  0
  1 73  1  0
  1 74  1  0
  1 75  1  0
  3 76  1  0
  3 77  1  0
  4 78  1  0
  4 79  1  0
  7 80  1  0
  7 81  1  0
  8 82  1  0
  8 83  1  0
  9 84  1  0
  9 85  1  0
 10 86  1  0
 10 87  1  0
 11 88  1  0
 11 89  1  0
 12 90  1  0
 12 91  1  0
 13 92  1  0
 13 93  1  0
 14 94  1  0
 14 95  1  0
 15 96  1  0
 15 97  1  0
 15 98  1  0
 16 99  1  0
 16100  1  0
 17101  1  0
 17102  1  0
 18103  1  0
 18104  1  0
 19105  1  0
 19106  1  0
 20107  1  0
 21108  1  0
 24109  1  0
 25110  1  0
 26111  1  0
 27112  1  0
 28113  1  0
 29114  1  0
 30115  1  0
 31116  1  6
 32117  1  6
 33118  1  6
 36119  1  0
 36120  1  0
 36121  1  0
 37122  1  0
 37123  1  0
 37124  1  0
 39125  1  0
 39126  1  0
 40127  1  0
 40128  1  0
 43129  1  0
 43130  1  0
 44131  1  0
 44132  1  0
 45133  1  0
 45134  1  0
 46135  1  0
 46136  1  0
 47137  1  0
 47138  1  0
 48139  1  0
 48140  1  0
 49141  1  0
 49142  1  0
 50143  1  0
 50144  1  0
 51145  1  0
 51146  1  0
 51147  1  0
 52148  1  0
 52149  1  0
 53150  1  0
 53151  1  0
 54152  1  0
 54153  1  0
 55154  1  0
 55155  1  0
 56156  1  0
 57157  1  0
 60158  1  0
 61159  1  0
 62160  1  0
 63161  1  0
 64162  1  0
 65163  1  0
 66164  1  0
 67165  1  0
 68166  1  1
 69167  1  1
 72168  1  0
 72169  1  0
 72170  1  0
M  END
>  <PDBID>  (1) 
4MXO

>  <PDB ID>  (1) 
4MXO

>  <Generic Name>  (1) 
Bosutinib

>  <Brand Name>  (1) 
Bosulif

>  <DrugBank ID>  (1) 
DB06616

>  <ATC Codes>  (1) 
L01XE14

>  <Ligand ID>  (1) 
DB8

>  <Target Name>  (1) 
Tyrosine-protein kinase ABL1

>  <UniProt ID>  (1) 
P00519

>  <PDB ID.1>  (1) 
4MXO

>  <Seq. Identity>  (1) 
47%

$$$$
