PDB_DB00293_98
     RDKit          3D

148152  0  0  0  0  0  0  0  0999 V2000
   38.3940   58.0230   47.2850 N   0  0  0  0  0  0  0  0  0  0  0  0
   38.5690   56.8360   47.9710 C   0  0  0  0  0  0  0  0  0  0  0  0
   39.8520   56.0670   47.8810 C   0  0  0  0  0  0  0  0  0  0  0  0
   37.5000   56.3680   48.7640 N   0  0  0  0  0  0  0  0  0  0  0  0
   36.2640   57.0580   48.8890 C   0  0  0  0  0  0  0  0  0  0  0  0
   35.3670   56.6160   49.5870 O   0  0  0  0  0  0  0  0  0  0  0  0
   36.1340   58.2770   48.1650 C   0  0  0  0  0  0  0  0  0  0  0  0
   34.9740   59.0690   48.1950 C   0  0  0  0  0  0  0  0  0  0  0  0
   34.8190   60.2930   47.4820 C   0  0  0  0  0  0  0  0  0  0  0  0
   35.9210   60.7260   46.6910 C   0  0  0  0  0  0  0  0  0  0  0  0
   37.1340   59.9730   46.6110 C   0  0  0  0  0  0  0  0  0  0  0  0
   37.2130   58.7550   47.3580 C   0  0  0  0  0  0  0  0  0  0  0  0
   33.5140   61.1320   47.5520 C   0  0  0  0  0  0  0  0  0  0  0  0
   32.3680   60.7160   48.5220 N   0  0  0  0  0  0  0  0  0  0  0  0
   33.1580   61.3090   52.3440 C   0  0  0  0  0  0  0  0  0  0  0  0
   33.8710   61.4920   50.7740 S   0  0  0  0  0  0  0  0  0  0  0  0
   32.4890   60.8590   49.9640 C   0  0  0  0  0  0  0  0  0  0  0  0
   31.5560   60.5310   50.9080 C   0  0  0  0  0  0  0  0  0  0  0  0
   31.9190   60.7790   52.2390 C   0  0  0  0  0  0  0  0  0  0  0  0
   34.0060   61.7590   53.5680 C   0  0  0  0  0  0  0  0  0  0  0  0
   35.1570   62.2250   53.3430 O   0  0  0  0  0  0  0  0  0  0  0  0
   33.4510   61.6230   54.8440 N   0  0  0  0  0  0  0  0  0  0  0  0
   34.2460   62.0290   56.0340 C   0  0  1  0  0  0  0  0  0  0  0  0
   34.3380   63.5200   56.2880 C   0  0  0  0  0  0  0  0  0  0  0  0
   33.2210   64.5000   56.0330 C   0  0  0  0  0  0  0  0  0  0  0  0
   33.0590   65.5730   57.0820 C   0  0  0  0  0  0  0  0  0  0  0  0
   33.5380   66.6960   56.7950 O   0  0  0  0  0  0  0  0  0  0  0  0
   32.4620   65.2440   58.1350 O   0  0  0  0  0  0  0  0  0  0  0  0
   33.7060   61.1800   57.1640 C   0  0  0  0  0  0  0  0  0  0  0  0
   34.5400   60.4310   57.7170 O   0  0  0  0  0  0  0  0  0  0  0  0
   32.4780   61.3010   57.4240 O   0  0  0  0  0  0  0  0  0  0  0  0
   31.1480   60.2040   47.8920 C   0  0  0  0  0  0  0  0  0  0  0  0
   10.5780   37.2780   26.2570 N   0  0  0  0  0  0  0  0  0  0  0  0
   10.2890   36.6470   27.4630 C   0  0  0  0  0  0  0  0  0  0  0  0
    8.9480   36.7930   28.1220 C   0  0  0  0  0  0  0  0  0  0  0  0
   11.2980   35.8580   28.0590 N   0  0  0  0  0  0  0  0  0  0  0  0
   12.5810   35.6830   27.4850 C   0  0  0  0  0  0  0  0  0  0  0  0
   13.4180   34.9930   28.0400 O   0  0  0  0  0  0  0  0  0  0  0  0
   12.8350   36.3480   26.2460 C   0  0  0  0  0  0  0  0  0  0  0  0
   14.0600   36.2640   25.5650 C   0  0  0  0  0  0  0  0  0  0  0  0
   14.3410   36.9170   24.3250 C   0  0  0  0  0  0  0  0  0  0  0  0
   13.3000   37.7070   23.7530 C   0  0  0  0  0  0  0  0  0  0  0  0
   12.0250   37.8400   24.3900 C   0  0  0  0  0  0  0  0  0  0  0  0
   11.8200   37.1510   25.6330 C   0  0  0  0  0  0  0  0  0  0  0  0
   15.7220   36.7720   23.6290 C   0  0  0  0  0  0  0  0  0  0  0  0
   16.6850   35.6410   24.1090 N   0  0  0  0  0  0  0  0  0  0  0  0
   15.7730   32.0120   22.8410 C   0  0  0  0  0  0  0  0  0  0  0  0
   15.2240   33.6540   22.7260 S   0  0  0  0  0  0  0  0  0  0  0  0
   16.4890   34.2490   23.7340 C   0  0  0  0  0  0  0  0  0  0  0  0
   17.2600   33.1910   24.1110 C   0  0  0  0  0  0  0  0  0  0  0  0
   16.8730   31.9400   23.6220 C   0  0  0  0  0  0  0  0  0  0  0  0
   14.9750   30.9200   22.0760 C   0  0  0  0  0  0  0  0  0  0  0  0
   13.9680   31.2720   21.4090 O   0  0  0  0  0  0  0  0  0  0  0  0
   15.4250   29.6100   22.1720 N   0  0  0  0  0  0  0  0  0  0  0  0
   14.6950   28.5460   21.4550 C   0  0  1  0  0  0  0  0  0  0  0  0
   15.5030   27.9670   20.3130 C   0  0  0  0  0  0  0  0  0  0  0  0
   14.9680   26.9700   19.3110 C   0  0  0  0  0  0  0  0  0  0  0  0
   15.1000   27.3690   17.8570 C   0  0  0  0  0  0  0  0  0  0  0  0
   14.0510   27.7770   17.2930 O   0  0  0  0  0  0  0  0  0  0  0  0
   16.2380   27.2500   17.3490 O   0  0  0  0  0  0  0  0  0  0  0  0
   14.2300   27.5880   22.5440 C   0  0  0  0  0  0  0  0  0  0  0  0
   15.1070   27.1990   23.3570 O   0  0  0  0  0  0  0  0  0  0  0  0
   13.0100   27.2920   22.5290 O   0  0  0  0  0  0  0  0  0  0  0  0
   17.8240   36.0640   24.9350 C   0  0  0  0  0  0  0  0  0  0  0  0
   39.1429   58.6532   47.6057 H   0  0  0  0  0  0  0  0  0  0  0  0
   38.1747   56.2792   47.1081 H   0  0  0  0  0  0  0  0  0  0  0  0
   40.2194   55.8468   48.8942 H   0  0  0  0  0  0  0  0  0  0  0  0
   39.6775   55.1245   47.3414 H   0  0  0  0  0  0  0  0  0  0  0  0
   40.6010   56.6652   47.3414 H   0  0  0  0  0  0  0  0  0  0  0  0
   37.2665   55.4329   48.4007 H   0  0  0  0  0  0  0  0  0  0  0  0
   35.8667   56.5025   48.0267 H   0  0  0  0  0  0  0  0  0  0  0  0
   35.6035   56.7325   50.5413 H   0  0  0  0  0  0  0  0  0  0  0  0
   35.7332   57.7226   47.3036 H   0  0  0  0  0  0  0  0  0  0  0  0
   34.1602   58.4167   47.8452 H   0  0  0  0  0  0  0  0  0  0  0  0
   35.0023   59.4365   49.2314 H   0  0  0  0  0  0  0  0  0  0  0  0
   35.2205   60.8460   48.3440 H   0  0  0  0  0  0  0  0  0  0  0  0
   35.5452   60.8163   45.6611 H   0  0  0  0  0  0  0  0  0  0  0  0
   36.2452   61.6340   47.2206 H   0  0  0  0  0  0  0  0  0  0  0  0
   37.2940   59.7198   45.5525 H   0  0  0  0  0  0  0  0  0  0  0  0
   37.8957   60.6254   47.0629 H   0  0  0  0  0  0  0  0  0  0  0  0
   36.8150   58.1988   46.4964 H   0  0  0  0  0  0  0  0  0  0  0  0
   33.8091   62.1545   47.8302 H   0  0  0  0  0  0  0  0  0  0  0  0
   33.0673   60.9855   46.5575 H   0  0  0  0  0  0  0  0  0  0  0  0
   32.7318   62.3203   52.2683 H   0  0  0  0  0  0  0  0  0  0  0  0
   32.9147   59.8468   50.0287 H   0  0  0  0  0  0  0  0  0  0  0  0
   30.6435   61.1070   50.6945 H   0  0  0  0  0  0  0  0  0  0  0  0
   31.4264   59.4413   50.8327 H   0  0  0  0  0  0  0  0  0  0  0  0
   31.8920   59.8304   52.7953 H   0  0  0  0  0  0  0  0  0  0  0  0
   31.2058   61.5079   52.6514 H   0  0  0  0  0  0  0  0  0  0  0  0
   34.4308   60.7473   53.6457 H   0  0  0  0  0  0  0  0  0  0  0  0
   35.6122   62.4093   54.2026 H   0  0  0  0  0  0  0  0  0  0  0  0
   32.5862   62.1823   54.8560 H   0  0  0  0  0  0  0  0  0  0  0  0
   35.3187   61.8354   55.8861 H   0  0  0  0  0  0  0  0  0  0  0  0
   34.5845   63.6236   57.3550 H   0  0  0  0  0  0  0  0  0  0  0  0
   35.0518   63.8164   55.5053 H   0  0  0  0  0  0  0  0  0  0  0  0
   33.4134   64.9926   55.0685 H   0  0  0  0  0  0  0  0  0  0  0  0
   32.2901   63.9142   56.0476 H   0  0  0  0  0  0  0  0  0  0  0  0
   34.0188   65.2785   57.5315 H   0  0  0  0  0  0  0  0  0  0  0  0
   33.7478   67.1880   57.6281 H   0  0  0  0  0  0  0  0  0  0  0  0
   32.9912   65.5356   58.9192 H   0  0  0  0  0  0  0  0  0  0  0  0
   33.4634   60.3811   56.4478 H   0  0  0  0  0  0  0  0  0  0  0  0
   34.4529   60.5092   58.7001 H   0  0  0  0  0  0  0  0  0  0  0  0
   32.3482   61.3138   58.4054 H   0  0  0  0  0  0  0  0  0  0  0  0
   30.4316   59.9034   48.6707 H   0  0  0  0  0  0  0  0  0  0  0  0
   30.7007   60.9903   47.2662 H   0  0  0  0  0  0  0  0  0  0  0  0
   31.3959   59.3340   47.2662 H   0  0  0  0  0  0  0  0  0  0  0  0
    9.8796   36.9390   25.5800 H   0  0  0  0  0  0  0  0  0  0  0  0
   10.6544   37.5278   28.0114 H   0  0  0  0  0  0  0  0  0  0  0  0
    9.0730   36.7794   29.2148 H   0  0  0  0  0  0  0  0  0  0  0  0
    8.4914   37.7462   27.8170 H   0  0  0  0  0  0  0  0  0  0  0  0
    8.2970   35.9604   27.8170 H   0  0  0  0  0  0  0  0  0  0  0  0
   11.4579   36.2605   28.9935 H   0  0  0  0  0  0  0  0  0  0  0  0
   12.9458   36.5652   28.0315 H   0  0  0  0  0  0  0  0  0  0  0  0
   13.3166   35.0766   29.0212 H   0  0  0  0  0  0  0  0  0  0  0  0
   13.2000   37.2293   26.7938 H   0  0  0  0  0  0  0  0  0  0  0  0
   14.8179   36.6323   26.2721 H   0  0  0  0  0  0  0  0  0  0  0  0
   14.0438   35.2122   25.2435 H   0  0  0  0  0  0  0  0  0  0  0  0
   13.9733   36.0364   23.7779 H   0  0  0  0  0  0  0  0  0  0  0  0
   13.7036   38.7252   23.6513 H   0  0  0  0  0  0  0  0  0  0  0  0
   13.0508   37.1445   22.8411 H   0  0  0  0  0  0  0  0  0  0  0  0
   11.8633   38.9115   24.5788 H   0  0  0  0  0  0  0  0  0  0  0  0
   11.3176   37.3675   23.6927 H   0  0  0  0  0  0  0  0  0  0  0  0
   12.1856   38.0317   26.1814 H   0  0  0  0  0  0  0  0  0  0  0  0
   15.5299   36.6021   22.5593 H   0  0  0  0  0  0  0  0  0  0  0  0
   16.2509   37.7017   23.8857 H   0  0  0  0  0  0  0  0  0  0  0  0
   16.4103   32.1632   21.9573 H   0  0  0  0  0  0  0  0  0  0  0  0
   15.8536   34.0999   24.6194 H   0  0  0  0  0  0  0  0  0  0  0  0
   18.2863   33.3836   23.7653 H   0  0  0  0  0  0  0  0  0  0  0  0
   17.1552   33.1251   25.2040 H   0  0  0  0  0  0  0  0  0  0  0  0
   16.6590   31.2780   24.4741 H   0  0  0  0  0  0  0  0  0  0  0  0
   17.6972   31.5498   23.0068 H   0  0  0  0  0  0  0  0  0  0  0  0
   14.3369   30.7677   22.9590 H   0  0  0  0  0  0  0  0  0  0  0  0
   13.2367   31.5276   22.0255 H   0  0  0  0  0  0  0  0  0  0  0  0
   16.3942   29.5979   21.8236 H   0  0  0  0  0  0  0  0  0  0  0  0
   13.8094   28.9020   20.9081 H   0  0  0  0  0  0  0  0  0  0  0  0
   15.8410   28.8303   19.7211 H   0  0  0  0  0  0  0  0  0  0  0  0
   16.2194   27.3404   20.8645 H   0  0  0  0  0  0  0  0  0  0  0  0
   15.5103   26.0235   19.4528 H   0  0  0  0  0  0  0  0  0  0  0  0
   13.8879   26.8973   19.5062 H   0  0  0  0  0  0  0  0  0  0  0  0
   14.8629   26.3388   17.5528 H   0  0  0  0  0  0  0  0  0  0  0  0
   13.3863   28.0355   17.9796 H   0  0  0  0  0  0  0  0  0  0  0  0
   16.9147   27.1792   18.0682 H   0  0  0  0  0  0  0  0  0  0  0  0
   14.4577   26.7336   21.8896 H   0  0  0  0  0  0  0  0  0  0  0  0
   14.7855   27.3416   24.2824 H   0  0  0  0  0  0  0  0  0  0  0  0
   12.6785   27.2116   23.4584 H   0  0  0  0  0  0  0  0  0  0  0  0
   17.5617   35.9666   25.9988 H   0  0  0  0  0  0  0  0  0  0  0  0
   18.6942   35.4291   24.7123 H   0  0  0  0  0  0  0  0  0  0  0  0
   18.0689   37.1130   24.7123 H   0  0  0  0  0  0  0  0  0  0  0  0
  1  2  1  0
  2  3  1  0
  2  4  1  0
  4  5  1  0
  5  6  1  0
  5  7  1  0
  7  8  1  0
  8  9  1  0
  9 10  1  0
 10 11  1  0
  1 12  1  0
  7 12  1  0
 11 12  1  0
  9 13  1  0
 13 14  1  0
 15 16  1  0
 14 17  1  0
 16 17  1  0
 17 18  1  0
 15 19  1  0
 18 19  1  0
 15 20  1  0
 20 21  1  0
 20 22  1  0
 22 23  1  0
 23 24  1  0
 24 25  1  0
 25 26  1  0
 26 27  1  0
 26 28  1  0
 23 29  1  0
 29 30  1  0
 29 31  1  0
 14 32  1  0
 33 34  1  0
 34 35  1  0
 34 36  1  0
 36 37  1  0
 37 38  1  0
 37 39  1  0
 39 40  1  0
 40 41  1  0
 41 42  1  0
 42 43  1  0
 33 44  1  0
 39 44  1  0
 43 44  1  0
 41 45  1  0
 45 46  1  0
 47 48  1  0
 46 49  1  0
 48 49  1  0
 49 50  1  0
 47 51  1  0
 50 51  1  0
 47 52  1  0
 52 53  1  0
 52 54  1  0
 54 55  1  0
 55 56  1  0
 56 57  1  0
 57 58  1  0
 58 59  1  0
 58 60  1  0
 55 61  1  0
 61 62  1  0
 61 63  1  0
 46 64  1  0
  1 65  1  0
  2 66  1  0
  3 67  1  0
  3 68  1  0
  3 69  1  0
  4 70  1  0
  5 71  1  0
  6 72  1  0
  7 73  1  0
  8 74  1  0
  8 75  1  0
  9 76  1  0
 10 77  1  0
 10 78  1  0
 11 79  1  0
 11 80  1  0
 12 81  1  0
 13 82  1  0
 13 83  1  0
 15 84  1  0
 17 85  1  0
 18 86  1  0
 18 87  1  0
 19 88  1  0
 19 89  1  0
 20 90  1  0
 21 91  1  0
 22 92  1  0
 23 93  1  6
 24 94  1  0
 24 95  1  0
 25 96  1  0
 25 97  1  0
 26 98  1  0
 27 99  1  0
 28100  1  0
 29101  1  0
 30102  1  0
 31103  1  0
 32104  1  0
 32105  1  0
 32106  1  0
 33107  1  0
 34108  1  0
 35109  1  0
 35110  1  0
 35111  1  0
 36112  1  0
 37113  1  0
 38114  1  0
 39115  1  0
 40116  1  0
 40117  1  0
 41118  1  0
 42119  1  0
 42120  1  0
 43121  1  0
 43122  1  0
 44123  1  0
 45124  1  0
 45125  1  0
 47126  1  0
 49127  1  0
 50128  1  0
 50129  1  0
 51130  1  0
 51131  1  0
 52132  1  0
 53133  1  0
 54134  1  0
 55135  1  6
 56136  1  0
 56137  1  0
 57138  1  0
 57139  1  0
 58140  1  0
 59141  1  0
 60142  1  0
 61143  1  0
 62144  1  0
 63145  1  0
 64146  1  0
 64147  1  0
 64148  1  0
M  END
>  <PDBID>  (1) 
1I00

>  <PDB ID>  (1) 
1I00

>  <Generic Name>  (1) 
Raltitrexed

>  <Brand Name>  (1) 
Tomudex

>  <DrugBank ID>  (1) 
DB00293

>  <ATC Codes>  (1) 
L01BA03

>  <Ligand ID>  (1) 
D16

>  <Target Name>  (1) 
Thymidylate synthase

>  <UniProt ID>  (1) 
P04818

>  <PDB ID.1>  (1) 
1I00

>  <Seq. Identity>  (1) 
100%

$$$$
