PDB_DB01254_98
     RDKit          3D

154160  0  0  0  0  0  0  0  0999 V2000
  -44.6700  -17.1000    1.2760 C   0  0  0  0  0  0  0  0  0  0  0  0
  -43.3930  -16.8300    1.7820 C   0  0  0  0  0  0  0  0  0  0  0  0
  -42.3070  -17.7200    2.2770 C   0  0  0  0  0  0  0  0  0  0  0  0
  -46.3870   -6.5270   -0.4900 N   0  0  0  0  0  0  0  0  0  0  0  0
  -39.4800  -21.5960    3.8890 C   0  0  0  0  0  0  0  0  0  0  0  0
  -40.6120  -21.2320    4.6120 C   0  0  0  0  0  0  0  0  0  0  0  0
  -41.6010  -20.3940    4.0670 C   0  0  0  0  0  0  0  0  0  0  0  0
  -42.7880  -20.0730    4.9430 C   0  0  0  0  0  0  0  0  0  0  0  0
  -44.8050  -12.3630    1.1310 C   0  0  0  0  0  0  0  0  0  0  0  0
  -45.4480  -11.2350    0.6630 C   0  0  0  0  0  0  0  0  0  0  0  0
  -44.8340   -9.9990    0.9020 C   0  0  0  0  0  0  0  0  0  0  0  0
  -43.0640  -10.9780    2.0060 C   0  0  0  0  0  0  0  0  0  0  0  0
  -41.7530  -10.8540    2.7480 C   0  0  0  0  0  0  0  0  0  0  0  0
  -46.8170   -8.7570    0.3310 C   0  0  0  0  0  0  0  0  0  0  0  0
  -44.4770   -7.6500    0.4610 C   0  0  0  0  0  0  0  0  0  0  0  0
  -47.1660   -5.8140   -1.4990 C   0  0  0  0  0  0  0  0  0  0  0  0
  -46.4210   -4.5180   -1.7870 C   0  0  0  0  0  0  0  0  0  0  0  0
  -45.3360  -13.6190    0.9260 N   0  0  0  0  0  0  0  0  0  0  0  0
  -44.7200  -14.8070    1.2030 C   0  0  0  0  0  0  0  0  0  0  0  0
  -45.3680  -15.9630    0.9660 N   0  0  0  0  0  0  0  0  0  0  0  0
  -43.0980  -15.0920    1.8620 S   0  0  0  0  0  0  0  0  0  0  0  0
  -42.4550  -19.0580    2.2480 N   0  0  0  0  0  0  0  0  0  0  0  0
  -41.4990  -19.8940    2.7790 C   0  0  0  0  0  0  0  0  0  0  0  0
  -40.3500  -20.2640    2.0600 C   0  0  0  0  0  0  0  0  0  0  0  0
  -39.3560  -21.1010    2.5920 C   0  0  0  0  0  0  0  0  0  0  0  0
  -40.1090  -19.6740    0.3900 Cl  0  0  0  0  0  0  0  0  0  0  0  0
  -41.3010  -17.1650    2.6820 O   0  0  0  0  0  0  0  0  0  0  0  0
  -43.6700   -9.8680    1.5590 N   0  0  0  0  0  0  0  0  0  0  0  0
  -43.6420  -12.1840    1.7850 N   0  0  0  0  0  0  0  0  0  0  0  0
  -45.3830   -8.8200    0.4840 N   0  0  0  0  0  0  0  0  0  0  0  0
  -47.1620   -7.2960    0.4840 C   0  0  0  0  0  0  0  0  0  0  0  0
  -44.9450   -6.6930   -0.6280 C   0  0  0  0  0  0  0  0  0  0  0  0
  -46.4270   -3.7490   -0.5670 O   0  0  0  0  0  0  0  0  0  0  0  0
  -15.9750  -31.8310   16.6950 C   0  0  0  0  0  0  0  0  0  0  0  0
  -14.6720  -32.3390   16.7630 C   0  0  0  0  0  0  0  0  0  0  0  0
  -13.6840  -32.7000   15.7070 C   0  0  0  0  0  0  0  0  0  0  0  0
  -17.2250  -32.6190   27.4620 N   0  0  0  0  0  0  0  0  0  0  0  0
  -11.1180  -33.5820   11.4380 C   0  0  0  0  0  0  0  0  0  0  0  0
  -12.1840  -34.4020   11.7970 C   0  0  0  0  0  0  0  0  0  0  0  0
  -13.1180  -34.0200   12.7750 C   0  0  0  0  0  0  0  0  0  0  0  0
  -14.2320  -34.9960   13.0690 C   0  0  0  0  0  0  0  0  0  0  0  0
  -15.6460  -32.3100   21.4020 C   0  0  0  0  0  0  0  0  0  0  0  0
  -16.2490  -32.1330   22.6300 C   0  0  0  0  0  0  0  0  0  0  0  0
  -15.5680  -32.6210   23.7500 C   0  0  0  0  0  0  0  0  0  0  0  0
  -13.8100  -33.3990   22.4750 C   0  0  0  0  0  0  0  0  0  0  0  0
  -12.4670  -34.0870   22.3750 C   0  0  0  0  0  0  0  0  0  0  0  0
  -17.0310  -31.4930   25.3120 C   0  0  0  0  0  0  0  0  0  0  0  0
  -15.4950  -33.4820   25.9880 C   0  0  0  0  0  0  0  0  0  0  0  0
  -17.8800  -32.4050   28.7480 C   0  0  0  0  0  0  0  0  0  0  0  0
  -17.4660  -31.0020   29.1670 C   0  0  0  0  0  0  0  0  0  0  0  0
  -16.2580  -31.8720   20.2470 N   0  0  0  0  0  0  0  0  0  0  0  0
  -15.7740  -32.0060   18.9750 C   0  0  0  0  0  0  0  0  0  0  0  0
  -16.5470  -31.6610   17.9280 N   0  0  0  0  0  0  0  0  0  0  0  0
  -14.1900  -32.6020   18.4410 S   0  0  0  0  0  0  0  0  0  0  0  0
  -13.9200  -32.4190   14.4100 N   0  0  0  0  0  0  0  0  0  0  0  0
  -13.0260  -32.8010   13.4330 C   0  0  0  0  0  0  0  0  0  0  0  0
  -11.9430  -31.9870   13.0660 C   0  0  0  0  0  0  0  0  0  0  0  0
  -11.0050  -32.3540   12.0880 C   0  0  0  0  0  0  0  0  0  0  0  0
  -11.7180  -30.3930   13.8430 Cl  0  0  0  0  0  0  0  0  0  0  0  0
  -12.6640  -33.2420   16.0930 O   0  0  0  0  0  0  0  0  0  0  0  0
  -14.3770  -33.2380   23.6790 N   0  0  0  0  0  0  0  0  0  0  0  0
  -14.4540  -32.9360   21.3760 N   0  0  0  0  0  0  0  0  0  0  0  0
  -16.0490  -32.5090   25.0210 N   0  0  0  0  0  0  0  0  0  0  0  0
  -17.9660  -32.1760   26.2790 C   0  0  0  0  0  0  0  0  0  0  0  0
  -15.8470  -33.0940   27.4160 C   0  0  0  0  0  0  0  0  0  0  0  0
  -18.5480  -30.1230   28.8000 O   0  0  0  0  0  0  0  0  0  0  0  0
  -44.5661  -17.7082    0.3654 H   0  0  0  0  0  0  0  0  0  0  0  0
  -45.2316  -17.6311    2.0587 H   0  0  0  0  0  0  0  0  0  0  0  0
  -43.8083  -16.7713    2.7989 H   0  0  0  0  0  0  0  0  0  0  0  0
  -42.7450  -17.6934    3.2857 H   0  0  0  0  0  0  0  0  0  0  0  0
  -38.6025  -21.2538    4.4572 H   0  0  0  0  0  0  0  0  0  0  0  0
  -39.5661  -22.6856    3.7651 H   0  0  0  0  0  0  0  0  0  0  0  0
  -41.1181  -22.1694    4.8863 H   0  0  0  0  0  0  0  0  0  0  0  0
  -40.1877  -20.6043    5.4095 H   0  0  0  0  0  0  0  0  0  0  0  0
  -42.1299  -21.2744    3.6730 H   0  0  0  0  0  0  0  0  0  0  0  0
  -42.4954  -20.1521    6.0004 H   0  0  0  0  0  0  0  0  0  0  0  0
  -43.1323  -19.0495    4.7334 H   0  0  0  0  0  0  0  0  0  0  0  0
  -43.6012  -20.7835    4.7334 H   0  0  0  0  0  0  0  0  0  0  0  0
  -45.3571  -12.2843    2.0792 H   0  0  0  0  0  0  0  0  0  0  0  0
  -45.5566  -11.3447   -0.4261 H   0  0  0  0  0  0  0  0  0  0  0  0
  -46.3921  -11.1945    1.2260 H   0  0  0  0  0  0  0  0  0  0  0  0
  -45.3804   -9.9114    1.8526 H   0  0  0  0  0  0  0  0  0  0  0  0
  -43.6103  -10.8933    2.9570 H   0  0  0  0  0  0  0  0  0  0  0  0
  -41.9418  -10.8719    3.8315 H   0  0  0  0  0  0  0  0  0  0  0  0
  -41.0970  -11.6941    2.4762 H   0  0  0  0  0  0  0  0  0  0  0  0
  -41.2661   -9.9058    2.4762 H   0  0  0  0  0  0  0  0  0  0  0  0
  -47.1163   -9.1230   -0.6622 H   0  0  0  0  0  0  0  0  0  0  0  0
  -47.3393   -9.3844    1.0683 H   0  0  0  0  0  0  0  0  0  0  0  0
  -44.5029   -7.1423    1.4365 H   0  0  0  0  0  0  0  0  0  0  0  0
  -43.4469   -7.9769    0.2562 H   0  0  0  0  0  0  0  0  0  0  0  0
  -47.2447   -6.4182   -2.4148 H   0  0  0  0  0  0  0  0  0  0  0  0
  -48.1876   -5.6140   -1.1436 H   0  0  0  0  0  0  0  0  0  0  0  0
  -45.3866   -4.7363   -2.0910 H   0  0  0  0  0  0  0  0  0  0  0  0
  -46.9025   -3.9614   -2.6046 H   0  0  0  0  0  0  0  0  0  0  0  0
  -46.2100  -13.6347    1.4708 H   0  0  0  0  0  0  0  0  0  0  0  0
  -45.1338  -14.7840    2.2220 H   0  0  0  0  0  0  0  0  0  0  0  0
  -45.6020  -15.9968   -0.0365 H   0  0  0  0  0  0  0  0  0  0  0  0
  -43.3326  -19.2652    2.7457 H   0  0  0  0  0  0  0  0  0  0  0  0
  -42.0495  -20.7663    2.3968 H   0  0  0  0  0  0  0  0  0  0  0  0
  -39.8201  -19.3843    2.4541 H   0  0  0  0  0  0  0  0  0  0  0  0
  -38.4132  -20.5355    2.5572 H   0  0  0  0  0  0  0  0  0  0  0  0
  -39.4281  -22.0050    1.9694 H   0  0  0  0  0  0  0  0  0  0  0  0
  -41.3002  -17.1646    3.6720 H   0  0  0  0  0  0  0  0  0  0  0  0
  -43.0118   -9.3965    0.9223 H   0  0  0  0  0  0  0  0  0  0  0  0
  -43.7816  -12.5993    2.7172 H   0  0  0  0  0  0  0  0  0  0  0  0
  -46.9134   -6.9615    1.5020 H   0  0  0  0  0  0  0  0  0  0  0  0
  -48.2377   -7.1446    0.3109 H   0  0  0  0  0  0  0  0  0  0  0  0
  -44.7100   -7.1102   -1.6183 H   0  0  0  0  0  0  0  0  0  0  0  0
  -44.4366   -5.7225   -0.5294 H   0  0  0  0  0  0  0  0  0  0  0  0
  -46.4222   -4.3626    0.2099 H   0  0  0  0  0  0  0  0  0  0  0  0
  -15.9456  -30.8570   16.1847 H   0  0  0  0  0  0  0  0  0  0  0  0
  -16.5859  -32.5630   16.1464 H   0  0  0  0  0  0  0  0  0  0  0  0
  -15.0705  -33.3640   16.7406 H   0  0  0  0  0  0  0  0  0  0  0  0
  -14.1727  -33.6778   15.5841 H   0  0  0  0  0  0  0  0  0  0  0  0
  -10.1914  -34.1430   11.6295 H   0  0  0  0  0  0  0  0  0  0  0  0
  -11.3029  -33.3261   10.3843 H   0  0  0  0  0  0  0  0  0  0  0  0
  -12.7580  -34.5825   10.8762 H   0  0  0  0  0  0  0  0  0  0  0  0
  -11.6736  -35.2476   12.2812 H   0  0  0  0  0  0  0  0  0  0  0  0
  -13.7373  -33.5469   11.9987 H   0  0  0  0  0  0  0  0  0  0  0  0
  -14.3506  -35.0999   14.1576 H   0  0  0  0  0  0  0  0  0  0  0  0
  -15.1703  -34.6240   12.6318 H   0  0  0  0  0  0  0  0  0  0  0  0
  -13.9866  -35.9751   12.6318 H   0  0  0  0  0  0  0  0  0  0  0  0
  -16.1455  -33.2844   21.2972 H   0  0  0  0  0  0  0  0  0  0  0  0
  -16.3943  -31.0524   22.7752 H   0  0  0  0  0  0  0  0  0  0  0  0
  -17.1754  -32.7240   22.5802 H   0  0  0  0  0  0  0  0  0  0  0  0
  -16.0766  -33.5898   23.6371 H   0  0  0  0  0  0  0  0  0  0  0  0
  -14.3155  -34.3700   22.3668 H   0  0  0  0  0  0  0  0  0  0  0  0
  -12.0803  -34.2851   23.3856 H   0  0  0  0  0  0  0  0  0  0  0  0
  -12.5814  -35.0375   21.8333 H   0  0  0  0  0  0  0  0  0  0  0  0
  -11.7624  -33.4388   21.8333 H   0  0  0  0  0  0  0  0  0  0  0  0
  -16.5610  -30.6125   25.7745 H   0  0  0  0  0  0  0  0  0  0  0  0
  -17.5419  -31.1198   24.4122 H   0  0  0  0  0  0  0  0  0  0  0  0
  -15.9098  -34.4780   25.7735 H   0  0  0  0  0  0  0  0  0  0  0  0
  -14.3996  -33.4902   25.8875 H   0  0  0  0  0  0  0  0  0  0  0  0
  -18.9729  -32.4710   28.6419 H   0  0  0  0  0  0  0  0  0  0  0  0
  -17.5915  -33.1623   29.4918 H   0  0  0  0  0  0  0  0  0  0  0  0
  -17.2994  -30.9647   30.2537 H   0  0  0  0  0  0  0  0  0  0  0  0
  -16.5291  -30.7026   28.6745 H   0  0  0  0  0  0  0  0  0  0  0  0
  -17.1763  -32.3383   20.2358 H   0  0  0  0  0  0  0  0  0  0  0  0
  -16.1722  -33.0305   18.9314 H   0  0  0  0  0  0  0  0  0  0  0  0
  -16.7941  -30.6662   18.0294 H   0  0  0  0  0  0  0  0  0  0  0  0
  -14.8206  -32.8590   14.1729 H   0  0  0  0  0  0  0  0  0  0  0  0
  -13.6660  -32.3391   12.6668 H   0  0  0  0  0  0  0  0  0  0  0  0
  -11.3228  -32.4634   13.8396 H   0  0  0  0  0  0  0  0  0  0  0  0
  -10.0184  -32.3421   12.5743 H   0  0  0  0  0  0  0  0  0  0  0  0
  -11.1818  -31.6254   11.2831 H   0  0  0  0  0  0  0  0  0  0  0  0
  -12.6489  -33.2500   17.0829 H   0  0  0  0  0  0  0  0  0  0  0  0
  -13.7183  -32.6944   24.2549 H   0  0  0  0  0  0  0  0  0  0  0  0
  -14.5835  -33.7546   20.7645 H   0  0  0  0  0  0  0  0  0  0  0  0
  -18.4247  -33.0474   25.7887 H   0  0  0  0  0  0  0  0  0  0  0  0
  -18.7487  -31.4672   26.5870 H   0  0  0  0  0  0  0  0  0  0  0  0
  -15.1717  -32.2953   27.7566 H   0  0  0  0  0  0  0  0  0  0  0  0
  -15.7375  -33.9696   28.0728 H   0  0  0  0  0  0  0  0  0  0  0  0
  -18.9801  -29.7719   29.6186 H   0  0  0  0  0  0  0  0  0  0  0  0
  1  2  1  0
  2  3  1  0
  5  6  1  0
  6  7  1  0
  7  8  1  0
  9 10  1  0
 10 11  1  0
 12 13  1  0
  4 16  1  0
 16 17  1  0
  9 18  1  0
 18 19  1  0
  1 20  1  0
 19 20  1  0
  2 21  1  0
 19 21  1  0
  3 22  1  0
  7 23  1  0
 22 23  1  0
 23 24  1  0
  5 25  1  0
 24 25  1  0
 24 26  1  0
  3 27  1  0
 11 28  1  0
 12 28  1  0
  9 29  1  0
 12 29  1  0
 11 30  1  0
 14 30  1  0
 15 30  1  0
  4 31  1  0
 14 31  1  0
  4 32  1  0
 15 32  1  0
 17 33  1  0
 34 35  1  0
 35 36  1  0
 38 39  1  0
 39 40  1  0
 40 41  1  0
 42 43  1  0
 43 44  1  0
 45 46  1  0
 37 49  1  0
 49 50  1  0
 42 51  1  0
 51 52  1  0
 34 53  1  0
 52 53  1  0
 35 54  1  0
 52 54  1  0
 36 55  1  0
 40 56  1  0
 55 56  1  0
 56 57  1  0
 38 58  1  0
 57 58  1  0
 57 59  1  0
 36 60  1  0
 44 61  1  0
 45 61  1  0
 42 62  1  0
 45 62  1  0
 44 63  1  0
 47 63  1  0
 48 63  1  0
 37 64  1  0
 47 64  1  0
 37 65  1  0
 48 65  1  0
 50 66  1  0
  1 67  1  0
  1 68  1  0
  2 69  1  0
  3 70  1  0
  5 71  1  0
  5 72  1  0
  6 73  1  0
  6 74  1  0
  7 75  1  0
  8 76  1  0
  8 77  1  0
  8 78  1  0
  9 79  1  0
 10 80  1  0
 10 81  1  0
 11 82  1  0
 12 83  1  0
 13 84  1  0
 13 85  1  0
 13 86  1  0
 14 87  1  0
 14 88  1  0
 15 89  1  0
 15 90  1  0
 16 91  1  0
 16 92  1  0
 17 93  1  0
 17 94  1  0
 18 95  1  0
 19 96  1  0
 20 97  1  0
 22 98  1  0
 23 99  1  0
 24100  1  0
 25101  1  0
 25102  1  0
 27103  1  0
 28104  1  0
 29105  1  0
 31106  1  0
 31107  1  0
 32108  1  0
 32109  1  0
 33110  1  0
 34111  1  0
 34112  1  0
 35113  1  0
 36114  1  0
 38115  1  0
 38116  1  0
 39117  1  0
 39118  1  0
 40119  1  0
 41120  1  0
 41121  1  0
 41122  1  0
 42123  1  0
 43124  1  0
 43125  1  0
 44126  1  0
 45127  1  0
 46128  1  0
 46129  1  0
 46130  1  0
 47131  1  0
 47132  1  0
 48133  1  0
 48134  1  0
 49135  1  0
 49136  1  0
 50137  1  0
 50138  1  0
 51139  1  0
 52140  1  0
 53141  1  0
 55142  1  0
 56143  1  0
 57144  1  0
 58145  1  0
 58146  1  0
 60147  1  0
 61148  1  0
 62149  1  0
 64150  1  0
 64151  1  0
 65152  1  0
 65153  1  0
 66154  1  0
M  END
>  <PDBID>  (1) 
4XEY

>  <PDB ID>  (1) 
4XEY

>  <Generic Name>  (1) 
Dasatinib

>  <Brand Name>  (1) 
Sprycel

>  <DrugBank ID>  (1) 
DB01254

>  <ATC Codes>  (1) 
L01XE06

>  <Ligand ID>  (1) 
1N1

>  <Target Name>  (1) 
Tyrosine-protein kinase ABL1

>  <UniProt ID>  (1) 
P00519

>  <PDB ID.1>  (1) 
4XEY

>  <Seq. Identity>  (1) 
96%

$$$$
