PDB_DB01030_97
     RDKit          3D

 54 58  0  0  0  0  0  0  0  0999 V2000
   19.2280    1.7910   29.5160 C   0  0  0  0  0  0  0  0  0  0  0  0
   18.3620    0.8180   30.3680 C   0  0  0  0  0  0  0  0  0  0  0  0
   19.6460    1.2640   28.0940 C   0  0  2  0  0  0  0  0  0  0  0  0
   18.5150    0.8760   27.3430 O   0  0  0  0  0  0  0  0  0  0  0  0
   20.6940    0.1260   28.2170 C   0  0  0  0  0  0  0  0  0  0  0  0
   20.3590    2.4190   27.2770 C   0  0  0  0  0  0  0  0  0  0  0  0
   22.0430    0.3520   28.2850 C   0  0  0  0  0  0  0  0  0  0  0  0
   20.3200   -1.2390   28.2310 C   0  0  0  0  0  0  0  0  0  0  0  0
   19.7280    3.1760   26.5050 O   0  0  0  0  0  0  0  0  0  0  0  0
   21.6360    2.6300   27.3630 O   0  0  0  0  0  0  0  0  0  0  0  0
   23.0820   -0.7700   28.3890 C   0  0  0  0  0  0  0  0  0  0  0  0
   22.5000    1.8050   28.2460 C   0  0  0  0  0  0  0  0  0  0  0  0
   21.2630   -2.2940   28.3250 C   0  0  0  0  0  0  0  0  0  0  0  0
   24.2800   -0.5280   28.4400 O   0  0  0  0  0  0  0  0  0  0  0  0
   22.5840   -2.0430   28.3890 N   0  0  0  0  0  0  0  0  0  0  0  0
   21.0230   -3.6760   28.3210 C   0  0  0  0  0  0  0  0  0  0  0  0
   23.4000   -3.3000   28.4690 C   0  0  0  0  0  0  0  0  0  0  0  0
   22.3210   -4.3690   28.4100 C   0  0  0  0  0  0  0  0  0  0  0  0
   19.8700   -4.3580   28.2400 N   0  0  0  0  0  0  0  0  0  0  0  0
   22.3760   -5.7380   28.4160 C   0  0  0  0  0  0  0  0  0  0  0  0
   19.9000   -5.7780   28.2300 C   0  0  0  0  0  0  0  0  0  0  0  0
   21.1370   -6.5070   28.3130 C   0  0  0  0  0  0  0  0  0  0  0  0
   18.6830   -6.4390   28.1180 C   0  0  0  0  0  0  0  0  0  0  0  0
   21.0950   -7.9510   28.2950 C   0  0  0  0  0  0  0  0  0  0  0  0
   18.6500   -7.8480   28.0900 C   0  0  0  0  0  0  0  0  0  0  0  0
   19.8280   -8.6030   28.1740 C   0  0  0  0  0  0  0  0  0  0  0  0
   22.3410   -8.8720   28.3860 C   0  0  0  0  0  0  0  0  0  0  0  0
   22.6720   -9.5990   27.1250 N   0  0  0  0  0  0  0  0  0  0  0  0
   23.7480   -8.8880   26.3670 C   0  0  0  0  0  0  0  0  0  0  0  0
   23.0720  -11.0170   27.4320 C   0  0  0  0  0  0  0  0  0  0  0  0
   19.6730   -9.9760   28.1360 O   0  0  0  0  0  0  0  0  0  0  0  0
   18.6555    2.7200   29.3774 H   0  0  0  0  0  0  0  0  0  0  0  0
   20.1663    1.9247   30.0742 H   0  0  0  0  0  0  0  0  0  0  0  0
   18.5354    1.0128   31.4366 H   0  0  0  0  0  0  0  0  0  0  0  0
   17.2984    0.9739   30.1348 H   0  0  0  0  0  0  0  0  0  0  0  0
   18.6402   -0.2204   30.1348 H   0  0  0  0  0  0  0  0  0  0  0  0
   17.7811    0.6242   27.9579 H   0  0  0  0  0  0  0  0  0  0  0  0
   19.2516   -1.4925   28.1662 H   0  0  0  0  0  0  0  0  0  0  0  0
   22.4646    2.2172   29.2652 H   0  0  0  0  0  0  0  0  0  0  0  0
   23.5240    1.8314   27.8451 H   0  0  0  0  0  0  0  0  0  0  0  0
   24.0940   -3.3828   27.6196 H   0  0  0  0  0  0  0  0  0  0  0  0
   24.0420   -3.3608   29.3601 H   0  0  0  0  0  0  0  0  0  0  0  0
   23.3440   -6.2540   28.4976 H   0  0  0  0  0  0  0  0  0  0  0  0
   17.7475   -5.8642   28.0513 H   0  0  0  0  0  0  0  0  0  0  0  0
   17.6827   -8.3641   28.0007 H   0  0  0  0  0  0  0  0  0  0  0  0
   23.2066   -8.2514   28.6612 H   0  0  0  0  0  0  0  0  0  0  0  0
   22.1048   -9.6415   29.1357 H   0  0  0  0  0  0  0  0  0  0  0  0
   24.4502   -8.4240   27.0753 H   0  0  0  0  0  0  0  0  0  0  0  0
   24.2877   -9.6079   25.7342 H   0  0  0  0  0  0  0  0  0  0  0  0
   23.2974   -8.1092   25.7342 H   0  0  0  0  0  0  0  0  0  0  0  0
   23.1120  -11.1589   28.5221 H   0  0  0  0  0  0  0  0  0  0  0  0
   22.3338  -11.7081   26.9992 H   0  0  0  0  0  0  0  0  0  0  0  0
   24.0626  -11.2204   26.9992 H   0  0  0  0  0  0  0  0  0  0  0  0
   18.7687  -10.3699   28.0509 H   0  0  0  0  0  0  0  0  0  0  0  0
  1  2  1  0
  1  3  1  0
  3  4  1  6
  3  5  1  0
  3  6  1  0
  5  7  2  0
  5  8  1  0
  6  9  2  0
  6 10  1  0
  7 11  1  0
  7 12  1  0
 10 12  1  0
  8 13  2  0
 11 14  2  0
 11 15  1  0
 13 15  1  0
 13 16  1  0
 15 17  1  0
 16 18  2  0
 17 18  1  0
 16 19  1  0
 18 20  1  0
 19 21  2  0
 20 22  2  0
 21 22  1  0
 21 23  1  0
 22 24  1  0
 23 25  2  0
 24 26  2  0
 25 26  1  0
 24 27  1  0
 27 28  1  0
 28 29  1  0
 28 30  1  0
 26 31  1  0
  1 32  1  0
  1 33  1  0
  2 34  1  0
  2 35  1  0
  2 36  1  0
  4 37  1  0
  8 38  1  0
 12 39  1  0
 12 40  1  0
 17 41  1  0
 17 42  1  0
 20 43  1  0
 23 44  1  0
 25 45  1  0
 27 46  1  0
 27 47  1  0
 29 48  1  0
 29 49  1  0
 29 50  1  0
 30 51  1  0
 30 52  1  0
 30 53  1  0
 31 54  1  0
M  END
>  <PDBID>  (1) 
1RR8

>  <PDB ID>  (1) 
1RR8

>  <Generic Name>  (1) 
Topotecan

>  <Brand Name>  (1) 
Act Topotecan#Hycamtin#Mylan-topotecan Hydrochloride for Injection#PMS-topotecan#Topotecan#Topotecan Hydrochloride#Topotecan Hydrochloride for Injection#Topotecan Injection#Topotecan for Injection

>  <DrugBank ID>  (1) 
DB01030

>  <ATC Codes>  (1) 
L01XX17

>  <Ligand ID>  (1) 
TTC

>  <Target Name>  (1) 
DNA topoisomerase 1

>  <UniProt ID>  (1) 
P11387

>  <PDB ID.1>  (1) 
1RR8

>  <Seq. Identity>  (1) 
92%

$$$$
