PDB_DB00819_97
     RDKit          3D

 19 19  0  0  0  0  0  0  0  0999 V2000
   17.4420   -0.1720   21.3570 C   0  0  0  0  0  0  0  0  0  0  0  0
   17.8780    1.2550   19.3900 C   0  0  0  0  0  0  0  0  0  0  0  0
   18.5030    2.1480   17.1140 C   0  0  0  0  0  0  0  0  0  0  0  0
   18.5980    3.3480   16.2270 C   0  0  0  0  0  0  0  0  0  0  0  0
   15.6300   -1.7150   22.8660 N   0  0  0  0  0  0  0  0  0  0  0  0
   18.2200   -0.0780   19.1570 N   0  0  0  0  0  0  0  0  0  0  0  0
   17.9580   -0.9380   20.3180 N   0  0  0  0  0  0  0  0  0  0  0  0
   18.0090    2.3450   18.4520 N   0  0  0  0  0  0  0  0  0  0  0  0
   17.8700   -0.3420   24.0030 O   0  0  0  0  0  0  0  0  0  0  0  0
   16.0720    0.2740   23.5490 O   0  0  0  0  0  0  0  0  0  0  0  0
   18.8400    1.0330   16.6860 O   0  0  0  0  0  0  0  0  0  0  0  0
   16.9520   -0.7630   22.9540 S   0  0  0  0  0  0  0  0  0  0  0  0
   17.2770    1.4170   20.9220 S   0  0  0  0  0  0  0  0  0  0  0  0
   18.6698    4.2556   16.8444 H   0  0  0  0  0  0  0  0  0  0  0  0
   19.4924    3.2647   15.5920 H   0  0  0  0  0  0  0  0  0  0  0  0
   17.7017    3.4065   15.5920 H   0  0  0  0  0  0  0  0  0  0  0  0
   15.3093   -1.9459   23.8172 H   0  0  0  0  0  0  0  0  0  0  0  0
   14.8816   -1.2176   22.3626 H   0  0  0  0  0  0  0  0  0  0  0  0
   17.7405    3.2938   18.7496 H   0  0  0  0  0  0  0  0  0  0  0  0
  3  4  1  0
  2  6  2  0
  1  7  2  0
  6  7  1  0
  2  8  1  0
  3  8  1  0
  3 11  2  0
  1 12  1  0
  5 12  1  0
  9 12  2  0
 12 10  2  0
  1 13  1  0
  2 13  1  0
  4 14  1  0
  4 15  1  0
  4 16  1  0
  5 17  1  0
  5 18  1  0
  8 19  1  0
M  END
$$$$
