PDB_DB00966_99
     RDKit          3D

 69 74  0  0  0  0  0  0  0  0999 V2000
   47.0550   19.5180   26.9820 C   0  0  0  0  0  0  0  0  0  0  0  0
   47.5010   19.2310   25.7230 N   0  0  0  0  0  0  0  0  0  0  0  0
   47.1050   18.3040   27.6280 C   0  0  0  0  0  0  0  0  0  0  0  0
   46.6480   20.7080   27.5530 C   0  0  0  0  0  0  0  0  0  0  0  0
   47.8020   17.8890   25.6520 C   0  0  0  0  0  0  0  0  0  0  0  0
   47.6630   20.1930   24.6160 C   0  0  0  0  0  0  0  0  0  0  0  0
   47.5600   17.3060   26.8080 N   0  0  0  0  0  0  0  0  0  0  0  0
   46.7180   18.2300   28.9430 C   0  0  0  0  0  0  0  0  0  0  0  0
   46.2750   20.6500   28.8750 C   0  0  0  0  0  0  0  0  0  0  0  0
   48.2980   17.2720   24.3740 C   0  0  0  0  0  0  0  0  0  0  0  0
   46.6380   21.2680   24.6220 C   0  0  0  0  0  0  0  0  0  0  0  0
   46.3140   19.4210   29.5180 C   0  0  0  0  0  0  0  0  0  0  0  0
   46.7370   16.9560   29.6900 C   0  0  0  0  0  0  0  0  0  0  0  0
   45.8340   21.8920   29.5340 C   0  0  0  0  0  0  0  0  0  0  0  0
   49.3860   16.2290   24.4080 C   0  0  0  0  0  0  0  0  0  0  0  0
   45.4090   20.9920   24.0660 C   0  0  0  0  0  0  0  0  0  0  0  0
   46.9190   22.5070   25.1590 C   0  0  0  0  0  0  0  0  0  0  0  0
   45.4810   21.9880   30.8550 N   0  0  0  0  0  0  0  0  0  0  0  0
   45.6520   23.0890   28.9990 N   0  0  0  0  0  0  0  0  0  0  0  0
   50.6600   17.0220   24.3860 C   0  0  0  0  0  0  0  0  0  0  0  0
   44.4420   21.9590   24.0620 C   0  0  0  0  0  0  0  0  0  0  0  0
   45.9200   23.4510   25.1640 C   0  0  0  0  0  0  0  0  0  0  0  0
   45.0460   23.2380   31.1780 C   0  0  0  0  0  0  0  0  0  0  0  0
   45.5470   20.9220   31.8160 C   0  0  0  0  0  0  0  0  0  0  0  0
   45.1730   23.9180   29.9920 C   0  0  0  0  0  0  0  0  0  0  0  0
   44.6730   23.1990   24.6180 C   0  0  0  0  0  0  0  0  0  0  0  0
   44.5790   23.7700   32.3650 C   0  0  0  0  0  0  0  0  0  0  0  0
   44.7950   25.2480   29.9660 C   0  0  0  0  0  0  0  0  0  0  0  0
   43.5870   24.1580   24.7220 C   0  0  0  0  0  0  0  0  0  0  0  0
   44.2260   25.0960   32.3080 C   0  0  0  0  0  0  0  0  0  0  0  0
   44.3360   25.8090   31.1380 C   0  0  0  0  0  0  0  0  0  0  0  0
   42.4780   24.1840   23.9030 C   0  0  0  0  0  0  0  0  0  0  0  0
   43.6040   25.0640   25.7640 C   0  0  0  0  0  0  0  0  0  0  0  0
   41.4630   25.0800   24.1610 C   0  0  0  0  0  0  0  0  0  0  0  0
   42.3000   23.2730   22.7540 C   0  0  0  0  0  0  0  0  0  0  0  0
   42.6040   25.9790   26.0140 C   0  0  0  0  0  0  0  0  0  0  0  0
   41.5050   25.9770   25.2010 C   0  0  0  0  0  0  0  0  0  0  0  0
   41.1380   22.8040   22.6810 O   0  0  0  0  0  0  0  0  0  0  0  0
   43.2620   23.0310   21.9660 O   0  0  0  0  0  0  0  0  0  0  0  0
   46.6237   21.6483   26.9827 H   0  0  0  0  0  0  0  0  0  0  0  0
   48.6570   20.6569   24.6983 H   0  0  0  0  0  0  0  0  0  0  0  0
   47.5454   19.6336   23.6762 H   0  0  0  0  0  0  0  0  0  0  0  0
   47.4277   16.8060   23.8888 H   0  0  0  0  0  0  0  0  0  0  0  0
   48.7766   18.1168   23.8569 H   0  0  0  0  0  0  0  0  0  0  0  0
   45.9977   19.3917   30.5711 H   0  0  0  0  0  0  0  0  0  0  0  0
   46.7339   17.1642   30.7701 H   0  0  0  0  0  0  0  0  0  0  0  0
   45.8476   16.3641   29.4281 H   0  0  0  0  0  0  0  0  0  0  0  0
   47.6437   16.3909   29.4281 H   0  0  0  0  0  0  0  0  0  0  0  0
   49.3185   15.6252   25.3250 H   0  0  0  0  0  0  0  0  0  0  0  0
   49.3166   15.5215   23.5686 H   0  0  0  0  0  0  0  0  0  0  0  0
   45.2068   20.0029   23.6291 H   0  0  0  0  0  0  0  0  0  0  0  0
   47.9135   22.7330   25.5712 H   0  0  0  0  0  0  0  0  0  0  0  0
   50.9842   17.2238   25.4176 H   0  0  0  0  0  0  0  0  0  0  0  0
   51.4394   16.4492   23.8621 H   0  0  0  0  0  0  0  0  0  0  0  0
   50.4902   17.9742   23.8621 H   0  0  0  0  0  0  0  0  0  0  0  0
   43.4637   21.7437   23.6076 H   0  0  0  0  0  0  0  0  0  0  0  0
   46.1169   24.4349   25.6147 H   0  0  0  0  0  0  0  0  0  0  0  0
   45.5210   21.3423   32.8322 H   0  0  0  0  0  0  0  0  0  0  0  0
   44.6888   20.2483   31.6758 H   0  0  0  0  0  0  0  0  0  0  0  0
   46.4817   20.3593   31.6758 H   0  0  0  0  0  0  0  0  0  0  0  0
   44.4962   23.1756   33.2868 H   0  0  0  0  0  0  0  0  0  0  0  0
   44.8586   25.8387   29.0402 H   0  0  0  0  0  0  0  0  0  0  0  0
   43.8493   25.5953   33.2129 H   0  0  0  0  0  0  0  0  0  0  0  0
   44.0460   26.8701   31.1372 H   0  0  0  0  0  0  0  0  0  0  0  0
   44.4726   25.0549   26.4388 H   0  0  0  0  0  0  0  0  0  0  0  0
   40.5799   25.0769   23.5051 H   0  0  0  0  0  0  0  0  0  0  0  0
   42.6881   26.6928   26.8467 H   0  0  0  0  0  0  0  0  0  0  0  0
   40.6743   26.6767   25.3752 H   0  0  0  0  0  0  0  0  0  0  0  0
   40.9011   22.1801   21.9498 H   0  0  0  0  0  0  0  0  0  0  0  0
  1  2  1  0
  1  3  1  0
  1  4  2  0
  2  5  1  0
  2  6  1  0
  3  7  1  0
  5  7  2  0
  3  8  2  0
  4  9  1  0
  5 10  1  0
  6 11  1  0
  8 12  1  0
  9 12  2  0
  8 13  1  0
  9 14  1  0
 10 15  1  0
 11 16  2  0
 11 17  1  0
 14 18  1  0
 14 19  2  0
 15 20  1  0
 16 21  1  0
 17 22  2  0
 18 23  1  0
 18 24  1  0
 19 25  1  0
 23 25  2  0
 21 26  2  0
 22 26  1  0
 23 27  1  0
 25 28  1  0
 26 29  1  0
 27 30  2  0
 28 31  2  0
 30 31  1  0
 29 32  2  0
 29 33  1  0
 32 34  1  0
 32 35  1  0
 33 36  2  0
 34 37  2  0
 36 37  1  0
 35 38  1  0
 35 39  2  0
  4 40  1  0
  6 41  1  0
  6 42  1  0
 10 43  1  0
 10 44  1  0
 12 45  1  0
 13 46  1  0
 13 47  1  0
 13 48  1  0
 15 49  1  0
 15 50  1  0
 16 51  1  0
 17 52  1  0
 20 53  1  0
 20 54  1  0
 20 55  1  0
 21 56  1  0
 22 57  1  0
 24 58  1  0
 24 59  1  0
 24 60  1  0
 27 61  1  0
 28 62  1  0
 30 63  1  0
 31 64  1  0
 33 65  1  0
 34 66  1  0
 36 67  1  0
 37 68  1  0
 38 69  1  0
M  END
>  <PDBID>  (1) 
3VN2

>  <PDB ID>  (1) 
3VN2

>  <Generic Name>  (1) 
Telmisartan

>  <Brand Name>  (1) 
Ach-telmisartan Hctz#Act Telmisartan#Act Telmisartan/hct#Apo-telmisartan#Apo-telmisartan/hctz#Auro-telmisartan#Auro-telmisartan Hctz#Mar-telmisartan#Micardis#Micardis 40mg Tab#Micardis 80mg Tab#Micardis Hct#Micardis Plus#Mylan-telmisartan#Mylan-telmisartan Hctz#Ntp-telmisartan#Ntp-telmisartan Hctz#PMS-telmisartan#PMS-telmisartan-hctz#Pendo-telmisartan#Pendo-telmisartan-hctz#Ran-telmisartan#Ran-telmisartan Hctz#Sandoz Telmisartan#Sandoz Telmisartan Hct#Septa-telmisartan#Telmisartan#Telmisartan Hctz#Telmisartan Tablets#Telmisartan and Amlodipine#Telmisartan and Hydrochlorothiazide#Telmisartan and Hydrochlorothiazide 40 Mg/12.5 mg#Telmisartan and Hydrochlorothiazide 80 Mg/12.5 mg#Telmisartan and Hydrochlorothiazide 80 Mg/25 mg#Telmisartan and Hydrochlorthiazide#Telmisartan-hctz#Telmisartan/hctz#Teva-telmisartan#Teva-telmisartan Hctz#Torrent-telmisartan#Torrent-telmisartan and Hydrochlorothiazide#Twynsta#Van-telmisartan#Van-telmisartan-hctz#Zinda-telmisartan#Zinda-telmisartan/ Hctz#Pritor

>  <DrugBank ID>  (1) 
DB00966

>  <ATC Codes>  (1) 
C09DB04#C09DA07#C09CA07

>  <Ligand ID>  (1) 
TLS

>  <Target Name>  (1) 
Peroxisome proliferator-activated receptor gamma

>  <UniProt ID>  (1) 
P37231

>  <PDB ID.1>  (1) 
3VN2

>  <Seq. Identity>  (1) 
95%

$$$$
