PDB_DB01041_93
     RDKit          3D

 29 31  0  0  0  0  0  0  0  0999 V2000
   22.2040   15.4230   25.7030 O   0  0  0  0  0  0  0  0  0  0  0  0
   22.8240   14.3130   26.0070 C   0  0  0  0  0  0  0  0  0  0  0  0
   22.4540   13.1690   25.5300 N   0  0  0  0  0  0  0  0  0  0  0  0
   23.0870   12.0980   25.8380 C   0  0  0  0  0  0  0  0  0  0  0  0
   22.7510   11.0530   25.2490 O   0  0  0  0  0  0  0  0  0  0  0  0
   24.2740   12.0520   26.7250 C   0  0  0  0  0  0  0  0  0  0  0  0
   24.1730   13.1420   27.7520 C   0  0  0  0  0  0  0  0  0  0  0  0
   24.0030   14.4190   26.9410 C   0  0  2  0  0  0  0  0  0  0  0  0
   23.7900   15.5020   27.8760 N   0  0  0  0  0  0  0  0  0  0  0  0
   23.8300   19.2080   30.6670 C   0  0  0  0  0  0  0  0  0  0  0  0
   24.6110   18.5610   29.7380 C   0  0  0  0  0  0  0  0  0  0  0  0
   24.1240   17.4150   29.1500 C   0  0  0  0  0  0  0  0  0  0  0  0
   22.8970   16.9560   29.4600 C   0  0  0  0  0  0  0  0  0  0  0  0
   25.8610   16.8050   27.5560 O   0  0  0  0  0  0  0  0  0  0  0  0
   21.6040   15.0430   28.7620 O   0  0  0  0  0  0  0  0  0  0  0  0
   22.0870   17.5710   30.4080 C   0  0  0  0  0  0  0  0  0  0  0  0
   22.5800   18.6890   31.0360 C   0  0  0  0  0  0  0  0  0  0  0  0
   22.7930   15.7760   28.7120 C   0  0  0  0  0  0  0  0  0  0  0  0
   24.5990   16.5670   28.1920 C   0  0  0  0  0  0  0  0  0  0  0  0
   21.6432   13.1183   24.8968 H   0  0  0  0  0  0  0  0  0  0  0  0
   24.3172   11.0755   27.2296 H   0  0  0  0  0  0  0  0  0  0  0  0
   25.1854   12.1955   26.1260 H   0  0  0  0  0  0  0  0  0  0  0  0
   23.3043   12.9793   28.4068 H   0  0  0  0  0  0  0  0  0  0  0  0
   25.0545   13.1792   28.4089 H   0  0  0  0  0  0  0  0  0  0  0  0
   24.8990   14.5949   26.3276 H   0  0  0  0  0  0  0  0  0  0  0  0
   24.1890   20.1414   31.1251 H   0  0  0  0  0  0  0  0  0  0  0  0
   25.6041   18.9509   29.4702 H   0  0  0  0  0  0  0  0  0  0  0  0
   21.0881   17.1769   30.6464 H   0  0  0  0  0  0  0  0  0  0  0  0
   21.9943   19.1775   31.8286 H   0  0  0  0  0  0  0  0  0  0  0  0
  1  2  2  0
  2  3  1  0
  3  4  1  0
  4  5  2  0
  4  6  1  0
  6  7  1  0
  2  8  1  0
  7  8  1  0
  8  9  1  0
 10 11  2  0
 11 12  1  0
 12 13  2  0
 13 16  1  0
 10 17  1  0
 16 17  2  0
  9 18  1  0
 13 18  1  0
 15 18  2  0
  9 19  1  0
 12 19  1  0
 14 19  2  0
  3 20  1  0
  6 21  1  0
  6 22  1  0
  7 23  1  0
  7 24  1  0
  8 25  1  6
 10 26  1  0
 11 27  1  0
 16 28  1  0
 17 29  1  0
M  END
$$$$
