PDB_DB00452_85
     RDKit          3D

 88 91  0  0  0  0  0  0  0  0999 V2000
  -96.7470    8.8700  -20.7500 C   0  0  2  0  0  0  0  0  0  0  0  0
  -97.5840    9.8850  -20.2050 O   0  0  0  0  0  0  0  0  0  0  0  0
  -95.9670    9.4500  -21.9190 C   0  0  2  0  0  0  0  0  0  0  0  0
  -95.1690   10.5690  -21.4620 N   0  0  0  0  0  0  0  0  0  0  0  0
  -96.9180    9.9170  -23.0090 C   0  0  1  0  0  0  0  0  0  0  0  0
  -96.1640   10.2810  -24.1680 O   0  0  0  0  0  0  0  0  0  0  0  0
  -97.8930    8.8080  -23.3710 C   0  0  2  0  0  0  0  0  0  0  0  0
  -98.9070    9.3350  -24.2310 O   0  0  0  0  0  0  0  0  0  0  0  0
  -98.5500    8.2240  -22.1290 C   0  0  2  0  0  0  0  0  0  0  0  0
  -97.5500    7.7900  -21.2120 O   0  0  0  0  0  0  0  0  0  0  0  0
  -99.4240    7.0380  -22.5060 C   0  0  0  0  0  0  0  0  0  0  0  0
  -98.0940   11.2550  -16.2920 C   0  0  1  0  0  0  0  0  0  0  0  0
  -98.2450   11.3370  -14.8540 N   0  0  0  0  0  0  0  0  0  0  0  0
  -96.7530   10.6230  -16.6250 C   0  0  1  0  0  0  0  0  0  0  0  0
  -96.5710   10.4670  -18.1280 C   0  0  1  0  0  0  0  0  0  0  0  0
  -95.3770    9.7230  -18.3600 O   0  0  0  0  0  0  0  0  0  0  0  0
  -97.7370    9.7490  -18.7960 C   0  0  1  0  0  0  0  0  0  0  0  0
  -99.0800   10.3450  -18.3940 C   0  0  1  0  0  0  0  0  0  0  0  0
 -100.1480    9.5290  -18.9350 N   0  0  0  0  0  0  0  0  0  0  0  0
  -99.2230   10.4220  -16.8810 C   0  0  0  0  0  0  0  0  0  0  0  0
  -94.2670   10.6020  -18.5000 C   0  0  1  0  0  0  0  0  0  0  0  0
  -92.9950    9.9820  -17.9580 C   0  0  1  0  0  0  0  0  0  0  0  0
  -91.9120   10.5530  -18.8420 C   0  0  1  0  0  0  0  0  0  0  0  0
  -92.6210   11.0440  -20.0920 C   0  0  2  0  0  0  0  0  0  0  0  0
  -94.0210   10.8720  -19.8770 O   0  0  0  0  0  0  0  0  0  0  0  0
  -92.2020   10.2450  -21.3170 C   0  0  0  0  0  0  0  0  0  0  0  0
  -87.5210   13.1880  -18.3690 C   0  0  1  0  0  0  0  0  0  0  0  0
  -87.9900   12.7500  -16.9930 C   0  0  1  0  0  0  0  0  0  0  0  0
  -89.5010   12.6000  -17.0070 C   0  0  2  0  0  0  0  0  0  0  0  0
  -89.9360   11.6680  -18.1280 C   0  0  1  0  0  0  0  0  0  0  0  0
  -91.3560   11.6780  -18.1750 O   0  0  0  0  0  0  0  0  0  0  0  0
  -88.0170   12.2080  -19.4220 C   0  0  1  0  0  0  0  0  0  0  0  0
  -89.4400   12.1480  -19.3760 O   0  0  0  0  0  0  0  0  0  0  0  0
  -87.5820   12.6480  -20.8140 C   0  0  0  0  0  0  0  0  0  0  0  0
  -98.6350    6.0970  -23.2780 N   0  0  0  0  0  0  0  0  0  0  0  0
  -92.7890   10.4010  -16.6090 O   0  0  0  0  0  0  0  0  0  0  0  0
  -87.3940   11.4930  -16.6610 O   0  0  0  0  0  0  0  0  0  0  0  0
  -88.0420   14.4890  -18.6520 O   0  0  0  0  0  0  0  0  0  0  0  0
  -92.9450   10.6970  -22.4540 O   0  0  0  0  0  0  0  0  0  0  0  0
  -95.7030   11.4460  -16.1070 O   0  0  0  0  0  0  0  0  0  0  0  0
  -88.1370   11.7400  -21.7980 N   0  0  0  0  0  0  0  0  0  0  0  0
  -90.1050   13.9000  -17.2110 N   0  0  0  0  0  0  0  0  0  0  0  0
  -96.0530    8.5059  -19.9781 H   0  0  0  0  0  0  0  0  0  0  0  0
  -95.3099    8.6693  -22.3297 H   0  0  0  0  0  0  0  0  0  0  0  0
  -95.1577   10.5848  -20.4322 H   0  0  0  0  0  0  0  0  0  0  0  0
  -94.2062   10.4707  -21.8144 H   0  0  0  0  0  0  0  0  0  0  0  0
  -97.4856   10.7845  -22.6411 H   0  0  0  0  0  0  0  0  0  0  0  0
  -95.3086   10.6939  -23.8889 H   0  0  0  0  0  0  0  0  0  0  0  0
  -97.3336    8.0082  -23.8784 H   0  0  0  0  0  0  0  0  0  0  0  0
  -99.6390    9.7154  -23.6836 H   0  0  0  0  0  0  0  0  0  0  0  0
  -99.1711    9.0025  -21.6619 H   0  0  0  0  0  0  0  0  0  0  0  0
  -99.7941    6.5477  -21.5935 H   0  0  0  0  0  0  0  0  0  0  0  0
 -100.2810    7.3826  -23.1033 H   0  0  0  0  0  0  0  0  0  0  0  0
  -98.1346   12.2661  -16.7232 H   0  0  0  0  0  0  0  0  0  0  0  0
  -97.4334   10.8963  -14.3979 H   0  0  0  0  0  0  0  0  0  0  0  0
  -98.3031   12.3256  -14.5707 H   0  0  0  0  0  0  0  0  0  0  0  0
  -96.7200    9.6231  -16.1677 H   0  0  0  0  0  0  0  0  0  0  0  0
  -96.5173   11.4749  -18.5653 H   0  0  0  0  0  0  0  0  0  0  0  0
  -97.7272    8.6954  -18.4801 H   0  0  0  0  0  0  0  0  0  0  0  0
  -99.1371   11.3667  -18.7975 H   0  0  0  0  0  0  0  0  0  0  0  0
 -100.6892    9.1155  -18.1623 H   0  0  0  0  0  0  0  0  0  0  0  0
 -100.7676   10.1140  -19.5136 H   0  0  0  0  0  0  0  0  0  0  0  0
 -100.1878   10.8869  -16.6297 H   0  0  0  0  0  0  0  0  0  0  0  0
  -99.1776    9.4058  -16.4624 H   0  0  0  0  0  0  0  0  0  0  0  0
  -94.5202   11.5160  -17.9428 H   0  0  0  0  0  0  0  0  0  0  0  0
  -93.0174    8.8822  -17.9600 H   0  0  0  0  0  0  0  0  0  0  0  0
  -91.1241    9.8207  -19.0722 H   0  0  0  0  0  0  0  0  0  0  0  0
  -92.3613   12.0971  -20.2752 H   0  0  0  0  0  0  0  0  0  0  0  0
  -91.1269   10.3893  -21.4997 H   0  0  0  0  0  0  0  0  0  0  0  0
  -92.4029    9.1770  -21.1466 H   0  0  0  0  0  0  0  0  0  0  0  0
  -86.4214   13.2129  -18.3869 H   0  0  0  0  0  0  0  0  0  0  0  0
  -87.6958   13.5026  -16.2467 H   0  0  0  0  0  0  0  0  0  0  0  0
  -89.8243   12.1748  -16.0454 H   0  0  0  0  0  0  0  0  0  0  0  0
  -89.5484   10.6547  -17.9465 H   0  0  0  0  0  0  0  0  0  0  0  0
  -87.5868   11.2178  -19.2114 H   0  0  0  0  0  0  0  0  0  0  0  0
  -87.9465   13.6676  -21.0079 H   0  0  0  0  0  0  0  0  0  0  0  0
  -86.4840   12.6353  -20.8784 H   0  0  0  0  0  0  0  0  0  0  0  0
  -98.1162    5.4782  -22.6386 H   0  0  0  0  0  0  0  0  0  0  0  0
  -99.2587    5.5319  -23.8718 H   0  0  0  0  0  0  0  0  0  0  0  0
  -93.1305    9.7063  -15.9919 H   0  0  0  0  0  0  0  0  0  0  0  0
  -87.3493   11.3987  -15.6765 H   0  0  0  0  0  0  0  0  0  0  0  0
  -88.2309   14.9608  -17.8024 H   0  0  0  0  0  0  0  0  0  0  0  0
  -93.7497   11.1865  -22.1490 H   0  0  0  0  0  0  0  0  0  0  0  0
  -95.7268   11.4274  -15.1175 H   0  0  0  0  0  0  0  0  0  0  0  0
  -88.6123   10.9624  -21.3181 H   0  0  0  0  0  0  0  0  0  0  0  0
  -88.8141   12.2448  -22.3876 H   0  0  0  0  0  0  0  0  0  0  0  0
  -90.3059   14.3323  -16.2980 H   0  0  0  0  0  0  0  0  0  0  0  0
  -89.4567   14.5006  -17.7401 H   0  0  0  0  0  0  0  0  0  0  0  0
  2  1  1  0
  3  1  1  0
  4  3  1  0
  5  3  1  0
  6  5  1  0
  7  5  1  0
  8  7  1  0
  9  7  1  0
 10  9  1  0
 10  1  1  0
 11  9  1  0
 13 12  1  0
 14 12  1  0
 15 14  1  0
 16 15  1  0
 17 15  1  0
 17  2  1  0
 18 17  1  0
 19 18  1  0
 20 18  1  0
 20 12  1  0
 21 16  1  0
 22 21  1  0
 23 22  1  0
 24 23  1  0
 25 21  1  0
 25 24  1  0
 26 24  1  0
 28 27  1  0
 29 28  1  0
 30 29  1  0
 31 23  1  0
 31 30  1  0
 32 27  1  0
 33 32  1  0
 33 30  1  0
 34 32  1  0
 35 11  1  0
 36 22  1  0
 37 28  1  0
 38 27  1  0
 39 26  1  0
 40 14  1  0
 41 34  1  0
 42 29  1  0
  1 43  1  1
  3 44  1  6
  4 45  1  0
  4 46  1  0
  5 47  1  1
  6 48  1  0
  7 49  1  6
  8 50  1  0
  9 51  1  1
 11 52  1  0
 11 53  1  0
 12 54  1  6
 13 55  1  0
 13 56  1  0
 14 57  1  1
 15 58  1  6
 17 59  1  6
 18 60  1  6
 19 61  1  0
 19 62  1  0
 20 63  1  0
 20 64  1  0
 21 65  1  1
 22 66  1  1
 23 67  1  6
 24 68  1  6
 26 69  1  0
 26 70  1  0
 27 71  1  1
 28 72  1  1
 29 73  1  1
 30 74  1  1
 32 75  1  1
 34 76  1  0
 34 77  1  0
 35 78  1  0
 35 79  1  0
 36 80  1  0
 37 81  1  0
 38 82  1  0
 39 83  1  0
 40 84  1  0
 41 85  1  0
 41 86  1  0
 42 87  1  0
 42 88  1  0
M  END
$$$$
