PDB_DB01082_98
     RDKit          3D

 79 81  0  0  0  0  0  0  0  0999 V2000
  179.4420   94.0910   -7.5640 C   0  0  2  0  0  0  0  0  0  0  0  0
  180.1990   93.1610   -8.3430 N   0  0  0  0  0  0  0  0  0  0  0  0
  179.6240   92.5840   -9.5350 C   0  0  0  0  0  0  0  0  0  0  0  0
  178.2970   93.0060   -9.9160 N   0  0  0  0  0  0  0  0  0  0  0  0
  180.2700   91.7140  -10.2560 N   0  0  0  0  0  0  0  0  0  0  0  0
  179.8670   95.4800   -7.8000 C   0  0  1  0  0  0  0  0  0  0  0  0
  179.5540   95.7590   -9.1140 O   0  0  0  0  0  0  0  0  0  0  0  0
  179.1310   96.3870   -6.8630 C   0  0  2  0  0  0  0  0  0  0  0  0
  179.3620   97.8000   -7.2280 N   0  0  0  0  0  0  0  0  0  0  0  0
  178.4950   98.4880   -8.2370 C   0  0  0  0  0  0  0  0  0  0  0  0
  177.4250   97.7570   -8.8740 N   0  0  0  0  0  0  0  0  0  0  0  0
  178.6600   99.7700   -8.5990 N   0  0  0  0  0  0  0  0  0  0  0  0
  179.4630   96.0370   -5.4360 C   0  0  1  0  0  0  0  0  0  0  0  0
  178.6780   96.8700   -4.5970 O   0  0  0  0  0  0  0  0  0  0  0  0
  179.0770   94.6160   -5.1560 C   0  0  2  0  0  0  0  0  0  0  0  0
  179.4250   94.2930   -3.8700 O   0  0  0  0  0  0  0  0  0  0  0  0
  179.7020   93.6770   -6.1500 C   0  0  1  0  0  0  0  0  0  0  0  0
  179.2300   92.3580   -5.9380 O   0  0  0  0  0  0  0  0  0  0  0  0
  179.4080   97.9390   -4.0350 C   0  0  1  0  0  0  0  0  0  0  0  0
  178.4890   98.9050   -3.2930 C   0  0  1  0  0  0  0  0  0  0  0  0
  178.2700   98.1600   -1.9890 C   0  0  1  0  0  0  0  0  0  0  0  0
  178.7950   98.8110   -0.8660 O   0  0  0  0  0  0  0  0  0  0  0  0
  176.8390   97.8600   -1.7410 C   0  0  0  0  0  0  0  0  0  0  0  0
  176.4420   97.6790   -0.6050 O   0  0  0  0  0  0  0  0  0  0  0  0
  179.1050   96.9420   -2.2040 C   0  0  2  0  0  0  0  0  0  0  0  0
  179.5810   96.2940   -0.9270 C   0  0  0  0  0  0  0  0  0  0  0  0
  180.1840   97.3840   -3.0070 O   0  0  0  0  0  0  0  0  0  0  0  0
  179.0050  100.2150   -3.1590 O   0  0  0  0  0  0  0  0  0  0  0  0
  178.4030  100.9890   -4.1660 C   0  0  1  0  0  0  0  0  0  0  0  0
  178.2400  102.4670   -3.8390 C   0  0  1  0  0  0  0  0  0  0  0  0
  177.3850  102.6970   -2.7300 N   0  0  0  0  0  0  0  0  0  0  0  0
  176.7330  101.4790   -2.3870 C   0  0  0  0  0  0  0  0  0  0  0  0
  179.6120  103.0740   -3.5550 C   0  0  2  0  0  0  0  0  0  0  0  0
  179.5270  104.4310   -3.3040 O   0  0  0  0  0  0  0  0  0  0  0  0
  180.4420  102.7970   -4.7580 C   0  0  1  0  0  0  0  0  0  0  0  0
  181.7410  103.2160   -4.5650 O   0  0  0  0  0  0  0  0  0  0  0  0
  180.4330  101.3230   -5.0400 C   0  0  1  0  0  0  0  0  0  0  0  0
  179.1880  100.8480   -5.3060 O   0  0  0  0  0  0  0  0  0  0  0  0
  181.2780  101.0230   -6.2330 C   0  0  0  0  0  0  0  0  0  0  0  0
  181.2420   99.6030   -6.4210 O   0  0  0  0  0  0  0  0  0  0  0  0
  178.3730   94.0729   -7.8226 H   0  0  0  0  0  0  0  0  0  0  0  0
  181.1534   92.9031   -8.0540 H   0  0  0  0  0  0  0  0  0  0  0  0
  177.8550   92.6156  -10.7605 H   0  0  0  0  0  0  0  0  0  0  0  0
  177.7922   93.6975   -9.3434 H   0  0  0  0  0  0  0  0  0  0  0  0
  179.8332   91.3199  -11.1015 H   0  0  0  0  0  0  0  0  0  0  0  0
  180.9428   95.6251   -7.6221 H   0  0  0  0  0  0  0  0  0  0  0  0
  178.8153   96.4174   -9.1446 H   0  0  0  0  0  0  0  0  0  0  0  0
  178.0450   96.2391   -6.9563 H   0  0  0  0  0  0  0  0  0  0  0  0
  180.1311   98.3198   -6.7817 H   0  0  0  0  0  0  0  0  0  0  0  0
  176.8248   98.2237   -9.5688 H   0  0  0  0  0  0  0  0  0  0  0  0
  177.2620   96.7688   -8.6335 H   0  0  0  0  0  0  0  0  0  0  0  0
  178.0333  100.1923   -9.2989 H   0  0  0  0  0  0  0  0  0  0  0  0
  180.5403   96.1715   -5.2591 H   0  0  0  0  0  0  0  0  0  0  0  0
  177.9870   94.5127   -5.2620 H   0  0  0  0  0  0  0  0  0  0  0  0
  178.8670   94.8109   -3.2371 H   0  0  0  0  0  0  0  0  0  0  0  0
  180.7900   93.7120   -5.9916 H   0  0  0  0  0  0  0  0  0  0  0  0
  179.1671   92.1823   -4.9657 H   0  0  0  0  0  0  0  0  0  0  0  0
  179.9618   98.4477   -4.8379 H   0  0  0  0  0  0  0  0  0  0  0  0
  177.5529   99.1299   -3.8251 H   0  0  0  0  0  0  0  0  0  0  0  0
  178.4488   98.3817   -0.0438 H   0  0  0  0  0  0  0  0  0  0  0  0
  176.1357   97.8010   -2.5848 H   0  0  0  0  0  0  0  0  0  0  0  0
  178.5160   96.1473   -2.6851 H   0  0  0  0  0  0  0  0  0  0  0  0
  179.1771   96.8439   -0.0641 H   0  0  0  0  0  0  0  0  0  0  0  0
  179.2326   95.2512   -0.8930 H   0  0  0  0  0  0  0  0  0  0  0  0
  180.6803   96.3146   -0.8930 H   0  0  0  0  0  0  0  0  0  0  0  0
  177.3753  100.6190   -4.2958 H   0  0  0  0  0  0  0  0  0  0  0  0
  177.7721  102.9443   -4.7127 H   0  0  0  0  0  0  0  0  0  0  0  0
  177.9405  103.0289   -1.9287 H   0  0  0  0  0  0  0  0  0  0  0  0
  176.6830  101.3856   -1.2921 H   0  0  0  0  0  0  0  0  0  0  0  0
  175.7143  101.4790   -2.8019 H   0  0  0  0  0  0  0  0  0  0  0  0
  177.2979  100.6312   -2.8019 H   0  0  0  0  0  0  0  0  0  0  0  0
  180.0585  102.6323   -2.6519 H   0  0  0  0  0  0  0  0  0  0  0  0
  179.5173  104.5858   -2.3262 H   0  0  0  0  0  0  0  0  0  0  0  0
  180.0181  103.3482   -5.6103 H   0  0  0  0  0  0  0  0  0  0  0  0
  181.9276  103.2762   -3.5946 H   0  0  0  0  0  0  0  0  0  0  0  0
  180.8200  100.8375   -4.1320 H   0  0  0  0  0  0  0  0  0  0  0  0
  180.8744  101.5326   -7.1204 H   0  0  0  0  0  0  0  0  0  0  0  0
  182.3095  101.3748   -6.0839 H   0  0  0  0  0  0  0  0  0  0  0  0
  181.2306   99.1535   -5.5390 H   0  0  0  0  0  0  0  0  0  0  0  0
  1  2  1  0
  2  3  1  0
  3  4  1  0
  3  5  2  0
  1  6  1  0
  6  7  1  0
  6  8  1  0
  8  9  1  0
  9 10  1  0
 10 11  1  0
 10 12  2  0
  8 13  1  0
 13 14  1  0
 13 15  1  0
 15 16  1  0
  1 17  1  0
 15 17  1  0
 17 18  1  0
 14 19  1  0
 19 20  1  0
 20 21  1  0
 21 22  1  1
 21 23  1  0
 23 24  2  0
 21 25  1  0
 25 26  1  0
 19 27  1  0
 25 27  1  0
 20 28  1  0
 28 29  1  0
 29 30  1  0
 30 31  1  0
 31 32  1  0
 30 33  1  0
 33 34  1  0
 33 35  1  0
 35 36  1  0
 35 37  1  0
 29 38  1  0
 37 38  1  0
 37 39  1  0
 39 40  1  0
  1 41  1  6
  2 42  1  0
  4 43  1  0
  4 44  1  0
  5 45  1  0
  6 46  1  6
  7 47  1  0
  8 48  1  1
  9 49  1  0
 11 50  1  0
 11 51  1  0
 12 52  1  0
 13 53  1  6
 15 54  1  1
 16 55  1  0
 17 56  1  1
 18 57  1  0
 19 58  1  6
 20 59  1  6
 22 60  1  0
 23 61  1  0
 25 62  1  6
 26 63  1  0
 26 64  1  0
 26 65  1  0
 29 66  1  6
 30 67  1  6
 31 68  1  0
 32 69  1  0
 32 70  1  0
 32 71  1  0
 33 72  1  1
 34 73  1  0
 35 74  1  6
 36 75  1  0
 37 76  1  1
 39 77  1  0
 39 78  1  0
 40 79  1  0
M  END
>  <PDBID>  (1) 
4DR6

>  <PDB ID>  (1) 
4DR6

>  <Generic Name>  (1) 
Streptomycin

>  <Brand Name>  (1) 
Streptomycin#Streptomycin Sulfate Injection USP 1g/2.5ml#Streptomycin for Injection USP

>  <DrugBank ID>  (1) 
DB01082

>  <ATC Codes>  (1) 
J01GA01#J04AM01#A07AA04#A07AA54

>  <Ligand ID>  (1) 
SRY

>  <Target Name>  (1) 
30S ribosomal protein S12

>  <UniProt ID>  (1) 
P0A7S3

>  <PDB ID.1>  (1) 
4DR6

>  <Seq. Identity>  (1) 
72%

$$$$
