PDB_DB01764_99
     RDKit          3D

354360  0  0  0  0  0  0  0  0999 V2000
   26.0830   52.8290   56.9690 O   0  0  0  0  0  0  0  0  0  0  0  0
   26.5630   54.0940   56.6410 C   0  0  0  0  0  0  0  0  0  0  0  0
   25.9730   55.2900   57.2510 N   0  0  0  0  0  0  0  0  0  0  0  0
   26.8120   56.3570   56.7010 C   0  0  0  0  0  0  0  0  0  0  0  0
   27.9180   56.5330   57.7470 C   0  0  0  0  0  0  0  0  0  0  0  0
   27.4330   55.8050   58.9890 C   0  0  1  0  0  0  0  0  0  0  0  0
   27.7720   56.8120   60.4140 S   0  0  1  0  0  4  0  0  0  0  0  0
   27.1440   58.4290   60.1010 O   0  0  0  0  0  0  0  0  0  0  0  0
   27.0210   56.1110   61.8450 O   0  0  0  0  0  0  0  0  0  0  0  0
   29.5420   56.8570   60.6360 C   0  0  0  0  0  0  0  0  0  0  0  0
   30.1530   57.8870   59.6940 C   0  0  0  0  0  0  0  0  0  0  0  0
   30.6840   58.8930   60.5980 N   0  0  0  0  0  0  0  0  0  0  0  0
   32.1140   59.1850   60.6040 C   0  0  0  0  0  0  0  0  0  0  0  0
   32.4740   60.0820   59.4370 C   0  0  0  0  0  0  0  0  0  0  0  0
   29.7720   59.5790   61.5050 C   0  0  0  0  0  0  0  0  0  0  0  0
   30.1820   61.0230   61.6910 C   0  0  0  0  0  0  0  0  0  0  0  0
   25.9610   55.7490   58.6570 C   0  0  2  0  0  0  0  0  0  0  0  0
   27.6850   54.4130   55.6890 C   0  0  2  0  0  0  0  0  0  0  0  0
   28.5250   55.6850   55.5030 C   0  0  0  0  0  0  0  0  0  0  0  0
   29.1140   55.5760   54.1920 O   0  0  0  0  0  0  0  0  0  0  0  0
   27.6920   53.6570   54.4930 N   0  0  0  0  0  0  0  0  0  0  0  0
   28.6030   54.3590   53.6440 C   0  0  0  0  0  0  0  0  0  0  0  0
   28.8390   53.7380   52.2940 C   0  0  0  0  0  0  0  0  0  0  0  0
   27.5720   52.8840   52.2770 C   0  0  1  0  0  0  0  0  0  0  0  0
   27.4570   51.8280   53.2360 O   0  0  0  0  0  0  0  0  0  0  0  0
   26.3850   53.1450   51.3550 C   0  0  0  0  0  0  0  0  0  0  0  0
   25.1640   52.3790   51.8720 C   0  0  2  0  0  0  0  0  0  0  0  0
   24.2350   52.1600   50.8080 O   0  0  0  0  0  0  0  0  0  0  0  0
   24.4900   53.1940   52.9670 C   0  0  0  0  0  0  0  0  0  0  0  0
   23.5400   52.4040   53.8630 C   0  0  2  0  0  0  0  0  0  0  0  0
   23.2890   50.9170   53.6410 C   0  0  0  0  0  0  0  0  0  0  0  0
   22.5770   53.2370   54.6940 C   0  0  0  0  0  0  0  0  0  0  0  0
   21.5040   52.4310   55.4070 C   0  0  0  0  0  0  0  0  0  0  0  0
   20.6830   53.4480   56.1800 C   0  0  0  0  0  0  0  0  0  0  0  0
   21.6340   54.2100   56.9550 N   0  0  0  0  0  0  0  0  0  0  0  0
   21.2590   54.8600   58.1860 C   0  0  2  0  0  0  0  0  0  0  0  0
   19.8890   54.8050   58.5780 O   0  0  0  0  0  0  0  0  0  0  0  0
   22.0710   56.0560   58.6320 C   0  0  0  0  0  0  0  0  0  0  0  0
   21.8750   56.2530   60.1240 C   0  0  0  0  0  0  0  0  0  0  0  0
   22.7010   57.4600   60.5310 C   0  0  1  0  0  0  0  0  0  0  0  0
   21.9080   58.2520   61.5710 C   0  0  0  0  0  0  0  0  0  0  0  0
   24.1690   57.1680   60.9260 C   0  0  1  0  0  0  0  0  0  0  0  0
   24.4700   57.6180   62.3630 C   0  0  1  0  0  0  0  0  0  0  0  0
   24.9880   59.0520   62.4500 C   0  0  0  0  0  0  0  0  0  0  0  0
   23.2890   57.4020   63.3060 C   0  0  0  0  0  0  0  0  0  0  0  0
   24.5800   55.7860   60.8750 O   0  0  0  0  0  0  0  0  0  0  0  0
   24.9460   55.1390   59.6360 C   0  0  0  0  0  0  0  0  0  0  0  0
   24.3040   53.8980   59.3200 O   0  0  0  0  0  0  0  0  0  0  0  0
   32.8920   33.0040   25.0120 O   0  0  0  0  0  0  0  0  0  0  0  0
   34.1000   32.6820   24.3160 C   0  0  0  0  0  0  0  0  0  0  0  0
   33.8670   32.3160   22.8160 N   0  0  0  0  0  0  0  0  0  0  0  0
   35.2350   31.9530   22.4400 C   0  0  0  0  0  0  0  0  0  0  0  0
   35.8090   33.2370   21.8320 C   0  0  0  0  0  0  0  0  0  0  0  0
   34.6180   34.1430   21.5810 C   0  0  1  0  0  0  0  0  0  0  0  0
   34.7940   34.8790   19.9740 S   0  0  1  0  0  4  0  0  0  0  0  0
   35.1260   33.5960   18.8100 O   0  0  0  0  0  0  0  0  0  0  0  0
   33.3270   35.7530   19.5420 O   0  0  0  0  0  0  0  0  0  0  0  0
   36.1680   36.0220   20.0490 C   0  0  0  0  0  0  0  0  0  0  0  0
   37.4830   35.2630   19.9100 C   0  0  0  0  0  0  0  0  0  0  0  0
   38.0230   35.7490   18.6510 N   0  0  0  0  0  0  0  0  0  0  0  0
   39.3110   36.4340   18.6250 C   0  0  0  0  0  0  0  0  0  0  0  0
   40.4430   35.4280   18.6820 C   0  0  0  0  0  0  0  0  0  0  0  0
   37.2470   35.5590   17.4310 C   0  0  0  0  0  0  0  0  0  0  0  0
   38.1510   35.3020   16.2450 C   0  0  0  0  0  0  0  0  0  0  0  0
   33.5310   33.0960   21.6040 C   0  0  2  0  0  0  0  0  0  0  0  0
   35.4630   32.5810   24.6970 C   0  0  2  0  0  0  0  0  0  0  0  0
   36.7860   32.3930   23.9390 C   0  0  0  0  0  0  0  0  0  0  0  0
   37.7170   31.8600   24.9030 O   0  0  0  0  0  0  0  0  0  0  0  0
   35.5940   32.0740   26.0120 N   0  0  0  0  0  0  0  0  0  0  0  0
   36.9690   31.7010   26.1090 C   0  0  0  0  0  0  0  0  0  0  0  0
   37.3920   31.1580   27.4460 C   0  0  0  0  0  0  0  0  0  0  0  0
   35.9870   30.8000   27.9320 C   0  0  1  0  0  0  0  0  0  0  0  0
   35.0680   31.8740   28.1620 O   0  0  0  0  0  0  0  0  0  0  0  0
   35.4890   29.3680   28.1130 C   0  0  0  0  0  0  0  0  0  0  0  0
   33.9620   29.3620   28.2220 C   0  0  2  0  0  0  0  0  0  0  0  0
   33.5120   28.1800   28.8940 O   0  0  0  0  0  0  0  0  0  0  0  0
   33.3710   29.3930   26.8200 C   0  0  0  0  0  0  0  0  0  0  0  0
   31.9110   29.8310   26.7590 C   0  0  2  0  0  0  0  0  0  0  0  0
   31.1240   30.1810   28.0180 C   0  0  0  0  0  0  0  0  0  0  0  0
   31.1900   29.4940   25.4640 C   0  0  0  0  0  0  0  0  0  0  0  0
   29.6910   29.7340   25.5090 C   0  0  0  0  0  0  0  0  0  0  0  0
   29.1800   29.3650   24.1290 C   0  0  0  0  0  0  0  0  0  0  0  0
   29.9850   30.1270   23.2030 N   0  0  0  0  0  0  0  0  0  0  0  0
   29.5010   30.4770   21.8920 C   0  0  2  0  0  0  0  0  0  0  0  0
   28.2220   29.9750   21.5030 O   0  0  0  0  0  0  0  0  0  0  0  0
   30.5250   30.7240   20.8070 C   0  0  0  0  0  0  0  0  0  0  0  0
   29.8880   31.5690   19.7210 C   0  0  0  0  0  0  0  0  0  0  0  0
   30.9380   31.8030   18.6460 C   0  0  1  0  0  0  0  0  0  0  0  0
   30.2410   31.7410   17.2880 C   0  0  0  0  0  0  0  0  0  0  0  0
   31.8510   33.0370   18.8480 C   0  0  1  0  0  0  0  0  0  0  0  0
   31.7420   34.0310   17.6830 C   0  0  1  0  0  0  0  0  0  0  0  0
   32.7680   33.7980   16.5750 C   0  0  0  0  0  0  0  0  0  0  0  0
   30.3260   34.1500   17.1200 C   0  0  0  0  0  0  0  0  0  0  0  0
   31.5970   33.8420   20.0170 O   0  0  0  0  0  0  0  0  0  0  0  0
   32.0650   33.4690   21.3300 C   0  0  0  0  0  0  0  0  0  0  0  0
   31.1020   33.4330   22.3880 O   0  0  0  0  0  0  0  0  0  0  0  0
   42.0750   18.6170   58.4820 O   0  0  0  0  0  0  0  0  0  0  0  0
   43.0550   18.8250   59.4500 C   0  0  1  0  0  0  0  0  0  0  0  0
   43.4370   17.7260   60.3510 N   0  0  0  0  0  0  0  0  0  0  0  0
   44.5180   18.3310   61.1320 C   0  0  0  0  0  0  0  0  0  0  0  0
   45.7970   17.9200   60.3940 C   0  0  0  0  0  0  0  0  0  0  0  0
   45.3730   16.8170   59.4430 C   0  0  1  0  0  0  0  0  0  0  0  0
   46.5860   15.5230   59.5040 S   0  0  1  0  0  4  0  0  0  0  0  0
   46.8690   15.0990   61.1920 O   0  0  0  0  0  0  0  0  0  0  0  0
   46.0190   14.1270   58.5920 O   0  0  0  0  0  0  0  0  0  0  0  0
   48.0860   16.1470   58.7620 C   0  0  0  0  0  0  0  0  0  0  0  0
   48.8400   17.0010   59.7740 C   0  0  0  0  0  0  0  0  0  0  0  0
   50.0550   16.2430   60.0000 N   0  0  0  0  0  0  0  0  0  0  0  0
   51.3460   16.8490   59.6950 C   0  0  0  0  0  0  0  0  0  0  0  0
   51.7760   17.7780   60.8120 C   0  0  0  0  0  0  0  0  0  0  0  0
   49.9420   14.8820   60.5080 C   0  0  0  0  0  0  0  0  0  0  0  0
   51.0370   14.5820   61.5060 C   0  0  0  0  0  0  0  0  0  0  0  0
   44.0810   16.4180   60.1130 C   0  0  2  0  0  0  0  0  0  0  0  0
   43.8820   20.0710   59.6720 C   0  0  2  0  0  0  0  0  0  0  0  0
   45.1740   20.3220   60.4650 C   0  0  0  0  0  0  0  0  0  0  0  0
   45.2090   21.7400   60.7280 O   0  0  0  0  0  0  0  0  0  0  0  0
   43.1440   21.2770   59.5810 N   0  0  0  0  0  0  0  0  0  0  0  0
   43.9980   22.2600   60.1740 C   0  0  1  0  0  0  0  0  0  0  0  0
   43.4640   23.6670   60.1740 C   0  0  0  0  0  0  0  0  0  0  0  0
   41.9960   23.2880   59.9770 C   0  0  1  0  0  0  0  0  0  0  0  0
   41.6280   22.6710   58.7400 O   0  0  0  0  0  0  0  0  0  0  0  0
   40.9210   23.4500   61.0470 C   0  0  0  0  0  0  0  0  0  0  0  0
   39.6900   22.6180   60.6720 C   0  0  2  0  0  0  0  0  0  0  0  0
   38.5260   23.1250   61.3300 O   0  0  0  0  0  0  0  0  0  0  0  0
   39.9100   21.1790   61.1150 C   0  0  0  0  0  0  0  0  0  0  0  0
   38.9920   20.1630   60.4450 C   0  0  2  0  0  0  0  0  0  0  0  0
   37.9340   20.5890   59.4340 C   0  0  0  0  0  0  0  0  0  0  0  0
   38.9120   18.8030   61.1240 C   0  0  0  0  0  0  0  0  0  0  0  0
   37.8320   17.8870   60.5690 C   0  0  0  0  0  0  0  0  0  0  0  0
   37.9400   16.5960   61.3620 C   0  0  0  0  0  0  0  0  0  0  0  0
   39.3260   16.1980   61.2770 N   0  0  0  0  0  0  0  0  0  0  0  0
   39.7260   14.8200   61.4100 C   0  0  2  0  0  0  0  0  0  0  0  0
   38.7170   13.8580   61.7120 O   0  0  0  0  0  0  0  0  0  0  0  0
   41.1370   14.5360   61.8740 C   0  0  0  0  0  0  0  0  0  0  0  0
   41.5210   13.1290   61.4540 C   0  0  0  0  0  0  0  0  0  0  0  0
   42.9410   12.8810   61.9360 C   0  0  1  0  0  0  0  0  0  0  0  0
   43.0280   11.4320   62.4160 C   0  0  0  0  0  0  0  0  0  0  0  0
   44.0710   13.3030   60.9650 C   0  0  1  0  0  0  0  0  0  0  0  0
   44.9620   12.1140   60.5770 C   0  0  1  0  0  0  0  0  0  0  0  0
   46.1610   11.9290   61.5050 C   0  0  0  0  0  0  0  0  0  0  0  0
   44.1750   10.8140   60.4180 C   0  0  0  0  0  0  0  0  0  0  0  0
   43.6550   13.8760   59.7080 O   0  0  0  0  0  0  0  0  0  0  0  0
   43.2380   15.2530   59.5750 C   0  0  0  0  0  0  0  0  0  0  0  0
   41.9830   15.5090   58.9310 O   0  0  0  0  0  0  0  0  0  0  0  0
   26.0472   52.7348   57.9539 H   0  0  0  0  0  0  0  0  0  0  0  0
   25.8368   54.1559   55.8171 H   0  0  0  0  0  0  0  0  0  0  0  0
   27.2354   56.0606   55.7300 H   0  0  0  0  0  0  0  0  0  0  0  0
   26.2511   57.2851   56.5167 H   0  0  0  0  0  0  0  0  0  0  0  0
   28.8591   56.0915   57.3873 H   0  0  0  0  0  0  0  0  0  0  0  0
   28.1159   57.5955   57.9520 H   0  0  0  0  0  0  0  0  0  0  0  0
   27.8834   54.8278   59.2174 H   0  0  0  0  0  0  0  0  0  0  0  0
   26.9664   58.8862   60.9610 H   0  0  0  0  0  0  0  0  0  0  0  0
   27.4346   56.4971   62.6574 H   0  0  0  0  0  0  0  0  0  0  0  0
   29.7730   57.1306   61.6761 H   0  0  0  0  0  0  0  0  0  0  0  0
   29.9620   55.8652   60.4123 H   0  0  0  0  0  0  0  0  0  0  0  0
   30.9544   57.4399   59.0875 H   0  0  0  0  0  0  0  0  0  0  0  0
   29.4286   58.2948   58.9737 H   0  0  0  0  0  0  0  0  0  0  0  0
   32.3768   59.6909   61.5447 H   0  0  0  0  0  0  0  0  0  0  0  0
   32.6717   58.2411   60.5143 H   0  0  0  0  0  0  0  0  0  0  0  0
   32.8586   61.0403   59.8161 H   0  0  0  0  0  0  0  0  0  0  0  0
   33.2459   59.5939   58.8238 H   0  0  0  0  0  0  0  0  0  0  0  0
   31.5788   60.2630   58.8238 H   0  0  0  0  0  0  0  0  0  0  0  0
   28.7548   59.5441   61.0877 H   0  0  0  0  0  0  0  0  0  0  0  0
   29.8032   59.0756   62.4826 H   0  0  0  0  0  0  0  0  0  0  0  0
   30.2466   61.2504   62.7653 H   0  0  0  0  0  0  0  0  0  0  0  0
   31.1628   61.1891   61.2215 H   0  0  0  0  0  0  0  0  0  0  0  0
   29.4348   61.6797   61.2215 H   0  0  0  0  0  0  0  0  0  0  0  0
   25.4880   56.7326   58.7943 H   0  0  0  0  0  0  0  0  0  0  0  0
   28.2237   54.1840   56.6203 H   0  0  0  0  0  0  0  0  0  0  0  0
   27.8862   56.5785   55.5633 H   0  0  0  0  0  0  0  0  0  0  0  0
   29.2919   55.7828   56.2855 H   0  0  0  0  0  0  0  0  0  0  0  0
   28.0214   52.6971   54.6688 H   0  0  0  0  0  0  0  0  0  0  0  0
   29.4435   53.8059   54.0886 H   0  0  0  0  0  0  0  0  0  0  0  0
   28.8595   54.4815   51.4836 H   0  0  0  0  0  0  0  0  0  0  0  0
   29.7951   53.2144   52.1464 H   0  0  0  0  0  0  0  0  0  0  0  0
   28.0494   52.1898   51.5698 H   0  0  0  0  0  0  0  0  0  0  0  0
   27.4982   52.2063   54.1499 H   0  0  0  0  0  0  0  0  0  0  0  0
   26.1628   54.2222   51.3382 H   0  0  0  0  0  0  0  0  0  0  0  0
   26.6281   52.8067   50.3369 H   0  0  0  0  0  0  0  0  0  0  0  0
   25.4893   51.4071   52.2715 H   0  0  0  0  0  0  0  0  0  0  0  0
   23.3443   51.9500   51.1856 H   0  0  0  0  0  0  0  0  0  0  0  0
   25.2758   53.6294   53.6018 H   0  0  0  0  0  0  0  0  0  0  0  0
   23.8754   53.9495   52.4556 H   0  0  0  0  0  0  0  0  0  0  0  0
   24.2521   52.0393   54.6180 H   0  0  0  0  0  0  0  0  0  0  0  0
   23.2035   50.4104   54.6136 H   0  0  0  0  0  0  0  0  0  0  0  0
   22.3556   50.7833   53.0746 H   0  0  0  0  0  0  0  0  0  0  0  0
   24.1268   50.4843   53.0746 H   0  0  0  0  0  0  0  0  0  0  0  0
   23.1590   53.7815   55.4521 H   0  0  0  0  0  0  0  0  0  0  0  0
   22.0544   53.9048   53.9934 H   0  0  0  0  0  0  0  0  0  0  0  0
   20.8731   51.9007   54.6785 H   0  0  0  0  0  0  0  0  0  0  0  0
   21.9381   51.6673   56.0690 H   0  0  0  0  0  0  0  0  0  0  0  0
   20.1372   54.1061   55.4879 H   0  0  0  0  0  0  0  0  0  0  0  0
   19.9334   52.9616   56.8215 H   0  0  0  0  0  0  0  0  0  0  0  0
   22.4004   53.5634   57.1904 H   0  0  0  0  0  0  0  0  0  0  0  0
   21.6638   54.1161   58.8880 H   0  0  0  0  0  0  0  0  0  0  0  0
   19.8283   54.8026   59.5661 H   0  0  0  0  0  0  0  0  0  0  0  0
   23.1358   55.8798   58.4193 H   0  0  0  0  0  0  0  0  0  0  0  0
   21.7404   56.9545   58.0903 H   0  0  0  0  0  0  0  0  0  0  0  0
   20.8122   56.4324   60.3438 H   0  0  0  0  0  0  0  0  0  0  0  0
   22.1914   55.3584   60.6804 H   0  0  0  0  0  0  0  0  0  0  0  0
   22.8542   58.0834   59.6377 H   0  0  0  0  0  0  0  0  0  0  0  0
   22.2170   57.9434   62.5806 H   0  0  0  0  0  0  0  0  0  0  0  0
   22.1029   59.3267   61.4403 H   0  0  0  0  0  0  0  0  0  0  0  0
   20.8336   58.0557   61.4403 H   0  0  0  0  0  0  0  0  0  0  0  0
   24.7229   57.7323   60.1613 H   0  0  0  0  0  0  0  0  0  0  0  0
   25.2872   56.9641   62.7015 H   0  0  0  0  0  0  0  0  0  0  0  0
   25.0923   59.3407   63.5063 H   0  0  0  0  0  0  0  0  0  0  0  0
   25.9671   59.1189   61.9532 H   0  0  0  0  0  0  0  0  0  0  0  0
   24.2777   59.7292   61.9532 H   0  0  0  0  0  0  0  0  0  0  0  0
   23.6355   57.4654   64.3481 H   0  0  0  0  0  0  0  0  0  0  0  0
   22.5287   58.1760   63.1247 H   0  0  0  0  0  0  0  0  0  0  0  0
   22.8519   56.4090   63.1247 H   0  0  0  0  0  0  0  0  0  0  0  0
   25.7613   54.6112   60.1524 H   0  0  0  0  0  0  0  0  0  0  0  0
   24.0615   53.4292   60.1576 H   0  0  0  0  0  0  0  0  0  0  0  0
   33.0521   32.9613   25.9880 H   0  0  0  0  0  0  0  0  0  0  0  0
   33.9777   31.6245   24.5930 H   0  0  0  0  0  0  0  0  0  0  0  0
   35.8144   31.6464   23.3233 H   0  0  0  0  0  0  0  0  0  0  0  0
   35.2696   31.1034   21.7421 H   0  0  0  0  0  0  0  0  0  0  0  0
   36.5110   33.7123   22.5329 H   0  0  0  0  0  0  0  0  0  0  0  0
   36.3653   33.0330   20.9052 H   0  0  0  0  0  0  0  0  0  0  0  0
   34.4611   34.9824   22.2744 H   0  0  0  0  0  0  0  0  0  0  0  0
   35.3424   32.7597   19.2935 H   0  0  0  0  0  0  0  0  0  0  0  0
   32.8555   36.0339   20.3659 H   0  0  0  0  0  0  0  0  0  0  0  0
   36.0801   36.7521   19.2309 H   0  0  0  0  0  0  0  0  0  0  0  0
   36.1520   36.5443   21.0170 H   0  0  0  0  0  0  0  0  0  0  0  0
   38.1611   35.4950   20.7445 H   0  0  0  0  0  0  0  0  0  0  0  0
   37.3516   34.1710   19.9271 H   0  0  0  0  0  0  0  0  0  0  0  0
   39.3921   37.0193   17.6972 H   0  0  0  0  0  0  0  0  0  0  0  0
   39.3798   37.0999   19.4978 H   0  0  0  0  0  0  0  0  0  0  0  0
   40.6877   35.2105   19.7321 H   0  0  0  0  0  0  0  0  0  0  0  0
   40.1348   34.5003   18.1776 H   0  0  0  0  0  0  0  0  0  0  0  0
   41.3281   35.8430   18.1776 H   0  0  0  0  0  0  0  0  0  0  0  0
   36.5745   34.6986   17.5633 H   0  0  0  0  0  0  0  0  0  0  0  0
   36.6694   36.4750   17.2381 H   0  0  0  0  0  0  0  0  0  0  0  0
   39.1519   35.0175   16.6017 H   0  0  0  0  0  0  0  0  0  0  0  0
   37.7335   34.4870   15.6356 H   0  0  0  0  0  0  0  0  0  0  0  0
   38.2247   36.2148   15.6356 H   0  0  0  0  0  0  0  0  0  0  0  0
   33.5404   32.4938   20.6835 H   0  0  0  0  0  0  0  0  0  0  0  0
   35.4802   33.5993   24.2813 H   0  0  0  0  0  0  0  0  0  0  0  0
   36.6530   31.6887   23.1045 H   0  0  0  0  0  0  0  0  0  0  0  0
   37.1450   33.3396   23.5089 H   0  0  0  0  0  0  0  0  0  0  0  0
   35.3620   32.7977   26.7072 H   0  0  0  0  0  0  0  0  0  0  0  0
   37.2269   32.7287   26.4045 H   0  0  0  0  0  0  0  0  0  0  0  0
   38.0472   30.2788   27.3585 H   0  0  0  0  0  0  0  0  0  0  0  0
   37.9889   31.8219   28.0887 H   0  0  0  0  0  0  0  0  0  0  0  0
   36.3299   30.8701   28.9748 H   0  0  0  0  0  0  0  0  0  0  0  0
   34.9537   32.0076   29.1363 H   0  0  0  0  0  0  0  0  0  0  0  0
   35.7961   28.7621   27.2478 H   0  0  0  0  0  0  0  0  0  0  0  0
   35.9212   28.9457   29.0322 H   0  0  0  0  0  0  0  0  0  0  0  0
   33.6380   30.2421   28.7969 H   0  0  0  0  0  0  0  0  0  0  0  0
   33.5641   28.3169   29.8731 H   0  0  0  0  0  0  0  0  0  0  0  0
   33.9650   30.0913   26.2120 H   0  0  0  0  0  0  0  0  0  0  0  0
   33.4039   28.3600   26.4435 H   0  0  0  0  0  0  0  0  0  0  0  0
   32.0406   30.9221   26.7068 H   0  0  0  0  0  0  0  0  0  0  0  0
   31.7169   29.9173   28.9062 H   0  0  0  0  0  0  0  0  0  0  0  0
   30.9087   31.2597   28.0278 H   0  0  0  0  0  0  0  0  0  0  0  0
   30.1788   29.6184   28.0278 H   0  0  0  0  0  0  0  0  0  0  0  0
   31.6152   30.1134   24.6605 H   0  0  0  0  0  0  0  0  0  0  0  0
   31.3341   28.4172   25.2914 H   0  0  0  0  0  0  0  0  0  0  0  0
   29.2227   29.0984   26.2750 H   0  0  0  0  0  0  0  0  0  0  0  0
   29.4521   30.7762   25.7675 H   0  0  0  0  0  0  0  0  0  0  0  0
   29.3035   28.2869   23.9489 H   0  0  0  0  0  0  0  0  0  0  0  0
   28.1086   29.5878   24.0175 H   0  0  0  0  0  0  0  0  0  0  0  0
   30.2093   31.0142   23.6757 H   0  0  0  0  0  0  0  0  0  0  0  0
   29.2164   31.5218   22.0856 H   0  0  0  0  0  0  0  0  0  0  0  0
   27.6897   29.7661   22.3112 H   0  0  0  0  0  0  0  0  0  0  0  0
   31.3909   31.2550   21.2292 H   0  0  0  0  0  0  0  0  0  0  0  0
   30.8639   29.7658   20.3862 H   0  0  0  0  0  0  0  0  0  0  0  0
   29.0238   31.0402   19.2926 H   0  0  0  0  0  0  0  0  0  0  0  0
   29.5362   32.5265   20.1326 H   0  0  0  0  0  0  0  0  0  0  0  0
   31.6832   30.9968   18.7150 H   0  0  0  0  0  0  0  0  0  0  0  0
   29.1554   31.6444   17.4371 H   0  0  0  0  0  0  0  0  0  0  0  0
   30.4533   32.6616   16.7245 H   0  0  0  0  0  0  0  0  0  0  0  0
   30.6124   30.8723   16.7245 H   0  0  0  0  0  0  0  0  0  0  0  0
   32.8359   32.5560   18.9404 H   0  0  0  0  0  0  0  0  0  0  0  0
   31.9897   35.0034   18.1337 H   0  0  0  0  0  0  0  0  0  0  0  0
   33.7476   33.5755   17.0232 H   0  0  0  0  0  0  0  0  0  0  0  0
   32.4486   32.9495   15.9520 H   0  0  0  0  0  0  0  0  0  0  0  0
   32.8464   34.7012   15.9520 H   0  0  0  0  0  0  0  0  0  0  0  0
   29.6056   34.2105   17.9491 H   0  0  0  0  0  0  0  0  0  0  0  0
   30.2519   35.0575   16.5029 H   0  0  0  0  0  0  0  0  0  0  0  0
   30.1014   33.2676   16.5029 H   0  0  0  0  0  0  0  0  0  0  0  0
   32.2923   34.5229   21.5484 H   0  0  0  0  0  0  0  0  0  0  0  0
   31.5695   33.4505   23.2605 H   0  0  0  0  0  0  0  0  0  0  0  0
   41.2084   18.4331   58.9239 H   0  0  0  0  0  0  0  0  0  0  0  0
   42.2815   19.1422   60.1649 H   0  0  0  0  0  0  0  0  0  0  0  0
   44.4163   19.4261   61.1545 H   0  0  0  0  0  0  0  0  0  0  0  0
   44.5140   17.9995   62.1809 H   0  0  0  0  0  0  0  0  0  0  0  0
   46.2105   18.7726   59.8354 H   0  0  0  0  0  0  0  0  0  0  0  0
   46.5813   17.5841   61.0883 H   0  0  0  0  0  0  0  0  0  0  0  0
   45.2700   17.0736   58.3783 H   0  0  0  0  0  0  0  0  0  0  0  0
   46.4259   15.7628   61.7777 H   0  0  0  0  0  0  0  0  0  0  0  0
   45.7309   13.4177   59.2196 H   0  0  0  0  0  0  0  0  0  0  0  0
   48.7193   15.3030   58.4512 H   0  0  0  0  0  0  0  0  0  0  0  0
   47.8320   16.7595   57.8843 H   0  0  0  0  0  0  0  0  0  0  0  0
   49.0655   17.9956   59.3618 H   0  0  0  0  0  0  0  0  0  0  0  0
   48.2682   17.1878   60.6949 H   0  0  0  0  0  0  0  0  0  0  0  0
   52.0984   16.0557   59.5748 H   0  0  0  0  0  0  0  0  0  0  0  0
   51.2543   17.4303   58.7657 H   0  0  0  0  0  0  0  0  0  0  0  0
   51.5589   17.3090   61.7830 H   0  0  0  0  0  0  0  0  0  0  0  0
   52.8557   17.9725   60.7320 H   0  0  0  0  0  0  0  0  0  0  0  0
   51.2256   18.7270   60.7320 H   0  0  0  0  0  0  0  0  0  0  0  0
   48.9651   14.7616   60.9992 H   0  0  0  0  0  0  0  0  0  0  0  0
   50.0380   14.1842   59.6631 H   0  0  0  0  0  0  0  0  0  0  0  0
   50.6422   14.6902   62.5270 H   0  0  0  0  0  0  0  0  0  0  0  0
   51.3955   13.5525   61.3586 H   0  0  0  0  0  0  0  0  0  0  0  0
   51.8701   15.2850   61.3586 H   0  0  0  0  0  0  0  0  0  0  0  0
   44.2687   15.8485   61.0352 H   0  0  0  0  0  0  0  0  0  0  0  0
   44.4694   19.5785   58.8830 H   0  0  0  0  0  0  0  0  0  0  0  0
   45.1586   19.7582   61.4094 H   0  0  0  0  0  0  0  0  0  0  0  0
   46.0616   19.9938   59.9042 H   0  0  0  0  0  0  0  0  0  0  0  0
   42.9468   21.5107   58.5974 H   0  0  0  0  0  0  0  0  0  0  0  0
   44.5025   22.4049   59.2073 H   0  0  0  0  0  0  0  0  0  0  0  0
   43.6431   24.1884   61.1259 H   0  0  0  0  0  0  0  0  0  0  0  0
   43.9010   24.3670   59.4467 H   0  0  0  0  0  0  0  0  0  0  0  0
   41.7987   24.2787   59.5416 H   0  0  0  0  0  0  0  0  0  0  0  0
   41.1297   21.8355   58.9234 H   0  0  0  0  0  0  0  0  0  0  0  0
   41.3139   23.1059   62.0151 H   0  0  0  0  0  0  0  0  0  0  0  0
   40.6361   24.5100   61.1198 H   0  0  0  0  0  0  0  0  0  0  0  0
   39.5436   22.6707   59.5831 H   0  0  0  0  0  0  0  0  0  0  0  0
   38.6511   23.0705   62.3105 H   0  0  0  0  0  0  0  0  0  0  0  0
   40.9505   20.9047   60.8867 H   0  0  0  0  0  0  0  0  0  0  0  0
   39.6817   21.1448   62.1905 H   0  0  0  0  0  0  0  0  0  0  0  0
   39.5803   19.9492   59.5404 H   0  0  0  0  0  0  0  0  0  0  0  0
   37.0413   20.9484   59.9669 H   0  0  0  0  0  0  0  0  0  0  0  0
   38.3340   21.3962   58.8027 H   0  0  0  0  0  0  0  0  0  0  0  0
   37.6631   19.7299   58.8027 H   0  0  0  0  0  0  0  0  0  0  0  0
   39.8836   18.3012   61.0049 H   0  0  0  0  0  0  0  0  0  0  0  0
   38.6536   18.9919   62.1764 H   0  0  0  0  0  0  0  0  0  0  0  0
   36.8385   18.3389   60.7056 H   0  0  0  0  0  0  0  0  0  0  0  0
   37.9622   17.7130   59.4907 H   0  0  0  0  0  0  0  0  0  0  0  0
   37.6534   16.7651   62.4105 H   0  0  0  0  0  0  0  0  0  0  0  0
   37.2701   15.8191   60.9649 H   0  0  0  0  0  0  0  0  0  0  0  0
   39.6611   16.5095   60.3542 H   0  0  0  0  0  0  0  0  0  0  0  0
   39.8558   14.5846   60.3433 H   0  0  0  0  0  0  0  0  0  0  0  0
   38.6266   13.7718   62.6941 H   0  0  0  0  0  0  0  0  0  0  0  0
   41.8283   15.2591   61.4166 H   0  0  0  0  0  0  0  0  0  0  0  0
   41.1935   14.6257   62.9689 H   0  0  0  0  0  0  0  0  0  0  0  0
   40.8361   12.4001   61.9118 H   0  0  0  0  0  0  0  0  0  0  0  0
   41.4576   13.0195   60.3613 H   0  0  0  0  0  0  0  0  0  0  0  0
   43.1377   13.5635   62.7760 H   0  0  0  0  0  0  0  0  0  0  0  0
   43.0294   11.4095   63.5158 H   0  0  0  0  0  0  0  0  0  0  0  0
   42.1621   10.8682   62.0388 H   0  0  0  0  0  0  0  0  0  0  0  0
   43.9552   10.9758   62.0388 H   0  0  0  0  0  0  0  0  0  0  0  0
   44.5902   14.0733   61.5542 H   0  0  0  0  0  0  0  0  0  0  0  0
   45.3679   12.3725   59.5879 H   0  0  0  0  0  0  0  0  0  0  0  0
   45.8261   11.9807   62.5515 H   0  0  0  0  0  0  0  0  0  0  0  0
   46.6232   10.9489   61.3159 H   0  0  0  0  0  0  0  0  0  0  0  0
   46.8972   12.7242   61.3159 H   0  0  0  0  0  0  0  0  0  0  0  0
   43.9303   10.4097   61.4113 H   0  0  0  0  0  0  0  0  0  0  0  0
   43.2458   11.0133   59.8641 H   0  0  0  0  0  0  0  0  0  0  0  0
   44.7824   10.0831   59.8641 H   0  0  0  0  0  0  0  0  0  0  0  0
   43.7627   15.3187   58.6105 H   0  0  0  0  0  0  0  0  0  0  0  0
   41.2833   15.6517   59.6167 H   0  0  0  0  0  0  0  0  0  0  0  0
  1  2  1  0
  2  3  1  0
  3  4  1  0
  4  5  1  0
  5  6  1  0
  6  7  1  0
  7  8  1  6
  7  9  1  0
  7 10  1  0
 10 11  1  0
 11 12  1  0
 12 13  1  0
 13 14  1  0
 12 15  1  0
 15 16  1  0
  3 17  1  0
  6 17  1  0
  2 18  1  0
 18 19  1  0
 19 20  1  0
 18 21  1  0
 20 22  1  0
 21 22  1  0
 22 23  1  0
 23 24  1  0
 24 25  1  0
 24 26  1  0
 26 27  1  0
 27 28  1  0
 27 29  1  0
 29 30  1  0
 30 31  1  0
 30 32  1  0
 32 33  1  0
 33 34  1  0
 34 35  1  0
 35 36  1  0
 36 37  1  0
 36 38  1  0
 38 39  1  0
 39 40  1  0
 40 41  1  0
 40 42  1  0
 42 43  1  0
 43 44  1  0
 43 45  1  0
 42 46  1  0
 17 47  1  0
 46 47  1  0
 47 48  1  0
 49 50  1  0
 50 51  1  0
 51 52  1  0
 52 53  1  0
 53 54  1  0
 54 55  1  0
 55 56  1  6
 55 57  1  0
 55 58  1  0
 58 59  1  0
 59 60  1  0
 60 61  1  0
 61 62  1  0
 60 63  1  0
 63 64  1  0
 51 65  1  0
 54 65  1  0
 50 66  1  0
 66 67  1  0
 67 68  1  0
 66 69  1  0
 68 70  1  0
 69 70  1  0
 70 71  1  0
 71 72  1  0
 72 73  1  0
 72 74  1  0
 74 75  1  0
 75 76  1  0
 75 77  1  0
 77 78  1  0
 78 79  1  0
 78 80  1  0
 80 81  1  0
 81 82  1  0
 82 83  1  0
 83 84  1  0
 84 85  1  0
 84 86  1  0
 86 87  1  0
 87 88  1  0
 88 89  1  0
 88 90  1  0
 90 91  1  0
 91 92  1  0
 91 93  1  0
 90 94  1  0
 65 95  1  0
 94 95  1  0
 95 96  1  0
 97 98  1  0
 98 99  1  0
 99100  1  0
100101  1  0
101102  1  0
102103  1  0
103104  1  1
103105  1  0
103106  1  0
106107  1  0
107108  1  0
108109  1  0
109110  1  0
108111  1  0
111112  1  0
 99113  1  0
102113  1  0
 98114  1  0
114115  1  0
115116  1  0
114117  1  0
116118  1  0
117118  1  0
118119  1  0
119120  1  0
120121  1  0
120122  1  0
122123  1  0
123124  1  0
123125  1  0
125126  1  0
126127  1  0
126128  1  0
128129  1  0
129130  1  0
130131  1  0
131132  1  0
132133  1  0
132134  1  0
134135  1  0
135136  1  0
136137  1  0
136138  1  0
138139  1  0
139140  1  0
139141  1  0
138142  1  0
113143  1  0
142143  1  0
143144  1  0
  1145  1  0
  2146  1  0
  4147  1  0
  4148  1  0
  5149  1  0
  5150  1  0
  6151  1  1
  8152  1  0
  9153  1  0
 10154  1  0
 10155  1  0
 11156  1  0
 11157  1  0
 13158  1  0
 13159  1  0
 14160  1  0
 14161  1  0
 14162  1  0
 15163  1  0
 15164  1  0
 16165  1  0
 16166  1  0
 16167  1  0
 17168  1  6
 18169  1  1
 19170  1  0
 19171  1  0
 21172  1  0
 22173  1  0
 23174  1  0
 23175  1  0
 24176  1  6
 25177  1  0
 26178  1  0
 26179  1  0
 27180  1  1
 28181  1  0
 29182  1  0
 29183  1  0
 30184  1  1
 31185  1  0
 31186  1  0
 31187  1  0
 32188  1  0
 32189  1  0
 33190  1  0
 33191  1  0
 34192  1  0
 34193  1  0
 35194  1  0
 36195  1  1
 37196  1  0
 38197  1  0
 38198  1  0
 39199  1  0
 39200  1  0
 40201  1  6
 41202  1  0
 41203  1  0
 41204  1  0
 42205  1  6
 43206  1  1
 44207  1  0
 44208  1  0
 44209  1  0
 45210  1  0
 45211  1  0
 45212  1  0
 47213  1  0
 48214  1  0
 49215  1  0
 50216  1  0
 52217  1  0
 52218  1  0
 53219  1  0
 53220  1  0
 54221  1  1
 56222  1  0
 57223  1  0
 58224  1  0
 58225  1  0
 59226  1  0
 59227  1  0
 61228  1  0
 61229  1  0
 62230  1  0
 62231  1  0
 62232  1  0
 63233  1  0
 63234  1  0
 64235  1  0
 64236  1  0
 64237  1  0
 65238  1  6
 66239  1  1
 67240  1  0
 67241  1  0
 69242  1  0
 70243  1  0
 71244  1  0
 71245  1  0
 72246  1  1
 73247  1  0
 74248  1  0
 74249  1  0
 75250  1  1
 76251  1  0
 77252  1  0
 77253  1  0
 78254  1  6
 79255  1  0
 79256  1  0
 79257  1  0
 80258  1  0
 80259  1  0
 81260  1  0
 81261  1  0
 82262  1  0
 82263  1  0
 83264  1  0
 84265  1  1
 85266  1  0
 86267  1  0
 86268  1  0
 87269  1  0
 87270  1  0
 88271  1  6
 89272  1  0
 89273  1  0
 89274  1  0
 90275  1  1
 91276  1  1
 92277  1  0
 92278  1  0
 92279  1  0
 93280  1  0
 93281  1  0
 93282  1  0
 95283  1  0
 96284  1  0
 97285  1  0
 98286  1  1
100287  1  0
100288  1  0
101289  1  0
101290  1  0
102291  1  6
104292  1  0
105293  1  0
106294  1  0
106295  1  0
107296  1  0
107297  1  0
109298  1  0
109299  1  0
110300  1  0
110301  1  0
110302  1  0
111303  1  0
111304  1  0
112305  1  0
112306  1  0
112307  1  0
113308  1  1
114309  1  6
115310  1  0
115311  1  0
117312  1  0
118313  1  6
119314  1  0
119315  1  0
120316  1  6
121317  1  0
122318  1  0
122319  1  0
123320  1  6
124321  1  0
125322  1  0
125323  1  0
126324  1  6
127325  1  0
127326  1  0
127327  1  0
128328  1  0
128329  1  0
129330  1  0
129331  1  0
130332  1  0
130333  1  0
131334  1  0
132335  1  6
133336  1  0
134337  1  0
134338  1  0
135339  1  0
135340  1  0
136341  1  1
137342  1  0
137343  1  0
137344  1  0
138345  1  1
139346  1  6
140347  1  0
140348  1  0
140349  1  0
141350  1  0
141351  1  0
141352  1  0
143353  1  0
144354  1  0
M  END
>  <PDBID>  (1) 
1MRL

>  <PDB ID>  (1) 
1MRL

>  <Generic Name>  (1) 
Dalfopristin

>  <Brand Name>  (1) 
Synercid

>  <DrugBank ID>  (1) 
DB01764

>  <ATC Codes>  (1) 
nan

>  <Ligand ID>  (1) 
DOL

>  <Target Name>  (1) 
Streptogramin A acetyltransferase

>  <UniProt ID>  (1) 
P50870

>  <PDB ID.1>  (1) 
1MRL

>  <Seq. Identity>  (1) 
100%

$$$$
