PDB_DB01157_99
     RDKit          3D

 50 52  0  0  0  0  0  0  0  0999 V2000
   22.9050   35.0330   24.2520 N   0  0  0  0  0  0  0  0  0  0  0  0
   23.3370   34.1810   25.1780 C   0  0  0  0  0  0  0  0  0  0  0  0
   24.0560   34.6250   26.2250 N   0  0  0  0  0  0  0  0  0  0  0  0
   24.3480   35.9340   26.3490 C   0  0  0  0  0  0  0  0  0  0  0  0
   23.1650   36.3440   24.3290 C   0  0  0  0  0  0  0  0  0  0  0  0
   23.9080   36.8740   25.3910 C   0  0  0  0  0  0  0  0  0  0  0  0
   24.1500   38.2710   25.4190 C   0  0  0  0  0  0  0  0  0  0  0  0
   23.6390   39.0840   24.3830 C   0  0  0  0  0  0  0  0  0  0  0  0
   22.9160   38.5110   23.3430 C   0  0  0  0  0  0  0  0  0  0  0  0
   22.6750   37.1520   23.3160 C   0  0  0  0  0  0  0  0  0  0  0  0
   23.8480   40.4740   24.2750 C   0  0  0  0  0  0  0  0  0  0  0  0
   23.0530   41.2860   25.1790 N   0  0  0  0  0  0  0  0  0  0  0  0
   21.8240   41.7490   24.9220 C   0  0  0  0  0  0  0  0  0  0  0  0
   20.8060   41.2720   25.7430 C   0  0  0  0  0  0  0  0  0  0  0  0
   19.5070   41.7270   25.5740 C   0  0  0  0  0  0  0  0  0  0  0  0
   19.2270   42.6580   24.5700 C   0  0  0  0  0  0  0  0  0  0  0  0
   20.2390   43.1530   23.7440 C   0  0  0  0  0  0  0  0  0  0  0  0
   21.5580   42.7010   23.9240 C   0  0  0  0  0  0  0  0  0  0  0  0
   24.8690   38.8600   26.4590 C   0  0  0  0  0  0  0  0  0  0  0  0
   18.4690   41.2830   26.3450 O   0  0  0  0  0  0  0  0  0  0  0  0
   17.9460   43.1140   24.4040 O   0  0  0  0  0  0  0  0  0  0  0  0
   19.8670   44.0760   22.7980 O   0  0  0  0  0  0  0  0  0  0  0  0
   18.8840   40.4160   27.4350 C   0  0  0  0  0  0  0  0  0  0  0  0
   17.0780   42.2520   23.6280 C   0  0  0  0  0  0  0  0  0  0  0  0
   19.8040   43.5380   21.4640 C   0  0  0  0  0  0  0  0  0  0  0  0
   23.0370   32.8950   25.0360 N   0  0  0  0  0  0  0  0  0  0  0  0
   25.0590   36.3540   27.3910 N   0  0  0  0  0  0  0  0  0  0  0  0
   22.5316   39.1477   22.5325 H   0  0  0  0  0  0  0  0  0  0  0  0
   22.0950   36.7115   22.4917 H   0  0  0  0  0  0  0  0  0  0  0  0
   24.9098   40.6763   24.4789 H   0  0  0  0  0  0  0  0  0  0  0  0
   23.5378   40.7534   23.2573 H   0  0  0  0  0  0  0  0  0  0  0  0
   23.4682   41.5247   26.0909 H   0  0  0  0  0  0  0  0  0  0  0  0
   21.0322   40.5336   26.5264 H   0  0  0  0  0  0  0  0  0  0  0  0
   22.3709   43.0877   23.2918 H   0  0  0  0  0  0  0  0  0  0  0  0
   24.4598   38.5248   27.4235 H   0  0  0  0  0  0  0  0  0  0  0  0
   25.9263   38.5651   26.3869 H   0  0  0  0  0  0  0  0  0  0  0  0
   24.7879   39.9546   26.3869 H   0  0  0  0  0  0  0  0  0  0  0  0
   18.6529   40.8989   28.3959 H   0  0  0  0  0  0  0  0  0  0  0  0
   18.3465   39.4587   27.3670 H   0  0  0  0  0  0  0  0  0  0  0  0
   19.9667   40.2342   27.3670 H   0  0  0  0  0  0  0  0  0  0  0  0
   16.4641   41.6424   24.3073 H   0  0  0  0  0  0  0  0  0  0  0  0
   16.4225   42.8668   22.9937 H   0  0  0  0  0  0  0  0  0  0  0  0
   17.6883   41.5923   22.9937 H   0  0  0  0  0  0  0  0  0  0  0  0
   19.6762   42.4466   21.5145 H   0  0  0  0  0  0  0  0  0  0  0  0
   18.9518   43.9826   20.9292 H   0  0  0  0  0  0  0  0  0  0  0  0
   20.7359   43.7737   20.9292 H   0  0  0  0  0  0  0  0  0  0  0  0
   23.3572   32.2111   25.7364 H   0  0  0  0  0  0  0  0  0  0  0  0
   22.4841   32.5816   24.2255 H   0  0  0  0  0  0  0  0  0  0  0  0
   25.2852   37.3539   27.4908 H   0  0  0  0  0  0  0  0  0  0  0  0
   25.3837   35.6795   28.0985 H   0  0  0  0  0  0  0  0  0  0  0  0
  1  2  2  0
  2  3  1  0
  3  4  2  0
  1  5  1  0
  4  6  1  0
  5  6  2  0
  6  7  1  0
  7  8  2  0
  8  9  1  0
  5 10  1  0
  9 10  2  0
  8 11  1  0
 11 12  1  0
 12 13  1  0
 13 14  2  0
 14 15  1  0
 15 16  2  0
 16 17  1  0
 13 18  1  0
 17 18  2  0
  7 19  1  0
 15 20  1  0
 16 21  1  0
 17 22  1  0
 20 23  1  0
 21 24  1  0
 22 25  1  0
  2 26  1  0
  4 27  1  0
  9 28  1  0
 10 29  1  0
 11 30  1  0
 11 31  1  0
 12 32  1  0
 14 33  1  0
 18 34  1  0
 19 35  1  0
 19 36  1  0
 19 37  1  0
 23 38  1  0
 23 39  1  0
 23 40  1  0
 24 41  1  0
 24 42  1  0
 24 43  1  0
 25 44  1  0
 25 45  1  0
 25 46  1  0
 26 47  1  0
 26 48  1  0
 27 49  1  0
 27 50  1  0
M  END
$$$$
