PDB_DB01409_98
     RDKit          3D

116124  0  0  0  0  0  0  0  0999 V2000
   50.6740    7.7540   61.3640 C   0  0  0  0  0  0  0  0  0  0  0  0
   49.9240    7.2510   60.5340 O   0  0  0  0  0  0  0  0  0  0  0  0
   52.6930    9.0950   61.0640 C   0  0  0  0  0  0  0  0  0  0  0  0
   52.7760    7.0950   62.4530 C   0  0  0  0  0  0  0  0  0  0  0  0
   51.9830   10.2630   60.8970 C   0  0  0  0  0  0  0  0  0  0  0  0
   52.6570   11.4420   60.7850 C   0  0  0  0  0  0  0  0  0  0  0  0
   54.0270   11.4240   60.8440 C   0  0  0  0  0  0  0  0  0  0  0  0
   53.0810    7.7530   63.6180 C   0  0  0  0  0  0  0  0  0  0  0  0
   53.6250    7.0690   64.6520 C   0  0  0  0  0  0  0  0  0  0  0  0
   53.8610    5.7240   64.5110 C   0  0  0  0  0  0  0  0  0  0  0  0
   50.5050    7.8370   66.4320 O   0  0  0  0  0  0  0  0  0  0  0  0
   50.1810    8.4080   62.5090 O   0  0  0  0  0  0  0  0  0  0  0  0
   52.4350    6.9360   60.0900 O   0  0  0  0  0  0  0  0  0  0  0  0
   54.3710    9.6790   61.0640 S   0  0  0  0  0  0  0  0  0  0  0  0
   53.2820    5.4280   62.8340 S   0  0  0  0  0  0  0  0  0  0  0  0
   46.4490    8.3690   65.2440 C   0  0  0  0  0  0  0  0  0  0  0  0
   48.6620    9.2110   65.2240 C   0  0  2  0  0  0  0  0  0  0  0  0
   48.5710    9.5840   63.7730 C   0  0  0  0  0  0  0  0  0  0  0  0
   48.8150    8.4010   62.8650 C   0  0  2  0  0  0  0  0  0  0  0  0
   48.4200    7.0670   63.4780 C   0  0  0  0  0  0  0  0  0  0  0  0
   48.4920    7.1040   64.9830 C   0  0  1  0  0  0  0  0  0  0  0  0
   49.9930    7.2760   65.2270 C   0  0  1  0  0  0  0  0  0  0  0  0
   50.1030    8.7340   65.3960 C   0  0  2  0  0  0  0  0  0  0  0  0
   47.6750    7.9990   67.0620 C   0  0  0  0  0  0  0  0  0  0  0  0
   52.1700    7.6930   61.2080 C   0  0  1  0  0  0  0  0  0  0  0  0
   47.8100    8.1680   65.6200 N   0  0  2  0  0  4  0  0  0  0  0  0
   61.6850    0.6780   92.4540 C   0  0  0  0  0  0  0  0  0  0  0  0
   62.5460    1.1140   91.6980 O   0  0  0  0  0  0  0  0  0  0  0  0
   59.7650   -0.7170   91.8890 C   0  0  0  0  0  0  0  0  0  0  0  0
   59.4330    1.3220   93.2020 C   0  0  0  0  0  0  0  0  0  0  0  0
   60.5260   -1.8640   91.8370 C   0  0  0  0  0  0  0  0  0  0  0  0
   59.9070   -3.0630   91.6520 C   0  0  0  0  0  0  0  0  0  0  0  0
   58.5420   -3.0870   91.5230 C   0  0  0  0  0  0  0  0  0  0  0  0
   58.9030    0.6820   94.2940 C   0  0  0  0  0  0  0  0  0  0  0  0
   58.2110    1.3900   95.2170 C   0  0  0  0  0  0  0  0  0  0  0  0
   58.0510    2.7410   95.0380 C   0  0  0  0  0  0  0  0  0  0  0  0
   61.2140    0.4490   97.5870 O   0  0  0  0  0  0  0  0  0  0  0  0
   62.0130    0.1390   93.7120 O   0  0  0  0  0  0  0  0  0  0  0  0
   60.1180    1.4160   90.9130 O   0  0  0  0  0  0  0  0  0  0  0  0
   58.1200   -1.3520   91.6680 S   0  0  0  0  0  0  0  0  0  0  0  0
   58.9270    3.0070   93.4890 S   0  0  0  0  0  0  0  0  0  0  0  0
   65.3920    0.0350   96.8680 C   0  0  0  0  0  0  0  0  0  0  0  0
   63.2140   -0.8290   96.5280 C   0  0  2  0  0  0  0  0  0  0  0  0
   63.4840   -1.1070   95.0780 C   0  0  0  0  0  0  0  0  0  0  0  0
   63.3300    0.1300   94.2210 C   0  0  2  0  0  0  0  0  0  0  0  0
   63.6330    1.4240   94.9580 C   0  0  0  0  0  0  0  0  0  0  0  0
   63.3740    1.2910   96.4370 C   0  0  1  0  0  0  0  0  0  0  0  0
   61.8580    1.0870   96.4870 C   0  0  1  0  0  0  0  0  0  0  0  0
   61.7530   -0.3800   96.5560 C   0  0  2  0  0  0  0  0  0  0  0  0
   63.9480    0.2730   98.5420 C   0  0  0  0  0  0  0  0  0  0  0  0
   60.2280    0.7000   92.0800 C   0  0  1  0  0  0  0  0  0  0  0  0
   63.9920    0.1960   97.0860 N   0  0  2  0  0  4  0  0  0  0  0  0
   50.6492    8.7043   60.8105 H   0  0  0  0  0  0  0  0  0  0  0  0
   49.1976    6.7639   60.9979 H   0  0  0  0  0  0  0  0  0  0  0  0
   52.7378    8.9662   59.9725 H   0  0  0  0  0  0  0  0  0  0  0  0
   53.7828    7.3123   62.0667 H   0  0  0  0  0  0  0  0  0  0  0  0
   51.3847   10.1469   59.9812 H   0  0  0  0  0  0  0  0  0  0  0  0
   51.4282   10.3683   61.8410 H   0  0  0  0  0  0  0  0  0  0  0  0
   52.3801   11.8828   59.8160 H   0  0  0  0  0  0  0  0  0  0  0  0
   52.3578   12.0075   61.6798 H   0  0  0  0  0  0  0  0  0  0  0  0
   54.4717   11.8042   59.9125 H   0  0  0  0  0  0  0  0  0  0  0  0
   54.4440   12.0607   61.6382 H   0  0  0  0  0  0  0  0  0  0  0  0
   53.7896    8.5527   63.3566 H   0  0  0  0  0  0  0  0  0  0  0  0
   52.0977    8.0606   64.0034 H   0  0  0  0  0  0  0  0  0  0  0  0
   54.5911    7.5434   64.8793 H   0  0  0  0  0  0  0  0  0  0  0  0
   52.8549    7.1204   65.4358 H   0  0  0  0  0  0  0  0  0  0  0  0
   54.9313    5.4916   64.6128 H   0  0  0  0  0  0  0  0  0  0  0  0
   53.3668    5.1012   65.2712 H   0  0  0  0  0  0  0  0  0  0  0  0
   52.7491    6.0386   60.3659 H   0  0  0  0  0  0  0  0  0  0  0  0
   45.8286    8.4606   66.1477 H   0  0  0  0  0  0  0  0  0  0  0  0
   46.3656    9.2892   64.6471 H   0  0  0  0  0  0  0  0  0  0  0  0
   46.1031    7.5122   64.6471 H   0  0  0  0  0  0  0  0  0  0  0  0
   48.3666   10.0753   65.8369 H   0  0  0  0  0  0  0  0  0  0  0  0
   47.5662    9.9839   63.5720 H   0  0  0  0  0  0  0  0  0  0  0  0
   49.3482   10.3347   63.5671 H   0  0  0  0  0  0  0  0  0  0  0  0
   48.1713    8.5066   61.9792 H   0  0  0  0  0  0  0  0  0  0  0  0
   47.3900    6.8265   63.1759 H   0  0  0  0  0  0  0  0  0  0  0  0
   49.1240    6.3019   63.1189 H   0  0  0  0  0  0  0  0  0  0  0  0
   48.0100    6.2069   65.3987 H   0  0  0  0  0  0  0  0  0  0  0  0
   50.3689    6.4013   64.6760 H   0  0  0  0  0  0  0  0  0  0  0  0
   50.6157    9.6434   65.0493 H   0  0  0  0  0  0  0  0  0  0  0  0
   48.2812    8.7578   67.5784 H   0  0  0  0  0  0  0  0  0  0  0  0
   46.6193    8.1164   67.3477 H   0  0  0  0  0  0  0  0  0  0  0  0
   48.0227    6.9953   67.3477 H   0  0  0  0  0  0  0  0  0  0  0  0
   61.7905   -0.3182   91.9997 H   0  0  0  0  0  0  0  0  0  0  0  0
   63.2913    1.4914   92.2293 H   0  0  0  0  0  0  0  0  0  0  0  0
   59.8663   -0.6004   90.7999 H   0  0  0  0  0  0  0  0  0  0  0  0
   58.5036    1.1381   92.6431 H   0  0  0  0  0  0  0  0  0  0  0  0
   61.2395   -1.7393   91.0092 H   0  0  0  0  0  0  0  0  0  0  0  0
   60.9519   -1.9421   92.8482 H   0  0  0  0  0  0  0  0  0  0  0  0
   60.3264   -3.5059   90.7366 H   0  0  0  0  0  0  0  0  0  0  0  0
   60.0961   -3.6082   92.5885 H   0  0  0  0  0  0  0  0  0  0  0  0
   58.2405   -3.4908   90.5452 H   0  0  0  0  0  0  0  0  0  0  0  0
   58.0390   -3.7278   92.2622 H   0  0  0  0  0  0  0  0  0  0  0  0
   58.2225   -0.0924   93.9104 H   0  0  0  0  0  0  0  0  0  0  0  0
   59.7910    0.3411   94.8464 H   0  0  0  0  0  0  0  0  0  0  0  0
   57.2039    0.9508   95.2712 H   0  0  0  0  0  0  0  0  0  0  0  0
   58.8297    1.3161   96.1235 H   0  0  0  0  0  0  0  0  0  0  0  0
   56.9883    3.0111   94.9497 H   0  0  0  0  0  0  0  0  0  0  0  0
   58.4249    3.3505   95.8739 H   0  0  0  0  0  0  0  0  0  0  0  0
   59.9712    2.3718   91.1249 H   0  0  0  0  0  0  0  0  0  0  0  0
   65.9095   -0.0245   97.8368 H   0  0  0  0  0  0  0  0  0  0  0  0
   65.5706   -0.8896   96.2995 H   0  0  0  0  0  0  0  0  0  0  0  0
   65.7758    0.8949   96.2995 H   0  0  0  0  0  0  0  0  0  0  0  0
   63.4507   -1.7275   97.1168 H   0  0  0  0  0  0  0  0  0  0  0  0
   64.5124   -1.4836   94.9750 H   0  0  0  0  0  0  0  0  0  0  0  0
   62.7494   -1.8499   94.7340 H   0  0  0  0  0  0  0  0  0  0  0  0
   64.0714    0.0829   93.4098 H   0  0  0  0  0  0  0  0  0  0  0  0
   64.6902    1.6849   94.8023 H   0  0  0  0  0  0  0  0  0  0  0  0
   62.9732    2.2097   94.5613 H   0  0  0  0  0  0  0  0  0  0  0  0
   63.7828    2.1674   96.9612 H   0  0  0  0  0  0  0  0  0  0  0  0
   61.5363    1.9891   95.9461 H   0  0  0  0  0  0  0  0  0  0  0  0
   61.3009   -1.2727   96.0992 H   0  0  0  0  0  0  0  0  0  0  0  0
   64.4505   -0.6064   98.9710 H   0  0  0  0  0  0  0  0  0  0  0  0
   64.4600    1.1874   98.8765 H   0  0  0  0  0  0  0  0  0  0  0  0
   62.9003    0.2961   98.8765 H   0  0  0  0  0  0  0  0  0  0  0  0
  1  2  1  0
  3  5  1  0
  5  6  1  0
  6  7  1  0
  4  8  1  0
  8  9  1  0
  9 10  1  0
  1 12  1  0
  3 14  1  0
  7 14  1  0
  4 15  1  0
 10 15  1  0
 17 18  1  0
 12 19  1  0
 18 19  1  0
 19 20  1  0
 20 21  1  0
 11 22  1  0
 21 22  1  0
 11 23  1  0
 17 23  1  0
 22 23  1  0
  1 25  1  0
  3 25  1  0
  4 25  1  0
 25 13  1  6
 26 16  1  6
 17 26  1  0
 21 26  1  0
 24 26  1  0
 27 28  1  0
 29 31  1  0
 31 32  1  0
 32 33  1  0
 30 34  1  0
 34 35  1  0
 35 36  1  0
 27 38  1  0
 29 40  1  0
 33 40  1  0
 30 41  1  0
 36 41  1  0
 43 44  1  0
 38 45  1  0
 44 45  1  0
 45 46  1  0
 46 47  1  0
 37 48  1  0
 47 48  1  0
 37 49  1  0
 43 49  1  0
 48 49  1  0
 27 51  1  0
 29 51  1  0
 30 51  1  0
 51 39  1  6
 52 42  1  1
 43 52  1  0
 47 52  1  0
 50 52  1  0
  1 53  1  0
  2 54  1  0
  3 55  1  0
  4 56  1  0
  5 57  1  0
  5 58  1  0
  6 59  1  0
  6 60  1  0
  7 61  1  0
  7 62  1  0
  8 63  1  0
  8 64  1  0
  9 65  1  0
  9 66  1  0
 10 67  1  0
 10 68  1  0
 13 69  1  0
 16 70  1  0
 16 71  1  0
 16 72  1  0
 17 73  1  1
 18 74  1  0
 18 75  1  0
 19 76  1  6
 20 77  1  0
 20 78  1  0
 21 79  1  1
 22 80  1  6
 23 81  1  6
 24 82  1  0
 24 83  1  0
 24 84  1  0
 27 85  1  0
 28 86  1  0
 29 87  1  0
 30 88  1  0
 31 89  1  0
 31 90  1  0
 32 91  1  0
 32 92  1  0
 33 93  1  0
 33 94  1  0
 34 95  1  0
 34 96  1  0
 35 97  1  0
 35 98  1  0
 36 99  1  0
 36100  1  0
 39101  1  0
 42102  1  0
 42103  1  0
 42104  1  0
 43105  1  1
 44106  1  0
 44107  1  0
 45108  1  6
 46109  1  0
 46110  1  0
 47111  1  1
 48112  1  6
 49113  1  6
 50114  1  0
 50115  1  0
 50116  1  0
M  CHG  2  26   1  52   1
M  END
>  <PDBID>  (1) 
5DSG

>  <PDB ID>  (1) 
5DSG

>  <Generic Name>  (1) 
Tiotropium

>  <Brand Name>  (1) 
Inspiolto Respimat#Spiriva#Spiriva Respimat#Stiolto Respimat

>  <DrugBank ID>  (1) 
DB01409

>  <ATC Codes>  (1) 
R03AL06#R03BB54#R03BB04

>  <Ligand ID>  (1) 
0HK

>  <Target Name>  (1) 
Muscarinic acetylcholine receptor M3

>  <UniProt ID>  (1) 
P20309

>  <PDB ID.1>  (1) 
5DSG

>  <Seq. Identity>  (1) 
68%

$$$$
