PDB_DB00558_96
     RDKit          3D

408408  0  0  0  0  0  0  0  0999 V2000
   -6.6150   45.8180   56.0190 C   0  0  0  0  0  0  0  0  0  0  0  0
   -7.6420   46.5040   55.7560 O   0  0  0  0  0  0  0  0  0  0  0  0
   -6.7440   44.8560   56.8140 O   0  0  0  0  0  0  0  0  0  0  0  0
   -5.3930   46.1420   55.4720 C   0  0  1  0  0  0  0  0  0  0  0  0
   -4.3940   44.9560   55.2580 C   0  0  0  0  0  0  0  0  0  0  0  0
   -3.2960   45.2470   54.3120 C   0  0  1  0  0  0  0  0  0  0  0  0
   -3.3060   46.5520   53.7720 C   0  0  1  0  0  0  0  0  0  0  0  0
   -2.2900   46.5860   52.6030 N   0  0  0  0  0  0  0  0  0  0  0  0
   -1.0240   47.2410   52.6760 C   0  0  0  0  0  0  0  0  0  0  0  0
   -0.6490   47.8500   53.6710 O   0  0  0  0  0  0  0  0  0  0  0  0
   -0.1850   47.1400   51.4490 C   0  0  0  0  0  0  0  0  0  0  0  0
   -4.5900   46.9310   53.2260 C   0  0  1  0  0  0  0  0  0  0  0  0
   -5.6890   46.6870   54.1130 O   0  0  0  0  0  0  0  0  0  0  0  0
   -4.6910   48.3770   52.7250 C   0  0  2  0  0  0  0  0  0  0  0  0
   -4.4220   49.2760   53.7180 O   0  0  0  0  0  0  0  0  0  0  0  0
   -6.0980   48.6270   52.2050 C   0  0  2  0  0  0  0  0  0  0  0  0
   -6.4310   47.6220   51.3180 O   0  0  0  0  0  0  0  0  0  0  0  0
   -6.2260   49.9710   51.5150 C   0  0  0  0  0  0  0  0  0  0  0  0
   -5.3700   50.1660   50.4280 O   0  0  0  0  0  0  0  0  0  0  0  0
   -1.9240   44.9770   54.9940 N   0  0  0  0  0  0  0  0  0  0  0  0
   -0.8440   44.2550   54.3560 C   0  0  0  0  0  0  0  0  0  0  0  0
   -1.0140   43.5270   53.2540 N   0  0  0  0  0  0  0  0  0  0  0  0
    0.3180   44.2940   54.9290 N   0  0  0  0  0  0  0  0  0  0  0  0
  -16.2040    6.5010   75.1890 C   0  0  0  0  0  0  0  0  0  0  0  0
  -16.9360    5.5730   75.6380 O   0  0  0  0  0  0  0  0  0  0  0  0
  -14.9770    6.5450   75.5310 O   0  0  0  0  0  0  0  0  0  0  0  0
  -16.7720    7.4330   74.3590 C   0  0  1  0  0  0  0  0  0  0  0  0
  -15.7900    7.9940   73.2840 C   0  0  0  0  0  0  0  0  0  0  0  0
  -16.3960    8.5790   72.0730 C   0  0  1  0  0  0  0  0  0  0  0  0
  -17.8160    8.5560   72.0340 C   0  0  1  0  0  0  0  0  0  0  0  0
  -18.2130    8.8810   70.5600 N   0  0  0  0  0  0  0  0  0  0  0  0
  -18.7390   10.1400   70.1240 C   0  0  0  0  0  0  0  0  0  0  0  0
  -18.9410   11.0600   70.8940 O   0  0  0  0  0  0  0  0  0  0  0  0
  -19.0490   10.3040   68.6710 C   0  0  0  0  0  0  0  0  0  0  0  0
  -18.3980    7.2860   72.4230 C   0  0  1  0  0  0  0  0  0  0  0  0
  -17.9140    6.7420   73.6710 O   0  0  0  0  0  0  0  0  0  0  0  0
  -19.9310    7.2490   72.4680 C   0  0  2  0  0  0  0  0  0  0  0  0
  -20.4130    8.0800   73.4400 O   0  0  0  0  0  0  0  0  0  0  0  0
  -20.3940    5.8390   72.8120 C   0  0  2  0  0  0  0  0  0  0  0  0
  -19.8990    4.9430   71.8840 O   0  0  0  0  0  0  0  0  0  0  0  0
  -21.9000    5.7140   72.8710 C   0  0  0  0  0  0  0  0  0  0  0  0
  -22.5550    5.9180   71.6600 O   0  0  0  0  0  0  0  0  0  0  0  0
  -15.8710   10.0310   71.8550 N   0  0  0  0  0  0  0  0  0  0  0  0
  -15.5510   10.4930   70.5270 C   0  0  2  0  0  0  0  0  0  0  0  0
  -15.4180    9.6080   69.5450 N   0  0  0  0  0  0  0  0  0  0  0  0
  -15.0340   11.6770   70.4070 N   0  0  0  0  0  0  0  0  0  0  0  0
   36.9430   38.3940   62.3250 C   0  0  0  0  0  0  0  0  0  0  0  0
   37.7660   39.3430   62.2240 O   0  0  0  0  0  0  0  0  0  0  0  0
   35.7360   38.5950   62.6580 O   0  0  0  0  0  0  0  0  0  0  0  0
   37.3910   37.1490   62.0170 C   0  0  2  0  0  0  0  0  0  0  0  0
   36.7440   35.9410   62.7320 C   0  0  0  0  0  0  0  0  0  0  0  0
   37.4210   34.6780   62.3920 C   0  0  1  0  0  0  0  0  0  0  0  0
   38.8380   34.7350   62.4340 C   0  0  1  0  0  0  0  0  0  0  0  0
   39.3860   33.3980   61.8720 N   0  0  0  0  0  0  0  0  0  0  0  0
   39.9140   32.3760   62.7080 C   0  0  0  0  0  0  0  0  0  0  0  0
   39.9840   32.5130   63.9150 O   0  0  0  0  0  0  0  0  0  0  0  0
   40.3930   31.1220   62.0380 C   0  0  0  0  0  0  0  0  0  0  0  0
   39.3940   35.8600   61.7010 C   0  0  1  0  0  0  0  0  0  0  0  0
   38.8470   37.0570   62.2680 O   0  0  0  0  0  0  0  0  0  0  0  0
   40.9290   35.9680   61.7440 C   0  0  2  0  0  0  0  0  0  0  0  0
   41.3250   36.2540   63.0210 O   0  0  0  0  0  0  0  0  0  0  0  0
   41.4520   37.1000   60.8660 C   0  0  2  0  0  0  0  0  0  0  0  0
   41.1000   36.8690   59.5530 O   0  0  0  0  0  0  0  0  0  0  0  0
   42.9590   37.3000   60.9670 C   0  0  0  0  0  0  0  0  0  0  0  0
   43.7810   36.3280   60.3730 O   0  0  0  0  0  0  0  0  0  0  0  0
   36.8550   33.5480   63.2980 N   0  0  0  0  0  0  0  0  0  0  0  0
   36.4900   32.2310   62.8280 C   0  0  1  0  0  0  0  0  0  0  0  0
   36.6940   31.8850   61.5640 N   0  0  0  0  0  0  0  0  0  0  0  0
   36.3930   31.2970   63.7330 N   0  0  0  0  0  0  0  0  0  0  0  0
   27.4390   -0.7610   81.8980 C   0  0  0  0  0  0  0  0  0  0  0  0
   28.3570   -1.2660   82.6030 O   0  0  0  0  0  0  0  0  0  0  0  0
   27.3900    0.4860   81.7160 O   0  0  0  0  0  0  0  0  0  0  0  0
   26.5210   -1.5680   81.2960 C   0  0  2  0  0  0  0  0  0  0  0  0
   25.1500   -0.9370   80.9520 C   0  0  0  0  0  0  0  0  0  0  0  0
   24.2090   -1.8950   80.3300 C   0  0  1  0  0  0  0  0  0  0  0  0
   24.2190   -3.1950   80.8850 C   0  0  1  0  0  0  0  0  0  0  0  0
   23.4550   -4.1790   79.9470 N   0  0  0  0  0  0  0  0  0  0  0  0
   22.1740   -4.6610   80.3720 C   0  0  0  0  0  0  0  0  0  0  0  0
   21.7240   -4.2960   81.4460 O   0  0  0  0  0  0  0  0  0  0  0  0
   21.4010   -5.6080   79.4930 C   0  0  0  0  0  0  0  0  0  0  0  0
   25.5340   -3.7240   81.1990 C   0  0  1  0  0  0  0  0  0  0  0  0
   26.2550   -2.8160   82.0530 O   0  0  0  0  0  0  0  0  0  0  0  0
   25.4660   -5.0630   81.9190 C   0  0  2  0  0  0  0  0  0  0  0  0
   25.1010   -4.8190   83.2090 O   0  0  0  0  0  0  0  0  0  0  0  0
   26.8380   -5.7080   81.9610 C   0  0  2  0  0  0  0  0  0  0  0  0
   27.2960   -5.8400   80.6690 O   0  0  0  0  0  0  0  0  0  0  0  0
   26.8530   -7.0380   82.6980 C   0  0  0  0  0  0  0  0  0  0  0  0
   26.1030   -8.0850   82.1530 O   0  0  0  0  0  0  0  0  0  0  0  0
   22.7600   -1.3300   80.3390 N   0  0  0  0  0  0  0  0  0  0  0  0
   21.8580   -1.4040   79.2000 C   0  0  1  0  0  0  0  0  0  0  0  0
   22.2330   -1.9560   78.0510 N   0  0  0  0  0  0  0  0  0  0  0  0
   20.5910   -1.1640   79.4150 N   0  0  0  0  0  0  0  0  0  0  0  0
    9.0320   51.7770  110.5640 C   0  0  0  0  0  0  0  0  0  0  0  0
    8.3490   50.7910  110.1910 O   0  0  0  0  0  0  0  0  0  0  0  0
   10.0650   51.6160  111.2730 O   0  0  0  0  0  0  0  0  0  0  0  0
    8.6560   53.0140  110.1620 C   0  0  2  0  0  0  0  0  0  0  0  0
    9.2700   54.1730  110.9800 C   0  0  0  0  0  0  0  0  0  0  0  0
    8.8380   55.4900  110.4920 C   0  0  1  0  0  0  0  0  0  0  0  0
    7.4500   55.5820  110.2600 C   0  0  1  0  0  0  0  0  0  0  0  0
    7.1040   56.9470  109.5730 N   0  0  0  0  0  0  0  0  0  0  0  0
    6.5340   58.0230  110.3470 C   0  0  0  0  0  0  0  0  0  0  0  0
    6.3180   57.8890  111.5400 O   0  0  0  0  0  0  0  0  0  0  0  0
    6.2020   59.3290  109.6880 C   0  0  0  0  0  0  0  0  0  0  0  0
    6.8920   54.4650  109.5100 C   0  0  1  0  0  0  0  0  0  0  0  0
    7.1720   53.2030  110.1550 O   0  0  0  0  0  0  0  0  0  0  0  0
    5.3860   54.5780  109.2570 C   0  0  2  0  0  0  0  0  0  0  0  0
    4.6830   54.2970  110.3980 O   0  0  0  0  0  0  0  0  0  0  0  0
    4.9940   53.6180  108.1470 C   0  0  2  0  0  0  0  0  0  0  0  0
    5.4590   54.1440  106.9600 O   0  0  0  0  0  0  0  0  0  0  0  0
    3.5040   53.3350  108.0520 C   0  0  0  0  0  0  0  0  0  0  0  0
    2.6480   54.4370  108.0010 O   0  0  0  0  0  0  0  0  0  0  0  0
    9.3230   56.5990  111.4670 N   0  0  0  0  0  0  0  0  0  0  0  0
    9.7350   57.8990  110.9890 C   0  0  0  0  0  0  0  0  0  0  0  0
    9.8700   58.1360  109.6920 N   0  0  0  0  0  0  0  0  0  0  0  0
    9.9500   58.8440  111.8540 N   0  0  0  0  0  0  0  0  0  0  0  0
   52.4950   41.5910  111.2410 C   0  0  0  0  0  0  0  0  0  0  0  0
   53.5620   40.9320  111.1710 O   0  0  0  0  0  0  0  0  0  0  0  0
   52.4340   42.5940  112.0060 O   0  0  0  0  0  0  0  0  0  0  0  0
   51.4340   41.2150  110.4910 C   0  0  1  0  0  0  0  0  0  0  0  0
   50.6190   42.4530  110.0650 C   0  0  0  0  0  0  0  0  0  0  0  0
   49.6560   42.2130  108.9830 C   0  0  1  0  0  0  0  0  0  0  0  0
   49.6690   40.9310  108.4080 C   0  0  1  0  0  0  0  0  0  0  0  0
   48.9210   41.0400  107.0440 N   0  0  0  0  0  0  0  0  0  0  0  0
   47.6250   40.4590  106.8410 C   0  0  0  0  0  0  0  0  0  0  0  0
   47.0610   39.8600  107.7410 O   0  0  0  0  0  0  0  0  0  0  0  0
   46.9720   40.6060  105.4990 C   0  0  0  0  0  0  0  0  0  0  0  0
   50.9830   40.3660  108.1690 C   0  0  1  0  0  0  0  0  0  0  0  0
   51.9490   40.5930  109.2290 O   0  0  0  0  0  0  0  0  0  0  0  0
   50.9460   38.8620  107.8510 C   0  0  2  0  0  0  0  0  0  0  0  0
   50.4910   38.1450  108.9260 O   0  0  0  0  0  0  0  0  0  0  0  0
   52.3390   38.3810  107.4970 C   0  0  2  0  0  0  0  0  0  0  0  0
   52.9690   39.3950  106.8150 O   0  0  0  0  0  0  0  0  0  0  0  0
   52.3950   37.0840  106.6980 C   0  0  0  0  0  0  0  0  0  0  0  0
   51.7750   37.0240  105.4460 O   0  0  0  0  0  0  0  0  0  0  0  0
   48.2160   42.5230  109.4870 N   0  0  0  0  0  0  0  0  0  0  0  0
   47.3600   43.3990  108.7250 C   0  0  1  0  0  0  0  0  0  0  0  0
   47.7970   43.9130  107.5810 N   0  0  0  0  0  0  0  0  0  0  0  0
   46.1120   43.5160  109.0730 N   0  0  0  0  0  0  0  0  0  0  0  0
   -6.1630    9.1220  103.3960 C   0  0  0  0  0  0  0  0  0  0  0  0
   -5.0470    9.6110  103.0800 O   0  0  0  0  0  0  0  0  0  0  0  0
   -6.2170    7.9430  103.8450 O   0  0  0  0  0  0  0  0  0  0  0  0
   -7.3080    9.8420  103.2650 C   0  0  1  0  0  0  0  0  0  0  0  0
   -8.3860    9.2340  104.1960 C   0  0  0  0  0  0  0  0  0  0  0  0
   -9.5040   10.0950  104.5930 C   0  0  1  0  0  0  0  0  0  0  0  0
   -9.5170   11.3780  104.0180 C   0  0  1  0  0  0  0  0  0  0  0  0
  -10.5250   12.2080  104.8790 N   0  0  0  0  0  0  0  0  0  0  0  0
  -11.7810   12.6510  104.3410 C   0  0  0  0  0  0  0  0  0  0  0  0
  -12.0890   12.3930  103.1870 O   0  0  0  0  0  0  0  0  0  0  0  0
  -12.7110   13.4370  105.2250 C   0  0  0  0  0  0  0  0  0  0  0  0
   -8.2340   12.0670  103.9890 C   0  0  1  0  0  0  0  0  0  0  0  0
   -7.0600   11.2610  103.6790 O   0  0  0  0  0  0  0  0  0  0  0  0
   -8.2430   13.3130  103.0990 C   0  0  2  0  0  0  0  0  0  0  0  0
   -8.5420   12.9820  101.8100 O   0  0  0  0  0  0  0  0  0  0  0  0
   -6.8830   13.9860  103.1410 C   0  0  2  0  0  0  0  0  0  0  0  0
   -6.4930   14.0830  104.4570 O   0  0  0  0  0  0  0  0  0  0  0  0
   -6.8590   15.3680  102.5210 C   0  0  0  0  0  0  0  0  0  0  0  0
   -7.4490   16.4080  103.2440 O   0  0  0  0  0  0  0  0  0  0  0  0
  -10.8470    9.3600  104.3080 N   0  0  0  0  0  0  0  0  0  0  0  0
  -11.9840    9.4090  105.2030 C   0  0  1  0  0  0  0  0  0  0  0  0
  -11.8740    9.9090  106.4260 N   0  0  0  0  0  0  0  0  0  0  0  0
  -13.1460    9.0410  104.7500 N   0  0  0  0  0  0  0  0  0  0  0  0
   39.7220   -1.2080  102.9820 C   0  0  0  0  0  0  0  0  0  0  0  0
   40.9150   -1.5330  102.7370 O   0  0  0  0  0  0  0  0  0  0  0  0
   39.0540   -0.5050  102.1750 O   0  0  0  0  0  0  0  0  0  0  0  0
   39.1330   -1.5920  104.1250 C   0  0  2  0  0  0  0  0  0  0  0  0
   39.7890   -2.8320  104.7590 C   0  0  0  0  0  0  0  0  0  0  0  0
   39.0510   -3.3740  105.9060 C   0  0  1  0  0  0  0  0  0  0  0  0
   37.6460   -3.3620  105.7940 C   0  0  1  0  0  0  0  0  0  0  0  0
   37.0760   -3.5480  107.2370 N   0  0  0  0  0  0  0  0  0  0  0  0
   36.5960   -4.8490  107.6170 C   0  0  0  0  0  0  0  0  0  0  0  0
   36.6380   -5.7810  106.8280 O   0  0  0  0  0  0  0  0  0  0  0  0
   36.0480   -5.0600  108.9990 C   0  0  0  0  0  0  0  0  0  0  0  0
   37.0690   -2.2040  105.1360 C   0  0  1  0  0  0  0  0  0  0  0  0
   37.7200   -1.9650  103.8740 O   0  0  0  0  0  0  0  0  0  0  0  0
   35.5650   -2.3340  104.8730 C   0  0  2  0  0  0  0  0  0  0  0  0
   35.3520   -3.2220  103.8530 O   0  0  0  0  0  0  0  0  0  0  0  0
   34.9840   -0.9880  104.4790 C   0  0  2  0  0  0  0  0  0  0  0  0
   35.4090   -0.0520  105.3930 O   0  0  0  0  0  0  0  0  0  0  0  0
   33.4630   -0.9610  104.3620 C   0  0  0  0  0  0  0  0  0  0  0  0
   32.6950   -1.3090  105.4810 O   0  0  0  0  0  0  0  0  0  0  0  0
   39.5330   -4.8270  106.2190 N   0  0  0  0  0  0  0  0  0  0  0  0
   39.7880   -5.2900  107.5690 C   0  0  0  0  0  0  0  0  0  0  0  0
   39.6910   -4.4620  108.6060 N   0  0  0  0  0  0  0  0  0  0  0  0
   40.1260   -6.5410  107.7460 N   0  0  0  0  0  0  0  0  0  0  0  0
   -6.3857   46.4849   56.8632 H   0  0  0  0  0  0  0  0  0  0  0  0
   -8.0720   46.7913   56.6002 H   0  0  0  0  0  0  0  0  0  0  0  0
   -6.6993   45.1892   57.7452 H   0  0  0  0  0  0  0  0  0  0  0  0
   -4.9051   46.8274   56.1807 H   0  0  0  0  0  0  0  0  0  0  0  0
   -3.9507   44.6994   56.2315 H   0  0  0  0  0  0  0  0  0  0  0  0
   -4.9750   44.1305   54.8210 H   0  0  0  0  0  0  0  0  0  0  0  0
   -3.4575   44.5697   53.4605 H   0  0  0  0  0  0  0  0  0  0  0  0
   -3.0611   47.2481   54.5877 H   0  0  0  0  0  0  0  0  0  0  0  0
   -2.0847   45.6015   52.3803 H   0  0  0  0  0  0  0  0  0  0  0  0
   -1.4782   48.1626   52.2831 H   0  0  0  0  0  0  0  0  0  0  0  0
   -0.9454   47.3686   54.4837 H   0  0  0  0  0  0  0  0  0  0  0  0
    0.8695   47.0131   51.7353 H   0  0  0  0  0  0  0  0  0  0  0  0
   -0.5099   46.2745   50.8529 H   0  0  0  0  0  0  0  0  0  0  0  0
   -0.2952   48.0579   50.8529 H   0  0  0  0  0  0  0  0  0  0  0  0
   -4.6622   46.2657   52.3530 H   0  0  0  0  0  0  0  0  0  0  0  0
   -3.9471   48.5122   51.9260 H   0  0  0  0  0  0  0  0  0  0  0  0
   -4.5515   48.8432   54.5989 H   0  0  0  0  0  0  0  0  0  0  0  0
   -6.7820   48.6334   53.0665 H   0  0  0  0  0  0  0  0  0  0  0  0
   -6.6991   46.8129   51.8215 H   0  0  0  0  0  0  0  0  0  0  0  0
   -7.2607   50.0717   51.1556 H   0  0  0  0  0  0  0  0  0  0  0  0
   -5.9452   50.7263   52.2638 H   0  0  0  0  0  0  0  0  0  0  0  0
   -4.4598   50.3733   50.7577 H   0  0  0  0  0  0  0  0  0  0  0  0
   -1.5412   45.9029   55.2330 H   0  0  0  0  0  0  0  0  0  0  0  0
   -1.0690   43.3729   54.9735 H   0  0  0  0  0  0  0  0  0  0  0  0
   -1.2406   42.5567   53.5151 H   0  0  0  0  0  0  0  0  0  0  0  0
   -1.7854   43.9218   52.6973 H   0  0  0  0  0  0  0  0  0  0  0  0
    0.1967   44.2899   55.9518 H   0  0  0  0  0  0  0  0  0  0  0  0
    0.8685   43.4710   54.6452 H   0  0  0  0  0  0  0  0  0  0  0  0
  -16.4676    7.1274   76.0540 H   0  0  0  0  0  0  0  0  0  0  0  0
  -16.9218    5.5910   76.6277 H   0  0  0  0  0  0  0  0  0  0  0  0
  -14.9096    6.5474   76.5187 H   0  0  0  0  0  0  0  0  0  0  0  0
  -17.0862    8.2989   74.9602 H   0  0  0  0  0  0  0  0  0  0  0  0
  -15.1824    8.7757   73.7634 H   0  0  0  0  0  0  0  0  0  0  0  0
  -15.2210    7.1219   72.9296 H   0  0  0  0  0  0  0  0  0  0  0  0
  -16.0780    7.9247   71.2479 H   0  0  0  0  0  0  0  0  0  0  0  0
  -18.2013    9.2860   72.7611 H   0  0  0  0  0  0  0  0  0  0  0  0
  -17.3604    8.7283   70.0027 H   0  0  0  0  0  0  0  0  0  0  0  0
  -19.7614    9.7722   70.2953 H   0  0  0  0  0  0  0  0  0  0  0  0
  -18.8691   10.7325   71.8255 H   0  0  0  0  0  0  0  0  0  0  0  0
  -20.0162   10.8157   68.5579 H   0  0  0  0  0  0  0  0  0  0  0  0
  -18.2595   10.9024   68.1929 H   0  0  0  0  0  0  0  0  0  0  0  0
  -19.0995    9.3146   68.1929 H   0  0  0  0  0  0  0  0  0  0  0  0
  -18.0486    6.6546   71.5928 H   0  0  0  0  0  0  0  0  0  0  0  0
  -20.3029    7.5674   71.4829 H   0  0  0  0  0  0  0  0  0  0  0  0
  -20.1963    7.7064   74.3308 H   0  0  0  0  0  0  0  0  0  0  0  0
  -20.0041    5.6118   73.8152 H   0  0  0  0  0  0  0  0  0  0  0  0
  -19.4776    4.1803   72.3539 H   0  0  0  0  0  0  0  0  0  0  0  0
  -22.1448    4.7017   73.2251 H   0  0  0  0  0  0  0  0  0  0  0  0
  -22.2483    6.5091   73.5467 H   0  0  0  0  0  0  0  0  0  0  0  0
  -23.4857    6.2079   71.8329 H   0  0  0  0  0  0  0  0  0  0  0  0
  -16.5928   10.6662   72.2243 H   0  0  0  0  0  0  0  0  0  0  0  0
  -16.5655   10.7643   70.1994 H   0  0  0  0  0  0  0  0  0  0  0  0
  -15.2770    8.6695   69.9454 H   0  0  0  0  0  0  0  0  0  0  0  0
  -16.2686    9.6092   68.9642 H   0  0  0  0  0  0  0  0  0  0  0  0
  -14.8613   12.0726   71.3422 H   0  0  0  0  0  0  0  0  0  0  0  0
  -14.1444   11.6126   69.8918 H   0  0  0  0  0  0  0  0  0  0  0  0
   37.2147   38.2711   63.3838 H   0  0  0  0  0  0  0  0  0  0  0  0
   38.0305   39.6480   63.1279 H   0  0  0  0  0  0  0  0  0  0  0  0
   35.6637   38.6070   63.6453 H   0  0  0  0  0  0  0  0  0  0  0  0
   37.1014   37.0594   60.9596 H   0  0  0  0  0  0  0  0  0  0  0  0
   36.8049   36.0962   63.8193 H   0  0  0  0  0  0  0  0  0  0  0  0
   35.6974   35.8680   62.4013 H   0  0  0  0  0  0  0  0  0  0  0  0
   37.2016   34.4637   61.3356 H   0  0  0  0  0  0  0  0  0  0  0  0
   39.1445   34.8848   63.4798 H   0  0  0  0  0  0  0  0  0  0  0  0
   38.6093   32.9676   61.3501 H   0  0  0  0  0  0  0  0  0  0  0  0
   40.9200   32.8079   62.6006 H   0  0  0  0  0  0  0  0  0  0  0  0
   39.5817   31.7257   64.3604 H   0  0  0  0  0  0  0  0  0  0  0  0
   40.6753   30.3829   62.8022 H   0  0  0  0  0  0  0  0  0  0  0  0
   39.5884   30.7114   61.4103 H   0  0  0  0  0  0  0  0  0  0  0  0
   41.2665   31.3523   61.4103 H   0  0  0  0  0  0  0  0  0  0  0  0
   39.1288   35.7104   60.6440 H   0  0  0  0  0  0  0  0  0  0  0  0
   41.3263   35.0075   61.3840 H   0  0  0  0  0  0  0  0  0  0  0  0
   40.7138   35.8126   63.6627 H   0  0  0  0  0  0  0  0  0  0  0  0
   40.9870   38.0261   61.2350 H   0  0  0  0  0  0  0  0  0  0  0  0
   40.2727   36.3261   59.5238 H   0  0  0  0  0  0  0  0  0  0  0  0
   43.1961   38.2653   60.4959 H   0  0  0  0  0  0  0  0  0  0  0  0
   43.1799   37.2363   62.0427 H   0  0  0  0  0  0  0  0  0  0  0  0
   44.2290   35.7983   61.0793 H   0  0  0  0  0  0  0  0  0  0  0  0
   37.5658   33.3951   64.0276 H   0  0  0  0  0  0  0  0  0  0  0  0
   35.4310   32.4408   62.6171 H   0  0  0  0  0  0  0  0  0  0  0  0
   37.2169   30.9982   61.5309 H   0  0  0  0  0  0  0  0  0  0  0  0
   35.7873   31.7669   61.0897 H   0  0  0  0  0  0  0  0  0  0  0  0
   36.4371   31.7214   64.6705 H   0  0  0  0  0  0  0  0  0  0  0  0
   35.4962   30.8028   63.6216 H   0  0  0  0  0  0  0  0  0  0  0  0
   26.8094   -0.6550   82.7937 H   0  0  0  0  0  0  0  0  0  0  0  0
   28.1403   -1.1468   83.5616 H   0  0  0  0  0  0  0  0  0  0  0  0
   27.3719    0.9469   82.5920 H   0  0  0  0  0  0  0  0  0  0  0  0
   27.0314   -1.7752   80.3438 H   0  0  0  0  0  0  0  0  0  0  0  0
   24.6982   -0.5546   81.8792 H   0  0  0  0  0  0  0  0  0  0  0  0
   25.3323   -0.1353   80.2212 H   0  0  0  0  0  0  0  0  0  0  0  0
   24.5729   -2.0096   79.2983 H   0  0  0  0  0  0  0  0  0  0  0  0
   23.7092   -3.1006   81.8551 H   0  0  0  0  0  0  0  0  0  0  0  0
   23.3173   -3.6981   79.0466 H   0  0  0  0  0  0  0  0  0  0  0  0
   22.6594   -5.5157   80.8659 H   0  0  0  0  0  0  0  0  0  0  0  0
   22.2403   -4.7148   82.1796 H   0  0  0  0  0  0  0  0  0  0  0  0
   20.8299   -6.3077   80.1210 H   0  0  0  0  0  0  0  0  0  0  0  0
   20.7084   -5.0362   78.8579 H   0  0  0  0  0  0  0  0  0  0  0  0
   22.1000   -6.1720   78.8579 H   0  0  0  0  0  0  0  0  0  0  0  0
   26.0449   -3.8547   80.2336 H   0  0  0  0  0  0  0  0  0  0  0  0
   24.7568   -5.7225   81.3973 H   0  0  0  0  0  0  0  0  0  0  0  0
   25.7472   -5.2510   83.8221 H   0  0  0  0  0  0  0  0  0  0  0  0
   27.5108   -5.0555   82.5369 H   0  0  0  0  0  0  0  0  0  0  0  0
   28.2472   -6.1141   80.6825 H   0  0  0  0  0  0  0  0  0  0  0  0
   27.8991   -7.3742   82.7505 H   0  0  0  0  0  0  0  0  0  0  0  0
   26.3782   -6.8273   83.6676 H   0  0  0  0  0  0  0  0  0  0  0  0
   25.7142   -8.6278   82.8840 H   0  0  0  0  0  0  0  0  0  0  0  0
   22.2765   -1.8099   81.1115 H   0  0  0  0  0  0  0  0  0  0  0  0
   22.2086   -0.4556   78.7669 H   0  0  0  0  0  0  0  0  0  0  0  0
   22.8018   -2.7932   78.2418 H   0  0  0  0  0  0  0  0  0  0  0  0
   21.3983   -2.2239   77.5102 H   0  0  0  0  0  0  0  0  0  0  0  0
   20.4152   -1.1307   80.4293 H   0  0  0  0  0  0  0  0  0  0  0  0
   20.3363   -0.2598   78.9925 H   0  0  0  0  0  0  0  0  0  0  0  0
    8.4196   51.8568  111.4743 H   0  0  0  0  0  0  0  0  0  0  0  0
    8.0117   50.3041  110.9843 H   0  0  0  0  0  0  0  0  0  0  0  0
    9.8172   51.6546  112.2307 H   0  0  0  0  0  0  0  0  0  0  0  0
    9.0517   53.0608  109.1367 H   0  0  0  0  0  0  0  0  0  0  0  0
    8.9619   54.0665  112.0306 H   0  0  0  0  0  0  0  0  0  0  0  0
   10.3635   54.1171  110.8744 H   0  0  0  0  0  0  0  0  0  0  0  0
    9.3064   55.6355  109.5074 H   0  0  0  0  0  0  0  0  0  0  0  0
    6.9728   55.5330  111.2499 H   0  0  0  0  0  0  0  0  0  0  0  0
    7.9801   57.3053  109.1667 H   0  0  0  0  0  0  0  0  0  0  0  0
    5.5240   57.6497  110.1222 H   0  0  0  0  0  0  0  0  0  0  0  0
    7.0353   58.3340  112.0573 H   0  0  0  0  0  0  0  0  0  0  0  0
    6.0086   60.0898  110.4586 H   0  0  0  0  0  0  0  0  0  0  0  0
    7.0474   59.6487  109.0611 H   0  0  0  0  0  0  0  0  0  0  0  0
    5.3065   59.2062  109.0611 H   0  0  0  0  0  0  0  0  0  0  0  0
    7.3919   54.5054  108.5310 H   0  0  0  0  0  0  0  0  0  0  0  0
    5.1463   55.6080  108.9543 H   0  0  0  0  0  0  0  0  0  0  0  0
    5.2358   54.5180  111.1890 H   0  0  0  0  0  0  0  0  0  0  0  0
    5.4484   52.6423  108.3740 H   0  0  0  0  0  0  0  0  0  0  0  0
    6.1024   54.8718  107.1511 H   0  0  0  0  0  0  0  0  0  0  0  0
    3.3368   52.7434  107.1398 H   0  0  0  0  0  0  0  0  0  0  0  0
    3.2517   52.8228  108.9922 H   0  0  0  0  0  0  0  0  0  0  0  0
    2.4248   54.7244  108.9217 H   0  0  0  0  0  0  0  0  0  0  0  0
    8.5495   56.7640  112.1268 H   0  0  0  0  0  0  0  0  0  0  0  0
   10.7878   57.5845  111.0411 H   0  0  0  0  0  0  0  0  0  0  0  0
   10.3753   59.0231  109.5559 H   0  0  0  0  0  0  0  0  0  0  0  0
   10.4005   57.3683  109.2561 H   0  0  0  0  0  0  0  0  0  0  0  0
    9.8634   58.4632  112.8071 H   0  0  0  0  0  0  0  0  0  0  0  0
   10.8986   59.2225  111.7204 H   0  0  0  0  0  0  0  0  0  0  0  0
   52.1495   40.9445  112.0611 H   0  0  0  0  0  0  0  0  0  0  0  0
   53.8866   40.7315  112.0845 H   0  0  0  0  0  0  0  0  0  0  0  0
   52.4524   42.2917  112.9485 H   0  0  0  0  0  0  0  0  0  0  0  0
   50.8109   40.5234  111.0771 H   0  0  0  0  0  0  0  0  0  0  0  0
   50.0642   42.8162  110.9427 H   0  0  0  0  0  0  0  0  0  0  0  0
   51.3446   43.1835  109.6778 H   0  0  0  0  0  0  0  0  0  0  0  0
   49.9767   42.8916  108.1789 H   0  0  0  0  0  0  0  0  0  0  0  0
   49.1912   40.2522  109.1298 H   0  0  0  0  0  0  0  0  0  0  0  0
   48.8198   42.0465  106.8499 H   0  0  0  0  0  0  0  0  0  0  0  0
   48.0969   39.5212  106.5125 H   0  0  0  0  0  0  0  0  0  0  0  0
   47.3806   40.1995  108.6143 H   0  0  0  0  0  0  0  0  0  0  0  0
   45.9069   40.8458  105.6338 H   0  0  0  0  0  0  0  0  0  0  0  0
   47.4623   41.4162  104.9394 H   0  0  0  0  0  0  0  0  0  0  0  0
   47.0678   39.6638  104.9394 H   0  0  0  0  0  0  0  0  0  0  0  0
   51.3240   40.9222  107.2834 H   0  0  0  0  0  0  0  0  0  0  0  0
   50.2624   38.7083  107.0030 H   0  0  0  0  0  0  0  0  0  0  0  0
   50.7738   38.5907  109.7635 H   0  0  0  0  0  0  0  0  0  0  0  0
   52.8479   38.1361  108.4409 H   0  0  0  0  0  0  0  0  0  0  0  0
   53.3646   40.0317  107.4618 H   0  0  0  0  0  0  0  0  0  0  0  0
   53.4582   36.8494  106.5411 H   0  0  0  0  0  0  0  0  0  0  0  0
   51.8161   36.3762  107.3095 H   0  0  0  0  0  0  0  0  0  0  0  0
   50.7969   36.9293  105.5663 H   0  0  0  0  0  0  0  0  0  0  0  0
   47.7263   41.6200  109.5627 H   0  0  0  0  0  0  0  0  0  0  0  0
   47.6296   44.3516  109.2045 H   0  0  0  0  0  0  0  0  0  0  0  0
   48.4518   44.6832  107.7786 H   0  0  0  0  0  0  0  0  0  0  0  0
   48.2798   43.1825  107.0386 H   0  0  0  0  0  0  0  0  0  0  0  0
   46.0413   43.5226  110.1005 H   0  0  0  0  0  0  0  0  0  0  0  0
   45.7318   44.3963  108.6970 H   0  0  0  0  0  0  0  0  0  0  0  0
   -6.2845    8.7378  102.3725 H   0  0  0  0  0  0  0  0  0  0  0  0
   -4.5398    9.8332  103.9006 H   0  0  0  0  0  0  0  0  0  0  0  0
   -6.2159    7.9664  104.8347 H   0  0  0  0  0  0  0  0  0  0  0  0
   -7.6435    9.8158  102.2178 H   0  0  0  0  0  0  0  0  0  0  0  0
   -8.8107    8.3599  103.6807 H   0  0  0  0  0  0  0  0  0  0  0  0
   -7.8543    9.0164  105.1341 H   0  0  0  0  0  0  0  0  0  0  0  0
   -9.3681   10.2781  105.6691 H   0  0  0  0  0  0  0  0  0  0  0  0
   -9.7940   11.2752  102.9584 H   0  0  0  0  0  0  0  0  0  0  0  0
  -10.7484   11.6309  105.7024 H   0  0  0  0  0  0  0  0  0  0  0  0
  -11.3077   13.5857  104.0057 H   0  0  0  0  0  0  0  0  0  0  0  0
  -12.8479   11.7573  103.1823 H   0  0  0  0  0  0  0  0  0  0  0  0
  -12.4723   13.2352  106.2797 H   0  0  0  0  0  0  0  0  0  0  0  0
  -12.5905   14.5111  105.0208 H   0  0  0  0  0  0  0  0  0  0  0  0
  -13.7500   13.1392  105.0208 H   0  0  0  0  0  0  0  0  0  0  0  0
   -8.1233   12.3565  105.0444 H   0  0  0  0  0  0  0  0  0  0  0  0
   -9.0114   14.0031  103.4774 H   0  0  0  0  0  0  0  0  0  0  0  0
   -9.2056   12.2474  101.8034 H   0  0  0  0  0  0  0  0  0  0  0  0
   -6.1976   13.3663  102.5442 H   0  0  0  0  0  0  0  0  0  0  0  0
   -7.2658   13.8908  105.0452 H   0  0  0  0  0  0  0  0  0  0  0  0
   -5.8053   15.6373  102.3561 H   0  0  0  0  0  0  0  0  0  0  0  0
   -7.4687   15.2779  101.6099 H   0  0  0  0  0  0  0  0  0  0  0  0
   -7.3500   16.2335  104.2135 H   0  0  0  0  0  0  0  0  0  0  0  0
  -11.1824    9.7241  103.4048 H   0  0  0  0  0  0  0  0  0  0  0  0
  -11.7244    8.4116  105.5874 H   0  0  0  0  0  0  0  0  0  0  0  0
  -12.0380    9.1636  107.1177 H   0  0  0  0  0  0  0  0  0  0  0  0
  -10.9279   10.2952  106.5552 H   0  0  0  0  0  0  0  0  0  0  0  0
  -13.7753    8.8417  105.5407 H   0  0  0  0  0  0  0  0  0  0  0  0
  -13.5455    9.7966  104.1753 H   0  0  0  0  0  0  0  0  0  0  0  0
   40.0740   -0.2955  103.4855 H   0  0  0  0  0  0  0  0  0  0  0  0
   41.4024   -1.6658  103.5884 H   0  0  0  0  0  0  0  0  0  0  0  0
   38.4680    0.1117  102.6814 H   0  0  0  0  0  0  0  0  0  0  0  0
   39.2310   -0.7324  104.8043 H   0  0  0  0  0  0  0  0  0  0  0  0
   39.8609   -3.6165  103.9913 H   0  0  0  0  0  0  0  0  0  0  0  0
   40.7739   -2.5161  105.1333 H   0  0  0  0  0  0  0  0  0  0  0  0
   39.2827   -2.6845  106.7311 H   0  0  0  0  0  0  0  0  0  0  0  0
   37.3587   -4.1831  105.1207 H   0  0  0  0  0  0  0  0  0  0  0  0
   37.8259   -3.2949  107.8962 H   0  0  0  0  0  0  0  0  0  0  0  0
   35.5924   -4.5853  107.2521 H   0  0  0  0  0  0  0  0  0  0  0  0
   36.6765   -6.6348  107.3276 H   0  0  0  0  0  0  0  0  0  0  0  0
   36.8049   -4.7686  109.7420 H   0  0  0  0  0  0  0  0  0  0  0  0
   35.1461   -4.4448  109.1337 H   0  0  0  0  0  0  0  0  0  0  0  0
   35.7915   -6.1212  109.1337 H   0  0  0  0  0  0  0  0  0  0  0  0
   37.2233   -1.3659  105.8315 H   0  0  0  0  0  0  0  0  0  0  0  0
   35.0761   -2.6901  105.7918 H   0  0  0  0  0  0  0  0  0  0  0  0
   35.1385   -4.1123  104.2297 H   0  0  0  0  0  0  0  0  0  0  0  0
   35.3489   -0.7626  103.4660 H   0  0  0  0  0  0  0  0  0  0  0  0
   35.2545   -0.3922  106.3098 H   0  0  0  0  0  0  0  0  0  0  0  0
   33.1783    0.0634  104.0800 H   0  0  0  0  0  0  0  0  0  0  0  0
   33.2379   -1.7493  103.6285 H   0  0  0  0  0  0  0  0  0  0  0  0
   33.1931   -1.0833  106.3063 H   0  0  0  0  0  0  0  0  0  0  0  0
   38.8151   -5.4560  105.8319 H   0  0  0  0  0  0  0  0  0  0  0  0
   40.8504   -5.0271  107.4585 H   0  0  0  0  0  0  0  0  0  0  0  0
   39.7540   -5.0001  109.4820 H   0  0  0  0  0  0  0  0  0  0  0  0
   40.4572   -3.7746  108.5694 H   0  0  0  0  0  0  0  0  0  0  0  0
   40.1804   -6.7425  108.7546 H   0  0  0  0  0  0  0  0  0  0  0  0
   39.4200   -7.1522  107.3114 H   0  0  0  0  0  0  0  0  0  0  0  0
  1  2  1  0
  1  3  1  0
  1  4  1  0
  4  5  1  0
  5  6  1  0
  6  7  1  0
  7  8  1  0
  8  9  1  0
  9 10  1  0
  9 11  1  0
  7 12  1  0
  4 13  1  0
 12 13  1  0
 12 14  1  0
 14 15  1  0
 14 16  1  0
 16 17  1  0
 16 18  1  0
 18 19  1  0
  6 20  1  0
 20 21  1  0
 21 22  1  0
 21 23  1  0
 24 25  1  0
 24 26  1  0
 24 27  1  0
 27 28  1  0
 28 29  1  0
 29 30  1  0
 30 31  1  0
 31 32  1  0
 32 33  1  0
 32 34  1  0
 30 35  1  0
 27 36  1  0
 35 36  1  0
 35 37  1  0
 37 38  1  0
 37 39  1  0
 39 40  1  0
 39 41  1  0
 41 42  1  0
 29 43  1  0
 43 44  1  0
 44 45  1  0
 44 46  1  0
 47 48  1  0
 47 49  1  0
 47 50  1  0
 50 51  1  0
 51 52  1  0
 52 53  1  0
 53 54  1  0
 54 55  1  0
 55 56  1  0
 55 57  1  0
 53 58  1  0
 50 59  1  0
 58 59  1  0
 58 60  1  0
 60 61  1  0
 60 62  1  0
 62 63  1  0
 62 64  1  0
 64 65  1  0
 52 66  1  0
 66 67  1  0
 67 68  1  0
 67 69  1  0
 70 71  1  0
 70 72  1  0
 70 73  1  0
 73 74  1  0
 74 75  1  0
 75 76  1  0
 76 77  1  0
 77 78  1  0
 78 79  1  0
 78 80  1  0
 76 81  1  0
 73 82  1  0
 81 82  1  0
 81 83  1  0
 83 84  1  0
 83 85  1  0
 85 86  1  0
 85 87  1  0
 87 88  1  0
 75 89  1  0
 89 90  1  0
 90 91  1  0
 90 92  1  0
 93 94  1  0
 93 95  1  0
 93 96  1  0
 96 97  1  0
 97 98  1  0
 98 99  1  0
 99100  1  0
100101  1  0
101102  1  0
101103  1  0
 99104  1  0
 96105  1  0
104105  1  0
104106  1  0
106107  1  0
106108  1  0
108109  1  0
108110  1  0
110111  1  0
 98112  1  0
112113  1  0
113114  1  0
113115  1  0
116117  1  0
116118  1  0
116119  1  0
119120  1  0
120121  1  0
121122  1  0
122123  1  0
123124  1  0
124125  1  0
124126  1  0
122127  1  0
119128  1  0
127128  1  0
127129  1  0
129130  1  0
129131  1  0
131132  1  0
131133  1  0
133134  1  0
121135  1  0
135136  1  0
136137  1  0
136138  1  0
139140  1  0
139141  1  0
139142  1  0
142143  1  0
143144  1  0
144145  1  0
145146  1  0
146147  1  0
147148  1  0
147149  1  0
145150  1  0
142151  1  0
150151  1  0
150152  1  0
152153  1  0
152154  1  0
154155  1  0
154156  1  0
156157  1  0
144158  1  0
158159  1  0
159160  1  0
159161  1  0
162163  1  0
162164  1  0
162165  1  0
165166  1  0
166167  1  0
167168  1  0
168169  1  0
169170  1  0
170171  1  0
170172  1  0
168173  1  0
165174  1  0
173174  1  0
173175  1  0
175176  1  0
175177  1  0
177178  1  0
177179  1  0
179180  1  0
167181  1  0
181182  1  0
182183  1  0
182184  1  0
  1185  1  0
  2186  1  0
  3187  1  0
  4188  1  1
  5189  1  0
  5190  1  0
  6191  1  6
  7192  1  1
  8193  1  0
  9194  1  0
 10195  1  0
 11196  1  0
 11197  1  0
 11198  1  0
 12199  1  6
 14200  1  6
 15201  1  0
 16202  1  1
 17203  1  0
 18204  1  0
 18205  1  0
 19206  1  0
 20207  1  0
 21208  1  0
 22209  1  0
 22210  1  0
 23211  1  0
 23212  1  0
 24213  1  0
 25214  1  0
 26215  1  0
 27216  1  1
 28217  1  0
 28218  1  0
 29219  1  6
 30220  1  1
 31221  1  0
 32222  1  0
 33223  1  0
 34224  1  0
 34225  1  0
 34226  1  0
 35227  1  6
 37228  1  6
 38229  1  0
 39230  1  1
 40231  1  0
 41232  1  0
 41233  1  0
 42234  1  0
 43235  1  0
 44236  1  6
 45237  1  0
 45238  1  0
 46239  1  0
 46240  1  0
 47241  1  0
 48242  1  0
 49243  1  0
 50244  1  6
 51245  1  0
 51246  1  0
 52247  1  6
 53248  1  1
 54249  1  0
 55250  1  0
 56251  1  0
 57252  1  0
 57253  1  0
 57254  1  0
 58255  1  6
 60256  1  6
 61257  1  0
 62258  1  1
 63259  1  0
 64260  1  0
 64261  1  0
 65262  1  0
 66263  1  0
 67264  1  6
 68265  1  0
 68266  1  0
 69267  1  0
 69268  1  0
 70269  1  0
 71270  1  0
 72271  1  0
 73272  1  6
 74273  1  0
 74274  1  0
 75275  1  6
 76276  1  1
 77277  1  0
 78278  1  0
 79279  1  0
 80280  1  0
 80281  1  0
 80282  1  0
 81283  1  6
 83284  1  6
 84285  1  0
 85286  1  1
 86287  1  0
 87288  1  0
 87289  1  0
 88290  1  0
 89291  1  0
 90292  1  6
 91293  1  0
 91294  1  0
 92295  1  0
 92296  1  0
 93297  1  0
 94298  1  0
 95299  1  0
 96300  1  6
 97301  1  0
 97302  1  0
 98303  1  6
 99304  1  1
100305  1  0
101306  1  0
102307  1  0
103308  1  0
103309  1  0
103310  1  0
104311  1  6
106312  1  6
107313  1  0
108314  1  1
109315  1  0
110316  1  0
110317  1  0
111318  1  0
112319  1  0
113320  1  0
114321  1  0
114322  1  0
115323  1  0
115324  1  0
116325  1  0
117326  1  0
118327  1  0
119328  1  1
120329  1  0
120330  1  0
121331  1  6
122332  1  1
123333  1  0
124334  1  0
125335  1  0
126336  1  0
126337  1  0
126338  1  0
127339  1  6
129340  1  6
130341  1  0
131342  1  1
132343  1  0
133344  1  0
133345  1  0
134346  1  0
135347  1  0
136348  1  1
137349  1  0
137350  1  0
138351  1  0
138352  1  0
139353  1  0
140354  1  0
141355  1  0
142356  1  6
143357  1  0
143358  1  0
144359  1  1
145360  1  6
146361  1  0
147362  1  0
148363  1  0
149364  1  0
149365  1  0
149366  1  0
150367  1  1
152368  1  1
153369  1  0
154370  1  6
155371  1  0
156372  1  0
156373  1  0
157374  1  0
158375  1  0
159376  1  1
160377  1  0
160378  1  0
161379  1  0
161380  1  0
162381  1  0
163382  1  0
164383  1  0
165384  1  1
166385  1  0
166386  1  0
167387  1  1
168388  1  6
169389  1  0
170390  1  0
171391  1  0
172392  1  0
172393  1  0
172394  1  0
173395  1  1
175396  1  1
176397  1  0
177398  1  6
178399  1  0
179400  1  0
179401  1  0
180402  1  0
181403  1  0
182404  1  0
183405  1  0
183406  1  0
184407  1  0
184408  1  0
M  END
>  <PDBID>  (1) 
4CPZ

>  <PDB ID>  (1) 
4CPZ

>  <Generic Name>  (1) 
Zanamivir

>  <Brand Name>  (1) 
Relenza

>  <DrugBank ID>  (1) 
DB00558

>  <ATC Codes>  (1) 
J05AH01

>  <Ligand ID>  (1) 
ZMR

>  <Target Name>  (1) 
Neuraminidase

>  <UniProt ID>  (1) 
P27907

>  <PDB ID.1>  (1) 
4CPZ

>  <Seq. Identity>  (1) 
86%

$$$$
