PDB_DB00523_90
     RDKit          3D

 50 50  0  0  0  0  0  0  0  0999 V2000
   36.3700    5.0610  103.0390 C   0  0  0  0  0  0  0  0  0  0  0  0
   35.0780    5.7900  102.5130 C   0  0  0  0  0  0  0  0  0  0  0  0
   33.9130    4.9450  101.9860 C   0  0  0  0  0  0  0  0  0  0  0  0
   33.5210    3.8290  102.9220 C   0  0  0  0  0  0  0  0  0  0  0  0
   34.6660    3.0500  103.5990 C   0  0  0  0  0  0  0  0  0  0  0  0
   35.9940    3.5860  103.6700 C   0  0  0  0  0  0  0  0  0  0  0  0
   37.1680    2.8950  104.3270 C   0  0  0  0  0  0  0  0  0  0  0  0
   37.6130    1.6180  104.2940 C   0  0  0  0  0  0  0  0  0  0  0  0
   38.7250    0.9730  104.9110 C   0  0  0  0  0  0  0  0  0  0  0  0
   38.9470   -0.3440  104.6820 C   0  0  0  0  0  0  0  0  0  0  0  0
   38.2280   -1.3450  103.9030 C   0  0  0  0  0  0  0  0  0  0  0  0
   38.6280   -2.5970  103.7380 C   0  0  0  0  0  0  0  0  0  0  0  0
   37.8530   -3.6330  102.9790 C   0  0  0  0  0  0  0  0  0  0  0  0
   38.4480   -4.7950  102.9110 C   0  0  0  0  0  0  0  0  0  0  0  0
   38.1730   -6.1110  102.3160 C   0  0  0  0  0  0  0  0  0  0  0  0
   36.9570    6.0830  104.0520 C   0  0  0  0  0  0  0  0  0  0  0  0
   37.3680    4.9870  101.8900 C   0  0  0  0  0  0  0  0  0  0  0  0
   34.0530    1.7460  104.0940 C   0  0  0  0  0  0  0  0  0  0  0  0
   39.6570    1.7680  105.7930 C   0  0  0  0  0  0  0  0  0  0  0  0
   36.5130   -3.3360  102.3560 C   0  0  0  0  0  0  0  0  0  0  0  0
   37.7880   -6.2620  101.0710 O   0  0  0  0  0  0  0  0  0  0  0  0
   38.3540   -7.0950  103.1150 O   0  0  0  0  0  0  0  0  0  0  0  0
   34.6876    6.3950  103.3446 H   0  0  0  0  0  0  0  0  0  0  0  0
   35.4271    6.3412  101.6274 H   0  0  0  0  0  0  0  0  0  0  0  0
   33.0425    5.6013  101.8397 H   0  0  0  0  0  0  0  0  0  0  0  0
   34.2429    4.4826  101.0440 H   0  0  0  0  0  0  0  0  0  0  0  0
   32.9005    4.2660  103.7183 H   0  0  0  0  0  0  0  0  0  0  0  0
   33.0084    3.0906  102.2879 H   0  0  0  0  0  0  0  0  0  0  0  0
   37.7793    3.5607  104.9540 H   0  0  0  0  0  0  0  0  0  0  0  0
   36.9997    0.9492  103.6722 H   0  0  0  0  0  0  0  0  0  0  0  0
   39.8458   -0.7344  105.1818 H   0  0  0  0  0  0  0  0  0  0  0  0
   37.2887   -1.0395  103.4189 H   0  0  0  0  0  0  0  0  0  0  0  0
   39.5877   -2.8953  104.1852 H   0  0  0  0  0  0  0  0  0  0  0  0
   39.4121   -4.7857  103.4405 H   0  0  0  0  0  0  0  0  0  0  0  0
   36.7588    5.7379  105.0775 H   0  0  0  0  0  0  0  0  0  0  0  0
   38.0427    6.1699  103.8978 H   0  0  0  0  0  0  0  0  0  0  0  0
   36.4850    7.0645  103.8978 H   0  0  0  0  0  0  0  0  0  0  0  0
   38.3881    4.9114  102.2946 H   0  0  0  0  0  0  0  0  0  0  0  0
   37.1518    4.1024  101.2729 H   0  0  0  0  0  0  0  0  0  0  0  0
   37.2846    5.8938  101.2729 H   0  0  0  0  0  0  0  0  0  0  0  0
   34.0488    1.7371  105.1940 H   0  0  0  0  0  0  0  0  0  0  0  0
   33.0210    1.6618  103.7227 H   0  0  0  0  0  0  0  0  0  0  0  0
   34.6466    0.8976  103.7227 H   0  0  0  0  0  0  0  0  0  0  0  0
   39.4224    1.5678  106.8489 H   0  0  0  0  0  0  0  0  0  0  0  0
   40.6968    1.4744  105.5864 H   0  0  0  0  0  0  0  0  0  0  0  0
   39.5310    2.8411  105.5864 H   0  0  0  0  0  0  0  0  0  0  0  0
   35.7685   -3.1710  103.1488 H   0  0  0  0  0  0  0  0  0  0  0  0
   36.5906   -2.4333  101.7323 H   0  0  0  0  0  0  0  0  0  0  0  0
   36.2019   -4.1870  101.7323 H   0  0  0  0  0  0  0  0  0  0  0  0
   37.6142   -7.1685  100.7131 H   0  0  0  0  0  0  0  0  0  0  0  0
  1  2  1  0
  2  3  1  0
  3  4  1  0
  4  5  1  0
  1  6  1  0
  5  6  2  0
  6  7  1  0
  7  8  2  0
  8  9  1  0
  9 10  2  0
 10 11  1  0
 11 12  2  0
 12 13  1  0
 13 14  2  0
 14 15  1  0
  1 16  1  0
  1 17  1  0
  5 18  1  0
  9 19  1  0
 13 20  1  0
 15 21  1  0
 15 22  2  0
  2 23  1  0
  2 24  1  0
  3 25  1  0
  3 26  1  0
  4 27  1  0
  4 28  1  0
  7 29  1  0
  8 30  1  0
 10 31  1  0
 11 32  1  0
 12 33  1  0
 14 34  1  0
 16 35  1  0
 16 36  1  0
 16 37  1  0
 17 38  1  0
 17 39  1  0
 17 40  1  0
 18 41  1  0
 18 42  1  0
 18 43  1  0
 19 44  1  0
 19 45  1  0
 19 46  1  0
 20 47  1  0
 20 48  1  0
 20 49  1  0
 21 50  1  0
M  END
$$$$
