PDB_DB09026_98
     RDKit          3D

 92 92  0  0  0  0  0  0  0  0999 V2000
   33.2010   21.0410   85.7020 C   0  0  0  0  0  0  0  0  0  0  0  0
   31.8980   20.8320   86.2110 O   0  0  0  0  0  0  0  0  0  0  0  0
   31.6220   19.4360   86.3200 C   0  0  0  0  0  0  0  0  0  0  0  0
   30.8830   19.2030   87.6190 C   0  0  0  0  0  0  0  0  0  0  0  0
   31.7710   19.5790   88.7990 C   0  0  0  0  0  0  0  0  0  0  0  0
   31.1370   19.2880   90.0510 O   0  0  0  0  0  0  0  0  0  0  0  0
   30.9400   17.9470   90.4610 C   0  0  0  0  0  0  0  0  0  0  0  0
   31.6320   16.8450   89.9320 C   0  0  0  0  0  0  0  0  0  0  0  0
   31.3860   15.5570   90.4280 C   0  0  0  0  0  0  0  0  0  0  0  0
   30.4360   15.3950   91.4450 C   0  0  0  0  0  0  0  0  0  0  0  0
   29.7400   16.4810   91.9760 C   0  0  0  0  0  0  0  0  0  0  0  0
   29.9910   17.7570   91.4900 C   0  0  0  0  0  0  0  0  0  0  0  0
   29.3590   18.9230   91.9890 O   0  0  0  0  0  0  0  0  0  0  0  0
   28.3960   18.8080   93.0030 C   0  0  0  0  0  0  0  0  0  0  0  0
   32.1720   14.3320   89.9290 C   0  0  0  0  0  0  0  0  0  0  0  0
   32.1060   14.1580   88.4090 C   0  0  2  0  0  0  0  0  0  0  0  0
   30.6450   14.1740   87.9080 C   0  0  0  0  0  0  0  0  0  0  0  0
   30.5990   14.1490   86.3960 C   0  0  0  0  0  0  0  0  0  0  0  0
   29.8530   13.0190   88.4970 C   0  0  0  0  0  0  0  0  0  0  0  0
   32.8380   12.8680   87.9900 C   0  0  0  0  0  0  0  0  0  0  0  0
   34.3560   12.8950   88.2640 C   0  0  2  0  0  0  0  0  0  0  0  0
   34.9950   14.0580   87.5960 N   0  0  0  0  0  0  0  0  0  0  0  0
   35.0360   11.5750   87.8380 C   0  0  1  0  0  0  0  0  0  0  0  0
   35.0250   11.4390   86.4100 O   0  0  0  0  0  0  0  0  0  0  0  0
   36.4900   11.5520   88.3000 C   0  0  0  0  0  0  0  0  0  0  0  0
   37.1880   10.2650   87.8780 C   0  0  1  0  0  0  0  0  0  0  0  0
   38.5830   10.1720   88.5430 C   0  0  0  0  0  0  0  0  0  0  0  0
   39.2940    8.9070   88.1120 C   0  0  0  0  0  0  0  0  0  0  0  0
   39.4230   11.3780   88.1820 C   0  0  0  0  0  0  0  0  0  0  0  0
   36.3160    9.0740   88.2880 C   0  0  0  0  0  0  0  0  0  0  0  0
   36.0230    8.8910   89.4740 O   0  0  0  0  0  0  0  0  0  0  0  0
   35.8580    8.3010   87.3070 N   0  0  0  0  0  0  0  0  0  0  0  0
   35.0050    7.1330   87.5210 C   0  0  0  0  0  0  0  0  0  0  0  0
   35.6700    5.8190   87.1360 C   0  0  0  0  0  0  0  0  0  0  0  0
   36.0120    5.8060   85.6520 C   0  0  0  0  0  0  0  0  0  0  0  0
   34.6610    4.7260   87.3810 C   0  0  0  0  0  0  0  0  0  0  0  0
   36.8380    5.5830   87.9550 C   0  0  0  0  0  0  0  0  0  0  0  0
   37.9240    5.3850   87.3840 O   0  0  0  0  0  0  0  0  0  0  0  0
   36.7390    5.6270   89.2840 N   0  0  0  0  0  0  0  0  0  0  0  0
   33.9073   21.1543   86.5377 H   0  0  0  0  0  0  0  0  0  0  0  0
   33.4968   20.1788   85.0862 H   0  0  0  0  0  0  0  0  0  0  0  0
   33.2123   21.9524   85.0862 H   0  0  0  0  0  0  0  0  0  0  0  0
   30.9990   19.1119   85.4733 H   0  0  0  0  0  0  0  0  0  0  0  0
   32.5591   18.8601   86.3061 H   0  0  0  0  0  0  0  0  0  0  0  0
   29.9732   19.8211   87.6364 H   0  0  0  0  0  0  0  0  0  0  0  0
   30.6132   18.1393   87.6949 H   0  0  0  0  0  0  0  0  0  0  0  0
   32.7104   19.0104   88.7341 H   0  0  0  0  0  0  0  0  0  0  0  0
   31.9625   20.6613   88.7540 H   0  0  0  0  0  0  0  0  0  0  0  0
   32.3677   16.9928   89.1277 H   0  0  0  0  0  0  0  0  0  0  0  0
   30.2340   14.3863   91.8344 H   0  0  0  0  0  0  0  0  0  0  0  0
   28.9981   16.3276   92.7735 H   0  0  0  0  0  0  0  0  0  0  0  0
   28.8885   18.8668   93.9848 H   0  0  0  0  0  0  0  0  0  0  0  0
   27.6658   19.6253   92.9096 H   0  0  0  0  0  0  0  0  0  0  0  0
   27.8788   17.8417   92.9096 H   0  0  0  0  0  0  0  0  0  0  0  0
   33.2256   14.4477   90.2233 H   0  0  0  0  0  0  0  0  0  0  0  0
   31.7148   13.4403   90.3827 H   0  0  0  0  0  0  0  0  0  0  0  0
   32.6169   15.0094   87.9357 H   0  0  0  0  0  0  0  0  0  0  0  0
   30.1768   15.1090   88.2494 H   0  0  0  0  0  0  0  0  0  0  0  0
   29.6772   13.6480   86.0654 H   0  0  0  0  0  0  0  0  0  0  0  0
   30.6143   15.1795   86.0116 H   0  0  0  0  0  0  0  0  0  0  0  0
   31.4721   13.6013   86.0116 H   0  0  0  0  0  0  0  0  0  0  0  0
   29.8892   13.0718   89.5951 H   0  0  0  0  0  0  0  0  0  0  0  0
   28.8074   13.0824   88.1612 H   0  0  0  0  0  0  0  0  0  0  0  0
   30.2889   12.0665   88.1612 H   0  0  0  0  0  0  0  0  0  0  0  0
   32.4005   12.0253   88.5454 H   0  0  0  0  0  0  0  0  0  0  0  0
   32.7111   12.7673   86.9020 H   0  0  0  0  0  0  0  0  0  0  0  0
   34.4927   13.0023   89.3502 H   0  0  0  0  0  0  0  0  0  0  0  0
   35.3529   14.7095   88.3090 H   0  0  0  0  0  0  0  0  0  0  0  0
   35.7746   13.7305   87.0079 H   0  0  0  0  0  0  0  0  0  0  0  0
   34.4757   10.7490   88.3005 H   0  0  0  0  0  0  0  0  0  0  0  0
   34.9476   10.4816   86.1703 H   0  0  0  0  0  0  0  0  0  0  0  0
   37.0198   12.4081   87.8569 H   0  0  0  0  0  0  0  0  0  0  0  0
   36.5048   11.6093   89.3984 H   0  0  0  0  0  0  0  0  0  0  0  0
   37.3294   10.2570   86.7872 H   0  0  0  0  0  0  0  0  0  0  0  0
   38.4414   10.1476   89.6336 H   0  0  0  0  0  0  0  0  0  0  0  0
   39.6109    8.3432   89.0018 H   0  0  0  0  0  0  0  0  0  0  0  0
   38.6109    8.2892   87.5105 H   0  0  0  0  0  0  0  0  0  0  0  0
   40.1768    9.1694   87.5105 H   0  0  0  0  0  0  0  0  0  0  0  0
   39.7679   11.8732   89.1017 H   0  0  0  0  0  0  0  0  0  0  0  0
   40.2928   11.0554   87.5910 H   0  0  0  0  0  0  0  0  0  0  0  0
   38.8188   12.0820   87.5910 H   0  0  0  0  0  0  0  0  0  0  0  0
   36.1197    8.5394   86.3397 H   0  0  0  0  0  0  0  0  0  0  0  0
   34.7361    7.0884   88.5867 H   0  0  0  0  0  0  0  0  0  0  0  0
   34.1235    7.2522   86.8739 H   0  0  0  0  0  0  0  0  0  0  0  0
   37.1042    5.7645   85.5278 H   0  0  0  0  0  0  0  0  0  0  0  0
   35.5553    4.9246   85.1782 H   0  0  0  0  0  0  0  0  0  0  0  0
   35.6235    6.7196   85.1782 H   0  0  0  0  0  0  0  0  0  0  0  0
   34.5299    4.5840   88.4639 H   0  0  0  0  0  0  0  0  0  0  0  0
   33.6985    5.0075   86.9289 H   0  0  0  0  0  0  0  0  0  0  0  0
   35.0184    3.7890   86.9289 H   0  0  0  0  0  0  0  0  0  0  0  0
   37.5705    5.4590   89.8682 H   0  0  0  0  0  0  0  0  0  0  0  0
   35.8310    5.8290   89.7264 H   0  0  0  0  0  0  0  0  0  0  0  0
  1  2  1  0
  2  3  1  0
  3  4  1  0
  4  5  1  0
  5  6  1  0
  6  7  1  0
  7  8  2  0
  8  9  1  0
  9 10  2  0
 10 11  1  0
  7 12  1  0
 11 12  2  0
 12 13  1  0
 13 14  1  0
  9 15  1  0
 15 16  1  0
 16 17  1  0
 17 18  1  0
 17 19  1  0
 16 20  1  0
 20 21  1  0
 21 22  1  0
 21 23  1  0
 23 24  1  0
 23 25  1  0
 25 26  1  0
 26 27  1  0
 27 28  1  0
 27 29  1  0
 26 30  1  0
 30 31  2  0
 30 32  1  0
 32 33  1  0
 33 34  1  0
 34 35  1  0
 34 36  1  0
 34 37  1  0
 37 38  2  0
 37 39  1  0
  1 40  1  0
  1 41  1  0
  1 42  1  0
  3 43  1  0
  3 44  1  0
  4 45  1  0
  4 46  1  0
  5 47  1  0
  5 48  1  0
  8 49  1  0
 10 50  1  0
 11 51  1  0
 14 52  1  0
 14 53  1  0
 14 54  1  0
 15 55  1  0
 15 56  1  0
 16 57  1  6
 17 58  1  0
 18 59  1  0
 18 60  1  0
 18 61  1  0
 19 62  1  0
 19 63  1  0
 19 64  1  0
 20 65  1  0
 20 66  1  0
 21 67  1  1
 22 68  1  0
 22 69  1  0
 23 70  1  1
 24 71  1  0
 25 72  1  0
 25 73  1  0
 26 74  1  6
 27 75  1  0
 28 76  1  0
 28 77  1  0
 28 78  1  0
 29 79  1  0
 29 80  1  0
 29 81  1  0
 32 82  1  0
 33 83  1  0
 33 84  1  0
 35 85  1  0
 35 86  1  0
 35 87  1  0
 36 88  1  0
 36 89  1  0
 36 90  1  0
 39 91  1  0
 39 92  1  0
M  END
$$$$
