PDB_DB00452_90
     RDKit          3D

 88 91  0  0  0  0  0  0  0  0999 V2000
  -31.2720  173.2140  207.9120 C   0  0  2  0  0  0  0  0  0  0  0  0
  -31.6050  172.0550  208.6280 O   0  0  0  0  0  0  0  0  0  0  0  0
  -32.0790  174.4470  208.3970 C   0  0  2  0  0  0  0  0  0  0  0  0
  -32.7880  174.2860  209.6520 N   0  0  0  0  0  0  0  0  0  0  0  0
  -33.0280  174.9060  207.3710 C   0  0  1  0  0  0  0  0  0  0  0  0
  -32.2240  175.5310  206.4110 O   0  0  0  0  0  0  0  0  0  0  0  0
  -33.7580  173.8670  206.7340 C   0  0  2  0  0  0  0  0  0  0  0  0
  -34.7650  173.4100  207.5950 O   0  0  0  0  0  0  0  0  0  0  0  0
  -32.9040  172.6870  206.4100 C   0  0  2  0  0  0  0  0  0  0  0  0
  -31.4520  173.0070  206.5580 O   0  0  0  0  0  0  0  0  0  0  0  0
  -33.2380  172.0750  205.0830 C   0  0  0  0  0  0  0  0  0  0  0  0
  -29.3670  168.5630  209.3290 C   0  0  1  0  0  0  0  0  0  0  0  0
  -28.1200  167.9280  208.9430 N   0  0  0  0  0  0  0  0  0  0  0  0
  -29.0330  169.8260  210.0830 C   0  0  1  0  0  0  0  0  0  0  0  0
  -29.7450  171.1320  209.7240 C   0  0  1  0  0  0  0  0  0  0  0  0
  -28.7330  172.1100  209.7610 O   0  0  0  0  0  0  0  0  0  0  0  0
  -30.4680  171.2420  208.4350 C   0  0  1  0  0  0  0  0  0  0  0  0
  -30.8980  169.9690  207.7380 C   0  0  1  0  0  0  0  0  0  0  0  0
  -30.6940  170.2600  206.3550 N   0  0  0  0  0  0  0  0  0  0  0  0
  -30.2110  168.6420  208.0930 C   0  0  0  0  0  0  0  0  0  0  0  0
  -28.9020  172.9500  210.8930 C   0  0  1  0  0  0  0  0  0  0  0  0
  -27.6400  173.5800  211.3400 C   0  0  1  0  0  0  0  0  0  0  0  0
  -27.7980  174.9880  211.2830 C   0  0  1  0  0  0  0  0  0  0  0  0
  -29.1830  175.2140  210.7820 C   0  0  2  0  0  0  0  0  0  0  0  0
  -29.8570  174.0100  210.6930 O   0  0  0  0  0  0  0  0  0  0  0  0
  -29.2350  175.8410  209.4110 C   0  0  0  0  0  0  0  0  0  0  0  0
  -26.7610  177.2250  215.3810 C   0  0  1  0  0  0  0  0  0  0  0  0
  -26.3580  178.1180  214.2850 C   0  0  1  0  0  0  0  0  0  0  0  0
  -26.5880  177.5650  213.0040 C   0  0  2  0  0  0  0  0  0  0  0  0
  -27.8380  176.7590  212.8590 C   0  0  1  0  0  0  0  0  0  0  0  0
  -27.5540  175.3930  212.6320 O   0  0  0  0  0  0  0  0  0  0  0  0
  -28.1990  176.7530  215.2930 C   0  0  1  0  0  0  0  0  0  0  0  0
  -28.7710  176.8960  214.0250 O   0  0  0  0  0  0  0  0  0  0  0  0
  -28.3260  175.2980  215.7350 C   0  0  0  0  0  0  0  0  0  0  0  0
  -33.7180  172.9740  204.0250 N   0  0  0  0  0  0  0  0  0  0  0  0
  -27.5280  173.1970  212.6480 O   0  0  0  0  0  0  0  0  0  0  0  0
  -27.1540  179.2910  214.3700 O   0  0  0  0  0  0  0  0  0  0  0  0
  -25.9100  176.0980  215.4200 O   0  0  0  0  0  0  0  0  0  0  0  0
  -29.1780  175.0300  208.3110 O   0  0  0  0  0  0  0  0  0  0  0  0
  -29.3440  169.5270  211.3640 O   0  0  0  0  0  0  0  0  0  0  0  0
  -27.6470  174.2120  215.0600 N   0  0  0  0  0  0  0  0  0  0  0  0
  -25.4730  176.6680  212.7340 N   0  0  0  0  0  0  0  0  0  0  0  0
  -30.2101  173.4310  208.0997 H   0  0  0  0  0  0  0  0  0  0  0  0
  -31.2995  175.2011  208.5809 H   0  0  0  0  0  0  0  0  0  0  0  0
  -32.1364  174.4340  210.4359 H   0  0  0  0  0  0  0  0  0  0  0  0
  -33.5518  174.9750  209.7057 H   0  0  0  0  0  0  0  0  0  0  0  0
  -33.7874  175.5482  207.8411 H   0  0  0  0  0  0  0  0  0  0  0  0
  -31.5289  176.0713  206.8638 H   0  0  0  0  0  0  0  0  0  0  0  0
  -34.1627  174.2913  205.8033 H   0  0  0  0  0  0  0  0  0  0  0  0
  -34.4799  173.5394  208.5342 H   0  0  0  0  0  0  0  0  0  0  0  0
  -33.1344  171.9087  207.1523 H   0  0  0  0  0  0  0  0  0  0  0  0
  -32.3288  171.5815  204.7091 H   0  0  0  0  0  0  0  0  0  0  0  0
  -34.0856  171.4045  205.2881 H   0  0  0  0  0  0  0  0  0  0  0  0
  -29.9949  168.0137  210.0460 H   0  0  0  0  0  0  0  0  0  0  0  0
  -27.5950  167.6606  209.7878 H   0  0  0  0  0  0  0  0  0  0  0  0
  -28.3217  167.0870  208.3836 H   0  0  0  0  0  0  0  0  0  0  0  0
  -27.9861  170.0601  209.8395 H   0  0  0  0  0  0  0  0  0  0  0  0
  -30.5696  171.2322  210.4451 H   0  0  0  0  0  0  0  0  0  0  0  0
  -29.7160  171.6655  207.7529 H   0  0  0  0  0  0  0  0  0  0  0  0
  -31.9268  169.7562  208.0639 H   0  0  0  0  0  0  0  0  0  0  0  0
  -30.1051  171.1001  206.2642 H   0  0  0  0  0  0  0  0  0  0  0  0
  -30.2263  169.4621  205.9016 H   0  0  0  0  0  0  0  0  0  0  0  0
  -29.5630  168.3785  207.2441 H   0  0  0  0  0  0  0  0  0  0  0  0
  -31.0493  167.9621  208.3049 H   0  0  0  0  0  0  0  0  0  0  0  0
  -29.2769  172.2587  211.6621 H   0  0  0  0  0  0  0  0  0  0  0  0
  -26.7677  173.2962  210.7329 H   0  0  0  0  0  0  0  0  0  0  0  0
  -27.1339  175.5604  210.6186 H   0  0  0  0  0  0  0  0  0  0  0  0
  -29.6454  175.9024  211.5047 H   0  0  0  0  0  0  0  0  0  0  0  0
  -30.1782  176.4036  209.3488 H   0  0  0  0  0  0  0  0  0  0  0  0
  -28.3082  176.4307  209.3539 H   0  0  0  0  0  0  0  0  0  0  0  0
  -26.6755  177.8204  216.3020 H   0  0  0  0  0  0  0  0  0  0  0  0
  -25.2794  178.3046  214.3937 H   0  0  0  0  0  0  0  0  0  0  0  0
  -26.6900  178.4137  212.3117 H   0  0  0  0  0  0  0  0  0  0  0  0
  -28.3503  177.1731  211.9781 H   0  0  0  0  0  0  0  0  0  0  0  0
  -28.7559  177.4120  215.9754 H   0  0  0  0  0  0  0  0  0  0  0  0
  -27.9852  175.2668  216.7804 H   0  0  0  0  0  0  0  0  0  0  0  0
  -29.3786  175.0843  215.4975 H   0  0  0  0  0  0  0  0  0  0  0  0
  -34.1596  173.8011  204.4514 H   0  0  0  0  0  0  0  0  0  0  0  0
  -32.9236  173.2717  203.4409 H   0  0  0  0  0  0  0  0  0  0  0  0
  -27.7515  173.9615  213.2360 H   0  0  0  0  0  0  0  0  0  0  0  0
  -27.3076  179.5173  215.3215 H   0  0  0  0  0  0  0  0  0  0  0  0
  -25.7267  175.8553  216.3621 H   0  0  0  0  0  0  0  0  0  0  0  0
  -29.1116  174.0856  208.6004 H   0  0  0  0  0  0  0  0  0  0  0  0
  -28.7823  170.0671  211.9746 H   0  0  0  0  0  0  0  0  0  0  0  0
  -27.2460  173.5706  215.7590 H   0  0  0  0  0  0  0  0  0  0  0  0
  -28.3191  173.7006  214.4704 H   0  0  0  0  0  0  0  0  0  0  0  0
  -25.0698  176.3437  213.6246 H   0  0  0  0  0  0  0  0  0  0  0  0
  -25.8074  175.8577  212.1932 H   0  0  0  0  0  0  0  0  0  0  0  0
  2  1  1  0
  3  1  1  0
  4  3  1  0
  5  3  1  0
  6  5  1  0
  7  5  1  0
  8  7  1  0
  9  7  1  0
 10  9  1  0
 10  1  1  0
 11  9  1  0
 13 12  1  0
 14 12  1  0
 15 14  1  0
 16 15  1  0
 17 15  1  0
 17  2  1  0
 18 17  1  0
 19 18  1  0
 20 12  1  0
 20 18  1  0
 21 16  1  0
 22 21  1  0
 23 22  1  0
 24 23  1  0
 25 21  1  0
 25 24  1  0
 26 24  1  0
 28 27  1  0
 29 28  1  0
 30 29  1  0
 31 23  1  0
 31 30  1  0
 32 27  1  0
 33 32  1  0
 33 30  1  0
 34 32  1  0
 35 11  1  0
 36 22  1  0
 37 28  1  0
 38 27  1  0
 39 26  1  0
 40 14  1  0
 41 34  1  0
 42 29  1  0
  1 43  1  6
  3 44  1  1
  4 45  1  0
  4 46  1  0
  5 47  1  1
  6 48  1  0
  7 49  1  6
  8 50  1  0
  9 51  1  1
 11 52  1  0
 11 53  1  0
 12 54  1  1
 13 55  1  0
 13 56  1  0
 14 57  1  1
 15 58  1  1
 17 59  1  6
 18 60  1  6
 19 61  1  0
 19 62  1  0
 20 63  1  0
 20 64  1  0
 21 65  1  1
 22 66  1  6
 23 67  1  6
 24 68  1  1
 26 69  1  0
 26 70  1  0
 27 71  1  1
 28 72  1  1
 29 73  1  6
 30 74  1  6
 32 75  1  1
 34 76  1  0
 34 77  1  0
 35 78  1  0
 35 79  1  0
 36 80  1  0
 37 81  1  0
 38 82  1  0
 39 83  1  0
 40 84  1  0
 41 85  1  0
 41 86  1  0
 42 87  1  0
 42 88  1  0
M  END
$$$$
