PDB_DB00685_96
     RDKit          3D

 45 49  0  0  0  0  0  0  0  0999 V2000
  -89.2960   -2.6080   12.8530 C   0  0  0  0  0  0  0  0  0  0  0  0
  -90.5470   -2.8530   13.4000 C   0  0  0  0  0  0  0  0  0  0  0  0
  -91.6800   -2.3460   12.7980 C   0  0  0  0  0  0  0  0  0  0  0  0
  -92.8630   -2.5580   13.2940 F   0  0  0  0  0  0  0  0  0  0  0  0
  -91.5610   -1.5990   11.6400 C   0  0  0  0  0  0  0  0  0  0  0  0
  -90.3180   -1.3540   11.0960 C   0  0  0  0  0  0  0  0  0  0  0  0
  -90.2460   -0.6220    9.9720 F   0  0  0  0  0  0  0  0  0  0  0  0
  -89.1660   -1.8530   11.7050 C   0  0  0  0  0  0  0  0  0  0  0  0
  -87.9340   -1.6190   11.1900 N   0  0  0  0  0  0  0  0  0  0  0  0
  -87.2670   -2.6990   10.7650 C   0  0  0  0  0  0  0  0  0  0  0  0
  -87.8460   -3.9090   10.8650 N   0  0  0  0  0  0  0  0  0  0  0  0
  -87.2170   -5.0210   10.4590 C   0  0  0  0  0  0  0  0  0  0  0  0
  -87.8970   -6.2880   10.5780 N   0  0  0  0  0  0  0  0  0  0  0  0
  -89.1290   -6.0160   11.2850 C   0  0  0  0  0  0  0  0  0  0  0  0
  -89.8410   -7.3330   11.3160 C   0  0  1  0  0  0  0  0  0  0  0  0
  -90.1460   -7.9650    9.9930 C   0  0  0  0  0  0  0  0  0  0  0  0
  -91.2260   -8.9900    9.8960 N   0  0  0  0  0  0  0  0  0  0  0  0
  -88.9240   -8.3700   10.7480 C   0  0  1  0  0  0  0  0  0  0  0  0
  -87.6430   -7.6990   10.3750 C   0  0  0  0  0  0  0  0  0  0  0  0
  -85.9650   -4.9480    9.9080 C   0  0  0  0  0  0  0  0  0  0  0  0
  -85.3250   -3.7110    9.7890 C   0  0  0  0  0  0  0  0  0  0  0  0
  -85.9870   -2.5680   10.2210 C   0  0  0  0  0  0  0  0  0  0  0  0
  -85.3990   -1.3030   10.1260 C   0  0  0  0  0  0  0  0  0  0  0  0
  -86.1400   -0.2150   10.5910 C   0  0  0  0  0  0  0  0  0  0  0  0
  -87.4130   -0.3950   11.1240 C   0  0  0  0  0  0  0  0  0  0  0  0
  -85.6100    1.1750   10.5390 C   0  0  0  0  0  0  0  0  0  0  0  0
  -86.3760    2.1180   10.8520 O   0  0  0  0  0  0  0  0  0  0  0  0
  -84.4320    1.3560   10.1800 O   0  0  0  0  0  0  0  0  0  0  0  0
  -84.2690   -1.1930    9.6520 O   0  0  0  0  0  0  0  0  0  0  0  0
  -85.3870   -6.0740    9.5120 F   0  0  0  0  0  0  0  0  0  0  0  0
  -88.3990   -3.0194   13.3389 H   0  0  0  0  0  0  0  0  0  0  0  0
  -90.6359   -3.4538   14.3172 H   0  0  0  0  0  0  0  0  0  0  0  0
  -92.4615   -1.1988   11.1512 H   0  0  0  0  0  0  0  0  0  0  0  0
  -88.9217   -5.6617   12.3056 H   0  0  0  0  0  0  0  0  0  0  0  0
  -89.7252   -5.2291   10.7998 H   0  0  0  0  0  0  0  0  0  0  0  0
  -90.4582   -7.1687   12.2116 H   0  0  0  0  0  0  0  0  0  0  0  0
  -90.3711   -7.5608    8.9950 H   0  0  0  0  0  0  0  0  0  0  0  0
  -91.5203   -9.2693   10.8427 H   0  0  0  0  0  0  0  0  0  0  0  0
  -92.0305   -8.5941    9.3892 H   0  0  0  0  0  0  0  0  0  0  0  0
  -88.5223   -9.3596   11.0112 H   0  0  0  0  0  0  0  0  0  0  0  0
  -87.3908   -7.9008    9.3235 H   0  0  0  0  0  0  0  0  0  0  0  0
  -86.7934   -8.0601   10.9731 H   0  0  0  0  0  0  0  0  0  0  0  0
  -84.3141   -3.6434    9.3605 H   0  0  0  0  0  0  0  0  0  0  0  0
  -87.9863    0.4698   11.4892 H   0  0  0  0  0  0  0  0  0  0  0  0
  -86.0480    3.0517   10.8257 H   0  0  0  0  0  0  0  0  0  0  0  0
  1  2  2  0
  2  3  1  0
  3  4  1  0
  3  5  2  0
  5  6  1  0
  6  7  1  0
  1  8  1  0
  6  8  2  0
  8  9  1  0
  9 10  1  0
 10 11  2  0
 11 12  1  0
 12 13  1  0
 13 14  1  0
 14 15  1  0
 15 16  1  0
 16 17  1  0
 15 18  1  0
 16 18  1  0
 13 19  1  0
 18 19  1  0
 12 20  2  0
 20 21  1  0
 10 22  1  0
 21 22  2  0
 22 23  1  0
 23 24  1  0
  9 25  1  0
 24 25  2  0
 24 26  1  0
 26 27  1  0
 26 28  2  0
 23 29  2  0
 20 30  1  0
  1 31  1  0
  2 32  1  0
  5 33  1  0
 14 34  1  0
 14 35  1  0
 15 36  1  1
 16 37  1  0
 17 38  1  0
 17 39  1  0
 18 40  1  1
 19 41  1  0
 19 42  1  0
 21 43  1  0
 25 44  1  0
 27 45  1  0
M  END
$$$$
