PDB_DB00398_95
     RDKit          3D

 48 50  0  0  0  0  0  0  0  0999 V2000
   25.0080   11.0150  -12.7600 C   0  0  0  0  0  0  0  0  0  0  0  0
   25.8970   10.4170  -11.8790 C   0  0  0  0  0  0  0  0  0  0  0  0
   25.4420    9.5260  -10.9240 C   0  0  0  0  0  0  0  0  0  0  0  0
   24.0990    9.2440  -10.8590 C   0  0  0  0  0  0  0  0  0  0  0  0
   27.8030   11.8660  -12.2500 C   0  0  0  0  0  0  0  0  0  0  0  0
   29.9870   13.0080  -12.5190 C   0  0  0  0  0  0  0  0  0  0  0  0
   29.5600   14.3080  -12.2630 C   0  0  0  0  0  0  0  0  0  0  0  0
   30.4060   15.3790  -12.4880 C   0  0  0  0  0  0  0  0  0  0  0  0
   31.6960   15.1510  -12.9420 C   0  0  0  0  0  0  0  0  0  0  0  0
   32.1340   13.8530  -13.1660 C   0  0  0  0  0  0  0  0  0  0  0  0
   31.2940   12.7830  -12.9570 C   0  0  0  0  0  0  0  0  0  0  0  0
   32.5560   16.1860  -13.1360 O   0  0  0  0  0  0  0  0  0  0  0  0
   31.6790   17.1410  -15.2040 C   0  0  0  0  0  0  0  0  0  0  0  0
   31.5100   18.2860  -15.9760 C   0  0  0  0  0  0  0  0  0  0  0  0
   32.5500   19.5980  -14.3970 C   0  0  0  0  0  0  0  0  0  0  0  0
   32.7590   18.5050  -13.5660 C   0  0  0  0  0  0  0  0  0  0  0  0
   32.8370   22.0390  -14.5740 N   0  0  0  0  0  0  0  0  0  0  0  0
   33.2810   23.2760  -13.9330 C   0  0  0  0  0  0  0  0  0  0  0  0
   23.2330    9.8580  -11.7510 C   0  0  0  0  0  0  0  0  0  0  0  0
   23.6680   10.7510  -12.6970 C   0  0  0  0  0  0  0  0  0  0  0  0
   22.7050   11.3970  -13.6660 C   0  0  0  0  0  0  0  0  0  0  0  0
   23.3680   12.2610  -14.5310 F   0  0  0  0  0  0  0  0  0  0  0  0
   22.1900   10.3890  -14.4900 F   0  0  0  0  0  0  0  0  0  0  0  0
   21.7080   12.1270  -12.9850 F   0  0  0  0  0  0  0  0  0  0  0  0
   21.5470    9.5350  -11.6640 Cl  0  0  0  0  0  0  0  0  0  0  0  0
   27.2570   10.6700  -11.9580 N   0  0  0  0  0  0  0  0  0  0  0  0
   29.1590   11.8990  -12.2770 N   0  0  0  0  0  0  0  0  0  0  0  0
   27.1050   12.8430  -12.4700 O   0  0  0  0  0  0  0  0  0  0  0  0
   32.3170   17.2470  -13.9600 C   0  0  0  0  0  0  0  0  0  0  0  0
   31.9250   19.4700  -15.5630 N   0  0  0  0  0  0  0  0  0  0  0  0
   32.9950   20.9100  -13.8920 C   0  0  0  0  0  0  0  0  0  0  0  0
   33.4680   20.9730  -12.7820 O   0  0  0  0  0  0  0  0  0  0  0  0
   25.3871   11.7126  -13.5213 H   0  0  0  0  0  0  0  0  0  0  0  0
   26.1460    9.0496  -10.2259 H   0  0  0  0  0  0  0  0  0  0  0  0
   23.7148    8.5387  -10.1074 H   0  0  0  0  0  0  0  0  0  0  0  0
   28.5442   14.4845  -11.8797 H   0  0  0  0  0  0  0  0  0  0  0  0
   30.0570   16.4065  -12.3076 H   0  0  0  0  0  0  0  0  0  0  0  0
   33.1627   13.6779  -13.5140 H   0  0  0  0  0  0  0  0  0  0  0  0
   31.6497   11.7572  -13.1338 H   0  0  0  0  0  0  0  0  0  0  0  0
   31.3173   16.1667  -15.5644 H   0  0  0  0  0  0  0  0  0  0  0  0
   31.0178   18.2031  -16.9562 H   0  0  0  0  0  0  0  0  0  0  0  0
   33.2715   18.6339  -12.6013 H   0  0  0  0  0  0  0  0  0  0  0  0
   32.4190   22.0429  -15.5154 H   0  0  0  0  0  0  0  0  0  0  0  0
   33.2387   23.1583  -12.8401 H   0  0  0  0  0  0  0  0  0  0  0  0
   34.3145   23.4967  -14.2383 H   0  0  0  0  0  0  0  0  0  0  0  0
   32.6238   24.1036  -14.2383 H   0  0  0  0  0  0  0  0  0  0  0  0
   27.8987    9.8842  -11.7800 H   0  0  0  0  0  0  0  0  0  0  0  0
   29.6384   11.0049  -12.0990 H   0  0  0  0  0  0  0  0  0  0  0  0
  1  2  2  0
  2  3  1  0
  3  4  2  0
  6  7  2  0
  7  8  1  0
  8  9  2  0
  9 10  1  0
  6 11  1  0
 10 11  2  0
  9 12  1  0
 13 14  2  0
 15 16  1  0
 17 18  1  0
  4 19  1  0
  1 20  1  0
 19 20  2  0
 20 21  1  0
 21 22  1  0
 21 23  1  0
 21 24  1  0
 19 25  1  0
  2 26  1  0
  5 26  1  0
  5 27  1  0
  6 27  1  0
  5 28  2  0
 12 29  1  0
 13 29  1  0
 16 29  2  0
 14 30  1  0
 15 30  2  0
 15 31  1  0
 17 31  1  0
 31 32  2  0
  1 33  1  0
  3 34  1  0
  4 35  1  0
  7 36  1  0
  8 37  1  0
 10 38  1  0
 11 39  1  0
 13 40  1  0
 14 41  1  0
 16 42  1  0
 17 43  1  0
 18 44  1  0
 18 45  1  0
 18 46  1  0
 26 47  1  0
 27 48  1  0
M  END
>  <PDBID>  (1) 
5HI2

>  <PDB ID>  (1) 
5HI2

>  <Generic Name>  (1) 
Sorafenib

>  <Brand Name>  (1) 
Nexavar

>  <DrugBank ID>  (1) 
DB00398

>  <ATC Codes>  (1) 
L01XE05

>  <Ligand ID>  (1) 
BAX

>  <Target Name>  (1) 
Vascular endothelial growth factor receptor 1

>  <UniProt ID>  (1) 
P17948

>  <PDB ID.1>  (1) 
5HI2

>  <Seq. Identity>  (1) 
32%

$$$$
