PDB_DB08865_98
     RDKit          3D

 68 71  0  0  0  0  0  0  0  0999 V2000
   32.9370   46.3310    6.6220 Cl  0  0  0  0  0  0  0  0  0  0  0  0
   33.4020   46.0180    8.2730 C   0  0  0  0  0  0  0  0  0  0  0  0
   34.2220   47.0020    8.9000 C   0  0  0  0  0  0  0  0  0  0  0  0
   34.6560   46.8470   10.2410 C   0  0  0  0  0  0  0  0  0  0  0  0
   34.2850   45.7030   10.9980 C   0  0  0  0  0  0  0  0  0  0  0  0
   34.7220   45.6010   12.2650 F   0  0  0  0  0  0  0  0  0  0  0  0
   32.9950   44.8250    9.0120 C   0  0  0  0  0  0  0  0  0  0  0  0
   33.4550   44.6800   10.4050 C   0  0  0  0  0  0  0  0  0  0  0  0
   33.0420   43.3000   11.4140 Cl  0  0  0  0  0  0  0  0  0  0  0  0
   32.0950   43.7500    8.3080 C   0  0  1  0  0  0  0  0  0  0  0  0
   32.7790   42.3700    8.2830 C   0  0  0  0  0  0  0  0  0  0  0  0
   30.7900   43.5410    8.9500 O   0  0  0  0  0  0  0  0  0  0  0  0
   29.7900   44.5100    9.1260 C   0  0  0  0  0  0  0  0  0  0  0  0
   29.6840   45.7470    8.3920 C   0  0  0  0  0  0  0  0  0  0  0  0
   28.7610   44.2670   10.0990 C   0  0  0  0  0  0  0  0  0  0  0  0
   28.7980   43.0760   10.8500 N   0  0  0  0  0  0  0  0  0  0  0  0
   27.7320   45.1150   10.3500 N   0  0  0  0  0  0  0  0  0  0  0  0
   27.6600   46.2780    9.6400 C   0  0  0  0  0  0  0  0  0  0  0  0
   28.6090   46.6610    8.6410 C   0  0  0  0  0  0  0  0  0  0  0  0
   28.4980   47.9680    7.8660 C   0  0  0  0  0  0  0  0  0  0  0  0
   29.5440   48.6380    7.0900 C   0  0  0  0  0  0  0  0  0  0  0  0
   27.3800   48.7930    7.7370 C   0  0  0  0  0  0  0  0  0  0  0  0
   27.8290   49.8540    6.9230 N   0  0  0  0  0  0  0  0  0  0  0  0
   29.0630   49.7200    6.5830 N   0  0  0  0  0  0  0  0  0  0  0  0
   27.0170   51.0170    6.4770 C   0  0  2  0  0  0  0  0  0  0  0  0
   26.8190   52.0170    7.6370 C   0  0  0  0  0  0  0  0  0  0  0  0
   25.9750   53.2180    7.1460 C   0  0  0  0  0  0  0  0  0  0  0  0
   24.6730   52.7900    6.5550 N   0  0  0  0  0  0  0  0  0  0  0  0
   24.8360   51.7910    5.4600 C   0  0  0  0  0  0  0  0  0  0  0  0
   25.6480   50.5560    5.9130 C   0  0  0  0  0  0  0  0  0  0  0  0
   34.3019   45.4930    7.9200 H   0  0  0  0  0  0  0  0  0  0  0  0
   35.1304   47.0890    8.2858 H   0  0  0  0  0  0  0  0  0  0  0  0
   33.5502   47.8708    8.9631 H   0  0  0  0  0  0  0  0  0  0  0  0
   35.7556   46.8656   10.2190 H   0  0  0  0  0  0  0  0  0  0  0  0
   34.1354   47.6640   10.7621 H   0  0  0  0  0  0  0  0  0  0  0  0
   35.1849   45.1778   10.6453 H   0  0  0  0  0  0  0  0  0  0  0  0
   33.8952   44.2999    8.6601 H   0  0  0  0  0  0  0  0  0  0  0  0
   32.5553   45.2060   10.7569 H   0  0  0  0  0  0  0  0  0  0  0  0
   31.9446   44.1598    7.2983 H   0  0  0  0  0  0  0  0  0  0  0  0
   32.9493   42.0264    9.3140 H   0  0  0  0  0  0  0  0  0  0  0  0
   32.1334   41.6502    7.7586 H   0  0  0  0  0  0  0  0  0  0  0  0
   33.7428   42.4479    7.7586 H   0  0  0  0  0  0  0  0  0  0  0  0
   30.4100   45.0124    9.8831 H   0  0  0  0  0  0  0  0  0  0  0  0
   30.6158   46.3016    8.5769 H   0  0  0  0  0  0  0  0  0  0  0  0
   29.4788   45.4043    7.3671 H   0  0  0  0  0  0  0  0  0  0  0  0
   28.1541   43.7643    9.3316 H   0  0  0  0  0  0  0  0  0  0  0  0
   28.7909   43.3032   11.8546 H   0  0  0  0  0  0  0  0  0  0  0  0
   27.9745   42.5008   10.6223 H   0  0  0  0  0  0  0  0  0  0  0  0
   26.8600   44.5961   10.1731 H   0  0  0  0  0  0  0  0  0  0  0  0
   26.6838   46.2591    9.1334 H   0  0  0  0  0  0  0  0  0  0  0  0
   27.8706   47.0183   10.4259 H   0  0  0  0  0  0  0  0  0  0  0  0
   28.0034   46.1579    7.8728 H   0  0  0  0  0  0  0  0  0  0  0  0
   28.8059   48.5258    8.7627 H   0  0  0  0  0  0  0  0  0  0  0  0
   30.3907   48.8838    7.7477 H   0  0  0  0  0  0  0  0  0  0  0  0
   29.8924   47.9738    6.2853 H   0  0  0  0  0  0  0  0  0  0  0  0
   26.5507   48.2546    7.2549 H   0  0  0  0  0  0  0  0  0  0  0  0
   26.9954   49.1386    8.7079 H   0  0  0  0  0  0  0  0  0  0  0  0
   29.6016   50.5273    6.9280 H   0  0  0  0  0  0  0  0  0  0  0  0
   27.5636   51.5248    5.6687 H   0  0  0  0  0  0  0  0  0  0  0  0
   26.2974   51.5173    8.4666 H   0  0  0  0  0  0  0  0  0  0  0  0
   27.7997   52.3756    7.9827 H   0  0  0  0  0  0  0  0  0  0  0  0
   25.7749   53.8825    7.9995 H   0  0  0  0  0  0  0  0  0  0  0  0
   26.5478   53.7341    6.3614 H   0  0  0  0  0  0  0  0  0  0  0  0
   24.0957   52.3720    7.2985 H   0  0  0  0  0  0  0  0  0  0  0  0
   23.8399   51.4592    5.1319 H   0  0  0  0  0  0  0  0  0  0  0  0
   25.3866   52.2752    4.6401 H   0  0  0  0  0  0  0  0  0  0  0  0
   25.8111   49.8889    5.0537 H   0  0  0  0  0  0  0  0  0  0  0  0
   25.0917   50.0174    6.6944 H   0  0  0  0  0  0  0  0  0  0  0  0
  1  2  1  0
  2  3  1  0
  3  4  1  0
  4  5  1  0
  5  6  1  0
  2  7  1  0
  5  8  1  0
  7  8  1  0
  8  9  1  0
  7 10  1  0
 10 11  1  0
 10 12  1  0
 12 13  1  0
 13 14  1  0
 13 15  1  0
 15 16  1  0
 15 17  1  0
 17 18  1  0
 14 19  1  0
 18 19  1  0
 19 20  1  0
 20 21  1  0
 20 22  1  0
 22 23  1  0
 21 24  1  0
 23 24  1  0
 23 25  1  0
 25 26  1  0
 26 27  1  0
 27 28  1  0
 28 29  1  0
 25 30  1  0
 29 30  1  0
  2 31  1  0
  3 32  1  0
  3 33  1  0
  4 34  1  0
  4 35  1  0
  5 36  1  0
  7 37  1  0
  8 38  1  0
 10 39  1  6
 11 40  1  0
 11 41  1  0
 11 42  1  0
 13 43  1  0
 14 44  1  0
 14 45  1  0
 15 46  1  0
 16 47  1  0
 16 48  1  0
 17 49  1  0
 18 50  1  0
 18 51  1  0
 19 52  1  0
 20 53  1  0
 21 54  1  0
 21 55  1  0
 22 56  1  0
 22 57  1  0
 24 58  1  0
 25 59  1  6
 26 60  1  0
 26 61  1  0
 27 62  1  0
 27 63  1  0
 28 64  1  0
 29 65  1  0
 29 66  1  0
 30 67  1  0
 30 68  1  0
M  END
>  <PDBID>  (1) 
2XP2

>  <PDB ID>  (1) 
2XP2

>  <Generic Name>  (1) 
Crizotinib

>  <Brand Name>  (1) 
Xalkori

>  <DrugBank ID>  (1) 
DB08865

>  <ATC Codes>  (1) 
L01XE16

>  <Ligand ID>  (1) 
VGH

>  <Target Name>  (1) 
ALK tyrosine kinase receptor

>  <UniProt ID>  (1) 
Q9UM73

>  <PDB ID.1>  (1) 
2XP2

>  <Seq. Identity>  (1) 
100%

$$$$
