PDB_DB05015_99
     RDKit          3D

108110  0  0  0  0  0  0  0  0999 V2000
   28.3030   98.2600   28.4070 O   0  0  0  0  0  0  0  0  0  0  0  0
   27.7090   98.8410   29.2420 C   0  0  0  0  0  0  0  0  0  0  0  0
   26.2840   98.7420   29.3640 N   0  0  0  0  0  0  0  0  0  0  0  0
   25.6580   97.9840   28.4970 O   0  0  0  0  0  0  0  0  0  0  0  0
   28.3390   99.7190   30.2840 C   0  0  0  0  0  0  0  0  0  0  0  0
   29.5380   99.4540   30.7560 C   0  0  0  0  0  0  0  0  0  0  0  0
   30.1800   99.9720   31.9680 C   0  0  0  0  0  0  0  0  0  0  0  0
   31.3560   99.4140   32.4460 C   0  0  0  0  0  0  0  0  0  0  0  0
   29.6630  101.0420   32.7010 C   0  0  0  0  0  0  0  0  0  0  0  0
   30.3030  101.5010   33.8430 C   0  0  0  0  0  0  0  0  0  0  0  0
   31.4720  100.9130   34.2780 C   0  0  0  0  0  0  0  0  0  0  0  0
   32.0080   99.8310   33.5760 C   0  0  1  0  0  0  0  0  0  0  0  0
   33.5290   99.1400   34.1640 S   0  0  1  0  0  4  0  0  0  0  0  0
   33.3760   98.3310   35.5670 O   0  0  0  0  0  0  0  0  0  0  0  0
   33.9750   97.8910   33.2500 O   0  0  0  0  0  0  0  0  0  0  0  0
   34.7950  100.1640   34.1440 N   0  0  0  0  0  0  0  0  0  0  0  0
   35.0470  101.1380   33.1600 C   0  0  1  0  0  0  0  0  0  0  0  0
   35.7410  100.8250   31.9730 C   0  0  0  0  0  0  0  0  0  0  0  0
   35.9560  101.7860   31.0100 C   0  0  0  0  0  0  0  0  0  0  0  0
   35.4750  103.0750   31.1720 C   0  0  0  0  0  0  0  0  0  0  0  0
   34.7720  103.3880   32.3170 C   0  0  0  0  0  0  0  0  0  0  0  0
   34.5500  102.4410   33.2930 C   0  0  0  0  0  0  0  0  0  0  0  0
   28.3330  145.2210   53.1130 O   0  0  0  0  0  0  0  0  0  0  0  0
   27.7450  145.6470   54.0340 C   0  0  0  0  0  0  0  0  0  0  0  0
   26.3330  145.4200   54.1870 N   0  0  0  0  0  0  0  0  0  0  0  0
   25.7510  144.7270   53.2390 O   0  0  0  0  0  0  0  0  0  0  0  0
   28.3790  146.4330   55.1530 C   0  0  0  0  0  0  0  0  0  0  0  0
   29.5620  146.0940   55.6330 C   0  0  0  0  0  0  0  0  0  0  0  0
   30.2010  146.5180   56.8880 C   0  0  0  0  0  0  0  0  0  0  0  0
   31.3810  145.9200   57.3440 C   0  0  0  0  0  0  0  0  0  0  0  0
   29.6810  147.5350   57.6880 C   0  0  0  0  0  0  0  0  0  0  0  0
   30.3130  147.9120   58.8660 C   0  0  0  0  0  0  0  0  0  0  0  0
   31.4720  147.2960   59.2770 C   0  0  0  0  0  0  0  0  0  0  0  0
   32.0140  146.2620   58.5160 C   0  0  1  0  0  0  0  0  0  0  0  0
   33.5130  145.5490   59.0820 S   0  0  1  0  0  4  0  0  0  0  0  0
   33.3750  144.7740   60.5300 O   0  0  0  0  0  0  0  0  0  0  0  0
   33.8970  144.2670   58.1600 O   0  0  0  0  0  0  0  0  0  0  0  0
   34.7860  146.5550   59.0460 N   0  0  0  0  0  0  0  0  0  0  0  0
   34.9380  147.6480   58.1670 C   0  0  1  0  0  0  0  0  0  0  0  0
   35.4880  147.4910   56.8800 C   0  0  0  0  0  0  0  0  0  0  0  0
   35.5950  148.5660   56.0290 C   0  0  0  0  0  0  0  0  0  0  0  0
   35.1480  149.8210   56.4120 C   0  0  0  0  0  0  0  0  0  0  0  0
   34.5910  149.9850   57.6620 C   0  0  0  0  0  0  0  0  0  0  0  0
   34.4750  148.9190   58.5260 C   0  0  0  0  0  0  0  0  0  0  0  0
   28.9424   97.6346   28.8315 H   0  0  0  0  0  0  0  0  0  0  0  0
   27.5913   99.6977   28.5622 H   0  0  0  0  0  0  0  0  0  0  0  0
   26.0787   98.3724   30.3032 H   0  0  0  0  0  0  0  0  0  0  0  0
   25.1073   97.3171   28.9788 H   0  0  0  0  0  0  0  0  0  0  0  0
   28.3884  100.7300   29.8534 H   0  0  0  0  0  0  0  0  0  0  0  0
   27.6925   99.5590   31.1595 H   0  0  0  0  0  0  0  0  0  0  0  0
   29.5477   98.3616   30.8849 H   0  0  0  0  0  0  0  0  0  0  0  0
   30.1281  100.0106   30.0131 H   0  0  0  0  0  0  0  0  0  0  0  0
   29.5972   99.2664   32.5783 H   0  0  0  0  0  0  0  0  0  0  0  0
   31.1336   98.3491   32.6086 H   0  0  0  0  0  0  0  0  0  0  0  0
   32.0655   99.7368   31.6699 H   0  0  0  0  0  0  0  0  0  0  0  0
   29.6058  101.8959   32.0099 H   0  0  0  0  0  0  0  0  0  0  0  0
   28.7233  100.6312   33.0988 H   0  0  0  0  0  0  0  0  0  0  0  0
   30.5306  102.5633   33.6705 H   0  0  0  0  0  0  0  0  0  0  0  0
   29.5897  101.2504   34.6420 H   0  0  0  0  0  0  0  0  0  0  0  0
   32.2406  101.6999   34.2857 H   0  0  0  0  0  0  0  0  0  0  0  0
   31.1915  100.4744   35.2470 H   0  0  0  0  0  0  0  0  0  0  0  0
   32.6130  100.5228   32.9716 H   0  0  0  0  0  0  0  0  0  0  0  0
   33.4946   98.9579   36.3240 H   0  0  0  0  0  0  0  0  0  0  0  0
   34.2445   97.1363   33.8313 H   0  0  0  0  0  0  0  0  0  0  0  0
   34.7383  100.6832   35.0318 H   0  0  0  0  0  0  0  0  0  0  0  0
   35.9992  101.3876   33.6509 H   0  0  0  0  0  0  0  0  0  0  0  0
   36.7322  100.4569   32.2763 H   0  0  0  0  0  0  0  0  0  0  0  0
   35.0614  100.1214   31.4699 H   0  0  0  0  0  0  0  0  0  0  0  0
   37.0461  101.8711   30.8902 H   0  0  0  0  0  0  0  0  0  0  0  0
   35.3686  101.4125   30.1583 H   0  0  0  0  0  0  0  0  0  0  0  0
   36.3425  103.7501   31.1318 H   0  0  0  0  0  0  0  0  0  0  0  0
   34.7312  103.1817   30.3686 H   0  0  0  0  0  0  0  0  0  0  0  0
   35.3131  104.2148   32.8004 H   0  0  0  0  0  0  0  0  0  0  0  0
   33.7595  103.5838   31.9342 H   0  0  0  0  0  0  0  0  0  0  0  0
   33.4588  102.3503   33.3984 H   0  0  0  0  0  0  0  0  0  0  0  0
   35.1238  102.8331   34.1456 H   0  0  0  0  0  0  0  0  0  0  0  0
   29.0920  144.6711   53.4317 H   0  0  0  0  0  0  0  0  0  0  0  0
   27.5359  146.5701   53.4735 H   0  0  0  0  0  0  0  0  0  0  0  0
   26.1900  144.9187   55.0753 H   0  0  0  0  0  0  0  0  0  0  0  0
   25.1703  144.0355   53.6448 H   0  0  0  0  0  0  0  0  0  0  0  0
   28.4710  147.4692   54.7954 H   0  0  0  0  0  0  0  0  0  0  0  0
   27.7064  146.2357   56.0008 H   0  0  0  0  0  0  0  0  0  0  0  0
   29.5277  144.9965   55.6991 H   0  0  0  0  0  0  0  0  0  0  0  0
   30.1874  146.6692   54.9344 H   0  0  0  0  0  0  0  0  0  0  0  0
   29.6099  145.7730   57.4407 H   0  0  0  0  0  0  0  0  0  0  0  0
   31.1576  144.8462   57.4283 H   0  0  0  0  0  0  0  0  0  0  0  0
   32.1031  146.2898   56.6011 H   0  0  0  0  0  0  0  0  0  0  0  0
   29.6321  148.4350   57.0574 H   0  0  0  0  0  0  0  0  0  0  0  0
   28.7367  147.1007   58.0482 H   0  0  0  0  0  0  0  0  0  0  0  0
   30.5460  148.9825   58.7670 H   0  0  0  0  0  0  0  0  0  0  0  0
   29.5902  147.6060   59.6367 H   0  0  0  0  0  0  0  0  0  0  0  0
   32.2419  148.0787   59.3451 H   0  0  0  0  0  0  0  0  0  0  0  0
   31.1780  146.7973   60.2123 H   0  0  0  0  0  0  0  0  0  0  0  0
   32.6331  146.9887   57.9696 H   0  0  0  0  0  0  0  0  0  0  0  0
   33.4911  145.4262   61.2657 H   0  0  0  0  0  0  0  0  0  0  0  0
   34.1269  143.4994   58.7414 H   0  0  0  0  0  0  0  0  0  0  0  0
   34.8438  146.9561   59.9929 H   0  0  0  0  0  0  0  0  0  0  0  0
   35.9428  147.8352   58.5736 H   0  0  0  0  0  0  0  0  0  0  0  0
   36.5055  147.0967   57.0185 H   0  0  0  0  0  0  0  0  0  0  0  0
   34.7522  146.8485   56.3742 H   0  0  0  0  0  0  0  0  0  0  0  0
   36.6636  148.6726   55.7909 H   0  0  0  0  0  0  0  0  0  0  0  0
   34.9076  148.3005   55.2123 H   0  0  0  0  0  0  0  0  0  0  0  0
   36.0107  150.5009   56.3531 H   0  0  0  0  0  0  0  0  0  0  0  0
   34.3122  150.0211   55.7255 H   0  0  0  0  0  0  0  0  0  0  0  0
   35.1971  150.7436   58.1788 H   0  0  0  0  0  0  0  0  0  0  0  0
   33.5433  150.2297   57.4330 H   0  0  0  0  0  0  0  0  0  0  0  0
   33.4029  148.8106   58.7472 H   0  0  0  0  0  0  0  0  0  0  0  0
   35.1492  149.1992   59.3487 H   0  0  0  0  0  0  0  0  0  0  0  0
  1  2  1  0
  2  3  1  0
  3  4  1  0
  2  5  1  0
  5  6  1  0
  6  7  1  0
  7  8  1  0
  7  9  1  0
  9 10  1  0
 10 11  1  0
  8 12  1  0
 11 12  1  0
 12 13  1  0
 13 14  1  1
 13 15  1  0
 13 16  1  0
 16 17  1  0
 17 18  1  0
 18 19  1  0
 19 20  1  0
 20 21  1  0
 17 22  1  0
 21 22  1  0
 24 23  1  0
 24 25  1  0
 26 25  1  0
 24 27  1  0
 27 28  1  0
 28 29  1  0
 29 30  1  0
 29 31  1  0
 31 32  1  0
 32 33  1  0
 30 34  1  0
 33 34  1  0
 34 35  1  0
 35 36  1  1
 35 37  1  0
 35 38  1  0
 38 39  1  0
 39 40  1  0
 40 41  1  0
 41 42  1  0
 42 43  1  0
 39 44  1  0
 43 44  1  0
  1 45  1  0
  2 46  1  0
  3 47  1  0
  4 48  1  0
  5 49  1  0
  5 50  1  0
  6 51  1  0
  6 52  1  0
  7 53  1  0
  8 54  1  0
  8 55  1  0
  9 56  1  0
  9 57  1  0
 10 58  1  0
 10 59  1  0
 11 60  1  0
 11 61  1  0
 12 62  1  1
 14 63  1  0
 15 64  1  0
 16 65  1  0
 17 66  1  1
 18 67  1  0
 18 68  1  0
 19 69  1  0
 19 70  1  0
 20 71  1  0
 20 72  1  0
 21 73  1  0
 21 74  1  0
 22 75  1  0
 22 76  1  0
 23 77  1  0
 24 78  1  0
 25 79  1  1
 26 80  1  0
 27 81  1  0
 27 82  1  0
 28 83  1  0
 28 84  1  0
 29 85  1  0
 30 86  1  0
 30 87  1  0
 31 88  1  0
 31 89  1  0
 32 90  1  0
 32 91  1  0
 33 92  1  0
 33 93  1  0
 34 94  1  1
 36 95  1  0
 37 96  1  0
 38 97  1  0
 39 98  1  1
 40 99  1  0
 40100  1  0
 41101  1  0
 41102  1  0
 42103  1  0
 42104  1  0
 43105  1  0
 43106  1  0
 44107  1  0
 44108  1  0
M  END
>  <PDBID>  (1) 
5EEN

>  <PDB ID>  (1) 
5EEN

>  <Generic Name>  (1) 
Belinostat

>  <Brand Name>  (1) 
Beleodaq

>  <DrugBank ID>  (1) 
DB05015

>  <ATC Codes>  (1) 
L01XX49

>  <Ligand ID>  (1) 
5OG

>  <Target Name>  (1) 
Histone deacetylase 9

>  <UniProt ID>  (1) 
Q9UKV0

>  <PDB ID.1>  (1) 
5EEN

>  <Seq. Identity>  (1) 
46%

$$$$
