PDB_DB01076_96
     RDKit          3D

 76 79  0  0  0  0  0  0  0  0999 V2000
  -16.2940  -27.7300   20.3980 C   0  0  0  0  0  0  0  0  0  0  0  0
  -16.2030  -28.8490   21.2600 C   0  0  0  0  0  0  0  0  0  0  0  0
  -17.4130  -29.4550   21.6970 C   0  0  0  0  0  0  0  0  0  0  0  0
  -18.6560  -28.9670   21.2800 C   0  0  0  0  0  0  0  0  0  0  0  0
  -18.7230  -27.8620   20.4250 C   0  0  0  0  0  0  0  0  0  0  0  0
  -17.5390  -27.2430   19.9820 C   0  0  0  0  0  0  0  0  0  0  0  0
  -14.8400  -25.1320   23.5970 C   0  0  0  0  0  0  0  0  0  0  0  0
  -14.8450  -26.5160   23.4420 C   0  0  0  0  0  0  0  0  0  0  0  0
  -13.9760  -27.1220   22.5320 C   0  0  0  0  0  0  0  0  0  0  0  0
  -13.0970  -26.2920   21.7780 C   0  0  0  0  0  0  0  0  0  0  0  0
  -13.0940  -24.9050   21.9370 C   0  0  0  0  0  0  0  0  0  0  0  0
  -13.9670  -24.3360   22.8450 C   0  0  0  0  0  0  0  0  0  0  0  0
  -13.9850  -23.0040   23.0060 F   0  0  0  0  0  0  0  0  0  0  0  0
  -13.9350  -28.5260   22.3160 C   0  0  0  0  0  0  0  0  0  0  0  0
  -16.6130  -33.8010   21.4090 C   0  0  0  0  0  0  0  0  0  0  0  0
  -17.0590  -34.7640   22.3330 C   0  0  0  0  0  0  0  0  0  0  0  0
  -17.5920  -35.9800   21.8810 C   0  0  0  0  0  0  0  0  0  0  0  0
  -17.6830  -36.2480   20.5100 C   0  0  0  0  0  0  0  0  0  0  0  0
  -17.2510  -35.3060   19.5840 C   0  0  0  0  0  0  0  0  0  0  0  0
  -16.7210  -34.0960   20.0220 C   0  0  0  0  0  0  0  0  0  0  0  0
   -9.9180  -24.8620   18.9570 O   0  0  0  0  0  0  0  0  0  0  0  0
   -8.3570  -23.3420   19.6220 O   0  0  0  0  0  0  0  0  0  0  0  0
   -8.9390  -25.1400   22.4890 O   0  0  0  0  0  0  0  0  0  0  0  0
   -8.8730  -24.5790   19.5540 C   0  0  0  0  0  0  0  0  0  0  0  0
   -8.0570  -25.5800   20.3250 C   0  0  0  0  0  0  0  0  0  0  0  0
   -8.8670  -26.1400   21.4860 C   0  0  1  0  0  0  0  0  0  0  0  0
   -8.2410  -27.4040   22.0850 C   0  0  0  0  0  0  0  0  0  0  0  0
   -9.1710  -28.0820   23.1040 C   0  0  1  0  0  0  0  0  0  0  0  0
  -10.3560  -28.7830   22.4180 C   0  0  0  0  0  0  0  0  0  0  0  0
  -11.5680  -28.8020   23.3470 C   0  0  0  0  0  0  0  0  0  0  0  0
  -12.8290  -29.2980   22.6790 N   0  0  0  0  0  0  0  0  0  0  0  0
  -14.9510  -29.3380   21.7180 C   0  0  0  0  0  0  0  0  0  0  0  0
  -14.4130  -30.6710   21.6910 C   0  0  0  0  0  0  0  0  0  0  0  0
  -15.0000  -32.0000   21.1440 C   0  0  0  0  0  0  0  0  0  0  0  0
  -16.0870  -32.6720   21.8030 N   0  0  0  0  0  0  0  0  0  0  0  0
  -14.4860  -32.4720   20.1250 O   0  0  0  0  0  0  0  0  0  0  0  0
  -13.1330  -30.6140   22.2810 C   0  0  0  0  0  0  0  0  0  0  0  0
  -12.1120  -31.7830   22.5090 C   0  0  0  0  0  0  0  0  0  0  0  0
  -12.6770  -32.9570   23.3180 C   0  0  0  0  0  0  0  0  0  0  0  0
  -11.5260  -32.3220   21.1790 C   0  0  0  0  0  0  0  0  0  0  0  0
   -8.4300  -29.0470   23.8120 O   0  0  0  0  0  0  0  0  0  0  0  0
  -15.3744  -27.2365   20.0504 H   0  0  0  0  0  0  0  0  0  0  0  0
  -17.3709  -30.3212   22.3737 H   0  0  0  0  0  0  0  0  0  0  0  0
  -19.5810  -29.4524   21.6246 H   0  0  0  0  0  0  0  0  0  0  0  0
  -19.7005  -27.4770   20.0990 H   0  0  0  0  0  0  0  0  0  0  0  0
  -17.5920  -26.3753   19.3079 H   0  0  0  0  0  0  0  0  0  0  0  0
  -15.5268  -24.6606   24.3154 H   0  0  0  0  0  0  0  0  0  0  0  0
  -15.5344  -27.1328   24.0372 H   0  0  0  0  0  0  0  0  0  0  0  0
  -12.4069  -26.7533   21.0562 H   0  0  0  0  0  0  0  0  0  0  0  0
  -12.4088  -24.2759   21.3499 H   0  0  0  0  0  0  0  0  0  0  0  0
  -16.9895  -34.5626   23.4122 H   0  0  0  0  0  0  0  0  0  0  0  0
  -17.9407  -36.7279   22.6084 H   0  0  0  0  0  0  0  0  0  0  0  0
  -18.0975  -37.2066   20.1648 H   0  0  0  0  0  0  0  0  0  0  0  0
  -17.3278  -35.5164   18.5070 H   0  0  0  0  0  0  0  0  0  0  0  0
  -16.3801  -33.3557   19.2833 H   0  0  0  0  0  0  0  0  0  0  0  0
  -10.2440  -25.7967   18.9457 H   0  0  0  0  0  0  0  0  0  0  0  0
   -8.9083  -25.5657   23.3823 H   0  0  0  0  0  0  0  0  0  0  0  0
   -7.7653  -26.4029   19.6558 H   0  0  0  0  0  0  0  0  0  0  0  0
   -7.1605  -25.0812   20.7219 H   0  0  0  0  0  0  0  0  0  0  0  0
   -9.8629  -26.4178   21.1105 H   0  0  0  0  0  0  0  0  0  0  0  0
   -8.0278  -28.1138   21.2721 H   0  0  0  0  0  0  0  0  0  0  0  0
   -7.3200  -27.1102   22.6097 H   0  0  0  0  0  0  0  0  0  0  0  0
   -9.5706  -27.3070   23.7746 H   0  0  0  0  0  0  0  0  0  0  0  0
  -10.6137  -28.2418   21.4957 H   0  0  0  0  0  0  0  0  0  0  0  0
  -10.0709  -29.8182   22.1791 H   0  0  0  0  0  0  0  0  0  0  0  0
  -11.3434  -29.4597   24.1996 H   0  0  0  0  0  0  0  0  0  0  0  0
  -11.7533  -27.7638   23.6598 H   0  0  0  0  0  0  0  0  0  0  0  0
  -16.4795  -32.2312   22.6471 H   0  0  0  0  0  0  0  0  0  0  0  0
  -11.3098  -31.3225   23.1043 H   0  0  0  0  0  0  0  0  0  0  0  0
  -12.5748  -32.7447   24.3925 H   0  0  0  0  0  0  0  0  0  0  0  0
  -13.7400  -33.0947   23.0709 H   0  0  0  0  0  0  0  0  0  0  0  0
  -12.1214  -33.8737   23.0709 H   0  0  0  0  0  0  0  0  0  0  0  0
  -10.7325  -33.0519   21.3971 H   0  0  0  0  0  0  0  0  0  0  0  0
  -12.3229  -32.8093   20.5981 H   0  0  0  0  0  0  0  0  0  0  0  0
  -11.1068  -31.4873   20.5981 H   0  0  0  0  0  0  0  0  0  0  0  0
   -8.5422  -28.9009   24.7847 H   0  0  0  0  0  0  0  0  0  0  0  0
  1  2  2  0
  2  3  1  0
  3  4  2  0
  4  5  1  0
  1  6  1  0
  5  6  2  0
  7  8  2  0
  8  9  1  0
  9 10  2  0
 10 11  1  0
  7 12  1  0
 11 12  2  0
 12 13  1  0
  9 14  1  0
 15 16  2  0
 16 17  1  0
 17 18  2  0
 18 19  1  0
 15 20  1  0
 19 20  2  0
 21 24  1  0
 22 24  2  0
 24 25  1  0
 23 26  1  0
 25 26  1  0
 26 27  1  0
 27 28  1  0
 28 29  1  0
 29 30  1  0
 14 31  1  0
 30 31  1  0
  2 32  1  0
 14 32  2  0
 32 33  1  0
 33 34  1  0
 15 35  1  0
 34 35  1  0
 34 36  2  0
 31 37  1  0
 33 37  2  0
 37 38  1  0
 38 39  1  0
 38 40  1  0
 28 41  1  0
  1 42  1  0
  3 43  1  0
  4 44  1  0
  5 45  1  0
  6 46  1  0
  7 47  1  0
  8 48  1  0
 10 49  1  0
 11 50  1  0
 16 51  1  0
 17 52  1  0
 18 53  1  0
 19 54  1  0
 20 55  1  0
 21 56  1  0
 23 57  1  0
 25 58  1  0
 25 59  1  0
 26 60  1  6
 27 61  1  0
 27 62  1  0
 28 63  1  1
 29 64  1  0
 29 65  1  0
 30 66  1  0
 30 67  1  0
 35 68  1  0
 38 69  1  0
 39 70  1  0
 39 71  1  0
 39 72  1  0
 40 73  1  0
 40 74  1  0
 40 75  1  0
 41 76  1  0
M  END
$$$$
