PDB_DB00396_98
     RDKit          3D

118124  0  0  0  0  0  0  0  0999 V2000
   21.2060    9.9350   63.0810 C   0  0  0  0  0  0  0  0  0  0  0  0
   21.2410    9.4460   64.5510 C   0  0  0  0  0  0  0  0  0  0  0  0
   22.0000    8.1250   64.6300 C   0  0  1  0  0  0  0  0  0  0  0  0
   21.7010    7.3010   65.5120 O   0  0  0  0  0  0  0  0  0  0  0  0
   23.1180    7.8720   63.7340 C   0  0  0  0  0  0  0  0  0  0  0  0
   23.4530    8.7270   62.7850 C   0  0  0  0  0  0  0  0  0  0  0  0
   24.6970    8.4430   61.9510 C   0  0  0  0  0  0  0  0  0  0  0  0
   24.4490    8.6370   60.4430 C   0  0  0  0  0  0  0  0  0  0  0  0
   23.7890    9.9970   60.0980 C   0  0  2  0  0  0  0  0  0  0  0  0
   22.4340   10.0950   60.8720 C   0  0  1  0  0  0  0  0  0  0  0  0
   22.6140   10.0230   62.4340 C   0  0  1  0  0  0  0  0  0  0  0  0
   21.6330   11.3540   60.4500 C   0  0  0  0  0  0  0  0  0  0  0  0
   21.4320   11.4340   58.9110 C   0  0  0  0  0  0  0  0  0  0  0  0
   22.7860   11.4040   58.1690 C   0  0  1  0  0  0  0  0  0  0  0  0
   23.4830   10.0600   58.5980 C   0  0  1  0  0  0  0  0  0  0  0  0
   24.6740    9.9180   57.6180 C   0  0  0  0  0  0  0  0  0  0  0  0
   24.0720   10.4500   56.2670 C   0  0  0  0  0  0  0  0  0  0  0  0
   22.7140   11.1490   56.6270 C   0  0  2  0  0  0  0  0  0  0  0  0
   23.6590   12.6770   58.4540 C   0  0  0  0  0  0  0  0  0  0  0  0
   23.4270   11.2460   63.0070 C   0  0  0  0  0  0  0  0  0  0  0  0
   22.3750   12.3880   55.7810 C   0  0  0  0  0  0  0  0  0  0  0  0
   23.2120   12.8760   55.0520 O   0  0  0  0  0  0  0  0  0  0  0  0
   21.0090   12.9760   55.8570 C   0  0  0  0  0  0  0  0  0  0  0  0
   36.7220   34.7500   39.8210 C   0  0  0  0  0  0  0  0  0  0  0  0
   37.3830   34.8850   38.4110 C   0  0  0  0  0  0  0  0  0  0  0  0
   38.8780   35.0520   38.5810 C   0  0  1  0  0  0  0  0  0  0  0  0
   39.5010   35.7610   37.7780 O   0  0  0  0  0  0  0  0  0  0  0  0
   39.5770   34.3190   39.6470 C   0  0  0  0  0  0  0  0  0  0  0  0
   38.9110   33.6080   40.5590 C   0  0  0  0  0  0  0  0  0  0  0  0
   39.7000   32.7870   41.5920 C   0  0  0  0  0  0  0  0  0  0  0  0
   39.1710   32.9800   43.0350 C   0  0  0  0  0  0  0  0  0  0  0  0
   37.6270   32.8100   43.1550 C   0  0  2  0  0  0  0  0  0  0  0  0
   36.9320   33.8170   42.1680 C   0  0  1  0  0  0  0  0  0  0  0  0
   37.3290   33.5900   40.6610 C   0  0  1  0  0  0  0  0  0  0  0  0
   35.3900   33.8110   42.3560 C   0  0  0  0  0  0  0  0  0  0  0  0
   34.9700   34.0640   43.8330 C   0  0  0  0  0  0  0  0  0  0  0  0
   35.6010   33.0210   44.7670 C   0  0  1  0  0  0  0  0  0  0  0  0
   37.1640   33.1570   44.5780 C   0  0  1  0  0  0  0  0  0  0  0  0
   37.7550   32.3500   45.7550 C   0  0  0  0  0  0  0  0  0  0  0  0
   36.7670   32.6740   46.9380 C   0  0  0  0  0  0  0  0  0  0  0  0
   35.5290   33.3640   46.2880 C   0  0  2  0  0  0  0  0  0  0  0  0
   35.0530   31.5580   44.4750 C   0  0  0  0  0  0  0  0  0  0  0  0
   36.8520   32.2030   40.1130 C   0  0  0  0  0  0  0  0  0  0  0  0
   34.1780   33.0980   46.9850 C   0  0  0  0  0  0  0  0  0  0  0  0
   34.0280   32.1470   47.7210 O   0  0  0  0  0  0  0  0  0  0  0  0
   33.0600   34.0330   46.7510 C   0  0  0  0  0  0  0  0  0  0  0  0
   20.5942    9.2345   62.4937 H   0  0  0  0  0  0  0  0  0  0  0  0
   20.7826   10.9502   63.0835 H   0  0  0  0  0  0  0  0  0  0  0  0
   21.7468   10.1973   65.1753 H   0  0  0  0  0  0  0  0  0  0  0  0
   20.2127    9.3001   64.9133 H   0  0  0  0  0  0  0  0  0  0  0  0
   22.7321    8.5863   65.3091 H   0  0  0  0  0  0  0  0  0  0  0  0
   21.8475    7.7047   66.4040 H   0  0  0  0  0  0  0  0  0  0  0  0
   24.0060    7.7547   64.3725 H   0  0  0  0  0  0  0  0  0  0  0  0
   22.7637    7.0062   63.1554 H   0  0  0  0  0  0  0  0  0  0  0  0
   24.0649    9.2882   63.5066 H   0  0  0  0  0  0  0  0  0  0  0  0
   25.4986    9.1263   62.2681 H   0  0  0  0  0  0  0  0  0  0  0  0
   24.9767    7.3915   62.1127 H   0  0  0  0  0  0  0  0  0  0  0  0
   25.4147    8.5753   59.9199 H   0  0  0  0  0  0  0  0  0  0  0  0
   23.7525    7.8476   60.1240 H   0  0  0  0  0  0  0  0  0  0  0  0
   24.4681   10.8167   60.3752 H   0  0  0  0  0  0  0  0  0  0  0  0
   21.8485    9.2081   60.5880 H   0  0  0  0  0  0  0  0  0  0  0  0
   20.6461   11.3249   60.9350 H   0  0  0  0  0  0  0  0  0  0  0  0
   22.2067   12.2392   60.7619 H   0  0  0  0  0  0  0  0  0  0  0  0
   20.8242   10.5776   58.5835 H   0  0  0  0  0  0  0  0  0  0  0  0
   20.9259   12.3816   58.6745 H   0  0  0  0  0  0  0  0  0  0  0  0
   22.8373    9.1741   58.5075 H   0  0  0  0  0  0  0  0  0  0  0  0
   25.5287   10.5308   57.9404 H   0  0  0  0  0  0  0  0  0  0  0  0
   25.0638    8.8917   57.5491 H   0  0  0  0  0  0  0  0  0  0  0  0
   24.7597   11.1725   55.8033 H   0  0  0  0  0  0  0  0  0  0  0  0
   23.9187    9.6297   55.5503 H   0  0  0  0  0  0  0  0  0  0  0  0
   21.8607   10.5031   56.3725 H   0  0  0  0  0  0  0  0  0  0  0  0
   23.7564   12.8191   59.5404 H   0  0  0  0  0  0  0  0  0  0  0  0
   24.6569   12.5441   58.0106 H   0  0  0  0  0  0  0  0  0  0  0  0
   23.1755   13.5600   58.0106 H   0  0  0  0  0  0  0  0  0  0  0  0
   23.4074   11.2165   64.1064 H   0  0  0  0  0  0  0  0  0  0  0  0
   24.4684   11.1902   62.6572 H   0  0  0  0  0  0  0  0  0  0  0  0
   22.9725   12.1846   62.6572 H   0  0  0  0  0  0  0  0  0  0  0  0
   22.7096   13.0398   56.6015 H   0  0  0  0  0  0  0  0  0  0  0  0
   23.9246   13.2915   55.5994 H   0  0  0  0  0  0  0  0  0  0  0  0
   20.7213   13.0999   56.9115 H   0  0  0  0  0  0  0  0  0  0  0  0
   21.0034   13.9562   55.3578 H   0  0  0  0  0  0  0  0  0  0  0  0
   20.2932   12.3063   55.3578 H   0  0  0  0  0  0  0  0  0  0  0  0
   36.8655   35.6932   40.3685 H   0  0  0  0  0  0  0  0  0  0  0  0
   35.6560   34.5262   39.6677 H   0  0  0  0  0  0  0  0  0  0  0  0
   37.1779   33.9805   37.8195 H   0  0  0  0  0  0  0  0  0  0  0  0
   36.9685   35.7599   37.8887 H   0  0  0  0  0  0  0  0  0  0  0  0
   39.0489   34.1751   37.9393 H   0  0  0  0  0  0  0  0  0  0  0  0
   40.0661   36.4042   38.2751 H   0  0  0  0  0  0  0  0  0  0  0  0
   40.2592   33.6173   39.1447 H   0  0  0  0  0  0  0  0  0  0  0  0
   40.0059   35.1328   40.2501 H   0  0  0  0  0  0  0  0  0  0  0  0
   38.9022   32.7436   39.8787 H   0  0  0  0  0  0  0  0  0  0  0  0
   39.6237   31.7218   41.3282 H   0  0  0  0  0  0  0  0  0  0  0  0
   40.7428   33.1365   41.5696 H   0  0  0  0  0  0  0  0  0  0  0  0
   39.6553   32.2376   43.6863 H   0  0  0  0  0  0  0  0  0  0  0  0
   39.4086   34.0119   43.3330 H   0  0  0  0  0  0  0  0  0  0  0  0
   37.3628   31.7687   42.9186 H   0  0  0  0  0  0  0  0  0  0  0  0
   37.3100   34.8158   42.4315 H   0  0  0  0  0  0  0  0  0  0  0  0
   34.9544   34.5998   41.7251 H   0  0  0  0  0  0  0  0  0  0  0  0
   35.0216   32.8150   42.0691 H   0  0  0  0  0  0  0  0  0  0  0  0
   35.3036   35.0675   44.1357 H   0  0  0  0  0  0  0  0  0  0  0  0
   33.8752   33.9855   43.9061 H   0  0  0  0  0  0  0  0  0  0  0  0
   37.5412   34.1888   44.6333 H   0  0  0  0  0  0  0  0  0  0  0  0
   37.7639   31.2731   45.5310 H   0  0  0  0  0  0  0  0  0  0  0  0
   38.7998   32.6116   45.9787 H   0  0  0  0  0  0  0  0  0  0  0  0
   36.4642   31.7474   47.4477 H   0  0  0  0  0  0  0  0  0  0  0  0
   37.2395   33.3214   47.6914 H   0  0  0  0  0  0  0  0  0  0  0  0
   35.5751   34.4543   46.4264 H   0  0  0  0  0  0  0  0  0  0  0  0
   34.8597   31.0420   45.4271 H   0  0  0  0  0  0  0  0  0  0  0  0
   34.1189   31.6247   43.8979 H   0  0  0  0  0  0  0  0  0  0  0  0
   35.8011   30.9946   43.8979 H   0  0  0  0  0  0  0  0  0  0  0  0
   36.6223   31.5350   40.9562 H   0  0  0  0  0  0  0  0  0  0  0  0
   35.9500   32.3419   39.4989 H   0  0  0  0  0  0  0  0  0  0  0  0
   37.6486   31.7577   39.4989 H   0  0  0  0  0  0  0  0  0  0  0  0
   33.8569   32.4862   46.1291 H   0  0  0  0  0  0  0  0  0  0  0  0
   34.0755   32.4480   48.6629 H   0  0  0  0  0  0  0  0  0  0  0  0
   32.6562   34.3707   47.7169 H   0  0  0  0  0  0  0  0  0  0  0  0
   33.4215   34.9015   46.1809 H   0  0  0  0  0  0  0  0  0  0  0  0
   32.2692   33.5236   46.1809 H   0  0  0  0  0  0  0  0  0  0  0  0
  1  2  1  0
  2  3  1  0
  3  4  1  0
  3  5  1  0
  5  6  1  0
  6  7  1  0
  7  8  1  0
  8  9  1  0
  9 10  1  0
  1 11  1  0
  6 11  1  0
 10 11  1  0
 10 12  1  0
 12 13  1  0
 13 14  1  0
  9 15  1  0
 14 15  1  0
 15 16  1  0
 16 17  1  0
 14 18  1  0
 17 18  1  0
 14 19  1  6
 11 20  1  1
 18 21  1  0
 21 22  1  0
 21 23  1  0
 24 25  1  0
 25 26  1  0
 26 27  1  0
 26 28  1  0
 28 29  1  0
 29 30  1  0
 30 31  1  0
 31 32  1  0
 32 33  1  0
 24 34  1  0
 29 34  1  0
 33 34  1  0
 33 35  1  0
 35 36  1  0
 36 37  1  0
 32 38  1  0
 37 38  1  0
 38 39  1  0
 39 40  1  0
 37 41  1  0
 40 41  1  0
 37 42  1  1
 34 43  1  6
 41 44  1  0
 44 45  1  0
 44 46  1  0
  1 47  1  0
  1 48  1  0
  2 49  1  0
  2 50  1  0
  3 51  1  6
  4 52  1  0
  5 53  1  0
  5 54  1  0
  6 55  1  0
  7 56  1  0
  7 57  1  0
  8 58  1  0
  8 59  1  0
  9 60  1  1
 10 61  1  6
 12 62  1  0
 12 63  1  0
 13 64  1  0
 13 65  1  0
 15 66  1  6
 16 67  1  0
 16 68  1  0
 17 69  1  0
 17 70  1  0
 18 71  1  1
 19 72  1  0
 19 73  1  0
 19 74  1  0
 20 75  1  0
 20 76  1  0
 20 77  1  0
 21 78  1  0
 22 79  1  0
 23 80  1  0
 23 81  1  0
 23 82  1  0
 24 83  1  0
 24 84  1  0
 25 85  1  0
 25 86  1  0
 26 87  1  1
 27 88  1  0
 28 89  1  0
 28 90  1  0
 29 91  1  0
 30 92  1  0
 30 93  1  0
 31 94  1  0
 31 95  1  0
 32 96  1  6
 33 97  1  1
 35 98  1  0
 35 99  1  0
 36100  1  0
 36101  1  0
 38102  1  1
 39103  1  0
 39104  1  0
 40105  1  0
 40106  1  0
 41107  1  6
 42108  1  0
 42109  1  0
 42110  1  0
 43111  1  0
 43112  1  0
 43113  1  0
 44114  1  0
 45115  1  0
 46116  1  0
 46117  1  0
 46118  1  0
M  END
>  <PDBID>  (1) 
1A28

>  <PDB ID>  (1) 
1A28

>  <Generic Name>  (1) 
Progesterone

>  <Brand Name>  (1) 
Act Progesterone Injection#Crinone#Endometrin#Estrogel Propak#Gesterol In Oil-liq Im 50mg/ml#PMS-progesterone Inj 50mg/ml USP#Prochieve#Progesterone#Progesterone Inj 50mg/ml USP#Progesterone Injection USP#Prometrium#Teva-progesterone#Agolutin#Cyclogest#Gesterol#Gestone#Progestasert#Progestogel#Qi Ning#Relantan#Susten#Utrogestan#Utrogestran#Utrovin#Vasclor

>  <DrugBank ID>  (1) 
DB00396

>  <ATC Codes>  (1) 
G03DA04#G03FA04

>  <Ligand ID>  (1) 
STR

>  <Target Name>  (1) 
Estrogen receptor

>  <UniProt ID>  (1) 
P03372

>  <PDB ID.1>  (1) 
1A28

>  <Seq. Identity>  (1) 
31%

$$$$
