PDB_DB01128_97
     RDKit          3D

 63 64  0  0  0  0  0  0  0  0999 V2000
   28.5220    1.6690    8.5990 C   0  0  0  0  0  0  0  0  0  0  0  0
   28.0900    1.4680    9.9310 C   0  0  0  0  0  0  0  0  0  0  0  0
   28.9460    0.9050   10.8820 C   0  0  0  0  0  0  0  0  0  0  0  0
   28.6170    0.7330   12.1820 F   0  0  0  0  0  0  0  0  0  0  0  0
   30.2480    0.5350   10.5180 C   0  0  0  0  0  0  0  0  0  0  0  0
   30.6480    0.7200    9.1940 C   0  0  0  0  0  0  0  0  0  0  0  0
   29.8350    1.2980    8.2220 C   0  0  1  0  0  0  0  0  0  0  0  0
   30.4510    1.4380    6.7220 S   0  0  1  0  0  4  0  0  0  0  0  0
   30.0240    2.6910    6.2140 O   0  0  0  0  0  0  0  0  0  0  0  0
   31.9060    1.3250    6.8200 O   0  0  0  0  0  0  0  0  0  0  0  0
   29.9420    0.1620    5.7720 C   0  0  0  0  0  0  0  0  0  0  0  0
   29.4270    0.5640    4.4140 C   0  0  1  0  0  0  0  0  0  0  0  0
   30.3910    1.4990    3.8800 O   0  0  0  0  0  0  0  0  0  0  0  0
   29.2170   -0.6350    3.5080 C   0  0  0  0  0  0  0  0  0  0  0  0
   28.1120    1.2560    4.6430 C   0  0  1  0  0  0  0  0  0  0  0  0
   27.1950    0.7780    5.3020 O   0  0  0  0  0  0  0  0  0  0  0  0
   28.1510    2.4560    4.1080 N   0  0  0  0  0  0  0  0  0  0  0  0
   27.1700    3.3440    4.0590 C   0  0  0  0  0  0  0  0  0  0  0  0
   25.7860    2.9730    4.2670 C   0  0  0  0  0  0  0  0  0  0  0  0
   27.6010    4.6310    3.7720 C   0  0  0  0  0  0  0  0  0  0  0  0
   26.6480    5.6560    3.6580 C   0  0  0  0  0  0  0  0  0  0  0  0
   25.2680    5.3690    3.9050 C   0  0  1  0  0  0  0  0  0  0  0  0
   24.3520    6.3060    3.7740 C   0  0  0  0  0  0  0  0  0  0  0  0
   23.6050    7.2050    3.5820 N   0  0  0  0  0  0  0  0  0  0  0  0
   24.8490    3.9800    4.1990 C   0  0  0  0  0  0  0  0  0  0  0  0
   23.3690    3.6150    4.4390 C   0  0  1  0  0  0  0  0  0  0  0  0
   23.0530    3.5240    5.6850 F   0  0  0  0  0  0  0  0  0  0  0  0
   22.5100    4.4910    4.0430 F   0  0  0  0  0  0  0  0  0  0  0  0
   23.1150    2.4640    3.9400 F   0  0  0  0  0  0  0  0  0  0  0  0
   27.8336    1.1052    7.9523 H   0  0  0  0  0  0  0  0  0  0  0  0
   28.5264    2.7640    8.4947 H   0  0  0  0  0  0  0  0  0  0  0  0
   27.7960    2.4547   10.3181 H   0  0  0  0  0  0  0  0  0  0  0  0
   27.3076    0.7025    9.8219 H   0  0  0  0  0  0  0  0  0  0  0  0
   29.3441    1.9036   11.1149 H   0  0  0  0  0  0  0  0  0  0  0  0
   30.9383    1.1135   11.1495 H   0  0  0  0  0  0  0  0  0  0  0  0
   30.2654   -0.5564   10.6541 H   0  0  0  0  0  0  0  0  0  0  0  0
   31.5545    1.3416    9.2372 H   0  0  0  0  0  0  0  0  0  0  0  0
   30.7048   -0.3193    8.8382 H   0  0  0  0  0  0  0  0  0  0  0  0
   30.1995    2.2951    8.5101 H   0  0  0  0  0  0  0  0  0  0  0  0
   29.8168    3.2992    6.9672 H   0  0  0  0  0  0  0  0  0  0  0  0
   32.1719    1.3043    7.7734 H   0  0  0  0  0  0  0  0  0  0  0  0
   30.7922   -0.5212    5.6292 H   0  0  0  0  0  0  0  0  0  0  0  0
   29.0994   -0.3070    6.3012 H   0  0  0  0  0  0  0  0  0  0  0  0
   30.8587    1.9526    4.6254 H   0  0  0  0  0  0  0  0  0  0  0  0
   29.0594   -1.5347    4.1210 H   0  0  0  0  0  0  0  0  0  0  0  0
   28.3350   -0.4648    2.8731 H   0  0  0  0  0  0  0  0  0  0  0  0
   30.1043   -0.7747    2.8731 H   0  0  0  0  0  0  0  0  0  0  0  0
   27.7059    0.7845    3.7359 H   0  0  0  0  0  0  0  0  0  0  0  0
   27.3930    0.8812    6.2665 H   0  0  0  0  0  0  0  0  0  0  0  0
   28.9194    2.9379    4.5960 H   0  0  0  0  0  0  0  0  0  0  0  0
   27.0572    3.1599    2.9804 H   0  0  0  0  0  0  0  0  0  0  0  0
   25.5250    2.2256    3.5033 H   0  0  0  0  0  0  0  0  0  0  0  0
   25.7412    2.6126    5.3053 H   0  0  0  0  0  0  0  0  0  0  0  0
   28.2966    4.9244    4.5720 H   0  0  0  0  0  0  0  0  0  0  0  0
   28.0245    4.5492    2.7601 H   0  0  0  0  0  0  0  0  0  0  0  0
   26.9417    6.4454    4.3656 H   0  0  0  0  0  0  0  0  0  0  0  0
   26.6703    5.9100    2.5880 H   0  0  0  0  0  0  0  0  0  0  0  0
   25.3996    5.6454    4.9615 H   0  0  0  0  0  0  0  0  0  0  0  0
   23.5959    5.5691    3.4653 H   0  0  0  0  0  0  0  0  0  0  0  0
   24.7825    6.8465    4.6299 H   0  0  0  0  0  0  0  0  0  0  0  0
   23.2879    7.5866    4.4846 H   0  0  0  0  0  0  0  0  0  0  0  0
   24.0856    7.9425    3.0472 H   0  0  0  0  0  0  0  0  0  0  0  0
   24.9749    4.1698    5.2752 H   0  0  0  0  0  0  0  0  0  0  0  0
  1  2  1  0
  2  3  1  0
  3  4  1  0
  3  5  1  0
  5  6  1  0
  1  7  1  0
  6  7  1  0
  7  8  1  0
  8  9  1  6
  8 10  1  0
  8 11  1  0
 11 12  1  0
 12 13  1  6
 12 14  1  0
 12 15  1  0
 15 16  1  0
 15 17  1  0
 17 18  1  0
 18 19  1  0
 18 20  1  0
 20 21  1  0
 21 22  1  0
 22 23  1  0
 23 24  1  0
 19 25  1  0
 22 25  1  0
 25 26  1  0
 26 27  1  1
 26 28  1  0
 26 29  1  0
  1 30  1  0
  1 31  1  0
  2 32  1  0
  2 33  1  0
  3 34  1  0
  5 35  1  0
  5 36  1  0
  6 37  1  0
  6 38  1  0
  7 39  1  1
  9 40  1  0
 10 41  1  0
 11 42  1  0
 11 43  1  0
 13 44  1  0
 14 45  1  0
 14 46  1  0
 14 47  1  0
 15 48  1  6
 16 49  1  0
 17 50  1  0
 18 51  1  0
 19 52  1  0
 19 53  1  0
 20 54  1  0
 20 55  1  0
 21 56  1  0
 21 57  1  0
 22 58  1  1
 23 59  1  0
 23 60  1  0
 24 61  1  0
 24 62  1  0
 25 63  1  0
M  END
>  <PDBID>  (1) 
4OK1

>  <PDB ID>  (1) 
4OK1

>  <Generic Name>  (1) 
Bicalutamide

>  <Brand Name>  (1) 
Accel-bicalutamide Tablets USP#Ach-bicalutamide#Act Bicalutamide#Ag-bicalutamide#Apo-bicalutamide#Ava-bicalutamide#Bicalutamide#Bicalutamide Tablets#Casodex#Dom-bicalutamide#Jamp-bicalutamide#Med-bicalutamide#Mylan-bicalutamide#Ntp-bicalutamide#Nu-bicalutamide#PHL-bicalutamide#PMS-bicalutamide#Pro-bicalutamide - 50#Ran-bicalutamide#Ratio-bicalutamide#Sandoz Bicalutamide#Teva-bicalutamide#Van-bicalutamide

>  <DrugBank ID>  (1) 
DB01128

>  <ATC Codes>  (1) 
L02BB03

>  <Ligand ID>  (1) 
0U9,198

>  <Target Name>  (1) 
Androgen receptor

>  <UniProt ID>  (1) 
P10275

>  <PDB ID.1>  (1) 
4OK1

>  <Seq. Identity>  (1) 
99%

$$$$
