PDB_DB01051_93
     RDKit          3D

 80 83  0  0  0  0  0  0  0  0999 V2000
  -23.3840   18.3110  -28.3430 C   0  0  0  0  0  0  0  0  0  0  0  0
  -24.2070   17.9690  -27.2170 O   0  0  0  0  0  0  0  0  0  0  0  0
  -20.8620   15.0110  -26.1460 N   0  0  0  0  0  0  0  0  0  0  0  0
  -21.9150   15.4740  -25.4620 C   0  0  0  0  0  0  0  0  0  0  0  0
  -22.5960   14.8300  -24.6930 O   0  0  0  0  0  0  0  0  0  0  0  0
  -22.1190   16.7790  -25.7180 O   0  0  0  0  0  0  0  0  0  0  0  0
  -23.7700   18.5180  -25.9780 C   0  0  2  0  0  0  0  0  0  0  0  0
  -23.2360   17.4220  -25.0670 C   0  0  2  0  0  0  0  0  0  0  0  0
  -22.8710   17.9410  -23.6740 C   0  0  1  0  0  0  0  0  0  0  0  0
  -21.7270   18.7850  -23.6500 O   0  0  0  0  0  0  0  0  0  0  0  0
  -24.0640   18.6200  -23.0130 C   0  0  1  0  0  0  0  0  0  0  0  0
  -24.7450   19.5230  -23.8890 O   0  0  0  0  0  0  0  0  0  0  0  0
  -24.9440   19.2670  -25.3050 C   0  0  0  0  0  0  0  0  0  0  0  0
  -26.2950   18.5720  -25.4340 C   0  0  0  0  0  0  0  0  0  0  0  0
  -24.9990   20.6850  -25.8440 C   0  0  0  0  0  0  0  0  0  0  0  0
  -24.8810   17.5800  -22.5270 O   0  0  0  0  0  0  0  0  0  0  0  0
  -26.0720   17.8260  -21.8750 C   0  0  0  0  0  0  0  0  0  0  0  0
  -26.6940   16.6590  -21.4140 C   0  0  0  0  0  0  0  0  0  0  0  0
  -26.2160   15.3010  -21.8770 C   0  0  0  0  0  0  0  0  0  0  0  0
  -27.7790   16.8050  -20.5490 C   0  0  0  0  0  0  0  0  0  0  0  0
  -28.3050   18.0570  -20.2090 C   0  0  0  0  0  0  0  0  0  0  0  0
  -27.7100   19.1930  -20.7630 C   0  0  0  0  0  0  0  0  0  0  0  0
  -26.5910   19.0880  -21.5750 C   0  0  0  0  0  0  0  0  0  0  0  0
  -28.2500   15.6430  -19.9720 O   0  0  0  0  0  0  0  0  0  0  0  0
  -29.2440   15.6290  -19.0160 C   0  0  0  0  0  0  0  0  0  0  0  0
  -29.5880   14.5350  -18.6360 O   0  0  0  0  0  0  0  0  0  0  0  0
  -29.8260   16.9750  -18.5860 C   0  0  0  0  0  0  0  0  0  0  0  0
  -29.3740   18.1080  -19.2070 C   0  0  0  0  0  0  0  0  0  0  0  0
  -29.8820   19.3100  -18.9690 O   0  0  0  0  0  0  0  0  0  0  0  0
  -30.6950   16.8410  -17.4800 N   0  0  0  0  0  0  0  0  0  0  0  0
  -30.2390   17.1000  -16.2060 C   0  0  0  0  0  0  0  0  0  0  0  0
  -29.0970   17.4980  -15.9880 O   0  0  0  0  0  0  0  0  0  0  0  0
  -31.2130   16.9040  -15.0880 C   0  0  0  0  0  0  0  0  0  0  0  0
  -30.7630   17.1410  -13.7890 C   0  0  0  0  0  0  0  0  0  0  0  0
  -31.6190   17.0440  -12.6910 C   0  0  0  0  0  0  0  0  0  0  0  0
  -32.9540   16.6880  -12.9180 C   0  0  0  0  0  0  0  0  0  0  0  0
  -33.8170   16.6000  -11.8730 O   0  0  0  0  0  0  0  0  0  0  0  0
  -33.4070   16.4360  -14.2130 C   0  0  0  0  0  0  0  0  0  0  0  0
  -32.5420   16.5430  -15.2880 C   0  0  0  0  0  0  0  0  0  0  0  0
  -31.0560   17.3530  -11.3110 C   0  0  0  0  0  0  0  0  0  0  0  0
  -30.9870   16.1560  -10.4020 C   0  0  0  0  0  0  0  0  0  0  0  0
  -29.9070   15.5820   -9.8790 C   0  0  0  0  0  0  0  0  0  0  0  0
  -30.0060   14.3810   -8.9850 C   0  0  0  0  0  0  0  0  0  0  0  0
  -28.5050   16.0690  -10.1180 C   0  0  0  0  0  0  0  0  0  0  0  0
  -22.4229   18.7104  -27.9869 H   0  0  0  0  0  0  0  0  0  0  0  0
  -23.2047   17.4129  -28.9523 H   0  0  0  0  0  0  0  0  0  0  0  0
  -23.8940   19.0717  -28.9523 H   0  0  0  0  0  0  0  0  0  0  0  0
  -20.3432   15.6368  -26.7786 H   0  0  0  0  0  0  0  0  0  0  0  0
  -20.5703   14.0289  -26.0398 H   0  0  0  0  0  0  0  0  0  0  0  0
  -22.9518   19.2290  -26.1651 H   0  0  0  0  0  0  0  0  0  0  0  0
  -24.0327   16.6823  -24.8990 H   0  0  0  0  0  0  0  0  0  0  0  0
  -22.5952   17.0506  -23.0899 H   0  0  0  0  0  0  0  0  0  0  0  0
  -21.4742   18.9715  -22.7112 H   0  0  0  0  0  0  0  0  0  0  0  0
  -23.7425   19.2711  -22.1867 H   0  0  0  0  0  0  0  0  0  0  0  0
  -26.6979   18.3647  -24.4316 H   0  0  0  0  0  0  0  0  0  0  0  0
  -26.9917   19.2236  -25.9817 H   0  0  0  0  0  0  0  0  0  0  0  0
  -26.1700   17.6263  -25.9817 H   0  0  0  0  0  0  0  0  0  0  0  0
  -25.0266   21.3955  -25.0047 H   0  0  0  0  0  0  0  0  0  0  0  0
  -24.1077   20.8783  -26.4590 H   0  0  0  0  0  0  0  0  0  0  0  0
  -25.9026   20.8087  -26.4590 H   0  0  0  0  0  0  0  0  0  0  0  0
  -25.9947   14.6722  -21.0020 H   0  0  0  0  0  0  0  0  0  0  0  0
  -27.0000   14.8233  -22.4829 H   0  0  0  0  0  0  0  0  0  0  0  0
  -25.3056   15.4197  -22.4829 H   0  0  0  0  0  0  0  0  0  0  0  0
  -28.1354   20.1852  -20.5520 H   0  0  0  0  0  0  0  0  0  0  0  0
  -26.1148   19.9928  -21.9805 H   0  0  0  0  0  0  0  0  0  0  0  0
  -30.6074   19.4180  -18.3040 H   0  0  0  0  0  0  0  0  0  0  0  0
  -31.6718   16.5490  -17.6266 H   0  0  0  0  0  0  0  0  0  0  0  0
  -29.7090   17.4106  -13.6264 H   0  0  0  0  0  0  0  0  0  0  0  0
  -34.7614   16.3485  -12.0308 H   0  0  0  0  0  0  0  0  0  0  0  0
  -34.4562   16.1510  -14.3805 H   0  0  0  0  0  0  0  0  0  0  0  0
  -32.9069   16.3416  -16.3060 H   0  0  0  0  0  0  0  0  0  0  0  0
  -30.0394   17.7550  -11.4331 H   0  0  0  0  0  0  0  0  0  0  0  0
  -31.7398   18.0744  -10.8399 H   0  0  0  0  0  0  0  0  0  0  0  0
  -31.9511   15.6978  -10.1365 H   0  0  0  0  0  0  0  0  0  0  0  0
  -29.9794   14.7033   -7.9336 H   0  0  0  0  0  0  0  0  0  0  0  0
  -30.9507   13.8534   -9.1830 H   0  0  0  0  0  0  0  0  0  0  0  0
  -29.1605   13.7058   -9.1830 H   0  0  0  0  0  0  0  0  0  0  0  0
  -28.0073   16.2419   -9.1524 H   0  0  0  0  0  0  0  0  0  0  0  0
  -27.9462   15.3123  -10.6882 H   0  0  0  0  0  0  0  0  0  0  0  0
  -28.5356   17.0092  -10.6882 H   0  0  0  0  0  0  0  0  0  0  0  0
  1  2  1  0
  3  4  1  0
  4  5  2  0
  4  6  1  0
  2  7  1  0
  6  8  1  0
  7  8  1  0
  8  9  1  0
  9 10  1  0
  9 11  1  0
 11 12  1  0
  7 13  1  0
 12 13  1  0
 13 14  1  0
 13 15  1  0
 11 16  1  0
 16 17  1  0
 17 18  2  0
 18 19  1  0
 18 20  1  0
 20 21  2  0
 21 22  1  0
 17 23  1  0
 22 23  2  0
 20 24  1  0
 24 25  1  0
 25 26  2  0
 25 27  1  0
 21 28  1  0
 27 28  2  0
 28 29  1  0
 27 30  1  0
 30 31  1  0
 31 32  2  0
 31 33  1  0
 33 34  2  0
 34 35  1  0
 35 36  2  0
 36 37  1  0
 36 38  1  0
 33 39  1  0
 38 39  2  0
 35 40  1  0
 40 41  1  0
 41 42  2  3
 42 43  1  0
 42 44  1  0
  1 45  1  0
  1 46  1  0
  1 47  1  0
  3 48  1  0
  3 49  1  0
  7 50  1  6
  8 51  1  1
  9 52  1  1
 10 53  1  0
 11 54  1  1
 14 55  1  0
 14 56  1  0
 14 57  1  0
 15 58  1  0
 15 59  1  0
 15 60  1  0
 19 61  1  0
 19 62  1  0
 19 63  1  0
 22 64  1  0
 23 65  1  0
 29 66  1  0
 30 67  1  0
 34 68  1  0
 37 69  1  0
 38 70  1  0
 39 71  1  0
 40 72  1  0
 40 73  1  0
 41 74  1  0
 43 75  1  0
 43 76  1  0
 43 77  1  0
 44 78  1  0
 44 79  1  0
 44 80  1  0
M  END
$$$$
