PDB_DB04729_93
     RDKit          3D

 70 72  0  0  0  0  0  0  0  0999 V2000
    0.8250  146.3430  -60.3290 C   0  0  2  0  0  0  0  0  0  0  0  0
   -0.2720  145.9990  -59.4440 O   0  0  0  0  0  0  0  0  0  0  0  0
    1.0950  147.8630  -60.2910 C   0  0  2  0  0  0  0  0  0  0  0  0
    1.3900  148.2420  -58.9440 N   0  0  0  0  0  0  0  0  0  0  0  0
   -0.1470  148.6510  -60.8760 C   0  0  0  0  0  0  0  0  0  0  0  0
   -0.3900  148.1750  -62.3580 C   0  0  0  0  0  0  0  0  0  0  0  0
   -0.6470  146.5970  -62.3420 C   0  0  2  0  0  0  0  0  0  0  0  0
    0.4640  145.8740  -61.7090 O   0  0  0  0  0  0  0  0  0  0  0  0
   -0.8720  146.0210  -63.7200 C   0  0  0  0  0  0  0  0  0  0  0  0
   -1.2030  144.6240  -63.6590 N   0  0  0  0  0  0  0  0  0  0  0  0
   -1.4970  142.5870  -57.1550 C   0  0  2  0  0  0  0  0  0  0  0  0
   -1.5050  141.2560  -56.6290 N   0  0  0  0  0  0  0  0  0  0  0  0
   -1.6820  142.5250  -58.7140 C   0  0  0  0  0  0  0  0  0  0  0  0
   -1.6680  143.9940  -59.3120 C   0  0  2  0  0  0  0  0  0  0  0  0
   -1.8400  143.9480  -60.7730 N   0  0  0  0  0  0  0  0  0  0  0  0
   -0.3000  144.7160  -58.9260 C   0  0  2  0  0  0  0  0  0  0  0  0
   -0.1310  144.7510  -57.3530 C   0  0  2  0  0  0  0  0  0  0  0  0
    1.0950  145.3910  -57.0050 O   0  0  0  0  0  0  0  0  0  0  0  0
   -0.1580  143.2830  -56.7870 C   0  0  1  0  0  0  0  0  0  0  0  0
   -0.0120  143.3450  -55.3850 O   0  0  0  0  0  0  0  0  0  0  0  0
    0.9030  142.4960  -54.6460 C   0  0  2  0  0  0  0  0  0  0  0  0
    0.2580  142.3150  -53.2450 C   0  0  2  0  0  0  0  0  0  0  0  0
   -1.0180  141.7330  -53.3830 O   0  0  0  0  0  0  0  0  0  0  0  0
    0.2070  143.7280  -52.5130 C   0  0  1  0  0  0  0  0  0  0  0  0
   -0.4130  143.6170  -51.1530 N   0  0  0  0  0  0  0  0  0  0  0  0
    1.7060  144.3500  -52.3840 C   0  0  1  0  0  0  0  0  0  0  0  0
    2.5370  143.5420  -51.5800 O   0  0  0  0  0  0  0  0  0  0  0  0
    2.3550  144.4620  -53.8000 C   0  0  0  0  0  0  0  0  0  0  0  0
    2.2680  143.1330  -54.5200 O   0  0  0  0  0  0  0  0  0  0  0  0
    1.8140  145.7060  -51.7040 C   0  0  0  0  0  0  0  0  0  0  0  0
   -1.7910  144.1110  -51.0050 C   0  0  0  0  0  0  0  0  0  0  0  0
    1.7547  145.8510  -60.0072 H   0  0  0  0  0  0  0  0  0  0  0  0
    1.9605  148.1175  -60.9204 H   0  0  0  0  0  0  0  0  0  0  0  0
    0.8990  147.6112  -58.2945 H   0  0  0  0  0  0  0  0  0  0  0  0
    2.4054  148.1773  -58.7837 H   0  0  0  0  0  0  0  0  0  0  0  0
   -1.0393  148.4408  -60.2680 H   0  0  0  0  0  0  0  0  0  0  0  0
    0.0504  149.7330  -60.8559 H   0  0  0  0  0  0  0  0  0  0  0  0
   -1.2675  148.6907  -62.7753 H   0  0  0  0  0  0  0  0  0  0  0  0
    0.4860  148.4103  -62.9804 H   0  0  0  0  0  0  0  0  0  0  0  0
   -1.5665  146.4613  -61.7537 H   0  0  0  0  0  0  0  0  0  0  0  0
   -1.6979  146.5633  -64.2036 H   0  0  0  0  0  0  0  0  0  0  0  0
    0.0587  146.1304  -64.2961 H   0  0  0  0  0  0  0  0  0  0  0  0
   -1.2726  144.3303  -62.6742 H   0  0  0  0  0  0  0  0  0  0  0  0
   -2.1052  144.4641  -64.1295 H   0  0  0  0  0  0  0  0  0  0  0  0
   -2.3229  143.1699  -56.7214 H   0  0  0  0  0  0  0  0  0  0  0  0
   -1.5048  141.2936  -55.5997 H   0  0  0  0  0  0  0  0  0  0  0  0
   -2.3490  140.7633  -56.9544 H   0  0  0  0  0  0  0  0  0  0  0  0
   -0.8611  141.9419  -59.1569 H   0  0  0  0  0  0  0  0  0  0  0  0
   -2.6437  142.0451  -58.9483 H   0  0  0  0  0  0  0  0  0  0  0  0
   -2.5032  144.5694  -58.8861 H   0  0  0  0  0  0  0  0  0  0  0  0
   -2.8114  143.6882  -60.9963 H   0  0  0  0  0  0  0  0  0  0  0  0
   -1.6318  144.8742  -61.1726 H   0  0  0  0  0  0  0  0  0  0  0  0
    0.5369  144.1478  -59.3583 H   0  0  0  0  0  0  0  0  0  0  0  0
   -0.9614  145.3224  -56.9125 H   0  0  0  0  0  0  0  0  0  0  0  0
    1.1768  145.4337  -56.0193 H   0  0  0  0  0  0  0  0  0  0  0  0
    0.6629  142.6975  -57.2266 H   0  0  0  0  0  0  0  0  0  0  0  0
    1.0574  141.5356  -55.1596 H   0  0  0  0  0  0  0  0  0  0  0  0
    0.8588  141.6349  -52.6233 H   0  0  0  0  0  0  0  0  0  0  0  0
   -1.4000  141.5588  -52.4864 H   0  0  0  0  0  0  0  0  0  0  0  0
   -0.4167  144.3984  -53.1226 H   0  0  0  0  0  0  0  0  0  0  0  0
   -0.4100  142.6210  -50.8905 H   0  0  0  0  0  0  0  0  0  0  0  0
    2.3500  143.7238  -50.6250 H   0  0  0  0  0  0  0  0  0  0  0  0
    1.8233  145.2275  -54.3842 H   0  0  0  0  0  0  0  0  0  0  0  0
    3.4129  144.7425  -53.6895 H   0  0  0  0  0  0  0  0  0  0  0  0
    1.8032  145.5707  -50.6124 H   0  0  0  0  0  0  0  0  0  0  0  0
    2.7538  146.1928  -52.0039 H   0  0  0  0  0  0  0  0  0  0  0  0
    0.9631  146.3354  -52.0039 H   0  0  0  0  0  0  0  0  0  0  0  0
   -2.0362  144.1989  -49.9363 H   0  0  0  0  0  0  0  0  0  0  0  0
   -1.8804  145.0972  -51.4840 H   0  0  0  0  0  0  0  0  0  0  0  0
   -2.4866  143.4063  -51.4840 H   0  0  0  0  0  0  0  0  0  0  0  0
  2  1  1  0
  3  1  1  0
  4  3  1  0
  5  3  1  0
  6  5  1  0
  7  6  1  0
  8  7  1  0
  8  1  1  0
  9  7  1  0
 10  9  1  0
 12 11  1  0
 13 11  1  0
 14 13  1  0
 15 14  1  0
 16 14  1  0
 16  2  1  0
 17 16  1  0
 18 17  1  0
 19 17  1  0
 19 11  1  0
 20 19  1  0
 21 20  1  0
 22 21  1  0
 23 22  1  0
 24 22  1  0
 25 24  1  0
 26 24  1  0
 26 27  1  1
 28 26  1  0
 29 21  1  0
 29 28  1  0
 30 26  1  0
 31 25  1  0
  1 32  1  1
  3 33  1  6
  4 34  1  0
  4 35  1  0
  5 36  1  0
  5 37  1  0
  6 38  1  0
  6 39  1  0
  7 40  1  1
  9 41  1  0
  9 42  1  0
 10 43  1  0
 10 44  1  0
 11 45  1  1
 12 46  1  0
 12 47  1  0
 13 48  1  0
 13 49  1  0
 14 50  1  1
 15 51  1  0
 15 52  1  0
 16 53  1  6
 17 54  1  1
 18 55  1  0
 19 56  1  6
 21 57  1  6
 22 58  1  1
 23 59  1  0
 24 60  1  6
 25 61  1  0
 27 62  1  0
 28 63  1  0
 28 64  1  0
 30 65  1  0
 30 66  1  0
 30 67  1  0
 31 68  1  0
 31 69  1  0
 31 70  1  0
M  END
$$$$
