PDB_DB00452_93
     RDKit          3D

 88 91  0  0  0  0  0  0  0  0999 V2000
  -31.6770  105.7680   94.1210 C   0  0  2  0  0  0  0  0  0  0  0  0
  -30.4140  105.3160   94.5490 O   0  0  0  0  0  0  0  0  0  0  0  0
  -31.6140  105.6750   92.5880 C   0  0  2  0  0  0  0  0  0  0  0  0
  -31.0400  104.4000   92.2570 N   0  0  0  0  0  0  0  0  0  0  0  0
  -30.8220  106.7200   91.9310 C   0  0  1  0  0  0  0  0  0  0  0  0
  -31.7000  107.3050   91.0010 O   0  0  0  0  0  0  0  0  0  0  0  0
  -30.3140  107.7180   92.8200 C   0  0  2  0  0  0  0  0  0  0  0  0
  -29.1560  107.2300   93.4530 O   0  0  0  0  0  0  0  0  0  0  0  0
  -31.2210  108.1460   93.9340 C   0  0  2  0  0  0  0  0  0  0  0  0
  -31.9920  107.0410   94.5860 O   0  0  0  0  0  0  0  0  0  0  0  0
  -32.1970  109.2040   93.5410 C   0  0  0  0  0  0  0  0  0  0  0  0
  -28.7790  104.7740   98.4050 C   0  0  1  0  0  0  0  0  0  0  0  0
  -28.6780  104.7390   99.8430 N   0  0  0  0  0  0  0  0  0  0  0  0
  -29.6960  103.7090   97.8560 C   0  0  1  0  0  0  0  0  0  0  0  0
  -29.9540  103.8050   96.3490 C   0  0  1  0  0  0  0  0  0  0  0  0
  -30.9130  102.8370   95.9920 O   0  0  0  0  0  0  0  0  0  0  0  0
  -30.3520  105.1870   95.9560 C   0  0  1  0  0  0  0  0  0  0  0  0
  -29.3250  106.1840   96.4700 C   0  0  1  0  0  0  0  0  0  0  0  0
  -29.7240  107.4860   96.0830 N   0  0  0  0  0  0  0  0  0  0  0  0
  -29.1240  106.1600   97.9880 C   0  0  0  0  0  0  0  0  0  0  0  0
  -30.3280  101.6550   95.4520 C   0  0  1  0  0  0  0  0  0  0  0  0
  -31.0670  100.4470   95.8860 C   0  0  1  0  0  0  0  0  0  0  0  0
  -32.0480  100.3210   94.8510 C   0  0  1  0  0  0  0  0  0  0  0  0
  -31.4480  100.8940   93.6270 C   0  0  2  0  0  0  0  0  0  0  0  0
  -30.3270  101.6300   94.0070 O   0  0  0  0  0  0  0  0  0  0  0  0
  -32.4160  101.8130   92.9240 C   0  0  0  0  0  0  0  0  0  0  0  0
  -35.9650   97.7340   95.9110 C   0  0  1  0  0  0  0  0  0  0  0  0
  -35.9360   99.2070   95.8910 C   0  0  1  0  0  0  0  0  0  0  0  0
  -34.6890   99.7660   95.5570 C   0  0  2  0  0  0  0  0  0  0  0  0
  -33.9170   99.1260   94.4260 C   0  0  1  0  0  0  0  0  0  0  0  0
  -32.5300   98.9910   94.7070 O   0  0  0  0  0  0  0  0  0  0  0  0
  -35.0810   97.0210   94.8910 C   0  0  1  0  0  0  0  0  0  0  0  0
  -34.5120   97.8470   93.9360 O   0  0  0  0  0  0  0  0  0  0  0  0
  -33.9340   96.2420   95.5150 C   0  0  0  0  0  0  0  0  0  0  0  0
  -33.5460  109.0630   94.0820 N   0  0  0  0  0  0  0  0  0  0  0  0
  -30.1220   99.4520   95.9810 O   0  0  0  0  0  0  0  0  0  0  0  0
  -36.8540   99.6270   94.8900 O   0  0  0  0  0  0  0  0  0  0  0  0
  -35.6710   97.3040   97.2210 O   0  0  0  0  0  0  0  0  0  0  0  0
  -33.3130  102.4830   93.7110 O   0  0  0  0  0  0  0  0  0  0  0  0
  -29.2420  102.4770   98.1660 O   0  0  0  0  0  0  0  0  0  0  0  0
  -32.9210   96.9280   96.2910 N   0  0  0  0  0  0  0  0  0  0  0  0
  -33.9240   99.6470   96.7980 N   0  0  0  0  0  0  0  0  0  0  0  0
  -32.4931  105.1562   94.5329 H   0  0  0  0  0  0  0  0  0  0  0  0
  -32.6432  105.8059   92.2226 H   0  0  0  0  0  0  0  0  0  0  0  0
  -30.8110  103.8914   93.1229 H   0  0  0  0  0  0  0  0  0  0  0  0
  -31.7156  103.8521   91.7054 H   0  0  0  0  0  0  0  0  0  0  0  0
  -29.9242  106.2745   91.4777 H   0  0  0  0  0  0  0  0  0  0  0  0
  -32.4196  107.7845   91.4830 H   0  0  0  0  0  0  0  0  0  0  0  0
  -30.1566  108.5879   92.1654 H   0  0  0  0  0  0  0  0  0  0  0  0
  -29.2714  107.2786   94.4351 H   0  0  0  0  0  0  0  0  0  0  0  0
  -30.5013  108.5475   94.6625 H   0  0  0  0  0  0  0  0  0  0  0  0
  -31.7983  110.1720   93.8788 H   0  0  0  0  0  0  0  0  0  0  0  0
  -32.3045  109.1178   92.4497 H   0  0  0  0  0  0  0  0  0  0  0  0
  -27.8064  104.5195   97.9587 H   0  0  0  0  0  0  0  0  0  0  0  0
  -29.5690  105.0478  100.2574 H   0  0  0  0  0  0  0  0  0  0  0  0
  -28.4718  103.7775  100.1494 H   0  0  0  0  0  0  0  0  0  0  0  0
  -30.6654  103.8898   98.3434 H   0  0  0  0  0  0  0  0  0  0  0  0
  -29.0277  103.5945   95.7943 H   0  0  0  0  0  0  0  0  0  0  0  0
  -31.3431  105.3858   96.3899 H   0  0  0  0  0  0  0  0  0  0  0  0
  -28.3610  105.8940   96.0266 H   0  0  0  0  0  0  0  0  0  0  0  0
  -29.8985  108.0556   96.9233 H   0  0  0  0  0  0  0  0  0  0  0  0
  -28.9778  107.9213   95.5221 H   0  0  0  0  0  0  0  0  0  0  0  0
  -28.3069  106.8430   98.2634 H   0  0  0  0  0  0  0  0  0  0  0  0
  -30.0469  106.4827   98.4920 H   0  0  0  0  0  0  0  0  0  0  0  0
  -29.2933  101.6590   95.8254 H   0  0  0  0  0  0  0  0  0  0  0  0
  -31.5812  100.4427   96.8584 H   0  0  0  0  0  0  0  0  0  0  0  0
  -32.9618  100.8797   95.1014 H   0  0  0  0  0  0  0  0  0  0  0  0
  -31.1836  100.0789   92.9373 H   0  0  0  0  0  0  0  0  0  0  0  0
  -31.8256  102.5641   92.3788 H   0  0  0  0  0  0  0  0  0  0  0  0
  -33.0264  101.1556   92.2874 H   0  0  0  0  0  0  0  0  0  0  0  0
  -36.9805   97.4477   95.5997 H   0  0  0  0  0  0  0  0  0  0  0  0
  -36.1786   99.5439   96.9096 H   0  0  0  0  0  0  0  0  0  0  0  0
  -34.8553  100.7844   95.1759 H   0  0  0  0  0  0  0  0  0  0  0  0
  -34.0067   99.8383   93.5926 H   0  0  0  0  0  0  0  0  0  0  0  0
  -35.8024   96.3426   94.4122 H   0  0  0  0  0  0  0  0  0  0  0  0
  -34.3865   95.4911   96.1794 H   0  0  0  0  0  0  0  0  0  0  0  0
  -33.3746   95.8784   94.6405 H   0  0  0  0  0  0  0  0  0  0  0  0
  -33.5053  109.0672   95.1112 H   0  0  0  0  0  0  0  0  0  0  0  0
  -34.1295  109.8476   93.7582 H   0  0  0  0  0  0  0  0  0  0  0  0
  -29.9397   99.2600   96.9349 H   0  0  0  0  0  0  0  0  0  0  0  0
  -37.6647   99.9979   95.3204 H   0  0  0  0  0  0  0  0  0  0  0  0
  -36.0917   97.9193   97.8725 H   0  0  0  0  0  0  0  0  0  0  0  0
  -33.0993  102.3233   94.6644 H   0  0  0  0  0  0  0  0  0  0  0  0
  -29.2051  102.3769   99.1502 H   0  0  0  0  0  0  0  0  0  0  0  0
  -33.1116   96.7989   97.2949 H   0  0  0  0  0  0  0  0  0  0  0  0
  -31.9940   96.5401   96.0649 H   0  0  0  0  0  0  0  0  0  0  0  0
  -34.5586   99.7457   97.6033 H   0  0  0  0  0  0  0  0  0  0  0  0
  -33.4666   98.7248   96.8323 H   0  0  0  0  0  0  0  0  0  0  0  0
  2  1  1  0
  3  1  1  0
  4  3  1  0
  5  3  1  0
  6  5  1  0
  7  5  1  0
  8  7  1  0
  9  7  1  0
 10  9  1  0
 10  1  1  0
 11  9  1  0
 13 12  1  0
 14 12  1  0
 15 14  1  0
 16 15  1  0
 17 15  1  0
 17  2  1  0
 18 17  1  0
 19 18  1  0
 20 18  1  0
 20 12  1  0
 21 16  1  0
 22 21  1  0
 23 22  1  0
 24 23  1  0
 25 24  1  0
 25 21  1  0
 26 24  1  0
 28 27  1  0
 29 28  1  0
 30 29  1  0
 31 30  1  0
 31 23  1  0
 32 27  1  0
 33 32  1  0
 33 30  1  0
 34 32  1  0
 35 11  1  0
 36 22  1  0
 37 28  1  0
 38 27  1  0
 39 26  1  0
 40 14  1  0
 41 34  1  0
 42 29  1  0
  1 43  1  1
  3 44  1  6
  4 45  1  0
  4 46  1  0
  5 47  1  6
  6 48  1  0
  7 49  1  6
  8 50  1  0
  9 51  1  1
 11 52  1  0
 11 53  1  0
 12 54  1  6
 13 55  1  0
 13 56  1  0
 14 57  1  1
 15 58  1  6
 17 59  1  1
 18 60  1  6
 19 61  1  0
 19 62  1  0
 20 63  1  0
 20 64  1  0
 21 65  1  1
 22 66  1  1
 23 67  1  1
 24 68  1  6
 26 69  1  0
 26 70  1  0
 27 71  1  6
 28 72  1  1
 29 73  1  6
 30 74  1  6
 32 75  1  6
 34 76  1  0
 34 77  1  0
 35 78  1  0
 35 79  1  0
 36 80  1  0
 37 81  1  0
 38 82  1  0
 39 83  1  0
 40 84  1  0
 41 85  1  0
 41 86  1  0
 42 87  1  0
 42 88  1  0
M  END
$$$$
