PDB_DB00570_97
     RDKit          3D

139147  0  0  0  0  0  0  0  0999 V2000
   94.5350   70.5200   -8.1990 C   0  0  0  0  0  0  0  0  0  0  0  0
   93.1840   70.0640   -7.6620 C   0  0  0  0  0  0  0  0  0  0  0  0
   92.1860   69.7000   -8.7540 C   0  0  1  0  0  0  0  0  0  0  0  0
   92.6970   68.5560   -9.4190 O   0  0  0  0  0  0  0  0  0  0  0  0
   90.8100   69.4440   -8.0870 C   0  0  0  0  0  0  0  0  0  0  0  0
   92.0490   70.8100   -9.7860 C   0  0  0  0  0  0  0  0  0  0  0  0
   90.9130   70.5330  -10.7560 C   0  0  1  0  0  0  0  0  0  0  0  0
   91.3910   69.5210  -11.8120 C   0  0  0  0  0  0  0  0  0  0  0  0
   89.6380   70.1930   -9.9770 C   0  0  0  0  0  0  0  0  0  0  0  0
   89.8180   69.0450   -9.0890 N   0  0  0  0  0  0  0  0  0  0  0  0
   90.3390   67.7600   -9.5970 C   0  0  0  0  0  0  0  0  0  0  0  0
   89.5650   66.9590  -10.6220 C   0  0  0  0  0  0  0  0  0  0  0  0
   88.9490   67.4680  -11.9110 C   0  0  0  0  0  0  0  0  0  0  0  0
   87.7400   66.9300  -12.2820 C   0  0  0  0  0  0  0  0  0  0  0  0
   86.9450   65.9690  -11.6740 C   0  0  0  0  0  0  0  0  0  0  0  0
   85.7470   65.6060  -12.2610 C   0  0  0  0  0  0  0  0  0  0  0  0
   85.3750   66.2020  -13.4560 C   0  0  0  0  0  0  0  0  0  0  0  0
   86.1730   67.1660  -14.0630 C   0  0  0  0  0  0  0  0  0  0  0  0
   87.3580   67.5250  -13.4650 C   0  0  0  0  0  0  0  0  0  0  0  0
   88.2900   68.3810  -13.8120 N   0  0  0  0  0  0  0  0  0  0  0  0
   89.2730   68.4100  -12.9000 C   0  0  0  0  0  0  0  0  0  0  0  0
   90.5010   69.3110  -13.0470 C   0  0  2  0  0  0  0  0  0  0  0  0
   91.1890   68.5510  -14.1680 C   0  0  0  0  0  0  0  0  0  0  0  0
   90.7070   68.5840  -15.3070 O   0  0  0  0  0  0  0  0  0  0  0  0
   92.3020   67.8130  -13.8930 O   0  0  0  0  0  0  0  0  0  0  0  0
   92.6980   67.0670  -15.0610 C   0  0  0  0  0  0  0  0  0  0  0  0
   90.1510   70.7410  -13.5700 C   0  0  0  0  0  0  0  0  0  0  0  0
   88.9500   71.3230  -13.1830 C   0  0  0  0  0  0  0  0  0  0  0  0
   88.5970   72.5930  -13.6000 C   0  0  0  0  0  0  0  0  0  0  0  0
   87.3710   73.4280  -13.3440 C   0  0  1  0  0  0  0  0  0  0  0  0
   86.2230   72.7720  -14.1220 C   0  0  1  0  0  0  0  0  0  0  0  0
   86.9340   73.3870  -11.8720 C   0  0  0  0  0  0  0  0  0  0  0  0
   85.5570   72.7280  -11.9390 C   0  0  0  0  0  0  0  0  0  0  0  0
   85.0830   73.0920  -13.2740 N   0  0  0  0  0  0  0  0  0  0  0  0
   83.9930   72.2450  -13.7050 C   0  0  0  0  0  0  0  0  0  0  0  0
   83.6550   72.7240  -14.9520 C   0  0  0  0  0  0  0  0  0  0  0  0
   84.6200   73.2310  -15.8250 C   0  0  0  0  0  0  0  0  0  0  0  0
   85.9840   73.3050  -15.5440 C   0  0  2  0  0  0  0  0  0  0  0  0
   86.7500   72.4580  -16.5530 C   0  0  0  0  0  0  0  0  0  0  0  0
   85.9230   71.2710  -17.0190 C   0  0  0  0  0  0  0  0  0  0  0  0
   86.4780   74.7560  -15.7740 C   0  0  1  0  0  0  0  0  0  0  0  0
   85.5910   75.4470  -16.5940 O   0  0  0  0  0  0  0  0  0  0  0  0
   86.1840   75.3800  -17.8010 C   0  0  0  0  0  0  0  0  0  0  0  0
   85.4010   75.3820  -18.9540 C   0  0  0  0  0  0  0  0  0  0  0  0
   87.4120   75.3000  -17.8460 O   0  0  0  0  0  0  0  0  0  0  0  0
   86.6910   75.5940  -14.5270 C   0  0  1  0  0  0  0  0  0  0  0  0
   87.0350   77.1300  -14.7670 C   0  0  0  0  0  0  0  0  0  0  0  0
   87.3290   77.8760  -13.8170 O   0  0  0  0  0  0  0  0  0  0  0  0
   87.0090   77.7070  -16.0210 O   0  0  0  0  0  0  0  0  0  0  0  0
   87.6480   79.0230  -16.0920 C   0  0  0  0  0  0  0  0  0  0  0  0
   85.4790   75.5310  -13.7800 O   0  0  0  0  0  0  0  0  0  0  0  0
   87.8090   74.8150  -13.7930 C   0  0  2  0  0  0  0  0  0  0  0  0
   88.9190   74.5030  -14.7200 N   0  0  0  0  0  0  0  0  0  0  0  0
   89.9960   75.4440  -14.4170 C   0  0  0  0  0  0  0  0  0  0  0  0
   89.4370   73.3120  -14.4300 C   0  0  0  0  0  0  0  0  0  0  0  0
   90.6400   72.7490  -14.8210 C   0  0  0  0  0  0  0  0  0  0  0  0
   91.0040   71.4830  -14.3980 C   0  0  0  0  0  0  0  0  0  0  0  0
   92.1900   70.9810  -14.8110 O   0  0  0  0  0  0  0  0  0  0  0  0
   92.7970   71.7550  -15.8420 C   0  0  0  0  0  0  0  0  0  0  0  0
   95.2064   70.7466   -7.3577 H   0  0  0  0  0  0  0  0  0  0  0  0
   94.9742   69.7203   -8.8135 H   0  0  0  0  0  0  0  0  0  0  0  0
   94.3997   71.4223   -8.8135 H   0  0  0  0  0  0  0  0  0  0  0  0
   93.3425   69.1800   -7.0268 H   0  0  0  0  0  0  0  0  0  0  0  0
   92.7567   70.9094   -7.1027 H   0  0  0  0  0  0  0  0  0  0  0  0
   92.9943   67.8903   -8.7493 H   0  0  0  0  0  0  0  0  0  0  0  0
   90.9133   68.6421   -7.3411 H   0  0  0  0  0  0  0  0  0  0  0  0
   90.4720   70.3722   -7.6031 H   0  0  0  0  0  0  0  0  0  0  0  0
   91.8512   71.7589   -9.2659 H   0  0  0  0  0  0  0  0  0  0  0  0
   92.9861   70.8649  -10.3594 H   0  0  0  0  0  0  0  0  0  0  0  0
   90.6254   71.4189  -11.3412 H   0  0  0  0  0  0  0  0  0  0  0  0
   92.3757   69.8573  -12.1688 H   0  0  0  0  0  0  0  0  0  0  0  0
   91.3847   68.5508  -11.2936 H   0  0  0  0  0  0  0  0  0  0  0  0
   89.3498   71.0657   -9.3725 H   0  0  0  0  0  0  0  0  0  0  0  0
   88.8573   69.9337  -10.7072 H   0  0  0  0  0  0  0  0  0  0  0  0
   91.3211   67.9746  -10.0435 H   0  0  0  0  0  0  0  0  0  0  0  0
   90.3044   67.1145   -8.7070 H   0  0  0  0  0  0  0  0  0  0  0  0
   90.2539   66.1605  -10.9347 H   0  0  0  0  0  0  0  0  0  0  0  0
   88.6440   66.7841  -10.0465 H   0  0  0  0  0  0  0  0  0  0  0  0
   89.4720   66.6797  -12.4722 H   0  0  0  0  0  0  0  0  0  0  0  0
   88.2630   66.1420  -12.8437 H   0  0  0  0  0  0  0  0  0  0  0  0
   87.5521   65.0552  -11.5943 H   0  0  0  0  0  0  0  0  0  0  0  0
   86.6370   66.4465  -10.7321 H   0  0  0  0  0  0  0  0  0  0  0  0
   85.7926   64.5220  -12.4422 H   0  0  0  0  0  0  0  0  0  0  0  0
   84.9873   65.9540  -11.5456 H   0  0  0  0  0  0  0  0  0  0  0  0
   85.2601   65.3881  -14.1870 H   0  0  0  0  0  0  0  0  0  0  0  0
   84.4836   66.7782  -13.1673 H   0  0  0  0  0  0  0  0  0  0  0  0
   86.4194   66.7937  -15.0683 H   0  0  0  0  0  0  0  0  0  0  0  0
   85.5648   68.0811  -14.0124 H   0  0  0  0  0  0  0  0  0  0  0  0
   87.8809   66.7388  -14.0293 H   0  0  0  0  0  0  0  0  0  0  0  0
   88.6823   68.1024  -14.7227 H   0  0  0  0  0  0  0  0  0  0  0  0
   89.8159   67.6347  -13.4605 H   0  0  0  0  0  0  0  0  0  0  0  0
   90.5831   67.6623  -13.9374 H   0  0  0  0  0  0  0  0  0  0  0  0
   89.7212   68.6515  -15.2463 H   0  0  0  0  0  0  0  0  0  0  0  0
   93.1928   66.1349  -14.7504 H   0  0  0  0  0  0  0  0  0  0  0  0
   91.8084   66.8273  -15.6620 H   0  0  0  0  0  0  0  0  0  0  0  0
   93.3950   67.6695  -15.6620 H   0  0  0  0  0  0  0  0  0  0  0  0
   89.6544   70.2989  -14.4463 H   0  0  0  0  0  0  0  0  0  0  0  0
   88.1524   70.6493  -13.5295 H   0  0  0  0  0  0  0  0  0  0  0  0
   89.0904   71.4592  -12.1005 H   0  0  0  0  0  0  0  0  0  0  0  0
   88.1198   72.1666  -14.4947 H   0  0  0  0  0  0  0  0  0  0  0  0
   86.4267   71.7055  -14.2984 H   0  0  0  0  0  0  0  0  0  0  0  0
   87.6309   72.7858  -11.2696 H   0  0  0  0  0  0  0  0  0  0  0  0
   86.9164   74.3794  -11.3978 H   0  0  0  0  0  0  0  0  0  0  0  0
   85.6355   71.6361  -11.8314 H   0  0  0  0  0  0  0  0  0  0  0  0
   84.8807   73.0539  -11.1350 H   0  0  0  0  0  0  0  0  0  0  0  0
   84.3171   71.1956  -13.7665 H   0  0  0  0  0  0  0  0  0  0  0  0
   83.1448   72.2668  -13.0049 H   0  0  0  0  0  0  0  0  0  0  0  0
   83.1638   71.8938  -15.4807 H   0  0  0  0  0  0  0  0  0  0  0  0
   83.0625   73.6184  -14.7091 H   0  0  0  0  0  0  0  0  0  0  0  0
   84.5397   72.6232  -16.7383 H   0  0  0  0  0  0  0  0  0  0  0  0
   84.3550   74.2986  -15.8205 H   0  0  0  0  0  0  0  0  0  0  0  0
   87.0050   73.0807  -17.4232 H   0  0  0  0  0  0  0  0  0  0  0  0
   87.6602   72.0773  -16.0666 H   0  0  0  0  0  0  0  0  0  0  0  0
   85.5417   70.7237  -16.1443 H   0  0  0  0  0  0  0  0  0  0  0  0
   85.0774   71.6285  -17.6250 H   0  0  0  0  0  0  0  0  0  0  0  0
   86.5513   70.6017  -17.6250 H   0  0  0  0  0  0  0  0  0  0  0  0
   87.4670   74.6195  -16.2358 H   0  0  0  0  0  0  0  0  0  0  0  0
   86.1303   74.2819  -17.7664 H   0  0  0  0  0  0  0  0  0  0  0  0
   84.3371   75.3847  -18.6747 H   0  0  0  0  0  0  0  0  0  0  0  0
   85.6263   76.2796  -19.5487 H   0  0  0  0  0  0  0  0  0  0  0  0
   85.6217   74.4833  -19.5487 H   0  0  0  0  0  0  0  0  0  0  0  0
   87.7751   75.2763  -16.9253 H   0  0  0  0  0  0  0  0  0  0  0  0
   85.9731   77.3876  -14.6406 H   0  0  0  0  0  0  0  0  0  0  0  0
   87.1455   77.4104  -12.9628 H   0  0  0  0  0  0  0  0  0  0  0  0
   87.8299   79.3977  -15.0739 H   0  0  0  0  0  0  0  0  0  0  0  0
   88.6049   78.9375  -16.6277 H   0  0  0  0  0  0  0  0  0  0  0  0
   86.9891   79.7221  -16.6277 H   0  0  0  0  0  0  0  0  0  0  0  0
   85.6869   75.5418  -12.8121 H   0  0  0  0  0  0  0  0  0  0  0  0
   88.0815   75.4640  -12.9477 H   0  0  0  0  0  0  0  0  0  0  0  0
   90.1043   75.5386  -13.3264 H   0  0  0  0  0  0  0  0  0  0  0  0
   90.9380   75.0744  -14.8483 H   0  0  0  0  0  0  0  0  0  0  0  0
   89.7561   76.4271  -14.8483 H   0  0  0  0  0  0  0  0  0  0  0  0
   88.9372   72.8804  -15.3097 H   0  0  0  0  0  0  0  0  0  0  0  0
   90.6295   72.7206  -15.9206 H   0  0  0  0  0  0  0  0  0  0  0  0
   91.3814   73.3928  -14.3252 H   0  0  0  0  0  0  0  0  0  0  0  0
   90.5213   71.0477  -15.2854 H   0  0  0  0  0  0  0  0  0  0  0  0
   93.4162   72.5446  -15.3914 H   0  0  0  0  0  0  0  0  0  0  0  0
   93.4284   71.1047  -16.4652 H   0  0  0  0  0  0  0  0  0  0  0  0
   92.0149   72.2132  -16.4652 H   0  0  0  0  0  0  0  0  0  0  0  0
  1  2  1  0
  2  3  1  0
  3  4  1  6
  3  5  1  0
  3  6  1  0
  6  7  1  0
  7  8  1  0
  7  9  1  0
  5 10  1  0
  9 10  1  0
 10 11  1  0
 11 12  1  0
 12 13  1  0
 13 14  1  0
 14 15  1  0
 15 16  1  0
 16 17  1  0
 17 18  1  0
 14 19  1  0
 18 19  1  0
 19 20  1  0
 13 21  1  0
 20 21  1  0
  8 22  1  0
 21 22  1  0
 22 23  1  6
 23 24  1  0
 23 25  1  0
 25 26  1  0
 22 27  1  0
 27 28  1  0
 28 29  1  0
 29 30  1  0
 30 31  1  0
 30 32  1  1
 32 33  1  0
 31 34  1  0
 33 34  1  0
 34 35  1  0
 35 36  1  0
 36 37  1  0
 31 38  1  0
 37 38  1  0
 38 39  1  6
 39 40  1  0
 38 41  1  0
 41 42  1  0
 42 43  1  0
 43 44  1  0
 43 45  1  0
 41 46  1  0
 46 47  1  0
 47 48  1  0
 47 49  1  0
 49 50  1  0
 46 51  1  1
 30 52  1  0
 46 52  1  0
 52 53  1  0
 53 54  1  0
 29 55  1  0
 53 55  1  0
 55 56  1  0
 27 57  1  0
 56 57  1  0
 57 58  1  0
 58 59  1  0
  1 60  1  0
  1 61  1  0
  1 62  1  0
  2 63  1  0
  2 64  1  0
  4 65  1  0
  5 66  1  0
  5 67  1  0
  6 68  1  0
  6 69  1  0
  7 70  1  6
  8 71  1  0
  8 72  1  0
  9 73  1  0
  9 74  1  0
 11 75  1  0
 11 76  1  0
 12 77  1  0
 12 78  1  0
 13 79  1  0
 14 80  1  0
 15 81  1  0
 15 82  1  0
 16 83  1  0
 16 84  1  0
 17 85  1  0
 17 86  1  0
 18 87  1  0
 18 88  1  0
 19 89  1  0
 20 90  1  0
 21 91  1  0
 23 92  1  0
 24 93  1  0
 26 94  1  0
 26 95  1  0
 26 96  1  0
 27 97  1  0
 28 98  1  0
 28 99  1  0
 29100  1  0
 31101  1  6
 32102  1  0
 32103  1  0
 33104  1  0
 33105  1  0
 35106  1  0
 35107  1  0
 36108  1  0
 36109  1  0
 37110  1  0
 37111  1  0
 39112  1  0
 39113  1  0
 40114  1  0
 40115  1  0
 40116  1  0
 41117  1  6
 43118  1  0
 44119  1  0
 44120  1  0
 44121  1  0
 45122  1  0
 47123  1  0
 48124  1  0
 50125  1  0
 50126  1  0
 50127  1  0
 51128  1  0
 52129  1  1
 54130  1  0
 54131  1  0
 54132  1  0
 55133  1  0
 56134  1  0
 56135  1  0
 57136  1  0
 59137  1  0
 59138  1  0
 59139  1  0
M  END
>  <PDBID>  (1) 
1Z2B

>  <PDB ID>  (1) 
1Z2B

>  <Generic Name>  (1) 
Vinblastine

>  <Brand Name>  (1) 
Velbe 1mg/ml#Vinblastine Sulfate#Vinblastine Sulfate Inj 1mg/ml#Vinblastine Sulfate Injection#Vinblastine Sulphate Injection#Blastivin#Cytoblastin#Lemblastine#Oncostin#Velban#Velbastin#Velbe#Vinblasin#Vinblastin#Vinko#Weibaoding#Xintoprost

>  <DrugBank ID>  (1) 
DB00570

>  <ATC Codes>  (1) 
L01CA01

>  <Ligand ID>  (1) 
VLB

>  <Target Name>  (1) 
Tubulin beta chain

>  <UniProt ID>  (1) 
P07437

>  <PDB ID.1>  (1) 
1Z2B

>  <Seq. Identity>  (1) 
93%

$$$$
