PDB_DB01268_99
     RDKit          3D

 56 58  0  0  0  0  0  0  0  0999 V2000
   50.6820    0.3670  -16.1610 C   0  0  0  0  0  0  0  0  0  0  0  0
   42.9760   -4.0970  -12.0930 C   0  0  0  0  0  0  0  0  0  0  0  0
   43.1080   -2.8170  -12.6960 C   0  0  0  0  0  0  0  0  0  0  0  0
   45.2970   -4.6700  -12.5600 C   0  0  0  0  0  0  0  0  0  0  0  0
   50.4040   -3.1660  -14.7440 C   0  0  0  0  0  0  0  0  0  0  0  0
   44.0560   -5.0260  -12.0210 C   0  0  0  0  0  0  0  0  0  0  0  0
   45.4340   -3.3660  -13.1770 C   0  0  0  0  0  0  0  0  0  0  0  0
   46.6220   -2.6830  -13.8380 C   0  0  0  0  0  0  0  0  0  0  0  0
   46.0000   -1.3910  -14.2210 C   0  0  0  0  0  0  0  0  0  0  0  0
   52.7490   -2.2040  -15.7730 C   0  0  0  0  0  0  0  0  0  0  0  0
   50.6720   -4.6410  -14.2650 C   0  0  0  0  0  0  0  0  0  0  0  0
   47.9450   -3.1720  -14.0210 C   0  0  0  0  0  0  0  0  0  0  0  0
   50.4360   -1.0270  -15.5620 C   0  0  0  0  0  0  0  0  0  0  0  0
   44.3520   -2.4790  -13.2330 C   0  0  0  0  0  0  0  0  0  0  0  0
   49.1440   -2.5460  -14.6150 C   0  0  0  0  0  0  0  0  0  0  0  0
   51.2780   -2.1530  -15.3750 C   0  0  0  0  0  0  0  0  0  0  0  0
   49.2210   -1.3050  -15.1090 N   0  0  0  0  0  0  0  0  0  0  0  0
   44.6980   -1.3280  -13.8490 N   0  0  0  0  0  0  0  0  0  0  0  0
   53.3480   -1.1340  -16.3410 N   0  0  0  0  0  0  0  0  0  0  0  0
   46.5690   -0.5000  -14.7920 O   0  0  0  0  0  0  0  0  0  0  0  0
   53.4890   -3.1810  -15.6130 O   0  0  0  0  0  0  0  0  0  0  0  0
   43.8400   -6.2100  -11.4410 F   0  0  0  0  0  0  0  0  0  0  0  0
   54.7670   -1.1510  -16.7250 C   0  0  0  0  0  0  0  0  0  0  0  0
   55.7440   -0.0290  -16.2620 C   0  0  0  0  0  0  0  0  0  0  0  0
   57.0620   -0.2560  -16.9650 N   0  0  0  0  0  0  0  0  0  0  0  0
   58.1790   -0.1130  -15.9310 C   0  0  0  0  0  0  0  0  0  0  0  0
   57.2000    0.6510  -18.2320 C   0  0  0  0  0  0  0  0  0  0  0  0
   57.1470    0.0830  -19.6840 C   0  0  0  0  0  0  0  0  0  0  0  0
   59.6930   -0.4920  -16.2000 C   0  0  0  0  0  0  0  0  0  0  0  0
   50.8109    1.0975  -15.3488 H   0  0  0  0  0  0  0  0  0  0  0  0
   51.5900    0.3445  -16.7814 H   0  0  0  0  0  0  0  0  0  0  0  0
   49.8211    0.6566  -16.7814 H   0  0  0  0  0  0  0  0  0  0  0  0
   42.0036   -4.3824  -11.6653 H   0  0  0  0  0  0  0  0  0  0  0  0
   42.2603   -2.1172  -12.7383 H   0  0  0  0  0  0  0  0  0  0  0  0
   46.1493   -5.3641  -12.5164 H   0  0  0  0  0  0  0  0  0  0  0  0
   50.6780   -4.6741  -13.1655 H   0  0  0  0  0  0  0  0  0  0  0  0
   49.8790   -5.3005  -14.6473 H   0  0  0  0  0  0  0  0  0  0  0  0
   51.6463   -4.9794  -14.6473 H   0  0  0  0  0  0  0  0  0  0  0  0
   48.1034   -4.1974  -13.6557 H   0  0  0  0  0  0  0  0  0  0  0  0
   48.4311   -0.6445  -15.1344 H   0  0  0  0  0  0  0  0  0  0  0  0
   44.0706   -0.5274  -14.0109 H   0  0  0  0  0  0  0  0  0  0  0  0
   52.7944   -0.2820  -16.5097 H   0  0  0  0  0  0  0  0  0  0  0  0
   55.1801   -2.0984  -16.3486 H   0  0  0  0  0  0  0  0  0  0  0  0
   54.7219   -0.9944  -17.8129 H   0  0  0  0  0  0  0  0  0  0  0  0
   55.3388    0.9571  -16.5328 H   0  0  0  0  0  0  0  0  0  0  0  0
   55.8772   -0.0573  -15.1705 H   0  0  0  0  0  0  0  0  0  0  0  0
   58.1846    0.9489  -15.6441 H   0  0  0  0  0  0  0  0  0  0  0  0
   57.8948   -0.8929  -15.2092 H   0  0  0  0  0  0  0  0  0  0  0  0
   56.3905    1.3928  -18.1653 H   0  0  0  0  0  0  0  0  0  0  0  0
   58.2471    0.9799  -18.1586 H   0  0  0  0  0  0  0  0  0  0  0  0
   57.0449   -1.0116  -19.6460 H   0  0  0  0  0  0  0  0  0  0  0  0
   56.2851    0.5135  -20.2149 H   0  0  0  0  0  0  0  0  0  0  0  0
   58.0736    0.3466  -20.2149 H   0  0  0  0  0  0  0  0  0  0  0  0
   60.2144   -0.6225  -15.2403 H   0  0  0  0  0  0  0  0  0  0  0  0
   59.7400   -1.4296  -16.7733 H   0  0  0  0  0  0  0  0  0  0  0  0
   60.1762    0.3129  -16.7733 H   0  0  0  0  0  0  0  0  0  0  0  0
  2  3  2  0
  2  6  1  0
  4  6  2  0
  4  7  1  0
  7  8  1  0
  8  9  1  0
  5 11  1  0
  8 12  2  0
  1 13  1  0
  3 14  1  0
  7 14  2  0
  5 15  2  0
 12 15  1  0
  5 16  1  0
 10 16  1  0
 13 16  2  0
 13 17  1  0
 15 17  1  0
  9 18  1  0
 14 18  1  0
 10 19  1  0
  9 20  2  0
 10 21  2  0
  6 22  1  0
 19 23  1  0
 23 24  1  0
 24 25  1  0
 25 26  1  0
 25 27  1  0
 27 28  1  0
 26 29  1  0
  1 30  1  0
  1 31  1  0
  1 32  1  0
  2 33  1  0
  3 34  1  0
  4 35  1  0
 11 36  1  0
 11 37  1  0
 11 38  1  0
 12 39  1  0
 17 40  1  0
 18 41  1  0
 19 42  1  0
 23 43  1  0
 23 44  1  0
 24 45  1  0
 24 46  1  0
 26 47  1  0
 26 48  1  0
 27 49  1  0
 27 50  1  0
 28 51  1  0
 28 52  1  0
 28 53  1  0
 29 54  1  0
 29 55  1  0
 29 56  1  0
M  END
>  <PDBID>  (1) 
4AGD

>  <PDB ID>  (1) 
4AGD

>  <Generic Name>  (1) 
Sunitinib

>  <Brand Name>  (1) 
Sutent

>  <DrugBank ID>  (1) 
DB01268

>  <ATC Codes>  (1) 
L01XE04

>  <Ligand ID>  (1) 
B49

>  <Target Name>  (1) 
Vascular endothelial growth factor receptor 3

>  <UniProt ID>  (1) 
P35916

>  <PDB ID.1>  (1) 
4AGD

>  <Seq. Identity>  (1) 
66%

$$$$
