PDB_DB00819_76
     RDKit          3D

 19 19  0  0  0  0  0  0  0  0999 V2000
   10.9930   16.5180  -20.7630 C   0  0  0  0  0  0  0  0  0  0  0  0
   12.1960   14.8590  -19.7560 C   0  0  0  0  0  0  0  0  0  0  0  0
   13.6630   12.8280  -19.8090 C   0  0  0  0  0  0  0  0  0  0  0  0
   14.3860   11.8770  -18.8700 C   0  0  0  0  0  0  0  0  0  0  0  0
    8.7010   17.8150  -21.2240 N   0  0  0  0  0  0  0  0  0  0  0  0
   11.6570   15.6440  -18.8760 N   0  0  0  0  0  0  0  0  0  0  0  0
   10.9320   16.6450  -19.4720 N   0  0  0  0  0  0  0  0  0  0  0  0
   12.9390   13.8470  -19.1870 N   0  0  0  0  0  0  0  0  0  0  0  0
   10.1000   17.0860  -23.1760 O   0  0  0  0  0  0  0  0  0  0  0  0
   10.9800   18.8760  -21.8930 O   0  0  0  0  0  0  0  0  0  0  0  0
   13.7680   12.6380  -21.0150 O   0  0  0  0  0  0  0  0  0  0  0  0
   10.1600   17.6710  -21.8370 S   0  0  0  0  0  0  0  0  0  0  0  0
   11.9050   15.2080  -21.3850 S   0  0  0  0  0  0  0  0  0  0  0  0
   14.1726   12.1577  -17.8281 H   0  0  0  0  0  0  0  0  0  0  0  0
   14.0394   10.8489  -19.0511 H   0  0  0  0  0  0  0  0  0  0  0  0
   15.4694   11.9360  -19.0511 H   0  0  0  0  0  0  0  0  0  0  0  0
    8.7586   17.8093  -20.1956 H   0  0  0  0  0  0  0  0  0  0  0  0
    8.2820   18.7014  -21.5395 H   0  0  0  0  0  0  0  0  0  0  0  0
   12.9636   13.8418  -18.1573 H   0  0  0  0  0  0  0  0  0  0  0  0
  3  4  1  0
  2  6  2  0
  1  7  2  0
  6  7  1  0
  2  8  1  0
  3  8  1  0
  3 11  2  0
  1 12  1  0
  5 12  1  0
  9 12  2  0
 10 12  2  0
  1 13  1  0
  2 13  1  0
  4 14  1  0
  4 15  1  0
  4 16  1  0
  5 17  1  0
  5 18  1  0
  8 19  1  0
M  END
$$$$
