PDB_DB01248_98
     RDKit          3D

111116  0  0  0  0  0  0  0  0999 V2000
   -7.2200 -107.2140   55.8770 C   0  0  2  0  0  0  0  0  0  0  0  0
   -6.1910 -108.3590   56.4420 C   0  0  2  0  0  0  0  0  0  0  0  0
   -5.8510 -109.4340   55.4210 C   0  0  2  0  0  0  0  0  0  0  0  0
   -5.8140 -110.9110   56.1340 C   0  0  1  0  0  0  0  0  0  0  0  0
   -5.0310 -112.0730   55.6000 C   0  0  1  0  0  0  0  0  0  0  0  0
   -4.3730 -111.7660   54.3270 C   0  0  0  0  0  0  0  0  0  0  0  0
   -4.6730 -110.3350   53.6160 C   0  0  1  0  0  0  0  0  0  0  0  0
   -4.6850 -109.2300   54.7040 C   0  0  1  0  0  0  0  0  0  0  0  0
   -4.6730 -107.8550   53.7610 C   0  0  0  0  0  0  0  0  0  0  0  0
   -5.7380 -107.2580   52.7230 C   0  0  1  0  0  0  0  0  0  0  0  0
   -6.8680 -107.0150   53.3980 C   0  0  0  0  0  0  0  0  0  0  0  0
   -7.8750 -107.6050   52.9360 C   0  0  0  0  0  0  0  0  0  0  0  0
   -8.8800 -107.5230   53.8650 C   0  0  2  0  0  0  0  0  0  0  0  0
   -8.3950 -107.8840   55.4140 C   0  0  0  0  0  0  0  0  0  0  0  0
   -6.8650 -106.2030   54.6880 C   0  0  0  0  0  0  0  0  0  0  0  0
   -5.6580 -105.6490   55.1470 C   0  0  0  0  0  0  0  0  0  0  0  0
   -7.7740 -104.9000   54.3600 C   0  0  0  0  0  0  0  0  0  0  0  0
   -8.0690 -108.3710   51.6510 C   0  0  0  0  0  0  0  0  0  0  0  0
   -3.5300 -109.3770   55.7320 C   0  0  0  0  0  0  0  0  0  0  0  0
   -5.0160 -111.3040   57.5440 C   0  0  0  0  0  0  0  0  0  0  0  0
   -7.4810 -106.5020   57.0500 O   0  0  0  0  0  0  0  0  0  0  0  0
   -6.6430 -109.1030   57.6140 O   0  0  0  0  0  0  0  0  0  0  0  0
   -7.0020 -111.3050   56.2890 O   0  0  0  0  0  0  0  0  0  0  0  0
   -4.2260 -112.2600   56.9280 O   0  0  0  0  0  0  0  0  0  0  0  0
   -3.9040 -110.0470   52.5850 O   0  0  0  0  0  0  0  0  0  0  0  0
   -3.7360 -107.3220   53.7520 O   0  0  0  0  0  0  0  0  0  0  0  0
   -5.4680 -106.0410   51.9690 O   0  0  0  0  0  0  0  0  0  0  0  0
   -9.7300 -108.5180   53.5100 O   0  0  0  0  0  0  0  0  0  0  0  0
  -10.7600 -108.0250   52.6960 C   0  0  0  0  0  0  0  0  0  0  0  0
  -11.0120 -106.8400   52.3920 O   0  0  0  0  0  0  0  0  0  0  0  0
  -11.4570 -109.1410   52.1360 C   0  0  2  0  0  0  0  0  0  0  0  0
  -12.4740 -108.5120   51.2410 O   0  0  0  0  0  0  0  0  0  0  0  0
  -11.8470 -110.1190   53.2650 C   0  0  2  0  0  0  0  0  0  0  0  0
  -12.5280 -111.2070   52.5670 C   0  0  0  0  0  0  0  0  0  0  0  0
  -13.7420 -111.0730   52.2300 C   0  0  0  0  0  0  0  0  0  0  0  0
  -14.3160 -112.0050   51.4480 C   0  0  0  0  0  0  0  0  0  0  0  0
  -13.6660 -113.0960   51.0060 C   0  0  0  0  0  0  0  0  0  0  0  0
  -12.4540 -113.2600   51.3830 C   0  0  0  0  0  0  0  0  0  0  0  0
  -11.8760 -112.3310   52.1510 C   0  0  0  0  0  0  0  0  0  0  0  0
  -12.5620 -109.3500   54.1830 N   0  0  0  0  0  0  0  0  0  0  0  0
  -12.4210 -109.7180   55.5670 C   0  0  0  0  0  0  0  0  0  0  0  0
  -11.6200 -110.4890   56.2150 O   0  0  0  0  0  0  0  0  0  0  0  0
  -13.2750 -108.9800   56.1380 O   0  0  0  0  0  0  0  0  0  0  0  0
  -13.3140 -109.0930   57.6750 C   0  0  0  0  0  0  0  0  0  0  0  0
  -14.3610 -108.0940   57.7520 C   0  0  0  0  0  0  0  0  0  0  0  0
  -13.5030 -110.5280   58.2010 C   0  0  0  0  0  0  0  0  0  0  0  0
  -12.1730 -108.6120   58.3940 C   0  0  0  0  0  0  0  0  0  0  0  0
   -6.2530 -108.8480   58.9390 C   0  0  0  0  0  0  0  0  0  0  0  0
   -5.5140 -108.0150   59.2210 O   0  0  0  0  0  0  0  0  0  0  0  0
   -6.7730 -109.6910   59.9590 C   0  0  0  0  0  0  0  0  0  0  0  0
   -7.7870 -110.3520   59.6180 C   0  0  0  0  0  0  0  0  0  0  0  0
   -8.2310 -111.1610   60.6730 C   0  0  0  0  0  0  0  0  0  0  0  0
   -7.8200 -111.3570   61.9090 C   0  0  0  0  0  0  0  0  0  0  0  0
   -6.7140 -110.8540   62.3020 C   0  0  0  0  0  0  0  0  0  0  0  0
   -6.1700 -109.8900   61.3530 C   0  0  0  0  0  0  0  0  0  0  0  0
   -7.6680 -111.6920   55.1170 C   0  0  0  0  0  0  0  0  0  0  0  0
   -7.3290 -111.6360   53.9980 O   0  0  0  0  0  0  0  0  0  0  0  0
   -8.8190 -112.1550   55.4920 C   0  0  0  0  0  0  0  0  0  0  0  0
   -5.3258 -107.7308   56.7003 H   0  0  0  0  0  0  0  0  0  0  0  0
   -6.6609 -109.3757   54.6790 H   0  0  0  0  0  0  0  0  0  0  0  0
   -5.5035 -112.9987   55.2398 H   0  0  0  0  0  0  0  0  0  0  0  0
   -3.2884 -111.8188   54.5026 H   0  0  0  0  0  0  0  0  0  0  0  0
   -4.7908 -112.5041   53.6265 H   0  0  0  0  0  0  0  0  0  0  0  0
   -5.6670 -110.4015   53.1496 H   0  0  0  0  0  0  0  0  0  0  0  0
   -5.7449 -108.0418   51.9512 H   0  0  0  0  0  0  0  0  0  0  0  0
   -9.2829 -106.4995   53.8729 H   0  0  0  0  0  0  0  0  0  0  0  0
   -8.2062 -108.9665   55.4635 H   0  0  0  0  0  0  0  0  0  0  0  0
   -9.2096 -107.5377   56.0671 H   0  0  0  0  0  0  0  0  0  0  0  0
   -5.6509 -105.6458   56.2470 H   0  0  0  0  0  0  0  0  0  0  0  0
   -4.8144 -106.2500   54.7767 H   0  0  0  0  0  0  0  0  0  0  0  0
   -5.5638 -104.6175   54.7767 H   0  0  0  0  0  0  0  0  0  0  0  0
   -8.0994 -104.4335   55.3015 H   0  0  0  0  0  0  0  0  0  0  0  0
   -7.1829 -104.1776   53.7780 H   0  0  0  0  0  0  0  0  0  0  0  0
   -8.6561 -105.2054   53.7780 H   0  0  0  0  0  0  0  0  0  0  0  0
   -8.3330 -109.4136   51.8819 H   0  0  0  0  0  0  0  0  0  0  0  0
   -8.8784 -107.9085   51.0670 H   0  0  0  0  0  0  0  0  0  0  0  0
   -7.1371 -108.3495   51.0670 H   0  0  0  0  0  0  0  0  0  0  0  0
   -3.9383 -109.3250   56.7521 H   0  0  0  0  0  0  0  0  0  0  0  0
   -3.0303 -110.3460   55.5860 H   0  0  0  0  0  0  0  0  0  0  0  0
   -2.8035 -108.5641   55.5860 H   0  0  0  0  0  0  0  0  0  0  0  0
   -4.4388 -110.4677   57.9653 H   0  0  0  0  0  0  0  0  0  0  0  0
   -5.6115 -111.5991   58.4205 H   0  0  0  0  0  0  0  0  0  0  0  0
   -7.2729 -107.0697   57.8339 H   0  0  0  0  0  0  0  0  0  0  0  0
   -3.0277 -109.7188   52.9084 H   0  0  0  0  0  0  0  0  0  0  0  0
   -5.3022 -105.2937   52.5969 H   0  0  0  0  0  0  0  0  0  0  0  0
  -10.9070 -109.8414   51.4903 H   0  0  0  0  0  0  0  0  0  0  0  0
  -13.1744 -108.0788   51.7905 H   0  0  0  0  0  0  0  0  0  0  0  0
  -11.0579 -110.5974   53.8637 H   0  0  0  0  0  0  0  0  0  0  0  0
  -14.3210 -110.2031   52.5735 H   0  0  0  0  0  0  0  0  0  0  0  0
  -15.3677 -111.8680   51.1561 H   0  0  0  0  0  0  0  0  0  0  0  0
  -14.1590 -113.8225   50.3433 H   0  0  0  0  0  0  0  0  0  0  0  0
  -11.8937 -114.1562   51.0782 H   0  0  0  0  0  0  0  0  0  0  0  0
  -10.8309 -112.4789   52.4606 H   0  0  0  0  0  0  0  0  0  0  0  0
  -13.1572 -108.5632   53.8871 H   0  0  0  0  0  0  0  0  0  0  0  0
  -14.5860 -107.8793   58.8071 H   0  0  0  0  0  0  0  0  0  0  0  0
  -14.0258 -107.1724   57.2537 H   0  0  0  0  0  0  0  0  0  0  0  0
  -15.2659 -108.4720   57.2537 H   0  0  0  0  0  0  0  0  0  0  0  0
  -13.5017 -110.5185   59.3010 H   0  0  0  0  0  0  0  0  0  0  0  0
  -14.4616 -110.9280   57.8389 H   0  0  0  0  0  0  0  0  0  0  0  0
  -12.6807 -111.1625   57.8389 H   0  0  0  0  0  0  0  0  0  0  0  0
  -12.3607 -108.6911   59.4750 H   0  0  0  0  0  0  0  0  0  0  0  0
  -11.2920 -109.2153   58.1297 H   0  0  0  0  0  0  0  0  0  0  0  0
  -11.9898 -107.5601   58.1297 H   0  0  0  0  0  0  0  0  0  0  0  0
   -8.2610 -110.3021   58.6266 H   0  0  0  0  0  0  0  0  0  0  0  0
   -9.1142 -111.7627   60.4122 H   0  0  0  0  0  0  0  0  0  0  0  0
   -8.4297 -111.9542   62.6029 H   0  0  0  0  0  0  0  0  0  0  0  0
   -6.2257 -111.1187   63.2515 H   0  0  0  0  0  0  0  0  0  0  0  0
   -5.2988 -109.2864   61.6474 H   0  0  0  0  0  0  0  0  0  0  0  0
   -8.8662 -112.1740   56.5908 H   0  0  0  0  0  0  0  0  0  0  0  0
   -9.6190 -111.5087   55.1017 H   0  0  0  0  0  0  0  0  0  0  0  0
   -8.9486 -113.1752   55.1017 H   0  0  0  0  0  0  0  0  0  0  0  0
  1  2  1  0
  2  3  1  0
  3  4  1  0
  4  5  1  0
  5  6  1  0
  6  7  1  0
  3  8  1  0
  7  8  1  0
  8  9  1  0
  9 10  1  0
 10 11  1  0
 11 12  2  0
 12 13  1  0
  1 14  1  0
 13 14  1  0
  1 15  1  0
 11 15  1  0
 15 16  1  0
 15 17  1  0
 12 18  1  0
  8 19  1  1
  4 20  1  0
  1 21  1  1
  2 22  1  0
  4 23  1  1
  5 24  1  0
 20 24  1  0
  7 25  1  0
  9 26  2  0
 10 27  1  0
 13 28  1  0
 28 29  1  0
 29 30  2  0
 29 31  1  0
 31 32  1  0
 31 33  1  0
 33 34  1  0
 34 35  2  0
 35 36  1  0
 36 37  2  0
 37 38  1  0
 34 39  1  0
 38 39  2  0
 33 40  1  0
 40 41  1  0
 41 42  2  0
 41 43  1  0
 43 44  1  0
 44 45  1  0
 44 46  1  0
 44 47  1  0
 22 48  1  0
 48 49  2  0
 48 50  1  0
 50 51  2  0
 51 52  1  0
 52 53  2  0
 53 54  1  0
 50 55  1  0
 54 55  2  0
 23 56  1  0
 56 57  2  0
 56 58  1  0
  2 59  1  1
  3 60  1  6
  5 61  1  6
  6 62  1  0
  6 63  1  0
  7 64  1  6
 10 65  1  6
 13 66  1  1
 14 67  1  0
 14 68  1  0
 16 69  1  0
 16 70  1  0
 16 71  1  0
 17 72  1  0
 17 73  1  0
 17 74  1  0
 18 75  1  0
 18 76  1  0
 18 77  1  0
 19 78  1  0
 19 79  1  0
 19 80  1  0
 20 81  1  0
 20 82  1  0
 21 83  1  0
 25 84  1  0
 27 85  1  0
 31 86  1  6
 32 87  1  0
 33 88  1  1
 35 89  1  0
 36 90  1  0
 37 91  1  0
 38 92  1  0
 39 93  1  0
 40 94  1  0
 45 95  1  0
 45 96  1  0
 45 97  1  0
 46 98  1  0
 46 99  1  0
 46100  1  0
 47101  1  0
 47102  1  0
 47103  1  0
 51104  1  0
 52105  1  0
 53106  1  0
 54107  1  0
 55108  1  0
 58109  1  0
 58110  1  0
 58111  1  0
M  END
>  <PDBID>  (1) 
1IA0

>  <PDB ID>  (1) 
1IA0

>  <Generic Name>  (1) 
Docetaxel

>  <Brand Name>  (1) 
Docefrez#Docetaxel#Docetaxel Injection#Docetaxel Injection USP#Docetaxel Non-alcohol Formula#PMS-docetaxel#Taxotere

>  <DrugBank ID>  (1) 
DB01248

>  <ATC Codes>  (1) 
L01CD02

>  <Ligand ID>  (1) 
TXL

>  <Target Name>  (1) 
Tubulin beta-1 chain

>  <UniProt ID>  (1) 
Q9H4B7

>  <PDB ID.1>  (1) 
1IA0

>  <Seq. Identity>  (1) 
77%

$$$$
