PDB_DB00317_99
     RDKit          3D

 55 58  0  0  0  0  0  0  0  0999 V2000
    6.4230  190.3080   17.4020 C   0  0  0  0  0  0  0  0  0  0  0  0
    7.1360  189.3060   16.4730 C   0  0  0  0  0  0  0  0  0  0  0  0
    6.2180  188.8730   15.4010 O   0  0  0  0  0  0  0  0  0  0  0  0
    4.8720  188.4990   15.8600 C   0  0  0  0  0  0  0  0  0  0  0  0
    4.2000  189.7900   16.2650 C   0  0  0  0  0  0  0  0  0  0  0  0
    5.1860  190.7890   16.7580 N   0  0  0  0  0  0  0  0  0  0  0  0
    4.5160  191.3130   17.9730 C   0  0  0  0  0  0  0  0  0  0  0  0
    3.3620  192.1740   17.4760 C   0  0  0  0  0  0  0  0  0  0  0  0
    2.6930  192.7680   18.7120 C   0  0  0  0  0  0  0  0  0  0  0  0
    1.5110  193.3120   18.0930 O   0  0  0  0  0  0  0  0  0  0  0  0
    0.8360  194.3500   18.6400 C   0  0  0  0  0  0  0  0  0  0  0  0
    0.0240  195.0600   17.7430 C   0  0  0  0  0  0  0  0  0  0  0  0
   -0.7220  196.1480   18.2050 C   0  0  0  0  0  0  0  0  0  0  0  0
    0.0430  194.6190   16.4380 O   0  0  0  0  0  0  0  0  0  0  0  0
   -0.9750  195.1570   15.5770 C   0  0  0  0  0  0  0  0  0  0  0  0
    0.9010  194.6820   20.0080 C   0  0  0  0  0  0  0  0  0  0  0  0
    0.1410  195.7640   20.4760 C   0  0  0  0  0  0  0  0  0  0  0  0
   -0.6660  196.4850   19.5630 C   0  0  0  0  0  0  0  0  0  0  0  0
   -1.4210  197.5180   19.9720 N   0  0  0  0  0  0  0  0  0  0  0  0
   -1.3620  197.8990   21.3200 C   0  0  0  0  0  0  0  0  0  0  0  0
   -0.5710  197.1930   22.2210 N   0  0  0  0  0  0  0  0  0  0  0  0
    0.1510  196.1380   21.8470 C   0  0  0  0  0  0  0  0  0  0  0  0
    0.9250  195.4410   22.7410 N   0  0  0  0  0  0  0  0  0  0  0  0
    0.7480  195.6220   24.0720 C   0  0  0  0  0  0  0  0  0  0  0  0
   -0.5290  195.5750   24.6740 C   0  0  0  0  0  0  0  0  0  0  0  0
   -0.6650  195.7800   26.0490 C   0  0  0  0  0  0  0  0  0  0  0  0
   -2.2640  195.7510   26.8020 Cl  0  0  0  0  0  0  0  0  0  0  0  0
    0.4740  196.0300   26.8170 C   0  0  0  0  0  0  0  0  0  0  0  0
    0.3510  196.2040   28.1400 F   0  0  0  0  0  0  0  0  0  0  0  0
    1.7590  196.0520   26.2290 C   0  0  0  0  0  0  0  0  0  0  0  0
    1.8870  195.8460   24.8490 C   0  0  0  0  0  0  0  0  0  0  0  0
    6.1721  189.8120   18.3512 H   0  0  0  0  0  0  0  0  0  0  0  0
    7.0885  191.1620   17.5964 H   0  0  0  0  0  0  0  0  0  0  0  0
    8.0179  189.7876   16.0254 H   0  0  0  0  0  0  0  0  0  0  0  0
    7.4482  188.4286   17.0585 H   0  0  0  0  0  0  0  0  0  0  0  0
    4.3113  188.0142   15.0472 H   0  0  0  0  0  0  0  0  0  0  0  0
    4.9138  187.7855   16.6961 H   0  0  0  0  0  0  0  0  0  0  0  0
    3.6741  190.2074   15.3937 H   0  0  0  0  0  0  0  0  0  0  0  0
    3.4955  189.5702   17.0807 H   0  0  0  0  0  0  0  0  0  0  0  0
    4.1371  190.4838   18.5885 H   0  0  0  0  0  0  0  0  0  0  0  0
    5.2109  191.8919   18.5991 H   0  0  0  0  0  0  0  0  0  0  0  0
    3.7407  192.9774   16.8271 H   0  0  0  0  0  0  0  0  0  0  0  0
    2.6485  191.5778   16.8883 H   0  0  0  0  0  0  0  0  0  0  0  0
    2.4496  191.9979   19.4588 H   0  0  0  0  0  0  0  0  0  0  0  0
    3.3025  193.4873   19.2786 H   0  0  0  0  0  0  0  0  0  0  0  0
   -1.3447  196.7317   17.5111 H   0  0  0  0  0  0  0  0  0  0  0  0
   -1.7837  195.5844   16.1880 H   0  0  0  0  0  0  0  0  0  0  0  0
   -0.5404  195.9432   14.9421 H   0  0  0  0  0  0  0  0  0  0  0  0
   -1.3797  194.3550   14.9421 H   0  0  0  0  0  0  0  0  0  0  0  0
    1.5356  194.1037   20.6956 H   0  0  0  0  0  0  0  0  0  0  0  0
   -1.9461  198.7636   21.6683 H   0  0  0  0  0  0  0  0  0  0  0  0
    1.6392  194.7815   22.4006 H   0  0  0  0  0  0  0  0  0  0  0  0
   -1.4187  195.3764   24.0584 H   0  0  0  0  0  0  0  0  0  0  0  0
    2.6502  196.2292   26.8489 H   0  0  0  0  0  0  0  0  0  0  0  0
    2.8814  195.8606   24.3789 H   0  0  0  0  0  0  0  0  0  0  0  0
  1  2  1  0
  2  3  1  0
  3  4  1  0
  4  5  1  0
  1  6  1  0
  5  6  1  0
  6  7  1  0
  7  8  1  0
  8  9  1  0
  9 10  1  0
 10 11  1  0
 11 12  2  0
 12 13  1  0
 12 14  1  0
 14 15  1  0
 11 16  1  0
 16 17  2  0
 13 18  2  0
 17 18  1  0
 18 19  1  0
 19 20  2  0
 20 21  1  0
 17 22  1  0
 21 22  2  0
 22 23  1  0
 23 24  1  0
 24 25  2  0
 25 26  1  0
 26 27  1  0
 26 28  2  0
 28 29  1  0
 28 30  1  0
 24 31  1  0
 30 31  2  0
  1 32  1  0
  1 33  1  0
  2 34  1  0
  2 35  1  0
  4 36  1  0
  4 37  1  0
  5 38  1  0
  5 39  1  0
  7 40  1  0
  7 41  1  0
  8 42  1  0
  8 43  1  0
  9 44  1  0
  9 45  1  0
 13 46  1  0
 15 47  1  0
 15 48  1  0
 15 49  1  0
 16 50  1  0
 20 51  1  0
 23 52  1  0
 25 53  1  0
 30 54  1  0
 31 55  1  0
M  END
>  <PDBID>  (1) 
4WKQ

>  <PDB ID>  (1) 
4WKQ

>  <Generic Name>  (1) 
Gefitinib

>  <Brand Name>  (1) 
Iressa

>  <DrugBank ID>  (1) 
DB00317

>  <ATC Codes>  (1) 
L01XE02

>  <Ligand ID>  (1) 
IRE

>  <Target Name>  (1) 
Epidermal growth factor receptor

>  <UniProt ID>  (1) 
P00533

>  <PDB ID.1>  (1) 
4WKQ

>  <Seq. Identity>  (1) 
96%

$$$$
