PDB_DB00843_99
     RDKit          3D

 57 60  0  0  0  0  0  0  0  0999 V2000
  -18.5300  -41.9280   24.2580 C   0  0  0  0  0  0  0  0  0  0  0  0
  -18.9700  -41.8620   25.5660 C   0  0  0  0  0  0  0  0  0  0  0  0
  -18.1250  -42.2220   26.6150 C   0  0  0  0  0  0  0  0  0  0  0  0
  -16.8170  -42.6590   26.3380 C   0  0  0  0  0  0  0  0  0  0  0  0
  -16.3700  -42.7400   25.0370 C   0  0  0  0  0  0  0  0  0  0  0  0
  -17.2340  -42.3690   23.9790 C   0  0  0  0  0  0  0  0  0  0  0  0
  -14.9620  -43.2210   24.9960 C   0  0  0  0  0  0  0  0  0  0  0  0
  -14.5020  -43.4780   26.4190 C   0  0  1  0  0  0  0  0  0  0  0  0
  -15.7100  -43.1070   27.2820 C   0  0  0  0  0  0  0  0  0  0  0  0
  -13.9700  -44.8940   26.6420 C   0  0  0  0  0  0  0  0  0  0  0  0
  -12.9250  -44.9650   27.7760 C   0  0  0  0  0  0  0  0  0  0  0  0
  -13.5050  -44.7560   29.1410 C   0  0  0  0  0  0  0  0  0  0  0  0
  -12.5290  -44.9330   30.2740 C   0  0  0  0  0  0  0  0  0  0  0  0
  -11.7290  -46.1660   30.2120 N   0  0  0  0  0  0  0  0  0  0  0  0
  -11.1890  -46.3510   28.8620 C   0  0  0  0  0  0  0  0  0  0  0  0
  -12.2570  -46.3280   27.8080 C   0  0  0  0  0  0  0  0  0  0  0  0
  -10.9620  -46.5450   31.3950 C   0  0  0  0  0  0  0  0  0  0  0  0
   -9.6980  -45.7080   31.5390 C   0  0  0  0  0  0  0  0  0  0  0  0
   -9.7400  -44.4450   32.1580 C   0  0  0  0  0  0  0  0  0  0  0  0
   -8.5760  -43.6760   32.2860 C   0  0  0  0  0  0  0  0  0  0  0  0
   -7.3630  -44.1710   31.8000 C   0  0  0  0  0  0  0  0  0  0  0  0
   -7.3170  -45.4340   31.1760 C   0  0  0  0  0  0  0  0  0  0  0  0
   -8.4750  -46.2000   31.0510 C   0  0  0  0  0  0  0  0  0  0  0  0
  -14.2780  -43.3620   23.9590 O   0  0  0  0  0  0  0  0  0  0  0  0
  -19.3870  -41.5620   23.2440 O   0  0  0  0  0  0  0  0  0  0  0  0
  -18.9950  -41.5610   21.9310 C   0  0  0  0  0  0  0  0  0  0  0  0
  -20.2640  -41.4070   25.8390 O   0  0  0  0  0  0  0  0  0  0  0  0
  -20.6580  -41.2660   27.1750 C   0  0  0  0  0  0  0  0  0  0  0  0
  -18.4797  -42.1645   27.6547 H   0  0  0  0  0  0  0  0  0  0  0  0
  -16.8852  -42.4279   22.9374 H   0  0  0  0  0  0  0  0  0  0  0  0
  -13.6243  -42.8718   26.6877 H   0  0  0  0  0  0  0  0  0  0  0  0
  -15.4459  -42.2889   27.9683 H   0  0  0  0  0  0  0  0  0  0  0  0
  -16.0364  -43.9659   27.8868 H   0  0  0  0  0  0  0  0  0  0  0  0
  -14.8140  -45.5508   26.8994 H   0  0  0  0  0  0  0  0  0  0  0  0
  -13.4751  -45.2136   25.7131 H   0  0  0  0  0  0  0  0  0  0  0  0
  -12.2153  -44.1552   27.5511 H   0  0  0  0  0  0  0  0  0  0  0  0
  -13.9049  -43.7324   29.1902 H   0  0  0  0  0  0  0  0  0  0  0  0
  -14.2764  -45.5292   29.2722 H   0  0  0  0  0  0  0  0  0  0  0  0
  -11.8387  -44.0765   30.2680 H   0  0  0  0  0  0  0  0  0  0  0  0
  -13.1300  -44.9996   31.1929 H   0  0  0  0  0  0  0  0  0  0  0  0
  -10.4717  -45.5431   28.6551 H   0  0  0  0  0  0  0  0  0  0  0  0
  -10.7063  -47.3388   28.8274 H   0  0  0  0  0  0  0  0  0  0  0  0
  -13.0096  -47.0974   28.0351 H   0  0  0  0  0  0  0  0  0  0  0  0
  -11.8013  -46.5301   26.8274 H   0  0  0  0  0  0  0  0  0  0  0  0
  -11.5887  -46.4007   32.2874 H   0  0  0  0  0  0  0  0  0  0  0  0
  -10.6650  -47.5987   31.2879 H   0  0  0  0  0  0  0  0  0  0  0  0
  -10.6945  -44.0584   32.5445 H   0  0  0  0  0  0  0  0  0  0  0  0
   -8.6167  -42.6874   32.7667 H   0  0  0  0  0  0  0  0  0  0  0  0
   -6.4443  -43.5751   31.9044 H   0  0  0  0  0  0  0  0  0  0  0  0
   -6.3626  -45.8172   30.7857 H   0  0  0  0  0  0  0  0  0  0  0  0
   -8.4317  -47.1887   30.5708 H   0  0  0  0  0  0  0  0  0  0  0  0
  -17.8964  -41.5582   21.8763 H   0  0  0  0  0  0  0  0  0  0  0  0
  -19.3847  -42.4601   21.4313 H   0  0  0  0  0  0  0  0  0  0  0  0
  -19.3893  -40.6639   21.4313 H   0  0  0  0  0  0  0  0  0  0  0  0
  -19.8294  -41.5625   27.8349 H   0  0  0  0  0  0  0  0  0  0  0  0
  -20.9245  -40.2167   27.3699 H   0  0  0  0  0  0  0  0  0  0  0  0
  -21.5297  -41.9080   27.3699 H   0  0  0  0  0  0  0  0  0  0  0  0
  1  2  2  0
  2  3  1  0
  3  4  2  0
  4  5  1  0
  1  6  1  0
  5  6  2  0
  5  7  1  0
  7  8  1  0
  4  9  1  0
  8  9  1  0
  8 10  1  0
 10 11  1  0
 11 12  1  0
 12 13  1  0
 13 14  1  0
 14 15  1  0
 11 16  1  0
 15 16  1  0
 14 17  1  0
 17 18  1  0
 18 19  2  0
 19 20  1  0
 20 21  2  0
 21 22  1  0
 18 23  1  0
 22 23  2  0
  7 24  2  0
  1 25  1  0
 25 26  1  0
  2 27  1  0
 27 28  1  0
  3 29  1  0
  6 30  1  0
  8 31  1  1
  9 32  1  0
  9 33  1  0
 10 34  1  0
 10 35  1  0
 11 36  1  0
 12 37  1  0
 12 38  1  0
 13 39  1  0
 13 40  1  0
 15 41  1  0
 15 42  1  0
 16 43  1  0
 16 44  1  0
 17 45  1  0
 17 46  1  0
 19 47  1  0
 20 48  1  0
 21 49  1  0
 22 50  1  0
 23 51  1  0
 26 52  1  0
 26 53  1  0
 26 54  1  0
 28 55  1  0
 28 56  1  0
 28 57  1  0
M  END
$$$$
