PDB_DB01132_99
     RDKit          3D

122126  0  0  0  0  0  0  0  0999 V2000
   14.6150    3.8460   37.8530 O   0  0  0  0  0  0  0  0  0  0  0  0
   13.9320    4.3000   38.7630 C   0  0  1  0  0  0  0  0  0  0  0  0
   13.3820    5.5290   38.6880 N   0  0  0  0  0  0  0  0  0  0  0  0
   13.6040    3.4590   40.0110 C   0  0  2  0  0  0  0  0  0  0  0  0
   12.6220    4.6670   40.9510 S   0  0  0  0  0  0  0  0  0  0  0  0
   12.6590    5.8810   39.7600 C   0  0  0  0  0  0  0  0  0  0  0  0
   12.0920    6.9590   39.8900 O   0  0  0  0  0  0  0  0  0  0  0  0
   14.8640    2.8900   40.6630 C   0  0  0  0  0  0  0  0  0  0  0  0
   14.4420    7.0490   49.9830 C   0  0  0  0  0  0  0  0  0  0  0  0
   14.7830    2.7590   42.1840 C   0  0  0  0  0  0  0  0  0  0  0  0
   13.5870    2.4750   42.8410 C   0  0  0  0  0  0  0  0  0  0  0  0
   13.5900    2.3890   44.2310 C   0  0  0  0  0  0  0  0  0  0  0  0
   14.7710    2.5770   44.9570 C   0  0  0  0  0  0  0  0  0  0  0  0
   15.9600    2.8530   44.2930 C   0  0  0  0  0  0  0  0  0  0  0  0
   15.9600    2.9420   42.9080 C   0  0  0  0  0  0  0  0  0  0  0  0
   14.7640    2.4690   46.3110 O   0  0  0  0  0  0  0  0  0  0  0  0
   15.6050    3.4000   47.0020 C   0  0  0  0  0  0  0  0  0  0  0  0
   14.9440    3.6470   48.3620 C   0  0  0  0  0  0  0  0  0  0  0  0
   17.2400    9.2970   50.4790 C   0  0  0  0  0  0  0  0  0  0  0  0
   15.9490    8.9410   50.0890 C   0  0  0  0  0  0  0  0  0  0  0  0
   15.6680    7.6400   49.6780 C   0  0  0  0  0  0  0  0  0  0  0  0
   16.6130    6.9140   48.9570 C   0  0  0  0  0  0  0  0  0  0  0  0
   16.3590    5.6760   48.5620 N   0  0  0  0  0  0  0  0  0  0  0  0
   14.1950    5.7480   49.5570 C   0  0  0  0  0  0  0  0  0  0  0  0
   15.1850    5.0750   48.8400 C   0  0  0  0  0  0  0  0  0  0  0  0
  -11.1950  -22.5820   11.9210 O   0  0  0  0  0  0  0  0  0  0  0  0
  -10.2950  -23.0480   11.2230 C   0  0  0  0  0  0  0  0  0  0  0  0
  -10.5410  -23.4790    9.9730 N   0  0  0  0  0  0  0  0  0  0  0  0
   -8.8320  -23.1500   11.6930 C   0  0  2  0  0  0  0  0  0  0  0  0
   -8.0460  -23.8930   10.2370 S   0  0  0  0  0  0  0  0  0  0  0  0
   -9.4800  -23.9580    9.3010 C   0  0  0  0  0  0  0  0  0  0  0  0
   -9.5200  -24.3980    8.1500 O   0  0  0  0  0  0  0  0  0  0  0  0
   -8.7090  -24.0560   12.9120 C   0  0  0  0  0  0  0  0  0  0  0  0
   -2.1000  -25.2660   21.2120 C   0  0  0  0  0  0  0  0  0  0  0  0
   -7.4110  -23.8040   13.7010 C   0  0  0  0  0  0  0  0  0  0  0  0
   -6.8320  -22.5280   13.7390 C   0  0  0  0  0  0  0  0  0  0  0  0
   -5.6590  -22.3020   14.4610 C   0  0  0  0  0  0  0  0  0  0  0  0
   -5.0580  -23.3470   15.1590 C   0  0  0  0  0  0  0  0  0  0  0  0
   -5.6310  -24.6270   15.1190 C   0  0  0  0  0  0  0  0  0  0  0  0
   -6.8070  -24.8580   14.3940 C   0  0  0  0  0  0  0  0  0  0  0  0
   -3.9160  -23.0910   15.8600 O   0  0  0  0  0  0  0  0  0  0  0  0
   -3.5490  -24.1900   16.7160 C   0  0  0  0  0  0  0  0  0  0  0  0
   -2.7560  -23.5870   17.8710 C   0  0  0  0  0  0  0  0  0  0  0  0
    0.3190  -27.3400   22.1500 C   0  0  0  0  0  0  0  0  0  0  0  0
   -1.0180  -27.3320   21.7710 C   0  0  0  0  0  0  0  0  0  0  0  0
   -1.4440  -26.4240   20.8130 C   0  0  0  0  0  0  0  0  0  0  0  0
   -1.2310  -26.6550   19.4420 C   0  0  0  0  0  0  0  0  0  0  0  0
   -1.6470  -25.7580   18.5400 N   0  0  0  0  0  0  0  0  0  0  0  0
   -2.5240  -24.3520   20.2540 C   0  0  0  0  0  0  0  0  0  0  0  0
   -2.2900  -24.6220   18.9050 C   0  0  0  0  0  0  0  0  0  0  0  0
   15.3764    3.3399   38.2327 H   0  0  0  0  0  0  0  0  0  0  0  0
   14.8328    4.7313   39.2240 H   0  0  0  0  0  0  0  0  0  0  0  0
   14.1418    6.2149   38.5731 H   0  0  0  0  0  0  0  0  0  0  0  0
   13.0478    2.5217   39.8620 H   0  0  0  0  0  0  0  0  0  0  0  0
   11.7596    5.4516   39.2944 H   0  0  0  0  0  0  0  0  0  0  0  0
   11.9854    7.1617   40.8531 H   0  0  0  0  0  0  0  0  0  0  0  0
   15.0489    1.8912   40.2409 H   0  0  0  0  0  0  0  0  0  0  0  0
   15.6759    3.6014   40.4516 H   0  0  0  0  0  0  0  0  0  0  0  0
   14.3463    7.0528   51.0788 H   0  0  0  0  0  0  0  0  0  0  0  0
   13.7122    7.6524   49.4232 H   0  0  0  0  0  0  0  0  0  0  0  0
   14.5721    3.8355   42.2655 H   0  0  0  0  0  0  0  0  0  0  0  0
   12.8721    3.2650   42.5673 H   0  0  0  0  0  0  0  0  0  0  0  0
   13.3377    1.4555   42.5116 H   0  0  0  0  0  0  0  0  0  0  0  0
   12.8753    3.1425   44.5936 H   0  0  0  0  0  0  0  0  0  0  0  0
   13.3586    1.3288   44.4109 H   0  0  0  0  0  0  0  0  0  0  0  0
   14.9836    1.4998   44.8900 H   0  0  0  0  0  0  0  0  0  0  0  0
   16.3253    3.8171   44.6764 H   0  0  0  0  0  0  0  0  0  0  0  0
   16.5832    1.9699   44.4971 H   0  0  0  0  0  0  0  0  0  0  0  0
   16.6732    2.1876   42.5445 H   0  0  0  0  0  0  0  0  0  0  0  0
   16.1957    4.0016   42.7300 H   0  0  0  0  0  0  0  0  0  0  0  0
   16.6109    2.9764   47.1385 H   0  0  0  0  0  0  0  0  0  0  0  0
   15.7165    4.3361   46.4351 H   0  0  0  0  0  0  0  0  0  0  0  0
   13.8611    3.4769   48.2710 H   0  0  0  0  0  0  0  0  0  0  0  0
   15.3846    2.9549   49.0947 H   0  0  0  0  0  0  0  0  0  0  0  0
   17.2998    9.3135   51.5772 H   0  0  0  0  0  0  0  0  0  0  0  0
   17.9579    8.5633   50.0837 H   0  0  0  0  0  0  0  0  0  0  0  0
   17.4804   10.2950   50.0837 H   0  0  0  0  0  0  0  0  0  0  0  0
   15.2921    9.1495   50.9463 H   0  0  0  0  0  0  0  0  0  0  0  0
   15.7969    9.5285   49.1716 H   0  0  0  0  0  0  0  0  0  0  0  0
   15.2474    8.0277   48.7384 H   0  0  0  0  0  0  0  0  0  0  0  0
   16.8289    7.4953   48.0484 H   0  0  0  0  0  0  0  0  0  0  0  0
   17.4242    6.7760   49.6870 H   0  0  0  0  0  0  0  0  0  0  0  0
   16.4509    5.6737   47.5361 H   0  0  0  0  0  0  0  0  0  0  0  0
   13.9826    5.1489   50.4548 H   0  0  0  0  0  0  0  0  0  0  0  0
   13.3720    5.8567   48.8353 H   0  0  0  0  0  0  0  0  0  0  0  0
   15.6052    4.6893   49.7806 H   0  0  0  0  0  0  0  0  0  0  0  0
  -10.9662  -22.7005   12.8769 H   0  0  0  0  0  0  0  0  0  0  0  0
  -10.5134  -24.0533   11.6126 H   0  0  0  0  0  0  0  0  0  0  0  0
  -11.2443  -24.2293   10.0299 H   0  0  0  0  0  0  0  0  0  0  0  0
   -8.3877  -22.1939   12.0069 H   0  0  0  0  0  0  0  0  0  0  0  0
   -9.2716  -22.9505    8.9118 H   0  0  0  0  0  0  0  0  0  0  0  0
   -9.6096  -25.3836    8.1764 H   0  0  0  0  0  0  0  0  0  0  0  0
   -9.5671  -23.8738   13.5757 H   0  0  0  0  0  0  0  0  0  0  0  0
   -8.6890  -25.0967   12.5562 H   0  0  0  0  0  0  0  0  0  0  0  0
   -2.9938  -25.5814   21.7702 H   0  0  0  0  0  0  0  0  0  0  0  0
   -1.3302  -24.7140   21.7711 H   0  0  0  0  0  0  0  0  0  0  0  0
   -6.8197  -24.0456   12.8055 H   0  0  0  0  0  0  0  0  0  0  0  0
   -6.6192  -22.2477   12.6968 H   0  0  0  0  0  0  0  0  0  0  0  0
   -7.5779  -21.9350   14.2884 H   0  0  0  0  0  0  0  0  0  0  0  0
   -4.9125  -21.9279   13.7449 H   0  0  0  0  0  0  0  0  0  0  0  0
   -5.9817  -21.6176   15.2594 H   0  0  0  0  0  0  0  0  0  0  0  0
   -5.6634  -23.1037   16.0446 H   0  0  0  0  0  0  0  0  0  0  0  0
   -4.8674  -25.3011   14.7036 H   0  0  0  0  0  0  0  0  0  0  0  0
   -5.9470  -24.7887   16.1602 H   0  0  0  0  0  0  0  0  0  0  0  0
   -7.5522  -25.2394   15.1076 H   0  0  0  0  0  0  0  0  0  0  0  0
   -6.4851  -25.5404   13.5935 H   0  0  0  0  0  0  0  0  0  0  0  0
   -4.4498  -24.6948   17.0951 H   0  0  0  0  0  0  0  0  0  0  0  0
   -2.9555  -24.9395   16.1719 H   0  0  0  0  0  0  0  0  0  0  0  0
   -1.8689  -23.0843   17.4584 H   0  0  0  0  0  0  0  0  0  0  0  0
   -3.4277  -22.8899   18.3934 H   0  0  0  0  0  0  0  0  0  0  0  0
    0.3889  -27.3404   23.2478 H   0  0  0  0  0  0  0  0  0  0  0  0
    0.8078  -28.2411   21.7511 H   0  0  0  0  0  0  0  0  0  0  0  0
    0.8186  -26.4448   21.7511 H   0  0  0  0  0  0  0  0  0  0  0  0
   -1.2493  -28.3366   21.3871 H   0  0  0  0  0  0  0  0  0  0  0  0
   -1.5467  -27.0177   22.6830 H   0  0  0  0  0  0  0  0  0  0  0  0
   -0.4789  -25.9004   20.8801 H   0  0  0  0  0  0  0  0  0  0  0  0
   -0.1453  -26.7648   19.3033 H   0  0  0  0  0  0  0  0  0  0  0  0
   -1.8587  -27.5338   19.2330 H   0  0  0  0  0  0  0  0  0  0  0  0
   -0.8090  -25.4613   18.0197 H   0  0  0  0  0  0  0  0  0  0  0  0
   -3.6115  -24.2403   20.3755 H   0  0  0  0  0  0  0  0  0  0  0  0
   -1.9104  -23.4610   20.4528 H   0  0  0  0  0  0  0  0  0  0  0  0
   -3.2559  -25.1415   18.8203 H   0  0  0  0  0  0  0  0  0  0  0  0
  1  2  1  0
  2  3  1  0
  2  4  1  0
  4  5  1  0
  3  6  1  0
  5  6  1  0
  6  7  1  0
  4  8  1  0
  8 10  1  0
 10 11  1  0
 11 12  1  0
 12 13  1  0
 13 14  1  0
 10 15  1  0
 14 15  1  0
 13 16  1  0
 16 17  1  0
 17 18  1  0
 19 20  1  0
  9 21  1  0
 20 21  1  0
 21 22  1  0
 22 23  1  0
  9 24  1  0
 18 25  1  0
 23 25  1  0
 24 25  1  0
 26 27  1  0
 27 28  1  0
 27 29  1  0
 29 30  1  0
 28 31  1  0
 30 31  1  0
 31 32  1  0
 29 33  1  0
 33 35  1  0
 35 36  1  0
 36 37  1  0
 37 38  1  0
 38 39  1  0
 35 40  1  0
 39 40  1  0
 38 41  1  0
 41 42  1  0
 42 43  1  0
 44 45  1  0
 34 46  1  0
 45 46  1  0
 46 47  1  0
 47 48  1  0
 34 49  1  0
 43 50  1  0
 48 50  1  0
 49 50  1  0
  1 51  1  0
  2 52  1  1
  3 53  1  0
  4 54  1  6
  6 55  1  0
  7 56  1  0
  8 57  1  0
  8 58  1  0
  9 59  1  0
  9 60  1  0
 10 61  1  0
 11 62  1  0
 11 63  1  0
 12 64  1  0
 12 65  1  0
 13 66  1  0
 14 67  1  0
 14 68  1  0
 15 69  1  0
 15 70  1  0
 17 71  1  0
 17 72  1  0
 18 73  1  0
 18 74  1  0
 19 75  1  0
 19 76  1  0
 19 77  1  0
 20 78  1  0
 20 79  1  0
 21 80  1  0
 22 81  1  0
 22 82  1  0
 23 83  1  0
 24 84  1  0
 24 85  1  0
 25 86  1  0
 26 87  1  0
 27 88  1  0
 28 89  1  0
 29 90  1  1
 31 91  1  0
 32 92  1  0
 33 93  1  0
 33 94  1  0
 34 95  1  0
 34 96  1  0
 35 97  1  0
 36 98  1  0
 36 99  1  0
 37100  1  0
 37101  1  0
 38102  1  0
 39103  1  0
 39104  1  0
 40105  1  0
 40106  1  0
 42107  1  0
 42108  1  0
 43109  1  0
 43110  1  0
 44111  1  0
 44112  1  0
 44113  1  0
 45114  1  0
 45115  1  0
 46116  1  0
 47117  1  0
 47118  1  0
 48119  1  0
 49120  1  0
 49121  1  0
 50122  1  0
M  END
>  <PDBID>  (1) 
2XKW

>  <PDB ID>  (1) 
2XKW

>  <Generic Name>  (1) 
Pioglitazone

>  <Brand Name>  (1) 
Accel Pioglitazone#Ach-pioglitazone#Act Pioglitazone#Actoplus Met#Actoplus Met XR#Actos#Actos (15mg)#Actos (30mg)#Actos (45mg)#Ag-pioglitazone#Alogliptin and Pioglitazone#Apo-pioglitazone#Auro-pioglitazone#Ava-pioglitazone#Dom-pioglitazone#Duetact#Jamp-pioglitazone#Mint-pioglitazone#Mylan-pioglitazone#Oseni#PHL-pioglitazone#PMS-pioglitazone#Pioglitazole and Metformin Hydrochloride#Pioglitazone#Pioglitazone HCl#Pioglitazone HCl and Metformin HCl#Pioglitazone Hydrochloride#Pioglitazone Hydrochloride and Glimepiride#Pioglitazone Hydrochloride and Metformin Hydrochloride#Pioglitazone and Glimepiride#Pioglitazone and Metformin#Pioglitazone and Metformin Hydrochloride#Pioglitazone and Metformin Hydrocholride#Pioglitazonehydrochloride#Pro-pioglitazone#Ran-pioglitazone#Ratio-pioglitazone#Sandoz Pioglitazone#Teva-pioglitazone#Torrent-pioglitazone#Van-pioglitazone#Zym-pioglitazone#Actost#Glustin

>  <DrugBank ID>  (1) 
DB01132

>  <ATC Codes>  (1) 
A10BD12#A10BD09#A10BG03#A10BD06#A10BD05

>  <Ligand ID>  (1) 
8N6,P1B

>  <Target Name>  (1) 
Peroxisome proliferator-activated receptor gamma

>  <UniProt ID>  (1) 
P37231

>  <PDB ID.1>  (1) 
2XKW

>  <Seq. Identity>  (1) 
95%

$$$$
