PDB_DB01264_98
     RDKit          3D

 91 94  0  0  0  0  0  0  0  0999 V2000
   -8.7280   16.1900   18.4900 N   0  0  0  0  0  0  0  0  0  0  0  0
   -8.6590   15.9120   19.8190 C   0  0  0  0  0  0  0  0  0  0  0  0
   -9.8260   15.8320   20.5830 C   0  0  0  0  0  0  0  0  0  0  0  0
   -9.7470   15.5250   21.9410 C   0  0  0  0  0  0  0  0  0  0  0  0
   -8.5060   15.3090   22.5460 C   0  0  0  0  0  0  0  0  0  0  0  0
   -7.3390   15.3710   21.7760 C   0  0  0  0  0  0  0  0  0  0  0  0
   -7.4180   15.6730   20.4120 C   0  0  0  0  0  0  0  0  0  0  0  0
   -8.4250   14.9710   24.1160 S   0  0  1  0  0  4  0  0  0  0  0  0
   -9.5890   14.2270   24.4950 O   0  0  0  0  0  0  0  0  0  0  0  0
   -7.2730   14.1690   24.3740 O   0  0  0  0  0  0  0  0  0  0  0  0
   -8.3020   16.3060   25.0580 N   0  0  0  0  0  0  0  0  0  0  0  0
   -7.1690   17.1940   24.7030 C   0  0  0  0  0  0  0  0  0  0  0  0
   -6.5900   17.9220   25.9210 C   0  0  1  0  0  0  0  0  0  0  0  0
   -6.2160   16.9660   27.0530 C   0  0  0  0  0  0  0  0  0  0  0  0
   -5.3960   18.8010   25.5250 C   0  0  0  0  0  0  0  0  0  0  0  0
   -9.5550   17.0850   25.1760 C   0  0  0  0  0  0  0  0  0  0  0  0
  -10.0020   17.1050   26.6460 C   0  0  1  0  0  0  0  0  0  0  0  0
  -11.0830   18.0300   26.8900 O   0  0  0  0  0  0  0  0  0  0  0  0
  -10.4000   15.7310   27.1610 C   0  0  1  0  0  0  0  0  0  0  0  0
  -10.4980   15.9210   28.6040 N   0  0  0  0  0  0  0  0  0  0  0  0
   -9.7140   15.2600   29.4470 C   0  0  0  0  0  0  0  0  0  0  0  0
   -8.8440   14.4450   29.1150 O   0  0  0  0  0  0  0  0  0  0  0  0
   -9.9400   15.5810   30.8450 O   0  0  0  0  0  0  0  0  0  0  0  0
   -9.3450   14.7250   31.7950 C   0  0  1  0  0  0  0  0  0  0  0  0
   -9.0900   15.6300   32.9840 C   0  0  0  0  0  0  0  0  0  0  0  0
  -10.3190   15.6340   33.7110 O   0  0  0  0  0  0  0  0  0  0  0  0
  -11.1070   14.4780   33.3920 C   0  0  1  0  0  0  0  0  0  0  0  0
  -12.3680   14.8560   32.8400 O   0  0  0  0  0  0  0  0  0  0  0  0
  -12.7230   13.9900   31.7550 C   0  0  0  0  0  0  0  0  0  0  0  0
  -11.4400   13.3300   31.2910 C   0  0  0  0  0  0  0  0  0  0  0  0
  -10.3790   13.7390   32.3000 C   0  0  1  0  0  0  0  0  0  0  0  0
  -11.7920   15.2870   26.7040 C   0  0  0  0  0  0  0  0  0  0  0  0
  -13.2800   13.8750   28.1470 C   0  0  0  0  0  0  0  0  0  0  0  0
  -13.6490   12.6530   28.7060 C   0  0  0  0  0  0  0  0  0  0  0  0
  -12.8910   11.5160   28.4230 C   0  0  0  0  0  0  0  0  0  0  0  0
  -11.7820   11.6020   27.5810 C   0  0  0  0  0  0  0  0  0  0  0  0
  -11.4090   12.8190   27.0170 C   0  0  0  0  0  0  0  0  0  0  0  0
  -12.1600   13.9570   27.3060 C   0  0  0  0  0  0  0  0  0  0  0  0
   -8.9741   17.1815   18.3590 H   0  0  0  0  0  0  0  0  0  0  0  0
   -7.8149   16.0021   18.0521 H   0  0  0  0  0  0  0  0  0  0  0  0
   -8.5879   16.9872   20.0402 H   0  0  0  0  0  0  0  0  0  0  0  0
  -10.3243   16.8097   20.5062 H   0  0  0  0  0  0  0  0  0  0  0  0
  -10.3506   14.9645   20.1561 H   0  0  0  0  0  0  0  0  0  0  0  0
  -10.2207   16.3581   22.4810 H   0  0  0  0  0  0  0  0  0  0  0  0
  -10.2279   14.5375   22.0009 H   0  0  0  0  0  0  0  0  0  0  0  0
   -8.5894   14.2331   22.3330 H   0  0  0  0  0  0  0  0  0  0  0  0
   -6.6959   16.1367   22.2344 H   0  0  0  0  0  0  0  0  0  0  0  0
   -6.9734   14.3336   21.7854 H   0  0  0  0  0  0  0  0  0  0  0  0
   -6.9667   14.8268   19.8732 H   0  0  0  0  0  0  0  0  0  0  0  0
   -6.9125   16.6473   20.3400 H   0  0  0  0  0  0  0  0  0  0  0  0
   -9.6491   14.1886   25.4824 H   0  0  0  0  0  0  0  0  0  0  0  0
   -7.1451   14.0800   25.3517 H   0  0  0  0  0  0  0  0  0  0  0  0
   -6.3748   16.5864   24.2447 H   0  0  0  0  0  0  0  0  0  0  0  0
   -7.5476   17.9567   24.0065 H   0  0  0  0  0  0  0  0  0  0  0  0
   -7.3872   18.5744   26.3067 H   0  0  0  0  0  0  0  0  0  0  0  0
   -6.4062   17.4521   28.0213 H   0  0  0  0  0  0  0  0  0  0  0  0
   -6.8227   16.0517   26.9763 H   0  0  0  0  0  0  0  0  0  0  0  0
   -5.1499   16.7061   26.9763 H   0  0  0  0  0  0  0  0  0  0  0  0
   -4.8952   19.1697   26.4324 H   0  0  0  0  0  0  0  0  0  0  0  0
   -4.6860   18.2084   24.9294 H   0  0  0  0  0  0  0  0  0  0  0  0
   -5.7509   19.6550   24.9294 H   0  0  0  0  0  0  0  0  0  0  0  0
   -9.3818   18.1148   24.8303 H   0  0  0  0  0  0  0  0  0  0  0  0
  -10.3379   16.6208   24.5583 H   0  0  0  0  0  0  0  0  0  0  0  0
   -9.1144   17.4453   27.1996 H   0  0  0  0  0  0  0  0  0  0  0  0
  -11.2102   18.1389   27.8657 H   0  0  0  0  0  0  0  0  0  0  0  0
   -9.6788   14.9802   26.8058 H   0  0  0  0  0  0  0  0  0  0  0  0
  -10.3309   16.9225   28.7769 H   0  0  0  0  0  0  0  0  0  0  0  0
  -10.4545   14.4483   29.4992 H   0  0  0  0  0  0  0  0  0  0  0  0
   -8.4292   14.0565   29.9256 H   0  0  0  0  0  0  0  0  0  0  0  0
   -8.4684   14.2068   31.3791 H   0  0  0  0  0  0  0  0  0  0  0  0
   -8.2738   15.2326   33.6052 H   0  0  0  0  0  0  0  0  0  0  0  0
   -8.7862   16.6418   32.6775 H   0  0  0  0  0  0  0  0  0  0  0  0
  -11.2600   13.8831   34.3045 H   0  0  0  0  0  0  0  0  0  0  0  0
  -13.4399   13.2285   32.0959 H   0  0  0  0  0  0  0  0  0  0  0  0
  -13.1984   14.5521   30.9376 H   0  0  0  0  0  0  0  0  0  0  0  0
  -11.5547   12.2361   31.2771 H   0  0  0  0  0  0  0  0  0  0  0  0
  -11.1704   13.6392   30.2704 H   0  0  0  0  0  0  0  0  0  0  0  0
   -9.8518   12.8173   32.5874 H   0  0  0  0  0  0  0  0  0  0  0  0
  -12.5303   16.0399   27.0170 H   0  0  0  0  0  0  0  0  0  0  0  0
  -11.7849   15.1855   25.6087 H   0  0  0  0  0  0  0  0  0  0  0  0
  -14.1418   14.2286   27.5619 H   0  0  0  0  0  0  0  0  0  0  0  0
  -12.9805   14.4706   29.0220 H   0  0  0  0  0  0  0  0  0  0  0  0
  -13.6370   12.7830   29.7982 H   0  0  0  0  0  0  0  0  0  0  0  0
  -14.6235   12.4384   28.2431 H   0  0  0  0  0  0  0  0  0  0  0  0
  -12.5272   11.1305   29.3868 H   0  0  0  0  0  0  0  0  0  0  0  0
  -13.5893   10.8855   27.8530 H   0  0  0  0  0  0  0  0  0  0  0  0
  -10.9181   11.2476   28.1625 H   0  0  0  0  0  0  0  0  0  0  0  0
  -12.0928   11.0120   26.7062 H   0  0  0  0  0  0  0  0  0  0  0  0
  -10.3780   13.0222   27.3422 H   0  0  0  0  0  0  0  0  0  0  0  0
  -11.5640   12.6680   25.9385 H   0  0  0  0  0  0  0  0  0  0  0  0
  -11.5227   14.1744   28.1759 H   0  0  0  0  0  0  0  0  0  0  0  0
  1  2  1  0
  2  3  1  0
  3  4  1  0
  4  5  1  0
  5  6  1  0
  2  7  1  0
  6  7  1  0
  5  8  1  0
  8  9  1  1
  8 10  1  0
  8 11  1  0
 11 12  1  0
 12 13  1  0
 13 14  1  0
 13 15  1  0
 11 16  1  0
 16 17  1  0
 17 18  1  0
 17 19  1  0
 19 20  1  0
 20 21  1  0
 21 22  1  0
 21 23  1  0
 23 24  1  0
 24 25  1  0
 25 26  1  0
 26 27  1  0
 27 28  1  0
 28 29  1  0
 29 30  1  0
 24 31  1  0
 27 31  1  0
 30 31  1  0
 19 32  1  0
 33 34  1  0
 34 35  1  0
 35 36  1  0
 36 37  1  0
 32 38  1  0
 33 38  1  0
 37 38  1  0
  1 39  1  0
  1 40  1  0
  2 41  1  0
  3 42  1  0
  3 43  1  0
  4 44  1  0
  4 45  1  0
  5 46  1  0
  6 47  1  0
  6 48  1  0
  7 49  1  0
  7 50  1  0
  9 51  1  0
 10 52  1  0
 12 53  1  0
 12 54  1  0
 13 55  1  1
 14 56  1  0
 14 57  1  0
 14 58  1  0
 15 59  1  0
 15 60  1  0
 15 61  1  0
 16 62  1  0
 16 63  1  0
 17 64  1  1
 18 65  1  0
 19 66  1  1
 20 67  1  0
 21 68  1  0
 22 69  1  0
 24 70  1  6
 25 71  1  0
 25 72  1  0
 27 73  1  1
 29 74  1  0
 29 75  1  0
 30 76  1  0
 30 77  1  0
 31 78  1  1
 32 79  1  0
 32 80  1  0
 33 81  1  0
 33 82  1  0
 34 83  1  0
 34 84  1  0
 35 85  1  0
 35 86  1  0
 36 87  1  0
 36 88  1  0
 37 89  1  0
 37 90  1  0
 38 91  1  0
M  END
>  <PDBID>  (1) 
4LL3

>  <PDB ID>  (1) 
4LL3

>  <Generic Name>  (1) 
Darunavir

>  <Brand Name>  (1) 
Pat-darunavir#Prezcobix#Prezista

>  <DrugBank ID>  (1) 
DB01264

>  <ATC Codes>  (1) 
J05AE10#J05AR14

>  <Ligand ID>  (1) 
017

>  <Target Name>  (1) 
Pol polyprotein

>  <UniProt ID>  (1) 
Q72874

>  <PDB ID.1>  (1) 
4LL3

>  <Seq. Identity>  (1) 
98%

$$$$
