PDB_DB08901_98
     RDKit          3D

 92 96  0  0  0  0  0  0  0  0999 V2000
   16.2310   -9.9090    7.9150 N   0  0  0  0  0  0  0  0  0  0  0  0
   12.9000   -5.1270   23.2000 N   0  0  0  0  0  0  0  0  0  0  0  0
   17.3260   -9.9860   12.5720 C   0  0  0  0  0  0  0  0  0  0  0  0
   17.2980  -10.2030   14.0150 C   0  0  0  0  0  0  0  0  0  0  0  0
   17.8810  -11.3660   14.6810 C   0  0  0  0  0  0  0  0  0  0  0  0
   17.7750  -11.4770   16.1130 C   0  0  0  0  0  0  0  0  0  0  0  0
   17.1060  -10.4650   16.8650 C   0  0  0  0  0  0  0  0  0  0  0  0
   16.6420   -9.2130   14.7850 C   0  0  0  0  0  0  0  0  0  0  0  0
   14.7600   -7.7420   19.1280 C   0  0  0  0  0  0  0  0  0  0  0  0
   14.1970   -7.0990   21.4420 C   0  0  0  0  0  0  0  0  0  0  0  0
   12.6950   -6.3770   19.5660 C   0  0  0  0  0  0  0  0  0  0  0  0
   12.1430   -5.7110   22.0850 C   0  0  0  0  0  0  0  0  0  0  0  0
   13.8140   -4.0230   22.7780 C   0  0  0  0  0  0  0  0  0  0  0  0
   14.6900   -3.5660   23.9660 C   0  0  0  0  0  0  0  0  0  0  0  0
   12.0190   -4.6430   24.2810 C   0  0  0  0  0  0  0  0  0  0  0  0
   17.8810   -8.3560    6.7910 C   0  0  0  0  0  0  0  0  0  0  0  0
   18.9680   -7.5460    7.0730 C   0  0  0  0  0  0  0  0  0  0  0  0
   19.4380   -7.4590    8.4160 C   0  0  0  0  0  0  0  0  0  0  0  0
   18.9160   -8.1000    9.4720 N   0  0  0  0  0  0  0  0  0  0  0  0
   17.8350   -8.8910    9.1390 N   0  0  0  0  0  0  0  0  0  0  0  0
   17.2570   -9.0790    7.8570 C   0  0  0  0  0  0  0  0  0  0  0  0
   16.1200  -10.2720    9.2430 C   0  0  0  0  0  0  0  0  0  0  0  0
   17.0820   -9.6650    9.9810 C   0  0  0  0  0  0  0  0  0  0  0  0
   17.2530   -9.8180   11.3670 C   0  0  0  0  0  0  0  0  0  0  0  0
   16.5350   -9.3160   16.1960 C   0  0  0  0  0  0  0  0  0  0  0  0
   18.6010  -12.4810   13.9240 C   0  0  0  0  0  0  0  0  0  0  0  0
   15.8260   -8.2210   16.9350 C   0  0  0  0  0  0  0  0  0  0  0  0
   15.4400   -7.2170   16.3280 O   0  0  0  0  0  0  0  0  0  0  0  0
   15.6540   -8.4150   18.2560 N   0  0  0  0  0  0  0  0  0  0  0  0
   15.0600   -7.7600   20.5120 C   0  0  0  0  0  0  0  0  0  0  0  0
   13.0080   -6.3980   21.0010 C   0  0  0  0  0  0  0  0  0  0  0  0
   13.5810   -7.0510   18.6710 C   0  0  0  0  0  0  0  0  0  0  0  0
   11.4650   -5.6670   18.9560 C   0  0  1  0  0  0  0  0  0  0  0  0
   11.6320   -4.3580   19.0130 F   0  0  0  0  0  0  0  0  0  0  0  0
   11.2790   -5.9720   17.6740 F   0  0  0  0  0  0  0  0  0  0  0  0
   10.3470   -6.0030   19.6050 F   0  0  0  0  0  0  0  0  0  0  0  0
   12.8390   -4.0700   25.4790 C   0  0  0  0  0  0  0  0  0  0  0  0
   14.6190   -2.5080   26.1490 C   0  0  0  0  0  0  0  0  0  0  0  0
   13.8310   -3.0380   25.0450 N   0  0  0  0  0  0  0  0  0  0  0  0
   15.3708   -9.4397    7.5977 H   0  0  0  0  0  0  0  0  0  0  0  0
   17.8345   -9.0193   12.7016 H   0  0  0  0  0  0  0  0  0  0  0  0
   17.4738  -11.0643   12.4127 H   0  0  0  0  0  0  0  0  0  0  0  0
   16.3424  -10.7388   13.9159 H   0  0  0  0  0  0  0  0  0  0  0  0
   18.8321  -10.8249   14.7933 H   0  0  0  0  0  0  0  0  0  0  0  0
   17.2517  -12.4223   16.3192 H   0  0  0  0  0  0  0  0  0  0  0  0
   18.8188  -11.3892   16.4486 H   0  0  0  0  0  0  0  0  0  0  0  0
   16.2826  -10.9609   17.3999 H   0  0  0  0  0  0  0  0  0  0  0  0
   17.9147  -10.0264   17.4680 H   0  0  0  0  0  0  0  0  0  0  0  0
   17.1649   -8.2667   14.5826 H   0  0  0  0  0  0  0  0  0  0  0  0
   15.5959   -9.3199   14.4622 H   0  0  0  0  0  0  0  0  0  0  0  0
   14.1756   -8.6668   19.2426 H   0  0  0  0  0  0  0  0  0  0  0  0
   13.8592   -7.8674   22.1529 H   0  0  0  0  0  0  0  0  0  0  0  0
   14.8309   -6.2808   21.8145 H   0  0  0  0  0  0  0  0  0  0  0  0
   13.2818   -5.4536   19.4515 H   0  0  0  0  0  0  0  0  0  0  0  0
   11.4516   -6.4609   22.4968 H   0  0  0  0  0  0  0  0  0  0  0  0
   11.6308   -4.8744   21.5874 H   0  0  0  0  0  0  0  0  0  0  0  0
   14.4633   -4.3805   21.9652 H   0  0  0  0  0  0  0  0  0  0  0  0
   13.2095   -3.1717   22.4318 H   0  0  0  0  0  0  0  0  0  0  0  0
   15.2677   -4.4221   24.3447 H   0  0  0  0  0  0  0  0  0  0  0  0
   15.3772   -2.7761   23.6286 H   0  0  0  0  0  0  0  0  0  0  0  0
   11.3680   -3.8507   23.8829 H   0  0  0  0  0  0  0  0  0  0  0  0
   11.4250   -5.4935   24.6468 H   0  0  0  0  0  0  0  0  0  0  0  0
   17.1088   -7.7138    6.3423 H   0  0  0  0  0  0  0  0  0  0  0  0
   18.3003   -9.1445    6.1488 H   0  0  0  0  0  0  0  0  0  0  0  0
   19.8071   -7.9089    6.4613 H   0  0  0  0  0  0  0  0  0  0  0  0
   18.6026   -6.5313    6.8564 H   0  0  0  0  0  0  0  0  0  0  0  0
   20.4903   -7.7767    8.3756 H   0  0  0  0  0  0  0  0  0  0  0  0
   19.1416   -6.4269    8.6546 H   0  0  0  0  0  0  0  0  0  0  0  0
   19.6451   -8.6975    9.8872 H   0  0  0  0  0  0  0  0  0  0  0  0
   17.9334   -9.9277    7.6773 H   0  0  0  0  0  0  0  0  0  0  0  0
   15.1310   -9.9717    9.6194 H   0  0  0  0  0  0  0  0  0  0  0  0
   16.2411  -11.3621    9.3262 H   0  0  0  0  0  0  0  0  0  0  0  0
   16.4079   -8.8144   10.1601 H   0  0  0  0  0  0  0  0  0  0  0  0
   17.4554   -8.7430   11.4827 H   0  0  0  0  0  0  0  0  0  0  0  0
   17.7093  -10.8051   11.2017 H   0  0  0  0  0  0  0  0  0  0  0  0
   17.4877   -8.7776   16.3075 H   0  0  0  0  0  0  0  0  0  0  0  0
   19.0525  -13.1802   14.6432 H   0  0  0  0  0  0  0  0  0  0  0  0
   17.8799  -13.0200   13.2919 H   0  0  0  0  0  0  0  0  0  0  0  0
   19.3889  -12.0455   13.2919 H   0  0  0  0  0  0  0  0  0  0  0  0
   16.7904   -7.7304   17.1332 H   0  0  0  0  0  0  0  0  0  0  0  0
   15.1723   -6.5206   16.9787 H   0  0  0  0  0  0  0  0  0  0  0  0
   16.5858   -8.2584   18.6661 H   0  0  0  0  0  0  0  0  0  0  0  0
   15.1011   -8.8170   20.8138 H   0  0  0  0  0  0  0  0  0  0  0  0
   15.9912   -7.1779   20.5752 H   0  0  0  0  0  0  0  0  0  0  0  0
   13.5948   -5.4747   20.8865 H   0  0  0  0  0  0  0  0  0  0  0  0
   13.9292   -6.2918   17.9552 H   0  0  0  0  0  0  0  0  0  0  0  0
   12.9547   -7.8819   18.3143 H   0  0  0  0  0  0  0  0  0  0  0  0
   12.1431   -3.6119   26.1973 H   0  0  0  0  0  0  0  0  0  0  0  0
   13.3960   -4.9020   25.9346 H   0  0  0  0  0  0  0  0  0  0  0  0
   14.1650   -2.8133   27.1033 H   0  0  0  0  0  0  0  0  0  0  0  0
   15.6449   -2.9004   26.0888 H   0  0  0  0  0  0  0  0  0  0  0  0
   14.6424   -1.4099   26.0888 H   0  0  0  0  0  0  0  0  0  0  0  0
  3  4  1  0
  4  5  1  0
  5  6  1  0
  6  7  1  0
  4  8  1  0
  2 12  1  0
  2 13  1  0
 13 14  1  0
  2 15  1  0
 16 17  1  0
 17 18  1  0
 18 19  1  0
 19 20  1  0
  1 21  1  0
 16 21  1  0
 20 21  1  0
  1 22  1  0
 20 23  1  0
 22 23  1  0
  3 24  1  0
 23 24  1  0
  7 25  1  0
  8 25  1  0
  5 26  1  0
 25 27  1  0
 27 28  1  0
  9 29  1  0
 27 29  1  0
  9 30  1  0
 10 30  1  0
 10 31  1  0
 11 31  1  0
 12 31  1  0
  9 32  1  0
 11 32  1  0
 11 33  1  0
 33 34  1  6
 33 35  1  0
 33 36  1  0
 15 37  1  0
 14 39  1  0
 37 39  1  0
 38 39  1  0
  1 40  1  0
  3 41  1  0
  3 42  1  0
  4 43  1  0
  5 44  1  0
  6 45  1  0
  6 46  1  0
  7 47  1  0
  7 48  1  0
  8 49  1  0
  8 50  1  0
  9 51  1  0
 10 52  1  0
 10 53  1  0
 11 54  1  0
 12 55  1  0
 12 56  1  0
 13 57  1  0
 13 58  1  0
 14 59  1  0
 14 60  1  0
 15 61  1  0
 15 62  1  0
 16 63  1  0
 16 64  1  0
 17 65  1  0
 17 66  1  0
 18 67  1  0
 18 68  1  0
 19 69  1  0
 21 70  1  0
 22 71  1  0
 22 72  1  0
 23 73  1  0
 24 74  1  0
 24 75  1  0
 25 76  1  0
 26 77  1  0
 26 78  1  0
 26 79  1  0
 27 80  1  0
 28 81  1  0
 29 82  1  0
 30 83  1  0
 30 84  1  0
 31 85  1  0
 32 86  1  0
 32 87  1  0
 37 88  1  0
 37 89  1  0
 38 90  1  0
 38 91  1  0
 38 92  1  0
M  END
>  <PDBID>  (1) 
3OXZ

>  <PDB ID>  (1) 
3OXZ

>  <Generic Name>  (1) 
Ponatinib

>  <Brand Name>  (1) 
Iclusig

>  <DrugBank ID>  (1) 
DB08901

>  <ATC Codes>  (1) 
L01XE24

>  <Ligand ID>  (1) 
0LI

>  <Target Name>  (1) 
Tyrosine-protein kinase ABL1

>  <UniProt ID>  (1) 
P00519

>  <PDB ID.1>  (1) 
3OXZ

>  <Seq. Identity>  (1) 
95%

$$$$
