PDB_DB00382_99
     RDKit          3D

 29 31  0  0  0  0  0  0  0  0999 V2000
    6.3620   71.2610   69.0250 C   0  0  0  0  0  0  0  0  0  0  0  0
    6.6970   70.9550   67.7120 C   0  0  0  0  0  0  0  0  0  0  0  0
    5.7190   70.5180   66.8190 C   0  0  0  0  0  0  0  0  0  0  0  0
    4.3510   70.3810   67.2600 C   0  0  0  0  0  0  0  0  0  0  0  0
    4.0560   70.7020   68.6030 C   0  0  0  0  0  0  0  0  0  0  0  0
    5.0530   71.1360   69.4680 C   0  0  0  0  0  0  0  0  0  0  0  0
    6.0680   70.2360   65.5850 N   0  0  0  0  0  0  0  0  0  0  0  0
    5.2070   69.8210   64.6830 C   0  0  0  0  0  0  0  0  0  0  0  0
    3.8330   69.6340   64.9950 C   0  0  0  0  0  0  0  0  0  0  0  0
    3.3960   69.9330   66.3090 C   0  0  0  0  0  0  0  0  0  0  0  0
    5.7760   69.4590   63.2890 C   0  0  0  0  0  0  0  0  0  0  0  0
    4.7360   69.3630   62.1450 C   0  0  0  0  0  0  0  0  0  0  0  0
    3.5150   68.5400   62.5970 C   0  0  0  0  0  0  0  0  0  0  0  0
    2.8600   69.1770   63.8480 C   0  0  0  0  0  0  0  0  0  0  0  0
    2.0920   69.7980   66.6250 N   0  0  0  0  0  0  0  0  0  0  0  0
    6.9745   70.6097   69.6658 H   0  0  0  0  0  0  0  0  0  0  0  0
    6.5368   72.3458   69.0771 H   0  0  0  0  0  0  0  0  0  0  0  0
    7.1372   71.8649   67.2780 H   0  0  0  0  0  0  0  0  0  0  0  0
    7.3474   70.0745   67.8196 H   0  0  0  0  0  0  0  0  0  0  0  0
    3.2969   71.4976   68.5755 H   0  0  0  0  0  0  0  0  0  0  0  0
    3.7713   69.7285   69.0288 H   0  0  0  0  0  0  0  0  0  0  0  0
    5.0709   70.4278   70.3095 H   0  0  0  0  0  0  0  0  0  0  0  0
    4.7624   72.1755   69.6802 H   0  0  0  0  0  0  0  0  0  0  0  0
    6.8487   69.2816   63.1221 H   0  0  0  0  0  0  0  0  0  0  0  0
    4.8529   69.8182   61.1505 H   0  0  0  0  0  0  0  0  0  0  0  0
    3.1575   67.6261   62.1001 H   0  0  0  0  0  0  0  0  0  0  0  0
    1.7703   69.3030   63.9295 H   0  0  0  0  0  0  0  0  0  0  0  0
    1.4212   69.4709   65.9151 H   0  0  0  0  0  0  0  0  0  0  0  0
    1.7668   70.0219   67.5763 H   0  0  0  0  0  0  0  0  0  0  0  0
  1  2  1  0
  2  3  1  0
  3  4  2  0
  4  5  1  0
  1  6  1  0
  5  6  1  0
  3  7  1  0
  7  8  2  0
  8  9  1  0
  4 10  1  0
  9 10  2  0
  8 11  1  0
 11 12  2  0
 12 13  1  0
  9 14  1  0
 13 14  2  0
 10 15  1  0
  1 16  1  0
  1 17  1  0
  2 18  1  0
  2 19  1  0
  5 20  1  0
  5 21  1  0
  6 22  1  0
  6 23  1  0
 11 24  1  0
 12 25  1  0
 13 26  1  0
 14 27  1  0
 15 28  1  0
 15 29  1  0
M  END
>  <PDBID>  (1) 
1ACJ

>  <PDB ID>  (1) 
1ACJ

>  <Generic Name>  (1) 
Tacrine

>  <Brand Name>  (1) 
Cognex#Talem

>  <DrugBank ID>  (1) 
DB00382

>  <ATC Codes>  (1) 
N06DA01

>  <Ligand ID>  (1) 
THA

>  <Target Name>  (1) 
Acetylcholinesterase

>  <UniProt ID>  (1) 
P22303

>  <PDB ID.1>  (1) 
1ACJ

>  <Seq. Identity>  (1) 
57%

$$$$
