PDB_DB00820_99
     RDKit          3D

132142  0  0  0  0  0  0  0  0999 V2000
   24.4350   39.2430  103.9130 C   0  0  0  0  0  0  0  0  0  0  0  0
   24.1360   38.3240  102.8310 C   0  0  0  0  0  0  0  0  0  0  0  0
   22.7830   38.0950  102.3810 C   0  0  0  0  0  0  0  0  0  0  0  0
   21.6780   38.8160  103.0450 C   0  0  0  0  0  0  0  0  0  0  0  0
   20.2650   38.8320  102.8660 C   0  0  0  0  0  0  0  0  0  0  0  0
   19.7770   39.7580  103.8580 C   0  0  0  0  0  0  0  0  0  0  0  0
   20.8310   40.3200  104.6440 N   0  0  0  0  0  0  0  0  0  0  0  0
   21.9880   39.7480  104.1500 C   0  0  0  0  0  0  0  0  0  0  0  0
   23.3840   39.9550  104.5770 C   0  0  0  0  0  0  0  0  0  0  0  0
   18.2200   40.0760  104.0230 C   0  0  2  0  0  0  0  0  0  0  0  0
   17.2740   38.9820  103.3870 N   0  0  0  0  0  0  0  0  0  0  0  0
   15.8670   39.0930  103.4970 C   0  0  0  0  0  0  0  0  0  0  0  0
   15.2510   40.0230  104.0710 O   0  0  0  0  0  0  0  0  0  0  0  0
   14.9650   37.9990  102.9000 C   0  0  0  0  0  0  0  0  0  0  0  0
   15.5520   37.1460  101.8010 N   0  0  0  0  0  0  0  0  0  0  0  0
   16.9480   37.0020  101.6110 C   0  0  0  0  0  0  0  0  0  0  0  0
   17.4320   36.2930  100.6780 O   0  0  0  0  0  0  0  0  0  0  0  0
   17.9280   37.7580  102.6480 C   0  0  1  0  0  0  0  0  0  0  0  0
   19.2610   38.1050  101.8980 C   0  0  0  0  0  0  0  0  0  0  0  0
   14.5570   36.4650  100.9360 C   0  0  0  0  0  0  0  0  0  0  0  0
   18.0370   41.5720  103.4140 C   0  0  0  0  0  0  0  0  0  0  0  0
   17.2470   42.5530  104.1340 C   0  0  0  0  0  0  0  0  0  0  0  0
   17.0790   43.8830  103.6150 C   0  0  0  0  0  0  0  0  0  0  0  0
   17.7210   44.2480  102.3330 C   0  0  0  0  0  0  0  0  0  0  0  0
   17.6890   45.4370  101.6740 O   0  0  0  0  0  0  0  0  0  0  0  0
   18.4970   45.1810  100.4870 C   0  0  0  0  0  0  0  0  0  0  0  0
   18.9980   43.8120  100.4840 O   0  0  0  0  0  0  0  0  0  0  0  0
   18.4950   43.2940  101.6250 C   0  0  0  0  0  0  0  0  0  0  0  0
   18.6630   41.9880  102.1300 C   0  0  0  0  0  0  0  0  0  0  0  0
    3.1000   16.7710   72.5470 C   0  0  0  0  0  0  0  0  0  0  0  0
    4.1850   17.6310   73.0060 C   0  0  0  0  0  0  0  0  0  0  0  0
    4.3140   18.0010   74.3900 C   0  0  0  0  0  0  0  0  0  0  0  0
    3.3230   17.4950   75.3460 C   0  0  0  0  0  0  0  0  0  0  0  0
    3.1650   17.6590   76.7280 C   0  0  0  0  0  0  0  0  0  0  0  0
    1.9900   16.8980   77.0700 C   0  0  0  0  0  0  0  0  0  0  0  0
    1.4030   16.2600   75.9340 N   0  0  0  0  0  0  0  0  0  0  0  0
    2.2220   16.6240   74.8820 C   0  0  0  0  0  0  0  0  0  0  0  0
    2.1220   16.2670   73.4660 C   0  0  0  0  0  0  0  0  0  0  0  0
    1.4600   16.8300   78.5660 C   0  0  2  0  0  0  0  0  0  0  0  0
    1.9880   17.9870   79.4670 N   0  0  0  0  0  0  0  0  0  0  0  0
    1.5690   18.0710   80.7950 C   0  0  0  0  0  0  0  0  0  0  0  0
    0.7790   17.2620   81.3380 O   0  0  0  0  0  0  0  0  0  0  0  0
    2.0750   19.2310   81.6980 C   0  0  0  0  0  0  0  0  0  0  0  0
    3.3860   19.8780   81.3020 N   0  0  0  0  0  0  0  0  0  0  0  0
    3.8710   19.8290   79.9830 C   0  0  0  0  0  0  0  0  0  0  0  0
    4.9630   20.3640   79.6610 O   0  0  0  0  0  0  0  0  0  0  0  0
    2.9770   19.0570   78.8730 C   0  0  1  0  0  0  0  0  0  0  0  0
    3.9560   18.4360   77.8230 C   0  0  0  0  0  0  0  0  0  0  0  0
    4.1350   20.5670   82.3930 C   0  0  0  0  0  0  0  0  0  0  0  0
    1.8670   15.3790   79.1530 C   0  0  0  0  0  0  0  0  0  0  0  0
    0.8550   14.5540   79.8190 C   0  0  0  0  0  0  0  0  0  0  0  0
    1.1990   13.2670   80.3620 C   0  0  0  0  0  0  0  0  0  0  0  0
    2.5990   12.7800   80.2400 C   0  0  0  0  0  0  0  0  0  0  0  0
    3.1400   11.6050   80.6840 O   0  0  0  0  0  0  0  0  0  0  0  0
    4.5390   11.7010   80.2690 C   0  0  0  0  0  0  0  0  0  0  0  0
    4.7890   12.9650   79.5750 O   0  0  0  0  0  0  0  0  0  0  0  0
    3.5850   13.5790   79.5870 C   0  0  0  0  0  0  0  0  0  0  0  0
    3.2540   14.8490   79.0510 C   0  0  0  0  0  0  0  0  0  0  0  0
   24.9570   38.6598  104.6859 H   0  0  0  0  0  0  0  0  0  0  0  0
   24.9941   40.0443  103.4078 H   0  0  0  0  0  0  0  0  0  0  0  0
   24.6962   38.6843  101.9556 H   0  0  0  0  0  0  0  0  0  0  0  0
   24.4045   37.3515  103.2693 H   0  0  0  0  0  0  0  0  0  0  0  0
   22.7480   38.3622  101.3145 H   0  0  0  0  0  0  0  0  0  0  0  0
   22.5968   37.0394  102.6282 H   0  0  0  0  0  0  0  0  0  0  0  0
   21.7790   39.6378  102.3208 H   0  0  0  0  0  0  0  0  0  0  0  0
   20.1644   38.0070  103.5866 H   0  0  0  0  0  0  0  0  0  0  0  0
   19.6787   38.9334  104.5794 H   0  0  0  0  0  0  0  0  0  0  0  0
   20.8579   41.3438  104.5348 H   0  0  0  0  0  0  0  0  0  0  0  0
   22.0868   40.5716  103.4276 H   0  0  0  0  0  0  0  0  0  0  0  0
   23.4369   39.6848  105.6420 H   0  0  0  0  0  0  0  0  0  0  0  0
   23.5806   41.0065  104.3209 H   0  0  0  0  0  0  0  0  0  0  0  0
   17.9051   40.0415  105.0764 H   0  0  0  0  0  0  0  0  0  0  0  0
   15.8964   38.5296  104.4413 H   0  0  0  0  0  0  0  0  0  0  0  0
   15.3248   39.9116  105.0519 H   0  0  0  0  0  0  0  0  0  0  0  0
   14.6723   37.3270  103.7202 H   0  0  0  0  0  0  0  0  0  0  0  0
   14.1352   38.5429  102.4250 H   0  0  0  0  0  0  0  0  0  0  0  0
   16.9483   36.1263  102.2766 H   0  0  0  0  0  0  0  0  0  0  0  0
   17.9452   35.5412  101.0671 H   0  0  0  0  0  0  0  0  0  0  0  0
   18.1498   37.0762  103.4822 H   0  0  0  0  0  0  0  0  0  0  0  0
   19.0363   38.7651  101.0473 H   0  0  0  0  0  0  0  0  0  0  0  0
   19.7224   37.1718  101.5426 H   0  0  0  0  0  0  0  0  0  0  0  0
   13.8123   35.9553  101.5649 H   0  0  0  0  0  0  0  0  0  0  0  0
   14.0533   37.2086  100.3009 H   0  0  0  0  0  0  0  0  0  0  0  0
   15.0679   35.7263  100.3009 H   0  0  0  0  0  0  0  0  0  0  0  0
   17.1365   41.2424  102.8750 H   0  0  0  0  0  0  0  0  0  0  0  0
   16.2383   42.1274  104.2405 H   0  0  0  0  0  0  0  0  0  0  0  0
   17.8354   42.7188  105.0485 H   0  0  0  0  0  0  0  0  0  0  0  0
   15.9981   44.0440  103.4895 H   0  0  0  0  0  0  0  0  0  0  0  0
   17.5932   44.5166  104.3527 H   0  0  0  0  0  0  0  0  0  0  0  0
   16.8214   43.9228  101.7899 H   0  0  0  0  0  0  0  0  0  0  0  0
   17.8803   45.3408   99.5902 H   0  0  0  0  0  0  0  0  0  0  0  0
   19.3551   45.8692  100.4909 H   0  0  0  0  0  0  0  0  0  0  0  0
   17.5961   42.9685  101.0809 H   0  0  0  0  0  0  0  0  0  0  0  0
   19.7461   41.8360  102.2475 H   0  0  0  0  0  0  0  0  0  0  0  0
   18.1261   41.3744  101.3916 H   0  0  0  0  0  0  0  0  0  0  0  0
    2.5491   17.3414   71.7847 H   0  0  0  0  0  0  0  0  0  0  0  0
    3.6289   15.8599   72.2306 H   0  0  0  0  0  0  0  0  0  0  0  0
    5.1214   17.1232   72.7315 H   0  0  0  0  0  0  0  0  0  0  0  0
    3.9467   18.5911   72.5248 H   0  0  0  0  0  0  0  0  0  0  0  0
    5.3002   17.6509   74.7290 H   0  0  0  0  0  0  0  0  0  0  0  0
    4.1586   19.0900   74.3928 H   0  0  0  0  0  0  0  0  0  0  0  0
    3.9471   16.6066   75.5228 H   0  0  0  0  0  0  0  0  0  0  0  0
    2.5390   18.5461   76.5512 H   0  0  0  0  0  0  0  0  0  0  0  0
    1.3642   17.7855   76.8949 H   0  0  0  0  0  0  0  0  0  0  0  0
    1.3940   15.2370   76.0533 H   0  0  0  0  0  0  0  0  0  0  0  0
    2.8475   15.7373   75.0622 H   0  0  0  0  0  0  0  0  0  0  0  0
    1.1403   16.6174   73.1148 H   0  0  0  0  0  0  0  0  0  0  0  0
    2.2908   15.1801   73.4577 H   0  0  0  0  0  0  0  0  0  0  0  0
    0.3680   16.9624   78.5668 H   0  0  0  0  0  0  0  0  0  0  0  0
    0.7176   18.6956   80.4869 H   0  0  0  0  0  0  0  0  0  0  0  0
    0.8535   17.3383   82.3222 H   0  0  0  0  0  0  0  0  0  0  0  0
    1.3030   20.0146   81.6981 H   0  0  0  0  0  0  0  0  0  0  0  0
    2.2635   18.7723   82.6799 H   0  0  0  0  0  0  0  0  0  0  0  0
    3.3440   20.7671   79.7544 H   0  0  0  0  0  0  0  0  0  0  0  0
    5.4640   20.6095   80.4788 H   0  0  0  0  0  0  0  0  0  0  0  0
    2.3082   19.7890   78.3966 H   0  0  0  0  0  0  0  0  0  0  0  0
    4.6418   17.7437   78.3333 H   0  0  0  0  0  0  0  0  0  0  0  0
    4.5223   19.2476   77.3427 H   0  0  0  0  0  0  0  0  0  0  0  0
    3.7609   20.2229   83.3685 H   0  0  0  0  0  0  0  0  0  0  0  0
    5.2062   20.3320   82.3074 H   0  0  0  0  0  0  0  0  0  0  0  0
    3.9901   21.6540   82.3074 H   0  0  0  0  0  0  0  0  0  0  0  0
    2.1247   15.8414   80.1173 H   0  0  0  0  0  0  0  0  0  0  0  0
    0.4613   15.1524   80.6538 H   0  0  0  0  0  0  0  0  0  0  0  0
    0.1677   14.2988   78.9990 H   0  0  0  0  0  0  0  0  0  0  0  0
    0.9613   13.2969   81.4356 H   0  0  0  0  0  0  0  0  0  0  0  0
    0.6212   12.5605   79.7480 H   0  0  0  0  0  0  0  0  0  0  0  0
    2.8486   13.2573   81.1991 H   0  0  0  0  0  0  0  0  0  0  0  0
    5.1838   11.6441   81.1584 H   0  0  0  0  0  0  0  0  0  0  0  0
    4.7609   10.8712   79.5818 H   0  0  0  0  0  0  0  0  0  0  0  0
    3.8365   14.0533   80.5471 H   0  0  0  0  0  0  0  0  0  0  0  0
    3.4976   14.8107   77.9790 H   0  0  0  0  0  0  0  0  0  0  0  0
    3.8277   15.5401   79.6860 H   0  0  0  0  0  0  0  0  0  0  0  0
  1  2  1  0
  2  3  1  0
  3  4  1  0
  4  5  1  0
  5  6  1  0
  6  7  1  0
  4  8  1  0
  7  8  1  0
  1  9  1  0
  8  9  1  0
  6 10  1  0
 10 11  1  0
 11 12  1  0
 12 13  1  0
 12 14  1  0
 14 15  1  0
 15 16  1  0
 16 17  1  0
 11 18  1  0
 16 18  1  0
  5 19  1  0
 18 19  1  0
 15 20  1  0
 10 21  1  0
 21 22  1  0
 22 23  1  0
 23 24  1  0
 24 25  1  0
 25 26  1  0
 26 27  1  0
 24 28  1  0
 27 28  1  0
 21 29  1  0
 28 29  1  0
 30 31  1  0
 31 32  1  0
 32 33  1  0
 33 34  1  0
 34 35  1  0
 35 36  1  0
 33 37  1  0
 36 37  1  0
 30 38  1  0
 37 38  1  0
 35 39  1  0
 39 40  1  0
 40 41  1  0
 41 42  1  0
 41 43  1  0
 43 44  1  0
 44 45  1  0
 45 46  1  0
 40 47  1  0
 45 47  1  0
 34 48  1  0
 47 48  1  0
 44 49  1  0
 39 50  1  0
 50 51  1  0
 51 52  1  0
 52 53  1  0
 53 54  1  0
 54 55  1  0
 55 56  1  0
 53 57  1  0
 56 57  1  0
 50 58  1  0
 57 58  1  0
  1 59  1  0
  1 60  1  0
  2 61  1  0
  2 62  1  0
  3 63  1  0
  3 64  1  0
  4 65  1  0
  5 66  1  0
  6 67  1  0
  7 68  1  0
  8 69  1  0
  9 70  1  0
  9 71  1  0
 10 72  1  1
 12 73  1  0
 13 74  1  0
 14 75  1  0
 14 76  1  0
 16 77  1  0
 17 78  1  0
 18 79  1  1
 19 80  1  0
 19 81  1  0
 20 82  1  0
 20 83  1  0
 20 84  1  0
 21 85  1  0
 22 86  1  0
 22 87  1  0
 23 88  1  0
 23 89  1  0
 24 90  1  0
 26 91  1  0
 26 92  1  0
 28 93  1  0
 29 94  1  0
 29 95  1  0
 30 96  1  0
 30 97  1  0
 31 98  1  0
 31 99  1  0
 32100  1  0
 32101  1  0
 33102  1  0
 34103  1  0
 35104  1  0
 36105  1  0
 37106  1  0
 38107  1  0
 38108  1  0
 39109  1  6
 41110  1  0
 42111  1  0
 43112  1  0
 43113  1  0
 45114  1  0
 46115  1  0
 47116  1  6
 48117  1  0
 48118  1  0
 49119  1  0
 49120  1  0
 49121  1  0
 50122  1  0
 51123  1  0
 51124  1  0
 52125  1  0
 52126  1  0
 53127  1  0
 55128  1  0
 55129  1  0
 57130  1  0
 58131  1  0
 58132  1  0
M  END
>  <PDBID>  (1) 
1UDU

>  <PDB ID>  (1) 
1UDU

>  <Generic Name>  (1) 
Tadalafil

>  <Brand Name>  (1) 
Act Tadalafil#Adcirca#Apo-tadalafil#Apo-tadalafil Pah#Auro-tadalafil#Cialis#Dom-tadalafil#Ipg-tadalafil#Jamp-tadalafil#Mar-tadalafil#Mint-tadalafil#Mylan-tadalafil#PMS-tadalafil#Priva-tadalafil#Ran-tadalafil#Riva-tadalafil#Tadalafil#Teva-tadalafil

>  <DrugBank ID>  (1) 
DB00820

>  <ATC Codes>  (1) 
G04BE08

>  <Ligand ID>  (1) 
CIA

>  <Target Name>  (1) 
cGMP-specific 3',5'-cyclic phosphodiesterase

>  <UniProt ID>  (1) 
O76074

>  <PDB ID.1>  (1) 
1UDU

>  <Seq. Identity>  (1) 
94%

$$$$
