PDB_DB00396_99
     RDKit          3D

118124  0  0  0  0  0  0  0  0999 V2000
  -21.1960   28.3880  -15.7420 C   0  0  0  0  0  0  0  0  0  0  0  0
  -22.0250   28.9550  -14.6350 C   0  0  0  0  0  0  0  0  0  0  0  0
  -22.5400   27.9430  -13.6570 C   0  0  0  0  0  0  0  0  0  0  0  0
  -22.7660   28.2510  -12.4780 O   0  0  0  0  0  0  0  0  0  0  0  0
  -22.7920   26.5580  -14.1520 C   0  0  0  0  0  0  0  0  0  0  0  0
  -22.7070   26.3660  -15.6290 C   0  0  2  0  0  0  0  0  0  0  0  0
  -23.0370   25.0420  -16.2570 C   0  0  0  0  0  0  0  0  0  0  0  0
  -23.5160   25.2330  -17.6750 C   0  0  0  0  0  0  0  0  0  0  0  0
  -22.5790   26.1220  -18.5180 C   0  0  2  0  0  0  0  0  0  0  0  0
  -22.2210   27.4180  -17.8160 C   0  0  1  0  0  0  0  0  0  0  0  0
  -21.6920   27.1300  -16.4080 C   0  0  1  0  0  0  0  0  0  0  0  0
  -21.2620   28.2760  -18.6770 C   0  0  0  0  0  0  0  0  0  0  0  0
  -21.7660   28.4830  -20.0970 C   0  0  0  0  0  0  0  0  0  0  0  0
  -22.2120   27.1680  -20.8250 C   0  0  1  0  0  0  0  0  0  0  0  0
  -23.1270   26.3400  -19.9760 C   0  0  1  0  0  0  0  0  0  0  0  0
  -23.4610   25.1200  -20.7960 C   0  0  0  0  0  0  0  0  0  0  0  0
  -23.1760   25.4960  -22.2250 C   0  0  0  0  0  0  0  0  0  0  0  0
  -22.7660   27.0130  -22.1980 C   0  0  2  0  0  0  0  0  0  0  0  0
  -20.8800   26.5960  -20.9240 C   0  0  0  0  0  0  0  0  0  0  0  0
  -20.4040   26.3370  -16.4600 C   0  0  0  0  0  0  0  0  0  0  0  0
  -21.9290   27.4480  -23.4470 C   0  0  0  0  0  0  0  0  0  0  0  0
  -21.2680   26.6230  -24.0440 O   0  0  0  0  0  0  0  0  0  0  0  0
  -21.9390   28.9060  -23.9450 C   0  0  0  0  0  0  0  0  0  0  0  0
   -6.2100   27.7870  -50.4510 C   0  0  0  0  0  0  0  0  0  0  0  0
   -5.4880   28.3250  -51.6440 C   0  0  0  0  0  0  0  0  0  0  0  0
   -5.0740   27.3010  -52.6590 C   0  0  0  0  0  0  0  0  0  0  0  0
   -4.9820   27.6130  -53.8500 O   0  0  0  0  0  0  0  0  0  0  0  0
   -4.7630   25.9050  -52.2160 C   0  0  0  0  0  0  0  0  0  0  0  0
   -4.8770   25.6160  -50.7490 C   0  0  2  0  0  0  0  0  0  0  0  0
   -4.6350   24.2320  -50.1730 C   0  0  0  0  0  0  0  0  0  0  0  0
   -4.1900   24.2670  -48.7230 C   0  0  0  0  0  0  0  0  0  0  0  0
   -4.9770   25.2820  -47.8550 C   0  0  2  0  0  0  0  0  0  0  0  0
   -5.1220   26.6460  -48.5200 C   0  0  1  0  0  0  0  0  0  0  0  0
   -5.7740   26.4520  -49.8890 C   0  0  1  0  0  0  0  0  0  0  0  0
   -5.8290   27.6980  -47.6240 C   0  0  0  0  0  0  0  0  0  0  0  0
   -5.2570   27.7590  -46.2160 C   0  0  0  0  0  0  0  0  0  0  0  0
   -5.1350   26.3580  -45.5170 C   0  0  1  0  0  0  0  0  0  0  0  0
   -4.4120   25.3660  -46.3900 C   0  0  1  0  0  0  0  0  0  0  0  0
   -4.3040   24.0850  -45.6020 C   0  0  0  0  0  0  0  0  0  0  0  0
   -4.4810   24.4670  -44.1520 C   0  0  0  0  0  0  0  0  0  0  0  0
   -4.6510   26.0330  -44.1340 C   0  0  2  0  0  0  0  0  0  0  0  0
   -6.5680   26.1130  -45.5000 C   0  0  0  0  0  0  0  0  0  0  0  0
   -7.1030   25.7300  -49.7670 C   0  0  0  0  0  0  0  0  0  0  0  0
   -5.4060   26.5280  -42.8530 C   0  0  0  0  0  0  0  0  0  0  0  0
   -5.8880   25.7360  -42.0700 O   0  0  0  0  0  0  0  0  0  0  0  0
   -5.5340   28.0230  -42.5470 C   0  0  0  0  0  0  0  0  0  0  0  0
  -21.1113   29.1613  -16.5197 H   0  0  0  0  0  0  0  0  0  0  0  0
  -20.2494   28.0973  -15.2630 H   0  0  0  0  0  0  0  0  0  0  0  0
  -21.4101   29.6819  -14.0841 H   0  0  0  0  0  0  0  0  0  0  0  0
  -22.9088   29.4070  -15.1088 H   0  0  0  0  0  0  0  0  0  0  0  0
  -21.5070   27.6761  -13.3893 H   0  0  0  0  0  0  0  0  0  0  0  0
  -22.3009   27.6171  -11.8764 H   0  0  0  0  0  0  0  0  0  0  0  0
  -22.0518   25.8931  -13.6830 H   0  0  0  0  0  0  0  0  0  0  0  0
  -23.8344   26.3319  -13.8830 H   0  0  0  0  0  0  0  0  0  0  0  0
  -23.6478   26.9244  -15.7435 H   0  0  0  0  0  0  0  0  0  0  0  0
  -22.1372   24.4093  -16.2612 H   0  0  0  0  0  0  0  0  0  0  0  0
  -23.8364   24.5616  -15.6737 H   0  0  0  0  0  0  0  0  0  0  0  0
  -23.5878   24.2462  -18.1557 H   0  0  0  0  0  0  0  0  0  0  0  0
  -24.4908   25.7402  -17.6253 H   0  0  0  0  0  0  0  0  0  0  0  0
  -21.6316   25.5737  -18.6264 H   0  0  0  0  0  0  0  0  0  0  0  0
  -23.1290   28.0264  -17.6920 H   0  0  0  0  0  0  0  0  0  0  0  0
  -21.1463   29.2598  -18.1988 H   0  0  0  0  0  0  0  0  0  0  0  0
  -20.3053   27.7371  -18.7417 H   0  0  0  0  0  0  0  0  0  0  0  0
  -22.6283   29.1649  -20.0598 H   0  0  0  0  0  0  0  0  0  0  0  0
  -20.9218   28.8895  -20.6732 H   0  0  0  0  0  0  0  0  0  0  0  0
  -24.0741   26.8473  -19.7401 H   0  0  0  0  0  0  0  0  0  0  0  0
  -22.8331   24.2698  -20.4911 H   0  0  0  0  0  0  0  0  0  0  0  0
  -24.5088   24.8144  -20.6590 H   0  0  0  0  0  0  0  0  0  0  0  0
  -22.3537   24.8845  -22.6248 H   0  0  0  0  0  0  0  0  0  0  0  0
  -24.0510   25.3257  -22.8695 H   0  0  0  0  0  0  0  0  0  0  0  0
  -23.5764   27.7446  -22.3324 H   0  0  0  0  0  0  0  0  0  0  0  0
  -20.4789   26.4238  -19.9143 H   0  0  0  0  0  0  0  0  0  0  0  0
  -20.9307   25.6403  -21.4663 H   0  0  0  0  0  0  0  0  0  0  0  0
  -20.2219   27.2909  -21.4663 H   0  0  0  0  0  0  0  0  0  0  0  0
  -20.0616   26.1262  -15.4361 H   0  0  0  0  0  0  0  0  0  0  0  0
  -20.5780   25.3894  -16.9908 H   0  0  0  0  0  0  0  0  0  0  0  0
  -19.6362   26.9190  -16.9908 H   0  0  0  0  0  0  0  0  0  0  0  0
  -21.0697   27.6651  -22.7955 H   0  0  0  0  0  0  0  0  0  0  0  0
  -20.8013   26.0406  -23.3935 H   0  0  0  0  0  0  0  0  0  0  0  0
  -21.9437   29.5882  -23.0821 H   0  0  0  0  0  0  0  0  0  0  0  0
  -21.0421   29.0915  -24.5542 H   0  0  0  0  0  0  0  0  0  0  0  0
  -22.8384   29.0792  -24.5542 H   0  0  0  0  0  0  0  0  0  0  0  0
   -6.1056   28.5289  -49.6456 H   0  0  0  0  0  0  0  0  0  0  0  0
   -7.2335   27.6076  -50.8120 H   0  0  0  0  0  0  0  0  0  0  0  0
   -6.1485   29.0498  -52.1425 H   0  0  0  0  0  0  0  0  0  0  0  0
   -4.5565   28.7676  -51.2614 H   0  0  0  0  0  0  0  0  0  0  0  0
   -6.1282   27.0267  -52.8123 H   0  0  0  0  0  0  0  0  0  0  0  0
   -4.7027   28.5600  -53.9224 H   0  0  0  0  0  0  0  0  0  0  0  0
   -5.4523   25.2283  -52.7423 H   0  0  0  0  0  0  0  0  0  0  0  0
   -3.6990   25.7595  -52.4544 H   0  0  0  0  0  0  0  0  0  0  0  0
   -3.8727   26.0595  -50.6806 H   0  0  0  0  0  0  0  0  0  0  0  0
   -5.5694   23.6554  -50.2398 H   0  0  0  0  0  0  0  0  0  0  0  0
   -3.8259   23.7680  -50.7561 H   0  0  0  0  0  0  0  0  0  0  0  0
   -4.3261   23.2635  -48.2935 H   0  0  0  0  0  0  0  0  0  0  0  0
   -3.1374   24.5864  -48.7170 H   0  0  0  0  0  0  0  0  0  0  0  0
   -6.0021   24.8923  -47.7693 H   0  0  0  0  0  0  0  0  0  0  0  0
   -4.1235   27.0825  -48.6697 H   0  0  0  0  0  0  0  0  0  0  0  0
   -5.7178   28.6878  -48.0909 H   0  0  0  0  0  0  0  0  0  0  0  0
   -6.8847   27.4012  -47.5380 H   0  0  0  0  0  0  0  0  0  0  0  0
   -4.2543   28.2081  -46.2688 H   0  0  0  0  0  0  0  0  0  0  0  0
   -5.9565   28.3566  -45.6130 H   0  0  0  0  0  0  0  0  0  0  0  0
   -3.3866   25.6925  -46.6177 H   0  0  0  0  0  0  0  0  0  0  0  0
   -5.0908   23.3805  -45.9096 H   0  0  0  0  0  0  0  0  0  0  0  0
   -3.3362   23.5904  -45.7712 H   0  0  0  0  0  0  0  0  0  0  0  0
   -5.3751   23.9805  -43.7348 H   0  0  0  0  0  0  0  0  0  0  0  0
   -3.6223   24.1476  -43.5432 H   0  0  0  0  0  0  0  0  0  0  0  0
   -3.7429   26.6351  -43.9834 H   0  0  0  0  0  0  0  0  0  0  0  0
   -6.9174   26.0533  -44.4587 H   0  0  0  0  0  0  0  0  0  0  0  0
   -7.0867   26.9355  -46.0142 H   0  0  0  0  0  0  0  0  0  0  0  0
   -6.7840   25.1649  -46.0142 H   0  0  0  0  0  0  0  0  0  0  0  0
   -7.3509   25.5953  -48.7038 H   0  0  0  0  0  0  0  0  0  0  0  0
   -7.8895   26.3248  -50.2544 H   0  0  0  0  0  0  0  0  0  0  0  0
   -7.0320   24.7464  -50.2544 H   0  0  0  0  0  0  0  0  0  0  0  0
   -6.3505   26.5457  -43.4165 H   0  0  0  0  0  0  0  0  0  0  0  0
   -5.7060   26.0351  -41.1440 H   0  0  0  0  0  0  0  0  0  0  0  0
   -5.5470   28.1745  -41.4576 H   0  0  0  0  0  0  0  0  0  0  0  0
   -4.6786   28.5608  -42.9818 H   0  0  0  0  0  0  0  0  0  0  0  0
   -6.4684   28.4076  -42.9818 H   0  0  0  0  0  0  0  0  0  0  0  0
  1  2  1  0
  2  3  1  0
  3  4  1  0
  3  5  1  0
  5  6  1  0
  6  7  1  0
  7  8  1  0
  8  9  1  0
  9 10  1  0
  1 11  1  0
  6 11  1  0
 10 11  1  0
 10 12  1  0
 12 13  1  0
 13 14  1  0
  9 15  1  0
 14 15  1  0
 15 16  1  0
 16 17  1  0
 14 18  1  0
 17 18  1  0
 14 19  1  6
 11 20  1  6
 18 21  1  0
 21 22  1  0
 21 23  1  0
 24 25  1  0
 25 26  1  0
 26 27  1  0
 26 28  1  0
 28 29  1  0
 29 30  1  0
 30 31  1  0
 31 32  1  0
 32 33  1  0
 24 34  1  0
 29 34  1  0
 33 34  1  0
 33 35  1  0
 35 36  1  0
 36 37  1  0
 32 38  1  0
 37 38  1  0
 38 39  1  0
 39 40  1  0
 37 41  1  0
 40 41  1  0
 37 42  1  1
 34 43  1  1
 41 44  1  0
 44 45  1  0
 44 46  1  0
  1 47  1  0
  1 48  1  0
  2 49  1  0
  2 50  1  0
  3 51  1  0
  4 52  1  0
  5 53  1  0
  5 54  1  0
  6 55  1  6
  7 56  1  0
  7 57  1  0
  8 58  1  0
  8 59  1  0
  9 60  1  6
 10 61  1  1
 12 62  1  0
 12 63  1  0
 13 64  1  0
 13 65  1  0
 15 66  1  1
 16 67  1  0
 16 68  1  0
 17 69  1  0
 17 70  1  0
 18 71  1  1
 19 72  1  0
 19 73  1  0
 19 74  1  0
 20 75  1  0
 20 76  1  0
 20 77  1  0
 21 78  1  0
 22 79  1  0
 23 80  1  0
 23 81  1  0
 23 82  1  0
 24 83  1  0
 24 84  1  0
 25 85  1  0
 25 86  1  0
 26 87  1  0
 27 88  1  0
 28 89  1  0
 28 90  1  0
 29 91  1  1
 30 92  1  0
 30 93  1  0
 31 94  1  0
 31 95  1  0
 32 96  1  1
 33 97  1  6
 35 98  1  0
 35 99  1  0
 36100  1  0
 36101  1  0
 38102  1  6
 39103  1  0
 39104  1  0
 40105  1  0
 40106  1  0
 41107  1  1
 42108  1  0
 42109  1  0
 42110  1  0
 43111  1  0
 43112  1  0
 43113  1  0
 44114  1  0
 45115  1  0
 46116  1  0
 46117  1  0
 46118  1  0
M  END
>  <PDBID>  (1) 
4FN9

>  <PDB ID>  (1) 
4FN9

>  <Generic Name>  (1) 
Progesterone

>  <Brand Name>  (1) 
Act Progesterone Injection#Crinone#Endometrin#Estrogel Propak#Gesterol In Oil-liq Im 50mg/ml#PMS-progesterone Inj 50mg/ml USP#Prochieve#Progesterone#Progesterone Inj 50mg/ml USP#Progesterone Injection USP#Prometrium#Teva-progesterone#Agolutin#Cyclogest#Gesterol#Gestone#Progestasert#Progestogel#Qi Ning#Relantan#Susten#Utrogestan#Utrogestran#Utrovin#Vasclor

>  <DrugBank ID>  (1) 
DB00396

>  <ATC Codes>  (1) 
G03DA04#G03FA04

>  <Ligand ID>  (1) 
STR

>  <Target Name>  (1) 
Estrogen receptor

>  <UniProt ID>  (1) 
P03372

>  <PDB ID.1>  (1) 
4FN9

>  <Seq. Identity>  (1) 
32%

$$$$
