PDB_DB01024_94
     RDKit          3D

 43 44  0  0  0  0  0  0  0  0999 V2000
   25.0640   61.8990  -33.1700 C   0  0  0  0  0  0  0  0  0  0  0  0
   29.6970   63.5790  -29.7690 C   0  0  0  0  0  0  0  0  0  0  0  0
   31.0120   63.6100  -29.3740 C   0  0  0  0  0  0  0  0  0  0  0  0
   31.8520   64.8150  -29.6930 C   0  0  0  0  0  0  0  0  0  0  0  0
   32.8660   64.4740  -30.7790 C   0  0  0  0  0  0  0  0  0  0  0  0
   32.1310   64.4640  -32.0890 C   0  0  0  0  0  0  0  0  0  0  0  0
   28.7890   58.6860  -33.0890 C   0  0  0  0  0  0  0  0  0  0  0  0
   31.0850   60.4350  -31.4880 C   0  0  0  0  0  0  0  0  0  0  0  0
   31.7260   62.4920  -28.6460 C   0  0  0  0  0  0  0  0  0  0  0  0
   26.0390   59.9870  -34.1780 C   0  0  0  0  0  0  0  0  0  0  0  0
   26.8840   60.4540  -33.0120 C   0  0  0  0  0  0  0  0  0  0  0  0
   28.1290   59.8800  -32.4820 C   0  0  0  0  0  0  0  0  0  0  0  0
   28.7170   60.5310  -31.3030 C   0  0  0  0  0  0  0  0  0  0  0  0
   28.1200   61.7570  -30.6790 C   0  0  0  0  0  0  0  0  0  0  0  0
   26.8780   62.3100  -31.2460 C   0  0  0  0  0  0  0  0  0  0  0  0
   26.3070   61.6340  -32.4170 C   0  0  0  0  0  0  0  0  0  0  0  0
   28.7710   62.4040  -29.4750 C   0  0  0  0  0  0  0  0  0  0  0  0
   24.2710   62.7570  -32.9420 O   0  0  0  0  0  0  0  0  0  0  0  0
   24.9250   60.9210  -34.2340 O   0  0  0  0  0  0  0  0  0  0  0  0
   29.8830   59.9520  -30.8840 O   0  0  0  0  0  0  0  0  0  0  0  0
   26.2240   63.3980  -30.7870 O   0  0  0  0  0  0  0  0  0  0  0  0
   31.3160   65.3940  -32.2830 O   0  0  0  0  0  0  0  0  0  0  0  0
   32.3410   63.5490  -32.9340 O   0  0  0  0  0  0  0  0  0  0  0  0
   29.2939   64.4402  -30.3221 H   0  0  0  0  0  0  0  0  0  0  0  0
   31.2015   65.6291  -30.0453 H   0  0  0  0  0  0  0  0  0  0  0  0
   32.3883   65.1304  -28.7859 H   0  0  0  0  0  0  0  0  0  0  0  0
   33.6635   65.2313  -30.8006 H   0  0  0  0  0  0  0  0  0  0  0  0
   33.3300   63.4957  -30.5853 H   0  0  0  0  0  0  0  0  0  0  0  0
   29.1550   58.0238  -32.2905 H   0  0  0  0  0  0  0  0  0  0  0  0
   28.0630   58.1428  -33.7118 H   0  0  0  0  0  0  0  0  0  0  0  0
   29.6351   59.0118  -33.7118 H   0  0  0  0  0  0  0  0  0  0  0  0
   31.8000   60.7223  -30.7030 H   0  0  0  0  0  0  0  0  0  0  0  0
   31.5249   59.6438  -32.1129 H   0  0  0  0  0  0  0  0  0  0  0  0
   30.8552   61.3106  -32.1129 H   0  0  0  0  0  0  0  0  0  0  0  0
   31.6305   62.6416  -27.5604 H   0  0  0  0  0  0  0  0  0  0  0  0
   31.2763   61.5274  -28.9242 H   0  0  0  0  0  0  0  0  0  0  0  0
   32.7902   62.4943  -28.9242 H   0  0  0  0  0  0  0  0  0  0  0  0
   26.6181   60.0196  -35.1126 H   0  0  0  0  0  0  0  0  0  0  0  0
   25.7008   58.9478  -34.0530 H   0  0  0  0  0  0  0  0  0  0  0  0
   29.3592   61.6333  -28.9553 H   0  0  0  0  0  0  0  0  0  0  0  0
   27.9456   62.8181  -28.8773 H   0  0  0  0  0  0  0  0  0  0  0  0
   25.3925   63.6999  -31.2315 H   0  0  0  0  0  0  0  0  0  0  0  0
   30.8046   65.4355  -33.1297 H   0  0  0  0  0  0  0  0  0  0  0  0
  2  3  2  0
  3  4  1  0
  4  5  1  0
  5  6  1  0
  3  9  1  0
 10 11  1  0
  7 12  1  0
 11 12  1  0
 12 13  2  0
 13 14  1  0
 14 15  2  0
  1 16  1  0
 11 16  2  0
 15 16  1  0
  2 17  1  0
 14 17  1  0
  1 18  2  0
  1 19  1  0
 10 19  1  0
  8 20  1  0
 13 20  1  0
 15 21  1  0
  6 22  1  0
  6 23  2  0
  2 24  1  0
  4 25  1  0
  4 26  1  0
  5 27  1  0
  5 28  1  0
  7 29  1  0
  7 30  1  0
  7 31  1  0
  8 32  1  0
  8 33  1  0
  8 34  1  0
  9 35  1  0
  9 36  1  0
  9 37  1  0
 10 38  1  0
 10 39  1  0
 17 40  1  0
 17 41  1  0
 21 42  1  0
 22 43  1  0
M  END
$$$$
