PDB_DB00834_98
     RDKit          3D

 67 71  0  0  0  0  0  0  0  0999 V2000
  -16.4450    6.9770   -2.5890 O   0  0  0  0  0  0  0  0  0  0  0  0
  -16.9100    6.6520   -3.6530 C   0  0  0  0  0  0  0  0  0  0  0  0
  -18.3860    7.0330   -3.8930 C   0  0  0  0  0  0  0  0  0  0  0  0
  -16.0320    5.9250   -4.6010 C   0  0  0  0  0  0  0  0  0  0  0  0
  -16.3940    5.5940   -5.7820 C   0  0  0  0  0  0  0  0  0  0  0  0
  -15.2910    4.7930   -6.6980 C   0  0  0  0  0  0  0  0  0  0  0  0
  -17.7090    5.9690   -6.3470 C   0  0  0  0  0  0  0  0  0  0  0  0
  -18.7840    6.6700   -5.3980 C   0  0  0  0  0  0  0  0  0  0  0  0
  -17.9810    5.7460   -7.5970 C   0  0  0  0  0  0  0  0  0  0  0  0
  -19.3250    6.2020   -8.2850 C   0  0  1  0  0  0  0  0  0  0  0  0
  -19.6800    7.4050   -8.2920 C   0  0  0  0  0  0  0  0  0  0  0  0
  -21.0100    7.8250   -8.2770 C   0  0  0  0  0  0  0  0  0  0  0  0
  -21.3030    9.2040   -8.3310 C   0  0  0  0  0  0  0  0  0  0  0  0
  -20.2880   10.1580   -8.4210 C   0  0  0  0  0  0  0  0  0  0  0  0
  -20.5950   11.5690   -8.5110 N   0  0  0  0  0  0  0  0  0  0  0  0
  -21.9180   11.9820   -8.8020 C   0  0  0  0  0  0  0  0  0  0  0  0
  -19.5460   12.5450   -8.3490 C   0  0  0  0  0  0  0  0  0  0  0  0
  -18.9500    9.7350   -8.4640 C   0  0  0  0  0  0  0  0  0  0  0  0
  -18.6590    8.3720   -8.4030 C   0  0  0  0  0  0  0  0  0  0  0  0
  -20.0090    5.0820   -9.2720 C   0  0  0  0  0  0  0  0  0  0  0  0
  -18.8030    4.8600  -10.2700 C   0  0  2  0  0  0  0  0  0  0  0  0
  -18.4460    6.2170  -10.9720 C   0  0  0  0  0  0  0  0  0  0  0  0
  -19.1390    3.8410  -11.3720 C   0  0  1  0  0  0  0  0  0  0  0  0
  -19.8310    2.6330  -10.9620 C   0  0  0  0  0  0  0  0  0  0  0  0
  -20.3950    1.6200  -10.5820 C   0  0  0  0  0  0  0  0  0  0  0  0
  -21.0590    0.3460  -10.0450 C   0  0  0  0  0  0  0  0  0  0  0  0
  -19.9310    4.3140  -12.4530 O   0  0  0  0  0  0  0  0  0  0  0  0
  -17.6080    3.5140  -11.8980 C   0  0  0  0  0  0  0  0  0  0  0  0
  -16.6960    3.8980  -10.6920 C   0  0  0  0  0  0  0  0  0  0  0  0
  -17.6990    4.2950   -9.5800 C   0  0  1  0  0  0  0  0  0  0  0  0
  -17.0340    5.0960   -8.5550 C   0  0  2  0  0  0  0  0  0  0  0  0
  -16.1070    4.0770   -7.8380 C   0  0  0  0  0  0  0  0  0  0  0  0
  -19.0284    6.4732   -3.1973 H   0  0  0  0  0  0  0  0  0  0  0  0
  -18.5216    8.1115   -3.7246 H   0  0  0  0  0  0  0  0  0  0  0  0
  -15.0174    5.6566   -4.2717 H   0  0  0  0  0  0  0  0  0  0  0  0
  -14.5692    5.5006   -7.1320 H   0  0  0  0  0  0  0  0  0  0  0  0
  -14.7198    4.0695   -6.0978 H   0  0  0  0  0  0  0  0  0  0  0  0
  -19.6524    5.9968   -5.3460 H   0  0  0  0  0  0  0  0  0  0  0  0
  -18.9425    7.6519   -5.8677 H   0  0  0  0  0  0  0  0  0  0  0  0
  -20.0576    6.2600   -7.4665 H   0  0  0  0  0  0  0  0  0  0  0  0
  -21.8239    7.0870   -8.2235 H   0  0  0  0  0  0  0  0  0  0  0  0
  -22.3520    9.5339   -8.3016 H   0  0  0  0  0  0  0  0  0  0  0  0
  -22.4640   12.1524   -7.8624 H   0  0  0  0  0  0  0  0  0  0  0  0
  -21.8912   12.9145   -9.3848 H   0  0  0  0  0  0  0  0  0  0  0  0
  -22.4265   11.1998   -9.3848 H   0  0  0  0  0  0  0  0  0  0  0  0
  -19.3646   12.7138   -7.2773 H   0  0  0  0  0  0  0  0  0  0  0  0
  -18.6248   12.1753   -8.8231 H   0  0  0  0  0  0  0  0  0  0  0  0
  -19.8484   13.4904   -8.8231 H   0  0  0  0  0  0  0  0  0  0  0  0
  -18.1377   10.4723   -8.5451 H   0  0  0  0  0  0  0  0  0  0  0  0
  -17.6098    8.0440   -8.4423 H   0  0  0  0  0  0  0  0  0  0  0  0
  -20.2712    4.1609   -8.7309 H   0  0  0  0  0  0  0  0  0  0  0  0
  -20.9594    5.3807   -9.7384 H   0  0  0  0  0  0  0  0  0  0  0  0
  -18.2445    6.9829  -10.2086 H   0  0  0  0  0  0  0  0  0  0  0  0
  -17.5530    6.0812  -11.5998 H   0  0  0  0  0  0  0  0  0  0  0  0
  -19.2902    6.5383  -11.5998 H   0  0  0  0  0  0  0  0  0  0  0  0
  -21.0499    0.3634   -8.9452 H   0  0  0  0  0  0  0  0  0  0  0  0
  -22.0981    0.2955  -10.4023 H   0  0  0  0  0  0  0  0  0  0  0  0
  -20.5052   -0.5347  -10.4023 H   0  0  0  0  0  0  0  0  0  0  0  0
  -20.7245    4.7879  -12.0981 H   0  0  0  0  0  0  0  0  0  0  0  0
  -17.5000    2.4473  -12.1441 H   0  0  0  0  0  0  0  0  0  0  0  0
  -17.3506    4.0680  -12.8128 H   0  0  0  0  0  0  0  0  0  0  0  0
  -16.0814    3.0416  -10.3775 H   0  0  0  0  0  0  0  0  0  0  0  0
  -15.9889    4.7050  -10.9342 H   0  0  0  0  0  0  0  0  0  0  0  0
  -18.0901    3.4638   -8.9749 H   0  0  0  0  0  0  0  0  0  0  0  0
  -16.4920    5.9451   -8.9969 H   0  0  0  0  0  0  0  0  0  0  0  0
  -15.4077    3.6450   -8.5690 H   0  0  0  0  0  0  0  0  0  0  0  0
  -16.7236    3.2821   -7.3931 H   0  0  0  0  0  0  0  0  0  0  0  0
  1  2  2  0
  2  3  1  0
  2  4  1  0
  4  5  2  0
  5  6  1  0
  5  7  1  0
  3  8  1  0
  7  8  1  0
  7  9  2  0
  9 10  1  0
 10 11  1  0
 11 12  2  0
 12 13  1  0
 13 14  2  0
 14 15  1  0
 15 16  1  0
 15 17  1  0
 14 18  1  0
 11 19  1  0
 18 19  2  0
 10 20  1  0
 20 21  1  0
 21 22  1  6
 21 23  1  0
 23 24  1  1
 24 25  3  0
 25 26  1  0
 23 27  1  0
 23 28  1  0
 28 29  1  0
 21 30  1  0
 29 30  1  0
  9 31  1  0
 30 31  1  0
  6 32  1  0
 31 32  1  0
  3 33  1  0
  3 34  1  0
  4 35  1  0
  6 36  1  0
  6 37  1  0
  8 38  1  0
  8 39  1  0
 10 40  1  1
 12 41  1  0
 13 42  1  0
 16 43  1  0
 16 44  1  0
 16 45  1  0
 17 46  1  0
 17 47  1  0
 17 48  1  0
 18 49  1  0
 19 50  1  0
 20 51  1  0
 20 52  1  0
 22 53  1  0
 22 54  1  0
 22 55  1  0
 26 56  1  0
 26 57  1  0
 26 58  1  0
 27 59  1  0
 28 60  1  0
 28 61  1  0
 29 62  1  0
 29 63  1  0
 30 64  1  1
 31 65  1  6
 32 66  1  0
 32 67  1  0
M  END
$$$$
