PDB_DB00685_98
     RDKit          3D

 45 49  0  0  0  0  0  0  0  0999 V2000
   91.7900   10.2680   39.8600 C   0  0  0  0  0  0  0  0  0  0  0  0
   91.1760   11.3990   39.3430 C   0  0  0  0  0  0  0  0  0  0  0  0
   89.9090   11.3120   38.7940 C   0  0  0  0  0  0  0  0  0  0  0  0
   89.3390   12.3770   38.3060 F   0  0  0  0  0  0  0  0  0  0  0  0
   89.2500   10.0900   38.7670 C   0  0  0  0  0  0  0  0  0  0  0  0
   89.8650    8.9640   39.2880 C   0  0  0  0  0  0  0  0  0  0  0  0
   89.2260    7.7710   39.2600 F   0  0  0  0  0  0  0  0  0  0  0  0
   91.1410    9.0480   39.8380 C   0  0  0  0  0  0  0  0  0  0  0  0
   91.7340    7.9380   40.3500 N   0  0  0  0  0  0  0  0  0  0  0  0
   92.0050    7.9730   41.6660 C   0  0  0  0  0  0  0  0  0  0  0  0
   91.6990    9.0560   42.4020 N   0  0  0  0  0  0  0  0  0  0  0  0
   91.9540    9.1730   43.7190 C   0  0  0  0  0  0  0  0  0  0  0  0
   91.5250   10.4470   44.3060 N   0  0  0  0  0  0  0  0  0  0  0  0
   91.2570   11.5510   43.4180 C   0  0  0  0  0  0  0  0  0  0  0  0
   91.6810   12.7590   44.1900 C   0  0  1  0  0  0  0  0  0  0  0  0
   90.7990   13.1850   45.3110 C   0  0  0  0  0  0  0  0  0  0  0  0
   90.8730   14.6050   45.7600 N   0  0  0  0  0  0  0  0  0  0  0  0
   91.9980   12.3370   45.5910 C   0  0  1  0  0  0  0  0  0  0  0  0
   91.8340   10.8490   45.6660 C   0  0  0  0  0  0  0  0  0  0  0  0
   92.5510    8.1000   44.3710 C   0  0  0  0  0  0  0  0  0  0  0  0
   92.8800    6.9540   43.6380 C   0  0  0  0  0  0  0  0  0  0  0  0
   92.6070    6.8880   42.2760 C   0  0  0  0  0  0  0  0  0  0  0  0
   92.9250    5.7630   41.5220 C   0  0  0  0  0  0  0  0  0  0  0  0
   92.6220    5.7530   40.1530 C   0  0  0  0  0  0  0  0  0  0  0  0
   92.0210    6.8770   39.5900 C   0  0  0  0  0  0  0  0  0  0  0  0
   92.9270    4.5880   39.2390 C   0  0  0  0  0  0  0  0  0  0  0  0
   93.4520    3.5610   39.6920 O   0  0  0  0  0  0  0  0  0  0  0  0
   92.6230    4.6450   38.0210 O   0  0  0  0  0  0  0  0  0  0  0  0
   93.4560    4.8270   42.1030 O   0  0  0  0  0  0  0  0  0  0  0  0
   92.8340    8.1070   45.6710 F   0  0  0  0  0  0  0  0  0  0  0  0
   92.7997   10.3424   40.2902 H   0  0  0  0  0  0  0  0  0  0  0  0
   91.6974   12.3672   39.3695 H   0  0  0  0  0  0  0  0  0  0  0  0
   88.2420   10.0166   38.3328 H   0  0  0  0  0  0  0  0  0  0  0  0
   91.8418   11.4561   42.4912 H   0  0  0  0  0  0  0  0  0  0  0  0
   90.2013   11.5973   43.1126 H   0  0  0  0  0  0  0  0  0  0  0  0
   92.1468   13.3225   43.3681 H   0  0  0  0  0  0  0  0  0  0  0  0
   89.7195   13.1111   45.5088 H   0  0  0  0  0  0  0  0  0  0  0  0
   90.8748   14.6399   46.7894 H   0  0  0  0  0  0  0  0  0  0  0  0
   91.7375   15.0342   45.4004 H   0  0  0  0  0  0  0  0  0  0  0  0
   92.7900   12.4383   46.3476 H   0  0  0  0  0  0  0  0  0  0  0  0
   91.0117   10.5825   46.3463 H   0  0  0  0  0  0  0  0  0  0  0  0
   92.7330   10.3488   46.0554 H   0  0  0  0  0  0  0  0  0  0  0  0
   93.3572    6.1007   44.1421 H   0  0  0  0  0  0  0  0  0  0  0  0
   91.7820    6.8910   38.5164 H   0  0  0  0  0  0  0  0  0  0  0  0
   93.6504    2.7999   39.0907 H   0  0  0  0  0  0  0  0  0  0  0  0
  1  2  2  0
  2  3  1  0
  3  4  1  0
  3  5  2  0
  5  6  1  0
  6  7  1  0
  1  8  1  0
  6  8  2  0
  8  9  1  0
  9 10  1  0
 10 11  2  0
 11 12  1  0
 12 13  1  0
 13 14  1  0
 14 15  1  0
 15 16  1  0
 16 17  1  0
 15 18  1  0
 16 18  1  0
 13 19  1  0
 18 19  1  0
 12 20  2  0
 20 21  1  0
 10 22  1  0
 21 22  2  0
 22 23  1  0
 23 24  1  0
  9 25  1  0
 24 25  2  0
 24 26  1  0
 26 27  1  0
 26 28  2  0
 23 29  2  0
 20 30  1  0
  1 31  1  0
  2 32  1  0
  5 33  1  0
 14 34  1  0
 14 35  1  0
 15 36  1  6
 16 37  1  0
 17 38  1  0
 17 39  1  0
 18 40  1  1
 19 41  1  0
 19 42  1  0
 21 43  1  0
 25 44  1  0
 27 45  1  0
M  END
$$$$
