PDB_DB00988_99
     RDKit          3D

 22 22  0  0  0  0  0  0  0  0999 V2000
   -9.1900    2.9910  -26.8180 C   0  0  0  0  0  0  0  0  0  0  0  0
  -10.3400    3.5770  -26.0270 C   0  0  0  0  0  0  0  0  0  0  0  0
  -12.4980    4.6400  -24.6610 C   0  0  0  0  0  0  0  0  0  0  0  0
  -10.2010    3.9530  -24.6980 C   0  0  0  0  0  0  0  0  0  0  0  0
  -11.5520    3.7360  -26.6700 C   0  0  0  0  0  0  0  0  0  0  0  0
  -12.6300    4.2650  -25.9880 C   0  0  0  0  0  0  0  0  0  0  0  0
  -11.2860    4.4830  -24.0140 C   0  0  0  0  0  0  0  0  0  0  0  0
  -11.1680    4.8700  -22.6660 O   0  0  0  0  0  0  0  0  0  0  0  0
  -13.6040    5.1790  -23.9760 O   0  0  0  0  0  0  0  0  0  0  0  0
   -8.2750    2.2140  -25.8960 C   0  0  0  0  0  0  0  0  0  0  0  0
   -7.3840    1.4100  -26.6670 N   0  0  0  0  0  0  0  0  0  0  0  0
   -9.5856    2.3172  -27.5923 H   0  0  0  0  0  0  0  0  0  0  0  0
   -8.6220    3.8062  -27.2900 H   0  0  0  0  0  0  0  0  0  0  0  0
   -9.2337    3.8312  -24.1885 H   0  0  0  0  0  0  0  0  0  0  0  0
  -11.6585    3.4415  -27.7245 H   0  0  0  0  0  0  0  0  0  0  0  0
  -13.5958    4.3889  -26.4997 H   0  0  0  0  0  0  0  0  0  0  0  0
  -10.3047    4.7618  -22.1937 H   0  0  0  0  0  0  0  0  0  0  0  0
  -13.5154    5.4487  -23.0276 H   0  0  0  0  0  0  0  0  0  0  0  0
   -7.6937    2.9166  -25.2808 H   0  0  0  0  0  0  0  0  0  0  0  0
   -8.8797    1.5653  -25.2452 H   0  0  0  0  0  0  0  0  0  0  0  0
   -6.7799    0.8649  -26.0356 H   0  0  0  0  0  0  0  0  0  0  0  0
   -7.9278    0.7679  -27.2611 H   0  0  0  0  0  0  0  0  0  0  0  0
  1  2  1  0
  2  4  2  0
  2  5  1  0
  3  6  1  0
  5  6  2  0
  3  7  2  0
  4  7  1  0
  7  8  1  0
  3  9  1  0
  1 10  1  0
 10 11  1  0
  1 12  1  0
  1 13  1  0
  4 14  1  0
  5 15  1  0
  6 16  1  0
  8 17  1  0
  9 18  1  0
 10 19  1  0
 10 20  1  0
 11 21  1  0
 11 22  1  0
M  END
>  <PDBID>  (1) 
4XP1

>  <PDB ID>  (1) 
4XP1

>  <Generic Name>  (1) 
Dopamine

>  <Brand Name>  (1) 
Dopamine#Dopamine HCl#Dopamine HCl Inj 4%#Dopamine Hydrochloride#Dopamine Hydrochloride and Dextrose#Intropin Injection 40mg/ml#Intropin#Revimine

>  <DrugBank ID>  (1) 
DB00988

>  <ATC Codes>  (1) 
C01CA04

>  <Ligand ID>  (1) 
LDP

>  <Target Name>  (1) 
Sodium-dependent dopamine transporter

>  <UniProt ID>  (1) 
Q01959

>  <PDB ID.1>  (1) 
4XP1

>  <Seq. Identity>  (1) 
52%

$$$$
