PDB_DB00642_99
     RDKit          3D

 52 54  0  0  0  0  0  0  0  0999 V2000
   17.4150    6.1240   -7.7460 C   0  0  0  0  0  0  0  0  0  0  0  0
   17.7900    6.8350   -6.5640 C   0  0  0  0  0  0  0  0  0  0  0  0
   19.1610    6.8850   -6.1760 C   0  0  0  0  0  0  0  0  0  0  0  0
   20.1750    6.2240   -6.9650 C   0  0  0  0  0  0  0  0  0  0  0  0
   19.7560    5.5240   -8.1250 C   0  0  0  0  0  0  0  0  0  0  0  0
   18.4160    5.4790   -8.5070 C   0  0  0  0  0  0  0  0  0  0  0  0
   15.9420    6.0700   -8.2140 C   0  0  0  0  0  0  0  0  0  0  0  0
   15.2390    4.6870   -8.2040 C   0  0  0  0  0  0  0  0  0  0  0  0
   15.7790    3.6450   -9.1900 C   0  0  0  0  0  0  0  0  0  0  0  0
   15.7300    3.6830  -10.5900 C   0  0  0  0  0  0  0  0  0  0  0  0
   16.3370    2.5320  -11.1470 N   0  0  0  0  0  0  0  0  0  0  0  0
   16.7660    1.7710  -10.0790 C   0  0  0  0  0  0  0  0  0  0  0  0
   16.4160    2.4700   -8.8860 C   0  0  0  0  0  0  0  0  0  0  0  0
   16.7800    1.8400   -7.5160 C   0  0  0  0  0  0  0  0  0  0  0  0
   16.5270    2.3510   -6.4330 O   0  0  0  0  0  0  0  0  0  0  0  0
   17.4210    0.6350   -7.5590 N   0  0  0  0  0  0  0  0  0  0  0  0
   17.7520   -0.0300   -8.8030 C   0  0  0  0  0  0  0  0  0  0  0  0
   17.4490    0.4980   -9.9610 N   0  0  0  0  0  0  0  0  0  0  0  0
   18.3970   -1.2380   -8.7490 N   0  0  0  0  0  0  0  0  0  0  0  0
   21.6700    6.2100   -6.6850 C   0  0  0  0  0  0  0  0  0  0  0  0
   22.4300    5.6060   -7.4510 O   0  0  0  0  0  0  0  0  0  0  0  0
   22.1520    6.8770   -5.6150 N   0  0  0  0  0  0  0  0  0  0  0  0
   23.5990    6.9680   -5.2510 C   0  0  1  0  0  0  0  0  0  0  0  0
   24.4210    8.0120   -6.0940 C   0  0  0  0  0  0  0  0  0  0  0  0
   23.5770    9.0800   -6.8740 C   0  0  0  0  0  0  0  0  0  0  0  0
   24.3230   10.1200   -7.7110 C   0  0  0  0  0  0  0  0  0  0  0  0
   24.1470   10.1490   -8.9600 O   0  0  0  0  0  0  0  0  0  0  0  0
   25.0840   10.9280   -7.1180 O   0  0  0  0  0  0  0  0  0  0  0  0
   23.7080    7.1660   -3.7010 C   0  0  0  0  0  0  0  0  0  0  0  0
   24.7060    6.7410   -3.0550 O   0  0  0  0  0  0  0  0  0  0  0  0
   22.7630    7.7700   -3.1200 O   0  0  0  0  0  0  0  0  0  0  0  0
   17.0248    7.3409   -5.9569 H   0  0  0  0  0  0  0  0  0  0  0  0
   19.4498    7.4324   -5.2666 H   0  0  0  0  0  0  0  0  0  0  0  0
   20.5066    5.0039   -8.7383 H   0  0  0  0  0  0  0  0  0  0  0  0
   18.1325    4.9312   -9.4178 H   0  0  0  0  0  0  0  0  0  0  0  0
   15.3634    6.7388   -7.5598 H   0  0  0  0  0  0  0  0  0  0  0  0
   15.9733    6.3615   -9.2742 H   0  0  0  0  0  0  0  0  0  0  0  0
   15.3333    4.2701   -7.1904 H   0  0  0  0  0  0  0  0  0  0  0  0
   14.2034    4.8814   -8.5198 H   0  0  0  0  0  0  0  0  0  0  0  0
   15.2804    4.4975  -11.1769 H   0  0  0  0  0  0  0  0  0  0  0  0
   16.4380    2.3079  -12.1472 H   0  0  0  0  0  0  0  0  0  0  0  0
   17.7051   -0.0093  -10.8200 H   0  0  0  0  0  0  0  0  0  0  0  0
   18.6428   -1.7300   -9.6199 H   0  0  0  0  0  0  0  0  0  0  0  0
   18.6360   -1.6539   -7.8375 H   0  0  0  0  0  0  0  0  0  0  0  0
   21.4745    7.3575   -5.0059 H   0  0  0  0  0  0  0  0  0  0  0  0
   24.0875    6.0210   -5.5242 H   0  0  0  0  0  0  0  0  0  0  0  0
   25.0904    8.5487   -5.4056 H   0  0  0  0  0  0  0  0  0  0  0  0
   24.9447    7.4264   -6.8640 H   0  0  0  0  0  0  0  0  0  0  0  0
   22.9075    8.5332   -7.5543 H   0  0  0  0  0  0  0  0  0  0  0  0
   23.0847    9.6675   -6.0850 H   0  0  0  0  0  0  0  0  0  0  0  0
   24.6247   10.8179   -9.5118 H   0  0  0  0  0  0  0  0  0  0  0  0
   24.7558    6.8763   -2.0756 H   0  0  0  0  0  0  0  0  0  0  0  0
  1  2  2  0
  2  3  1  0
  3  4  2  0
  4  5  1  0
  1  6  1  0
  5  6  2  0
  1  7  1  0
  7  8  1  0
  8  9  1  0
  9 10  2  0
 10 11  1  0
 11 12  1  0
  9 13  1  0
 12 13  2  0
 13 14  1  0
 14 15  2  0
 14 16  1  0
 16 17  2  0
 12 18  1  0
 17 18  1  0
 17 19  1  0
  4 20  1  0
 20 21  2  0
 20 22  1  0
 22 23  1  0
 23 24  1  0
 24 25  1  0
 25 26  1  0
 26 27  1  0
 26 28  2  0
 23 29  1  0
 29 30  1  0
 29 31  2  0
  2 32  1  0
  3 33  1  0
  5 34  1  0
  6 35  1  0
  7 36  1  0
  7 37  1  0
  8 38  1  0
  8 39  1  0
 10 40  1  0
 11 41  1  0
 18 42  1  0
 19 43  1  0
 19 44  1  0
 22 45  1  0
 23 46  1  1
 24 47  1  0
 24 48  1  0
 25 49  1  0
 25 50  1  0
 27 51  1  0
 30 52  1  0
M  END
$$$$
