PDB_DB01157_94
     RDKit          3D

 50 52  0  0  0  0  0  0  0  0999 V2000
   -6.6580   45.0610   32.1990 N   0  0  0  0  0  0  0  0  0  0  0  0
   -7.5440   45.8040   33.1630 C   0  0  0  0  0  0  0  0  0  0  0  0
   -6.9700   46.9840   33.9300 N   0  0  0  0  0  0  0  0  0  0  0  0
   -5.6000   47.3810   33.7470 C   0  0  0  0  0  0  0  0  0  0  0  0
   -5.2540   45.4660   32.0080 C   0  0  0  0  0  0  0  0  0  0  0  0
   -4.6960   46.6280   32.7650 C   0  0  0  0  0  0  0  0  0  0  0  0
   -3.1970   47.0650   32.5350 C   0  0  0  0  0  0  0  0  0  0  0  0
   -2.3320   46.2840   31.5580 C   0  0  0  0  0  0  0  0  0  0  0  0
   -2.9000   45.1040   30.7810 C   0  0  0  0  0  0  0  0  0  0  0  0
   -4.3660   44.6730   31.0060 C   0  0  0  0  0  0  0  0  0  0  0  0
   -0.8830   46.7490   31.4050 C   0  0  0  0  0  0  0  0  0  0  0  0
   -0.1540   45.7880   30.6870 N   0  0  0  0  0  0  0  0  0  0  0  0
   -0.4150   45.6770   29.2950 C   0  0  0  0  0  0  0  0  0  0  0  0
   -1.4010   46.6520   28.6340 C   0  0  0  0  0  0  0  0  0  0  0  0
   -1.6750   46.5230   27.1200 C   0  0  0  0  0  0  0  0  0  0  0  0
   -0.9750   45.4180   26.2940 C   0  0  0  0  0  0  0  0  0  0  0  0
    0.0140   44.4620   26.9820 C   0  0  0  0  0  0  0  0  0  0  0  0
    0.2990   44.5820   28.4840 C   0  0  0  0  0  0  0  0  0  0  0  0
   -2.5670   48.2970   33.1880 C   0  0  0  0  0  0  0  0  0  0  0  0
   -2.5730   47.4160   26.5170 O   0  0  0  0  0  0  0  0  0  0  0  0
   -1.1870   45.2670   24.9150 O   0  0  0  0  0  0  0  0  0  0  0  0
    0.6790   43.4870   26.2320 O   0  0  0  0  0  0  0  0  0  0  0  0
   -3.1150   48.4530   27.2970 C   0  0  0  0  0  0  0  0  0  0  0  0
   -2.0810   46.0880   24.2060 C   0  0  0  0  0  0  0  0  0  0  0  0
    1.4720   42.5430   26.9020 C   0  0  0  0  0  0  0  0  0  0  0  0
   -8.9460   45.4540   33.3370 N   0  0  0  0  0  0  0  0  0  0  0  0
   -5.1210   48.4670   34.5540 N   0  0  0  0  0  0  0  0  0  0  0  0
   -2.2688   44.5607   30.0624 H   0  0  0  0  0  0  0  0  0  0  0  0
   -4.7796   43.8113   30.4616 H   0  0  0  0  0  0  0  0  0  0  0  0
   -0.8608   47.7058   30.8628 H   0  0  0  0  0  0  0  0  0  0  0  0
   -0.4340   46.8798   32.4006 H   0  0  0  0  0  0  0  0  0  0  0  0
    0.5423   45.1873   31.1509 H   0  0  0  0  0  0  0  0  0  0  0  0
   -1.9033   47.4288   29.2292 H   0  0  0  0  0  0  0  0  0  0  0  0
    1.0040   43.8948   28.9746 H   0  0  0  0  0  0  0  0  0  0  0  0
   -2.6175   48.1982   34.2824 H   0  0  0  0  0  0  0  0  0  0  0  0
   -1.5156   48.3804   32.8755 H   0  0  0  0  0  0  0  0  0  0  0  0
   -3.1149   49.1982   32.8755 H   0  0  0  0  0  0  0  0  0  0  0  0
   -2.9899   48.2136   28.3633 H   0  0  0  0  0  0  0  0  0  0  0  0
   -2.5936   49.3943   27.0689 H   0  0  0  0  0  0  0  0  0  0  0  0
   -4.1855   48.5623   27.0689 H   0  0  0  0  0  0  0  0  0  0  0  0
   -2.6995   46.6560   24.9166 H   0  0  0  0  0  0  0  0  0  0  0  0
   -1.5141   46.7868   23.5733 H   0  0  0  0  0  0  0  0  0  0  0  0
   -2.7291   45.4637   23.5733 H   0  0  0  0  0  0  0  0  0  0  0  0
    1.3607   42.6755   27.9883 H   0  0  0  0  0  0  0  0  0  0  0  0
    1.1508   41.5290   26.6215 H   0  0  0  0  0  0  0  0  0  0  0  0
    2.5262   42.6844   26.6215 H   0  0  0  0  0  0  0  0  0  0  0  0
   -9.5291   45.9796   34.0038 H   0  0  0  0  0  0  0  0  0  0  0  0
   -9.3551   44.6807   32.7933 H   0  0  0  0  0  0  0  0  0  0  0  0
   -4.1469   48.7881   34.4596 H   0  0  0  0  0  0  0  0  0  0  0  0
   -5.7514   48.9252   35.2275 H   0  0  0  0  0  0  0  0  0  0  0  0
  1  2  2  0
  2  3  1  0
  3  4  2  0
  1  5  1  0
  4  6  1  0
  5  6  2  0
  6  7  1  0
  7  8  2  0
  8  9  1  0
  5 10  1  0
  9 10  2  0
  8 11  1  0
 11 12  1  0
 12 13  1  0
 13 14  2  0
 14 15  1  0
 15 16  2  0
 16 17  1  0
 13 18  1  0
 17 18  2  0
  7 19  1  0
 15 20  1  0
 16 21  1  0
 17 22  1  0
 20 23  1  0
 21 24  1  0
 22 25  1  0
  2 26  1  0
  4 27  1  0
  9 28  1  0
 10 29  1  0
 11 30  1  0
 11 31  1  0
 12 32  1  0
 14 33  1  0
 18 34  1  0
 19 35  1  0
 19 36  1  0
 19 37  1  0
 23 38  1  0
 23 39  1  0
 23 40  1  0
 24 41  1  0
 24 42  1  0
 24 43  1  0
 25 44  1  0
 25 45  1  0
 25 46  1  0
 26 47  1  0
 26 48  1  0
 27 49  1  0
 27 50  1  0
M  END
$$$$
