PDB_DB05812_94
     RDKit          3D

 57 61  0  0  0  0  0  0  0  0999 V2000
  -25.9430   30.5360  -57.7310 C   0  0  0  0  0  0  0  0  0  0  0  0
  -26.0880   29.0730  -58.1790 C   0  0  0  0  0  0  0  0  0  0  0  0
  -26.7940   29.1500  -59.5290 C   0  0  2  0  0  0  0  0  0  0  0  0
  -27.0250   27.7930  -59.9590 O   0  0  0  0  0  0  0  0  0  0  0  0
  -25.9250   29.9420  -60.4860 C   0  0  0  0  0  0  0  0  0  0  0  0
  -25.7550   31.2440  -59.9390 C   0  0  0  0  0  0  0  0  0  0  0  0
  -26.2400   32.4290  -60.5300 C   0  0  0  0  0  0  0  0  0  0  0  0
  -25.9890   33.6490  -59.7980 C   0  0  0  0  0  0  0  0  0  0  0  0
  -24.7300   33.7610  -58.8950 C   0  0  2  0  0  0  0  0  0  0  0  0
  -25.1410   32.8300  -57.9740 C   0  0  1  0  0  0  0  0  0  0  0  0
  -25.0790   31.3880  -58.6970 C   0  0  1  0  0  0  0  0  0  0  0  0
  -24.3370   32.8670  -56.6580 C   0  0  0  0  0  0  0  0  0  0  0  0
  -24.5540   34.3460  -56.0610 C   0  0  0  0  0  0  0  0  0  0  0  0
  -23.9770   35.3850  -57.0960 C   0  0  1  0  0  0  0  0  0  0  0  0
  -24.9340   35.2070  -58.2730 C   0  0  1  0  0  0  0  0  0  0  0  0
  -24.5220   36.2310  -59.1620 C   0  0  0  0  0  0  0  0  0  0  0  0
  -24.7800   37.3090  -58.2660 C   0  0  0  0  0  0  0  0  0  0  0  0
  -24.4730   36.8290  -56.9950 C   0  0  0  0  0  0  0  0  0  0  0  0
  -22.5020   35.3060  -57.4320 C   0  0  0  0  0  0  0  0  0  0  0  0
  -23.7030   30.8030  -58.7470 C   0  0  0  0  0  0  0  0  0  0  0  0
  -24.6360   37.6890  -55.9630 C   0  0  0  0  0  0  0  0  0  0  0  0
  -25.3700   38.8150  -56.2180 C   0  0  0  0  0  0  0  0  0  0  0  0
  -25.5390   39.7700  -55.2490 N   0  0  0  0  0  0  0  0  0  0  0  0
  -24.8600   39.7320  -54.0700 C   0  0  0  0  0  0  0  0  0  0  0  0
  -24.0220   38.7080  -53.8250 C   0  0  0  0  0  0  0  0  0  0  0  0
  -23.8780   37.7260  -54.7860 C   0  0  0  0  0  0  0  0  0  0  0  0
  -26.9457   30.9843  -57.6711 H   0  0  0  0  0  0  0  0  0  0  0  0
  -25.4340   30.5304  -56.7559 H   0  0  0  0  0  0  0  0  0  0  0  0
  -25.1006   28.5997  -58.2840 H   0  0  0  0  0  0  0  0  0  0  0  0
  -26.6476   28.4680  -57.4504 H   0  0  0  0  0  0  0  0  0  0  0  0
  -27.7627   29.6688  -59.4799 H   0  0  0  0  0  0  0  0  0  0  0  0
  -27.1246   27.2081  -59.1665 H   0  0  0  0  0  0  0  0  0  0  0  0
  -24.9467   29.4516  -60.5970 H   0  0  0  0  0  0  0  0  0  0  0  0
  -26.3973   29.9994  -61.4778 H   0  0  0  0  0  0  0  0  0  0  0  0
  -26.7769   32.4247  -61.4901 H   0  0  0  0  0  0  0  0  0  0  0  0
  -25.9218   34.4580  -60.5403 H   0  0  0  0  0  0  0  0  0  0  0  0
  -26.8223   33.6931  -59.0813 H   0  0  0  0  0  0  0  0  0  0  0  0
  -23.7122   33.6290  -59.2908 H   0  0  0  0  0  0  0  0  0  0  0  0
  -26.1689   33.0585  -57.6560 H   0  0  0  0  0  0  0  0  0  0  0  0
  -24.7151   32.1098  -55.9554 H   0  0  0  0  0  0  0  0  0  0  0  0
  -23.2722   32.6471  -56.8247 H   0  0  0  0  0  0  0  0  0  0  0  0
  -25.6272   34.5313  -55.9065 H   0  0  0  0  0  0  0  0  0  0  0  0
  -24.0371   34.4452  -55.0951 H   0  0  0  0  0  0  0  0  0  0  0  0
  -26.0018   35.2805  -58.0192 H   0  0  0  0  0  0  0  0  0  0  0  0
  -23.4606   36.1525  -59.4398 H   0  0  0  0  0  0  0  0  0  0  0  0
  -25.0070   36.2679  -60.1486 H   0  0  0  0  0  0  0  0  0  0  0  0
  -25.1462   38.3134  -58.5250 H   0  0  0  0  0  0  0  0  0  0  0  0
  -21.9153   35.2746  -56.5021 H   0  0  0  0  0  0  0  0  0  0  0  0
  -22.3079   34.3962  -58.0190 H   0  0  0  0  0  0  0  0  0  0  0  0
  -22.2118   36.1899  -58.0190 H   0  0  0  0  0  0  0  0  0  0  0  0
  -23.3339   30.6461  -57.7227 H   0  0  0  0  0  0  0  0  0  0  0  0
  -23.7331   29.8399  -59.2775 H   0  0  0  0  0  0  0  0  0  0  0  0
  -23.0303   31.4929  -59.2775 H   0  0  0  0  0  0  0  0  0  0  0  0
  -25.8281   38.9552  -57.2082 H   0  0  0  0  0  0  0  0  0  0  0  0
  -24.9949   40.5301  -53.3251 H   0  0  0  0  0  0  0  0  0  0  0  0
  -23.4632   38.6540  -52.8791 H   0  0  0  0  0  0  0  0  0  0  0  0
  -23.1320   36.9351  -54.6186 H   0  0  0  0  0  0  0  0  0  0  0  0
  1  2  1  0
  2  3  1  0
  3  4  1  0
  3  5  1  0
  5  6  1  0
  6  7  2  0
  7  8  1  0
  8  9  1  0
  9 10  1  0
  1 11  1  0
  6 11  1  0
 10 11  1  0
 10 12  1  0
 12 13  1  0
 13 14  1  0
  9 15  1  0
 14 15  1  0
 15 16  1  0
 16 17  1  0
 14 18  1  0
 17 18  2  0
 14 19  1  6
 11 20  1  6
 18 21  1  0
 21 22  2  0
 22 23  1  0
 24 23  2  0
 24 25  1  0
 21 26  1  0
 25 26  2  0
  1 27  1  0
  1 28  1  0
  2 29  1  0
  2 30  1  0
  3 31  1  1
  4 32  1  0
  5 33  1  0
  5 34  1  0
  7 35  1  0
  8 36  1  0
  8 37  1  0
  9 38  1  6
 10 39  1  1
 12 40  1  0
 12 41  1  0
 13 42  1  0
 13 43  1  0
 15 44  1  1
 16 45  1  0
 16 46  1  0
 17 47  1  0
 19 48  1  0
 19 49  1  0
 19 50  1  0
 20 51  1  0
 20 52  1  0
 20 53  1  0
 22 54  1  0
 24 55  1  0
 25 56  1  0
 26 57  1  0
M  END
$$$$
