PDB_DB00481_98
     RDKit          3D

 61 65  0  0  0  0  0  0  0  0999 V2000
   14.2520  -16.7940   24.2330 C   0  0  0  0  0  0  0  0  0  0  0  0
   13.0510  -16.1320   23.9550 C   0  0  0  0  0  0  0  0  0  0  0  0
   12.8980  -14.7420   24.1330 C   0  0  0  0  0  0  0  0  0  0  0  0
   11.6900  -14.1650   23.8190 O   0  0  0  0  0  0  0  0  0  0  0  0
   13.9530  -13.9330   24.6050 C   0  0  0  0  0  0  0  0  0  0  0  0
   15.1740  -14.5470   24.9110 C   0  0  0  0  0  0  0  0  0  0  0  0
   16.5720  -13.7440   25.4910 S   0  0  0  0  0  0  0  0  0  0  0  0
   17.4880  -15.2090   25.5430 C   0  0  0  0  0  0  0  0  0  0  0  0
   18.8760  -15.2210   26.0600 C   0  0  0  0  0  0  0  0  0  0  0  0
   19.1340  -14.5840   27.2960 C   0  0  0  0  0  0  0  0  0  0  0  0
   20.4220  -14.6540   27.8420 C   0  0  0  0  0  0  0  0  0  0  0  0
   21.4220  -15.3680   27.1620 C   0  0  0  0  0  0  0  0  0  0  0  0
   22.6870  -15.4410   27.6830 O   0  0  0  0  0  0  0  0  0  0  0  0
   21.1480  -16.0240   25.9600 C   0  0  0  0  0  0  0  0  0  0  0  0
   19.8640  -15.9580   25.4140 C   0  0  0  0  0  0  0  0  0  0  0  0
   15.3020  -16.0120   24.7010 C   0  0  0  0  0  0  0  0  0  0  0  0
   16.6700  -16.3570   25.1070 C   0  0  0  0  0  0  0  0  0  0  0  0
   17.1810  -17.7460   25.0170 C   0  0  0  0  0  0  0  0  0  0  0  0
   17.4890  -18.3580   26.0240 O   0  0  0  0  0  0  0  0  0  0  0  0
   17.4160  -18.3030   23.6450 C   0  0  0  0  0  0  0  0  0  0  0  0
   17.6080  -19.6740   23.4650 C   0  0  0  0  0  0  0  0  0  0  0  0
   17.8360  -20.1860   22.1860 C   0  0  0  0  0  0  0  0  0  0  0  0
   17.8740  -19.3200   21.0910 C   0  0  0  0  0  0  0  0  0  0  0  0
   17.6820  -17.9380   21.2670 C   0  0  0  0  0  0  0  0  0  0  0  0
   17.4590  -17.4210   22.5370 C   0  0  0  0  0  0  0  0  0  0  0  0
   18.1150  -19.8000   19.8340 O   0  0  0  0  0  0  0  0  0  0  0  0
   17.7890  -21.1580   19.5400 C   0  0  0  0  0  0  0  0  0  0  0  0
   18.2100  -21.5090   18.1270 C   0  0  0  0  0  0  0  0  0  0  0  0
   17.1250  -21.2670   17.1770 N   0  0  0  0  0  0  0  0  0  0  0  0
   17.5450  -21.8500   15.8840 C   0  0  0  0  0  0  0  0  0  0  0  0
   16.4780  -21.6820   14.8090 C   0  0  0  0  0  0  0  0  0  0  0  0
   16.1520  -20.2020   14.6450 C   0  0  0  0  0  0  0  0  0  0  0  0
   15.7770  -19.5460   15.9760 C   0  0  0  0  0  0  0  0  0  0  0  0
   16.8300  -19.8250   17.0510 C   0  0  0  0  0  0  0  0  0  0  0  0
   14.3600  -17.8791   24.0885 H   0  0  0  0  0  0  0  0  0  0  0  0
   12.1962  -16.7168   23.5845 H   0  0  0  0  0  0  0  0  0  0  0  0
   11.5615  -13.1904   23.9366 H   0  0  0  0  0  0  0  0  0  0  0  0
   13.8201  -12.8482   24.7294 H   0  0  0  0  0  0  0  0  0  0  0  0
   18.3344  -14.0411   27.8212 H   0  0  0  0  0  0  0  0  0  0  0  0
   20.6483  -14.1540   28.7953 H   0  0  0  0  0  0  0  0  0  0  0  0
   23.3916  -15.9445   27.2033 H   0  0  0  0  0  0  0  0  0  0  0  0
   21.9391  -16.5897   25.4459 H   0  0  0  0  0  0  0  0  0  0  0  0
   19.6347  -16.4866   24.4770 H   0  0  0  0  0  0  0  0  0  0  0  0
   17.5797  -20.3514   24.3312 H   0  0  0  0  0  0  0  0  0  0  0  0
   17.9850  -21.2663   22.0416 H   0  0  0  0  0  0  0  0  0  0  0  0
   17.7085  -17.2650   20.3973 H   0  0  0  0  0  0  0  0  0  0  0  0
   17.3175  -16.3396   22.6807 H   0  0  0  0  0  0  0  0  0  0  0  0
   18.3117  -21.8176   20.2483 H   0  0  0  0  0  0  0  0  0  0  0  0
   16.7009  -21.2913   19.6314 H   0  0  0  0  0  0  0  0  0  0  0  0
   19.0765  -20.8920   17.8469 H   0  0  0  0  0  0  0  0  0  0  0  0
   18.4688  -22.5777   18.0957 H   0  0  0  0  0  0  0  0  0  0  0  0
   18.4663  -21.3496   15.5513 H   0  0  0  0  0  0  0  0  0  0  0  0
   17.7095  -22.9272   16.0342 H   0  0  0  0  0  0  0  0  0  0  0  0
   16.8517  -22.0832   13.8554 H   0  0  0  0  0  0  0  0  0  0  0  0
   15.5697  -22.2274   15.1049 H   0  0  0  0  0  0  0  0  0  0  0  0
   17.0324  -19.6882   14.2316 H   0  0  0  0  0  0  0  0  0  0  0  0
   15.2880  -20.1175   13.9695 H   0  0  0  0  0  0  0  0  0  0  0  0
   15.6948  -18.4590   15.8289 H   0  0  0  0  0  0  0  0  0  0  0  0
   14.8182  -19.9675   16.3122 H   0  0  0  0  0  0  0  0  0  0  0  0
   16.4582  -19.4530   18.0171 H   0  0  0  0  0  0  0  0  0  0  0  0
   17.7584  -19.3131   16.7576 H   0  0  0  0  0  0  0  0  0  0  0  0
  1  2  2  0
  2  3  1  0
  3  4  1  0
  3  5  2  0
  5  6  1  0
  6  7  1  0
  7  8  1  0
  8  9  1  0
  9 10  2  0
 10 11  1  0
 11 12  2  0
 12 13  1  0
 12 14  1  0
  9 15  1  0
 14 15  2  0
  1 16  1  0
  6 16  2  0
  8 17  2  0
 16 17  1  0
 17 18  1  0
 18 19  2  0
 18 20  1  0
 20 21  2  0
 21 22  1  0
 22 23  2  0
 23 24  1  0
 20 25  1  0
 24 25  2  0
 23 26  1  0
 26 27  1  0
 27 28  1  0
 28 29  1  0
 29 30  1  0
 30 31  1  0
 31 32  1  0
 32 33  1  0
 29 34  1  0
 33 34  1  0
  1 35  1  0
  2 36  1  0
  4 37  1  0
  5 38  1  0
 10 39  1  0
 11 40  1  0
 13 41  1  0
 14 42  1  0
 15 43  1  0
 21 44  1  0
 22 45  1  0
 24 46  1  0
 25 47  1  0
 27 48  1  0
 27 49  1  0
 28 50  1  0
 28 51  1  0
 30 52  1  0
 30 53  1  0
 31 54  1  0
 31 55  1  0
 32 56  1  0
 32 57  1  0
 33 58  1  0
 33 59  1  0
 34 60  1  0
 34 61  1  0
M  END
$$$$
