PDB_DB00703_98
     RDKit          3D

 30 30  0  0  0  0  0  0  0  0999 V2000
   -5.5110   -0.8020   16.1750 N   0  0  0  0  0  0  0  0  0  0  0  0
   -6.0330    0.5790   16.8800 S   0  0  1  0  0  4  0  0  0  0  0  0
   -7.5190    0.7640   16.7400 O   0  0  0  0  0  0  0  0  0  0  0  0
   -5.5040    0.6910   18.2650 O   0  0  0  0  0  0  0  0  0  0  0  0
   -5.4010    1.8830   15.9230 C   0  0  0  0  0  0  0  0  0  0  0  0
   -6.1330    2.9880   15.0890 S   0  0  0  0  0  0  0  0  0  0  0  0
   -4.9130    3.7370   14.5290 C   0  0  0  0  0  0  0  0  0  0  0  0
   -3.6840    3.1900   14.9830 N   0  0  0  0  0  0  0  0  0  0  0  0
   -2.3380    3.6260   14.6570 C   0  0  0  0  0  0  0  0  0  0  0  0
   -4.0040    1.9820   15.8610 N   0  0  0  0  0  0  0  0  0  0  0  0
   -4.9190    4.8640   13.6940 N   0  0  0  0  0  0  0  0  0  0  0  0
   -6.1260    5.4170   13.2160 C   0  0  2  0  0  0  0  0  0  0  0  0
   -7.1960    4.8970   13.4210 O   0  0  0  0  0  0  0  0  0  0  0  0
   -5.9330    6.5550   12.2070 C   0  0  0  0  0  0  0  0  0  0  0  0
   -4.7050   -1.0220   16.5070 H   0  0  0  0  0  0  0  0  0  0  0  0
   -1.6900    3.1350   15.2040 H   0  0  0  0  0  0  0  0  0  0  0  0
   -2.1630    3.4450   13.7120 H   0  0  0  0  0  0  0  0  0  0  0  0
   -2.2540    4.6020   14.8220 H   0  0  0  0  0  0  0  0  0  0  0  0
   -5.2680    6.2920   11.5400 H   0  0  0  0  0  0  0  0  0  0  0  0
   -6.7870    6.7450   11.7610 H   0  0  0  0  0  0  0  0  0  0  0  0
   -5.6220    7.3650   12.6800 H   0  0  0  0  0  0  0  0  0  0  0  0
   -6.1806   -1.5604   16.3683 H   0  0  0  0  0  0  0  0  0  0  0  0
   -7.9313    0.8153   17.6386 H   0  0  0  0  0  0  0  0  0  0  0  0
   -6.2372    0.5358   18.9119 H   0  0  0  0  0  0  0  0  0  0  0  0
   -5.3849    1.2272   15.0400 H   0  0  0  0  0  0  0  0  0  0  0  0
   -4.9314    4.4147   15.3953 H   0  0  0  0  0  0  0  0  0  0  0  0
   -3.6162    2.1178   16.8055 H   0  0  0  0  0  0  0  0  0  0  0  0
   -4.4406    5.6139   14.2134 H   0  0  0  0  0  0  0  0  0  0  0  0
   -6.6627    5.8714   14.0619 H   0  0  0  0  0  0  0  0  0  0  0  0
   -7.3459    4.8241   14.3969 H   0  0  0  0  0  0  0  0  0  0  0  0
  1  2  1  0
  2  3  1  1
  2  4  1  0
  2  5  1  0
  5  6  1  0
  6  7  1  0
  7  8  1  0
  8  9  1  0
  5 10  1  0
  8 10  1  0
  7 11  1  0
 11 12  1  0
 12 13  1  0
 12 14  1  0
 15  1  1  0
  9 16  1  0
  9 17  1  0
  9 18  1  0
 14 19  1  0
 14 20  1  0
 14 21  1  0
  1 22  1  0
  3 23  1  0
  4 24  1  0
  5 25  1  0
  7 26  1  0
 10 27  1  0
 11 28  1  0
 12 29  1  1
 13 30  1  0
M  ISO  1  15   2
M  END
>  <PDBID>  (1) 
5C8I

>  <PDB ID>  (1) 
5C8I

>  <Generic Name>  (1) 
Methazolamide

>  <Brand Name>  (1) 
Methazolamide#Neptazane#Neptazane Tablets 25mg#Neptazane Tablets 25mg USP#Neptazane Tablets 50mg#Naptazane

>  <DrugBank ID>  (1) 
DB00703

>  <ATC Codes>  (1) 
S01EC05

>  <Ligand ID>  (1) 
MZM

>  <Target Name>  (1) 
Carbonic anhydrase 1

>  <UniProt ID>  (1) 
P00915

>  <PDB ID.1>  (1) 
5C8I

>  <Seq. Identity>  (1) 
61%

$$$$
