PDB_DB01394_97
     RDKit          3D

 70 72  0  0  0  0  0  0  0  0999 V2000
   -5.8210   22.3590  -25.0200 O   0  0  0  0  0  0  0  0  0  0  0  0
   -5.5900   21.5620  -24.1270 C   0  0  0  0  0  0  0  0  0  0  0  0
   -6.6290   21.1790  -23.1130 C   0  0  0  0  0  0  0  0  0  0  0  0
   -4.4020   20.9740  -23.9920 N   0  0  0  0  0  0  0  0  0  0  0  0
   -3.3060   21.2130  -24.9170 C   0  0  2  0  0  0  0  0  0  0  0  0
   -3.5100   20.4970  -26.2210 C   0  0  0  0  0  0  0  0  0  0  0  0
   -4.2730   19.3910  -26.2020 C   0  0  0  0  0  0  0  0  0  0  0  0
   -1.9860   20.7680  -24.2870 C   0  0  0  0  0  0  0  0  0  0  0  0
   -0.8100   20.7900  -25.2660 C   0  0  0  0  0  0  0  0  0  0  0  0
   -0.8470   22.0660  -26.0750 C   0  0  0  0  0  0  0  0  0  0  0  0
    0.0650   23.0960  -25.8330 C   0  0  0  0  0  0  0  0  0  0  0  0
    0.0540   24.2880  -26.5630 C   0  0  0  0  0  0  0  0  0  0  0  0
   -0.9490   24.5050  -27.6350 C   0  0  0  0  0  0  0  0  0  0  0  0
   -1.9330   23.4420  -27.9330 C   0  0  0  0  0  0  0  0  0  0  0  0
   -2.8670   23.6190  -28.9160 O   0  0  0  0  0  0  0  0  0  0  0  0
   -4.1480   24.1400  -28.5670 C   0  0  0  0  0  0  0  0  0  0  0  0
   -0.9580   25.6660  -28.3560 O   0  0  0  0  0  0  0  0  0  0  0  0
   -0.2780   25.6770  -29.6090 C   0  0  0  0  0  0  0  0  0  0  0  0
    0.9650   25.2810  -26.3000 O   0  0  0  0  0  0  0  0  0  0  0  0
    2.1190   25.0180  -25.5060 C   0  0  0  0  0  0  0  0  0  0  0  0
   -1.8810   22.1980  -27.1300 C   0  0  0  0  0  0  0  0  0  0  0  0
   -2.8360   21.0710  -27.3800 C   0  0  0  0  0  0  0  0  0  0  0  0
   -2.9450   20.6870  -28.6620 C   0  0  0  0  0  0  0  0  0  0  0  0
   -3.7510   19.6480  -29.2900 C   0  0  0  0  0  0  0  0  0  0  0  0
   -4.4860   18.6890  -28.7190 C   0  0  0  0  0  0  0  0  0  0  0  0
   -4.6590   18.4690  -27.2870 C   0  0  0  0  0  0  0  0  0  0  0  0
   -5.1950   17.4230  -26.9590 O   0  0  0  0  0  0  0  0  0  0  0  0
   -5.1870   17.7840  -29.6140 O   0  0  0  0  0  0  0  0  0  0  0  0
   -4.9650   17.8590  -31.0190 C   0  0  0  0  0  0  0  0  0  0  0  0
   -6.0739   23.2315  -24.6264 H   0  0  0  0  0  0  0  0  0  0  0  0
   -5.2596   22.3858  -23.4772 H   0  0  0  0  0  0  0  0  0  0  0  0
   -6.2256   21.3277  -22.1005 H   0  0  0  0  0  0  0  0  0  0  0  0
   -7.5220   21.8071  -23.2478 H   0  0  0  0  0  0  0  0  0  0  0  0
   -6.9007   20.1216  -23.2478 H   0  0  0  0  0  0  0  0  0  0  0  0
   -4.0541   21.2412  -23.0601 H   0  0  0  0  0  0  0  0  0  0  0  0
   -3.2756   22.2927  -25.1253 H   0  0  0  0  0  0  0  0  0  0  0  0
   -2.6176   19.8847  -26.0244 H   0  0  0  0  0  0  0  0  0  0  0  0
   -3.7783   18.7407  -25.4655 H   0  0  0  0  0  0  0  0  0  0  0  0
   -5.2446   19.8963  -26.0990 H   0  0  0  0  0  0  0  0  0  0  0  0
   -1.7548   21.4414  -23.4485 H   0  0  0  0  0  0  0  0  0  0  0  0
   -2.1168   19.7264  -23.9584 H   0  0  0  0  0  0  0  0  0  0  0  0
    0.1346   20.7399  -24.7046 H   0  0  0  0  0  0  0  0  0  0  0  0
   -0.8824   19.9262  -25.9431 H   0  0  0  0  0  0  0  0  0  0  0  0
   -1.5407   22.5087  -25.3450 H   0  0  0  0  0  0  0  0  0  0  0  0
   -0.0664   23.3807  -24.7786 H   0  0  0  0  0  0  0  0  0  0  0  0
    1.0139   22.6409  -26.1529 H   0  0  0  0  0  0  0  0  0  0  0  0
    0.7428   23.8447  -27.2972 H   0  0  0  0  0  0  0  0  0  0  0  0
   -0.2565   24.0703  -28.3709 H   0  0  0  0  0  0  0  0  0  0  0  0
   -2.6254   23.8765  -27.1969 H   0  0  0  0  0  0  0  0  0  0  0  0
   -4.2422   24.1783  -27.4717 H   0  0  0  0  0  0  0  0  0  0  0  0
   -4.2565   25.1537  -28.9801 H   0  0  0  0  0  0  0  0  0  0  0  0
   -4.9332   23.4898  -28.9801 H   0  0  0  0  0  0  0  0  0  0  0  0
    0.8083   25.6946  -29.4365 H   0  0  0  0  0  0  0  0  0  0  0  0
   -0.5443   24.7744  -30.1786 H   0  0  0  0  0  0  0  0  0  0  0  0
   -0.5733   26.5705  -30.1786 H   0  0  0  0  0  0  0  0  0  0  0  0
    1.8526   25.0787  -24.4405 H   0  0  0  0  0  0  0  0  0  0  0  0
    2.4980   24.0105  -25.7324 H   0  0  0  0  0  0  0  0  0  0  0  0
    2.8971   25.7618  -25.7324 H   0  0  0  0  0  0  0  0  0  0  0  0
   -2.5715   22.6418  -26.3977 H   0  0  0  0  0  0  0  0  0  0  0  0
   -3.6570   21.7932  -27.4997 H   0  0  0  0  0  0  0  0  0  0  0  0
   -3.2481   21.6057  -29.1855 H   0  0  0  0  0  0  0  0  0  0  0  0
   -1.9811   20.1606  -28.7237 H   0  0  0  0  0  0  0  0  0  0  0  0
   -4.4646   20.1998  -29.9195 H   0  0  0  0  0  0  0  0  0  0  0  0
   -2.9286   19.0148  -29.6542 H   0  0  0  0  0  0  0  0  0  0  0  0
   -3.6121   18.0210  -28.7161 H   0  0  0  0  0  0  0  0  0  0  0  0
   -5.6517   18.9405  -27.3345 H   0  0  0  0  0  0  0  0  0  0  0  0
   -5.2255   17.3634  -25.9713 H   0  0  0  0  0  0  0  0  0  0  0  0
   -3.9387   18.2057  -31.2101 H   0  0  0  0  0  0  0  0  0  0  0  0
   -5.1050   16.8637  -31.4660 H   0  0  0  0  0  0  0  0  0  0  0  0
   -5.6799   18.5655  -31.4660 H   0  0  0  0  0  0  0  0  0  0  0  0
  1  2  1  0
  2  3  1  0
  2  4  1  0
  4  5  1  0
  5  6  1  0
  6  7  1  0
  5  8  1  0
  8  9  1  0
  9 10  1  0
 10 11  1  0
 11 12  1  0
 12 13  1  0
 13 14  1  0
 14 15  1  0
 15 16  1  0
 13 17  1  0
 17 18  1  0
 12 19  1  0
 19 20  1  0
 10 21  1  0
 14 21  1  0
  6 22  1  0
 21 22  1  0
 22 23  1  0
 23 24  1  0
 24 25  1  0
  7 26  1  0
 25 26  1  0
 26 27  1  0
 25 28  1  0
 28 29  1  0
  1 30  1  0
  2 31  1  0
  3 32  1  0
  3 33  1  0
  3 34  1  0
  4 35  1  0
  5 36  1  6
  6 37  1  0
  7 38  1  0
  7 39  1  0
  8 40  1  0
  8 41  1  0
  9 42  1  0
  9 43  1  0
 10 44  1  0
 11 45  1  0
 11 46  1  0
 12 47  1  0
 13 48  1  0
 14 49  1  0
 16 50  1  0
 16 51  1  0
 16 52  1  0
 18 53  1  0
 18 54  1  0
 18 55  1  0
 20 56  1  0
 20 57  1  0
 20 58  1  0
 21 59  1  0
 22 60  1  0
 23 61  1  0
 23 62  1  0
 24 63  1  0
 24 64  1  0
 25 65  1  0
 26 66  1  0
 27 67  1  0
 29 68  1  0
 29 69  1  0
 29 70  1  0
M  END
>  <PDBID>  (1) 
5ITZ

>  <PDB ID>  (1) 
5ITZ

>  <Generic Name>  (1) 
Colchicine

>  <Brand Name>  (1) 
Colchicine#Colchicine Tab 0.6mg#Colchicine Tab 1mg#Colcrys#Euro-colchicine#Jamp-colchicine#Mitigare#PMS-colchicine#Probenecid and Colchicine#Verban Ont

>  <DrugBank ID>  (1) 
DB01394

>  <ATC Codes>  (1) 
M04AC01

>  <Ligand ID>  (1) 
LOC

>  <Target Name>  (1) 
Tubulin beta-1 chain

>  <UniProt ID>  (1) 
Q9H4B7

>  <PDB ID.1>  (1) 
5ITZ

>  <Seq. Identity>  (1) 
78%

$$$$
