PDB_DB00176_99
     RDKit          3D

 51 51  0  0  0  0  0  0  0  0999 V2000
   35.8250  180.4700  143.3310 C   0  0  0  0  0  0  0  0  0  0  0  0
   36.0530  181.7850  143.7550 O   0  0  0  0  0  0  0  0  0  0  0  0
   36.3190  182.6750  142.7130 C   0  0  0  0  0  0  0  0  0  0  0  0
   35.1360  183.6260  142.5670 C   0  0  0  0  0  0  0  0  0  0  0  0
   35.1800  184.2610  141.1820 C   0  0  0  0  0  0  0  0  0  0  0  0
   33.9650  185.1770  141.0100 C   0  0  0  0  0  0  0  0  0  0  0  0
   33.8330  186.1150  142.2120 C   0  0  0  0  0  0  0  0  0  0  0  0
   34.6820  187.0030  142.4260 N   0  0  0  0  0  0  0  0  0  0  0  0
   35.7820  187.1620  141.5760 O   0  0  0  0  0  0  0  0  0  0  0  0
   35.7640  188.4500  141.0460 C   0  0  0  0  0  0  0  0  0  0  0  0
   36.4630  188.4300  139.6960 C   0  0  0  0  0  0  0  0  0  0  0  0
   37.7600  189.0690  139.8380 N   0  0  0  0  0  0  0  0  0  0  0  0
   32.6520  185.9900  143.1690 C   0  0  0  0  0  0  0  0  0  0  0  0
   31.7760  184.9190  143.0580 C   0  0  0  0  0  0  0  0  0  0  0  0
   30.7030  184.8160  143.9320 C   0  0  0  0  0  0  0  0  0  0  0  0
   30.5040  185.7800  144.9110 C   0  0  0  0  0  0  0  0  0  0  0  0
   31.3810  186.8510  145.0170 C   0  0  0  0  0  0  0  0  0  0  0  0
   32.4540  186.9570  144.1450 C   0  0  0  0  0  0  0  0  0  0  0  0
   29.3160  185.6650  145.8710 C   0  0  1  0  0  0  0  0  0  0  0  0
   28.8080  186.9100  146.1040 F   0  0  0  0  0  0  0  0  0  0  0  0
   28.3500  184.8750  145.3120 F   0  0  0  0  0  0  0  0  0  0  0  0
   29.7210  185.1320  147.0600 F   0  0  0  0  0  0  0  0  0  0  0  0
   35.7117  179.8163  144.2084 H   0  0  0  0  0  0  0  0  0  0  0  0
   34.9072  180.4338  142.7258 H   0  0  0  0  0  0  0  0  0  0  0  0
   36.6771  180.1269  142.7258 H   0  0  0  0  0  0  0  0  0  0  0  0
   37.2294  183.2491  142.9401 H   0  0  0  0  0  0  0  0  0  0  0  0
   36.4707  182.1195  141.7757 H   0  0  0  0  0  0  0  0  0  0  0  0
   34.1962  183.0672  142.6872 H   0  0  0  0  0  0  0  0  0  0  0  0
   35.1904  184.4091  143.3376 H   0  0  0  0  0  0  0  0  0  0  0  0
   36.1029  184.8501  141.0764 H   0  0  0  0  0  0  0  0  0  0  0  0
   35.1617  183.4741  140.4136 H   0  0  0  0  0  0  0  0  0  0  0  0
   34.0879  185.7749  140.0949 H   0  0  0  0  0  0  0  0  0  0  0  0
   33.0581  184.5588  140.9371 H   0  0  0  0  0  0  0  0  0  0  0  0
   34.4147  185.4110  142.8252 H   0  0  0  0  0  0  0  0  0  0  0  0
   34.1760  187.9001  142.4226 H   0  0  0  0  0  0  0  0  0  0  0  0
   34.7236  188.7839  140.9195 H   0  0  0  0  0  0  0  0  0  0  0  0
   36.2810  189.1430  141.7261 H   0  0  0  0  0  0  0  0  0  0  0  0
   36.5963  187.3902  139.3627 H   0  0  0  0  0  0  0  0  0  0  0  0
   35.8581  188.9673  138.9508 H   0  0  0  0  0  0  0  0  0  0  0  0
   37.9814  189.1781  140.8380 H   0  0  0  0  0  0  0  0  0  0  0  0
   38.4808  188.4866  139.3883 H   0  0  0  0  0  0  0  0  0  0  0  0
   32.0280  186.5723  142.4750 H   0  0  0  0  0  0  0  0  0  0  0  0
   31.3574  184.9531  142.0413 H   0  0  0  0  0  0  0  0  0  0  0  0
   32.3997  184.0498  143.3139 H   0  0  0  0  0  0  0  0  0  0  0  0
   29.7926  184.7991  143.3148 H   0  0  0  0  0  0  0  0  0  0  0  0
   30.9400  183.9132  144.5141 H   0  0  0  0  0  0  0  0  0  0  0  0
   31.1272  185.2007  145.6081 H   0  0  0  0  0  0  0  0  0  0  0  0
   30.7817  187.7654  144.8959 H   0  0  0  0  0  0  0  0  0  0  0  0
   31.8628  186.6879  145.9924 H   0  0  0  0  0  0  0  0  0  0  0  0
   33.3643  186.9766  144.7622 H   0  0  0  0  0  0  0  0  0  0  0  0
   32.2191  187.8602  143.5628 H   0  0  0  0  0  0  0  0  0  0  0  0
  1  2  1  0
  2  3  1  0
  3  4  1  0
  4  5  1  0
  5  6  1  0
  6  7  1  0
  7  8  1  0
  8  9  1  0
  9 10  1  0
 10 11  1  0
 11 12  1  0
  7 13  1  0
 13 14  1  0
 14 15  1  0
 15 16  1  0
 16 17  1  0
 13 18  1  0
 17 18  1  0
 16 19  1  0
 19 20  1  1
 19 21  1  0
 19 22  1  0
  1 23  1  0
  1 24  1  0
  1 25  1  0
  3 26  1  0
  3 27  1  0
  4 28  1  0
  4 29  1  0
  5 30  1  0
  5 31  1  0
  6 32  1  0
  6 33  1  0
  7 34  1  0
  8 35  1  0
 10 36  1  0
 10 37  1  0
 11 38  1  0
 11 39  1  0
 12 40  1  0
 12 41  1  0
 13 42  1  0
 14 43  1  0
 14 44  1  0
 15 45  1  0
 15 46  1  0
 16 47  1  0
 17 48  1  0
 17 49  1  0
 18 50  1  0
 18 51  1  0
M  END
>  <PDBID>  (1) 
6AWP

>  <PDB ID>  (1) 
6AWP

>  <Generic Name>  (1) 
Fluvoxamine

>  <Brand Name>  (1) 
Act Fluvoxamine#Apo-fluvoxamine Tablets#Ava-fluvoxamine#Bci Fluvoxamine Tablets#Dom-fluvoxamine#Fluvoxamine Maleate#Fluvoxamine Maleate Extended-release#Fluvoxamine Tablets#Fluvoxamine-100#Fluvoxamine-50#Gen-fluvoxamine 100mg#Gen-fluvoxamine 50mg#Luvox#Luvox CR#Novo-fluvoxamine#Nu-fluvoxamine 100 Mg Tab#Nu-fluvoxamine 50 Mg Tab#PHL-fluvoxamine#PMS-fluvoxamine#Ratio-fluvoxamine#Riva-fluvox#Riva-fluvox 100mg Tablets#Riva-fluvox 50mg Tablets#Sandoz Fluvoxamine#Dumirox#Faverin#Fevarin#Floxyfral#Maveral

>  <DrugBank ID>  (1) 
DB00176

>  <ATC Codes>  (1) 
N06AB08

>  <Ligand ID>  (1) 
FVX

>  <Target Name>  (1) 
Sodium-dependent serotonin transporter

>  <UniProt ID>  (1) 
P31645

>  <PDB ID.1>  (1) 
6AWP

>  <Seq. Identity>  (1) 
99%

$$$$
