PDB_DB01137_98
     RDKit          3D

116122  0  0  0  0  0  0  0  0999 V2000
  140.6890   18.3740   20.7200 C   0  0  0  0  0  0  0  0  0  0  0  0
  147.5010   18.6130   17.6060 F   0  0  0  0  0  0  0  0  0  0  0  0
  147.6430   18.6250   12.4890 N   0  0  0  0  0  0  0  0  0  0  0  0
  139.4470   18.2970   20.5910 O   0  0  0  0  0  0  0  0  0  0  0  0
  146.3460   19.8960   14.1740 C   0  0  0  0  0  0  0  0  0  0  0  0
  146.3620   18.6140   14.8130 N   0  0  0  0  0  0  0  0  0  0  0  0
  143.5370   18.5430   14.5980 O   0  0  0  0  0  0  0  0  0  0  0  0
  147.6890   18.1400   14.9210 C   0  0  0  0  0  0  0  0  0  0  0  0
  141.8540   18.4590   16.9460 N   0  0  0  0  0  0  0  0  0  0  0  0
  143.5140   18.4490   20.7850 O   0  0  0  0  0  0  0  0  0  0  0  0
  141.3020   18.4740   15.7160 C   0  0  2  0  0  0  0  0  0  0  0  0
  141.1960   18.4240   21.8510 O   0  0  0  0  0  0  0  0  0  0  0  0
  145.5750   18.5840   16.0860 C   0  0  0  0  0  0  0  0  0  0  0  0
  143.3200   18.5000   17.0990 C   0  0  0  0  0  0  0  0  0  0  0  0
  144.1490   18.5430   15.9640 C   0  0  0  0  0  0  0  0  0  0  0  0
  147.1390   19.8930   12.8580 C   0  0  0  0  0  0  0  0  0  0  0  0
  148.2730   17.8580   13.5480 C   0  0  0  0  0  0  0  0  0  0  0  0
  142.2300   17.8960   14.6080 C   0  0  0  0  0  0  0  0  0  0  0  0
  143.8980   18.4960   18.3930 C   0  0  0  0  0  0  0  0  0  0  0  0
  146.1390   18.5770   17.3890 C   0  0  0  0  0  0  0  0  0  0  0  0
  140.9760   18.4190   18.1490 C   0  0  0  0  0  0  0  0  0  0  0  0
  145.2960   18.5340   18.5310 C   0  0  0  0  0  0  0  0  0  0  0  0
  140.9760   19.9570   15.3630 C   0  0  0  0  0  0  0  0  0  0  0  0
  143.0020   18.4530   19.6430 C   0  0  0  0  0  0  0  0  0  0  0  0
  148.5660   18.7600   11.3650 C   0  0  0  0  0  0  0  0  0  0  0  0
  141.5780   18.4120   19.5000 C   0  0  0  0  0  0  0  0  0  0  0  0
  145.4400   20.1550   13.9980 H   0  0  0  0  0  0  0  0  0  0  0  0
  146.7630   20.5540   14.7890 H   0  0  0  0  0  0  0  0  0  0  0  0
  147.7020   17.3100   15.4560 H   0  0  0  0  0  0  0  0  0  0  0  0
  148.2230   18.8020   15.3480 H   0  0  0  0  0  0  0  0  0  0  0  0
  140.4750   17.9710   15.7340 H   0  0  0  0  0  0  0  0  0  0  0  0
  147.9010   20.5210   12.9460 H   0  0  0  0  0  0  0  0  0  0  0  0
  146.5660   20.2070   12.1600 H   0  0  0  0  0  0  0  0  0  0  0  0
  149.2360   18.0700   13.5650 H   0  0  0  0  0  0  0  0  0  0  0  0
  148.1650   16.9080   13.3530 H   0  0  0  0  0  0  0  0  0  0  0  0
  142.3520   16.9300   14.7610 H   0  0  0  0  0  0  0  0  0  0  0  0
  141.8150   18.0260   13.7580 H   0  0  0  0  0  0  0  0  0  0  0  0
  139.9870   18.3940   18.0450 H   0  0  0  0  0  0  0  0  0  0  0  0
  145.6800   18.5320   19.3960 H   0  0  0  0  0  0  0  0  0  0  0  0
  140.4120   20.3650   16.1070 H   0  0  0  0  0  0  0  0  0  0  0  0
  141.8270   20.4740   15.2690 H   0  0  0  0  0  0  0  0  0  0  0  0
  140.4660   19.9910   14.4990 H   0  0  0  0  0  0  0  0  0  0  0  0
  148.0840   19.1800   10.5810 H   0  0  0  0  0  0  0  0  0  0  0  0
  148.9010   17.8710   11.1050 H   0  0  0  0  0  0  0  0  0  0  0  0
  149.3310   19.3360   11.6320 H   0  0  0  0  0  0  0  0  0  0  0  0
  141.7910    2.7190   22.5010 C   0  0  0  0  0  0  0  0  0  0  0  0
  148.2250    2.4680   18.6410 F   0  0  0  0  0  0  0  0  0  0  0  0
  152.5400    2.2300   21.1980 N   0  0  0  0  0  0  0  0  0  0  0  0
  141.1220    2.5470   21.4700 O   0  0  0  0  0  0  0  0  0  0  0  0
  150.3400    1.1130   20.8540 C   0  0  0  0  0  0  0  0  0  0  0  0
  149.8510    2.4300   21.1290 N   0  0  0  0  0  0  0  0  0  0  0  0
  148.4390    2.5000   23.5950 O   0  0  0  0  0  0  0  0  0  0  0  0
  150.4870    3.3570   20.2770 C   0  0  0  0  0  0  0  0  0  0  0  0
  145.5540    2.6010   23.6590 N   0  0  0  0  0  0  0  0  0  0  0  0
  143.3280    2.6490   20.1190 O   0  0  0  0  0  0  0  0  0  0  0  0
  146.2480    2.5780   24.8140 C   0  0  2  0  0  0  0  0  0  0  0  0
  141.2300    2.9280   23.5980 O   0  0  0  0  0  0  0  0  0  0  0  0
  148.3600    2.4850   21.0770 C   0  0  0  0  0  0  0  0  0  0  0  0
  146.2550    2.5660   22.3620 C   0  0  0  0  0  0  0  0  0  0  0  0
  147.6580    2.5150   22.3200 C   0  0  0  0  0  0  0  0  0  0  0  0
  151.8510    0.9980   21.1000 C   0  0  0  0  0  0  0  0  0  0  0  0
  151.9860    3.3940   20.5240 C   0  0  0  0  0  0  0  0  0  0  0  0
  147.6970    3.1330   24.6780 C   0  0  0  0  0  0  0  0  0  0  0  0
  145.5180    2.5830   21.1510 C   0  0  0  0  0  0  0  0  0  0  0  0
  147.6120    2.5000   19.8760 C   0  0  0  0  0  0  0  0  0  0  0  0
  144.0680    2.6510   23.7040 C   0  0  0  0  0  0  0  0  0  0  0  0
  146.1940    2.5510   19.9200 C   0  0  0  0  0  0  0  0  0  0  0  0
  146.3160    1.1010   25.3110 C   0  0  0  0  0  0  0  0  0  0  0  0
  143.9810    2.6350   21.1860 C   0  0  0  0  0  0  0  0  0  0  0  0
  153.9380    2.0620   20.8060 C   0  0  0  0  0  0  0  0  0  0  0  0
  143.2980    2.6700   22.4430 C   0  0  0  0  0  0  0  0  0  0  0  0
  149.8830    0.4870   21.4180 H   0  0  0  0  0  0  0  0  0  0  0  0
  150.1540    0.8960   19.8990 H   0  0  0  0  0  0  0  0  0  0  0  0
  150.1170    4.2560   20.4380 H   0  0  0  0  0  0  0  0  0  0  0  0
  150.3390    3.1130   19.3710 H   0  0  0  0  0  0  0  0  0  0  0  0
  145.7730    3.1050   25.4730 H   0  0  0  0  0  0  0  0  0  0  0  0
  152.2510    0.4750   20.3600 H   0  0  0  0  0  0  0  0  0  0  0  0
  151.9840    0.5150   21.9140 H   0  0  0  0  0  0  0  0  0  0  0  0
  152.4380    3.4930   19.6540 H   0  0  0  0  0  0  0  0  0  0  0  0
  152.1840    4.1830   21.0640 H   0  0  0  0  0  0  0  0  0  0  0  0
  147.6540    4.1030   24.5100 H   0  0  0  0  0  0  0  0  0  0  0  0
  148.1620    2.9820   25.4980 H   0  0  0  0  0  0  0  0  0  0  0  0
  143.5940    2.6730   24.5780 H   0  0  0  0  0  0  0  0  0  0  0  0
  145.6990    2.5610   19.1130 H   0  0  0  0  0  0  0  0  0  0  0  0
  146.9810    0.5820   24.7400 H   0  0  0  0  0  0  0  0  0  0  0  0
  146.6120    1.0830   26.2660 H   0  0  0  0  0  0  0  0  0  0  0  0
  145.4080    0.6790   25.2340 H   0  0  0  0  0  0  0  0  0  0  0  0
  154.3620    1.3370   21.3700 H   0  0  0  0  0  0  0  0  0  0  0  0
  154.4230    2.9080   20.9440 H   0  0  0  0  0  0  0  0  0  0  0  0
  153.9860    1.8070   19.8460 H   0  0  0  0  0  0  0  0  0  0  0  0
  140.6229   19.4718   20.7011 H   0  0  0  0  0  0  0  0  0  0  0  0
  139.0233   18.2707   21.4854 H   0  0  0  0  0  0  0  0  0  0  0  0
  142.7973   18.4546   21.4680 H   0  0  0  0  0  0  0  0  0  0  0  0
  140.4840   18.3538   22.5352 H   0  0  0  0  0  0  0  0  0  0  0  0
  145.5429   19.6835   16.0920 H   0  0  0  0  0  0  0  0  0  0  0  0
  143.3526   17.4006   17.0812 H   0  0  0  0  0  0  0  0  0  0  0  0
  144.1819   17.4436   15.9493 H   0  0  0  0  0  0  0  0  0  0  0  0
  143.9296   17.3966   18.3755 H   0  0  0  0  0  0  0  0  0  0  0  0
  146.1068   19.6763   17.4089 H   0  0  0  0  0  0  0  0  0  0  0  0
  141.0023   17.3195   18.1316 H   0  0  0  0  0  0  0  0  0  0  0  0
  145.3277   17.4346   18.5130 H   0  0  0  0  0  0  0  0  0  0  0  0
  142.9728   19.5525   19.6599 H   0  0  0  0  0  0  0  0  0  0  0  0
  141.6023   17.3124   19.4835 H   0  0  0  0  0  0  0  0  0  0  0  0
  141.8131    3.8014   22.3061 H   0  0  0  0  0  0  0  0  0  0  0  0
  140.1931    2.3082   21.7154 H   0  0  0  0  0  0  0  0  0  0  0  0
  142.3599    2.6698   20.3249 H   0  0  0  0  0  0  0  0  0  0  0  0
  141.8496    2.6972   24.3348 H   0  0  0  0  0  0  0  0  0  0  0  0
  148.3193    1.3858   21.0806 H   0  0  0  0  0  0  0  0  0  0  0  0
  146.2947    3.6653   22.3538 H   0  0  0  0  0  0  0  0  0  0  0  0
  147.6915    3.6145   22.3124 H   0  0  0  0  0  0  0  0  0  0  0  0
  145.5560    3.6823   21.1433 H   0  0  0  0  0  0  0  0  0  0  0  0
  147.5743    1.4007   19.8858 H   0  0  0  0  0  0  0  0  0  0  0  0
  144.1048    3.7504   23.6981 H   0  0  0  0  0  0  0  0  0  0  0  0
  146.2333    3.6503   19.9130 H   0  0  0  0  0  0  0  0  0  0  0  0
  143.9440    1.5357   21.1942 H   0  0  0  0  0  0  0  0  0  0  0  0
  143.3335    3.7694   22.4379 H   0  0  0  0  0  0  0  0  0  0  0  0
  1  4  1  0
  5  6  1  0
  6  8  1  0
  9 11  1  0
  1 12  1  0
  6 13  1  0
  9 14  1  0
  7 15  1  0
 13 15  1  0
 14 15  1  0
  3 16  1  0
  5 16  1  0
  3 17  1  0
  8 17  1  0
  7 18  1  0
 11 18  1  0
 14 19  1  0
  2 20  1  0
 13 20  1  0
  9 21  1  0
 19 22  1  0
 20 22  1  0
 11 23  1  0
 10 24  1  0
 19 24  1  0
  3 25  1  0
  1 26  1  0
 21 26  1  0
 24 26  1  0
  5 27  1  0
  5 28  1  0
  8 29  1  0
  8 30  1  0
 11 31  1  1
 16 32  1  0
 16 33  1  0
 17 34  1  0
 17 35  1  0
 18 36  1  0
 18 37  1  0
 21 38  1  0
 22 39  1  0
 23 40  1  0
 23 41  1  0
 23 42  1  0
 25 43  1  0
 25 44  1  0
 25 45  1  0
 46 49  1  0
 50 51  1  0
 51 53  1  0
 54 56  1  0
 46 57  1  0
 51 58  1  0
 54 59  1  0
 52 60  1  0
 58 60  1  0
 59 60  1  0
 48 61  1  0
 50 61  1  0
 48 62  1  0
 53 62  1  0
 52 63  1  0
 56 63  1  0
 59 64  1  0
 47 65  1  0
 58 65  1  0
 54 66  1  0
 64 67  1  0
 65 67  1  0
 56 68  1  0
 55 69  1  0
 64 69  1  0
 48 70  1  0
 46 71  1  0
 66 71  1  0
 69 71  1  0
 50 72  1  0
 50 73  1  0
 53 74  1  0
 53 75  1  0
 56 76  1  1
 61 77  1  0
 61 78  1  0
 62 79  1  0
 62 80  1  0
 63 81  1  0
 63 82  1  0
 66 83  1  0
 67 84  1  0
 68 85  1  0
 68 86  1  0
 68 87  1  0
 70 88  1  0
 70 89  1  0
 70 90  1  0
  1 91  1  0
  4 92  1  0
 10 93  1  0
 12 94  1  0
 13 95  1  0
 14 96  1  0
 15 97  1  0
 19 98  1  0
 20 99  1  0
 21100  1  0
 22101  1  0
 24102  1  0
 26103  1  0
 46104  1  0
 49105  1  0
 55106  1  0
 57107  1  0
 58108  1  0
 59109  1  0
 60110  1  0
 64111  1  0
 65112  1  0
 66113  1  0
 67114  1  0
 69115  1  0
 71116  1  0
M  END
>  <PDBID>  (1) 
5BTG

>  <PDB ID>  (1) 
5BTG

>  <Generic Name>  (1) 
Levofloxacin

>  <Brand Name>  (1) 
Act Levofloxacin#Apo-levofloxacin#Auro-levofloxacin#Ava-levofloxacin#Dom-levofloxacin#Iquix#Levaquin#Levaquin 25mg/ml#Levaquin 500mg#Levaquin 5mg/ml#Levaquin 750mg#Levofloxacin#Levofloxacin In 5% Dextrose Injection#Levofloxacin Injection#Mylan-levofloxacin#Ntp-levofloxacin#PHL-levofloxacin#PMS-levofloxacin#Quinsair#Quixin#Sandoz Levofloxacin#Teva-levofloxacin#Cravit#Elequine#Floxel#Leroxacin#Levokacin#Levox#Levoxacin#Mosardal#Nofaxin#Reskuin#Tavanic

>  <DrugBank ID>  (1) 
DB01137

>  <ATC Codes>  (1) 
A02BD10#J01RA05#S01AE05#J01MA12

>  <Ligand ID>  (1) 
LFX

>  <Target Name>  (1) 
DNA gyrase subunit A

>  <UniProt ID>  (1) 
P43700

>  <PDB ID.1>  (1) 
5BTG

>  <Seq. Identity>  (1) 
48%

$$$$
