PDB_DB00755_99
     RDKit          3D

124124  0  0  0  0  0  0  0  0999 V2000
   84.0970   60.3600   31.2700 C   0  0  2  0  0  0  0  0  0  0  0  0
   83.9150   61.8640   31.0560 C   0  0  0  0  0  0  0  0  0  0  0  0
   83.2380   62.6150   32.1970 C   0  0  0  0  0  0  0  0  0  0  0  0
   82.2100   61.7710   32.9250 C   0  0  0  0  0  0  0  0  0  0  0  0
   82.9700   60.6250   33.5300 C   0  0  0  0  0  0  0  0  0  0  0  0
   83.9050   59.9550   32.7280 C   0  0  0  0  0  0  0  0  0  0  0  0
   84.7750   58.8680   33.2030 C   0  0  0  0  0  0  0  0  0  0  0  0
   84.5510   58.1060   34.4300 C   0  0  0  0  0  0  0  0  0  0  0  0
   85.4810   57.0280   34.7730 C   0  0  1  0  0  0  0  0  0  0  0  0
   86.0710   56.9790   36.1180 C   0  0  0  0  0  0  0  0  0  0  0  0
   86.9930   58.0290   36.5730 C   0  0  0  0  0  0  0  0  0  0  0  0
   87.8070   57.7770   37.7690 C   0  0  0  0  0  0  0  0  0  0  0  0
   88.1510   58.8390   38.7300 C   0  0  0  0  0  0  0  0  0  0  0  0
   88.5820   58.4470   40.0170 C   0  0  0  0  0  0  0  0  0  0  0  0
   88.9910   59.3880   41.0730 C   0  0  0  0  0  0  0  0  0  0  0  0
   85.5280   59.9920   30.8940 C   0  0  0  0  0  0  0  0  0  0  0  0
   83.1460   59.5700   30.3770 C   0  0  0  0  0  0  0  0  0  0  0  0
   82.7010   60.2920   34.9690 C   0  0  0  0  0  0  0  0  0  0  0  0
   85.7700   55.9610   33.7610 C   0  0  0  0  0  0  0  0  0  0  0  0
   88.0170   60.2800   38.3370 C   0  0  0  0  0  0  0  0  0  0  0  0
   89.0010   59.0100   42.2640 O   0  0  0  0  0  0  0  0  0  0  0  0
   89.3490   60.5540   40.8080 O   0  0  0  0  0  0  0  0  0  0  0  0
   83.8340   59.2030   14.6860 C   0  0  2  0  0  0  0  0  0  0  0  0
   84.2210   60.6770   14.7650 C   0  0  0  0  0  0  0  0  0  0  0  0
   85.5360   60.9680   14.0610 C   0  0  0  0  0  0  0  0  0  0  0  0
   85.4240   60.6680   12.5730 C   0  0  0  0  0  0  0  0  0  0  0  0
   84.8810   59.2700   12.3570 C   0  0  0  0  0  0  0  0  0  0  0  0
   83.9930   58.6820   13.2680 C   0  0  0  0  0  0  0  0  0  0  0  0
   83.1250   57.5530   12.9310 C   0  0  0  0  0  0  0  0  0  0  0  0
   82.8050   57.1830   11.5550 C   0  0  0  0  0  0  0  0  0  0  0  0
   81.9260   56.0400   11.3250 C   0  0  0  0  0  0  0  0  0  0  0  0
   80.7900   56.2130   10.4240 C   0  0  0  0  0  0  0  0  0  0  0  0
   80.9450   57.0000    9.2000 C   0  0  0  0  0  0  0  0  0  0  0  0
   79.8740   56.9410    8.2040 C   0  0  0  0  0  0  0  0  0  0  0  0
   79.6340   58.0560    7.2830 C   0  0  0  0  0  0  0  0  0  0  0  0
   78.8480   57.7860    6.1490 C   0  0  0  0  0  0  0  0  0  0  0  0
   78.7020   58.6930    5.0040 C   0  0  0  0  0  0  0  0  0  0  0  0
   82.3660   59.0750   15.0600 C   0  0  0  0  0  0  0  0  0  0  0  0
   84.6570   58.3370   15.6330 C   0  0  0  0  0  0  0  0  0  0  0  0
   85.3520   58.5540   11.1250 C   0  0  0  0  0  0  0  0  0  0  0  0
   82.1710   54.7290   12.0240 C   0  0  0  0  0  0  0  0  0  0  0  0
   80.2090   59.4150    7.5680 C   0  0  0  0  0  0  0  0  0  0  0  0
   78.7240   58.1940    3.8650 O   0  0  0  0  0  0  0  0  0  0  0  0
   78.5290   59.9320    5.1400 O   0  0  0  0  0  0  0  0  0  0  0  0
   84.9102   62.3068   30.9030 H   0  0  0  0  0  0  0  0  0  0  0  0
   83.2448   61.9655   30.1897 H   0  0  0  0  0  0  0  0  0  0  0  0
   84.0080   62.9300   32.9167 H   0  0  0  0  0  0  0  0  0  0  0  0
   82.7115   63.4768   31.7610 H   0  0  0  0  0  0  0  0  0  0  0  0
   81.7184   62.3617   33.7120 H   0  0  0  0  0  0  0  0  0  0  0  0
   81.4225   61.4175   32.2432 H   0  0  0  0  0  0  0  0  0  0  0  0
   82.1858   59.9292   33.1971 H   0  0  0  0  0  0  0  0  0  0  0  0
   84.6799   60.6749   33.0300 H   0  0  0  0  0  0  0  0  0  0  0  0
   84.7902   58.1251   32.3919 H   0  0  0  0  0  0  0  0  0  0  0  0
   85.6781   59.4336   33.4758 H   0  0  0  0  0  0  0  0  0  0  0  0
   84.5672   58.8238   35.2634 H   0  0  0  0  0  0  0  0  0  0  0  0
   83.5983   57.5867   34.2493 H   0  0  0  0  0  0  0  0  0  0  0  0
   86.3234   57.6443   34.4259 H   0  0  0  0  0  0  0  0  0  0  0  0
   85.2316   56.9688   36.8288 H   0  0  0  0  0  0  0  0  0  0  0  0
   86.7174   56.0903   36.0692 H   0  0  0  0  0  0  0  0  0  0  0  0
   87.6875   58.2326   35.7446 H   0  0  0  0  0  0  0  0  0  0  0  0
   86.3327   58.8583   36.8667 H   0  0  0  0  0  0  0  0  0  0  0  0
   87.2743   57.0053   38.3441 H   0  0  0  0  0  0  0  0  0  0  0  0
   88.7880   57.5442   37.3293 H   0  0  0  0  0  0  0  0  0  0  0  0
   87.1096   58.8560   39.0839 H   0  0  0  0  0  0  0  0  0  0  0  0
   87.7530   57.8631   40.4434 H   0  0  0  0  0  0  0  0  0  0  0  0
   89.5447   57.9715   39.7780 H   0  0  0  0  0  0  0  0  0  0  0  0
   87.9469   59.7154   41.1857 H   0  0  0  0  0  0  0  0  0  0  0  0
   86.1198   59.8398   31.8086 H   0  0  0  0  0  0  0  0  0  0  0  0
   85.5246   59.0655   30.3010 H   0  0  0  0  0  0  0  0  0  0  0  0
   85.9720   60.8052   30.3010 H   0  0  0  0  0  0  0  0  0  0  0  0
   82.4503   58.9920   31.0030 H   0  0  0  0  0  0  0  0  0  0  0  0
   82.5770   60.2649   29.7419 H   0  0  0  0  0  0  0  0  0  0  0  0
   83.7248   58.8832   29.7419 H   0  0  0  0  0  0  0  0  0  0  0  0
   83.2599   60.9839   35.6162 H   0  0  0  0  0  0  0  0  0  0  0  0
   81.6243   60.3884   35.1726 H   0  0  0  0  0  0  0  0  0  0  0  0
   83.0216   59.2597   35.1726 H   0  0  0  0  0  0  0  0  0  0  0  0
   86.0238   55.0240   34.2784 H   0  0  0  0  0  0  0  0  0  0  0  0
   84.8823   55.8031   33.1309 H   0  0  0  0  0  0  0  0  0  0  0  0
   86.6161   56.2727   33.1309 H   0  0  0  0  0  0  0  0  0  0  0  0
   87.9591   60.9029   39.2418 H   0  0  0  0  0  0  0  0  0  0  0  0
   88.8911   60.5802   37.7405 H   0  0  0  0  0  0  0  0  0  0  0  0
   87.1025   60.4139   37.7405 H   0  0  0  0  0  0  0  0  0  0  0  0
   88.9801   59.7995   42.8610 H   0  0  0  0  0  0  0  0  0  0  0  0
   89.5018   61.0517   41.6500 H   0  0  0  0  0  0  0  0  0  0  0  0
   83.4278   61.2764   14.2943 H   0  0  0  0  0  0  0  0  0  0  0  0
   84.3442   60.9355   15.8271 H   0  0  0  0  0  0  0  0  0  0  0  0
   85.7924   62.0289   14.1977 H   0  0  0  0  0  0  0  0  0  0  0  0
   86.3195   60.3287   14.4940 H   0  0  0  0  0  0  0  0  0  0  0  0
   84.7453   61.3969   12.1061 H   0  0  0  0  0  0  0  0  0  0  0  0
   86.4231   60.7377   12.1181 H   0  0  0  0  0  0  0  0  0  0  0  0
   85.7313   58.8533   12.9168 H   0  0  0  0  0  0  0  0  0  0  0  0
   83.1962   59.3606   12.9293 H   0  0  0  0  0  0  0  0  0  0  0  0
   83.5915   56.6655   13.3836 H   0  0  0  0  0  0  0  0  0  0  0  0
   82.1499   57.9057   13.2982 H   0  0  0  0  0  0  0  0  0  0  0  0
   82.3295   58.0572   11.0864 H   0  0  0  0  0  0  0  0  0  0  0  0
   83.7699   56.8690   11.1304 H   0  0  0  0  0  0  0  0  0  0  0  0
   81.2997   56.3507   12.1743 H   0  0  0  0  0  0  0  0  0  0  0  0
   80.4711   55.2061   10.1168 H   0  0  0  0  0  0  0  0  0  0  0  0
   80.0803   56.8058   11.0198 H   0  0  0  0  0  0  0  0  0  0  0  0
   81.0550   58.0526    9.4998 H   0  0  0  0  0  0  0  0  0  0  0  0
   81.8143   56.5535    8.6950 H   0  0  0  0  0  0  0  0  0  0  0  0
   80.0766   56.0583    7.5796 H   0  0  0  0  0  0  0  0  0  0  0  0
   78.9666   56.9428    8.8258 H   0  0  0  0  0  0  0  0  0  0  0  0
   80.5394   57.7857    6.7198 H   0  0  0  0  0  0  0  0  0  0  0  0
   79.2408   56.8462    5.7337 H   0  0  0  0  0  0  0  0  0  0  0  0
   77.8386   57.8410    6.5827 H   0  0  0  0  0  0  0  0  0  0  0  0
   79.7937   58.8233    4.9680 H   0  0  0  0  0  0  0  0  0  0  0  0
   82.2661   59.0663   16.1554 H   0  0  0  0  0  0  0  0  0  0  0  0
   81.8068   59.9278   14.6476 H   0  0  0  0  0  0  0  0  0  0  0  0
   81.9629   58.1383   14.6476 H   0  0  0  0  0  0  0  0  0  0  0  0
   84.4111   58.5957   16.6735 H   0  0  0  0  0  0  0  0  0  0  0  0
   84.4258   57.2765   15.4544 H   0  0  0  0  0  0  0  0  0  0  0  0
   85.7279   58.5139   15.4544 H   0  0  0  0  0  0  0  0  0  0  0  0
   85.9350   57.6678   11.4162 H   0  0  0  0  0  0  0  0  0  0  0  0
   84.4828   58.2411   10.5279 H   0  0  0  0  0  0  0  0  0  0  0  0
   85.9835   59.2283   10.5279 H   0  0  0  0  0  0  0  0  0  0  0  0
   82.1422   54.8830   13.1128 H   0  0  0  0  0  0  0  0  0  0  0  0
   81.3920   54.0082   11.7349 H   0  0  0  0  0  0  0  0  0  0  0  0
   83.1577   54.3381   11.7349 H   0  0  0  0  0  0  0  0  0  0  0  0
   80.2726   59.5654    8.6558 H   0  0  0  0  0  0  0  0  0  0  0  0
   81.2148   59.4871    7.1284 H   0  0  0  0  0  0  0  0  0  0  0  0
   79.5604   60.1871    7.1284 H   0  0  0  0  0  0  0  0  0  0  0  0
   78.7675   57.2076    3.9376 H   0  0  0  0  0  0  0  0  0  0  0  0
   78.4976   60.1570    6.1036 H   0  0  0  0  0  0  0  0  0  0  0  0
  1  2  1  0
  2  3  1  0
  3  4  1  0
  4  5  1  0
  1  6  1  0
  5  6  1  0
  6  7  1  0
  7  8  1  0
  8  9  1  0
  9 10  1  0
 10 11  1  0
 11 12  1  0
 12 13  1  0
 13 14  1  0
 14 15  1  0
  1 16  1  6
  1 17  1  0
  5 18  1  0
  9 19  1  0
 13 20  1  0
 15 21  1  0
 15 22  1  0
 23 24  1  0
 24 25  1  0
 25 26  1  0
 26 27  1  0
 23 28  1  0
 27 28  1  0
 28 29  1  0
 29 30  1  0
 30 31  1  0
 31 32  1  0
 32 33  1  0
 33 34  1  0
 34 35  1  0
 35 36  1  0
 36 37  1  0
 23 38  1  1
 23 39  1  0
 27 40  1  0
 31 41  1  0
 35 42  1  0
 37 43  1  0
 37 44  1  0
  2 45  1  0
  2 46  1  0
  3 47  1  0
  3 48  1  0
  4 49  1  0
  4 50  1  0
  5 51  1  0
  6 52  1  0
  7 53  1  0
  7 54  1  0
  8 55  1  0
  8 56  1  0
  9 57  1  6
 10 58  1  0
 10 59  1  0
 11 60  1  0
 11 61  1  0
 12 62  1  0
 12 63  1  0
 13 64  1  0
 14 65  1  0
 14 66  1  0
 15 67  1  0
 16 68  1  0
 16 69  1  0
 16 70  1  0
 17 71  1  0
 17 72  1  0
 17 73  1  0
 18 74  1  0
 18 75  1  0
 18 76  1  0
 19 77  1  0
 19 78  1  0
 19 79  1  0
 20 80  1  0
 20 81  1  0
 20 82  1  0
 21 83  1  0
 22 84  1  0
 24 85  1  0
 24 86  1  0
 25 87  1  0
 25 88  1  0
 26 89  1  0
 26 90  1  0
 27 91  1  0
 28 92  1  0
 29 93  1  0
 29 94  1  0
 30 95  1  0
 30 96  1  0
 31 97  1  0
 32 98  1  0
 32 99  1  0
 33100  1  0
 33101  1  0
 34102  1  0
 34103  1  0
 35104  1  0
 36105  1  0
 36106  1  0
 37107  1  0
 38108  1  0
 38109  1  0
 38110  1  0
 39111  1  0
 39112  1  0
 39113  1  0
 40114  1  0
 40115  1  0
 40116  1  0
 41117  1  0
 41118  1  0
 41119  1  0
 42120  1  0
 42121  1  0
 42122  1  0
 43123  1  0
 44124  1  0
M  END
>  <PDBID>  (1) 
3FC6

>  <PDB ID>  (1) 
3FC6

>  <Generic Name>  (1) 
Tretinoin

>  <Brand Name>  (1) 
Atralin#Avita#Biacna Topical Gel#Clindamycin Phosphate and Tretinoin#Dr. Throwers Hydrotet#Dr. Throwers Pbc No. 1#Obagi#Refissa#Rejuva-A#Renova#Retin-A#Retin-A Micro#Retisol-A#Solagé#Stie Vaa Sol 0.05%#Stieva-A Cream#Stieva-A Gel#Stieva-A Solution#Stievaa Gel 0.01%#Stievamycin Forte#Stievamycin Mild#Stievamycin Regular#Tretin.x#Tretinoin#Tretinoin Cream#Tretinoin Gel#Tretinoin Gel Microsphere#Tretinx#Tri-luma#Veltin#Vesanoid#Vitamin A Acid 0.01% Cream#Vitamin A Acid 0.01% Gel#Vitamin A Acid 0.025% Cream#Vitamin A Acid 0.025% Gel#Vitamin A Acid 0.05% Cream#Vitamin A Acid 0.05% Gel#Vitamin A Acid 0.1% Cream#Vitinoin - Crm 0.025%#Vitinoin - Crm 0.05%#Vitinoin - Crm 0.1%#Vitinoin Gel - 0.025%#Ziana#Aberel#Aberela#Airol#Dermairol#Eudyna#Kétrel#Retisol-A#Sotret#Stieva-A#Vitinoin

>  <DrugBank ID>  (1) 
DB00755

>  <ATC Codes>  (1) 
L01XX14#D10AD01#D10AD51

>  <Ligand ID>  (1) 
3KV,REA

>  <Target Name>  (1) 
Retinoic acid receptor RXR-beta

>  <UniProt ID>  (1) 
P28702

>  <PDB ID.1>  (1) 
3FC6

>  <Seq. Identity>  (1) 
87%

$$$$
