PDB_DB00783_97
     RDKit          3D

100106  0  0  0  0  0  0  0  0999 V2000
   20.1490    4.1850    7.7240 C   0  0  0  0  0  0  0  0  0  0  0  0
   18.8270    4.3900    8.0270 C   0  0  0  0  0  0  0  0  0  0  0  0
   17.9580    4.9780    7.1560 C   0  0  1  0  0  0  0  0  0  0  0  0
   16.6830    5.1560    7.4000 O   0  0  0  0  0  0  0  0  0  0  0  0
   18.4820    5.3260    5.9280 C   0  0  0  0  0  0  0  0  0  0  0  0
   19.7950    5.1380    5.5910 C   0  0  0  0  0  0  0  0  0  0  0  0
   20.2710    5.5740    4.1940 C   0  0  0  0  0  0  0  0  0  0  0  0
   21.7470    5.6320    4.0640 C   0  0  0  0  0  0  0  0  0  0  0  0
   22.3700    4.4120    4.6090 C   0  0  2  0  0  0  0  0  0  0  0  0
   22.1120    4.3660    6.1420 C   0  0  1  0  0  0  0  0  0  0  0  0
   20.6360    4.5490    6.4800 C   0  0  1  0  0  0  0  0  0  0  0  0
   22.8250    3.1530    6.8150 C   0  0  0  0  0  0  0  0  0  0  0  0
   24.3070    3.1070    6.4540 C   0  0  0  0  0  0  0  0  0  0  0  0
   24.5350    3.1820    4.9420 C   0  0  1  0  0  0  0  0  0  0  0  0
   23.8640    4.4240    4.4110 C   0  0  1  0  0  0  0  0  0  0  0  0
   24.3750    4.4970    2.9840 C   0  0  0  0  0  0  0  0  0  0  0  0
   25.7980    3.9550    3.0890 C   0  0  0  0  0  0  0  0  0  0  0  0
   25.9700    3.4700    4.5580 C   0  0  2  0  0  0  0  0  0  0  0  0
   26.7720    2.3450    4.6230 O   0  0  0  0  0  0  0  0  0  0  0  0
   24.0580    1.9160    4.3080 C   0  0  0  0  0  0  0  0  0  0  0  0
   29.9220   -3.2190  -25.5000 C   0  0  0  0  0  0  0  0  0  0  0  0
   29.2910   -2.6740  -26.5880 C   0  0  0  0  0  0  0  0  0  0  0  0
   27.9660   -2.3320  -26.5190 C   0  0  0  0  0  0  0  0  0  0  0  0
   27.2900   -1.8050  -27.5310 O   0  0  0  0  0  0  0  0  0  0  0  0
   27.2880   -2.6050  -25.3580 C   0  0  0  0  0  0  0  0  0  0  0  0
   27.9160   -3.1580  -24.2830 C   0  0  0  0  0  0  0  0  0  0  0  0
   27.0860   -3.4000  -23.0470 C   0  0  0  0  0  0  0  0  0  0  0  0
   27.7890   -4.3230  -22.0700 C   0  0  0  0  0  0  0  0  0  0  0  0
   29.2180   -3.9810  -21.8170 C   0  0  2  0  0  0  0  0  0  0  0  0
   29.9810   -4.1170  -23.1360 C   0  0  1  0  0  0  0  0  0  0  0  0
   29.2340   -3.4710  -24.3370 C   0  0  0  0  0  0  0  0  0  0  0  0
   31.4230   -3.6610  -22.9910 C   0  0  0  0  0  0  0  0  0  0  0  0
   32.1150   -4.4710  -21.8840 C   0  0  0  0  0  0  0  0  0  0  0  0
   31.3150   -4.4300  -20.5650 C   0  0  1  0  0  0  0  0  0  0  0  0
   29.9150   -4.8760  -20.7990 C   0  0  1  0  0  0  0  0  0  0  0  0
   29.3390   -4.8750  -19.3840 C   0  0  0  0  0  0  0  0  0  0  0  0
   30.4870   -5.4730  -18.6130 C   0  0  0  0  0  0  0  0  0  0  0  0
   31.7330   -5.4620  -19.5160 C   0  0  2  0  0  0  0  0  0  0  0  0
   32.8400   -5.0950  -18.8140 O   0  0  0  0  0  0  0  0  0  0  0  0
   31.4280   -3.0350  -19.9850 C   0  0  0  0  0  0  0  0  0  0  0  0
   20.7362    4.7400    8.4704 H   0  0  0  0  0  0  0  0  0  0  0  0
   20.2425    3.0890    7.7228 H   0  0  0  0  0  0  0  0  0  0  0  0
   18.4083    3.3983    8.2535 H   0  0  0  0  0  0  0  0  0  0  0  0
   18.8930    5.1454    8.8239 H   0  0  0  0  0  0  0  0  0  0  0  0
   17.7362    3.9954    6.7140 H   0  0  0  0  0  0  0  0  0  0  0  0
   16.5340    5.1768    8.3785 H   0  0  0  0  0  0  0  0  0  0  0  0
   17.8963    4.7695    5.1815 H   0  0  0  0  0  0  0  0  0  0  0  0
   18.4241    6.4236    5.9707 H   0  0  0  0  0  0  0  0  0  0  0  0
   19.5509    4.1406    5.1966 H   0  0  0  0  0  0  0  0  0  0  0  0
   19.8842    4.8571    3.4548 H   0  0  0  0  0  0  0  0  0  0  0  0
   19.8909    6.5924    4.0256 H   0  0  0  0  0  0  0  0  0  0  0  0
   22.0117    5.7277    3.0006 H   0  0  0  0  0  0  0  0  0  0  0  0
   22.1166    6.4994    4.6307 H   0  0  0  0  0  0  0  0  0  0  0  0
   21.9369    3.5455    4.0879 H   0  0  0  0  0  0  0  0  0  0  0  0
   22.5920    5.2407    6.6051 H   0  0  0  0  0  0  0  0  0  0  0  0
   20.3625    3.5601    6.0835 H   0  0  0  0  0  0  0  0  0  0  0  0
   22.7253    3.2402    7.9070 H   0  0  0  0  0  0  0  0  0  0  0  0
   22.3517    2.2287    6.4521 H   0  0  0  0  0  0  0  0  0  0  0  0
   24.8148    3.9578    6.9317 H   0  0  0  0  0  0  0  0  0  0  0  0
   24.7124    2.1484    6.8101 H   0  0  0  0  0  0  0  0  0  0  0  0
   24.1118    5.3497    4.9510 H   0  0  0  0  0  0  0  0  0  0  0  0
   23.7645    3.8727    2.3150 H   0  0  0  0  0  0  0  0  0  0  0  0
   24.3326    5.5129    2.5644 H   0  0  0  0  0  0  0  0  0  0  0  0
   25.9391    3.1163    2.3914 H   0  0  0  0  0  0  0  0  0  0  0  0
   26.5404    4.7247    2.8312 H   0  0  0  0  0  0  0  0  0  0  0  0
   26.4675    4.1888    5.2258 H   0  0  0  0  0  0  0  0  0  0  0  0
   26.9379    2.1123    5.5709 H   0  0  0  0  0  0  0  0  0  0  0  0
   23.7858    1.1935    5.0915 H   0  0  0  0  0  0  0  0  0  0  0  0
   23.1781    2.1279    3.6829 H   0  0  0  0  0  0  0  0  0  0  0  0
   24.8590    1.4945    3.6829 H   0  0  0  0  0  0  0  0  0  0  0  0
   30.3411   -4.1808  -25.8305 H   0  0  0  0  0  0  0  0  0  0  0  0
   30.6206   -2.4236  -25.2011 H   0  0  0  0  0  0  0  0  0  0  0  0
   29.8411   -1.7571  -26.8460 H   0  0  0  0  0  0  0  0  0  0  0  0
   29.2989   -3.4961  -27.3188 H   0  0  0  0  0  0  0  0  0  0  0  0
   28.2440   -1.3233  -26.1795 H   0  0  0  0  0  0  0  0  0  0  0  0
   26.5601   -1.2360  -27.1796 H   0  0  0  0  0  0  0  0  0  0  0  0
   26.8646   -1.6500  -25.0134 H   0  0  0  0  0  0  0  0  0  0  0  0
   26.5986   -3.4043  -25.6677 H   0  0  0  0  0  0  0  0  0  0  0  0
   28.1710   -2.1532  -23.9151 H   0  0  0  0  0  0  0  0  0  0  0  0
   26.8945   -2.4365  -22.5521 H   0  0  0  0  0  0  0  0  0  0  0  0
   26.1450   -3.8795  -23.3547 H   0  0  0  0  0  0  0  0  0  0  0  0
   27.2510   -4.2830  -21.1114 H   0  0  0  0  0  0  0  0  0  0  0  0
   27.7823   -5.3245  -22.5248 H   0  0  0  0  0  0  0  0  0  0  0  0
   29.2207   -2.9604  -21.4067 H   0  0  0  0  0  0  0  0  0  0  0  0
   30.0210   -5.1882  -23.3826 H   0  0  0  0  0  0  0  0  0  0  0  0
   29.4878   -2.4659  -23.9691 H   0  0  0  0  0  0  0  0  0  0  0  0
   31.9526   -3.8159  -23.9426 H   0  0  0  0  0  0  0  0  0  0  0  0
   31.4420   -2.5935  -22.7264 H   0  0  0  0  0  0  0  0  0  0  0  0
   32.2086   -5.5167  -22.2123 H   0  0  0  0  0  0  0  0  0  0  0  0
   33.1043   -4.0267  -21.7001 H   0  0  0  0  0  0  0  0  0  0  0  0
   29.7960   -5.8664  -21.2627 H   0  0  0  0  0  0  0  0  0  0  0  0
   29.1083   -3.8555  -19.0413 H   0  0  0  0  0  0  0  0  0  0  0  0
   28.3875   -5.4169  -19.2786 H   0  0  0  0  0  0  0  0  0  0  0  0
   30.6780   -4.8772  -17.7083 H   0  0  0  0  0  0  0  0  0  0  0  0
   30.2459   -6.5032  -18.3123 H   0  0  0  0  0  0  0  0  0  0  0  0
   32.0128   -6.4340  -19.9483 H   0  0  0  0  0  0  0  0  0  0  0  0
   32.6515   -5.1575  -17.8441 H   0  0  0  0  0  0  0  0  0  0  0  0
   31.4233   -3.0931  -18.8865 H   0  0  0  0  0  0  0  0  0  0  0  0
   32.3666   -2.5720  -20.3237 H   0  0  0  0  0  0  0  0  0  0  0  0
   30.5762   -2.4270  -20.3237 H   0  0  0  0  0  0  0  0  0  0  0  0
  1  2  1  0
  2  3  1  0
  3  4  1  0
  3  5  1  0
  5  6  1  0
  6  7  1  0
  7  8  1  0
  8  9  1  0
  9 10  1  0
  1 11  1  0
  6 11  1  0
 10 11  1  0
 10 12  1  0
 12 13  1  0
 13 14  1  0
  9 15  1  0
 14 15  1  0
 15 16  1  0
 16 17  1  0
 14 18  1  0
 17 18  1  0
 18 19  1  0
 14 20  1  6
 21 22  1  0
 22 23  1  0
 23 24  1  0
 23 25  1  0
 25 26  1  0
 26 27  1  0
 27 28  1  0
 28 29  1  0
 29 30  1  0
 21 31  1  0
 26 31  1  0
 30 31  1  0
 30 32  1  0
 32 33  1  0
 33 34  1  0
 29 35  1  0
 34 35  1  0
 35 36  1  0
 36 37  1  0
 34 38  1  0
 37 38  1  0
 38 39  1  0
 34 40  1  1
  1 41  1  0
  1 42  1  0
  2 43  1  0
  2 44  1  0
  3 45  1  1
  4 46  1  0
  5 47  1  0
  5 48  1  0
  6 49  1  0
  7 50  1  0
  7 51  1  0
  8 52  1  0
  8 53  1  0
  9 54  1  6
 10 55  1  1
 11 56  1  6
 12 57  1  0
 12 58  1  0
 13 59  1  0
 13 60  1  0
 15 61  1  1
 16 62  1  0
 16 63  1  0
 17 64  1  0
 17 65  1  0
 18 66  1  1
 19 67  1  0
 20 68  1  0
 20 69  1  0
 20 70  1  0
 21 71  1  0
 21 72  1  0
 22 73  1  0
 22 74  1  0
 23 75  1  0
 24 76  1  0
 25 77  1  0
 25 78  1  0
 26 79  1  0
 27 80  1  0
 27 81  1  0
 28 82  1  0
 28 83  1  0
 29 84  1  1
 30 85  1  6
 31 86  1  0
 32 87  1  0
 32 88  1  0
 33 89  1  0
 33 90  1  0
 35 91  1  6
 36 92  1  0
 36 93  1  0
 37 94  1  0
 37 95  1  0
 38 96  1  6
 39 97  1  0
 40 98  1  0
 40 99  1  0
 40100  1  0
M  END
>  <PDBID>  (1) 
3UUD

>  <PDB ID>  (1) 
3UUD

>  <Generic Name>  (1) 
Estradiol

>  <Brand Name>  (1) 
Activella#Activelle#Activelle Ld#Alora#Amabelz#Angeliq#Climara#Climara 100#Climara 25#Climara 50#Climara 75#Climara Pro#Combipatch#Combipatch (estradiol/norethindrone Acetate Transdermal System)#Delestrogen#Delestrogen Inj 10mg/ml#Depo-estradiol#Divigel#Elestrin#Estalis 140/50 Mcg#Estalis 250/50 Mcg#Estalis Sequi#Estrace#Estrace Tab 1mg#Estrace Tab 2mg#Estracomb#Estraderm-100#Estraderm-25#Estraderm-50#Estradiol#Estradiol / Norethindrone Acetate#Estradiol Transdermal System#Estradiol Valerate#Estradot 100#Estradot 25#Estradot 37.5#Estradot 50#Estradot 75#Estring#Estrogel#Estrogel Propak#Evamist#Femring#Lopreeza#Lupin-estradiol#Menostar#Mimvey#Mimvey Lo#Minivelle#Natazia#Neo Pause Injection#Neo-diol Inj 20mg/ml#Oesclim#PMS-estradiol Valerate Inj 10mg/ml#Prefesta#Sandoz Estradiol Derm 100#Sandoz Estradiol Derm 50#Sandoz Estradiol Derm 75#Vagifem#Vagifem 10#Vivelle 100mcg#Vivelle 37.5mcg#Vivelle 50mcg#Vivelle 75mcg#Vivelle Dot#Vivelle-dot#Yuvafem#Estraderm MX#Estraderm TTS#Estrasorb#Estrofem#Femtrace#Innofem#Vivelle

>  <DrugBank ID>  (1) 
DB00783

>  <ATC Codes>  (1) 
G03FA16#G03FA11#G03FA12#G03FB12#G03FA17#G03FA05#G03FB09#G03FA14#G03FA08#G03AA14#G03EA03#G03FB01#G03AB08#G03EA02#G03FB05#G03HB01#G03FB11#G03CA53#G03FB04#G03FA07#G03FB07#G03FB02#G03FB10#G03FA06#G03CA03#G03FA15#G03FA09#G03FA13#G03EA01#G03FB06#G03FA01#G03FA02#G02BB01#G03FA03#G03FB08#G03FA10#G03FA04#G03FB03

>  <Ligand ID>  (1) 
EST

>  <Target Name>  (1) 
Estrogen receptor

>  <UniProt ID>  (1) 
P03372

>  <PDB ID.1>  (1) 
3UUD

>  <Seq. Identity>  (1) 
93%

$$$$
