PDB_DB00884_99
     RDKit          3D

 28 28  0  0  0  0  0  0  0  0999 V2000
   17.3940  -36.2860  -11.0520 O   0  0  0  0  0  0  0  0  0  0  0  0
   15.9370  -36.3080  -10.4150 P   0  0  0  0  0  0  0  0  0  0  0  0
   14.8250  -36.3240  -11.5530 O   0  0  0  0  0  0  0  0  0  0  0  0
   15.8350  -37.4720   -9.4080 O   0  0  0  0  0  0  0  0  0  0  0  0
   15.6830  -34.7190   -9.4340 C   0  0  0  0  0  0  0  0  0  0  0  0
   14.4090  -34.8170   -8.7330 O   0  0  0  0  0  0  0  0  0  0  0  0
   17.0600  -34.5370   -8.2080 P   0  0  0  0  0  0  0  0  0  0  0  0
   16.7460  -33.3030   -7.2490 O   0  0  0  0  0  0  0  0  0  0  0  0
   16.9900  -35.8640   -7.3320 O   0  0  0  0  0  0  0  0  0  0  0  0
   18.3820  -34.4610   -8.9590 O   0  0  0  0  0  0  0  0  0  0  0  0
   15.6710  -33.5830  -10.4670 C   0  0  0  0  0  0  0  0  0  0  0  0
   15.5440  -32.2230   -9.9720 C   0  0  0  0  0  0  0  0  0  0  0  0
   16.1990  -31.2020  -10.6530 C   0  0  0  0  0  0  0  0  0  0  0  0
   16.1080  -29.8690  -10.2650 C   0  0  0  0  0  0  0  0  0  0  0  0
   15.3160  -29.5130   -9.1860 C   0  0  0  0  0  0  0  0  0  0  0  0
   14.6380  -30.5030   -8.5140 N   0  0  0  0  0  0  0  0  0  0  0  0
   14.7460  -31.8440   -8.8900 C   0  0  0  0  0  0  0  0  0  0  0  0
   18.0702  -36.2758  -10.3289 H   0  0  0  0  0  0  0  0  0  0  0  0
   13.9269  -36.3369  -11.1366 H   0  0  0  0  0  0  0  0  0  0  0  0
   14.5682  -34.8048   -7.7560 H   0  0  0  0  0  0  0  0  0  0  0  0
   16.8195  -33.5917   -6.3049 H   0  0  0  0  0  0  0  0  0  0  0  0
   17.0025  -35.6261   -6.3711 H   0  0  0  0  0  0  0  0  0  0  0  0
   16.6139  -33.6411  -11.0305 H   0  0  0  0  0  0  0  0  0  0  0  0
   14.7573  -33.7516  -11.0559 H   0  0  0  0  0  0  0  0  0  0  0  0
   16.8112  -31.4579  -11.5303 H   0  0  0  0  0  0  0  0  0  0  0  0
   16.6656  -29.0971  -10.8157 H   0  0  0  0  0  0  0  0  0  0  0  0
   15.2312  -28.4618   -8.8735 H   0  0  0  0  0  0  0  0  0  0  0  0
   14.1953  -32.6117   -8.3266 H   0  0  0  0  0  0  0  0  0  0  0  0
  1  2  1  0
  2  3  1  0
  2  4  2  0
  2  5  1  0
  5  6  1  0
  5  7  1  0
  7  8  1  0
  7  9  1  0
  7 10  2  0
  5 11  1  0
 11 12  1  0
 12 13  2  0
 13 14  1  0
 14 15  2  0
 15 16  1  0
 12 17  1  0
 16 17  2  0
  1 18  1  0
  3 19  1  0
  6 20  1  0
  8 21  1  0
  9 22  1  0
 11 23  1  0
 11 24  1  0
 13 25  1  0
 14 26  1  0
 15 27  1  0
 17 28  1  0
M  END
>  <PDBID>  (1) 
5CG5

>  <PDB ID>  (1) 
5CG5

>  <Generic Name>  (1) 
Risedronate

>  <Brand Name>  (1) 
Actonel#Actonel Dr#Actonel Plus Calcium#Actonel Sachet Kit#Apo-risedronate#Atelvia#Auro-risedronate#Dom-risedronate#Jamp-risedronate#Mylan-risedronate#Ntp-risedronate#PHL-risedronate#PMS-risedronate#PMS-risedronate Plus Calcium#Pendo-risedronate#Q-risedronate#Ratio-risedronate#Risedronate#Risedronate Sodium#Risedronate-35#Riva-risedronate#Sandoz Risedronate#Teva-risedronate#Benet

>  <DrugBank ID>  (1) 
DB00884

>  <ATC Codes>  (1) 
M05BB02#M05BA07#M05BB04#M05BB07

>  <Ligand ID>  (1) 
RIS

>  <Target Name>  (1) 
Farnesyl pyrophosphate synthase

>  <UniProt ID>  (1) 
P14324

>  <PDB ID.1>  (1) 
5CG5

>  <Seq. Identity>  (1) 
100%

$$$$
