PDB_DB01024_98
     RDKit          3D

110112  0  0  0  0  0  0  0  0999 V2000
   19.7700   15.4400   36.0630 C   0  0  1  0  0  0  0  0  0  0  0  0
   24.5960   16.2010   32.8250 C   0  0  0  0  0  0  0  0  0  0  0  0
   25.7370   16.6630   32.2120 C   0  0  2  0  0  0  0  0  0  0  0  0
   27.0450   16.1500   32.8300 C   0  0  0  0  0  0  0  0  0  0  0  0
   27.6320   16.8750   33.9900 C   0  0  0  0  0  0  0  0  0  0  0  0
   27.0170   16.6580   35.3350 C   0  0  0  0  0  0  0  0  0  0  0  0
   21.0050   19.9830   35.6180 C   0  0  0  0  0  0  0  0  0  0  0  0
   24.1190   19.6710   34.1710 C   0  0  0  0  0  0  0  0  0  0  0  0
   25.7830   17.8910   31.3330 C   0  0  0  0  0  0  0  0  0  0  0  0
   19.4470   17.4410   36.8780 C   0  0  0  0  0  0  0  0  0  0  0  0
   20.4940   17.5010   35.6920 C   0  0  0  0  0  0  0  0  0  0  0  0
   21.2280   18.5440   35.1020 C   0  0  0  0  0  0  0  0  0  0  0  0
   22.0980   18.2640   34.0420 C   0  0  1  0  0  0  0  0  0  0  0  0
   22.2680   16.9290   33.6120 C   0  0  1  0  0  0  0  0  0  0  0  0
   21.5450   15.8980   34.2330 C   0  0  0  0  0  0  0  0  0  0  0  0
   20.6340   16.1940   35.2580 C   0  0  0  0  0  0  0  0  0  0  0  0
   23.1970   16.5700   32.4050 C   0  0  0  0  0  0  0  0  0  0  0  0
   19.7290   14.2120   36.0050 O   0  0  0  0  0  0  0  0  0  0  0  0
   19.2500   16.0490   37.1130 O   0  0  0  0  0  0  0  0  0  0  0  0
   22.8970   19.2970   33.5110 O   0  0  0  0  0  0  0  0  0  0  0  0
   21.6940   14.5820   33.8350 O   0  0  0  0  0  0  0  0  0  0  0  0
   26.8830   17.6510   36.1550 O   0  0  0  0  0  0  0  0  0  0  0  0
   26.6380   15.5010   35.6830 O   0  0  0  0  0  0  0  0  0  0  0  0
   59.4460   55.0320   48.5890 C   0  0  1  0  0  0  0  0  0  0  0  0
   58.5480   50.2710   51.9410 C   0  0  0  0  0  0  0  0  0  0  0  0
   57.9700   49.1210   52.4340 C   0  0  1  0  0  0  0  0  0  0  0  0
   58.5700   47.7970   51.9280 C   0  0  0  0  0  0  0  0  0  0  0  0
   58.0230   47.1530   50.7010 C   0  0  0  0  0  0  0  0  0  0  0  0
   58.2550   47.8170   49.3750 C   0  0  0  0  0  0  0  0  0  0  0  0
   54.9010   53.7740   48.8300 C   0  0  0  0  0  0  0  0  0  0  0  0
   54.5130   52.3370   52.0060 C   0  0  0  0  0  0  0  0  0  0  0  0
   56.7320   49.0870   53.2970 C   0  0  0  0  0  0  0  0  0  0  0  0
   57.4890   55.3500   47.6980 C   0  0  0  0  0  0  0  0  0  0  0  0
   57.3660   54.3170   48.8930 C   0  0  0  0  0  0  0  0  0  0  0  0
   56.3020   53.5890   49.4560 C   0  0  0  0  0  0  0  0  0  0  0  0
   56.5310   52.7490   50.5690 C   0  0  2  0  0  0  0  0  0  0  0  0
   57.8480   52.5940   51.0640 C   0  0  1  0  0  0  0  0  0  0  0  0
   58.8970   53.3100   50.4630 C   0  0  0  0  0  0  0  0  0  0  0  0
   58.6520   54.1990   49.4000 C   0  0  1  0  0  0  0  0  0  0  0  0
   58.1630   51.6840   52.3080 C   0  0  0  0  0  0  0  0  0  0  0  0
   60.6590   55.1780   48.7620 O   0  0  0  0  0  0  0  0  0  0  0  0
   58.8960   55.4520   47.4600 O   0  0  0  0  0  0  0  0  0  0  0  0
   55.5040   51.9230   51.0660 O   0  0  0  0  0  0  0  0  0  0  0  0
   60.1920   53.1590   50.9030 O   0  0  0  0  0  0  0  0  0  0  0  0
   57.2750   47.9930   48.5520 O   0  0  0  0  0  0  0  0  0  0  0  0
   59.4160   48.2050   49.0510 O   0  0  0  0  0  0  0  0  0  0  0  0
   18.9584   15.4357   35.3205 H   0  0  0  0  0  0  0  0  0  0  0  0
   24.6464   15.1042   32.7574 H   0  0  0  0  0  0  0  0  0  0  0  0
   24.6616   16.7148   33.7954 H   0  0  0  0  0  0  0  0  0  0  0  0
   25.5474   16.1520   31.2565 H   0  0  0  0  0  0  0  0  0  0  0  0
   26.8626   15.1154   33.1562 H   0  0  0  0  0  0  0  0  0  0  0  0
   27.7863   16.2917   32.0298 H   0  0  0  0  0  0  0  0  0  0  0  0
   28.6887   16.5778   34.0613 H   0  0  0  0  0  0  0  0  0  0  0  0
   27.4497   17.9376   33.7718 H   0  0  0  0  0  0  0  0  0  0  0  0
   28.0111   16.4452   35.7552 H   0  0  0  0  0  0  0  0  0  0  0  0
   21.0051   19.9822   36.7180 H   0  0  0  0  0  0  0  0  0  0  0  0
   21.8131   20.6332   35.2517 H   0  0  0  0  0  0  0  0  0  0  0  0
   20.0380   20.3581   35.2517 H   0  0  0  0  0  0  0  0  0  0  0  0
   23.9755   19.6271   35.2607 H   0  0  0  0  0  0  0  0  0  0  0  0
   24.9209   18.9772   33.8785 H   0  0  0  0  0  0  0  0  0  0  0  0
   24.3952   20.6948   33.8785 H   0  0  0  0  0  0  0  0  0  0  0  0
   25.8167   18.7920   31.9632 H   0  0  0  0  0  0  0  0  0  0  0  0
   26.6804   17.8539   30.6979 H   0  0  0  0  0  0  0  0  0  0  0  0
   24.8854   17.9212   30.6979 H   0  0  0  0  0  0  0  0  0  0  0  0
   19.8486   17.9335   37.7759 H   0  0  0  0  0  0  0  0  0  0  0  0
   18.5085   17.9598   36.6329 H   0  0  0  0  0  0  0  0  0  0  0  0
   19.6752   17.6733   34.9779 H   0  0  0  0  0  0  0  0  0  0  0  0
   22.0271   18.4016   35.8444 H   0  0  0  0  0  0  0  0  0  0  0  0
   22.9266   18.1399   34.7548 H   0  0  0  0  0  0  0  0  0  0  0  0
   23.0813   16.7978   34.3410 H   0  0  0  0  0  0  0  0  0  0  0  0
   22.3464   15.7847   34.9780 H   0  0  0  0  0  0  0  0  0  0  0  0
   19.8225   16.3483   34.5316 H   0  0  0  0  0  0  0  0  0  0  0  0
   23.2510   17.4399   31.7340 H   0  0  0  0  0  0  0  0  0  0  0  0
   22.7619   15.6914   31.9063 H   0  0  0  0  0  0  0  0  0  0  0  0
   19.7165   13.8386   36.9218 H   0  0  0  0  0  0  0  0  0  0  0  0
   21.7598   14.0011   34.6339 H   0  0  0  0  0  0  0  0  0  0  0  0
   26.9279   17.3183   37.0863 H   0  0  0  0  0  0  0  0  0  0  0  0
   26.6191   15.4432   36.6711 H   0  0  0  0  0  0  0  0  0  0  0  0
   59.4263   55.8606   49.3122 H   0  0  0  0  0  0  0  0  0  0  0  0
   59.6156   50.1882   52.1926 H   0  0  0  0  0  0  0  0  0  0  0  0
   58.1783   50.2383   50.9055 H   0  0  0  0  0  0  0  0  0  0  0  0
   57.2584   49.1191   51.5952 H   0  0  0  0  0  0  0  0  0  0  0  0
   59.6377   47.9834   51.7400 H   0  0  0  0  0  0  0  0  0  0  0  0
   58.3145   47.0825   52.7244 H   0  0  0  0  0  0  0  0  0  0  0  0
   58.4620   46.1462   50.6404 H   0  0  0  0  0  0  0  0  0  0  0  0
   56.9325   47.2011   50.8371 H   0  0  0  0  0  0  0  0  0  0  0  0
   58.4609   46.8368   48.9202 H   0  0  0  0  0  0  0  0  0  0  0  0
   54.1522   53.8729   49.6297 H   0  0  0  0  0  0  0  0  0  0  0  0
   54.8944   54.6808   48.2074 H   0  0  0  0  0  0  0  0  0  0  0  0
   54.6593   52.9000   48.2074 H   0  0  0  0  0  0  0  0  0  0  0  0
   54.8887   52.1801   53.0279 H   0  0  0  0  0  0  0  0  0  0  0  0
   54.2895   53.4037   51.8573 H   0  0  0  0  0  0  0  0  0  0  0  0
   53.5971   51.7463   51.8573 H   0  0  0  0  0  0  0  0  0  0  0  0
   57.0240   49.0950   54.3575 H   0  0  0  0  0  0  0  0  0  0  0  0
   56.1103   49.9684   53.0812 H   0  0  0  0  0  0  0  0  0  0  0  0
   56.1596   48.1728   53.0812 H   0  0  0  0  0  0  0  0  0  0  0  0
   56.9691   54.9750   46.8041 H   0  0  0  0  0  0  0  0  0  0  0  0
   57.0321   56.3221   47.9351 H   0  0  0  0  0  0  0  0  0  0  0  0
   57.1673   55.1455   49.5887 H   0  0  0  0  0  0  0  0  0  0  0  0
   56.5025   52.7594   48.7621 H   0  0  0  0  0  0  0  0  0  0  0  0
   56.2183   53.5572   51.2466 H   0  0  0  0  0  0  0  0  0  0  0  0
   58.0137   51.7627   50.3629 H   0  0  0  0  0  0  0  0  0  0  0  0
   59.0442   52.4907   49.7439 H   0  0  0  0  0  0  0  0  0  0  0  0
   58.4614   55.0425   50.0798 H   0  0  0  0  0  0  0  0  0  0  0  0
   57.2681   51.6459   52.9466 H   0  0  0  0  0  0  0  0  0  0  0  0
   59.0262   52.1300   52.8237 H   0  0  0  0  0  0  0  0  0  0  0  0
   60.8535   55.2014   49.7324 H   0  0  0  0  0  0  0  0  0  0  0  0
   60.2061   53.1574   51.8929 H   0  0  0  0  0  0  0  0  0  0  0  0
   56.4394   48.1431   49.0612 H   0  0  0  0  0  0  0  0  0  0  0  0
   59.9451   48.3818   49.8689 H   0  0  0  0  0  0  0  0  0  0  0  0
  2  3  1  0
  3  4  1  0
  4  5  1  0
  5  6  1  0
  3  9  1  0
 10 11  1  0
  7 12  1  0
 11 12  1  0
 12 13  1  0
 13 14  1  0
 14 15  1  0
  1 16  1  0
 11 16  1  0
 15 16  1  0
  2 17  1  0
 14 17  1  0
  1 18  1  0
  1 19  1  0
 10 19  1  0
  8 20  1  0
 13 20  1  0
 15 21  1  0
  6 22  1  0
  6 23  1  0
 25 26  1  0
 26 27  1  0
 27 28  1  0
 28 29  1  0
 26 32  1  0
 33 34  1  0
 30 35  1  0
 34 35  1  0
 35 36  1  0
 36 37  1  0
 37 38  1  0
 24 39  1  0
 34 39  1  0
 38 39  1  0
 25 40  1  0
 37 40  1  0
 24 41  1  0
 24 42  1  0
 33 42  1  0
 31 43  1  0
 36 43  1  0
 38 44  1  0
 29 45  1  0
 29 46  1  0
  1 47  1  6
  2 48  1  0
  2 49  1  0
  3 50  1  6
  4 51  1  0
  4 52  1  0
  5 53  1  0
  5 54  1  0
  6 55  1  0
  7 56  1  0
  7 57  1  0
  7 58  1  0
  8 59  1  0
  8 60  1  0
  8 61  1  0
  9 62  1  0
  9 63  1  0
  9 64  1  0
 10 65  1  0
 10 66  1  0
 11 67  1  0
 12 68  1  0
 13 69  1  6
 14 70  1  1
 15 71  1  0
 16 72  1  0
 17 73  1  0
 17 74  1  0
 18 75  1  0
 21 76  1  0
 22 77  1  0
 23 78  1  0
 24 79  1  1
 25 80  1  0
 25 81  1  0
 26 82  1  1
 27 83  1  0
 27 84  1  0
 28 85  1  0
 28 86  1  0
 29 87  1  0
 30 88  1  0
 30 89  1  0
 30 90  1  0
 31 91  1  0
 31 92  1  0
 31 93  1  0
 32 94  1  0
 32 95  1  0
 32 96  1  0
 33 97  1  0
 33 98  1  0
 34 99  1  0
 35100  1  0
 36101  1  1
 37102  1  6
 38103  1  0
 39104  1  1
 40105  1  0
 40106  1  0
 41107  1  0
 44108  1  0
 45109  1  0
 46110  1  0
M  END
>  <PDBID>  (1) 
4AF0

>  <PDB ID>  (1) 
4AF0

>  <Generic Name>  (1) 
Mycophenolic acid

>  <Brand Name>  (1) 
Apo-mycophenolic Acid#Mycophenolic Acid#Myfortic#Melbex

>  <DrugBank ID>  (1) 
DB01024

>  <ATC Codes>  (1) 
L04AA06

>  <Ligand ID>  (1) 
MOA

>  <Target Name>  (1) 
Inosine-5'-monophosphate dehydrogenase 2

>  <UniProt ID>  (1) 
P12268

>  <PDB ID.1>  (1) 
4AF0

>  <Seq. Identity>  (1) 
59%

$$$$
