PDB_DB08882_98
     RDKit          3D

 63 67  0  0  0  0  0  0  0  0999 V2000
   69.0230   69.5870   69.8910 C   0  0  0  0  0  0  0  0  0  0  0  0
   68.5930   70.8800   69.4780 N   0  0  0  0  0  0  0  0  0  0  0  0
   68.6460   69.4700   71.2410 C   0  0  0  0  0  0  0  0  0  0  0  0
   69.6890   68.4790   69.3030 C   0  0  0  0  0  0  0  0  0  0  0  0
   67.9320   71.3720   70.6010 C   0  0  0  0  0  0  0  0  0  0  0  0
   68.7950   71.5900   68.1420 C   0  0  0  0  0  0  0  0  0  0  0  0
   68.0080   70.5350   71.5700 N   0  0  0  0  0  0  0  0  0  0  0  0
   68.9620   68.3370   71.9770 N   0  0  0  0  0  0  0  0  0  0  0  0
   69.9520   67.3480   70.0640 N   0  0  0  0  0  0  0  0  0  0  0  0
   70.0100   68.5270   68.1350 O   0  0  0  0  0  0  0  0  0  0  0  0
   67.2480   72.5290   70.7930 N   0  0  0  0  0  0  0  0  0  0  0  0
   68.0580   71.1430   66.9590 C   0  0  0  0  0  0  0  0  0  0  0  0
   69.5960   67.2990   71.3980 C   0  0  0  0  0  0  0  0  0  0  0  0
   68.5970   68.2960   73.4070 C   0  0  0  0  0  0  0  0  0  0  0  0
   70.6310   66.1760   69.4380 C   0  0  0  0  0  0  0  0  0  0  0  0
   66.3910   73.0560   69.7640 C   0  0  0  0  0  0  0  0  0  0  0  0
   67.5170   73.3980   71.8960 C   0  0  0  0  0  0  0  0  0  0  0  0
   67.5090   70.8750   65.9620 C   0  0  0  0  0  0  0  0  0  0  0  0
   69.8520   66.3150   72.0710 O   0  0  0  0  0  0  0  0  0  0  0  0
   69.7000   64.9760   69.5580 C   0  0  0  0  0  0  0  0  0  0  0  0
   65.0140   72.7450   70.3660 C   0  0  1  0  0  0  0  0  0  0  0  0
   66.1730   73.3450   72.7010 C   0  0  0  0  0  0  0  0  0  0  0  0
   66.8410   70.5880   64.6840 C   0  0  0  0  0  0  0  0  0  0  0  0
   68.4020   65.1560   69.3030 N   0  0  0  0  0  0  0  0  0  0  0  0
   70.2020   63.7850   69.9320 N   0  0  0  0  0  0  0  0  0  0  0  0
   64.8790   73.4740   71.7640 C   0  0  0  0  0  0  0  0  0  0  0  0
   63.9670   73.1820   69.4360 N   0  0  0  0  0  0  0  0  0  0  0  0
   67.5260   64.1350   69.4110 C   0  0  0  0  0  0  0  0  0  0  0  0
   69.4330   62.6890   70.0740 C   0  0  0  0  0  0  0  0  0  0  0  0
   68.0230   62.8080   69.8190 C   0  0  0  0  0  0  0  0  0  0  0  0
   66.1440   64.3100   69.1420 C   0  0  0  0  0  0  0  0  0  0  0  0
   70.0490   61.3740   70.4930 C   0  0  0  0  0  0  0  0  0  0  0  0
   67.1010   61.7110   69.9400 C   0  0  0  0  0  0  0  0  0  0  0  0
   65.2750   63.2230   69.2680 C   0  0  0  0  0  0  0  0  0  0  0  0
   65.7520   61.9260   69.6670 C   0  0  0  0  0  0  0  0  0  0  0  0
   68.5318   72.6462   68.3003 H   0  0  0  0  0  0  0  0  0  0  0  0
   69.8414   71.3632   67.8898 H   0  0  0  0  0  0  0  0  0  0  0  0
   69.5046   68.3979   74.0201 H   0  0  0  0  0  0  0  0  0  0  0  0
   67.9070   69.1223   73.6331 H   0  0  0  0  0  0  0  0  0  0  0  0
   68.1075   67.3372   73.6331 H   0  0  0  0  0  0  0  0  0  0  0  0
   70.8361   66.3853   68.3777 H   0  0  0  0  0  0  0  0  0  0  0  0
   71.5863   65.9717   69.9436 H   0  0  0  0  0  0  0  0  0  0  0  0
   66.5395   74.1371   69.6252 H   0  0  0  0  0  0  0  0  0  0  0  0
   66.5612   72.6335   68.7627 H   0  0  0  0  0  0  0  0  0  0  0  0
   68.3577   73.0260   72.5000 H   0  0  0  0  0  0  0  0  0  0  0  0
   67.8088   74.4146   71.5939 H   0  0  0  0  0  0  0  0  0  0  0  0
   64.9034   71.6625   70.5268 H   0  0  0  0  0  0  0  0  0  0  0  0
   66.1232   72.3863   73.2381 H   0  0  0  0  0  0  0  0  0  0  0  0
   66.1676   74.2017   73.3910 H   0  0  0  0  0  0  0  0  0  0  0  0
   65.8462   70.1606   64.8781 H   0  0  0  0  0  0  0  0  0  0  0  0
   66.7340   71.5196   64.1089 H   0  0  0  0  0  0  0  0  0  0  0  0
   67.4431   69.8691   64.1089 H   0  0  0  0  0  0  0  0  0  0  0  0
   64.6922   74.5422   71.5792 H   0  0  0  0  0  0  0  0  0  0  0  0
   64.0524   72.9824   72.2979 H   0  0  0  0  0  0  0  0  0  0  0  0
   63.1538   73.5214   69.9694 H   0  0  0  0  0  0  0  0  0  0  0  0
   64.3300   73.9418   68.8428 H   0  0  0  0  0  0  0  0  0  0  0  0
   65.7594   65.2942   68.8365 H   0  0  0  0  0  0  0  0  0  0  0  0
   70.0765   61.3153   71.5911 H   0  0  0  0  0  0  0  0  0  0  0  0
   69.4461   60.5438   70.0964 H   0  0  0  0  0  0  0  0  0  0  0  0
   71.0728   61.3058   70.0964 H   0  0  0  0  0  0  0  0  0  0  0  0
   67.4563   60.7154   70.2441 H   0  0  0  0  0  0  0  0  0  0  0  0
   64.2043   63.3620   69.0578 H   0  0  0  0  0  0  0  0  0  0  0  0
   65.0411   61.0916   69.7579 H   0  0  0  0  0  0  0  0  0  0  0  0
  1  2  1  0
  1  3  2  0
  1  4  1  0
  2  5  1  0
  2  6  1  0
  3  7  1  0
  5  7  2  0
  3  8  1  0
  4  9  1  0
  4 10  2  0
  5 11  1  0
  6 12  1  0
  8 13  1  0
  9 13  1  0
  8 14  1  0
  9 15  1  0
 11 16  1  0
 11 17  1  0
 12 18  3  0
 13 19  2  0
 15 20  1  0
 16 21  1  0
 17 22  1  0
 18 23  1  0
 20 24  2  0
 20 25  1  0
 21 26  1  0
 22 26  1  0
 21 27  1  0
 24 28  1  0
 25 29  2  0
 28 30  2  0
 29 30  1  0
 28 31  1  0
 29 32  1  0
 30 33  1  0
 31 34  2  0
 33 35  2  0
 34 35  1  0
  6 36  1  0
  6 37  1  0
 14 38  1  0
 14 39  1  0
 14 40  1  0
 15 41  1  0
 15 42  1  0
 16 43  1  0
 16 44  1  0
 17 45  1  0
 17 46  1  0
 21 47  1  1
 22 48  1  0
 22 49  1  0
 23 50  1  0
 23 51  1  0
 23 52  1  0
 26 53  1  0
 26 54  1  0
 27 55  1  0
 27 56  1  0
 31 57  1  0
 32 58  1  0
 32 59  1  0
 32 60  1  0
 33 61  1  0
 34 62  1  0
 35 63  1  0
M  END
$$$$
