PDB_DB00360_94
     RDKit          3D

152156  0  0  0  0  0  0  0  0999 V2000
   94.1970  -25.0850 -202.3780 N   0  0  0  0  0  0  0  0  0  0  0  0
   94.0460  -25.5340 -201.0950 C   0  0  0  0  0  0  0  0  0  0  0  0
   95.1210  -26.0560 -200.4290 N   0  0  0  0  0  0  0  0  0  0  0  0
   92.8330  -25.4690 -200.4920 N   0  0  0  0  0  0  0  0  0  0  0  0
   91.7650  -24.9590 -201.1520 C   0  0  0  0  0  0  0  0  0  0  0  0
   90.6470  -24.9000 -200.5830 O   0  0  0  0  0  0  0  0  0  0  0  0
   91.9200  -24.5070 -202.4600 C   0  0  0  0  0  0  0  0  0  0  0  0
   93.1540  -24.5700 -203.0690 C   0  0  0  0  0  0  0  0  0  0  0  0
   90.8840  -23.9940 -203.1370 N   0  0  0  0  0  0  0  0  0  0  0  0
   93.3240  -24.1400 -204.3400 N   0  0  0  0  0  0  0  0  0  0  0  0
   90.8980  -24.0240 -204.5900 C   0  0  2  0  0  0  0  0  0  0  0  0
   92.2450  -23.5590 -205.1420 C   0  0  0  0  0  0  0  0  0  0  0  0
   89.7100  -23.2060 -205.0860 C   0  0  1  0  0  0  0  0  0  0  0  0
   89.5340  -22.0780 -204.2200 O   0  0  0  0  0  0  0  0  0  0  0  0
   89.8990  -22.7210 -206.5110 C   0  0  2  0  0  0  0  0  0  0  0  0
   88.7250  -21.8490 -206.9290 C   0  0  0  0  0  0  0  0  0  0  0  0
   90.0000  -23.8480 -207.3870 O   0  0  0  0  0  0  0  0  0  0  0  0
  101.7920  -17.5440 -213.1890 N   0  0  0  0  0  0  0  0  0  0  0  0
  102.2450  -16.3560 -213.6580 C   0  0  0  0  0  0  0  0  0  0  0  0
  101.4250  -15.2760 -213.7620 N   0  0  0  0  0  0  0  0  0  0  0  0
  103.5240  -16.2380 -214.0500 N   0  0  0  0  0  0  0  0  0  0  0  0
  104.3730  -17.2690 -213.9670 C   0  0  0  0  0  0  0  0  0  0  0  0
  105.5460  -17.0910 -214.3480 O   0  0  0  0  0  0  0  0  0  0  0  0
  103.9310  -18.4900 -213.4840 C   0  0  0  0  0  0  0  0  0  0  0  0
  102.6140  -18.6100 -213.0880 C   0  0  0  0  0  0  0  0  0  0  0  0
  104.7540  -19.5620 -213.3900 N   0  0  0  0  0  0  0  0  0  0  0  0
  102.1260  -19.7840 -212.6050 N   0  0  0  0  0  0  0  0  0  0  0  0
  104.1280  -20.8850 -213.3430 C   0  0  2  0  0  0  0  0  0  0  0  0
  102.9960  -20.9190 -212.3240 C   0  0  0  0  0  0  0  0  0  0  0  0
  105.1360  -22.0370 -213.1860 C   0  0  1  0  0  0  0  0  0  0  0  0
  106.2120  -21.6940 -212.2940 O   0  0  0  0  0  0  0  0  0  0  0  0
  104.4660  -23.3030 -212.6800 C   0  0  2  0  0  0  0  0  0  0  0  0
  105.4330  -24.4870 -212.7440 C   0  0  0  0  0  0  0  0  0  0  0  0
  103.2970  -23.5930 -213.4530 O   0  0  0  0  0  0  0  0  0  0  0  0
   65.3140   23.0840 -177.9030 N   0  0  0  0  0  0  0  0  0  0  0  0
   65.1260   23.4980 -179.1800 C   0  0  0  0  0  0  0  0  0  0  0  0
   66.1690   24.0210 -179.8680 N   0  0  0  0  0  0  0  0  0  0  0  0
   63.9110   23.3890 -179.7680 N   0  0  0  0  0  0  0  0  0  0  0  0
   62.8690   22.8640 -179.1010 C   0  0  0  0  0  0  0  0  0  0  0  0
   61.7600   22.7740 -179.6770 O   0  0  0  0  0  0  0  0  0  0  0  0
   63.0530   22.4380 -177.7850 C   0  0  0  0  0  0  0  0  0  0  0  0
   64.2940   22.5610 -177.1920 C   0  0  0  0  0  0  0  0  0  0  0  0
   62.0490   21.9160 -177.0610 N   0  0  0  0  0  0  0  0  0  0  0  0
   64.5040   22.1650 -175.9130 N   0  0  0  0  0  0  0  0  0  0  0  0
   62.1270   22.1400 -175.6190 C   0  0  2  0  0  0  0  0  0  0  0  0
   63.4480   21.5960 -175.0890 C   0  0  0  0  0  0  0  0  0  0  0  0
   60.9130   21.5660 -174.8890 C   0  0  1  0  0  0  0  0  0  0  0  0
   60.5150   20.3590 -175.5540 O   0  0  0  0  0  0  0  0  0  0  0  0
   61.2150   21.2930 -173.4130 C   0  0  2  0  0  0  0  0  0  0  0  0
   60.0140   20.7010 -172.6800 C   0  0  0  0  0  0  0  0  0  0  0  0
   61.6260   22.5030 -172.7560 O   0  0  0  0  0  0  0  0  0  0  0  0
   72.9420   15.4420 -167.0100 N   0  0  0  0  0  0  0  0  0  0  0  0
   73.3790   14.2820 -166.4580 C   0  0  0  0  0  0  0  0  0  0  0  0
   72.5510   13.2040 -166.3560 N   0  0  0  0  0  0  0  0  0  0  0  0
   74.6500   14.2110 -165.9980 N   0  0  0  0  0  0  0  0  0  0  0  0
   75.4860   15.2640 -166.0970 C   0  0  0  0  0  0  0  0  0  0  0  0
   76.6580   15.1610 -165.6850 O   0  0  0  0  0  0  0  0  0  0  0  0
   75.0420   16.4530 -166.6540 C   0  0  0  0  0  0  0  0  0  0  0  0
   73.7440   16.5320 -167.1250 C   0  0  0  0  0  0  0  0  0  0  0  0
   75.8670   17.5170 -166.7760 N   0  0  0  0  0  0  0  0  0  0  0  0
   73.2730   17.6850 -167.6920 N   0  0  0  0  0  0  0  0  0  0  0  0
   75.2620   18.8340 -166.8840 C   0  0  2  0  0  0  0  0  0  0  0  0
   74.1010   18.8740 -167.8820 C   0  0  0  0  0  0  0  0  0  0  0  0
   76.3360   19.9220 -167.0660 C   0  0  1  0  0  0  0  0  0  0  0  0
   77.3440   19.5080 -167.9960 O   0  0  0  0  0  0  0  0  0  0  0  0
   75.7070   21.2370 -167.4900 C   0  0  2  0  0  0  0  0  0  0  0  0
   76.7370   22.3610 -167.5420 C   0  0  0  0  0  0  0  0  0  0  0  0
   74.6740   21.5720 -166.5620 O   0  0  0  0  0  0  0  0  0  0  0  0
   94.9177  -24.3498 -202.3468 H   0  0  0  0  0  0  0  0  0  0  0  0
   93.7952  -26.5354 -201.4750 H   0  0  0  0  0  0  0  0  0  0  0  0
   94.9655  -25.9805 -199.4136 H   0  0  0  0  0  0  0  0  0  0  0  0
   95.2361  -27.0468 -200.6860 H   0  0  0  0  0  0  0  0  0  0  0  0
   92.5834  -26.4322 -200.2258 H   0  0  0  0  0  0  0  0  0  0  0  0
   91.5196  -25.9624 -201.5302 H   0  0  0  0  0  0  0  0  0  0  0  0
   90.7755  -24.9068 -199.6014 H   0  0  0  0  0  0  0  0  0  0  0  0
   92.1568  -23.5007 -202.0842 H   0  0  0  0  0  0  0  0  0  0  0  0
   92.9134  -25.5724 -203.4529 H   0  0  0  0  0  0  0  0  0  0  0  0
   90.0437  -24.5069 -202.8341 H   0  0  0  0  0  0  0  0  0  0  0  0
   94.0633  -23.4239 -204.2997 H   0  0  0  0  0  0  0  0  0  0  0  0
   90.7870  -25.0524 -204.9642 H   0  0  0  0  0  0  0  0  0  0  0  0
   92.3022  -22.4615 -205.0948 H   0  0  0  0  0  0  0  0  0  0  0  0
   92.3468  -23.8850 -206.1876 H   0  0  0  0  0  0  0  0  0  0  0  0
   88.8220  -23.8551 -205.0749 H   0  0  0  0  0  0  0  0  0  0  0  0
   89.5804  -22.3756 -203.2769 H   0  0  0  0  0  0  0  0  0  0  0  0
   90.8214  -22.1246 -206.5694 H   0  0  0  0  0  0  0  0  0  0  0  0
   88.2132  -21.4688 -206.0326 H   0  0  0  0  0  0  0  0  0  0  0  0
   89.0919  -21.0027 -207.5283 H   0  0  0  0  0  0  0  0  0  0  0  0
   88.0208  -22.4448 -207.5283 H   0  0  0  0  0  0  0  0  0  0  0  0
   90.0743  -24.6770 -206.8510 H   0  0  0  0  0  0  0  0  0  0  0  0
  101.4264  -17.3652 -212.2428 H   0  0  0  0  0  0  0  0  0  0  0  0
  101.9772  -16.6579 -214.6813 H   0  0  0  0  0  0  0  0  0  0  0  0
  101.1731  -14.9442 -212.8200 H   0  0  0  0  0  0  0  0  0  0  0  0
  101.9102  -14.5244 -214.2724 H   0  0  0  0  0  0  0  0  0  0  0  0
  103.5008  -15.9581 -215.0410 H   0  0  0  0  0  0  0  0  0  0  0  0
  104.0908  -17.5832 -214.9827 H   0  0  0  0  0  0  0  0  0  0  0  0
  106.1388  -17.0010 -213.5602 H   0  0  0  0  0  0  0  0  0  0  0  0
  104.2102  -18.1875 -212.4639 H   0  0  0  0  0  0  0  0  0  0  0  0
  102.3362  -18.9207 -214.1060 H   0  0  0  0  0  0  0  0  0  0  0  0
  105.3801  -19.5445 -214.2077 H   0  0  0  0  0  0  0  0  0  0  0  0
  101.6509  -19.5575 -211.7197 H   0  0  0  0  0  0  0  0  0  0  0  0
  103.6747  -21.0619 -214.3295 H   0  0  0  0  0  0  0  0  0  0  0  0
  103.4037  -20.8378 -211.3056 H   0  0  0  0  0  0  0  0  0  0  0  0
  102.4377  -21.8643 -212.3933 H   0  0  0  0  0  0  0  0  0  0  0  0
  105.5472  -22.2183 -214.1900 H   0  0  0  0  0  0  0  0  0  0  0  0
  105.9075  -21.7911 -211.3570 H   0  0  0  0  0  0  0  0  0  0  0  0
  104.1727  -23.1392 -211.6326 H   0  0  0  0  0  0  0  0  0  0  0  0
  105.6922  -24.8043 -211.7232 H   0  0  0  0  0  0  0  0  0  0  0  0
  104.9554  -25.3221 -213.2774 H   0  0  0  0  0  0  0  0  0  0  0  0
  106.3466  -24.1858 -213.2774 H   0  0  0  0  0  0  0  0  0  0  0  0
  102.5381  -23.7813 -212.8457 H   0  0  0  0  0  0  0  0  0  0  0  0
   66.0514   22.3654 -177.9321 H   0  0  0  0  0  0  0  0  0  0  0  0
   64.8628   24.5020 -178.8158 H   0  0  0  0  0  0  0  0  0  0  0  0
   66.8743   24.3747 -179.2059 H   0  0  0  0  0  0  0  0  0  0  0  0
   66.5899   23.2912 -180.4606 H   0  0  0  0  0  0  0  0  0  0  0  0
   63.6325   24.3409 -180.0459 H   0  0  0  0  0  0  0  0  0  0  0  0
   62.5981   23.8656 -178.7359 H   0  0  0  0  0  0  0  0  0  0  0  0
   61.0402   22.7156 -178.9998 H   0  0  0  0  0  0  0  0  0  0  0  0
   63.3255   21.4359 -178.1475 H   0  0  0  0  0  0  0  0  0  0  0  0
   64.0250   23.5671 -176.8378 H   0  0  0  0  0  0  0  0  0  0  0  0
   61.1675   22.3282 -177.3984 H   0  0  0  0  0  0  0  0  0  0  0  0
   65.2505   21.4563 -175.9515 H   0  0  0  0  0  0  0  0  0  0  0  0
   62.1034   23.2220 -175.4220 H   0  0  0  0  0  0  0  0  0  0  0  0
   63.4613   20.4986 -175.1627 H   0  0  0  0  0  0  0  0  0  0  0  0
   63.5873   21.8651 -174.0316 H   0  0  0  0  0  0  0  0  0  0  0  0
   60.0965   22.3027 -174.9151 H   0  0  0  0  0  0  0  0  0  0  0  0
   60.2879   19.6704 -174.8800 H   0  0  0  0  0  0  0  0  0  0  0  0
   62.0297   20.5546 -173.3820 H   0  0  0  0  0  0  0  0  0  0  0  0
   60.1722   20.7790 -171.5942 H   0  0  0  0  0  0  0  0  0  0  0  0
   59.1051   21.2543 -172.9588 H   0  0  0  0  0  0  0  0  0  0  0  0
   59.8993   19.6431 -172.9588 H   0  0  0  0  0  0  0  0  0  0  0  0
   61.5831   22.3768 -171.7750 H   0  0  0  0  0  0  0  0  0  0  0  0
   72.6341   15.2087 -167.9648 H   0  0  0  0  0  0  0  0  0  0  0  0
   73.0492   14.6290 -165.4676 H   0  0  0  0  0  0  0  0  0  0  0  0
   72.3867   12.9901 -165.3619 H   0  0  0  0  0  0  0  0  0  0  0  0
   71.6534   13.4159 -166.8145 H   0  0  0  0  0  0  0  0  0  0  0  0
   74.5859   13.9817 -164.9959 H   0  0  0  0  0  0  0  0  0  0  0  0
   75.1670   15.6107 -165.1030 H   0  0  0  0  0  0  0  0  0  0  0  0
   76.6610   15.1607 -164.6950 H   0  0  0  0  0  0  0  0  0  0  0  0
   75.3809   16.1155 -167.6446 H   0  0  0  0  0  0  0  0  0  0  0  0
   73.4075   16.8837 -166.1386 H   0  0  0  0  0  0  0  0  0  0  0  0
   76.4798   17.5273 -165.9482 H   0  0  0  0  0  0  0  0  0  0  0  0
   72.9338   17.4228 -168.6285 H   0  0  0  0  0  0  0  0  0  0  0  0
   74.7729   19.0723 -165.9280 H   0  0  0  0  0  0  0  0  0  0  0  0
   74.4965   18.8885 -168.9083 H   0  0  0  0  0  0  0  0  0  0  0  0
   73.4978   19.7788 -167.7163 H   0  0  0  0  0  0  0  0  0  0  0  0
   76.8261   20.0774 -166.0935 H   0  0  0  0  0  0  0  0  0  0  0  0
   78.1367   19.1824 -167.5002 H   0  0  0  0  0  0  0  0  0  0  0  0
   75.2926   21.1181 -168.5020 H   0  0  0  0  0  0  0  0  0  0  0  0
   77.0085   22.6572 -166.5180 H   0  0  0  0  0  0  0  0  0  0  0  0
   77.6348   22.0113 -168.0727 H   0  0  0  0  0  0  0  0  0  0  0  0
   76.3105   23.2249 -168.0727 H   0  0  0  0  0  0  0  0  0  0  0  0
   75.0122   21.4623 -165.6380 H   0  0  0  0  0  0  0  0  0  0  0  0
  1  2  1  0
  2  3  1  0
  2  4  1  0
  4  5  1  0
  5  6  1  0
  5  7  1  0
  1  8  1  0
  7  8  1  0
  7  9  1  0
  8 10  1  0
  9 11  1  0
 10 12  1  0
 11 12  1  0
 11 13  1  0
 13 14  1  0
 13 15  1  0
 15 16  1  0
 15 17  1  0
 18 19  1  0
 19 20  1  0
 19 21  1  0
 21 22  1  0
 22 23  1  0
 22 24  1  0
 18 25  1  0
 24 25  1  0
 24 26  1  0
 25 27  1  0
 26 28  1  0
 27 29  1  0
 28 29  1  0
 28 30  1  0
 30 31  1  0
 30 32  1  0
 32 33  1  0
 32 34  1  0
 35 36  1  0
 36 37  1  0
 36 38  1  0
 38 39  1  0
 39 40  1  0
 39 41  1  0
 35 42  1  0
 41 42  1  0
 41 43  1  0
 42 44  1  0
 43 45  1  0
 44 46  1  0
 45 46  1  0
 45 47  1  0
 47 48  1  0
 47 49  1  0
 49 50  1  0
 49 51  1  0
 52 53  1  0
 53 54  1  0
 53 55  1  0
 55 56  1  0
 56 57  1  0
 56 58  1  0
 52 59  1  0
 58 59  1  0
 58 60  1  0
 59 61  1  0
 60 62  1  0
 61 63  1  0
 62 63  1  0
 62 64  1  0
 64 65  1  0
 64 66  1  0
 66 67  1  0
 66 68  1  0
  1 69  1  0
  2 70  1  0
  3 71  1  0
  3 72  1  0
  4 73  1  0
  5 74  1  0
  6 75  1  0
  7 76  1  0
  8 77  1  0
  9 78  1  0
 10 79  1  0
 11 80  1  1
 12 81  1  0
 12 82  1  0
 13 83  1  6
 14 84  1  0
 15 85  1  1
 16 86  1  0
 16 87  1  0
 16 88  1  0
 17 89  1  0
 18 90  1  0
 19 91  1  0
 20 92  1  0
 20 93  1  0
 21 94  1  0
 22 95  1  0
 23 96  1  0
 24 97  1  0
 25 98  1  0
 26 99  1  0
 27100  1  0
 28101  1  6
 29102  1  0
 29103  1  0
 30104  1  6
 31105  1  0
 32106  1  1
 33107  1  0
 33108  1  0
 33109  1  0
 34110  1  0
 35111  1  0
 36112  1  0
 37113  1  0
 37114  1  0
 38115  1  0
 39116  1  0
 40117  1  0
 41118  1  0
 42119  1  0
 43120  1  0
 44121  1  0
 45122  1  6
 46123  1  0
 46124  1  0
 47125  1  1
 48126  1  0
 49127  1  6
 50128  1  0
 50129  1  0
 50130  1  0
 51131  1  0
 52132  1  0
 53133  1  0
 54134  1  0
 54135  1  0
 55136  1  0
 56137  1  0
 57138  1  0
 58139  1  0
 59140  1  0
 60141  1  0
 61142  1  0
 62143  1  1
 63144  1  0
 63145  1  0
 64146  1  1
 65147  1  0
 66148  1  6
 67149  1  0
 67150  1  0
 67151  1  0
 68152  1  0
M  END
>  <PDBID>  (1) 
5VVB

>  <PDB ID>  (1) 
5VVB

>  <Generic Name>  (1) 
Sapropterin

>  <Brand Name>  (1) 
Kuvan#BH4#Biopten

>  <DrugBank ID>  (1) 
DB00360

>  <ATC Codes>  (1) 
A16AX07

>  <Ligand ID>  (1) 
BH4,BHS,H4B,THB

>  <Target Name>  (1) 
Nitric oxide synthase, endothelial

>  <UniProt ID>  (1) 
P29474

>  <PDB ID.1>  (1) 
5VVB

>  <Seq. Identity>  (1) 
94%

$$$$
