PDB_DB00834_96
     RDKit          3D

166174  0  0  0  0  0  0  0  0999 V2000
  109.1470   14.2630   72.0640 O   0  0  0  0  0  0  0  0  0  0  0  0
  109.4050   13.1840   71.5590 C   0  0  1  0  0  0  0  0  0  0  0  0
  109.2620   12.9340   70.0660 C   0  0  0  0  0  0  0  0  0  0  0  0
  109.7780   12.0290   72.3670 C   0  0  0  0  0  0  0  0  0  0  0  0
  109.7520   10.7560   71.9220 C   0  0  1  0  0  0  0  0  0  0  0  0
  110.1050    9.6140   72.8380 C   0  0  0  0  0  0  0  0  0  0  0  0
  109.3260   10.4270   70.5510 C   0  0  1  0  0  0  0  0  0  0  0  0
  108.6880   11.5570   69.7640 C   0  0  0  0  0  0  0  0  0  0  0  0
  109.4160    9.1830   70.0640 C   0  0  1  0  0  0  0  0  0  0  0  0
  108.8360    8.8340   68.6960 C   0  0  1  0  0  0  0  0  0  0  0  0
  109.9240    8.6780   67.6330 C   0  0  0  0  0  0  0  0  0  0  0  0
  109.6200    8.1300   66.3760 C   0  0  0  0  0  0  0  0  0  0  0  0
  110.5990    7.9800   65.3980 C   0  0  0  0  0  0  0  0  0  0  0  0
  111.9360    8.3880   65.6260 C   0  0  0  0  0  0  0  0  0  0  0  0
  112.9480    8.2540   64.6720 N   0  0  0  0  0  0  0  0  0  0  0  0
  113.1190    6.9500   64.0430 C   0  0  0  0  0  0  0  0  0  0  0  0
  114.1750    9.0180   64.8850 C   0  0  0  0  0  0  0  0  0  0  0  0
  112.2270    8.9330   66.8920 C   0  0  0  0  0  0  0  0  0  0  0  0
  111.2400    9.0690   67.8620 C   0  0  0  0  0  0  0  0  0  0  0  0
  107.8310    7.6420   68.8310 C   0  0  0  0  0  0  0  0  0  0  0  0
  108.3540    6.5090   69.7370 C   0  0  2  0  0  0  0  0  0  0  0  0
  109.4210    5.6730   69.0020 C   0  0  0  0  0  0  0  0  0  0  0  0
  107.2890    5.5050   70.2750 C   0  0  1  0  0  0  0  0  0  0  0  0
  106.0420    6.1550   70.6990 C   0  0  0  0  0  0  0  0  0  0  0  0
  105.0020    6.6460   71.0580 C   0  0  0  0  0  0  0  0  0  0  0  0
  103.7280    7.2040   71.5100 C   0  0  0  0  0  0  0  0  0  0  0  0
  106.9870    4.5610   69.2330 O   0  0  0  0  0  0  0  0  0  0  0  0
  108.0230    4.8460   71.5020 C   0  0  0  0  0  0  0  0  0  0  0  0
  109.0500    5.8880   72.0120 C   0  0  0  0  0  0  0  0  0  0  0  0
  108.8490    7.0970   71.0760 C   0  0  1  0  0  0  0  0  0  0  0  0
  110.0330    8.0320   70.8410 C   0  0  2  0  0  0  0  0  0  0  0  0
  110.7760    8.4550   72.1150 C   0  0  0  0  0  0  0  0  0  0  0  0
  126.3640   43.7660   59.2150 O   0  0  0  0  0  0  0  0  0  0  0  0
  125.7940   44.8530   59.2450 C   0  0  1  0  0  0  0  0  0  0  0  0
  124.4060   45.0530   58.6600 C   0  0  0  0  0  0  0  0  0  0  0  0
  126.4400   46.0540   59.7700 C   0  0  0  0  0  0  0  0  0  0  0  0
  125.9910   47.3180   59.5890 C   0  0  1  0  0  0  0  0  0  0  0  0
  126.7760   48.4900   60.1340 C   0  0  0  0  0  0  0  0  0  0  0  0
  124.7770   47.6090   58.8210 C   0  0  1  0  0  0  0  0  0  0  0  0
  124.1920   46.4400   58.0440 C   0  0  0  0  0  0  0  0  0  0  0  0
  124.2620   48.8560   58.7670 C   0  0  0  0  0  0  0  0  0  0  0  0
  123.0530   49.1910   57.9010 C   0  0  1  0  0  0  0  0  0  0  0  0
  121.7520   49.3250   58.7140 C   0  0  0  0  0  0  0  0  0  0  0  0
  120.6370   49.9650   58.1540 C   0  0  0  0  0  0  0  0  0  0  0  0
  119.4420   50.1140   58.8500 C   0  0  0  0  0  0  0  0  0  0  0  0
  119.2810   49.6030   60.1600 C   0  0  0  0  0  0  0  0  0  0  0  0
  118.0870   49.7540   60.8550 N   0  0  0  0  0  0  0  0  0  0  0  0
  117.5170   51.0910   60.8260 C   0  0  0  0  0  0  0  0  0  0  0  0
  117.8030   48.9670   62.0450 C   0  0  0  0  0  0  0  0  0  0  0  0
  120.4020   48.9570   60.7270 C   0  0  0  0  0  0  0  0  0  0  0  0
  121.5900   48.8240   60.0100 C   0  0  0  0  0  0  0  0  0  0  0  0
  123.3960   50.3880   56.9440 C   0  0  0  0  0  0  0  0  0  0  0  0
  124.1390   51.5670   57.6020 C   0  0  2  0  0  0  0  0  0  0  0  0
  123.1500   52.4340   58.4000 C   0  0  0  0  0  0  0  0  0  0  0  0
  124.9360   52.5510   56.6600 C   0  0  1  0  0  0  0  0  0  0  0  0
  125.7120   51.9110   55.5860 C   0  0  0  0  0  0  0  0  0  0  0  0
  126.3880   51.4200   54.7100 C   0  0  0  0  0  0  0  0  0  0  0  0
  127.2180   50.8410   53.6570 C   0  0  0  0  0  0  0  0  0  0  0  0
  124.0280   53.4990   56.0770 O   0  0  0  0  0  0  0  0  0  0  0  0
  125.9250   53.2590   57.6650 C   0  0  0  0  0  0  0  0  0  0  0  0
  126.0600   52.3210   58.9000 C   0  0  0  0  0  0  0  0  0  0  0  0
  125.3100   51.0450   58.4690 C   0  0  1  0  0  0  0  0  0  0  0  0
  124.8430   50.0420   59.5290 C   0  0  2  0  0  0  0  0  0  0  0  0
  125.9030   49.6610   60.5730 C   0  0  0  0  0  0  0  0  0  0  0  0
  109.1671   14.1790   73.0502 H   0  0  0  0  0  0  0  0  0  0  0  0
  108.3640   12.8633   71.7124 H   0  0  0  0  0  0  0  0  0  0  0  0
  108.5928   13.6971   69.6419 H   0  0  0  0  0  0  0  0  0  0  0  0
  110.2653   12.9863   69.6181 H   0  0  0  0  0  0  0  0  0  0  0  0
  110.8144   12.2116   72.6872 H   0  0  0  0  0  0  0  0  0  0  0  0
  108.9560   12.0114   73.0977 H   0  0  0  0  0  0  0  0  0  0  0  0
  110.8065   10.8399   71.6203 H   0  0  0  0  0  0  0  0  0  0  0  0
  110.7900    9.9864   73.6140 H   0  0  0  0  0  0  0  0  0  0  0  0
  109.1656    9.2341   73.2661 H   0  0  0  0  0  0  0  0  0  0  0  0
  108.3362   10.1317   70.9294 H   0  0  0  0  0  0  0  0  0  0  0  0
  107.6128   11.5738   69.9957 H   0  0  0  0  0  0  0  0  0  0  0  0
  108.8940   11.3563   68.7023 H   0  0  0  0  0  0  0  0  0  0  0  0
  108.4555    8.9287   70.5361 H   0  0  0  0  0  0  0  0  0  0  0  0
  108.2400    9.6763   68.3149 H   0  0  0  0  0  0  0  0  0  0  0  0
  110.1538    7.6727   68.0157 H   0  0  0  0  0  0  0  0  0  0  0  0
  109.2113    7.1262   66.5643 H   0  0  0  0  0  0  0  0  0  0  0  0
  108.9579    8.8909   65.9371 H   0  0  0  0  0  0  0  0  0  0  0  0
  110.6376    6.9071   65.1583 H   0  0  0  0  0  0  0  0  0  0  0  0
  110.2658    8.6802   64.6178 H   0  0  0  0  0  0  0  0  0  0  0  0
  112.1740    7.3885   66.0189 H   0  0  0  0  0  0  0  0  0  0  0  0
  113.2202    6.1784   64.8204 H   0  0  0  0  0  0  0  0  0  0  0  0
  112.2424    6.7271   63.4170 H   0  0  0  0  0  0  0  0  0  0  0  0
  114.0234    6.9606   63.4170 H   0  0  0  0  0  0  0  0  0  0  0  0
  114.3546    9.1298   65.9645 H   0  0  0  0  0  0  0  0  0  0  0  0
  115.0218    8.4873   64.4255 H   0  0  0  0  0  0  0  0  0  0  0  0
  114.0724   10.0121   64.4255 H   0  0  0  0  0  0  0  0  0  0  0  0
  113.0109    8.2988   67.3317 H   0  0  0  0  0  0  0  0  0  0  0  0
  112.4730    9.9780   66.6522 H   0  0  0  0  0  0  0  0  0  0  0  0
  111.2039   10.1384   68.1172 H   0  0  0  0  0  0  0  0  0  0  0  0
  111.5660    8.3487   68.6268 H   0  0  0  0  0  0  0  0  0  0  0  0
  106.8905    8.0235   69.2552 H   0  0  0  0  0  0  0  0  0  0  0  0
  107.6878    7.2185   67.8260 H   0  0  0  0  0  0  0  0  0  0  0  0
  110.0639    5.1693   69.7389 H   0  0  0  0  0  0  0  0  0  0  0  0
  108.9262    4.9197   68.3714 H   0  0  0  0  0  0  0  0  0  0  0  0
  110.0341    6.3336   68.3714 H   0  0  0  0  0  0  0  0  0  0  0  0
  106.6021    6.8141   71.3786 H   0  0  0  0  0  0  0  0  0  0  0  0
  105.6399    6.0477   69.6808 H   0  0  0  0  0  0  0  0  0  0  0  0
  105.5492    7.4291   71.6033 H   0  0  0  0  0  0  0  0  0  0  0  0
  104.5422    6.3755   70.0960 H   0  0  0  0  0  0  0  0  0  0  0  0
  103.7022    7.2153   72.6096 H   0  0  0  0  0  0  0  0  0  0  0  0
  103.6221    8.2309   71.1302 H   0  0  0  0  0  0  0  0  0  0  0  0
  102.9014    6.5855   71.1302 H   0  0  0  0  0  0  0  0  0  0  0  0
  106.7116    3.7002   69.6372 H   0  0  0  0  0  0  0  0  0  0  0  0
  107.2986    4.6071   72.2946 H   0  0  0  0  0  0  0  0  0  0  0  0
  108.5188    3.9079   71.2119 H   0  0  0  0  0  0  0  0  0  0  0  0
  108.8423    6.1632   73.0566 H   0  0  0  0  0  0  0  0  0  0  0  0
  110.0822    5.5079   71.9978 H   0  0  0  0  0  0  0  0  0  0  0  0
  108.1378    7.7684   71.5794 H   0  0  0  0  0  0  0  0  0  0  0  0
  110.8474    7.5405   70.2886 H   0  0  0  0  0  0  0  0  0  0  0  0
  111.7976    8.7572   71.8410 H   0  0  0  0  0  0  0  0  0  0  0  0
  110.7720    7.5938   72.7994 H   0  0  0  0  0  0  0  0  0  0  0  0
  126.5278   43.4536   60.1400 H   0  0  0  0  0  0  0  0  0  0  0  0
  126.2407   45.1141   58.2743 H   0  0  0  0  0  0  0  0  0  0  0  0
  124.2466   44.2968   57.8772 H   0  0  0  0  0  0  0  0  0  0  0  0
  123.6900   44.9552   59.4893 H   0  0  0  0  0  0  0  0  0  0  0  0
  126.4836   45.9113   60.8598 H   0  0  0  0  0  0  0  0  0  0  0  0
  127.3503   46.0761   59.1528 H   0  0  0  0  0  0  0  0  0  0  0  0
  125.4306   47.2542   60.5334 H   0  0  0  0  0  0  0  0  0  0  0  0
  127.3571   48.1453   61.0021 H   0  0  0  0  0  0  0  0  0  0  0  0
  127.4173   48.8549   59.3182 H   0  0  0  0  0  0  0  0  0  0  0  0
  125.3926   47.8796   57.9505 H   0  0  0  0  0  0  0  0  0  0  0  0
  124.6484   46.4384   57.0431 H   0  0  0  0  0  0  0  0  0  0  0  0
  123.1036   46.5996   58.0405 H   0  0  0  0  0  0  0  0  0  0  0  0
  124.9303   49.0956   57.9267 H   0  0  0  0  0  0  0  0  0  0  0  0
  122.8275   48.3392   57.2425 H   0  0  0  0  0  0  0  0  0  0  0  0
  122.1023   50.2871   59.1160 H   0  0  0  0  0  0  0  0  0  0  0  0
  120.9667   50.9804   57.8889 H   0  0  0  0  0  0  0  0  0  0  0  0
  120.3505   49.2674   57.3532 H   0  0  0  0  0  0  0  0  0  0  0  0
  119.2524   51.1957   58.9133 H   0  0  0  0  0  0  0  0  0  0  0  0
  118.7488   49.4908   58.2660 H   0  0  0  0  0  0  0  0  0  0  0  0
  119.6434   50.5547   60.5758 H   0  0  0  0  0  0  0  0  0  0  0  0
  117.3651   51.4473   61.8556 H   0  0  0  0  0  0  0  0  0  0  0  0
  118.2035   51.7709   60.3002 H   0  0  0  0  0  0  0  0  0  0  0  0
  116.5511   51.0665   60.3002 H   0  0  0  0  0  0  0  0  0  0  0  0
  118.0194   49.5666   62.9414 H   0  0  0  0  0  0  0  0  0  0  0  0
  116.7426   48.6745   62.0467 H   0  0  0  0  0  0  0  0  0  0  0  0
  118.4322   48.0648   62.0467 H   0  0  0  0  0  0  0  0  0  0  0  0
  120.6505   49.5093   61.6453 H   0  0  0  0  0  0  0  0  0  0  0  0
  120.0592   47.9163   60.8245 H   0  0  0  0  0  0  0  0  0  0  0  0
  121.7870   47.7437   59.9454 H   0  0  0  0  0  0  0  0  0  0  0  0
  122.2705   49.4693   60.5849 H   0  0  0  0  0  0  0  0  0  0  0  0
  124.0262   50.0016   56.1294 H   0  0  0  0  0  0  0  0  0  0  0  0
  122.4307   50.7900   56.6027 H   0  0  0  0  0  0  0  0  0  0  0  0
  123.3188   52.2860   59.4768 H   0  0  0  0  0  0  0  0  0  0  0  0
  123.3041   53.4933   58.1469 H   0  0  0  0  0  0  0  0  0  0  0  0
  122.1199   52.1426   58.1469 H   0  0  0  0  0  0  0  0  0  0  0  0
  125.6441   50.9394   56.0972 H   0  0  0  0  0  0  0  0  0  0  0  0
  125.2356   52.5726   54.8475 H   0  0  0  0  0  0  0  0  0  0  0  0
  126.2939   50.4323   55.1849 H   0  0  0  0  0  0  0  0  0  0  0  0
  125.9430   52.1112   53.9791 H   0  0  0  0  0  0  0  0  0  0  0  0
  128.0397   50.2678   54.1113 H   0  0  0  0  0  0  0  0  0  0  0  0
  126.6059   50.1729   53.0333 H   0  0  0  0  0  0  0  0  0  0  0  0
  127.6336   51.6462   53.0333 H   0  0  0  0  0  0  0  0  0  0  0  0
  123.5573   53.9904   56.7961 H   0  0  0  0  0  0  0  0  0  0  0  0
  126.9069   53.4043   57.1908 H   0  0  0  0  0  0  0  0  0  0  0  0
  125.5457   54.2483   57.9606 H   0  0  0  0  0  0  0  0  0  0  0  0
  127.1167   52.1024   59.1136 H   0  0  0  0  0  0  0  0  0  0  0  0
  125.6541   52.7652   59.8208 H   0  0  0  0  0  0  0  0  0  0  0  0
  126.0353   50.4010   57.9502 H   0  0  0  0  0  0  0  0  0  0  0  0
  124.0767   50.5055   60.1678 H   0  0  0  0  0  0  0  0  0  0  0  0
  125.3920   49.3865   61.5077 H   0  0  0  0  0  0  0  0  0  0  0  0
  126.5620   50.5316   60.7065 H   0  0  0  0  0  0  0  0  0  0  0  0
  1  2  1  0
  2  3  1  0
  2  4  1  0
  4  5  1  0
  5  6  1  0
  5  7  1  0
  3  8  1  0
  7  8  1  0
  7  9  1  0
  9 10  1  0
 10 11  1  0
 11 12  1  0
 12 13  1  0
 13 14  1  0
 14 15  1  0
 15 16  1  0
 15 17  1  0
 14 18  1  0
 11 19  1  0
 18 19  1  0
 10 20  1  0
 20 21  1  0
 21 22  1  6
 21 23  1  0
 23 24  1  0
 24 25  1  0
 25 26  1  0
 23 27  1  6
 23 28  1  0
 28 29  1  0
 21 30  1  0
 29 30  1  0
  9 31  1  0
 30 31  1  0
  6 32  1  0
 31 32  1  0
 33 34  1  0
 34 35  1  0
 34 36  1  0
 36 37  1  0
 37 38  1  0
 37 39  1  0
 35 40  1  0
 39 40  1  0
 39 41  1  0
 41 42  1  0
 42 43  1  0
 43 44  1  0
 44 45  1  0
 45 46  1  0
 46 47  1  0
 47 48  1  0
 47 49  1  0
 46 50  1  0
 43 51  1  0
 50 51  1  0
 42 52  1  0
 52 53  1  0
 53 54  1  1
 53 55  1  0
 55 56  1  0
 56 57  1  0
 57 58  1  0
 55 59  1  6
 55 60  1  0
 60 61  1  0
 53 62  1  0
 61 62  1  0
 41 63  1  0
 62 63  1  0
 38 64  1  0
 63 64  1  0
  1 65  1  0
  2 66  1  6
  3 67  1  0
  3 68  1  0
  4 69  1  0
  4 70  1  0
  5 71  1  6
  6 72  1  0
  6 73  1  0
  7 74  1  6
  8 75  1  0
  8 76  1  0
  9 77  1  6
 10 78  1  6
 11 79  1  0
 12 80  1  0
 12 81  1  0
 13 82  1  0
 13 83  1  0
 14 84  1  0
 16 85  1  0
 16 86  1  0
 16 87  1  0
 17 88  1  0
 17 89  1  0
 17 90  1  0
 18 91  1  0
 18 92  1  0
 19 93  1  0
 19 94  1  0
 20 95  1  0
 20 96  1  0
 22 97  1  0
 22 98  1  0
 22 99  1  0
 24100  1  0
 24101  1  0
 25102  1  0
 25103  1  0
 26104  1  0
 26105  1  0
 26106  1  0
 27107  1  0
 28108  1  0
 28109  1  0
 29110  1  0
 29111  1  0
 30112  1  1
 31113  1  6
 32114  1  0
 32115  1  0
 33116  1  0
 34117  1  1
 35118  1  0
 35119  1  0
 36120  1  0
 36121  1  0
 37122  1  1
 38123  1  0
 38124  1  0
 39125  1  1
 40126  1  0
 40127  1  0
 41128  1  0
 42129  1  6
 43130  1  0
 44131  1  0
 44132  1  0
 45133  1  0
 45134  1  0
 46135  1  0
 48136  1  0
 48137  1  0
 48138  1  0
 49139  1  0
 49140  1  0
 49141  1  0
 50142  1  0
 50143  1  0
 51144  1  0
 51145  1  0
 52146  1  0
 52147  1  0
 54148  1  0
 54149  1  0
 54150  1  0
 56151  1  0
 56152  1  0
 57153  1  0
 57154  1  0
 58155  1  0
 58156  1  0
 58157  1  0
 59158  1  0
 60159  1  0
 60160  1  0
 61161  1  0
 61162  1  0
 62163  1  6
 63164  1  1
 64165  1  0
 64166  1  0
M  END
>  <PDBID>  (1) 
5UC3

>  <PDB ID>  (1) 
5UC3

>  <Generic Name>  (1) 
Mifepristone

>  <Brand Name>  (1) 
Korlym#Mifegymiso#Corlux#Mefipil#Mifegyne#Mifeprex

>  <DrugBank ID>  (1) 
DB00834

>  <ATC Codes>  (1) 
G03XB01#G03XB51

>  <Ligand ID>  (1) 
486

>  <Target Name>  (1) 
Glucocorticoid receptor

>  <UniProt ID>  (1) 
P04150

>  <PDB ID.1>  (1) 
5UC3

>  <Seq. Identity>  (1) 
99%

$$$$
