PDB_DB00238_98
     RDKit          3D

 34 37  0  0  0  0  0  0  0  0999 V2000
   -0.9440  -35.3940   24.4740 N   0  0  0  0  0  0  0  0  0  0  0  0
   -0.2950  -36.6730   24.0220 C   0  0  0  0  0  0  0  0  0  0  0  0
   -0.4420  -37.8530   24.9090 C   0  0  0  0  0  0  0  0  0  0  0  0
   -1.1800  -37.8020   23.6200 C   0  0  0  0  0  0  0  0  0  0  0  0
    1.2770  -34.5670   25.0320 N   0  0  0  0  0  0  0  0  0  0  0  0
    2.0890  -33.7850   25.8050 C   0  0  0  0  0  0  0  0  0  0  0  0
    1.5790  -32.9070   26.8060 C   0  0  0  0  0  0  0  0  0  0  0  0
    0.1920  -32.8440   26.9940 C   0  0  0  0  0  0  0  0  0  0  0  0
   -0.3830  -31.9470   28.0630 C   0  0  0  0  0  0  0  0  0  0  0  0
   -0.0700  -34.5070   25.2230 C   0  0  0  0  0  0  0  0  0  0  0  0
   -0.6570  -33.6410   26.1810 C   0  0  0  0  0  0  0  0  0  0  0  0
   -2.0910  -33.5310   26.2970 N   0  0  0  0  0  0  0  0  0  0  0  0
   -3.1050  -33.5960   25.4170 C   0  0  0  0  0  0  0  0  0  0  0  0
   -4.2740  -33.4330   25.7920 O   0  0  0  0  0  0  0  0  0  0  0  0
   -2.8390  -33.8640   23.9210 C   0  0  0  0  0  0  0  0  0  0  0  0
   -1.7930  -34.7280   23.4750 C   0  0  0  0  0  0  0  0  0  0  0  0
   -3.6730  -33.2760   22.9570 C   0  0  0  0  0  0  0  0  0  0  0  0
   -3.4620  -33.5540   21.5880 C   0  0  0  0  0  0  0  0  0  0  0  0
   -2.4050  -34.4140   21.2270 C   0  0  0  0  0  0  0  0  0  0  0  0
   -1.5880  -34.9890   22.1520 N   0  0  0  0  0  0  0  0  0  0  0  0
    0.5480  -36.1463   23.5508 H   0  0  0  0  0  0  0  0  0  0  0  0
    0.3966  -38.5537   25.0346 H   0  0  0  0  0  0  0  0  0  0  0  0
   -0.7261  -38.0030   25.9610 H   0  0  0  0  0  0  0  0  0  0  0  0
   -2.2721  -37.6709   23.6157 H   0  0  0  0  0  0  0  0  0  0  0  0
   -1.2560  -38.4568   22.7394 H   0  0  0  0  0  0  0  0  0  0  0  0
    3.1767  -33.8349   25.6490 H   0  0  0  0  0  0  0  0  0  0  0  0
    2.2583  -32.2937   27.4162 H   0  0  0  0  0  0  0  0  0  0  0  0
   -0.1263  -32.3475   29.0548 H   0  0  0  0  0  0  0  0  0  0  0  0
    0.0352  -30.9352   27.9566 H   0  0  0  0  0  0  0  0  0  0  0  0
   -1.4770  -31.9046   27.9566 H   0  0  0  0  0  0  0  0  0  0  0  0
   -2.4060  -33.3671   27.2639 H   0  0  0  0  0  0  0  0  0  0  0  0
   -4.4862  -32.6026   23.2658 H   0  0  0  0  0  0  0  0  0  0  0  0
   -4.1098  -33.1081   20.8189 H   0  0  0  0  0  0  0  0  0  0  0  0
   -2.2344  -34.6278   20.1616 H   0  0  0  0  0  0  0  0  0  0  0  0
  1  2  1  0
  2  3  1  0
  2  4  1  0
  3  4  1  0
  5  6  2  0
  6  7  1  0
  7  8  2  0
  8  9  1  0
  1 10  1  0
  5 10  1  0
  8 11  1  0
 10 11  2  0
 11 12  1  0
 12 13  1  0
 13 14  2  0
 13 15  1  0
  1 16  1  0
 15 16  2  0
 15 17  1  0
 17 18  2  0
 18 19  1  0
 16 20  1  0
 19 20  2  0
  2 21  1  0
  3 22  1  0
  3 23  1  0
  4 24  1  0
  4 25  1  0
  6 26  1  0
  7 27  1  0
  9 28  1  0
  9 29  1  0
  9 30  1  0
 12 31  1  0
 17 32  1  0
 18 33  1  0
 19 34  1  0
M  END
>  <PDBID>  (1) 
1JLF

>  <PDB ID>  (1) 
1JLF

>  <Generic Name>  (1) 
Nevirapine

>  <Brand Name>  (1) 
Apo-nevirapine#Apo-nevirapine XR#Apo-zidovudine-lamivudine-nevirapine#Auro-nevirapine#Mylan-nevirapine#Nevirapine#Nevirapine Extended Release#PMS-nevirapine#Teva-nevirapine#Viramune#Viramune XR

>  <DrugBank ID>  (1) 
DB00238

>  <ATC Codes>  (1) 
J05AR05#J05AG01#J05AR07

>  <Ligand ID>  (1) 
NVP

>  <Target Name>  (1) 
Reverse transcriptase/RNaseH

>  <UniProt ID>  (1) 
Q72547

>  <PDB ID.1>  (1) 
1JLF

>  <Seq. Identity>  (1) 
96%

$$$$
