PDB_DB00513_98
     RDKit          3D

 48 46  0  0  0  0  0  0  0  0999 V2000
   37.1580    4.4210  -30.0460 C   0  0  0  0  0  0  0  0  0  0  0  0
   38.1450    3.6840  -30.2690 O   0  0  0  0  0  0  0  0  0  0  0  0
   36.9190    5.6690  -30.0140 O   0  0  0  0  0  0  0  0  0  0  0  0
   35.9070    3.5120  -29.7010 C   0  0  0  0  0  0  0  0  0  0  0  0
   35.4640    3.0680  -31.0940 C   0  0  0  0  0  0  0  0  0  0  0  0
   33.9160    2.9280  -31.0900 C   0  0  0  0  0  0  0  0  0  0  0  0
   33.5780    1.4560  -30.8870 C   0  0  0  0  0  0  0  0  0  0  0  0
   32.3200    1.0240  -31.4940 C   0  0  0  0  0  0  0  0  0  0  0  0
   32.4130    0.6400  -32.9180 N   0  0  0  0  0  0  0  0  0  0  0  0
   32.3530   -4.7280  -56.3010 C   0  0  1  0  0  0  0  0  0  0  0  0
   31.4580   -4.6770  -57.2370 O   0  0  0  0  0  0  0  0  0  0  0  0
   32.8180   -5.8450  -55.8830 O   0  0  0  0  0  0  0  0  0  0  0  0
   32.9560   -3.4000  -55.7830 C   0  0  0  0  0  0  0  0  0  0  0  0
   33.7000   -2.4600  -56.6900 C   0  0  0  0  0  0  0  0  0  0  0  0
   35.1410   -2.1000  -56.1320 C   0  0  0  0  0  0  0  0  0  0  0  0
   35.1430   -0.6600  -55.6450 C   0  0  0  0  0  0  0  0  0  0  0  0
   36.3220   -0.2860  -54.8290 C   0  0  0  0  0  0  0  0  0  0  0  0
   37.5610   -0.1880  -55.5760 N   0  0  0  0  0  0  0  0  0  0  0  0
   37.4160    4.4430  -28.9769 H   0  0  0  0  0  0  0  0  0  0  0  0
   38.5384    3.3902  -29.4093 H   0  0  0  0  0  0  0  0  0  0  0  0
   36.8614    5.9699  -29.0726 H   0  0  0  0  0  0  0  0  0  0  0  0
   36.1938    2.6527  -29.0770 H   0  0  0  0  0  0  0  0  0  0  0  0
   35.1245    4.0246  -29.1223 H   0  0  0  0  0  0  0  0  0  0  0  0
   35.7680    3.8187  -31.8383 H   0  0  0  0  0  0  0  0  0  0  0  0
   35.9317    2.1066  -31.3529 H   0  0  0  0  0  0  0  0  0  0  0  0
   33.4890    3.5256  -30.2711 H   0  0  0  0  0  0  0  0  0  0  0  0
   33.4967    3.2893  -32.0406 H   0  0  0  0  0  0  0  0  0  0  0  0
   34.3909    0.8557  -31.3214 H   0  0  0  0  0  0  0  0  0  0  0  0
   33.4626    1.3126  -29.8025 H   0  0  0  0  0  0  0  0  0  0  0  0
   31.9495    0.1554  -30.9299 H   0  0  0  0  0  0  0  0  0  0  0  0
   31.6451    1.8916  -31.4531 H   0  0  0  0  0  0  0  0  0  0  0  0
   32.6549   -0.3587  -32.9892 H   0  0  0  0  0  0  0  0  0  0  0  0
   31.5071    0.8076  -33.3787 H   0  0  0  0  0  0  0  0  0  0  0  0
   31.5574   -4.7755  -55.5429 H   0  0  0  0  0  0  0  0  0  0  0  0
   30.5571   -4.6257  -56.8297 H   0  0  0  0  0  0  0  0  0  0  0  0
   32.8207   -5.8516  -54.8930 H   0  0  0  0  0  0  0  0  0  0  0  0
   32.1187   -2.8244  -55.3616 H   0  0  0  0  0  0  0  0  0  0  0  0
   33.7515   -3.7524  -55.1099 H   0  0  0  0  0  0  0  0  0  0  0  0
   33.8108   -2.9337  -57.6766 H   0  0  0  0  0  0  0  0  0  0  0  0
   33.1214   -1.5267  -56.7555 H   0  0  0  0  0  0  0  0  0  0  0  0
   35.3904   -2.7711  -55.2969 H   0  0  0  0  0  0  0  0  0  0  0  0
   35.8875   -2.2210  -56.9308 H   0  0  0  0  0  0  0  0  0  0  0  0
   35.1115   -0.0003  -56.5247 H   0  0  0  0  0  0  0  0  0  0  0  0
   34.2647   -0.5508  -54.9918 H   0  0  0  0  0  0  0  0  0  0  0  0
   36.1226    0.6907  -54.3638 H   0  0  0  0  0  0  0  0  0  0  0  0
   36.4623   -1.0911  -54.0927 H   0  0  0  0  0  0  0  0  0  0  0  0
   38.3530   -0.1254  -54.9205 H   0  0  0  0  0  0  0  0  0  0  0  0
   37.6713   -1.0229  -56.1690 H   0  0  0  0  0  0  0  0  0  0  0  0
  1  2  1  0
  1  3  1  0
  1  4  1  0
  4  5  1  0
  5  6  1  0
  6  7  1  0
  7  8  1  0
  8  9  1  0
 10 11  1  0
 10 12  1  0
 10 13  1  0
 13 14  1  0
 14 15  1  0
 15 16  1  0
 16 17  1  0
 17 18  1  0
  1 19  1  0
  2 20  1  0
  3 21  1  0
  4 22  1  0
  4 23  1  0
  5 24  1  0
  5 25  1  0
  6 26  1  0
  6 27  1  0
  7 28  1  0
  7 29  1  0
  8 30  1  0
  8 31  1  0
  9 32  1  0
  9 33  1  0
 10 34  1  1
 11 35  1  0
 12 36  1  0
 13 37  1  0
 13 38  1  0
 14 39  1  0
 14 40  1  0
 15 41  1  0
 15 42  1  0
 16 43  1  0
 16 44  1  0
 17 45  1  0
 17 46  1  0
 18 47  1  0
 18 48  1  0
M  END
>  <PDBID>  (1) 
1CEA

>  <PDB ID>  (1) 
1CEA

>  <Generic Name>  (1) 
Aminocaproic Acid

>  <Brand Name>  (1) 
Amicar#Aminocaproic Acid#Exoden White Tooth#Acepramin#Amocap#Caproamin#Caprocat#Caprolisin#E-Capro#Epsicaprom#Hemocid#Inselon#Ipron#Ipsilon#Kai Nai Yin#Minocap#Plaslloid#Resplamin

>  <DrugBank ID>  (1) 
DB00513

>  <ATC Codes>  (1) 
B02AA01

>  <Ligand ID>  (1) 
ACA

>  <Target Name>  (1) 
Plasminogen

>  <UniProt ID>  (1) 
P00747

>  <PDB ID.1>  (1) 
1CEA

>  <Seq. Identity>  (1) 
100%

$$$$
