PDB_DB00220_97
     RDKit          3D

 85 88  0  0  0  0  0  0  0  0999 V2000
  -12.8470   13.7840   27.6230 C   0  0  2  0  0  0  0  0  0  0  0  0
  -12.6750   12.9750   28.9230 C   0  0  1  0  0  0  0  0  0  0  0  0
  -12.8840   11.4660   28.7450 C   0  0  0  0  0  0  0  0  0  0  0  0
  -12.1810   10.9280   27.4960 C   0  0  0  0  0  0  0  0  0  0  0  0
  -12.6230   11.7100   26.2680 C   0  0  0  0  0  0  0  0  0  0  0  0
  -12.1690   13.1600   26.4020 C   0  0  0  0  0  0  0  0  0  0  0  0
  -11.0390   15.3410   28.3640 N   0  0  0  0  0  0  0  0  0  0  0  0
  -11.0360   14.7060   29.6950 C   0  0  1  0  0  0  0  0  0  0  0  0
  -11.3080   13.2100   29.5690 C   0  0  0  0  0  0  0  0  0  0  0  0
  -12.3760   15.2340   27.7480 C   0  0  0  0  0  0  0  0  0  0  0  0
   -9.6980   14.8390   30.3560 C   0  0  0  0  0  0  0  0  0  0  0  0
   -9.7250   15.1520   31.6500 N   0  0  0  0  0  0  0  0  0  0  0  0
   -8.5370   15.3490   32.4790 C   0  0  0  0  0  0  0  0  0  0  0  0
   -7.6660   16.4330   31.8560 C   0  0  0  0  0  0  0  0  0  0  0  0
   -7.7750   14.0410   32.6220 C   0  0  0  0  0  0  0  0  0  0  0  0
   -8.9680   15.7660   33.8770 C   0  0  0  0  0  0  0  0  0  0  0  0
   -8.6920   14.6310   29.7010 O   0  0  0  0  0  0  0  0  0  0  0  0
  -10.6700   16.7630   28.4400 C   0  0  0  0  0  0  0  0  0  0  0  0
  -10.0980   17.1960   27.0930 C   0  0  2  0  0  0  0  0  0  0  0  0
   -8.6250   16.8290   26.9330 C   0  0  1  0  0  0  0  0  0  0  0  0
  -10.2860   18.5980   26.9020 O   0  0  0  0  0  0  0  0  0  0  0  0
   -8.2830   17.0440   25.5490 N   0  0  0  0  0  0  0  0  0  0  0  0
   -7.6960   17.6510   27.8270 C   0  0  0  0  0  0  0  0  0  0  0  0
   -8.0140   16.0640   24.6890 C   0  0  0  0  0  0  0  0  0  0  0  0
   -8.0650   14.8740   24.9720 O   0  0  0  0  0  0  0  0  0  0  0  0
   -7.6030   16.4850   23.3120 C   0  0  0  0  0  0  0  0  0  0  0  0
   -6.4110   17.2000   23.1280 C   0  0  0  0  0  0  0  0  0  0  0  0
   -6.0090   17.6100   21.8540 C   0  0  0  0  0  0  0  0  0  0  0  0
   -6.7760   17.3300   20.7190 C   0  0  0  0  0  0  0  0  0  0  0  0
   -7.9760   16.6240   20.8140 C   0  0  0  0  0  0  0  0  0  0  0  0
   -8.4530   16.1680   22.1380 C   0  0  0  0  0  0  0  0  0  0  0  0
   -8.7130   16.3550   19.7040 O   0  0  0  0  0  0  0  0  0  0  0  0
   -9.7450   15.3980   22.2760 C   0  0  0  0  0  0  0  0  0  0  0  0
   -6.1250   16.8550   27.9280 S   0  0  0  0  0  0  0  0  0  0  0  0
   -5.1280   17.5380   26.7320 C   0  0  0  0  0  0  0  0  0  0  0  0
   -4.0170   16.8290   26.2710 C   0  0  0  0  0  0  0  0  0  0  0  0
   -3.1850   17.3760   25.2950 C   0  0  0  0  0  0  0  0  0  0  0  0
   -3.4600   18.6370   24.7740 C   0  0  0  0  0  0  0  0  0  0  0  0
   -4.5690   19.3480   25.2260 C   0  0  0  0  0  0  0  0  0  0  0  0
   -5.3980   18.8000   26.2050 C   0  0  0  0  0  0  0  0  0  0  0  0
  -13.9351   13.7652   27.4626 H   0  0  0  0  0  0  0  0  0  0  0  0
  -13.4695   13.3506   29.5846 H   0  0  0  0  0  0  0  0  0  0  0  0
  -12.4839   10.9464   29.6282 H   0  0  0  0  0  0  0  0  0  0  0  0
  -13.9630   11.2860   28.6291 H   0  0  0  0  0  0  0  0  0  0  0  0
  -11.0926   11.0293   27.6193 H   0  0  0  0  0  0  0  0  0  0  0  0
  -12.4461    9.8688   27.3624 H   0  0  0  0  0  0  0  0  0  0  0  0
  -12.1727   11.2658   25.3680 H   0  0  0  0  0  0  0  0  0  0  0  0
  -13.7192   11.6739   26.1836 H   0  0  0  0  0  0  0  0  0  0  0  0
  -12.4506   13.7196   25.4978 H   0  0  0  0  0  0  0  0  0  0  0  0
  -11.0765   13.1973   26.5244 H   0  0  0  0  0  0  0  0  0  0  0  0
  -11.8136   15.2091   30.2885 H   0  0  0  0  0  0  0  0  0  0  0  0
  -11.2952   12.7527   30.5693 H   0  0  0  0  0  0  0  0  0  0  0  0
  -10.5297   12.7551   28.9386 H   0  0  0  0  0  0  0  0  0  0  0  0
  -12.3388   15.6810   26.7436 H   0  0  0  0  0  0  0  0  0  0  0  0
  -13.0880   15.7626   28.3988 H   0  0  0  0  0  0  0  0  0  0  0  0
  -10.6460   15.2629   32.0976 H   0  0  0  0  0  0  0  0  0  0  0  0
   -7.1908   17.0244   32.6525 H   0  0  0  0  0  0  0  0  0  0  0  0
   -6.8891   15.9660   31.2329 H   0  0  0  0  0  0  0  0  0  0  0  0
   -8.2893   17.0911   31.2329 H   0  0  0  0  0  0  0  0  0  0  0  0
   -7.6403   13.8099   33.6890 H   0  0  0  0  0  0  0  0  0  0  0  0
   -8.3428   13.2313   32.1402 H   0  0  0  0  0  0  0  0  0  0  0  0
   -6.7906   14.1355   32.1402 H   0  0  0  0  0  0  0  0  0  0  0  0
   -8.3869   15.2038   34.6228 H   0  0  0  0  0  0  0  0  0  0  0  0
   -8.7899   16.8434   34.0095 H   0  0  0  0  0  0  0  0  0  0  0  0
  -10.0389   15.5524   34.0095 H   0  0  0  0  0  0  0  0  0  0  0  0
  -11.5611   17.3641   28.6735 H   0  0  0  0  0  0  0  0  0  0  0  0
   -9.9192   16.9123   29.2300 H   0  0  0  0  0  0  0  0  0  0  0  0
  -10.6500   16.6445   26.3177 H   0  0  0  0  0  0  0  0  0  0  0  0
   -8.4891   15.7811   27.2387 H   0  0  0  0  0  0  0  0  0  0  0  0
  -10.3461   19.0459   27.7828 H   0  0  0  0  0  0  0  0  0  0  0  0
   -8.2445   18.0141   25.2050 H   0  0  0  0  0  0  0  0  0  0  0  0
   -7.5710   18.6570   27.3999 H   0  0  0  0  0  0  0  0  0  0  0  0
   -8.1320   17.7327   28.8336 H   0  0  0  0  0  0  0  0  0  0  0  0
   -5.7836   17.4416   23.9986 H   0  0  0  0  0  0  0  0  0  0  0  0
   -5.0667   18.1663   21.7414 H   0  0  0  0  0  0  0  0  0  0  0  0
   -6.4273   17.6723   19.7335 H   0  0  0  0  0  0  0  0  0  0  0  0
   -9.5628   15.8533   19.7836 H   0  0  0  0  0  0  0  0  0  0  0  0
   -9.9773   15.2596   23.3423 H   0  0  0  0  0  0  0  0  0  0  0  0
  -10.5592   15.9583   21.7931 H   0  0  0  0  0  0  0  0  0  0  0  0
   -9.6395   14.4153   21.7931 H   0  0  0  0  0  0  0  0  0  0  0  0
   -3.7966   15.8322   26.6806 H   0  0  0  0  0  0  0  0  0  0  0  0
   -2.3116   16.8112   24.9369 H   0  0  0  0  0  0  0  0  0  0  0  0
   -2.8025   19.0713   24.0065 H   0  0  0  0  0  0  0  0  0  0  0  0
   -4.7913   20.3421   24.8108 H   0  0  0  0  0  0  0  0  0  0  0  0
   -6.2699   19.3670   26.5632 H   0  0  0  0  0  0  0  0  0  0  0  0
  1  2  1  0
  2  3  1  0
  3  4  1  0
  4  5  1  0
  1  6  1  0
  5  6  1  0
  7  8  1  0
  2  9  1  0
  8  9  1  0
  1 10  1  0
  7 10  1  0
  8 11  1  0
 11 12  1  0
 12 13  1  0
 13 14  1  0
 13 15  1  0
 13 16  1  0
 11 17  2  0
  7 18  1  0
 18 19  1  0
 19 20  1  0
 19 21  1  0
 20 22  1  0
 20 23  1  0
 22 24  1  0
 24 25  2  0
 24 26  1  0
 26 27  2  0
 27 28  1  0
 28 29  2  0
 29 30  1  0
 26 31  1  0
 30 31  2  0
 30 32  1  0
 31 33  1  0
 23 34  1  0
 34 35  1  0
 35 36  2  0
 36 37  1  0
 37 38  2  0
 38 39  1  0
 35 40  1  0
 39 40  2  0
  1 41  1  6
  2 42  1  1
  3 43  1  0
  3 44  1  0
  4 45  1  0
  4 46  1  0
  5 47  1  0
  5 48  1  0
  6 49  1  0
  6 50  1  0
  8 51  1  1
  9 52  1  0
  9 53  1  0
 10 54  1  0
 10 55  1  0
 12 56  1  0
 14 57  1  0
 14 58  1  0
 14 59  1  0
 15 60  1  0
 15 61  1  0
 15 62  1  0
 16 63  1  0
 16 64  1  0
 16 65  1  0
 18 66  1  0
 18 67  1  0
 19 68  1  6
 20 69  1  1
 21 70  1  0
 22 71  1  0
 23 72  1  0
 23 73  1  0
 27 74  1  0
 28 75  1  0
 29 76  1  0
 32 77  1  0
 33 78  1  0
 33 79  1  0
 33 80  1  0
 36 81  1  0
 37 82  1  0
 38 83  1  0
 39 84  1  0
 40 85  1  0
M  END
>  <PDBID>  (1) 
2PYN

>  <PDB ID>  (1) 
2PYN

>  <Generic Name>  (1) 
Nelfinavir

>  <Brand Name>  (1) 
Viracept#Viracept -250mg#Viracept -50mg

>  <DrugBank ID>  (1) 
DB00220

>  <ATC Codes>  (1) 
J05AE04

>  <Ligand ID>  (1) 
1UN

>  <Target Name>  (1) 
HIV-1 protease

>  <UniProt ID>  (1) 
O90777

>  <PDB ID.1>  (1) 
2PYN

>  <Seq. Identity>  (1) 
91%

$$$$
