PDB_DB01409_99
     RDKit          3D

 48 52  0  0  0  0  0  0  0  0999 V2000
   43.6800   91.7760   57.9190 C   0  0  0  0  0  0  0  0  0  0  0  0
   43.9030   91.9900   59.1040 O   0  0  0  0  0  0  0  0  0  0  0  0
   42.1170   93.6150   57.2840 C   0  0  0  0  0  0  0  0  0  0  0  0
   42.2560   91.5840   55.9140 C   0  0  0  0  0  0  0  0  0  0  0  0
   43.0540   94.6280   57.3030 C   0  0  0  0  0  0  0  0  0  0  0  0
   42.6240   95.9230   57.2610 C   0  0  0  0  0  0  0  0  0  0  0  0
   41.2780   96.1740   57.1920 C   0  0  0  0  0  0  0  0  0  0  0  0
   42.5380   92.2220   54.7250 C   0  0  0  0  0  0  0  0  0  0  0  0
   42.3990   91.5310   53.5570 C   0  0  0  0  0  0  0  0  0  0  0  0
   41.9830   90.2230   53.6060 C   0  0  0  0  0  0  0  0  0  0  0  0
   46.5970   92.0430   53.4030 O   0  0  0  0  0  0  0  0  0  0  0  0
   44.7430   91.5260   57.0250 O   0  0  0  0  0  0  0  0  0  0  0  0
   41.3560   91.5340   58.0850 O   0  0  0  0  0  0  0  0  0  0  0  0
   40.5880   94.5250   57.1870 S   0  0  0  0  0  0  0  0  0  0  0  0
   41.7810   89.9600   55.3650 S   0  0  0  0  0  0  0  0  0  0  0  0
   49.2910   92.3800   56.6690 C   0  0  0  0  0  0  0  0  0  0  0  0
   47.2640   93.1710   55.6260 C   0  0  2  0  0  0  0  0  0  0  0  0
   46.4690   93.1920   56.9130 C   0  0  0  0  0  0  0  0  0  0  0  0
   46.0880   91.7830   57.3690 C   0  0  2  0  0  0  0  0  0  0  0  0
   46.9650   90.6550   56.8170 C   0  0  0  0  0  0  0  0  0  0  0  0
   47.6390   91.0560   55.5300 C   0  0  1  0  0  0  0  0  0  0  0  0
   46.5000   91.2420   54.5620 C   0  0  1  0  0  0  0  0  0  0  0  0
   46.2580   92.7040   54.6060 C   0  0  2  0  0  0  0  0  0  0  0  0
   49.2400   92.4470   54.4310 C   0  0  0  0  0  0  0  0  0  0  0  0
   42.3340   92.1260   57.3150 C   0  0  0  0  0  0  0  0  0  0  0  0
   48.3510   92.2680   55.5780 N   0  0  0  0  0  0  0  0  0  0  0  0
   44.1282   94.3961   57.3511 H   0  0  0  0  0  0  0  0  0  0  0  0
   43.3464   96.7523   57.2822 H   0  0  0  0  0  0  0  0  0  0  0  0
   40.7565   97.1416   57.1504 H   0  0  0  0  0  0  0  0  0  0  0  0
   42.8696   93.2708   54.7181 H   0  0  0  0  0  0  0  0  0  0  0  0
   42.6164   92.0131   52.5925 H   0  0  0  0  0  0  0  0  0  0  0  0
   41.8168   89.5185   52.7777 H   0  0  0  0  0  0  0  0  0  0  0  0
   41.5679   91.6623   59.0435 H   0  0  0  0  0  0  0  0  0  0  0  0
   48.7518   92.3158   57.6256 H   0  0  0  0  0  0  0  0  0  0  0  0
   50.0248   91.5629   56.6061 H   0  0  0  0  0  0  0  0  0  0  0  0
   49.8123   93.3466   56.6061 H   0  0  0  0  0  0  0  0  0  0  0  0
   47.7146   94.1634   55.4775 H   0  0  0  0  0  0  0  0  0  0  0  0
   47.0748   93.6685   57.6978 H   0  0  0  0  0  0  0  0  0  0  0  0
   45.5415   93.7551   56.7324 H   0  0  0  0  0  0  0  0  0  0  0  0
   46.2460   91.7794   58.4576 H   0  0  0  0  0  0  0  0  0  0  0  0
   47.7358   90.4054   57.5610 H   0  0  0  0  0  0  0  0  0  0  0  0
   46.3210   89.7870   56.6124 H   0  0  0  0  0  0  0  0  0  0  0  0
   48.3826   90.2889   55.2682 H   0  0  0  0  0  0  0  0  0  0  0  0
   46.0401   90.2481   54.6652 H   0  0  0  0  0  0  0  0  0  0  0  0
   45.5125   93.5004   54.7478 H   0  0  0  0  0  0  0  0  0  0  0  0
   50.2605   92.6525   54.7866 H   0  0  0  0  0  0  0  0  0  0  0  0
   49.2414   91.5311   53.8218 H   0  0  0  0  0  0  0  0  0  0  0  0
   48.8869   93.2921   53.8218 H   0  0  0  0  0  0  0  0  0  0  0  0
  1  2  2  0
  3  5  2  0
  5  6  1  0
  6  7  2  0
  4  8  2  0
  8  9  1  0
  9 10  2  0
  1 12  1  0
  3 14  1  0
  7 14  1  0
  4 15  1  0
 10 15  1  0
 17 18  1  0
 12 19  1  0
 18 19  1  0
 19 20  1  0
 20 21  1  0
 11 22  1  0
 21 22  1  0
 11 23  1  0
 17 23  1  0
 22 23  1  0
  1 25  1  0
  3 25  1  0
  4 25  1  0
 13 25  1  0
 16 26  1  0
 17 26  1  0
 21 26  1  0
 24 26  1  0
  5 27  1  0
  6 28  1  0
  7 29  1  0
  8 30  1  0
  9 31  1  0
 10 32  1  0
 13 33  1  0
 16 34  1  0
 16 35  1  0
 16 36  1  0
 17 37  1  6
 18 38  1  0
 18 39  1  0
 19 40  1  1
 20 41  1  0
 20 42  1  0
 21 43  1  6
 22 44  1  6
 23 45  1  6
 24 46  1  0
 24 47  1  0
 24 48  1  0
M  CHG  1  26   1
M  END
$$$$
