PDB_DB00320_99
     RDKit          3D

100107  0  0  0  0  0  0  0  0999 V2000
  -22.3420    8.3580   21.8580 C   0  0  0  0  0  0  0  0  0  0  0  0
  -22.8430    6.9450   22.1060 C   0  0  2  0  0  0  0  0  0  0  0  0
  -23.4630    6.6390   23.4800 C   0  0  1  0  0  0  0  0  0  0  0  0
  -23.6870    5.3280   23.7700 C   0  0  1  0  0  0  0  0  0  0  0  0
  -23.9100    7.5930   24.4550 C   0  0  0  0  0  0  0  0  0  0  0  0
  -24.5290    7.1330   25.6790 C   0  0  0  0  0  0  0  0  0  0  0  0
  -24.6860    5.7510   25.8990 C   0  0  0  0  0  0  0  0  0  0  0  0
  -24.2660    4.8720   24.9440 C   0  0  0  0  0  0  0  0  0  0  0  0
  -24.2860    3.4730   24.8370 N   0  0  0  0  0  0  0  0  0  0  0  0
  -23.6880    3.1020   23.6590 C   0  0  0  0  0  0  0  0  0  0  0  0
  -23.3150    4.2400   22.9740 C   0  0  0  0  0  0  0  0  0  0  0  0
  -22.6610    4.4610   21.6540 C   0  0  0  0  0  0  0  0  0  0  0  0
  -21.9180    5.8040   21.5990 C   0  0  1  0  0  0  0  0  0  0  0  0
  -21.2840    6.0290   20.2040 N   0  0  0  0  0  0  0  0  0  0  0  0
  -20.0460    5.3110   19.9460 C   0  0  0  0  0  0  0  0  0  0  0  0
  -20.9560    7.4750   19.9030 C   0  0  0  0  0  0  0  0  0  0  0  0
  -21.9280    8.5430   20.4090 C   0  0  2  0  0  0  0  0  0  0  0  0
  -21.2490    9.8980   20.2910 C   0  0  0  0  0  0  0  0  0  0  0  0
  -20.1690   10.1000   20.8480 O   0  0  0  0  0  0  0  0  0  0  0  0
  -21.9620   10.9300   19.5000 N   0  0  0  0  0  0  0  0  0  0  0  0
  -21.3990   12.2910   19.2980 C   0  0  2  0  0  0  0  0  0  0  0  0
  -22.2410   12.9830   18.2460 C   0  0  0  0  0  0  0  0  0  0  0  0
  -19.9590   12.2080   18.7880 O   0  0  0  0  0  0  0  0  0  0  0  0
  -21.2850   13.0700   20.5700 C   0  0  0  0  0  0  0  0  0  0  0  0
  -22.2600   13.3630   21.2730 O   0  0  0  0  0  0  0  0  0  0  0  0
  -19.9980   13.3240   20.7670 N   0  0  0  0  0  0  0  0  0  0  0  0
  -19.0830   12.8690   19.8090 C   0  0  1  0  0  0  0  0  0  0  0  0
  -18.2640   11.8930   20.3390 O   0  0  0  0  0  0  0  0  0  0  0  0
  -18.1680   13.9810   19.2330 C   0  0  2  0  0  0  0  0  0  0  0  0
  -16.7730   13.6500   18.5840 C   0  0  0  0  0  0  0  0  0  0  0  0
  -16.1600   15.1410   18.4940 C   0  0  0  0  0  0  0  0  0  0  0  0
  -16.8040   15.8710   19.6450 C   0  0  0  0  0  0  0  0  0  0  0  0
  -17.8330   14.9540   20.1170 N   0  0  0  0  0  0  0  0  0  0  0  0
  -18.4330   15.0820   21.4280 C   0  0  0  0  0  0  0  0  0  0  0  0
  -18.0740   15.9950   22.1890 O   0  0  0  0  0  0  0  0  0  0  0  0
  -19.4760   14.1100   21.9430 C   0  0  2  0  0  0  0  0  0  0  0  0
  -19.0900   13.4480   23.2650 C   0  0  0  0  0  0  0  0  0  0  0  0
  -20.2130   12.6920   23.9710 C   0  0  1  0  0  0  0  0  0  0  0  0
  -20.0320   11.3240   24.2750 C   0  0  0  0  0  0  0  0  0  0  0  0
  -21.0430   10.6100   24.9240 C   0  0  0  0  0  0  0  0  0  0  0  0
  -22.2260   11.2680   25.2900 C   0  0  0  0  0  0  0  0  0  0  0  0
  -22.4160   12.6290   25.0290 C   0  0  0  0  0  0  0  0  0  0  0  0
  -21.4010   13.3480   24.3720 C   0  0  0  0  0  0  0  0  0  0  0  0
  -23.1448    9.0712   22.0964 H   0  0  0  0  0  0  0  0  0  0  0  0
  -21.4652    8.5359   22.4980 H   0  0  0  0  0  0  0  0  0  0  0  0
  -23.7130    6.9506   21.4329 H   0  0  0  0  0  0  0  0  0  0  0  0
  -24.4695    6.7142   23.0426 H   0  0  0  0  0  0  0  0  0  0  0  0
  -22.6922    5.2608   24.2345 H   0  0  0  0  0  0  0  0  0  0  0  0
  -23.0310    8.1868   24.7461 H   0  0  0  0  0  0  0  0  0  0  0  0
  -24.7253    8.1218   23.9397 H   0  0  0  0  0  0  0  0  0  0  0  0
  -23.9230    7.5226   26.5102 H   0  0  0  0  0  0  0  0  0  0  0  0
  -25.5625    7.5015   25.6006 H   0  0  0  0  0  0  0  0  0  0  0  0
  -24.1385    5.5085   26.8217 H   0  0  0  0  0  0  0  0  0  0  0  0
  -25.7770    5.6123   25.9197 H   0  0  0  0  0  0  0  0  0  0  0  0
  -23.2740    4.8315   25.4175 H   0  0  0  0  0  0  0  0  0  0  0  0
  -23.7732    3.0596   25.6288 H   0  0  0  0  0  0  0  0  0  0  0  0
  -22.7990    2.4902   23.8719 H   0  0  0  0  0  0  0  0  0  0  0  0
  -24.3907    2.5127   23.0516 H   0  0  0  0  0  0  0  0  0  0  0  0
  -22.3322    4.2149   23.4675 H   0  0  0  0  0  0  0  0  0  0  0  0
  -21.9412    3.6490   21.4737 H   0  0  0  0  0  0  0  0  0  0  0  0
  -23.4459    4.4746   20.8834 H   0  0  0  0  0  0  0  0  0  0  0  0
  -21.0609    5.7975   22.2884 H   0  0  0  0  0  0  0  0  0  0  0  0
  -19.5747    5.0377   20.9016 H   0  0  0  0  0  0  0  0  0  0  0  0
  -20.2640    4.3992   19.3706 H   0  0  0  0  0  0  0  0  0  0  0  0
  -19.3628    5.9531   19.3706 H   0  0  0  0  0  0  0  0  0  0  0  0
  -19.9725    7.6885   20.3470 H   0  0  0  0  0  0  0  0  0  0  0  0
  -21.0054    7.5498   18.8067 H   0  0  0  0  0  0  0  0  0  0  0  0
  -22.8374    8.4626   19.7953 H   0  0  0  0  0  0  0  0  0  0  0  0
  -21.7780   10.2416   21.1922 H   0  0  0  0  0  0  0  0  0  0  0  0
  -20.2945   10.0765   21.8297 H   0  0  0  0  0  0  0  0  0  0  0  0
  -22.0980   10.5310   18.5602 H   0  0  0  0  0  0  0  0  0  0  0  0
  -23.0013   13.6078   18.7375 H   0  0  0  0  0  0  0  0  0  0  0  0
  -21.5963   13.6157   17.6183 H   0  0  0  0  0  0  0  0  0  0  0  0
  -22.7369   12.2280   17.6183 H   0  0  0  0  0  0  0  0  0  0  0  0
  -21.4091   14.0070   20.0073 H   0  0  0  0  0  0  0  0  0  0  0  0
  -22.0121   13.2885   22.2286 H   0  0  0  0  0  0  0  0  0  0  0  0
  -18.2986   11.9342   21.3275 H   0  0  0  0  0  0  0  0  0  0  0  0
  -18.8763   14.2548   18.4371 H   0  0  0  0  0  0  0  0  0  0  0  0
  -16.1664   12.9951   19.2268 H   0  0  0  0  0  0  0  0  0  0  0  0
  -16.8183   13.1042   17.6300 H   0  0  0  0  0  0  0  0  0  0  0  0
  -15.0660   15.1213   18.6067 H   0  0  0  0  0  0  0  0  0  0  0  0
  -16.3574   15.6218   17.5245 H   0  0  0  0  0  0  0  0  0  0  0  0
  -16.0694   16.0750   20.4379 H   0  0  0  0  0  0  0  0  0  0  0  0
  -17.2132   16.8482   19.3489 H   0  0  0  0  0  0  0  0  0  0  0  0
  -17.6557   14.4265   21.8477 H   0  0  0  0  0  0  0  0  0  0  0  0
  -18.1879   15.7053   23.1288 H   0  0  0  0  0  0  0  0  0  0  0  0
  -20.3860   14.5896   22.3327 H   0  0  0  0  0  0  0  0  0  0  0  0
  -18.2761   12.7360   23.0632 H   0  0  0  0  0  0  0  0  0  0  0  0
  -18.8034   14.2665   23.9417 H   0  0  0  0  0  0  0  0  0  0  0  0
  -20.6420   12.4185   22.9957 H   0  0  0  0  0  0  0  0  0  0  0  0
  -19.8429   10.8097   23.3212 H   0  0  0  0  0  0  0  0  0  0  0  0
  -19.2181   11.3364   25.0149 H   0  0  0  0  0  0  0  0  0  0  0  0
  -21.3296    9.7833   24.2574 H   0  0  0  0  0  0  0  0  0  0  0  0
  -20.5893   10.3377   25.8884 H   0  0  0  0  0  0  0  0  0  0  0  0
  -23.0457   10.7375   24.7834 H   0  0  0  0  0  0  0  0  0  0  0  0
  -22.1808   11.2420   26.3888 H   0  0  0  0  0  0  0  0  0  0  0  0
  -23.3224   12.7148   24.4117 H   0  0  0  0  0  0  0  0  0  0  0  0
  -22.4557   13.0852   26.0292 H   0  0  0  0  0  0  0  0  0  0  0  0
  -21.1010   14.1625   25.0477 H   0  0  0  0  0  0  0  0  0  0  0  0
  -21.8688   13.6284   23.4167 H   0  0  0  0  0  0  0  0  0  0  0  0
  1  2  1  0
  2  3  1  0
  3  4  1  0
  3  5  1  0
  5  6  1  0
  6  7  1  0
  4  8  1  0
  7  8  1  0
  8  9  1  0
  9 10  1  0
  4 11  1  0
 10 11  1  0
 11 12  1  0
  2 13  1  0
 12 13  1  0
 13 14  1  0
 14 15  1  0
 14 16  1  0
  1 17  1  0
 16 17  1  0
 17 18  1  0
 18 19  1  0
 18 20  1  0
 21 20  1  1
 21 22  1  0
 21 23  1  0
 21 24  1  0
 24 25  1  0
 24 26  1  0
 23 27  1  0
 26 27  1  0
 27 28  1  1
 27 29  1  0
 29 30  1  0
 30 31  1  0
 31 32  1  0
 29 33  1  0
 32 33  1  0
 33 34  1  0
 34 35  1  0
 26 36  1  0
 34 36  1  0
 36 37  1  0
 37 38  1  0
 38 39  1  0
 39 40  1  0
 40 41  1  0
 41 42  1  0
 38 43  1  0
 42 43  1  0
  1 44  1  0
  1 45  1  0
  2 46  1  6
  3 47  1  1
  4 48  1  6
  5 49  1  0
  5 50  1  0
  6 51  1  0
  6 52  1  0
  7 53  1  0
  7 54  1  0
  8 55  1  0
  9 56  1  0
 10 57  1  0
 10 58  1  0
 11 59  1  0
 12 60  1  0
 12 61  1  0
 13 62  1  1
 15 63  1  0
 15 64  1  0
 15 65  1  0
 16 66  1  0
 16 67  1  0
 17 68  1  6
 18 69  1  0
 19 70  1  0
 20 71  1  0
 22 72  1  0
 22 73  1  0
 22 74  1  0
 24 75  1  0
 25 76  1  0
 28 77  1  0
 29 78  1  6
 30 79  1  0
 30 80  1  0
 31 81  1  0
 31 82  1  0
 32 83  1  0
 32 84  1  0
 34 85  1  0
 35 86  1  0
 36 87  1  1
 37 88  1  0
 37 89  1  0
 38 90  1  6
 39 91  1  0
 39 92  1  0
 40 93  1  0
 40 94  1  0
 41 95  1  0
 41 96  1  0
 42 97  1  0
 42 98  1  0
 43 99  1  0
 43100  1  0
M  END
>  <PDBID>  (1) 
4IAQ

>  <PDB ID>  (1) 
4IAQ

>  <Generic Name>  (1) 
Dihydroergotamine

>  <Brand Name>  (1) 
D.H.E. 45#Dihydroergotamine (dhe), 1mg/ml#Dihydroergotamine Mesylate#Dihydroergotamine Mesylate Injection USP#Migranal#Migranal Nasal Spray 4mg/ml#PMS-dihydroergotamine#Dihydergot#Ergont#Ergotonin#Ikaran#Orstanorm#Verladyn

>  <DrugBank ID>  (1) 
DB00320

>  <ATC Codes>  (1) 
N02CA01#N02CA51

>  <Ligand ID>  (1) 
2GM

>  <Target Name>  (1) 
5-hydroxytryptamine receptor 1D

>  <UniProt ID>  (1) 
P28221

>  <PDB ID.1>  (1) 
4IAQ

>  <Seq. Identity>  (1) 
55%

$$$$
