PDB_DB00841_96
     RDKit          3D

 45 46  0  0  0  0  0  0  0  0999 V2000
   19.1340  -13.6700   17.4500 O   0  0  0  0  0  0  0  0  0  0  0  0
   17.8230  -13.3350   17.4550 C   0  0  0  0  0  0  0  0  0  0  0  0
   17.2050  -13.0090   16.2540 C   0  0  0  0  0  0  0  0  0  0  0  0
   15.8570  -12.6640   16.2310 C   0  0  0  0  0  0  0  0  0  0  0  0
   17.1060  -13.3260   18.6440 C   0  0  0  0  0  0  0  0  0  0  0  0
   15.7510  -12.9750   18.6300 C   0  0  0  0  0  0  0  0  0  0  0  0
   15.1290  -12.6450   17.4210 C   0  0  0  0  0  0  0  0  0  0  0  0
   13.6730  -12.2560   17.3700 C   0  0  0  0  0  0  0  0  0  0  0  0
   12.8230  -13.4060   17.8610 C   0  0  0  0  0  0  0  0  0  0  0  0
   11.3440  -13.1370   17.6730 C   0  0  1  0  0  0  0  0  0  0  0  0
   10.6410  -14.4870   17.6280 C   0  0  0  0  0  0  0  0  0  0  0  0
   10.8430  -12.3160   18.7750 N   0  0  0  0  0  0  0  0  0  0  0  0
    9.5330  -11.6930   18.7570 C   0  0  0  0  0  0  0  0  0  0  0  0
    9.3420  -10.7360   19.9350 C   0  0  0  0  0  0  0  0  0  0  0  0
    7.8970  -10.2690   19.9950 C   0  0  0  0  0  0  0  0  0  0  0  0
    7.3320   -9.6850   18.8550 C   0  0  0  0  0  0  0  0  0  0  0  0
    6.0110   -9.2630   18.8760 C   0  0  0  0  0  0  0  0  0  0  0  0
    5.4340   -8.6920   17.7910 O   0  0  0  0  0  0  0  0  0  0  0  0
    5.2260   -9.4370   20.1170 C   0  0  0  0  0  0  0  0  0  0  0  0
    3.9430   -9.0150   20.1110 O   0  0  0  0  0  0  0  0  0  0  0  0
    5.8150  -10.0220   21.2460 C   0  0  0  0  0  0  0  0  0  0  0  0
    7.1470  -10.4340   21.1700 C   0  0  0  0  0  0  0  0  0  0  0  0
   19.5882  -13.9047   18.2978 H   0  0  0  0  0  0  0  0  0  0  0  0
   17.7832  -13.0237   15.3183 H   0  0  0  0  0  0  0  0  0  0  0  0
   15.3681  -12.4076   15.2796 H   0  0  0  0  0  0  0  0  0  0  0  0
   17.5993  -13.5928   19.5903 H   0  0  0  0  0  0  0  0  0  0  0  0
   15.1763  -12.9587   19.5678 H   0  0  0  0  0  0  0  0  0  0  0  0
   13.5061  -11.3777   18.0109 H   0  0  0  0  0  0  0  0  0  0  0  0
   13.3959  -12.0136   16.3335 H   0  0  0  0  0  0  0  0  0  0  0  0
   13.0935  -14.3128   17.3001 H   0  0  0  0  0  0  0  0  0  0  0  0
   13.0118  -13.5338   18.9371 H   0  0  0  0  0  0  0  0  0  0  0  0
   11.1549  -12.5843   16.7409 H   0  0  0  0  0  0  0  0  0  0  0  0
   10.4576  -14.8393   18.6538 H   0  0  0  0  0  0  0  0  0  0  0  0
    9.6822  -14.3837   17.0988 H   0  0  0  0  0  0  0  0  0  0  0  0
   11.2754  -15.2133   17.0988 H   0  0  0  0  0  0  0  0  0  0  0  0
   10.8604  -12.9187   19.6101 H   0  0  0  0  0  0  0  0  0  0  0  0
    9.4196  -11.1298   17.8189 H   0  0  0  0  0  0  0  0  0  0  0  0
    8.7760  -12.4872   18.8359 H   0  0  0  0  0  0  0  0  0  0  0  0
    9.5965  -11.2548   20.8710 H   0  0  0  0  0  0  0  0  0  0  0  0
    9.9987   -9.8636   19.8021 H   0  0  0  0  0  0  0  0  0  0  0  0
    7.9352   -9.5610   17.9435 H   0  0  0  0  0  0  0  0  0  0  0  0
    4.4893   -8.3985   17.8296 H   0  0  0  0  0  0  0  0  0  0  0  0
    3.3854   -9.1144   20.9230 H   0  0  0  0  0  0  0  0  0  0  0  0
    5.2393  -10.1541   22.1740 H   0  0  0  0  0  0  0  0  0  0  0  0
    7.6184  -10.8975   22.0492 H   0  0  0  0  0  0  0  0  0  0  0  0
  1  2  1  0
  2  3  2  0
  3  4  1  0
  2  5  1  0
  5  6  2  0
  4  7  2  0
  6  7  1  0
  7  8  1  0
  8  9  1  0
  9 10  1  0
 10 11  1  0
 10 12  1  0
 12 13  1  0
 13 14  1  0
 14 15  1  0
 15 16  2  0
 16 17  1  0
 17 18  1  0
 17 19  2  0
 19 20  1  0
 19 21  1  0
 15 22  1  0
 21 22  2  0
  1 23  1  0
  3 24  1  0
  4 25  1  0
  5 26  1  0
  6 27  1  0
  8 28  1  0
  8 29  1  0
  9 30  1  0
  9 31  1  0
 10 32  1  6
 11 33  1  0
 11 34  1  0
 11 35  1  0
 12 36  1  0
 13 37  1  0
 13 38  1  0
 14 39  1  0
 14 40  1  0
 16 41  1  0
 18 42  1  0
 20 43  1  0
 21 44  1  0
 22 45  1  0
M  END
$$$$
