PDB_DB00302_99
     RDKit          3D

 56 56  0  0  0  0  0  0  0  0999 V2000
   21.9090   -3.5670   40.8230 C   0  0  2  0  0  0  0  0  0  0  0  0
   22.0520   -2.2980   40.0920 C   0  0  0  0  0  0  0  0  0  0  0  0
   20.7430   -1.6000   39.9020 C   0  0  0  0  0  0  0  0  0  0  0  0
   19.8410   -1.6570   41.0620 C   0  0  2  0  0  0  0  0  0  0  0  0
   19.7300   -2.9920   41.7890 C   0  0  0  0  0  0  0  0  0  0  0  0
   21.0410   -3.6860   42.0220 C   0  0  0  0  0  0  0  0  0  0  0  0
   18.3710   -1.0160   40.8590 C   0  0  0  0  0  0  0  0  0  0  0  0
   23.0010   -4.6150   40.7470 C   0  0  0  0  0  0  0  0  0  0  0  0
   18.1280   -0.5020   42.1640 N   0  0  0  0  0  0  0  0  0  0  0  0
   24.2000   -4.4640   40.9570 O   0  0  0  0  0  0  0  0  0  0  0  0
   22.5780   -5.7630   40.3660 O   0  0  0  0  0  0  0  0  0  0  0  0
   21.5410  -22.3320   40.0090 C   0  0  2  0  0  0  0  0  0  0  0  0
   21.7240  -23.6620   40.7340 C   0  0  0  0  0  0  0  0  0  0  0  0
   20.4080  -24.2210   41.0190 C   0  0  0  0  0  0  0  0  0  0  0  0
   19.6170  -24.3840   39.7850 C   0  0  2  0  0  0  0  0  0  0  0  0
   19.4300  -23.0310   38.9900 C   0  0  0  0  0  0  0  0  0  0  0  0
   20.8200  -22.4410   38.6770 C   0  0  0  0  0  0  0  0  0  0  0  0
   18.1250  -24.9230   40.2490 C   0  0  0  0  0  0  0  0  0  0  0  0
   22.8460  -21.5350   40.0410 C   0  0  0  0  0  0  0  0  0  0  0  0
   17.6350  -25.1660   38.9020 N   0  0  0  0  0  0  0  0  0  0  0  0
   23.9610  -21.8130   39.5720 O   0  0  0  0  0  0  0  0  0  0  0  0
   22.8810  -20.3990   40.6280 O   0  0  0  0  0  0  0  0  0  0  0  0
   21.1987   -3.8433   40.0298 H   0  0  0  0  0  0  0  0  0  0  0  0
   22.7256   -1.6379   40.6582 H   0  0  0  0  0  0  0  0  0  0  0  0
   22.4576   -2.5282   39.0957 H   0  0  0  0  0  0  0  0  0  0  0  0
   20.9480   -0.5425   39.6793 H   0  0  0  0  0  0  0  0  0  0  0  0
   20.2283   -2.1235   39.0828 H   0  0  0  0  0  0  0  0  0  0  0  0
   20.4028   -0.9859   41.7283 H   0  0  0  0  0  0  0  0  0  0  0  0
   19.2580   -2.8126   42.7662 H   0  0  0  0  0  0  0  0  0  0  0  0
   19.1376   -3.6532   41.1395 H   0  0  0  0  0  0  0  0  0  0  0  0
   20.8559   -4.7499   42.2315 H   0  0  0  0  0  0  0  0  0  0  0  0
   21.5473   -3.2152   42.8776 H   0  0  0  0  0  0  0  0  0  0  0  0
   18.3775   -0.2171   40.1029 H   0  0  0  0  0  0  0  0  0  0  0  0
   17.6098   -1.7223   40.4961 H   0  0  0  0  0  0  0  0  0  0  0  0
   23.1569   -4.3755   39.6848 H   0  0  0  0  0  0  0  0  0  0  0  0
   18.4499   -1.1829   42.8666 H   0  0  0  0  0  0  0  0  0  0  0  0
   18.6394    0.3838   42.2848 H   0  0  0  0  0  0  0  0  0  0  0  0
   24.3640   -4.4433   41.9331 H   0  0  0  0  0  0  0  0  0  0  0  0
   22.3731   -6.3190   41.1591 H   0  0  0  0  0  0  0  0  0  0  0  0
   20.8161  -21.7177   40.5633 H   0  0  0  0  0  0  0  0  0  0  0  0
   22.2916  -24.3563   40.0970 H   0  0  0  0  0  0  0  0  0  0  0  0
   22.2772  -23.5059   41.6718 H   0  0  0  0  0  0  0  0  0  0  0  0
   20.5320  -25.2036   41.4977 H   0  0  0  0  0  0  0  0  0  0  0  0
   19.8732  -23.5284   41.6856 H   0  0  0  0  0  0  0  0  0  0  0  0
   20.1442  -25.0807   39.1167 H   0  0  0  0  0  0  0  0  0  0  0  0
   18.8912  -23.2256   38.0509 H   0  0  0  0  0  0  0  0  0  0  0  0
   18.8501  -22.3192   39.5958 H   0  0  0  0  0  0  0  0  0  0  0  0
   20.7180  -21.4476   38.2157 H   0  0  0  0  0  0  0  0  0  0  0  0
   21.3756  -23.0747   37.9700 H   0  0  0  0  0  0  0  0  0  0  0  0
   18.1725  -25.8385   40.8570 H   0  0  0  0  0  0  0  0  0  0  0  0
   17.5266  -24.2612   40.8924 H   0  0  0  0  0  0  0  0  0  0  0  0
   23.1218  -22.0245   40.9867 H   0  0  0  0  0  0  0  0  0  0  0  0
   16.7132  -25.6231   38.9492 H   0  0  0  0  0  0  0  0  0  0  0  0
   17.5487  -24.2701   38.4012 H   0  0  0  0  0  0  0  0  0  0  0  0
   24.5997  -21.9722   40.3115 H   0  0  0  0  0  0  0  0  0  0  0  0
   22.8768  -20.5341   41.6087 H   0  0  0  0  0  0  0  0  0  0  0  0
  1  2  1  0
  2  3  1  0
  3  4  1  0
  4  5  1  0
  1  6  1  0
  5  6  1  0
  4  7  1  0
  1  8  1  0
  7  9  1  0
  8 10  1  0
  8 11  1  0
 12 13  1  0
 13 14  1  0
 14 15  1  0
 15 16  1  0
 12 17  1  0
 16 17  1  0
 15 18  1  0
 12 19  1  0
 18 20  1  0
 19 21  1  0
 19 22  1  0
  1 23  1  6
  2 24  1  0
  2 25  1  0
  3 26  1  0
  3 27  1  0
  4 28  1  1
  5 29  1  0
  5 30  1  0
  6 31  1  0
  6 32  1  0
  7 33  1  0
  7 34  1  0
  8 35  1  0
  9 36  1  0
  9 37  1  0
 10 38  1  0
 11 39  1  0
 12 40  1  1
 13 41  1  0
 13 42  1  0
 14 43  1  0
 14 44  1  0
 15 45  1  6
 16 46  1  0
 16 47  1  0
 17 48  1  0
 17 49  1  0
 18 50  1  0
 18 51  1  0
 19 52  1  0
 20 53  1  0
 20 54  1  0
 21 55  1  0
 22 56  1  0
M  END
>  <PDBID>  (1) 
1CEB

>  <PDB ID>  (1) 
1CEB

>  <Generic Name>  (1) 
Tranexamic Acid

>  <Brand Name>  (1) 
Cyklokapron#Cyklokapron 100 mg/ml#Cyklokapron 500 mg#Erfa-tranexamic#Gd-tranexamic Acid#Lysteda#Pure Whitenol Serum#Tranexamic Acid#Tranexamic Acid Injection#Tranexamic Acid Injection BP#Tranexamic Acid Tablets#Tranexamic Acid Tranexamic Acid#Cyclo-F#Espercil#Femstrual#Rikavarin#Transamin#Transcam#Traxyl

>  <DrugBank ID>  (1) 
DB00302

>  <ATC Codes>  (1) 
B02AA02

>  <Ligand ID>  (1) 
AMH

>  <Target Name>  (1) 
Plasminogen

>  <UniProt ID>  (1) 
P00747

>  <PDB ID.1>  (1) 
1CEB

>  <Seq. Identity>  (1) 
100%

$$$$
