PDB_DB00685_98
     RDKit          3D

124132  0  0  0  0  0  0  0  0999 V2000
  -74.8500   -3.6600   22.0400 C   0  0  0  0  0  0  0  0  0  0  0  0
  -73.6200   -3.9530   21.4610 C   0  0  0  0  0  0  0  0  0  0  0  0
  -72.4450   -3.4960   22.0450 C   0  0  0  0  0  0  0  0  0  0  0  0
  -71.2870   -3.7600   21.5000 F   0  0  0  0  0  0  0  0  0  0  0  0
  -72.5060   -2.7570   23.2230 C   0  0  0  0  0  0  0  0  0  0  0  0
  -73.7340   -2.4730   23.7990 C   0  0  0  0  0  0  0  0  0  0  0  0
  -73.7470   -1.7490   24.9380 F   0  0  0  0  0  0  0  0  0  0  0  0
  -74.9300   -2.9220   23.2100 C   0  0  0  0  0  0  0  0  0  0  0  0
  -76.1700   -2.6530   23.7280 N   0  0  0  0  0  0  0  0  0  0  0  0
  -76.9210   -3.7270   24.0330 C   0  0  0  0  0  0  0  0  0  0  0  0
  -76.4270   -4.9670   23.8450 N   0  0  0  0  0  0  0  0  0  0  0  0
  -77.1410   -6.0730   24.1160 C   0  0  0  0  0  0  0  0  0  0  0  0
  -76.5780   -7.3980   23.9070 N   0  0  0  0  0  0  0  0  0  0  0  0
  -75.2870   -7.1170   23.3320 C   0  0  0  0  0  0  0  0  0  0  0  0
  -74.7010   -8.4660   23.0850 C   0  0  1  0  0  0  0  0  0  0  0  0
  -74.7140   -9.3930   24.2560 C   0  0  2  0  0  0  0  0  0  0  0  0
  -73.7150  -10.4990   24.3080 N   0  0  0  0  0  0  0  0  0  0  0  0
  -75.7860   -9.4770   23.2150 C   0  0  1  0  0  0  0  0  0  0  0  0
  -77.0330   -8.7130   23.4840 C   0  0  0  0  0  0  0  0  0  0  0  0
  -78.4000   -5.9480   24.6350 C   0  0  0  0  0  0  0  0  0  0  0  0
  -78.9440   -4.6830   24.8560 C   0  0  0  0  0  0  0  0  0  0  0  0
  -78.2000   -3.5540   24.5540 C   0  0  0  0  0  0  0  0  0  0  0  0
  -78.7160   -2.2690   24.7630 C   0  0  0  0  0  0  0  0  0  0  0  0
  -77.9090   -1.1790   24.4230 C   0  0  0  0  0  0  0  0  0  0  0  0
  -76.6320   -1.3970   23.8990 C   0  0  0  0  0  0  0  0  0  0  0  0
  -78.3730    0.2340   24.6160 C   0  0  0  0  0  0  0  0  0  0  0  0
  -79.5380    0.4630   25.0140 O   0  0  0  0  0  1  0  0  0  0  0  0
  -77.5620    1.1620   24.4060 O   0  0  0  0  0  0  0  0  0  0  0  0
  -79.8550   -2.1480   25.2190 O   0  0  0  0  0  0  0  0  0  0  0  0
  -79.0790   -7.0570   24.9010 F   0  0  0  0  0  0  0  0  0  0  0  0
  -75.6760   -3.9780   21.6130 H   0  0  0  0  0  0  0  0  0  0  0  0
  -73.5820   -4.4710   20.6270 H   0  0  0  0  0  0  0  0  0  0  0  0
  -71.7000   -2.4440   23.6330 H   0  0  0  0  0  0  0  0  0  0  0  0
  -74.7210   -6.6420   23.9960 H   0  0  0  0  0  0  0  0  0  0  0  0
  -75.3600   -6.6020   22.5180 H   0  0  0  0  0  0  0  0  0  0  0  0
  -74.1030   -8.6530   22.3110 H   0  0  0  0  0  0  0  0  0  0  0  0
  -74.9780   -8.9810   25.0840 H   0  0  0  0  0  0  0  0  0  0  0  0
  -73.0780  -10.3090   24.9470 H   0  0  0  0  0  0  0  0  0  0  0  0
  -73.3080  -10.5850   23.4850 H   0  0  0  0  0  0  0  0  0  0  0  0
  -75.7600  -10.2690   22.6100 H   0  0  0  0  0  0  0  0  0  0  0  0
  -77.5040   -9.1530   24.2230 H   0  0  0  0  0  0  0  0  0  0  0  0
  -77.6200   -8.6560   22.6800 H   0  0  0  0  0  0  0  0  0  0  0  0
  -79.8540   -4.5970   25.2240 H   0  0  0  0  0  0  0  0  0  0  0  0
  -76.0580   -0.6300   23.6740 H   0  0  0  0  0  0  0  0  0  0  0  0
  -89.2960   -2.6080   12.8530 C   0  0  0  0  0  0  0  0  0  0  0  0
  -90.5470   -2.8530   13.4000 C   0  0  0  0  0  0  0  0  0  0  0  0
  -91.6800   -2.3460   12.7980 C   0  0  0  0  0  0  0  0  0  0  0  0
  -92.8630   -2.5580   13.2940 F   0  0  0  0  0  0  0  0  0  0  0  0
  -91.5610   -1.5990   11.6400 C   0  0  0  0  0  0  0  0  0  0  0  0
  -90.3180   -1.3540   11.0960 C   0  0  0  0  0  0  0  0  0  0  0  0
  -90.2460   -0.6220    9.9720 F   0  0  0  0  0  0  0  0  0  0  0  0
  -89.1660   -1.8530   11.7050 C   0  0  0  0  0  0  0  0  0  0  0  0
  -87.9340   -1.6190   11.1900 N   0  0  0  0  0  0  0  0  0  0  0  0
  -87.2670   -2.6990   10.7650 C   0  0  0  0  0  0  0  0  0  0  0  0
  -87.8460   -3.9090   10.8650 N   0  0  0  0  0  0  0  0  0  0  0  0
  -87.2170   -5.0210   10.4590 C   0  0  0  0  0  0  0  0  0  0  0  0
  -87.8970   -6.2880   10.5780 N   0  0  0  0  0  0  0  0  0  0  0  0
  -89.1290   -6.0160   11.2850 C   0  0  0  0  0  0  0  0  0  0  0  0
  -89.8410   -7.3330   11.3160 C   0  0  1  0  0  0  0  0  0  0  0  0
  -90.1460   -7.9650    9.9930 C   0  0  2  0  0  0  0  0  0  0  0  0
  -91.2260   -8.9900    9.8960 N   0  0  0  0  0  0  0  0  0  0  0  0
  -88.9240   -8.3700   10.7480 C   0  0  1  0  0  0  0  0  0  0  0  0
  -87.6430   -7.6990   10.3750 C   0  0  0  0  0  0  0  0  0  0  0  0
  -85.9650   -4.9480    9.9080 C   0  0  0  0  0  0  0  0  0  0  0  0
  -85.3250   -3.7110    9.7890 C   0  0  0  0  0  0  0  0  0  0  0  0
  -85.9870   -2.5680   10.2210 C   0  0  0  0  0  0  0  0  0  0  0  0
  -85.3990   -1.3030   10.1260 C   0  0  0  0  0  0  0  0  0  0  0  0
  -86.1400   -0.2150   10.5910 C   0  0  0  0  0  0  0  0  0  0  0  0
  -87.4130   -0.3950   11.1240 C   0  0  0  0  0  0  0  0  0  0  0  0
  -85.6100    1.1750   10.5390 C   0  0  0  0  0  0  0  0  0  0  0  0
  -86.3760    2.1180   10.8520 O   0  0  0  0  0  0  0  0  0  0  0  0
  -84.4320    1.3560   10.1800 O   0  0  0  0  0  1  0  0  0  0  0  0
  -84.2690   -1.1930    9.6520 O   0  0  0  0  0  0  0  0  0  0  0  0
  -85.3870   -6.0740    9.5120 F   0  0  0  0  0  0  0  0  0  0  0  0
  -88.4920   -2.9630   13.2930 H   0  0  0  0  0  0  0  0  0  0  0  0
  -90.6270   -3.3820   14.2240 H   0  0  0  0  0  0  0  0  0  0  0  0
  -92.3450   -1.2470   11.2180 H   0  0  0  0  0  0  0  0  0  0  0  0
  -89.6770   -5.3700   10.7650 H   0  0  0  0  0  0  0  0  0  0  0  0
  -88.9640   -5.6790   12.1750 H   0  0  0  0  0  0  0  0  0  0  0  0
  -90.3100   -7.6570   12.1330 H   0  0  0  0  0  0  0  0  0  0  0  0
  -89.9910   -7.3930    9.2350 H   0  0  0  0  0  0  0  0  0  0  0  0
  -92.0460   -8.5700    9.8470 H   0  0  0  0  0  0  0  0  0  0  0  0
  -91.2030   -9.5330   10.6410 H   0  0  0  0  0  0  0  0  0  0  0  0
  -88.9440   -9.2780   11.1590 H   0  0  0  0  0  0  0  0  0  0  0  0
  -87.4720   -7.8720    9.4250 H   0  0  0  0  0  0  0  0  0  0  0  0
  -86.8790   -8.0160   10.9310 H   0  0  0  0  0  0  0  0  0  0  0  0
  -84.4210   -3.6540    9.4010 H   0  0  0  0  0  0  0  0  0  0  0  0
  -87.9270    0.3790   11.4470 H   0  0  0  0  0  0  0  0  0  0  0  0
  -74.7937   -4.5874   22.6288 H   0  0  0  0  0  0  0  0  0  0  0  0
  -73.6816   -3.0313   20.8637 H   0  0  0  0  0  0  0  0  0  0  0  0
  -72.3783   -4.4218   22.6352 H   0  0  0  0  0  0  0  0  0  0  0  0
  -72.5660   -1.8280   22.6371 H   0  0  0  0  0  0  0  0  0  0  0  0
  -73.6717   -3.3995   24.3886 H   0  0  0  0  0  0  0  0  0  0  0  0
  -74.8719   -3.8493   23.7989 H   0  0  0  0  0  0  0  0  0  0  0  0
  -77.3267   -3.7336   23.0106 H   0  0  0  0  0  0  0  0  0  0  0  0
  -76.1726   -5.0266   22.8487 H   0  0  0  0  0  0  0  0  0  0  0  0
  -77.5284   -6.0752   23.0865 H   0  0  0  0  0  0  0  0  0  0  0  0
  -77.9805   -5.9453   25.6519 H   0  0  0  0  0  0  0  0  0  0  0  0
  -78.5302   -4.6831   25.8752 H   0  0  0  0  0  0  0  0  0  0  0  0
  -78.6149   -3.5531   23.5352 H   0  0  0  0  0  0  0  0  0  0  0  0
  -78.2939   -2.2647   25.7788 H   0  0  0  0  0  0  0  0  0  0  0  0
  -77.4904   -1.1717   25.4402 H   0  0  0  0  0  0  0  0  0  0  0  0
  -77.0519   -1.4130   22.8824 H   0  0  0  0  0  0  0  0  0  0  0  0
  -78.7237    0.2612   23.5738 H   0  0  0  0  0  0  0  0  0  0  0  0
  -77.2448    1.5250   25.2707 H   0  0  0  0  0  0  0  0  0  0  0  0
  -79.8166   -2.1521   26.2082 H   0  0  0  0  0  0  0  0  0  0  0  0
  -89.3840   -3.5195   12.2436 H   0  0  0  0  0  0  0  0  0  0  0  0
  -90.4606   -1.9395   14.0067 H   0  0  0  0  0  0  0  0  0  0  0  0
  -91.7690   -3.2614   12.1945 H   0  0  0  0  0  0  0  0  0  0  0  0
  -91.4791   -0.6811   12.2406 H   0  0  0  0  0  0  0  0  0  0  0  0
  -90.4009   -2.2707   10.4937 H   0  0  0  0  0  0  0  0  0  0  0  0
  -89.2397   -2.7661   11.0961 H   0  0  0  0  0  0  0  0  0  0  0  0
  -86.8316   -2.8245   11.7673 H   0  0  0  0  0  0  0  0  0  0  0  0
  -88.0637   -4.0457   11.8624 H   0  0  0  0  0  0  0  0  0  0  0  0
  -86.7971   -5.1516   11.4673 H   0  0  0  0  0  0  0  0  0  0  0  0
  -86.4113   -4.8129    8.9117 H   0  0  0  0  0  0  0  0  0  0  0  0
  -85.7586   -3.5831    8.7862 H   0  0  0  0  0  0  0  0  0  0  0  0
  -85.5487   -2.6926   11.2222 H   0  0  0  0  0  0  0  0  0  0  0  0
  -85.8377   -1.1742    9.1255 H   0  0  0  0  0  0  0  0  0  0  0  0
  -86.5774   -0.0851    9.5901 H   0  0  0  0  0  0  0  0  0  0  0  0
  -86.9754   -0.5273   12.1245 H   0  0  0  0  0  0  0  0  0  0  0  0
  -85.9342    1.2594    9.4913 H   0  0  0  0  0  0  0  0  0  0  0  0
  -86.4307    2.1853   11.8382 H   0  0  0  0  0  0  0  0  0  0  0  0
  -83.6080   -1.1287   10.3862 H   0  0  0  0  0  0  0  0  0  0  0  0
  1  2  1  0
  2  3  1  0
  3  4  1  0
  3  5  1  0
  5  6  1  0
  6  7  1  0
  1  8  1  0
  6  8  1  0
  8  9  1  0
  9 10  1  0
 10 11  1  0
 11 12  1  0
 12 13  1  0
 13 14  1  0
 14 15  1  0
 15 16  1  0
 16 17  1  0
 15 18  1  0
 16 18  1  0
 13 19  1  0
 18 19  1  0
 12 20  1  0
 20 21  1  0
 10 22  1  0
 21 22  1  0
 22 23  1  0
 23 24  1  0
  9 25  1  0
 24 25  1  0
 24 26  1  0
 26 27  1  0
 26 28  1  0
 23 29  1  0
 20 30  1  0
  1 31  1  0
  2 32  1  0
  5 33  1  0
 14 34  1  0
 14 35  1  0
 15 36  1  6
 16 37  1  1
 17 38  1  0
 17 39  1  0
 18 40  1  6
 19 41  1  0
 19 42  1  0
 21 43  1  0
 25 44  1  0
 45 46  1  0
 46 47  1  0
 47 48  1  0
 47 49  1  0
 49 50  1  0
 50 51  1  0
 45 52  1  0
 50 52  1  0
 52 53  1  0
 53 54  1  0
 54 55  1  0
 55 56  1  0
 56 57  1  0
 57 58  1  0
 58 59  1  0
 59 60  1  0
 60 61  1  0
 59 62  1  0
 60 62  1  0
 57 63  1  0
 62 63  1  0
 56 64  1  0
 64 65  1  0
 54 66  1  0
 65 66  1  0
 66 67  1  0
 67 68  1  0
 53 69  1  0
 68 69  1  0
 68 70  1  0
 70 71  1  0
 70 72  1  0
 67 73  1  0
 64 74  1  0
 45 75  1  0
 46 76  1  0
 49 77  1  0
 58 78  1  0
 58 79  1  0
 59 80  1  1
 60 81  1  6
 61 82  1  0
 61 83  1  0
 62 84  1  1
 63 85  1  0
 63 86  1  0
 65 87  1  0
 69 88  1  0
  1 89  1  0
  2 90  1  0
  3 91  1  0
  5 92  1  0
  6 93  1  0
  8 94  1  0
 10 95  1  0
 11 96  1  0
 12 97  1  0
 20 98  1  0
 21 99  1  0
 22100  1  0
 23101  1  0
 24102  1  0
 25103  1  0
 26104  1  0
 28105  1  0
 29106  1  0
 45107  1  0
 46108  1  0
 47109  1  0
 49110  1  0
 50111  1  0
 52112  1  0
 54113  1  0
 55114  1  0
 56115  1  0
 64116  1  0
 65117  1  0
 66118  1  0
 67119  1  0
 68120  1  0
 69121  1  0
 70122  1  0
 71123  1  0
 73124  1  0
M  CHG  2  27  -1  72  -1
M  END
>  <PDBID>  (1) 
4KOE

>  <PDB ID>  (1) 
4KOE

>  <Generic Name>  (1) 
Trovafloxacin

>  <Brand Name>  (1) 
Trovan I.V.#Trovan Tablets 100mg#Trovan Tablets 200mg#Trovan

>  <DrugBank ID>  (1) 
DB00685

>  <ATC Codes>  (1) 
J01MA13

>  <Ligand ID>  (1) 
TR6

>  <Target Name>  (1) 
DNA gyrase subunit A

>  <UniProt ID>  (1) 
P43700

>  <PDB ID.1>  (1) 
4KOE

>  <Seq. Identity>  (1) 
43%

$$$$
