PDB_DB01261_99
     RDKit          3D

110114  0  0  0  0  0  0  0  0999 V2000
   34.5880   50.5400   36.7400 C   0  0  0  0  0  0  0  0  0  0  0  0
   35.9160   51.0580   36.8040 C   0  0  0  0  0  0  0  0  0  0  0  0
   37.0810   50.2570   36.5150 C   0  0  0  0  0  0  0  0  0  0  0  0
   36.8900   48.8840   36.1400 C   0  0  0  0  0  0  0  0  0  0  0  0
   35.5560   48.3630   36.0770 C   0  0  0  0  0  0  0  0  0  0  0  0
   34.4320   49.1800   36.3660 C   0  0  0  0  0  0  0  0  0  0  0  0
   35.3810   47.1130   35.7320 F   0  0  0  0  0  0  0  0  0  0  0  0
   36.0680   52.3270   37.1540 F   0  0  0  0  0  0  0  0  0  0  0  0
   38.4290   50.9030   36.6040 C   0  0  0  0  0  0  0  0  0  0  0  0
   39.0930   51.0760   35.2230 C   0  0  2  0  0  0  0  0  0  0  0  0
   40.3800   51.8310   35.4450 C   0  0  0  0  0  0  0  0  0  0  0  0
   41.5760   51.0710   36.1670 C   0  0  1  0  0  0  0  0  0  0  0  0
   42.7630   51.8390   36.4340 N   0  0  0  0  0  0  0  0  0  0  0  0
   38.2030   51.8460   34.3530 N   0  0  0  0  0  0  0  0  0  0  0  0
   41.4170   49.8850   36.5130 O   0  0  0  0  0  0  0  0  0  0  0  0
   42.9990   52.7410   35.2820 C   0  0  0  0  0  0  0  0  0  0  0  0
   44.1670   52.4110   34.3740 C   0  0  0  0  0  0  0  0  0  0  0  0
   45.3490   51.8910   35.1230 N   0  0  0  0  0  0  0  0  0  0  0  0
   45.3110   51.1800   36.2900 C   0  0  0  0  0  0  0  0  0  0  0  0
   43.9160   50.8910   36.8830 C   0  0  0  0  0  0  0  0  0  0  0  0
   46.6690   51.9620   34.8650 C   0  0  0  0  0  0  0  0  0  0  0  0
   47.3490   51.3310   35.8410 N   0  0  0  0  0  0  0  0  0  0  0  0
   46.5370   50.8670   36.6880 N   0  0  0  0  0  0  0  0  0  0  0  0
   47.3330   52.6430   33.6640 C   0  0  2  0  0  0  0  0  0  0  0  0
   48.6230   52.4720   33.7700 F   0  0  0  0  0  0  0  0  0  0  0  0
   47.0130   53.9300   33.7260 F   0  0  0  0  0  0  0  0  0  0  0  0
   46.8880   52.0850   32.5320 F   0  0  0  0  0  0  0  0  0  0  0  0
   33.2290   48.6840   36.2980 F   0  0  0  0  0  0  0  0  0  0  0  0
   -0.2730   62.7180   37.4540 C   0  0  0  0  0  0  0  0  0  0  0  0
   -1.4480   62.5910   36.6450 C   0  0  0  0  0  0  0  0  0  0  0  0
   -2.6350   63.3910   36.8730 C   0  0  0  0  0  0  0  0  0  0  0  0
   -2.6280   64.3550   37.9530 C   0  0  0  0  0  0  0  0  0  0  0  0
   -1.4600   64.4770   38.7500 C   0  0  0  0  0  0  0  0  0  0  0  0
   -0.3130   63.6740   38.5050 C   0  0  0  0  0  0  0  0  0  0  0  0
   -1.4550   65.3510   39.7200 F   0  0  0  0  0  0  0  0  0  0  0  0
   -1.4300   61.7000   35.6430 F   0  0  0  0  0  0  0  0  0  0  0  0
   -3.8100   63.2010   35.9720 C   0  0  0  0  0  0  0  0  0  0  0  0
   -4.0680   64.4360   35.0690 C   0  0  2  0  0  0  0  0  0  0  0  0
   -5.2030   64.0880   34.1360 C   0  0  0  0  0  0  0  0  0  0  0  0
   -6.6640   64.0260   34.7260 C   0  0  0  0  0  0  0  0  0  0  0  0
   -7.7320   63.6340   33.8360 N   0  0  0  0  0  0  0  0  0  0  0  0
   -2.8740   64.7380   34.2840 N   0  0  0  0  0  0  0  0  0  0  0  0
   -6.8170   64.2760   35.9200 O   0  0  0  0  0  0  0  0  0  0  0  0
   -7.4840   64.2720   32.5300 C   0  0  0  0  0  0  0  0  0  0  0  0
   -8.4230   65.4030   32.1300 C   0  0  0  0  0  0  0  0  0  0  0  0
   -9.8390   65.1130   32.4970 N   0  0  0  0  0  0  0  0  0  0  0  0
  -10.2440   64.4100   33.5870 C   0  0  0  0  0  0  0  0  0  0  0  0
   -9.1200   63.8780   34.5180 C   0  0  0  0  0  0  0  0  0  0  0  0
  -11.0060   65.4430   31.9110 C   0  0  0  0  0  0  0  0  0  0  0  0
  -12.0280   64.9510   32.6330 N   0  0  0  0  0  0  0  0  0  0  0  0
  -11.5720   64.3360   33.6290 N   0  0  0  0  0  0  0  0  0  0  0  0
  -11.1870   66.2620   30.6360 C   0  0  2  0  0  0  0  0  0  0  0  0
  -12.4740   66.3860   30.4140 F   0  0  0  0  0  0  0  0  0  0  0  0
  -10.6020   65.6030   29.6420 F   0  0  0  0  0  0  0  0  0  0  0  0
  -10.6260   67.4500   30.8230 F   0  0  0  0  0  0  0  0  0  0  0  0
    0.7230   63.7990   39.2390 F   0  0  0  0  0  0  0  0  0  0  0  0
   34.1388   50.6611   37.7368 H   0  0  0  0  0  0  0  0  0  0  0  0
   34.1039   51.1096   35.9330 H   0  0  0  0  0  0  0  0  0  0  0  0
   35.9785   50.7669   37.8629 H   0  0  0  0  0  0  0  0  0  0  0  0
   37.1392   49.9601   37.5726 H   0  0  0  0  0  0  0  0  0  0  0  0
   37.3338   48.7572   35.1415 H   0  0  0  0  0  0  0  0  0  0  0  0
   37.3575   48.3178   36.9591 H   0  0  0  0  0  0  0  0  0  0  0  0
   35.6187   48.0744   37.1366 H   0  0  0  0  0  0  0  0  0  0  0  0
   34.3761   49.4772   35.3084 H   0  0  0  0  0  0  0  0  0  0  0  0
   38.3154   51.8941   37.0675 H   0  0  0  0  0  0  0  0  0  0  0  0
   39.0751   50.2469   37.2058 H   0  0  0  0  0  0  0  0  0  0  0  0
   39.2902   50.1043   34.7467 H   0  0  0  0  0  0  0  0  0  0  0  0
   40.7449   52.1527   34.4584 H   0  0  0  0  0  0  0  0  0  0  0  0
   40.1083   52.6390   36.1401 H   0  0  0  0  0  0  0  0  0  0  0  0
   41.9836   50.7816   35.1872 H   0  0  0  0  0  0  0  0  0  0  0  0
   37.5577   52.4043   34.9298 H   0  0  0  0  0  0  0  0  0  0  0  0
   38.7627   52.4738   33.7585 H   0  0  0  0  0  0  0  0  0  0  0  0
   41.4093   49.8278   37.5013 H   0  0  0  0  0  0  0  0  0  0  0  0
   42.0882   52.7359   34.6652 H   0  0  0  0  0  0  0  0  0  0  0  0
   43.2526   53.7134   35.7295 H   0  0  0  0  0  0  0  0  0  0  0  0
   43.8454   51.6479   33.6500 H   0  0  0  0  0  0  0  0  0  0  0  0
   44.4731   53.3419   33.8743 H   0  0  0  0  0  0  0  0  0  0  0  0
   45.3603   52.1177   36.8629 H   0  0  0  0  0  0  0  0  0  0  0  0
   43.9972   50.9579   37.9780 H   0  0  0  0  0  0  0  0  0  0  0  0
   43.6390   49.8950   36.5072 H   0  0  0  0  0  0  0  0  0  0  0  0
   46.7291   52.9030   35.4315 H   0  0  0  0  0  0  0  0  0  0  0  0
   47.8979   50.5604   35.4338 H   0  0  0  0  0  0  0  0  0  0  0  0
   46.7212   51.2809   37.6130 H   0  0  0  0  0  0  0  0  0  0  0  0
   -0.0741   61.7354   37.9067 H   0  0  0  0  0  0  0  0  0  0  0  0
    0.5077   63.0797   36.7687 H   0  0  0  0  0  0  0  0  0  0  0  0
   -1.8355   61.8212   37.3286 H   0  0  0  0  0  0  0  0  0  0  0  0
   -3.0202   62.6236   37.5605 H   0  0  0  0  0  0  0  0  0  0  0  0
   -2.8204   65.3421   37.5072 H   0  0  0  0  0  0  0  0  0  0  0  0
   -3.3900   63.9790   38.6516 H   0  0  0  0  0  0  0  0  0  0  0  0
   -1.8491   63.7115   39.4374 H   0  0  0  0  0  0  0  0  0  0  0  0
    0.0785   64.4418   37.8215 H   0  0  0  0  0  0  0  0  0  0  0  0
   -3.6257   62.3266   35.3306 H   0  0  0  0  0  0  0  0  0  0  0  0
   -4.6982   63.0564   36.6047 H   0  0  0  0  0  0  0  0  0  0  0  0
   -4.3166   65.3140   35.6832 H   0  0  0  0  0  0  0  0  0  0  0  0
   -5.2075   64.8406   33.3338 H   0  0  0  0  0  0  0  0  0  0  0  0
   -4.9917   63.0541   33.8256 H   0  0  0  0  0  0  0  0  0  0  0  0
   -6.8203   65.0792   34.4497 H   0  0  0  0  0  0  0  0  0  0  0  0
   -2.0873   64.9370   34.9184 H   0  0  0  0  0  0  0  0  0  0  0  0
   -2.6401   63.9297   33.6900 H   0  0  0  0  0  0  0  0  0  0  0  0
   -6.3849   63.5699   36.4630 H   0  0  0  0  0  0  0  0  0  0  0  0
   -6.4618   64.6779   32.5464 H   0  0  0  0  0  0  0  0  0  0  0  0
   -7.6529   63.4801   31.7855 H   0  0  0  0  0  0  0  0  0  0  0  0
   -8.1059   66.3244   32.6403 H   0  0  0  0  0  0  0  0  0  0  0  0
   -8.3725   65.5145   31.0368 H   0  0  0  0  0  0  0  0  0  0  0  0
  -10.2006   63.4790   33.0027 H   0  0  0  0  0  0  0  0  0  0  0  0
   -9.4591   62.9228   34.9454 H   0  0  0  0  0  0  0  0  0  0  0  0
   -8.9519   64.6669   35.2660 H   0  0  0  0  0  0  0  0  0  0  0  0
  -10.9737   64.5137   31.3234 H   0  0  0  0  0  0  0  0  0  0  0  0
  -12.6288   65.7247   32.9513 H   0  0  0  0  0  0  0  0  0  0  0  0
  -11.8681   63.3500   33.5963 H   0  0  0  0  0  0  0  0  0  0  0  0
  1  2  1  0
  2  3  1  0
  3  4  1  0
  4  5  1  0
  1  6  1  0
  5  6  1  0
  5  7  1  0
  2  8  1  0
  3  9  1  0
  9 10  1  0
 10 11  1  0
 11 12  1  0
 12 13  1  0
 10 14  1  0
 12 15  1  0
 13 16  1  0
 16 17  1  0
 17 18  1  0
 18 19  1  0
 13 20  1  0
 19 20  1  0
 18 21  1  0
 21 22  1  0
 19 23  1  0
 22 23  1  0
 21 24  1  0
 24 25  1  1
 24 26  1  0
 24 27  1  0
  6 28  1  0
 29 30  1  0
 30 31  1  0
 31 32  1  0
 32 33  1  0
 29 34  1  0
 33 34  1  0
 33 35  1  0
 30 36  1  0
 31 37  1  0
 37 38  1  0
 38 39  1  0
 39 40  1  0
 40 41  1  0
 38 42  1  0
 40 43  1  0
 41 44  1  0
 44 45  1  0
 45 46  1  0
 46 47  1  0
 41 48  1  0
 47 48  1  0
 46 49  1  0
 49 50  1  0
 47 51  1  0
 50 51  1  0
 49 52  1  0
 52 53  1  6
 52 54  1  0
 52 55  1  0
 34 56  1  0
  1 57  1  0
  1 58  1  0
  2 59  1  0
  3 60  1  0
  4 61  1  0
  4 62  1  0
  5 63  1  0
  6 64  1  0
  9 65  1  0
  9 66  1  0
 10 67  1  6
 11 68  1  0
 11 69  1  0
 12 70  1  6
 14 71  1  0
 14 72  1  0
 15 73  1  0
 16 74  1  0
 16 75  1  0
 17 76  1  0
 17 77  1  0
 19 78  1  0
 20 79  1  0
 20 80  1  0
 21 81  1  0
 22 82  1  0
 23 83  1  0
 29 84  1  0
 29 85  1  0
 30 86  1  0
 31 87  1  0
 32 88  1  0
 32 89  1  0
 33 90  1  0
 34 91  1  0
 37 92  1  0
 37 93  1  0
 38 94  1  1
 39 95  1  0
 39 96  1  0
 40 97  1  0
 42 98  1  0
 42 99  1  0
 43100  1  0
 44101  1  0
 44102  1  0
 45103  1  0
 45104  1  0
 47105  1  0
 48106  1  0
 48107  1  0
 49108  1  0
 50109  1  0
 51110  1  0
M  END
>  <PDBID>  (1) 
1X70

>  <PDB ID>  (1) 
1X70

>  <Generic Name>  (1) 
Sitagliptin

>  <Brand Name>  (1) 
Janumet#Janumet XR#Januvia#Xelevia

>  <DrugBank ID>  (1) 
DB01261

>  <ATC Codes>  (1) 
A10BD12#A10BH51#A10BH01#A10BD07

>  <Ligand ID>  (1) 
715

>  <Target Name>  (1) 
Dipeptidyl peptidase 4

>  <UniProt ID>  (1) 
P27487

>  <PDB ID.1>  (1) 
1X70

>  <Seq. Identity>  (1) 
100%

$$$$
