PDB_DB00755_91
     RDKit          3D

 50 50  0  0  0  0  0  0  0  0999 V2000
   61.5170   65.2820  113.6760 C   0  0  0  0  0  0  0  0  0  0  0  0
   62.8660   66.0640  113.4520 C   0  0  0  0  0  0  0  0  0  0  0  0
   63.3000   67.0380  114.5180 C   0  0  0  0  0  0  0  0  0  0  0  0
   62.2000   67.9810  114.9200 C   0  0  0  0  0  0  0  0  0  0  0  0
   60.9060   67.2390  115.3200 C   0  0  0  0  0  0  0  0  0  0  0  0
   60.5730   65.9990  114.7730 C   0  0  0  0  0  0  0  0  0  0  0  0
   59.3410   65.2110  115.1160 C   0  0  0  0  0  0  0  0  0  0  0  0
   58.8880   64.8140  116.3190 C   0  0  0  0  0  0  0  0  0  0  0  0
   57.6720   64.0520  116.6140 C   0  0  0  0  0  0  0  0  0  0  0  0
   57.3680   63.7600  117.9270 C   0  0  0  0  0  0  0  0  0  0  0  0
   58.1660   64.1240  119.1020 C   0  0  0  0  0  0  0  0  0  0  0  0
   57.7020   63.8240  120.3290 C   0  0  0  0  0  0  0  0  0  0  0  0
   58.3950   64.1520  121.5740 C   0  0  0  0  0  0  0  0  0  0  0  0
   57.7640   63.8310  122.7450 C   0  0  0  0  0  0  0  0  0  0  0  0
   58.1560   64.0650  124.1650 C   0  0  0  0  0  0  0  0  0  0  0  0
   61.9020   63.8510  114.1070 C   0  0  0  0  0  0  0  0  0  0  0  0
   60.7570   65.2230  112.3140 C   0  0  0  0  0  0  0  0  0  0  0  0
   60.1300   68.0730  116.3560 C   0  0  0  0  0  0  0  0  0  0  0  0
   56.7330   63.6060  115.4680 C   0  0  0  0  0  0  0  0  0  0  0  0
   59.7650   64.8710  121.5170 C   0  0  0  0  0  0  0  0  0  0  0  0
   57.2330   64.1950  125.0150 O   0  0  0  0  0  0  0  0  0  0  0  0
   59.3680   64.1680  124.4950 O   0  0  0  0  0  0  0  0  0  0  0  0
   63.6653   65.3156  113.3465 H   0  0  0  0  0  0  0  0  0  0  0  0
   62.6800   66.6885  112.5657 H   0  0  0  0  0  0  0  0  0  0  0  0
   63.6198   66.4709  115.4046 H   0  0  0  0  0  0  0  0  0  0  0  0
   64.1220   67.6408  114.1047 H   0  0  0  0  0  0  0  0  0  0  0  0
   62.5433   68.5796  115.7766 H   0  0  0  0  0  0  0  0  0  0  0  0
   61.9682   68.6158  114.0520 H   0  0  0  0  0  0  0  0  0  0  0  0
   58.7185   64.9155  114.2586 H   0  0  0  0  0  0  0  0  0  0  0  0
   59.5048   65.0954  117.1853 H   0  0  0  0  0  0  0  0  0  0  0  0
   56.4386   63.2009  118.1103 H   0  0  0  0  0  0  0  0  0  0  0  0
   59.1321   64.6360  118.9820 H   0  0  0  0  0  0  0  0  0  0  0  0
   56.7387   63.2978  120.4000 H   0  0  0  0  0  0  0  0  0  0  0  0
   56.8030   63.3113  122.6172 H   0  0  0  0  0  0  0  0  0  0  0  0
   61.9182   63.7907  115.2052 H   0  0  0  0  0  0  0  0  0  0  0  0
   61.1638   63.1378  113.7115 H   0  0  0  0  0  0  0  0  0  0  0  0
   62.8984   63.6045  113.7115 H   0  0  0  0  0  0  0  0  0  0  0  0
   59.6762   65.1391  112.5005 H   0  0  0  0  0  0  0  0  0  0  0  0
   60.9601   66.1396  111.7408 H   0  0  0  0  0  0  0  0  0  0  0  0
   61.0991   64.3487  111.7408 H   0  0  0  0  0  0  0  0  0  0  0  0
   60.4205   67.7608  117.3700 H   0  0  0  0  0  0  0  0  0  0  0  0
   60.3651   69.1388  116.2191 H   0  0  0  0  0  0  0  0  0  0  0  0
   59.0500   67.9152  116.2191 H   0  0  0  0  0  0  0  0  0  0  0  0
   55.8166   63.1707  115.8932 H   0  0  0  0  0  0  0  0  0  0  0  0
   56.4721   64.4764  114.8480 H   0  0  0  0  0  0  0  0  0  0  0  0
   57.2427   62.8538  114.8480 H   0  0  0  0  0  0  0  0  0  0  0  0
   60.1233   65.0590  122.5399 H   0  0  0  0  0  0  0  0  0  0  0  0
   60.4899   64.2371  120.9853 H   0  0  0  0  0  0  0  0  0  0  0  0
   59.6552   65.8277  120.9853 H   0  0  0  0  0  0  0  0  0  0  0  0
   59.6117   64.3233  125.4419 H   0  0  0  0  0  0  0  0  0  0  0  0
  1  2  1  0
  2  3  1  0
  3  4  1  0
  4  5  1  0
  1  6  1  0
  5  6  2  0
  6  7  1  0
  7  8  2  0
  8  9  1  0
  9 10  2  0
 10 11  1  0
 11 12  2  0
 12 13  1  0
 13 14  2  0
 14 15  1  0
  1 16  1  0
  1 17  1  0
  5 18  1  0
  9 19  1  0
 13 20  1  0
 15 21  2  0
 15 22  1  0
  2 23  1  0
  2 24  1  0
  3 25  1  0
  3 26  1  0
  4 27  1  0
  4 28  1  0
  7 29  1  0
  8 30  1  0
 10 31  1  0
 11 32  1  0
 12 33  1  0
 14 34  1  0
 16 35  1  0
 16 36  1  0
 16 37  1  0
 17 38  1  0
 17 39  1  0
 17 40  1  0
 18 41  1  0
 18 42  1  0
 18 43  1  0
 19 44  1  0
 19 45  1  0
 19 46  1  0
 20 47  1  0
 20 48  1  0
 20 49  1  0
 22 50  1  0
M  END
$$$$
