PDB_DB00523_99
     RDKit          3D

 62 62  0  0  0  0  0  0  0  0999 V2000
   67.1340   46.8800   32.2710 C   0  0  2  0  0  0  0  0  0  0  0  0
   67.3710   45.8710   33.3970 C   0  0  0  0  0  0  0  0  0  0  0  0
   66.5680   46.2470   34.6450 C   0  0  0  0  0  0  0  0  0  0  0  0
   65.0690   46.1840   34.3480 C   0  0  0  0  0  0  0  0  0  0  0  0
   64.7730   46.9430   33.0540 C   0  0  1  0  0  0  0  0  0  0  0  0
   65.6340   46.9170   31.9610 C   0  0  1  0  0  0  0  0  0  0  0  0
   65.1970   47.1340   30.6580 C   0  0  0  0  0  0  0  0  0  0  0  0
   63.8520   47.1290   30.3020 C   0  0  0  0  0  0  0  0  0  0  0  0
   63.4820   47.3760   28.9840 C   0  0  0  0  0  0  0  0  0  0  0  0
   62.1510   47.3370   28.5810 C   0  0  0  0  0  0  0  0  0  0  0  0
   61.1050   47.0220   29.4410 C   0  0  0  0  0  0  0  0  0  0  0  0
   59.8110   47.0190   28.9300 C   0  0  0  0  0  0  0  0  0  0  0  0
   58.6930   46.7030   29.6950 C   0  0  0  0  0  0  0  0  0  0  0  0
   57.4420   46.7500   29.0890 C   0  0  0  0  0  0  0  0  0  0  0  0
   56.2640   46.4540   29.7670 C   0  0  0  0  0  0  0  0  0  0  0  0
   67.9010   46.4490   31.0190 C   0  0  0  0  0  0  0  0  0  0  0  0
   67.5960   48.2670   32.7210 C   0  0  0  0  0  0  0  0  0  0  0  0
   63.5410   47.8520   33.0270 C   0  0  0  0  0  0  0  0  0  0  0  0
   64.5570   47.7190   27.9510 C   0  0  0  0  0  0  0  0  0  0  0  0
   58.8470   46.2590   31.1510 C   0  0  0  0  0  0  0  0  0  0  0  0
   55.2360   47.0850   29.4360 O   0  0  0  0  0  0  0  0  0  0  0  0
   56.2800   45.5540   30.6340 O   0  0  0  0  0  0  0  0  0  0  0  0
   67.0609   44.8720   33.0566 H   0  0  0  0  0  0  0  0  0  0  0  0
   68.4408   45.8746   33.6530 H   0  0  0  0  0  0  0  0  0  0  0  0
   66.8074   45.5440   35.4565 H   0  0  0  0  0  0  0  0  0  0  0  0
   66.8313   47.2718   34.9457 H   0  0  0  0  0  0  0  0  0  0  0  0
   64.7614   45.1339   34.2356 H   0  0  0  0  0  0  0  0  0  0  0  0
   64.5114   46.6429   35.1778 H   0  0  0  0  0  0  0  0  0  0  0  0
   65.3014   47.8231   33.4493 H   0  0  0  0  0  0  0  0  0  0  0  0
   65.3268   45.9171   31.6206 H   0  0  0  0  0  0  0  0  0  0  0  0
   65.5841   48.1221   30.3684 H   0  0  0  0  0  0  0  0  0  0  0  0
   65.5645   46.2313   30.1479 H   0  0  0  0  0  0  0  0  0  0  0  0
   63.4581   46.1354   30.5619 H   0  0  0  0  0  0  0  0  0  0  0  0
   63.4423   47.9925   30.8465 H   0  0  0  0  0  0  0  0  0  0  0  0
   63.5827   46.3048   28.7550 H   0  0  0  0  0  0  0  0  0  0  0  0
   61.9256   48.3382   28.1850 H   0  0  0  0  0  0  0  0  0  0  0  0
   62.1516   46.4656   27.9097 H   0  0  0  0  0  0  0  0  0  0  0  0
   61.3012   46.0150   29.8377 H   0  0  0  0  0  0  0  0  0  0  0  0
   61.1043   47.8377   30.1790 H   0  0  0  0  0  0  0  0  0  0  0  0
   59.6360   48.0338   28.5433 H   0  0  0  0  0  0  0  0  0  0  0  0
   59.8510   46.1652   28.2376 H   0  0  0  0  0  0  0  0  0  0  0  0
   58.5925   47.7595   29.9845 H   0  0  0  0  0  0  0  0  0  0  0  0
   57.3256   47.7766   28.7115 H   0  0  0  0  0  0  0  0  0  0  0  0
   57.5070   45.9111   28.3805 H   0  0  0  0  0  0  0  0  0  0  0  0
   56.4988   47.2277   30.5128 H   0  0  0  0  0  0  0  0  0  0  0  0
   68.8245   45.9300   31.3153 H   0  0  0  0  0  0  0  0  0  0  0  0
   67.2749   45.7706   30.4209 H   0  0  0  0  0  0  0  0  0  0  0  0
   68.1549   47.3366   30.4209 H   0  0  0  0  0  0  0  0  0  0  0  0
   67.6103   48.3100   33.8201 H   0  0  0  0  0  0  0  0  0  0  0  0
   68.6071   48.4604   32.3333 H   0  0  0  0  0  0  0  0  0  0  0  0
   66.9028   49.0281   32.3333 H   0  0  0  0  0  0  0  0  0  0  0  0
   63.2313   48.0805   34.0575 H   0  0  0  0  0  0  0  0  0  0  0  0
   63.7866   48.7870   32.5021 H   0  0  0  0  0  0  0  0  0  0  0  0
   62.7201   47.3415   32.5021 H   0  0  0  0  0  0  0  0  0  0  0  0
   65.4818   48.0141   28.4684 H   0  0  0  0  0  0  0  0  0  0  0  0
   64.7541   46.8391   27.3209 H   0  0  0  0  0  0  0  0  0  0  0  0
   64.2081   48.5504   27.3209 H   0  0  0  0  0  0  0  0  0  0  0  0
   58.5605   47.0851   31.8185 H   0  0  0  0  0  0  0  0  0  0  0  0
   58.1971   45.3920   31.3407 H   0  0  0  0  0  0  0  0  0  0  0  0
   59.8942   45.9807   31.3407 H   0  0  0  0  0  0  0  0  0  0  0  0
   54.7543   47.3807   30.2488 H   0  0  0  0  0  0  0  0  0  0  0  0
   56.2727   45.9638   31.5352 H   0  0  0  0  0  0  0  0  0  0  0  0
  1  2  1  0
  2  3  1  0
  3  4  1  0
  4  5  1  0
  1  6  1  0
  5  6  1  0
  6  7  1  0
  7  8  1  0
  8  9  1  0
  9 10  1  0
 10 11  1  0
 11 12  1  0
 12 13  1  0
 13 14  1  0
 14 15  1  0
  1 16  1  6
  1 17  1  0
  5 18  1  0
  9 19  1  0
 13 20  1  0
 15 21  1  0
 15 22  1  0
  2 23  1  0
  2 24  1  0
  3 25  1  0
  3 26  1  0
  4 27  1  0
  4 28  1  0
  5 29  1  6
  6 30  1  6
  7 31  1  0
  7 32  1  0
  8 33  1  0
  8 34  1  0
  9 35  1  0
 10 36  1  0
 10 37  1  0
 11 38  1  0
 11 39  1  0
 12 40  1  0
 12 41  1  0
 13 42  1  0
 14 43  1  0
 14 44  1  0
 15 45  1  0
 16 46  1  0
 16 47  1  0
 16 48  1  0
 17 49  1  0
 17 50  1  0
 17 51  1  0
 18 52  1  0
 18 53  1  0
 18 54  1  0
 19 55  1  0
 19 56  1  0
 19 57  1  0
 20 58  1  0
 20 59  1  0
 20 60  1  0
 21 61  1  0
 22 62  1  0
M  END
>  <PDBID>  (1) 
3OAP

>  <PDB ID>  (1) 
3OAP

>  <Generic Name>  (1) 
Alitretinoin

>  <Brand Name>  (1) 
Panretin#Toctino

>  <DrugBank ID>  (1) 
DB00523

>  <ATC Codes>  (1) 
D11AH04#L01XX22

>  <Ligand ID>  (1) 
9CR

>  <Target Name>  (1) 
Retinoic acid receptor RXR-beta

>  <UniProt ID>  (1) 
P28702

>  <PDB ID.1>  (1) 
3OAP

>  <Seq. Identity>  (1) 
87%

$$$$
