PDB_DB09073_98
     RDKit          3D

 80 84  0  0  0  0  0  0  0  0999 V2000
   32.4090   28.5440   60.1410 O   0  0  0  0  0  0  0  0  0  0  0  0
   33.0080   27.5190   59.9010 C   0  0  0  0  0  0  0  0  0  0  0  0
   34.3120   27.5070   59.1620 C   0  0  0  0  0  0  0  0  0  0  0  0
   32.4150   26.2120   60.3390 C   0  0  1  0  0  0  0  0  0  0  0  0
   32.6480   25.6900   61.6150 C   0  0  1  0  0  0  0  0  0  0  0  0
   33.4290   26.4260   62.6690 C   0  0  0  0  0  0  0  0  0  0  0  0
   31.9290   24.4600   62.0050 C   0  0  2  0  0  0  0  0  0  0  0  0
   32.1990   23.7830   63.2720 C   0  0  0  0  0  0  0  0  0  0  0  0
   31.5880   22.6260   63.5420 N   0  0  0  0  0  0  0  0  0  0  0  0
   30.8720   21.9680   62.6070 C   0  0  0  0  0  0  0  0  0  0  0  0
   30.7030   22.5010   61.3540 N   0  0  0  0  0  0  0  0  0  0  0  0
   31.2660   23.6800   60.9670 C   0  0  1  0  0  0  0  0  0  0  0  0
   31.0700   24.2300   59.7410 N   0  0  0  0  0  0  0  0  0  0  0  0
   30.2950   23.4750   58.7390 C   0  0  1  0  0  0  0  0  0  0  0  0
   29.2130   24.2680   58.0150 C   0  0  0  0  0  0  0  0  0  0  0  0
   29.2870   23.8720   56.5360 C   0  0  0  0  0  0  0  0  0  0  0  0
   30.5060   22.9550   56.3320 C   0  0  0  0  0  0  0  0  0  0  0  0
   31.2520   22.9450   57.6650 C   0  0  0  0  0  0  0  0  0  0  0  0
   31.6630   25.4930   59.4060 C   0  0  0  0  0  0  0  0  0  0  0  0
   31.5220   26.0010   58.2620 O   0  0  0  0  0  0  0  0  0  0  0  0
   30.3500   20.7760   63.0170 N   0  0  0  0  0  0  0  0  0  0  0  0
   29.6660   19.8610   62.2880 C   0  0  0  0  0  0  0  0  0  0  0  0
   29.5140   18.6170   62.8010 N   0  0  0  0  0  0  0  0  0  0  0  0
   28.8440   17.6710   62.1330 C   0  0  0  0  0  0  0  0  0  0  0  0
   28.2800   17.9460   60.8870 C   0  0  0  0  0  0  0  0  0  0  0  0
   28.4240   19.2200   60.3470 C   0  0  0  0  0  0  0  0  0  0  0  0
   29.1170   20.1840   61.0520 C   0  0  0  0  0  0  0  0  0  0  0  0
   27.5710   16.9530   60.1740 N   0  0  0  0  0  0  0  0  0  0  0  0
   28.4660   15.8000   59.9060 C   0  0  0  0  0  0  0  0  0  0  0  0
   27.7120   14.6830   59.1890 C   0  0  0  0  0  0  0  0  0  0  0  0
   27.0440   15.1960   58.0030 N   0  0  0  0  0  0  0  0  0  0  0  0
   26.3410   16.4760   58.0250 C   0  0  0  0  0  0  0  0  0  0  0  0
   26.9860   17.5260   58.9330 C   0  0  0  0  0  0  0  0  0  0  0  0
   32.3391   28.6636   61.1213 H   0  0  0  0  0  0  0  0  0  0  0  0
   32.4669   27.4260   58.9478 H   0  0  0  0  0  0  0  0  0  0  0  0
   35.1423   27.4994   59.8835 H   0  0  0  0  0  0  0  0  0  0  0  0
   34.3671   26.6083   58.5301 H   0  0  0  0  0  0  0  0  0  0  0  0
   34.3836   28.4045   58.5301 H   0  0  0  0  0  0  0  0  0  0  0  0
   33.3019   25.6828   59.9605 H   0  0  0  0  0  0  0  0  0  0  0  0
   33.6518   25.4659   61.2250 H   0  0  0  0  0  0  0  0  0  0  0  0
   33.0905   26.1070   63.6658 H   0  0  0  0  0  0  0  0  0  0  0  0
   34.4998   26.2010   62.5560 H   0  0  0  0  0  0  0  0  0  0  0  0
   33.2678   27.5082   62.5560 H   0  0  0  0  0  0  0  0  0  0  0  0
   31.1175   25.0798   62.4140 H   0  0  0  0  0  0  0  0  0  0  0  0
   33.2812   23.5894   63.3072 H   0  0  0  0  0  0  0  0  0  0  0  0
   31.7917   24.4728   64.0259 H   0  0  0  0  0  0  0  0  0  0  0  0
   32.3233   21.9760   63.8544 H   0  0  0  0  0  0  0  0  0  0  0  0
   29.9588   22.4782   62.9472 H   0  0  0  0  0  0  0  0  0  0  0  0
   31.0505   21.7905   60.6942 H   0  0  0  0  0  0  0  0  0  0  0  0
   31.9832   23.1577   60.3167 H   0  0  0  0  0  0  0  0  0  0  0  0
   29.7879   22.6838   59.3107 H   0  0  0  0  0  0  0  0  0  0  0  0
   28.2230   24.0187   58.4245 H   0  0  0  0  0  0  0  0  0  0  0  0
   29.3658   25.3500   58.1416 H   0  0  0  0  0  0  0  0  0  0  0  0
   28.3694   23.3374   56.2494 H   0  0  0  0  0  0  0  0  0  0  0  0
   29.3858   24.7719   55.9112 H   0  0  0  0  0  0  0  0  0  0  0  0
   30.1797   21.9380   56.0688 H   0  0  0  0  0  0  0  0  0  0  0  0
   31.1476   23.3132   55.5135 H   0  0  0  0  0  0  0  0  0  0  0  0
   32.1397   23.5915   57.6023 H   0  0  0  0  0  0  0  0  0  0  0  0
   31.5833   21.9259   57.9133 H   0  0  0  0  0  0  0  0  0  0  0  0
   32.5740   24.9761   59.0700 H   0  0  0  0  0  0  0  0  0  0  0  0
   31.2583   26.9509   58.3530 H   0  0  0  0  0  0  0  0  0  0  0  0
   31.1557   20.2567   63.3939 H   0  0  0  0  0  0  0  0  0  0  0  0
   30.6024   19.5469   61.8037 H   0  0  0  0  0  0  0  0  0  0  0  0
   30.4626   18.2477   62.9582 H   0  0  0  0  0  0  0  0  0  0  0  0
   29.5438   16.8354   61.9842 H   0  0  0  0  0  0  0  0  0  0  0  0
   27.9635   17.4972   62.7690 H   0  0  0  0  0  0  0  0  0  0  0  0
   27.3472   18.2597   61.3785 H   0  0  0  0  0  0  0  0  0  0  0  0
   28.9352   19.1016   59.3802 H   0  0  0  0  0  0  0  0  0  0  0  0
   27.3949   19.6078   60.3233 H   0  0  0  0  0  0  0  0  0  0  0  0
   28.4228   21.0209   61.2182 H   0  0  0  0  0  0  0  0  0  0  0  0
   29.9957   20.3859   60.4218 H   0  0  0  0  0  0  0  0  0  0  0  0
   29.3033   16.1326   59.2749 H   0  0  0  0  0  0  0  0  0  0  0  0
   28.8395   15.4134   60.8657 H   0  0  0  0  0  0  0  0  0  0  0  0
   28.4240   13.8988   58.8922 H   0  0  0  0  0  0  0  0  0  0  0  0
   26.9549   14.2706   59.8722 H   0  0  0  0  0  0  0  0  0  0  0  0
   27.7651   15.2714   57.2714 H   0  0  0  0  0  0  0  0  0  0  0  0
   26.3155   16.8741   56.9999 H   0  0  0  0  0  0  0  0  0  0  0  0
   25.3368   16.2802   58.4289 H   0  0  0  0  0  0  0  0  0  0  0  0
   26.2183   18.2611   59.2163 H   0  0  0  0  0  0  0  0  0  0  0  0
   27.8102   17.9837   58.3663 H   0  0  0  0  0  0  0  0  0  0  0  0
  1  2  1  0
  2  3  1  0
  2  4  1  0
  4  5  1  0
  5  6  1  0
  5  7  1  0
  7  8  1  0
  8  9  1  0
  9 10  1  0
 10 11  1  0
  7 12  1  0
 11 12  1  0
 12 13  1  0
 13 14  1  0
 14 15  1  0
 15 16  1  0
 16 17  1  0
 14 18  1  0
 17 18  1  0
  4 19  1  0
 13 19  1  0
 19 20  1  0
 10 21  1  0
 21 22  1  0
 22 23  1  0
 23 24  1  0
 24 25  1  0
 25 26  1  0
 22 27  1  0
 26 27  1  0
 25 28  1  0
 28 29  1  0
 29 30  1  0
 30 31  1  0
 31 32  1  0
 28 33  1  0
 32 33  1  0
  1 34  1  0
  2 35  1  0
  3 36  1  0
  3 37  1  0
  3 38  1  0
  4 39  1  1
  5 40  1  6
  6 41  1  0
  6 42  1  0
  6 43  1  0
  7 44  1  1
  8 45  1  0
  8 46  1  0
  9 47  1  0
 10 48  1  0
 11 49  1  0
 12 50  1  6
 14 51  1  1
 15 52  1  0
 15 53  1  0
 16 54  1  0
 16 55  1  0
 17 56  1  0
 17 57  1  0
 18 58  1  0
 18 59  1  0
 19 60  1  0
 20 61  1  0
 21 62  1  0
 22 63  1  0
 23 64  1  0
 24 65  1  0
 24 66  1  0
 25 67  1  0
 26 68  1  0
 26 69  1  0
 27 70  1  0
 27 71  1  0
 29 72  1  0
 29 73  1  0
 30 74  1  0
 30 75  1  0
 31 76  1  0
 32 77  1  0
 32 78  1  0
 33 79  1  0
 33 80  1  0
M  END
>  <PDBID>  (1) 
2EUF

>  <PDB ID>  (1) 
2EUF

>  <Generic Name>  (1) 
Palbociclib

>  <Brand Name>  (1) 
Ibrance

>  <DrugBank ID>  (1) 
DB09073

>  <ATC Codes>  (1) 
L01XE33

>  <Ligand ID>  (1) 
LQQ

>  <Target Name>  (1) 
Cyclin-dependent kinase 6

>  <UniProt ID>  (1) 
Q00534

>  <PDB ID.1>  (1) 
2EUF

>  <Seq. Identity>  (1) 
100%

$$$$
