PDB_DB06603_99
     RDKit          3D

134138  0  0  0  0  0  0  0  0999 V2000
  -15.7390   22.3530  -46.4220 O   0  0  0  0  0  0  0  0  0  0  0  0
  -15.8380   23.5970  -46.4510 C   0  0  0  0  0  0  0  0  0  0  0  0
  -16.9890   24.2110  -47.0540 N   0  0  0  0  0  0  0  0  0  0  0  0
  -17.9510   23.4530  -47.5800 O   0  0  0  0  0  0  0  0  0  0  0  0
  -14.7220   24.4720  -45.8450 C   0  0  0  0  0  0  0  0  0  0  0  0
  -14.1140   24.1080  -44.6540 C   0  0  0  0  0  0  0  0  0  0  0  0
  -12.7680   24.7340  -44.2930 C   0  0  0  0  0  0  0  0  0  0  0  0
  -11.7490   24.7600  -45.2590 C   0  0  0  0  0  0  0  0  0  0  0  0
  -10.5330   25.3180  -44.9570 C   0  0  0  0  0  0  0  0  0  0  0  0
  -12.5500   25.2790  -43.0160 C   0  0  0  0  0  0  0  0  0  0  0  0
  -11.3240   25.8430  -42.7090 C   0  0  0  0  0  0  0  0  0  0  0  0
  -10.3080   25.8730  -43.6720 C   0  0  0  0  0  0  0  0  0  0  0  0
   -8.9580   26.4850  -43.3430 C   0  0  0  0  0  0  0  0  0  0  0  0
   -7.8870   25.4700  -43.4980 N   0  0  0  0  0  0  0  0  0  0  0  0
   -7.9970   24.4890  -42.4070 C   0  0  0  0  0  0  0  0  0  0  0  0
   -8.5710   23.1600  -42.9060 C   0  0  0  0  0  0  0  0  0  0  0  0
   -8.5780   22.0750  -41.7700 C   0  0  0  0  0  0  0  0  0  0  0  0
   -7.5520   21.0400  -41.5510 C   0  0  0  0  0  0  0  0  0  0  0  0
   -7.9690   20.3230  -40.4440 C   0  0  0  0  0  0  0  0  0  0  0  0
   -9.1810   20.8540  -39.9770 N   0  0  0  0  0  0  0  0  0  0  0  0
   -9.5500   21.8800  -40.7400 C   0  0  0  0  0  0  0  0  0  0  0  0
  -10.8010   22.7040  -40.5490 C   0  0  0  0  0  0  0  0  0  0  0  0
   -7.1630   19.2160  -39.9650 C   0  0  0  0  0  0  0  0  0  0  0  0
   -5.9630   18.8830  -40.6290 C   0  0  0  0  0  0  0  0  0  0  0  0
   -5.5480   19.6150  -41.7490 C   0  0  0  0  0  0  0  0  0  0  0  0
   -6.3410   20.7020  -42.2180 C   0  0  0  0  0  0  0  0  0  0  0  0
  -16.4010   22.4590   -1.0160 O   0  0  0  0  0  0  0  0  0  0  0  0
  -15.8400   23.4360   -1.5500 C   0  0  0  0  0  0  0  0  0  0  0  0
  -16.5600   24.2510   -2.4910 N   0  0  0  0  0  0  0  0  0  0  0  0
  -17.8240   23.9690   -2.8040 O   0  0  0  0  0  0  0  0  0  0  0  0
  -14.3780   23.7720   -1.1930 C   0  0  0  0  0  0  0  0  0  0  0  0
  -13.9900   23.8040    0.1370 C   0  0  0  0  0  0  0  0  0  0  0  0
  -12.6340   24.3880    0.5290 C   0  0  0  0  0  0  0  0  0  0  0  0
  -11.6370   24.5610   -0.4460 C   0  0  0  0  0  0  0  0  0  0  0  0
  -10.4180   25.0860   -0.0950 C   0  0  0  0  0  0  0  0  0  0  0  0
  -12.3870   24.7520    1.8640 C   0  0  0  0  0  0  0  0  0  0  0  0
  -11.1590   25.2800    2.2210 C   0  0  0  0  0  0  0  0  0  0  0  0
  -10.1660   25.4550    1.2500 C   0  0  0  0  0  0  0  0  0  0  0  0
   -8.8170   26.0290    1.6410 C   0  0  0  0  0  0  0  0  0  0  0  0
   -7.7300   25.0600    1.3680 N   0  0  0  0  0  0  0  0  0  0  0  0
   -7.8080   23.9630    2.3420 C   0  0  0  0  0  0  0  0  0  0  0  0
   -8.3920   22.7070    1.6910 C   0  0  0  0  0  0  0  0  0  0  0  0
   -8.3600   21.4730    2.6610 C   0  0  0  0  0  0  0  0  0  0  0  0
   -7.2840   20.4700    2.7510 C   0  0  0  0  0  0  0  0  0  0  0  0
   -7.6800   19.5810    3.7340 C   0  0  0  0  0  0  0  0  0  0  0  0
   -8.9250   19.9760    4.2450 N   0  0  0  0  0  0  0  0  0  0  0  0
   -9.3360   21.0810    3.6290 C   0  0  0  0  0  0  0  0  0  0  0  0
  -10.6330   21.8030    3.9100 C   0  0  0  0  0  0  0  0  0  0  0  0
   -6.8240   18.4580    4.0680 C   0  0  0  0  0  0  0  0  0  0  0  0
   -5.5970   18.2820    3.3920 C   0  0  0  0  0  0  0  0  0  0  0  0
   -5.2040   19.1900    2.4000 C   0  0  0  0  0  0  0  0  0  0  0  0
   -6.0460   20.2930    2.0720 C   0  0  0  0  0  0  0  0  0  0  0  0
  -15.7145   22.0457  -45.4812 H   0  0  0  0  0  0  0  0  0  0  0  0
  -15.3198   23.6156  -47.4211 H   0  0  0  0  0  0  0  0  0  0  0  0
  -17.4317   24.7908  -46.3268 H   0  0  0  0  0  0  0  0  0  0  0  0
  -18.4785   23.0374  -46.8526 H   0  0  0  0  0  0  0  0  0  0  0  0
  -13.9247   24.5343  -46.6002 H   0  0  0  0  0  0  0  0  0  0  0  0
  -15.2500   25.4002  -45.5808 H   0  0  0  0  0  0  0  0  0  0  0  0
  -14.8146   24.3583  -43.8437 H   0  0  0  0  0  0  0  0  0  0  0  0
  -13.8833   23.0409  -44.7886 H   0  0  0  0  0  0  0  0  0  0  0  0
  -12.4081   23.7564  -43.9397 H   0  0  0  0  0  0  0  0  0  0  0  0
  -11.5568   23.7157  -45.5463 H   0  0  0  0  0  0  0  0  0  0  0  0
  -12.1505   25.4310  -46.0327 H   0  0  0  0  0  0  0  0  0  0  0  0
   -9.7780   24.5308  -45.0997 H   0  0  0  0  0  0  0  0  0  0  0  0
  -10.4833   26.1923  -45.6226 H   0  0  0  0  0  0  0  0  0  0  0  0
  -13.3069   26.0640  -42.8713 H   0  0  0  0  0  0  0  0  0  0  0  0
  -12.6009   24.4029  -42.3527 H   0  0  0  0  0  0  0  0  0  0  0  0
  -11.5177   26.8862  -42.4187 H   0  0  0  0  0  0  0  0  0  0  0  0
  -10.9218   25.1707  -41.9369 H   0  0  0  0  0  0  0  0  0  0  0  0
  -10.6746   26.8469  -44.0285 H   0  0  0  0  0  0  0  0  0  0  0  0
   -8.7638   27.3260  -44.0250 H   0  0  0  0  0  0  0  0  0  0  0  0
   -8.9682   26.8418  -42.3025 H   0  0  0  0  0  0  0  0  0  0  0  0
   -7.9924   24.9921  -44.4043 H   0  0  0  0  0  0  0  0  0  0  0  0
   -6.9974   24.3107  -41.9840 H   0  0  0  0  0  0  0  0  0  0  0  0
   -8.6773   24.8950  -41.6438 H   0  0  0  0  0  0  0  0  0  0  0  0
   -9.6026   23.3230  -43.2513 H   0  0  0  0  0  0  0  0  0  0  0  0
   -7.9367   22.7962  -43.7278 H   0  0  0  0  0  0  0  0  0  0  0  0
   -9.1298   21.3886  -42.4290 H   0  0  0  0  0  0  0  0  0  0  0  0
   -6.9974   21.7283  -40.8963 H   0  0  0  0  0  0  0  0  0  0  0  0
   -7.4150   21.0117  -39.7892 H   0  0  0  0  0  0  0  0  0  0  0  0
   -9.9082   20.1253  -40.0096 H   0  0  0  0  0  0  0  0  0  0  0  0
  -10.1061   21.1930  -41.3948 H   0  0  0  0  0  0  0  0  0  0  0  0
  -10.9952   22.8319  -39.4739 H   0  0  0  0  0  0  0  0  0  0  0  0
  -10.6655   23.6902  -41.0170 H   0  0  0  0  0  0  0  0  0  0  0  0
  -11.6536   22.1901  -41.0170 H   0  0  0  0  0  0  0  0  0  0  0  0
   -6.8973   19.4434  -38.9221 H   0  0  0  0  0  0  0  0  0  0  0  0
   -7.8036   18.3393  -40.1412 H   0  0  0  0  0  0  0  0  0  0  0  0
   -5.1574   18.9612  -39.8841 H   0  0  0  0  0  0  0  0  0  0  0  0
   -6.1769   17.8881  -41.0466 H   0  0  0  0  0  0  0  0  0  0  0  0
   -4.5549   20.0243  -41.5119 H   0  0  0  0  0  0  0  0  0  0  0  0
   -5.6078   18.8835  -42.5683 H   0  0  0  0  0  0  0  0  0  0  0  0
   -6.6059   20.4747  -43.2611 H   0  0  0  0  0  0  0  0  0  0  0  0
   -5.7005   21.5780  -42.0379 H   0  0  0  0  0  0  0  0  0  0  0  0
  -16.3504   22.5471   -0.0312 H   0  0  0  0  0  0  0  0  0  0  0  0
  -15.4972   22.7900   -2.3717 H   0  0  0  0  0  0  0  0  0  0  0  0
  -16.5566   25.2095   -2.1139 H   0  0  0  0  0  0  0  0  0  0  0  0
  -18.3511   23.8514   -1.9743 H   0  0  0  0  0  0  0  0  0  0  0  0
  -13.7464   23.0226   -1.6925 H   0  0  0  0  0  0  0  0  0  0  0  0
  -14.2660   24.8164   -1.5198 H   0  0  0  0  0  0  0  0  0  0  0  0
  -14.7527   24.3860    0.6751 H   0  0  0  0  0  0  0  0  0  0  0  0
  -13.8874   22.7392    0.3934 H   0  0  0  0  0  0  0  0  0  0  0  0
  -12.2572   23.3752    0.7346 H   0  0  0  0  0  0  0  0  0  0  0  0
  -11.4425   23.5695   -0.8809 H   0  0  0  0  0  0  0  0  0  0  0  0
  -12.0619   25.3291   -1.1090 H   0  0  0  0  0  0  0  0  0  0  0  0
   -9.6596   24.3367   -0.3661 H   0  0  0  0  0  0  0  0  0  0  0  0
  -10.3932   26.0470   -0.6297 H   0  0  0  0  0  0  0  0  0  0  0  0
  -13.1456   25.5013    2.1344 H   0  0  0  0  0  0  0  0  0  0  0  0
  -12.4136   23.7904    2.3974 H   0  0  0  0  0  0  0  0  0  0  0  0
  -11.3537   26.2701    2.6589 H   0  0  0  0  0  0  0  0  0  0  0  0
  -10.7344   24.5107    2.8828 H   0  0  0  0  0  0  0  0  0  0  0  0
  -10.5460   26.4665    1.0437 H   0  0  0  0  0  0  0  0  0  0  0  0
   -8.6349   26.9467    1.0625 H   0  0  0  0  0  0  0  0  0  0  0  0
   -8.8283   26.2495    2.7186 H   0  0  0  0  0  0  0  0  0  0  0  0
   -7.8350   24.6833    0.4151 H   0  0  0  0  0  0  0  0  0  0  0  0
   -6.7983   23.7399    2.7172 H   0  0  0  0  0  0  0  0  0  0  0  0
   -8.4621   24.2701    3.1713 H   0  0  0  0  0  0  0  0  0  0  0  0
   -9.4352   22.9073    1.4054 H   0  0  0  0  0  0  0  0  0  0  0  0
   -7.7784   22.4636    0.8111 H   0  0  0  0  0  0  0  0  0  0  0  0
   -8.8664   20.8614    1.8997 H   0  0  0  0  0  0  0  0  0  0  0  0
   -6.7760   21.0830    3.5100 H   0  0  0  0  0  0  0  0  0  0  0  0
   -7.1736   20.1950    4.4933 H   0  0  0  0  0  0  0  0  0  0  0  0
   -9.6116   19.2237    4.0916 H   0  0  0  0  0  0  0  0  0  0  0  0
   -9.8436   20.4686    2.8692 H   0  0  0  0  0  0  0  0  0  0  0  0
  -10.7792   21.8844    4.9972 H   0  0  0  0  0  0  0  0  0  0  0  0
  -10.5952   22.8099    3.4687 H   0  0  0  0  0  0  0  0  0  0  0  0
  -11.4689   21.2404    3.4687 H   0  0  0  0  0  0  0  0  0  0  0  0
   -6.5873   18.5461    5.1386 H   0  0  0  0  0  0  0  0  0  0  0  0
   -7.4151   17.5858    3.7519 H   0  0  0  0  0  0  0  0  0  0  0  0
   -4.8086   18.2898    4.1591 H   0  0  0  0  0  0  0  0  0  0  0  0
   -5.7505   17.3481    2.8314 H   0  0  0  0  0  0  0  0  0  0  0  0
   -4.2386   19.6105    2.7182 H   0  0  0  0  0  0  0  0  0  0  0  0
   -5.2119   18.5830    1.4827 H   0  0  0  0  0  0  0  0  0  0  0  0
   -6.2810   20.2055    1.0010 H   0  0  0  0  0  0  0  0  0  0  0  0
   -5.4560   21.1649    2.3909 H   0  0  0  0  0  0  0  0  0  0  0  0
  1  2  1  0
  2  3  1  0
  4  3  1  0
  2  5  1  0
  5  6  1  0
  6  7  1  0
  7  8  1  0
  8  9  1  0
  7 10  1  0
 10 11  1  0
  9 12  1  0
 11 12  1  0
 12 13  1  0
 13 14  1  0
 14 15  1  0
 15 16  1  0
 16 17  1  0
 17 18  1  0
 18 19  1  0
 19 20  1  0
 17 21  1  0
 20 21  1  0
 21 22  1  0
 19 23  1  0
 23 24  1  0
 24 25  1  0
 18 26  1  0
 25 26  1  0
 27 28  1  0
 28 29  1  0
 30 29  1  0
 28 31  1  0
 31 32  1  0
 32 33  1  0
 33 34  1  0
 34 35  1  0
 33 36  1  0
 36 37  1  0
 35 38  1  0
 37 38  1  0
 38 39  1  0
 39 40  1  0
 40 41  1  0
 41 42  1  0
 42 43  1  0
 43 44  1  0
 44 45  1  0
 45 46  1  0
 43 47  1  0
 46 47  1  0
 47 48  1  0
 45 49  1  0
 49 50  1  0
 50 51  1  0
 44 52  1  0
 51 52  1  0
  1 53  1  0
  2 54  1  0
  3 55  1  1
  4 56  1  0
  5 57  1  0
  5 58  1  0
  6 59  1  0
  6 60  1  0
  7 61  1  0
  8 62  1  0
  8 63  1  0
  9 64  1  0
  9 65  1  0
 10 66  1  0
 10 67  1  0
 11 68  1  0
 11 69  1  0
 12 70  1  0
 13 71  1  0
 13 72  1  0
 14 73  1  0
 15 74  1  0
 15 75  1  0
 16 76  1  0
 16 77  1  0
 17 78  1  0
 18 79  1  0
 19 80  1  0
 20 81  1  0
 21 82  1  0
 22 83  1  0
 22 84  1  0
 22 85  1  0
 23 86  1  0
 23 87  1  0
 24 88  1  0
 24 89  1  0
 25 90  1  0
 25 91  1  0
 26 92  1  0
 26 93  1  0
 27 94  1  0
 28 95  1  0
 29 96  1  1
 30 97  1  0
 31 98  1  0
 31 99  1  0
 32100  1  0
 32101  1  0
 33102  1  0
 34103  1  0
 34104  1  0
 35105  1  0
 35106  1  0
 36107  1  0
 36108  1  0
 37109  1  0
 37110  1  0
 38111  1  0
 39112  1  0
 39113  1  0
 40114  1  0
 41115  1  0
 41116  1  0
 42117  1  0
 42118  1  0
 43119  1  0
 44120  1  0
 45121  1  0
 46122  1  0
 47123  1  0
 48124  1  0
 48125  1  0
 48126  1  0
 49127  1  0
 49128  1  0
 50129  1  0
 50130  1  0
 51131  1  0
 51132  1  0
 52133  1  0
 52134  1  0
M  END
>  <PDBID>  (1) 
5EF8

>  <PDB ID>  (1) 
5EF8

>  <Generic Name>  (1) 
Panobinostat

>  <Brand Name>  (1) 
Farydak

>  <DrugBank ID>  (1) 
DB06603

>  <ATC Codes>  (1) 
L01XX42

>  <Ligand ID>  (1) 
LBH

>  <Target Name>  (1) 
Histone deacetylase 9

>  <UniProt ID>  (1) 
Q9UKV0

>  <PDB ID.1>  (1) 
5EF8

>  <Seq. Identity>  (1) 
46%

$$$$
