PDB_DB00188_76
     RDKit          3D

 53 54  0  0  0  0  0  0  0  0999 V2000
   20.2900 -164.6590   53.3100 N   0  0  0  0  0  0  0  0  0  0  0  0
   20.7460 -163.4820   53.7760 C   0  0  0  0  0  0  0  0  0  0  0  0
   19.8930 -162.3780   53.7990 C   0  0  0  0  0  0  0  0  0  0  0  0
   18.5700 -162.4760   53.3540 N   0  0  0  0  0  0  0  0  0  0  0  0
   18.1060 -163.6970   52.8730 C   0  0  0  0  0  0  0  0  0  0  0  0
   18.9670 -164.7860   52.8510 C   0  0  0  0  0  0  0  0  0  0  0  0
   22.0610 -163.3680   54.2340 C   0  0  0  0  0  0  0  0  0  0  0  0
   22.9090 -164.2080   53.9290 O   0  0  0  0  0  0  0  0  0  0  0  0
   22.2990 -162.3070   55.0310 N   0  0  0  0  0  0  0  0  0  0  0  0
   23.6120 -162.0120   55.6140 C   0  0  1  0  0  0  0  0  0  0  0  0
   23.9830 -160.6260   55.1320 C   0  0  0  0  0  0  0  0  0  0  0  0
   25.1840 -160.2160   55.7450 C   0  0  0  0  0  0  0  0  0  0  0  0
   26.3960 -160.8060   55.3750 C   0  0  0  0  0  0  0  0  0  0  0  0
   27.5900 -160.3960   55.9700 C   0  0  0  0  0  0  0  0  0  0  0  0
   27.5850 -159.3840   56.9300 C   0  0  0  0  0  0  0  0  0  0  0  0
   26.3830 -158.7820   57.2990 C   0  0  0  0  0  0  0  0  0  0  0  0
   25.1880 -159.1930   56.7050 C   0  0  0  0  0  0  0  0  0  0  0  0
   23.4600 -162.0980   57.1380 C   0  0  0  0  0  0  0  0  0  0  0  0
   22.4790 -161.6090   57.7020 O   0  0  0  0  0  0  0  0  0  0  0  0
   24.4370 -162.7720   57.7710 N   0  0  0  0  0  0  0  0  0  0  0  0
   24.4310 -162.9500   59.2410 C   0  0  1  0  0  0  0  0  0  0  0  0
   24.8310 -164.3640   59.6380 C   0  0  0  0  0  0  0  0  0  0  0  0
   24.0050 -165.4080   58.8450 C   0  0  0  0  0  0  0  0  0  0  0  0
   24.5530 -166.8120   59.1560 C   0  0  0  0  0  0  0  0  0  0  0  0
   22.5080 -165.3450   59.1920 C   0  0  0  0  0  0  0  0  0  0  0  0
   25.4010 -161.9350   59.9000 B   0  0  0  0  0  0  0  0  0  0  0  0
   24.9340 -160.5970   59.6760 O   0  0  0  0  0  0  0  0  0  0  0  0
   26.7150 -162.0870   59.3390 O   0  0  0  0  0  0  0  0  0  0  0  0
   20.2671 -161.4138   54.1735 H   0  0  0  0  0  0  0  0  0  0  0  0
   17.0708 -163.7978   52.5150 H   0  0  0  0  0  0  0  0  0  0  0  0
   18.6115 -165.7554   52.4717 H   0  0  0  0  0  0  0  0  0  0  0  0
   21.5175 -161.6700   55.2416 H   0  0  0  0  0  0  0  0  0  0  0  0
   24.4080 -162.7116   55.3191 H   0  0  0  0  0  0  0  0  0  0  0  0
   24.1165 -160.6420   54.0403 H   0  0  0  0  0  0  0  0  0  0  0  0
   23.1803 -159.9215   55.3955 H   0  0  0  0  0  0  0  0  0  0  0  0
   26.4087 -161.5974   54.6111 H   0  0  0  0  0  0  0  0  0  0  0  0
   28.5383 -160.8726   55.6809 H   0  0  0  0  0  0  0  0  0  0  0  0
   28.5282 -159.0614   57.3952 H   0  0  0  0  0  0  0  0  0  0  0  0
   26.3759 -157.9846   58.0567 H   0  0  0  0  0  0  0  0  0  0  0  0
   24.2420 -158.7107   56.9921 H   0  0  0  0  0  0  0  0  0  0  0  0
   25.2084 -163.1742   57.2195 H   0  0  0  0  0  0  0  0  0  0  0  0
   23.4045 -162.7725   59.5942 H   0  0  0  0  0  0  0  0  0  0  0  0
   25.9000 -164.5108   59.4240 H   0  0  0  0  0  0  0  0  0  0  0  0
   24.6356 -164.4992   60.7120 H   0  0  0  0  0  0  0  0  0  0  0  0
   24.1011 -165.1824   57.7727 H   0  0  0  0  0  0  0  0  0  0  0  0
   24.6074 -166.9513   60.2458 H   0  0  0  0  0  0  0  0  0  0  0  0
   23.8850 -167.5707   58.7223 H   0  0  0  0  0  0  0  0  0  0  0  0
   25.5583 -166.9176   58.7223 H   0  0  0  0  0  0  0  0  0  0  0  0
   22.3849 -165.3398   60.2851 H   0  0  0  0  0  0  0  0  0  0  0  0
   22.0720 -164.4277   58.7696 H   0  0  0  0  0  0  0  0  0  0  0  0
   21.9964 -166.2224   58.7696 H   0  0  0  0  0  0  0  0  0  0  0  0
   24.7786 -160.1517   60.5464 H   0  0  0  0  0  0  0  0  0  0  0  0
   27.3788 -162.1638   60.0694 H   0  0  0  0  0  0  0  0  0  0  0  0
  1  2  2  0
  2  3  1  0
  3  4  2  0
  4  5  1  0
  1  6  1  0
  5  6  2  0
  2  7  1  0
  7  8  2  0
  7  9  1  0
  9 10  1  0
 10 11  1  0
 11 12  1  0
 12 13  2  0
 13 14  1  0
 14 15  2  0
 15 16  1  0
 12 17  1  0
 16 17  2  0
 10 18  1  0
 18 19  2  0
 18 20  1  0
 20 21  1  0
 21 22  1  0
 22 23  1  0
 23 24  1  0
 23 25  1  0
 21 26  1  0
 26 27  1  0
 26 28  1  0
  3 29  1  0
  5 30  1  0
  6 31  1  0
  9 32  1  0
 10 33  1  6
 11 34  1  0
 11 35  1  0
 13 36  1  0
 14 37  1  0
 15 38  1  0
 16 39  1  0
 17 40  1  0
 20 41  1  0
 21 42  1  1
 22 43  1  0
 22 44  1  0
 23 45  1  0
 24 46  1  0
 24 47  1  0
 24 48  1  0
 25 49  1  0
 25 50  1  0
 25 51  1  0
 27 52  1  0
 28 53  1  0
M  END
$$$$
