PDB_DB00480_97
     RDKit          3D

 32 34  0  0  0  0  0  0  0  0999 V2000
  -45.2360   53.8400  -95.1260 C   0  0  1  0  0  0  0  0  0  0  0  0
  -46.7320   53.5560  -94.9620 C   0  0  0  0  0  0  0  0  0  0  0  0
  -46.9670   52.0750  -94.6780 C   0  0  0  0  0  0  0  0  0  0  0  0
  -46.3250   51.2130  -95.7650 C   0  0  0  0  0  0  0  0  0  0  0  0
  -45.2030   51.6740  -96.4770 N   0  0  0  0  0  0  0  0  0  0  0  0
  -44.6400   52.9330  -96.2110 C   0  0  0  0  0  0  0  0  0  0  0  0
  -44.4380   57.4160  -95.2460 C   0  0  0  0  0  0  0  0  0  0  0  0
  -45.0360   57.3250  -96.4940 C   0  0  0  0  0  0  0  0  0  0  0  0
  -45.4920   55.8890  -96.7170 C   0  0  0  0  0  0  0  0  0  0  0  0
  -45.0440   55.2560  -95.4710 N   0  0  0  0  0  0  0  0  0  0  0  0
  -44.4780   56.1500  -94.6640 C   0  0  0  0  0  0  0  0  0  0  0  0
  -44.0400   59.7580  -95.6420 C   0  0  0  0  0  0  0  0  0  0  0  0
  -44.6420   59.6530  -96.8950 C   0  0  0  0  0  0  0  0  0  0  0  0
  -45.1430   58.4300  -97.3250 C   0  0  0  0  0  0  0  0  0  0  0  0
  -43.9370   58.6420  -94.8170 C   0  0  0  0  0  0  0  0  0  0  0  0
  -44.0030   55.8820  -93.5610 O   0  0  0  0  0  0  0  0  0  0  0  0
  -45.7170   58.3200  -98.5170 N   0  0  0  0  0  0  0  0  0  0  0  0
  -43.6490   53.3010  -96.8370 O   0  0  0  0  0  0  0  0  0  0  0  0
  -46.8000   50.1110  -96.0190 O   0  0  0  0  0  0  0  0  0  0  0  0
  -44.7169   53.6282  -94.1796 H   0  0  0  0  0  0  0  0  0  0  0  0
  -47.1239   54.1518  -94.1245 H   0  0  0  0  0  0  0  0  0  0  0  0
  -47.2496   53.8259  -95.8943 H   0  0  0  0  0  0  0  0  0  0  0  0
  -46.5245   51.8185  -93.7042 H   0  0  0  0  0  0  0  0  0  0  0  0
  -48.0500   51.8827  -94.6649 H   0  0  0  0  0  0  0  0  0  0  0  0
  -44.7868   51.0777  -97.2065 H   0  0  0  0  0  0  0  0  0  0  0  0
  -46.5841   55.8253  -96.8325 H   0  0  0  0  0  0  0  0  0  0  0  0
  -45.0937   55.4236  -97.6306 H   0  0  0  0  0  0  0  0  0  0  0  0
  -43.6447   60.7272  -95.3039 H   0  0  0  0  0  0  0  0  0  0  0  0
  -44.7205   60.5381  -97.5434 H   0  0  0  0  0  0  0  0  0  0  0  0
  -43.4612   58.7283  -93.8290 H   0  0  0  0  0  0  0  0  0  0  0  0
  -45.7935   59.1443  -99.1298 H   0  0  0  0  0  0  0  0  0  0  0  0
  -46.0858   57.4103  -98.8290 H   0  0  0  0  0  0  0  0  0  0  0  0
  1  2  1  0
  2  3  1  0
  3  4  1  0
  4  5  1  0
  1  6  1  0
  5  6  1  0
  7  8  2  0
  8  9  1  0
  1 10  1  0
  9 10  1  0
  7 11  1  0
 10 11  1  0
 12 13  1  0
  8 14  1  0
 13 14  2  0
  7 15  1  0
 12 15  2  0
 11 16  2  0
 14 17  1  0
  6 18  2  0
  4 19  2  0
  1 20  1  1
  2 21  1  0
  2 22  1  0
  3 23  1  0
  3 24  1  0
  5 25  1  0
  9 26  1  0
  9 27  1  0
 12 28  1  0
 13 29  1  0
 15 30  1  0
 17 31  1  0
 17 32  1  0
M  END
>  <PDBID>  (1) 
4TZ4

>  <PDB ID>  (1) 
4TZ4

>  <Generic Name>  (1) 
Lenalidomide

>  <Brand Name>  (1) 
Revlimid#Ladevina#Lenangio

>  <DrugBank ID>  (1) 
DB00480

>  <ATC Codes>  (1) 
L04AX04

>  <Ligand ID>  (1) 
LVY

>  <Target Name>  (1) 
Protein cereblon

>  <UniProt ID>  (1) 
Q96SW2

>  <PDB ID.1>  (1) 
4TZ4

>  <Seq. Identity>  (1) 
100%

$$$$
