PDB_DB00320_99
     RDKit          3D

 80 87  0  0  0  0  0  0  0  0999 V2000
  -22.3420    8.3580   21.8580 C   0  0  0  0  0  0  0  0  0  0  0  0
  -22.8430    6.9450   22.1060 C   0  0  2  0  0  0  0  0  0  0  0  0
  -23.4630    6.6390   23.4800 C   0  0  0  0  0  0  0  0  0  0  0  0
  -23.6870    5.3280   23.7700 C   0  0  0  0  0  0  0  0  0  0  0  0
  -23.9100    7.5930   24.4550 C   0  0  0  0  0  0  0  0  0  0  0  0
  -24.5290    7.1330   25.6790 C   0  0  0  0  0  0  0  0  0  0  0  0
  -24.6860    5.7510   25.8990 C   0  0  0  0  0  0  0  0  0  0  0  0
  -24.2660    4.8720   24.9440 C   0  0  0  0  0  0  0  0  0  0  0  0
  -24.2860    3.4730   24.8370 N   0  0  0  0  0  0  0  0  0  0  0  0
  -23.6880    3.1020   23.6590 C   0  0  0  0  0  0  0  0  0  0  0  0
  -23.3150    4.2400   22.9740 C   0  0  0  0  0  0  0  0  0  0  0  0
  -22.6610    4.4610   21.6540 C   0  0  0  0  0  0  0  0  0  0  0  0
  -21.9180    5.8040   21.5990 C   0  0  1  0  0  0  0  0  0  0  0  0
  -21.2840    6.0290   20.2040 N   0  0  0  0  0  0  0  0  0  0  0  0
  -20.0460    5.3110   19.9460 C   0  0  0  0  0  0  0  0  0  0  0  0
  -20.9560    7.4750   19.9030 C   0  0  0  0  0  0  0  0  0  0  0  0
  -21.9280    8.5430   20.4090 C   0  0  2  0  0  0  0  0  0  0  0  0
  -21.2490    9.8980   20.2910 C   0  0  0  0  0  0  0  0  0  0  0  0
  -20.1690   10.1000   20.8480 O   0  0  0  0  0  0  0  0  0  0  0  0
  -21.9620   10.9300   19.5000 N   0  0  0  0  0  0  0  0  0  0  0  0
  -21.3990   12.2910   19.2980 C   0  0  2  0  0  0  0  0  0  0  0  0
  -22.2410   12.9830   18.2460 C   0  0  0  0  0  0  0  0  0  0  0  0
  -19.9590   12.2080   18.7880 O   0  0  0  0  0  0  0  0  0  0  0  0
  -21.2850   13.0700   20.5700 C   0  0  0  0  0  0  0  0  0  0  0  0
  -22.2600   13.3630   21.2730 O   0  0  0  0  0  0  0  0  0  0  0  0
  -19.9980   13.3240   20.7670 N   0  0  0  0  0  0  0  0  0  0  0  0
  -19.0830   12.8690   19.8090 C   0  0  1  0  0  0  0  0  0  0  0  0
  -18.2640   11.8930   20.3390 O   0  0  0  0  0  0  0  0  0  0  0  0
  -18.1680   13.9810   19.2330 C   0  0  2  0  0  0  0  0  0  0  0  0
  -16.7730   13.6500   18.5840 C   0  0  0  0  0  0  0  0  0  0  0  0
  -16.1600   15.1410   18.4940 C   0  0  0  0  0  0  0  0  0  0  0  0
  -16.8040   15.8710   19.6450 C   0  0  0  0  0  0  0  0  0  0  0  0
  -17.8330   14.9540   20.1170 N   0  0  0  0  0  0  0  0  0  0  0  0
  -18.4330   15.0820   21.4280 C   0  0  0  0  0  0  0  0  0  0  0  0
  -18.0740   15.9950   22.1890 O   0  0  0  0  0  0  0  0  0  0  0  0
  -19.4760   14.1100   21.9430 C   0  0  2  0  0  0  0  0  0  0  0  0
  -19.0900   13.4480   23.2650 C   0  0  0  0  0  0  0  0  0  0  0  0
  -20.2130   12.6920   23.9710 C   0  0  0  0  0  0  0  0  0  0  0  0
  -20.0320   11.3240   24.2750 C   0  0  0  0  0  0  0  0  0  0  0  0
  -21.0430   10.6100   24.9240 C   0  0  0  0  0  0  0  0  0  0  0  0
  -22.2260   11.2680   25.2900 C   0  0  0  0  0  0  0  0  0  0  0  0
  -22.4160   12.6290   25.0290 C   0  0  0  0  0  0  0  0  0  0  0  0
  -21.4010   13.3480   24.3720 C   0  0  0  0  0  0  0  0  0  0  0  0
  -23.1448    9.0712   22.0964 H   0  0  0  0  0  0  0  0  0  0  0  0
  -21.4652    8.5359   22.4980 H   0  0  0  0  0  0  0  0  0  0  0  0
  -23.7130    6.9506   21.4329 H   0  0  0  0  0  0  0  0  0  0  0  0
  -23.7823    8.6701   24.2721 H   0  0  0  0  0  0  0  0  0  0  0  0
  -24.8742    7.8570   26.4318 H   0  0  0  0  0  0  0  0  0  0  0  0
  -25.1422    5.3843   26.8304 H   0  0  0  0  0  0  0  0  0  0  0  0
  -24.6861    2.8270   25.5324 H   0  0  0  0  0  0  0  0  0  0  0  0
  -23.5318    2.0681   23.3173 H   0  0  0  0  0  0  0  0  0  0  0  0
  -21.9412    3.6490   21.4737 H   0  0  0  0  0  0  0  0  0  0  0  0
  -23.4459    4.4746   20.8834 H   0  0  0  0  0  0  0  0  0  0  0  0
  -21.0609    5.7975   22.2884 H   0  0  0  0  0  0  0  0  0  0  0  0
  -19.5747    5.0377   20.9016 H   0  0  0  0  0  0  0  0  0  0  0  0
  -20.2640    4.3992   19.3706 H   0  0  0  0  0  0  0  0  0  0  0  0
  -19.3628    5.9531   19.3706 H   0  0  0  0  0  0  0  0  0  0  0  0
  -19.9725    7.6885   20.3470 H   0  0  0  0  0  0  0  0  0  0  0  0
  -21.0054    7.5498   18.8067 H   0  0  0  0  0  0  0  0  0  0  0  0
  -22.8374    8.4626   19.7953 H   0  0  0  0  0  0  0  0  0  0  0  0
  -22.8727   10.6974   19.0788 H   0  0  0  0  0  0  0  0  0  0  0  0
  -23.0013   13.6078   18.7375 H   0  0  0  0  0  0  0  0  0  0  0  0
  -21.5963   13.6157   17.6183 H   0  0  0  0  0  0  0  0  0  0  0  0
  -22.7369   12.2280   17.6183 H   0  0  0  0  0  0  0  0  0  0  0  0
  -18.2986   11.9342   21.3275 H   0  0  0  0  0  0  0  0  0  0  0  0
  -18.8763   14.2548   18.4371 H   0  0  0  0  0  0  0  0  0  0  0  0
  -16.1664   12.9951   19.2268 H   0  0  0  0  0  0  0  0  0  0  0  0
  -16.8183   13.1042   17.6300 H   0  0  0  0  0  0  0  0  0  0  0  0
  -15.0660   15.1213   18.6067 H   0  0  0  0  0  0  0  0  0  0  0  0
  -16.3574   15.6218   17.5245 H   0  0  0  0  0  0  0  0  0  0  0  0
  -16.0694   16.0750   20.4379 H   0  0  0  0  0  0  0  0  0  0  0  0
  -17.2132   16.8482   19.3489 H   0  0  0  0  0  0  0  0  0  0  0  0
  -20.3860   14.5896   22.3327 H   0  0  0  0  0  0  0  0  0  0  0  0
  -18.2761   12.7360   23.0632 H   0  0  0  0  0  0  0  0  0  0  0  0
  -18.8034   14.2665   23.9417 H   0  0  0  0  0  0  0  0  0  0  0  0
  -19.0936   10.8201   24.0003 H   0  0  0  0  0  0  0  0  0  0  0  0
  -20.9118    9.5406   25.1459 H   0  0  0  0  0  0  0  0  0  0  0  0
  -23.0227   10.7010   25.7938 H   0  0  0  0  0  0  0  0  0  0  0  0
  -23.3466   13.1303   25.3334 H   0  0  0  0  0  0  0  0  0  0  0  0
  -21.5309   14.4214   24.1697 H   0  0  0  0  0  0  0  0  0  0  0  0
  1  2  1  0
  2  3  1  0
  3  4  2  0
  3  5  1  0
  5  6  2  0
  6  7  1  0
  4  8  1  0
  7  8  2  0
  8  9  1  0
  9 10  1  0
  4 11  1  0
 10 11  2  0
 11 12  1  0
  2 13  1  0
 12 13  1  0
 13 14  1  0
 14 15  1  0
 14 16  1  0
  1 17  1  0
 16 17  1  0
 17 18  1  0
 18 19  2  0
 18 20  1  0
 21 20  1  1
 21 22  1  0
 21 23  1  0
 21 24  1  0
 24 25  2  0
 24 26  1  0
 23 27  1  0
 26 27  1  0
 27 28  1  1
 27 29  1  0
 29 30  1  0
 30 31  1  0
 31 32  1  0
 29 33  1  0
 32 33  1  0
 33 34  1  0
 34 35  2  0
 26 36  1  0
 34 36  1  0
 36 37  1  0
 37 38  1  0
 38 39  2  0
 39 40  1  0
 40 41  2  0
 41 42  1  0
 38 43  1  0
 42 43  2  0
  1 44  1  0
  1 45  1  0
  2 46  1  6
  5 47  1  0
  6 48  1  0
  7 49  1  0
  9 50  1  0
 10 51  1  0
 12 52  1  0
 12 53  1  0
 13 54  1  1
 15 55  1  0
 15 56  1  0
 15 57  1  0
 16 58  1  0
 16 59  1  0
 17 60  1  6
 20 61  1  0
 22 62  1  0
 22 63  1  0
 22 64  1  0
 28 65  1  0
 29 66  1  6
 30 67  1  0
 30 68  1  0
 31 69  1  0
 31 70  1  0
 32 71  1  0
 32 72  1  0
 36 73  1  1
 37 74  1  0
 37 75  1  0
 39 76  1  0
 40 77  1  0
 41 78  1  0
 42 79  1  0
 43 80  1  0
M  END
>  <PDBID>  (1) 
4IAQ

>  <PDB ID>  (1) 
4IAQ

>  <Generic Name>  (1) 
Dihydroergotamine

>  <Brand Name>  (1) 
D.H.E. 45#Dihydroergotamine (dhe), 1mg/ml#Dihydroergotamine Mesylate#Dihydroergotamine Mesylate Injection USP#Migranal#Migranal Nasal Spray 4mg/ml#PMS-dihydroergotamine#Dihydergot#Ergont#Ergotonin#Ikaran#Orstanorm#Verladyn

>  <DrugBank ID>  (1) 
DB00320

>  <ATC Codes>  (1) 
N02CA01#N02CA51

>  <Ligand ID>  (1) 
2GM

>  <Target Name>  (1) 
5-hydroxytryptamine receptor 1D

>  <UniProt ID>  (1) 
P28221

>  <PDB ID.1>  (1) 
4IAQ

>  <Seq. Identity>  (1) 
55%

$$$$
