PDB_DB01072_98
     RDKit          3D

103105  0  0  0  0  0  0  0  0999 V2000
   19.9960   24.6420   15.9400 C   0  0  0  0  0  0  0  0  0  0  0  0
   18.6010   24.7680   16.2440 O   0  0  0  0  0  0  0  0  0  0  0  0
   18.0660   23.9900   17.3300 C   0  0  0  0  0  0  0  0  0  0  0  0
   18.8570   23.4040   18.0640 O   0  0  0  0  0  0  0  0  0  0  0  0
   16.7420   23.9590   17.4700 N   0  0  0  0  0  0  0  0  0  0  0  0
   16.0550   23.2110   18.5180 C   0  0  1  0  0  0  0  0  0  0  0  0
   15.6220   24.1410   19.6690 C   0  0  0  0  0  0  0  0  0  0  0  0
   14.8510   25.3620   19.1550 C   0  0  0  0  0  0  0  0  0  0  0  0
   14.7800   23.3760   20.6930 C   0  0  0  0  0  0  0  0  0  0  0  0
   16.8360   24.6950   20.4060 C   0  0  0  0  0  0  0  0  0  0  0  0
   14.9460   22.4340   17.8320 C   0  0  0  0  0  0  0  0  0  0  0  0
   13.8950   22.9880   17.5010 O   0  0  0  0  0  0  0  0  0  0  0  0
   15.2360   21.1330   17.5810 N   0  0  0  0  0  0  0  0  0  0  0  0
   14.3530   20.1860   16.8830 C   0  0  1  0  0  0  0  0  0  0  0  0
   15.0910   19.7310   15.6190 C   0  0  0  0  0  0  0  0  0  0  0  0
   15.5160   20.9260   14.7900 C   0  0  0  0  0  0  0  0  0  0  0  0
   14.5530   21.6110   14.0390 C   0  0  0  0  0  0  0  0  0  0  0  0
   14.9390   22.7120   13.2720 C   0  0  0  0  0  0  0  0  0  0  0  0
   16.2720   23.1330   13.2480 C   0  0  0  0  0  0  0  0  0  0  0  0
   17.2340   22.4490   13.9910 C   0  0  0  0  0  0  0  0  0  0  0  0
   16.8530   21.3450   14.7570 C   0  0  0  0  0  0  0  0  0  0  0  0
   14.1300   18.9750   17.7880 C   0  0  1  0  0  0  0  0  0  0  0  0
   15.3430   18.3350   18.2380 O   0  0  0  0  0  0  0  0  0  0  0  0
   13.4270   19.5100   18.9990 C   0  0  0  0  0  0  0  0  0  0  0  0
   12.0240   19.1580   19.0510 N   0  0  0  0  0  0  0  0  0  0  0  0
   11.2680   18.3190   18.1710 N   0  0  0  0  0  0  0  0  0  0  0  0
   10.5070   18.6270   17.1130 C   0  0  0  0  0  0  0  0  0  0  0  0
   10.3380   19.7450   16.6320 O   0  0  0  0  0  0  0  0  0  0  0  0
    9.7910   17.4260   16.5440 C   0  0  2  0  0  0  0  0  0  0  0  0
    9.8220   17.2830   15.0160 C   0  0  0  0  0  0  0  0  0  0  0  0
   11.2620   17.4200   14.5270 C   0  0  0  0  0  0  0  0  0  0  0  0
    9.3190   15.8950   14.6260 C   0  0  0  0  0  0  0  0  0  0  0  0
    8.9460   18.3060   14.2990 C   0  0  0  0  0  0  0  0  0  0  0  0
    8.4160   17.4600   17.0610 N   0  0  0  0  0  0  0  0  0  0  0  0
    7.8660   16.4210   17.6960 C   0  0  0  0  0  0  0  0  0  0  0  0
    8.4370   15.3410   17.9260 O   0  0  0  0  0  0  0  0  0  0  0  0
    6.5120   16.6080   18.1490 O   0  0  0  0  0  0  0  0  0  0  0  0
    5.9140   15.6250   18.9930 C   0  0  0  0  0  0  0  0  0  0  0  0
   11.4270   19.6170   20.3090 C   0  0  0  0  0  0  0  0  0  0  0  0
    9.9240   19.7340   20.2450 C   0  0  0  0  0  0  0  0  0  0  0  0
    9.3950   20.9700   19.9050 C   0  0  0  0  0  0  0  0  0  0  0  0
    8.0150   21.1300   19.8370 C   0  0  0  0  0  0  0  0  0  0  0  0
    9.0890   18.6560   20.5260 C   0  0  0  0  0  0  0  0  0  0  0  0
    7.7010   18.8210   20.4470 C   0  0  0  0  0  0  0  0  0  0  0  0
    7.1570   20.0630   20.1090 C   0  0  0  0  0  0  0  0  0  0  0  0
    5.6730   20.2450   20.0080 C   0  0  0  0  0  0  0  0  0  0  0  0
    5.1410   21.1270   19.0610 C   0  0  0  0  0  0  0  0  0  0  0  0
    3.7590   21.2810   18.9690 C   0  0  0  0  0  0  0  0  0  0  0  0
    2.9350   20.5490   19.8220 C   0  0  0  0  0  0  0  0  0  0  0  0
    3.5030   19.6770   20.7510 C   0  0  0  0  0  0  0  0  0  0  0  0
    4.8380   19.5490   20.8240 N   0  0  0  0  0  0  0  0  0  0  0  0
   20.5719   24.5900   16.8757 H   0  0  0  0  0  0  0  0  0  0  0  0
   20.1625   23.7252   15.3555 H   0  0  0  0  0  0  0  0  0  0  0  0
   20.3241   25.5142   15.3555 H   0  0  0  0  0  0  0  0  0  0  0  0
   16.1702   24.4934   16.8004 H   0  0  0  0  0  0  0  0  0  0  0  0
   16.7053   22.4847   19.0274 H   0  0  0  0  0  0  0  0  0  0  0  0
   14.4809   25.9481   20.0091 H   0  0  0  0  0  0  0  0  0  0  0  0
   15.5188   25.9866   18.5435 H   0  0  0  0  0  0  0  0  0  0  0  0
   14.0000   25.0275   18.5435 H   0  0  0  0  0  0  0  0  0  0  0  0
   15.0918   23.6593   21.7091 H   0  0  0  0  0  0  0  0  0  0  0  0
   13.7176   23.6242   20.5529 H   0  0  0  0  0  0  0  0  0  0  0  0
   14.9255   22.2947   20.5529 H   0  0  0  0  0  0  0  0  0  0  0  0
   16.6719   24.6201   21.4911 H   0  0  0  0  0  0  0  0  0  0  0  0
   17.7289   24.1152   20.1294 H   0  0  0  0  0  0  0  0  0  0  0  0
   16.9832   25.7494   20.1294 H   0  0  0  0  0  0  0  0  0  0  0  0
   16.1476   20.7798   17.9052 H   0  0  0  0  0  0  0  0  0  0  0  0
   13.3858   20.6464   16.6328 H   0  0  0  0  0  0  0  0  0  0  0  0
   15.9831   19.1562   15.9084 H   0  0  0  0  0  0  0  0  0  0  0  0
   14.4137   19.1059   15.0186 H   0  0  0  0  0  0  0  0  0  0  0  0
   13.5025   21.2849   14.0531 H   0  0  0  0  0  0  0  0  0  0  0  0
   14.1864   23.2539   12.6804 H   0  0  0  0  0  0  0  0  0  0  0  0
   16.5623   24.0044   12.6427 H   0  0  0  0  0  0  0  0  0  0  0  0
   18.2840   22.7763   13.9738 H   0  0  0  0  0  0  0  0  0  0  0  0
   17.6095   20.7992   15.3399 H   0  0  0  0  0  0  0  0  0  0  0  0
   13.5731   18.2150   17.2202 H   0  0  0  0  0  0  0  0  0  0  0  0
   15.3630   18.3245   19.2277 H   0  0  0  0  0  0  0  0  0  0  0  0
   13.9211   19.1072   19.8955 H   0  0  0  0  0  0  0  0  0  0  0  0
   13.4851   20.6074   18.9501 H   0  0  0  0  0  0  0  0  0  0  0  0
   11.3176   17.3132   18.3872 H   0  0  0  0  0  0  0  0  0  0  0  0
   10.3363   16.5293   16.8736 H   0  0  0  0  0  0  0  0  0  0  0  0
   11.9384   17.4844   15.3920 H   0  0  0  0  0  0  0  0  0  0  0  0
   11.5275   16.5431   13.9183 H   0  0  0  0  0  0  0  0  0  0  0  0
   11.3574   18.3313   13.9183 H   0  0  0  0  0  0  0  0  0  0  0  0
    9.1080   15.3127   15.5350 H   0  0  0  0  0  0  0  0  0  0  0  0
    8.3989   15.9922   14.0310 H   0  0  0  0  0  0  0  0  0  0  0  0
   10.0877   15.3802   14.0310 H   0  0  0  0  0  0  0  0  0  0  0  0
    8.4185   18.9220   15.0421 H   0  0  0  0  0  0  0  0  0  0  0  0
    9.5762   18.9509   13.6690 H   0  0  0  0  0  0  0  0  0  0  0  0
    8.2118   17.7826   13.6690 H   0  0  0  0  0  0  0  0  0  0  0  0
    7.8565   18.3147   16.9293 H   0  0  0  0  0  0  0  0  0  0  0  0
    6.0791   15.8965   20.0461 H   0  0  0  0  0  0  0  0  0  0  0  0
    4.8336   15.5772   18.7918 H   0  0  0  0  0  0  0  0  0  0  0  0
    6.3683   14.6436   18.7918 H   0  0  0  0  0  0  0  0  0  0  0  0
   11.6886   18.9010   21.1020 H   0  0  0  0  0  0  0  0  0  0  0  0
   11.8251   20.6221   20.5125 H   0  0  0  0  0  0  0  0  0  0  0  0
   10.0621   21.8179   19.6906 H   0  0  0  0  0  0  0  0  0  0  0  0
    7.5945   22.1095   19.5655 H   0  0  0  0  0  0  0  0  0  0  0  0
    9.5164   17.6824   20.8078 H   0  0  0  0  0  0  0  0  0  0  0  0
    7.0358   17.9693   20.6519 H   0  0  0  0  0  0  0  0  0  0  0  0
    5.8079   21.6940   18.3948 H   0  0  0  0  0  0  0  0  0  0  0  0
    3.3238   21.9720   18.2320 H   0  0  0  0  0  0  0  0  0  0  0  0
    1.8420   20.6583   19.7630 H   0  0  0  0  0  0  0  0  0  0  0  0
    2.8572   19.0940   21.4241 H   0  0  0  0  0  0  0  0  0  0  0  0
  1  2  1  0
  2  3  1  0
  3  4  2  0
  3  5  1  0
  5  6  1  0
  6  7  1  0
  7  8  1  0
  7  9  1  0
  7 10  1  0
  6 11  1  0
 11 12  2  0
 11 13  1  0
 13 14  1  0
 14 15  1  0
 15 16  1  0
 16 17  2  0
 17 18  1  0
 18 19  2  0
 19 20  1  0
 16 21  1  0
 20 21  2  0
 14 22  1  0
 22 23  1  0
 22 24  1  0
 24 25  1  0
 25 26  1  0
 26 27  1  0
 27 28  2  0
 27 29  1  0
 29 30  1  0
 30 31  1  0
 30 32  1  0
 30 33  1  0
 29 34  1  0
 34 35  1  0
 35 36  2  0
 35 37  1  0
 37 38  1  0
 25 39  1  0
 39 40  1  0
 40 41  2  0
 41 42  1  0
 40 43  1  0
 43 44  2  0
 42 45  2  0
 44 45  1  0
 45 46  1  0
 46 47  2  0
 47 48  1  0
 48 49  2  0
 49 50  1  0
 46 51  1  0
 50 51  2  0
  1 52  1  0
  1 53  1  0
  1 54  1  0
  5 55  1  0
  6 56  1  1
  8 57  1  0
  8 58  1  0
  8 59  1  0
  9 60  1  0
  9 61  1  0
  9 62  1  0
 10 63  1  0
 10 64  1  0
 10 65  1  0
 13 66  1  0
 14 67  1  6
 15 68  1  0
 15 69  1  0
 17 70  1  0
 18 71  1  0
 19 72  1  0
 20 73  1  0
 21 74  1  0
 22 75  1  6
 23 76  1  0
 24 77  1  0
 24 78  1  0
 26 79  1  0
 29 80  1  1
 31 81  1  0
 31 82  1  0
 31 83  1  0
 32 84  1  0
 32 85  1  0
 32 86  1  0
 33 87  1  0
 33 88  1  0
 33 89  1  0
 34 90  1  0
 38 91  1  0
 38 92  1  0
 38 93  1  0
 39 94  1  0
 39 95  1  0
 41 96  1  0
 42 97  1  0
 43 98  1  0
 44 99  1  0
 47100  1  0
 48101  1  0
 49102  1  0
 50103  1  0
M  END
>  <PDBID>  (1) 
2O4K

>  <PDB ID>  (1) 
2O4K

>  <Generic Name>  (1) 
Atazanavir

>  <Brand Name>  (1) 
Evotaz#Reyataz#Latazanavir#Zrivada

>  <DrugBank ID>  (1) 
DB01072

>  <ATC Codes>  (1) 
J05AE08#J05AR15

>  <Ligand ID>  (1) 
DR7

>  <Target Name>  (1) 
Pol polyprotein

>  <UniProt ID>  (1) 
Q72874

>  <PDB ID.1>  (1) 
2O4K

>  <Seq. Identity>  (1) 
98%

$$$$
