PDB_DB00481_95
     RDKit          3D

 61 65  0  0  0  0  0  0  0  0999 V2000
  -35.1830   44.6710   -1.2360 C   0  0  0  0  0  0  0  0  0  0  0  0
  -36.0880   45.6920   -0.9970 C   0  0  0  0  0  0  0  0  0  0  0  0
  -37.4430   45.5280   -1.2530 C   0  0  0  0  0  0  0  0  0  0  0  0
  -38.2900   46.5600   -1.0040 O   0  0  0  0  0  0  0  0  0  0  0  0
  -37.9320   44.3160   -1.7510 C   0  0  0  0  0  0  0  0  0  0  0  0
  -37.0540   43.2680   -1.9960 C   0  0  0  0  0  0  0  0  0  0  0  0
  -37.5130   41.7690   -2.6360 S   0  0  0  0  0  0  0  0  0  0  0  0
  -35.9080   41.1790   -2.5530 C   0  0  0  0  0  0  0  0  0  0  0  0
  -35.6160   39.8210   -3.0600 C   0  0  0  0  0  0  0  0  0  0  0  0
  -34.7840   38.9730   -2.3520 C   0  0  0  0  0  0  0  0  0  0  0  0
  -34.4660   37.7160   -2.8470 C   0  0  0  0  0  0  0  0  0  0  0  0
  -34.9490   37.3090   -4.0840 C   0  0  0  0  0  0  0  0  0  0  0  0
  -34.6040   36.0750   -4.5720 O   0  0  0  0  0  0  0  0  0  0  0  0
  -35.7720   38.1740   -4.8130 C   0  0  0  0  0  0  0  0  0  0  0  0
  -36.0950   39.4350   -4.3080 C   0  0  0  0  0  0  0  0  0  0  0  0
  -35.6410   43.4710   -1.7200 C   0  0  0  0  0  0  0  0  0  0  0  0
  -34.9870   42.2110   -2.0870 C   0  0  0  0  0  0  0  0  0  0  0  0
  -33.5310   42.0180   -1.9340 C   0  0  0  0  0  0  0  0  0  0  0  0
  -32.8350   41.9720   -2.9230 O   0  0  0  0  0  0  0  0  0  0  0  0
  -32.9310   41.8340   -0.5840 C   0  0  0  0  0  0  0  0  0  0  0  0
  -33.7450   41.5550    0.4920 C   0  0  0  0  0  0  0  0  0  0  0  0
  -33.1970   41.3750    1.7460 C   0  0  0  0  0  0  0  0  0  0  0  0
  -31.8280   41.4690    1.9390 C   0  0  0  0  0  0  0  0  0  0  0  0
  -30.9980   41.7440    0.8590 C   0  0  0  0  0  0  0  0  0  0  0  0
  -31.5580   41.9220   -0.4030 C   0  0  0  0  0  0  0  0  0  0  0  0
  -31.3740   41.2630    3.2020 O   0  0  0  0  0  0  0  0  0  0  0  0
  -30.0420   41.5210    3.6460 C   0  0  0  0  0  0  0  0  0  0  0  0
  -29.8920   40.9400    5.0440 C   0  0  0  0  0  0  0  0  0  0  0  0
  -30.4090   41.8920    6.0470 N   0  0  0  0  0  0  0  0  0  0  0  0
  -31.8880   41.8220    6.1220 C   0  0  0  0  0  0  0  0  0  0  0  0
  -32.4910   42.4250    7.3870 C   0  0  0  0  0  0  0  0  0  0  0  0
  -31.7410   41.9950    8.6350 C   0  0  0  0  0  0  0  0  0  0  0  0
  -30.2850   42.3940    8.4690 C   0  0  0  0  0  0  0  0  0  0  0  0
  -29.7150   41.5830    7.3200 C   0  0  0  0  0  0  0  0  0  0  0  0
  -34.1108   44.8200   -1.0404 H   0  0  0  0  0  0  0  0  0  0  0  0
  -35.7266   46.6508   -0.5969 H   0  0  0  0  0  0  0  0  0  0  0  0
  -39.2588   46.4590   -1.1812 H   0  0  0  0  0  0  0  0  0  0  0  0
  -39.0073   44.1933   -1.9478 H   0  0  0  0  0  0  0  0  0  0  0  0
  -34.3699   39.2982   -1.3862 H   0  0  0  0  0  0  0  0  0  0  0  0
  -33.8293   37.0398   -2.2577 H   0  0  0  0  0  0  0  0  0  0  0  0
  -34.9445   35.7782   -5.4529 H   0  0  0  0  0  0  0  0  0  0  0  0
  -36.1671   37.8588   -5.7900 H   0  0  0  0  0  0  0  0  0  0  0  0
  -36.7252   40.1201   -4.8941 H   0  0  0  0  0  0  0  0  0  0  0  0
  -34.8331   41.4756    0.3515 H   0  0  0  0  0  0  0  0  0  0  0  0
  -33.8535   41.1547    2.6007 H   0  0  0  0  0  0  0  0  0  0  0  0
  -29.9097   41.8203    0.9998 H   0  0  0  0  0  0  0  0  0  0  0  0
  -30.9068   42.1341   -1.2638 H   0  0  0  0  0  0  0  0  0  0  0  0
  -29.3223   41.0442    2.9643 H   0  0  0  0  0  0  0  0  0  0  0  0
  -29.8462   42.6034    3.6588 H   0  0  0  0  0  0  0  0  0  0  0  0
  -30.4581   39.9991    5.1097 H   0  0  0  0  0  0  0  0  0  0  0  0
  -28.8268   40.7505    5.2428 H   0  0  0  0  0  0  0  0  0  0  0  0
  -32.3009   42.3595    5.2556 H   0  0  0  0  0  0  0  0  0  0  0  0
  -32.1485   40.7533    6.1323 H   0  0  0  0  0  0  0  0  0  0  0  0
  -32.4537   43.5217    7.3104 H   0  0  0  0  0  0  0  0  0  0  0  0
  -33.5276   42.0673    7.4733 H   0  0  0  0  0  0  0  0  0  0  0  0
  -32.1668   42.4953    9.5173 H   0  0  0  0  0  0  0  0  0  0  0  0
  -31.8253   40.9073    8.7755 H   0  0  0  0  0  0  0  0  0  0  0  0
  -30.2140   43.4679    8.2416 H   0  0  0  0  0  0  0  0  0  0  0  0
  -29.7234   42.2000    9.3947 H   0  0  0  0  0  0  0  0  0  0  0  0
  -29.8347   40.5125    7.5428 H   0  0  0  0  0  0  0  0  0  0  0  0
  -28.6514   41.8402    7.2072 H   0  0  0  0  0  0  0  0  0  0  0  0
  1  2  2  0
  2  3  1  0
  3  4  1  0
  3  5  2  0
  5  6  1  0
  6  7  1  0
  7  8  1  0
  8  9  1  0
  9 10  2  0
 10 11  1  0
 11 12  2  0
 12 13  1  0
 12 14  1  0
  9 15  1  0
 14 15  2  0
  1 16  1  0
  6 16  2  0
  8 17  2  0
 16 17  1  0
 17 18  1  0
 18 19  2  0
 18 20  1  0
 20 21  2  0
 21 22  1  0
 22 23  2  0
 23 24  1  0
 20 25  1  0
 24 25  2  0
 23 26  1  0
 26 27  1  0
 27 28  1  0
 28 29  1  0
 29 30  1  0
 30 31  1  0
 31 32  1  0
 32 33  1  0
 29 34  1  0
 33 34  1  0
  1 35  1  0
  2 36  1  0
  4 37  1  0
  5 38  1  0
 10 39  1  0
 11 40  1  0
 13 41  1  0
 14 42  1  0
 15 43  1  0
 21 44  1  0
 22 45  1  0
 24 46  1  0
 25 47  1  0
 27 48  1  0
 27 49  1  0
 28 50  1  0
 28 51  1  0
 30 52  1  0
 30 53  1  0
 31 54  1  0
 31 55  1  0
 32 56  1  0
 32 57  1  0
 33 58  1  0
 33 59  1  0
 34 60  1  0
 34 61  1  0
M  END
$$$$
