PDB_DB00841_98
     RDKit          3D

114116  0  0  0  0  0  0  0  0999 V2000
  -33.5220  -16.7340   26.4430 O   0  0  0  0  0  0  0  0  0  0  0  0
  -32.2280  -16.4850   26.1290 C   0  0  0  0  0  0  0  0  0  0  0  0
  -31.2120  -16.8670   27.0040 C   0  0  0  0  0  0  0  0  0  0  0  0
  -29.8810  -16.6070   26.6800 C   0  0  0  0  0  0  0  0  0  0  0  0
  -31.9330  -15.8580   24.9250 C   0  0  0  0  0  0  0  0  0  0  0  0
  -30.6050  -15.5980   24.5990 C   0  0  0  0  0  0  0  0  0  0  0  0
  -29.5740  -15.9710   25.4700 C   0  0  0  0  0  0  0  0  0  0  0  0
  -28.1440  -15.6560   25.0670 C   0  0  0  0  0  0  0  0  0  0  0  0
  -27.1130  -16.4000   25.9070 C   0  0  0  0  0  0  0  0  0  0  0  0
  -25.7030  -16.2750   25.3380 C   0  0  1  0  0  0  0  0  0  0  0  0
  -25.5270  -17.0340   24.0230 C   0  0  0  0  0  0  0  0  0  0  0  0
  -25.3200  -14.8850   25.1950 N   0  0  0  0  0  0  0  0  0  0  0  0
  -23.9270  -14.5370   25.4320 C   0  0  0  0  0  0  0  0  0  0  0  0
  -23.7480  -13.0640   25.7580 C   0  0  0  0  0  0  0  0  0  0  0  0
  -22.3020  -12.6950   25.9880 C   0  0  0  0  0  0  0  0  0  0  0  0
  -21.6360  -13.1460   27.1290 C   0  0  0  0  0  0  0  0  0  0  0  0
  -20.3130  -12.7830   27.3140 C   0  0  0  0  0  0  0  0  0  0  0  0
  -19.6270  -13.2020   28.4070 O   0  0  0  0  0  0  0  0  0  0  0  0
  -19.6380  -11.9290   26.3120 C   0  0  0  0  0  0  0  0  0  0  0  0
  -18.3360  -11.5840   26.5010 O   0  0  0  0  0  0  0  0  0  0  0  0
  -20.3320  -11.4940   25.1930 C   0  0  0  0  0  0  0  0  0  0  0  0
  -21.6560  -11.8850   25.0390 C   0  0  0  0  0  0  0  0  0  0  0  0
   19.1340  -13.6700   17.4500 O   0  0  0  0  0  0  0  0  0  0  0  0
   17.8230  -13.3350   17.4550 C   0  0  0  0  0  0  0  0  0  0  0  0
   17.2050  -13.0090   16.2540 C   0  0  0  0  0  0  0  0  0  0  0  0
   15.8570  -12.6640   16.2310 C   0  0  0  0  0  0  0  0  0  0  0  0
   17.1060  -13.3260   18.6440 C   0  0  0  0  0  0  0  0  0  0  0  0
   15.7510  -12.9750   18.6300 C   0  0  0  0  0  0  0  0  0  0  0  0
   15.1290  -12.6450   17.4210 C   0  0  0  0  0  0  0  0  0  0  0  0
   13.6730  -12.2560   17.3700 C   0  0  0  0  0  0  0  0  0  0  0  0
   12.8230  -13.4060   17.8610 C   0  0  0  0  0  0  0  0  0  0  0  0
   11.3440  -13.1370   17.6730 C   0  0  1  0  0  0  0  0  0  0  0  0
   10.6410  -14.4870   17.6280 C   0  0  0  0  0  0  0  0  0  0  0  0
   10.8430  -12.3160   18.7750 N   0  0  0  0  0  0  0  0  0  0  0  0
    9.5330  -11.6930   18.7570 C   0  0  0  0  0  0  0  0  0  0  0  0
    9.3420  -10.7360   19.9350 C   0  0  0  0  0  0  0  0  0  0  0  0
    7.8970  -10.2690   19.9950 C   0  0  0  0  0  0  0  0  0  0  0  0
    7.3320   -9.6850   18.8550 C   0  0  0  0  0  0  0  0  0  0  0  0
    6.0110   -9.2630   18.8760 C   0  0  0  0  0  0  0  0  0  0  0  0
    5.4340   -8.6920   17.7910 O   0  0  0  0  0  0  0  0  0  0  0  0
    5.2260   -9.4370   20.1170 C   0  0  0  0  0  0  0  0  0  0  0  0
    3.9430   -9.0150   20.1110 O   0  0  0  0  0  0  0  0  0  0  0  0
    5.8150  -10.0220   21.2460 C   0  0  0  0  0  0  0  0  0  0  0  0
    7.1470  -10.4340   21.1700 C   0  0  0  0  0  0  0  0  0  0  0  0
  -33.6248  -16.7538   27.4275 H   0  0  0  0  0  0  0  0  0  0  0  0
  -32.2939  -15.5088   26.6317 H   0  0  0  0  0  0  0  0  0  0  0  0
  -31.4105  -16.3628   27.9613 H   0  0  0  0  0  0  0  0  0  0  0  0
  -31.2662  -17.9656   26.9917 H   0  0  0  0  0  0  0  0  0  0  0  0
  -29.4739  -15.9766   27.4843 H   0  0  0  0  0  0  0  0  0  0  0  0
  -29.4451  -17.6099   26.5608 H   0  0  0  0  0  0  0  0  0  0  0  0
  -32.3415  -16.4923   24.1245 H   0  0  0  0  0  0  0  0  0  0  0  0
  -32.3739  -14.8566   25.0383 H   0  0  0  0  0  0  0  0  0  0  0  0
  -30.4096  -16.1062   23.6432 H   0  0  0  0  0  0  0  0  0  0  0  0
  -30.5568  -14.4992   24.6142 H   0  0  0  0  0  0  0  0  0  0  0  0
  -29.5077  -16.9498   24.9724 H   0  0  0  0  0  0  0  0  0  0  0  0
  -28.0065  -15.9374   24.0125 H   0  0  0  0  0  0  0  0  0  0  0  0
  -27.9855  -14.5794   25.2277 H   0  0  0  0  0  0  0  0  0  0  0  0
  -27.1213  -15.9855   26.9259 H   0  0  0  0  0  0  0  0  0  0  0  0
  -27.3834  -17.4663   25.9047 H   0  0  0  0  0  0  0  0  0  0  0  0
  -25.0268  -16.7478   26.0655 H   0  0  0  0  0  0  0  0  0  0  0  0
  -25.2832  -18.0852   24.2362 H   0  0  0  0  0  0  0  0  0  0  0  0
  -26.4605  -16.9844   23.4432 H   0  0  0  0  0  0  0  0  0  0  0  0
  -24.7106  -16.5786   23.4432 H   0  0  0  0  0  0  0  0  0  0  0  0
  -25.5479  -14.6012   24.2315 H   0  0  0  0  0  0  0  0  0  0  0  0
  -23.5519  -15.1342   26.2762 H   0  0  0  0  0  0  0  0  0  0  0  0
  -23.3659  -14.7481   24.5097 H   0  0  0  0  0  0  0  0  0  0  0  0
  -24.1353  -12.4673   24.9190 H   0  0  0  0  0  0  0  0  0  0  0  0
  -24.2979  -12.8580   26.6882 H   0  0  0  0  0  0  0  0  0  0  0  0
  -22.6187  -11.7917   26.5299 H   0  0  0  0  0  0  0  0  0  0  0  0
  -22.1979  -12.7760   27.9993 H   0  0  0  0  0  0  0  0  0  0  0  0
  -21.5979  -14.2379   27.0017 H   0  0  0  0  0  0  0  0  0  0  0  0
  -20.6359  -11.8849   27.8609 H   0  0  0  0  0  0  0  0  0  0  0  0
  -20.1018  -12.9120   29.2258 H   0  0  0  0  0  0  0  0  0  0  0  0
  -19.9558  -11.0315   26.8629 H   0  0  0  0  0  0  0  0  0  0  0  0
  -18.1455  -11.5335   27.4712 H   0  0  0  0  0  0  0  0  0  0  0  0
  -20.3184  -10.3942   25.2101 H   0  0  0  0  0  0  0  0  0  0  0  0
  -19.8109  -11.9728   24.3509 H   0  0  0  0  0  0  0  0  0  0  0  0
  -21.7095  -12.4261   24.0828 H   0  0  0  0  0  0  0  0  0  0  0  0
  -22.1949  -10.9313   25.1395 H   0  0  0  0  0  0  0  0  0  0  0  0
   19.4571  -13.7526   18.3822 H   0  0  0  0  0  0  0  0  0  0  0  0
   18.0934  -12.2790   17.6025 H   0  0  0  0  0  0  0  0  0  0  0  0
   17.7575  -12.1549   15.8354 H   0  0  0  0  0  0  0  0  0  0  0  0
   17.2309  -13.9554   15.6940 H   0  0  0  0  0  0  0  0  0  0  0  0
   15.7935  -11.6532   15.8018 H   0  0  0  0  0  0  0  0  0  0  0  0
   15.3927  -13.4809   15.6591 H   0  0  0  0  0  0  0  0  0  0  0  0
   17.1691  -14.3411   19.0632 H   0  0  0  0  0  0  0  0  0  0  0  0
   17.5760  -12.5171   19.2226 H   0  0  0  0  0  0  0  0  0  0  0  0
   15.1972  -13.8274   19.0504 H   0  0  0  0  0  0  0  0  0  0  0  0
   15.7271  -12.0310   19.1941 H   0  0  0  0  0  0  0  0  0  0  0  0
   14.8582  -13.7007   17.2722 H   0  0  0  0  0  0  0  0  0  0  0  0
   13.5061  -11.3777   18.0109 H   0  0  0  0  0  0  0  0  0  0  0  0
   13.3959  -12.0136   16.3335 H   0  0  0  0  0  0  0  0  0  0  0  0
   13.0935  -14.3128   17.3001 H   0  0  0  0  0  0  0  0  0  0  0  0
   13.0118  -13.5338   18.9371 H   0  0  0  0  0  0  0  0  0  0  0  0
   11.1549  -12.5843   16.7409 H   0  0  0  0  0  0  0  0  0  0  0  0
   10.4576  -14.8393   18.6538 H   0  0  0  0  0  0  0  0  0  0  0  0
    9.6822  -14.3837   17.0988 H   0  0  0  0  0  0  0  0  0  0  0  0
   11.2754  -15.2133   17.0988 H   0  0  0  0  0  0  0  0  0  0  0  0
   10.8604  -12.9187   19.6101 H   0  0  0  0  0  0  0  0  0  0  0  0
    9.4196  -11.1298   17.8189 H   0  0  0  0  0  0  0  0  0  0  0  0
    8.7760  -12.4872   18.8359 H   0  0  0  0  0  0  0  0  0  0  0  0
    9.5965  -11.2548   20.8710 H   0  0  0  0  0  0  0  0  0  0  0  0
    9.9987   -9.8636   19.8021 H   0  0  0  0  0  0  0  0  0  0  0  0
    8.2314   -9.2783   20.3368 H   0  0  0  0  0  0  0  0  0  0  0  0
    7.9436   -8.8032   18.6133 H   0  0  0  0  0  0  0  0  0  0  0  0
    7.3235  -10.5086   18.1259 H   0  0  0  0  0  0  0  0  0  0  0  0
    6.3333   -8.2714   19.2264 H   0  0  0  0  0  0  0  0  0  0  0  0
    4.7623   -8.0273   18.0859 H   0  0  0  0  0  0  0  0  0  0  0  0
    5.5509   -8.4442   20.4617 H   0  0  0  0  0  0  0  0  0  0  0  0
    3.6256   -8.9106   21.0429 H   0  0  0  0  0  0  0  0  0  0  0  0
    5.7493   -9.2879   22.0625 H   0  0  0  0  0  0  0  0  0  0  0  0
    5.2536  -10.9576   21.3855 H   0  0  0  0  0  0  0  0  0  0  0  0
    7.1526  -11.5110   21.3938 H   0  0  0  0  0  0  0  0  0  0  0  0
    7.6480   -9.7493   21.8701 H   0  0  0  0  0  0  0  0  0  0  0  0
  1  2  1  0
  2  3  1  0
  3  4  1  0
  2  5  1  0
  5  6  1  0
  4  7  1  0
  6  7  1  0
  7  8  1  0
  8  9  1  0
  9 10  1  0
 10 11  1  0
 10 12  1  0
 12 13  1  0
 13 14  1  0
 14 15  1  0
 15 16  1  0
 16 17  1  0
 17 18  1  0
 17 19  1  0
 19 20  1  0
 19 21  1  0
 15 22  1  0
 21 22  1  0
 23 24  1  0
 24 25  1  0
 25 26  1  0
 24 27  1  0
 27 28  1  0
 26 29  1  0
 28 29  1  0
 29 30  1  0
 30 31  1  0
 31 32  1  0
 32 33  1  0
 32 34  1  0
 34 35  1  0
 35 36  1  0
 36 37  1  0
 37 38  1  0
 38 39  1  0
 39 40  1  0
 39 41  1  0
 41 42  1  0
 41 43  1  0
 37 44  1  0
 43 44  1  0
  1 45  1  0
  2 46  1  0
  3 47  1  0
  3 48  1  0
  4 49  1  0
  4 50  1  0
  5 51  1  0
  5 52  1  0
  6 53  1  0
  6 54  1  0
  7 55  1  0
  8 56  1  0
  8 57  1  0
  9 58  1  0
  9 59  1  0
 10 60  1  1
 11 61  1  0
 11 62  1  0
 11 63  1  0
 12 64  1  0
 13 65  1  0
 13 66  1  0
 14 67  1  0
 14 68  1  0
 15 69  1  0
 16 70  1  0
 16 71  1  0
 17 72  1  0
 18 73  1  0
 19 74  1  0
 20 75  1  0
 21 76  1  0
 21 77  1  0
 22 78  1  0
 22 79  1  0
 23 80  1  0
 24 81  1  0
 25 82  1  0
 25 83  1  0
 26 84  1  0
 26 85  1  0
 27 86  1  0
 27 87  1  0
 28 88  1  0
 28 89  1  0
 29 90  1  0
 30 91  1  0
 30 92  1  0
 31 93  1  0
 31 94  1  0
 32 95  1  6
 33 96  1  0
 33 97  1  0
 33 98  1  0
 34 99  1  0
 35100  1  0
 35101  1  0
 36102  1  0
 36103  1  0
 37104  1  0
 38105  1  0
 38106  1  0
 39107  1  0
 40108  1  0
 41109  1  0
 42110  1  0
 43111  1  0
 43112  1  0
 44113  1  0
 44114  1  0
M  END
>  <PDBID>  (1) 
2Y01

>  <PDB ID>  (1) 
2Y01

>  <Generic Name>  (1) 
Dobutamine

>  <Brand Name>  (1) 
Dobutamine#Dobutamine 12.5mg/ml#Dobutamine Hydrochloride#Dobutamine Hydrochloride In Dextrose#Dobutamine Hydrochloride Injection USP#Dobutamine Hydrochloride Injection-12.5mg/ml#Dobutamine Injection Sdz#Dobutamine Injection USP#Dobutrex#Dobuject#Dobusafe#Dobutamin#Dobutan#Dobutel#Dobutil#Dopmin#Inotrex

>  <DrugBank ID>  (1) 
DB00841

>  <ATC Codes>  (1) 
C01CA07

>  <Ligand ID>  (1) 
Y00

>  <Target Name>  (1) 
Beta-1 adrenergic receptor

>  <UniProt ID>  (1) 
P08588

>  <PDB ID.1>  (1) 
2Y01

>  <Seq. Identity>  (1) 
63%

$$$$
