PDB_DB00783_98
     RDKit          3D

100106  0  0  0  0  0  0  0  0999 V2000
   24.0900   -1.6780    4.2190 C   0  0  0  0  0  0  0  0  0  0  0  0
   23.2930   -1.4200    3.1410 C   0  0  0  0  0  0  0  0  0  0  0  0
   21.9220   -1.5480    3.2700 C   0  0  0  0  0  0  0  0  0  0  0  0
   21.1260   -1.3140    2.2330 O   0  0  0  0  0  0  0  0  0  0  0  0
   21.3740   -1.9090    4.4720 C   0  0  0  0  0  0  0  0  0  0  0  0
   22.1490   -2.1810    5.5330 C   0  0  0  0  0  0  0  0  0  0  0  0
   21.5590   -2.5870    6.8560 C   0  0  0  0  0  0  0  0  0  0  0  0
   22.5210   -3.2610    7.8010 C   0  0  0  0  0  0  0  0  0  0  0  0
   23.7140   -2.3390    7.8950 C   0  0  2  0  0  0  0  0  0  0  0  0
   24.4390   -2.3330    6.5500 C   0  0  1  0  0  0  0  0  0  0  0  0
   23.5800   -2.0420    5.4170 C   0  0  0  0  0  0  0  0  0  0  0  0
   25.6330   -1.3820    6.6570 C   0  0  0  0  0  0  0  0  0  0  0  0
   26.5510   -1.7330    7.8260 C   0  0  0  0  0  0  0  0  0  0  0  0
   25.8280   -1.8770    9.1330 C   0  0  1  0  0  0  0  0  0  0  0  0
   24.6620   -2.8170    8.9250 C   0  0  1  0  0  0  0  0  0  0  0  0
   24.1120   -2.9840   10.3240 C   0  0  0  0  0  0  0  0  0  0  0  0
   25.3880   -2.9350   11.1580 C   0  0  0  0  0  0  0  0  0  0  0  0
   26.5410   -2.6320   10.2050 C   0  0  2  0  0  0  0  0  0  0  0  0
   27.5140   -1.8510   10.8390 O   0  0  0  0  0  0  0  0  0  0  0  0
   25.4310   -0.5040    9.6630 C   0  0  0  0  0  0  0  0  0  0  0  0
   13.1930    6.3290   36.3840 C   0  0  0  0  0  0  0  0  0  0  0  0
   11.8600    6.1970   36.7130 C   0  0  0  0  0  0  0  0  0  0  0  0
   10.8670    6.3850   35.7770 C   0  0  0  0  0  0  0  0  0  0  0  0
    9.5720    6.2390   36.0740 O   0  0  0  0  0  0  0  0  0  0  0  0
   11.2720    6.7000   34.5190 C   0  0  0  0  0  0  0  0  0  0  0  0
   12.5640    6.8500   34.1280 C   0  0  0  0  0  0  0  0  0  0  0  0
   12.9410    7.2000   32.7090 C   0  0  0  0  0  0  0  0  0  0  0  0
   14.3420    7.6890   32.5580 C   0  0  0  0  0  0  0  0  0  0  0  0
   15.2910    6.7540   33.2090 C   0  0  2  0  0  0  0  0  0  0  0  0
   15.0350    6.8360   34.7070 C   0  0  1  0  0  0  0  0  0  0  0  0
   13.6180    6.6490   35.1100 C   0  0  0  0  0  0  0  0  0  0  0  0
   15.9640    5.8840   35.4340 C   0  0  0  0  0  0  0  0  0  0  0  0
   17.4230    6.1330   35.0680 C   0  0  0  0  0  0  0  0  0  0  0  0
   17.6730    6.1420   33.5850 C   0  0  1  0  0  0  0  0  0  0  0  0
   16.7430    7.1440   32.9740 C   0  0  1  0  0  0  0  0  0  0  0  0
   17.2750    7.3540   31.5540 C   0  0  0  0  0  0  0  0  0  0  0  0
   18.7590    7.1060   31.6800 C   0  0  0  0  0  0  0  0  0  0  0  0
   18.9940    6.7010   33.1260 C   0  0  2  0  0  0  0  0  0  0  0  0
   20.0760    5.8230   33.2190 O   0  0  0  0  0  0  0  0  0  0  0  0
   17.4540    4.7430   33.0350 C   0  0  0  0  0  0  0  0  0  0  0  0
   24.7676   -2.4890    3.9137 H   0  0  0  0  0  0  0  0  0  0  0  0
   24.5091   -0.6850    4.4389 H   0  0  0  0  0  0  0  0  0  0  0  0
   23.4916   -0.3821    2.8354 H   0  0  0  0  0  0  0  0  0  0  0  0
   23.5629   -2.2071    2.4215 H   0  0  0  0  0  0  0  0  0  0  0  0
   21.8508   -0.4902    3.5633 H   0  0  0  0  0  0  0  0  0  0  0  0
   20.2290   -1.0503    2.5584 H   0  0  0  0  0  0  0  0  0  0  0  0
   20.7106   -1.0848    4.7729 H   0  0  0  0  0  0  0  0  0  0  0  0
   20.9221   -2.8863    4.2469 H   0  0  0  0  0  0  0  0  0  0  0  0
   22.1036   -1.1248    5.8369 H   0  0  0  0  0  0  0  0  0  0  0  0
   21.1725   -1.6830    7.3494 H   0  0  0  0  0  0  0  0  0  0  0  0
   20.7782   -3.3283    6.6306 H   0  0  0  0  0  0  0  0  0  0  0  0
   22.0585   -3.3921    8.7904 H   0  0  0  0  0  0  0  0  0  0  0  0
   22.8076   -4.2612    7.4440 H   0  0  0  0  0  0  0  0  0  0  0  0
   23.3611   -1.3318    8.1617 H   0  0  0  0  0  0  0  0  0  0  0  0
   24.7954   -3.3520    6.3389 H   0  0  0  0  0  0  0  0  0  0  0  0
   23.5005   -0.9833    5.7048 H   0  0  0  0  0  0  0  0  0  0  0  0
   26.2126   -1.4356    5.7236 H   0  0  0  0  0  0  0  0  0  0  0  0
   25.2415   -0.3686    6.8293 H   0  0  0  0  0  0  0  0  0  0  0  0
   27.0542   -2.6846    7.5999 H   0  0  0  0  0  0  0  0  0  0  0  0
   27.2621   -0.9015    7.9397 H   0  0  0  0  0  0  0  0  0  0  0  0
   24.9349   -3.7928    8.4967 H   0  0  0  0  0  0  0  0  0  0  0  0
   23.4276   -2.1642   10.5876 H   0  0  0  0  0  0  0  0  0  0  0  0
   23.5169   -3.8980   10.4666 H   0  0  0  0  0  0  0  0  0  0  0  0
   25.3105   -2.1442   11.9187 H   0  0  0  0  0  0  0  0  0  0  0  0
   25.5518   -3.8914   11.6762 H   0  0  0  0  0  0  0  0  0  0  0  0
   27.0887   -3.5131    9.8393 H   0  0  0  0  0  0  0  0  0  0  0  0
   27.4137   -1.9315   11.8206 H   0  0  0  0  0  0  0  0  0  0  0  0
   25.4357   -0.5201   10.7629 H   0  0  0  0  0  0  0  0  0  0  0  0
   26.1482    0.2489    9.3043 H   0  0  0  0  0  0  0  0  0  0  0  0
   24.4226   -0.2500    9.3043 H   0  0  0  0  0  0  0  0  0  0  0  0
   13.5937    7.1120   37.0445 H   0  0  0  0  0  0  0  0  0  0  0  0
   13.5521    5.2943   36.4862 H   0  0  0  0  0  0  0  0  0  0  0  0
   11.7348    5.1740   37.0975 H   0  0  0  0  0  0  0  0  0  0  0  0
   11.7007    7.0408   37.4004 H   0  0  0  0  0  0  0  0  0  0  0  0
   10.9240    5.3212   35.5028 H   0  0  0  0  0  0  0  0  0  0  0  0
    9.4584    6.2262   37.0574 H   0  0  0  0  0  0  0  0  0  0  0  0
   10.8607    5.9104   33.8730 H   0  0  0  0  0  0  0  0  0  0  0  0
   10.9253    7.7420   34.4560 H   0  0  0  0  0  0  0  0  0  0  0  0
   12.6122    5.7801   33.8769 H   0  0  0  0  0  0  0  0  0  0  0  0
   12.8191    6.3012   32.0867 H   0  0  0  0  0  0  0  0  0  0  0  0
   12.2808    8.0228   32.3973 H   0  0  0  0  0  0  0  0  0  0  0  0
   14.5855    7.7653   31.4880 H   0  0  0  0  0  0  0  0  0  0  0  0
   14.4284    8.6751   33.0377 H   0  0  0  0  0  0  0  0  0  0  0  0
   15.1350    5.7484   32.7913 H   0  0  0  0  0  0  0  0  0  0  0  0
   15.2569    7.8711   35.0059 H   0  0  0  0  0  0  0  0  0  0  0  0
   13.6533    5.5800   34.8533 H   0  0  0  0  0  0  0  0  0  0  0  0
   15.8395    6.0223   36.5181 H   0  0  0  0  0  0  0  0  0  0  0  0
   15.7055    4.8571   35.1362 H   0  0  0  0  0  0  0  0  0  0  0  0
   17.7240    7.1082   35.4784 H   0  0  0  0  0  0  0  0  0  0  0  0
   18.0102    5.3049   35.4915 H   0  0  0  0  0  0  0  0  0  0  0  0
   16.7248    8.1420   33.4363 H   0  0  0  0  0  0  0  0  0  0  0  0
   16.8169    6.6388   30.8550 H   0  0  0  0  0  0  0  0  0  0  0  0
   17.0448    8.3545   31.1591 H   0  0  0  0  0  0  0  0  0  0  0  0
   19.0707    6.2984   31.0013 H   0  0  0  0  0  0  0  0  0  0  0  0
   19.3414    7.9998   31.4119 H   0  0  0  0  0  0  0  0  0  0  0  0
   19.2855    7.5330   33.7839 H   0  0  0  0  0  0  0  0  0  0  0  0
   20.2834    5.6547   34.1723 H   0  0  0  0  0  0  0  0  0  0  0  0
   17.3431    4.0344   33.8690 H   0  0  0  0  0  0  0  0  0  0  0  0
   16.5428    4.7297   32.4189 H   0  0  0  0  0  0  0  0  0  0  0  0
   18.3175    4.4519   32.4189 H   0  0  0  0  0  0  0  0  0  0  0  0
  1  2  1  0
  2  3  1  0
  3  4  1  0
  3  5  1  0
  5  6  1  0
  6  7  1  0
  7  8  1  0
  8  9  1  0
  9 10  1  0
  1 11  1  0
  6 11  1  0
 10 11  1  0
 10 12  1  0
 12 13  1  0
 13 14  1  0
  9 15  1  0
 14 15  1  0
 15 16  1  0
 16 17  1  0
 14 18  1  0
 17 18  1  0
 18 19  1  0
 14 20  1  1
 21 22  1  0
 22 23  1  0
 23 24  1  0
 23 25  1  0
 25 26  1  0
 26 27  1  0
 27 28  1  0
 28 29  1  0
 29 30  1  0
 21 31  1  0
 26 31  1  0
 30 31  1  0
 30 32  1  0
 32 33  1  0
 33 34  1  0
 29 35  1  0
 34 35  1  0
 35 36  1  0
 36 37  1  0
 34 38  1  0
 37 38  1  0
 38 39  1  0
 34 40  1  6
  1 41  1  0
  1 42  1  0
  2 43  1  0
  2 44  1  0
  3 45  1  0
  4 46  1  0
  5 47  1  0
  5 48  1  0
  6 49  1  0
  7 50  1  0
  7 51  1  0
  8 52  1  0
  8 53  1  0
  9 54  1  1
 10 55  1  6
 11 56  1  0
 12 57  1  0
 12 58  1  0
 13 59  1  0
 13 60  1  0
 15 61  1  6
 16 62  1  0
 16 63  1  0
 17 64  1  0
 17 65  1  0
 18 66  1  6
 19 67  1  0
 20 68  1  0
 20 69  1  0
 20 70  1  0
 21 71  1  0
 21 72  1  0
 22 73  1  0
 22 74  1  0
 23 75  1  0
 24 76  1  0
 25 77  1  0
 25 78  1  0
 26 79  1  0
 27 80  1  0
 27 81  1  0
 28 82  1  0
 28 83  1  0
 29 84  1  6
 30 85  1  1
 31 86  1  0
 32 87  1  0
 32 88  1  0
 33 89  1  0
 33 90  1  0
 35 91  1  1
 36 92  1  0
 36 93  1  0
 37 94  1  0
 37 95  1  0
 38 96  1  1
 39 97  1  0
 40 98  1  0
 40 99  1  0
 40100  1  0
M  END
>  <PDBID>  (1) 
5DXE

>  <PDB ID>  (1) 
5DXE

>  <Generic Name>  (1) 
Estradiol

>  <Brand Name>  (1) 
Activella#Activelle#Activelle Ld#Alora#Amabelz#Angeliq#Climara#Climara 100#Climara 25#Climara 50#Climara 75#Climara Pro#Combipatch#Combipatch (estradiol/norethindrone Acetate Transdermal System)#Delestrogen#Delestrogen Inj 10mg/ml#Depo-estradiol#Divigel#Elestrin#Estalis 140/50 Mcg#Estalis 250/50 Mcg#Estalis Sequi#Estrace#Estrace Tab 1mg#Estrace Tab 2mg#Estracomb#Estraderm-100#Estraderm-25#Estraderm-50#Estradiol#Estradiol / Norethindrone Acetate#Estradiol Transdermal System#Estradiol Valerate#Estradot 100#Estradot 25#Estradot 37.5#Estradot 50#Estradot 75#Estring#Estrogel#Estrogel Propak#Evamist#Femring#Lopreeza#Lupin-estradiol#Menostar#Mimvey#Mimvey Lo#Minivelle#Natazia#Neo Pause Injection#Neo-diol Inj 20mg/ml#Oesclim#PMS-estradiol Valerate Inj 10mg/ml#Prefesta#Sandoz Estradiol Derm 100#Sandoz Estradiol Derm 50#Sandoz Estradiol Derm 75#Vagifem#Vagifem 10#Vivelle 100mcg#Vivelle 37.5mcg#Vivelle 50mcg#Vivelle 75mcg#Vivelle Dot#Vivelle-dot#Yuvafem#Estraderm MX#Estraderm TTS#Estrasorb#Estrofem#Femtrace#Innofem#Vivelle

>  <DrugBank ID>  (1) 
DB00783

>  <ATC Codes>  (1) 
G03FA16#G03FA11#G03FA12#G03FB12#G03FA17#G03FA05#G03FB09#G03FA14#G03FA08#G03AA14#G03EA03#G03FB01#G03AB08#G03EA02#G03FB05#G03HB01#G03FB11#G03CA53#G03FB04#G03FA07#G03FB07#G03FB02#G03FB10#G03FA06#G03CA03#G03FA15#G03FA09#G03FA13#G03EA01#G03FB06#G03FA01#G03FA02#G02BB01#G03FA03#G03FB08#G03FA10#G03FA04#G03FB03

>  <Ligand ID>  (1) 
EST

>  <Target Name>  (1) 
Estrogen receptor

>  <UniProt ID>  (1) 
P03372

>  <PDB ID.1>  (1) 
5DXE

>  <Seq. Identity>  (1) 
93%

$$$$
