PDB_DB00480_99
     RDKit          3D

 88 92  0  0  0  0  0  0  0  0999 V2000
   45.5970  130.7150   14.8730 C   0  0  1  0  0  0  0  0  0  0  0  0
   46.7920  131.6060   14.4490 C   0  0  0  0  0  0  0  0  0  0  0  0
   47.6160  131.0550   13.2540 C   0  0  0  0  0  0  0  0  0  0  0  0
   47.9160  129.5950   13.4790 C   0  0  0  0  0  0  0  0  0  0  0  0
   47.1250  128.8310   14.2580 N   0  0  0  0  0  0  0  0  0  0  0  0
   46.0000  129.2410   14.9150 C   0  0  0  0  0  0  0  0  0  0  0  0
   43.4470  131.7620   17.7720 C   0  0  0  0  0  0  0  0  0  0  0  0
   44.6030  131.3550   18.4590 C   0  0  0  0  0  0  0  0  0  0  0  0
   45.7040  130.8850   17.4960 C   0  0  0  0  0  0  0  0  0  0  0  0
   45.0630  131.1160   16.1850 N   0  0  0  0  0  0  0  0  0  0  0  0
   43.7710  131.5580   16.3270 C   0  0  0  0  0  0  0  0  0  0  0  0
   42.3290  132.3230   19.8440 C   0  0  0  0  0  0  0  0  0  0  0  0
   43.5080  131.9430   20.5490 C   0  0  0  0  0  0  0  0  0  0  0  0
   44.6440  131.4370   19.8590 C   0  0  0  0  0  0  0  0  0  0  0  0
   42.2730  132.2010   18.4290 C   0  0  0  0  0  0  0  0  0  0  0  0
   42.9540  131.8050   15.4640 O   0  0  0  0  0  0  0  0  0  0  0  0
   45.7800  131.0720   20.4860 N   0  0  0  0  0  0  0  0  0  0  0  0
   45.2850  128.4330   15.5130 O   0  0  0  0  0  0  0  0  0  0  0  0
   48.8670  129.1020   12.9160 O   0  0  0  0  0  0  0  0  0  0  0  0
   11.3220   39.7770  -55.7860 C   0  0  1  0  0  0  0  0  0  0  0  0
   10.6270   38.4630  -55.3020 C   0  0  0  0  0  0  0  0  0  0  0  0
   11.0770   37.9380  -53.9170 C   0  0  0  0  0  0  0  0  0  0  0  0
   12.5540   38.1420  -53.6320 C   0  0  0  0  0  0  0  0  0  0  0  0
   13.2460   39.1050  -54.2990 N   0  0  0  0  0  0  0  0  0  0  0  0
   12.7590   39.9190  -55.2800 C   0  0  0  0  0  0  0  0  0  0  0  0
   11.0700   40.5810  -59.4370 C   0  0  0  0  0  0  0  0  0  0  0  0
   11.9160   39.4660  -59.5320 C   0  0  0  0  0  0  0  0  0  0  0  0
   12.1730   38.9020  -58.1280 C   0  0  0  0  0  0  0  0  0  0  0  0
   11.3880   39.8090  -57.2650 N   0  0  0  0  0  0  0  0  0  0  0  0
   10.7640   40.7650  -57.9770 C   0  0  0  0  0  0  0  0  0  0  0  0
   11.1400   40.9050  -61.8090 C   0  0  0  0  0  0  0  0  0  0  0  0
   12.0020   39.7860  -61.9090 C   0  0  0  0  0  0  0  0  0  0  0  0
   12.4140   39.0370  -60.7890 C   0  0  0  0  0  0  0  0  0  0  0  0
   10.6720   41.3340  -60.5550 C   0  0  0  0  0  0  0  0  0  0  0  0
   10.0120   41.6300  -57.5620 O   0  0  0  0  0  0  0  0  0  0  0  0
   13.2360   37.9560  -60.9380 N   0  0  0  0  0  0  0  0  0  0  0  0
   13.4780   40.7600  -55.8150 O   0  0  0  0  0  0  0  0  0  0  0  0
   13.0810   37.4660  -52.7620 O   0  0  0  0  0  0  0  0  0  0  0  0
   44.8096  130.8520   14.1172 H   0  0  0  0  0  0  0  0  0  0  0  0
   46.4003  132.5950   14.1689 H   0  0  0  0  0  0  0  0  0  0  0  0
   47.4759  131.6412   15.3098 H   0  0  0  0  0  0  0  0  0  0  0  0
   47.0376  131.1713   12.3256 H   0  0  0  0  0  0  0  0  0  0  0  0
   48.5598  131.6140   13.1715 H   0  0  0  0  0  0  0  0  0  0  0  0
   48.5274  129.8557   14.3555 H   0  0  0  0  0  0  0  0  0  0  0  0
   46.8154  128.0585   13.6511 H   0  0  0  0  0  0  0  0  0  0  0  0
   45.4030  129.0520   14.0107 H   0  0  0  0  0  0  0  0  0  0  0  0
   43.8414  132.7873   17.7157 H   0  0  0  0  0  0  0  0  0  0  0  0
   44.2106  130.3287   18.5113 H   0  0  0  0  0  0  0  0  0  0  0  0
   46.6192  131.4850   17.6076 H   0  0  0  0  0  0  0  0  0  0  0  0
   46.0318  129.8478   17.6597 H   0  0  0  0  0  0  0  0  0  0  0  0
   44.1196  132.5990   16.2582 H   0  0  0  0  0  0  0  0  0  0  0  0
   41.5079  131.7123   20.2474 H   0  0  0  0  0  0  0  0  0  0  0  0
   42.2795  133.4101   20.0046 H   0  0  0  0  0  0  0  0  0  0  0  0
   43.8464  132.8354   21.0959 H   0  0  0  0  0  0  0  0  0  0  0  0
   43.1713  131.0723   21.1309 H   0  0  0  0  0  0  0  0  0  0  0  0
   45.0540  132.4552   19.7874 H   0  0  0  0  0  0  0  0  0  0  0  0
   42.0153  133.1896   18.0213 H   0  0  0  0  0  0  0  0  0  0  0  0
   41.5302  131.4118   18.2410 H   0  0  0  0  0  0  0  0  0  0  0  0
   42.0966  132.0642   15.8857 H   0  0  0  0  0  0  0  0  0  0  0  0
   45.6393  131.1172   21.5053 H   0  0  0  0  0  0  0  0  0  0  0  0
   46.0271  130.1093   20.2159 H   0  0  0  0  0  0  0  0  0  0  0  0
   45.3936  128.5557   16.4893 H   0  0  0  0  0  0  0  0  0  0  0  0
   49.5119  128.7677   13.5887 H   0  0  0  0  0  0  0  0  0  0  0  0
   10.7124   40.5980  -55.3807 H   0  0  0  0  0  0  0  0  0  0  0  0
    9.5439   38.6500  -55.2572 H   0  0  0  0  0  0  0  0  0  0  0  0
   10.9154   37.6865  -56.0258 H   0  0  0  0  0  0  0  0  0  0  0  0
   10.4990   38.4639  -53.1428 H   0  0  0  0  0  0  0  0  0  0  0  0
   10.8981   36.8527  -53.9134 H   0  0  0  0  0  0  0  0  0  0  0  0
   12.8061   37.4158  -54.4188 H   0  0  0  0  0  0  0  0  0  0  0  0
   13.5905   39.7430  -53.5675 H   0  0  0  0  0  0  0  0  0  0  0  0
   12.4196   40.6352  -54.5172 H   0  0  0  0  0  0  0  0  0  0  0  0
   10.1933   39.9244  -59.5380 H   0  0  0  0  0  0  0  0  0  0  0  0
   12.7927   40.1224  -59.4288 H   0  0  0  0  0  0  0  0  0  0  0  0
   11.8137   37.8657  -58.0449 H   0  0  0  0  0  0  0  0  0  0  0  0
   13.2397   38.8613  -57.8624 H   0  0  0  0  0  0  0  0  0  0  0  0
    9.8834   40.1139  -58.0795 H   0  0  0  0  0  0  0  0  0  0  0  0
   11.6758   41.7565  -62.2538 H   0  0  0  0  0  0  0  0  0  0  0  0
   10.2242   40.5579  -62.3098 H   0  0  0  0  0  0  0  0  0  0  0  0
   11.5005   39.0752  -62.5822 H   0  0  0  0  0  0  0  0  0  0  0  0
   12.9454   40.2594  -62.2187 H   0  0  0  0  0  0  0  0  0  0  0  0
   11.5420   38.3774  -60.9094 H   0  0  0  0  0  0  0  0  0  0  0  0
    9.5726   41.3231  -60.5889 H   0  0  0  0  0  0  0  0  0  0  0  0
   11.1197   42.3277  -60.4060 H   0  0  0  0  0  0  0  0  0  0  0  0
   10.0169   41.6244  -56.5720 H   0  0  0  0  0  0  0  0  0  0  0  0
   13.5067   37.6000  -60.0101 H   0  0  0  0  0  0  0  0  0  0  0  0
   12.7411   37.2174  -61.4581 H   0  0  0  0  0  0  0  0  0  0  0  0
   13.9351   41.2946  -55.1183 H   0  0  0  0  0  0  0  0  0  0  0  0
   12.8146   37.8077  -51.8719 H   0  0  0  0  0  0  0  0  0  0  0  0
  1  2  1  0
  2  3  1  0
  3  4  1  0
  4  5  1  0
  1  6  1  0
  5  6  1  0
  7  8  1  0
  8  9  1  0
  1 10  1  0
  9 10  1  0
  7 11  1  0
 10 11  1  0
 12 13  1  0
  8 14  1  0
 13 14  1  0
  7 15  1  0
 12 15  1  0
 11 16  1  0
 14 17  1  0
  6 18  1  0
  4 19  1  0
 20 21  1  0
 21 22  1  0
 22 23  1  0
 23 24  1  0
 20 25  1  0
 24 25  1  0
 26 27  1  0
 27 28  1  0
 20 29  1  0
 28 29  1  0
 26 30  1  0
 29 30  1  0
 31 32  1  0
 27 33  1  0
 32 33  1  0
 26 34  1  0
 31 34  1  0
 30 35  1  0
 33 36  1  0
 25 37  1  0
 23 38  1  0
  1 39  1  6
  2 40  1  0
  2 41  1  0
  3 42  1  0
  3 43  1  0
  4 44  1  0
  5 45  1  0
  6 46  1  0
  7 47  1  0
  8 48  1  0
  9 49  1  0
  9 50  1  0
 11 51  1  0
 12 52  1  0
 12 53  1  0
 13 54  1  0
 13 55  1  0
 14 56  1  0
 15 57  1  0
 15 58  1  0
 16 59  1  0
 17 60  1  0
 17 61  1  0
 18 62  1  0
 19 63  1  0
 20 64  1  1
 21 65  1  0
 21 66  1  0
 22 67  1  0
 22 68  1  0
 23 69  1  0
 24 70  1  0
 25 71  1  0
 26 72  1  0
 27 73  1  0
 28 74  1  0
 28 75  1  0
 30 76  1  0
 31 77  1  0
 31 78  1  0
 32 79  1  0
 32 80  1  0
 33 81  1  0
 34 82  1  0
 34 83  1  0
 35 84  1  0
 36 85  1  0
 36 86  1  0
 37 87  1  0
 38 88  1  0
M  END
>  <PDBID>  (1) 
5FQD

>  <PDB ID>  (1) 
5FQD

>  <Generic Name>  (1) 
Lenalidomide

>  <Brand Name>  (1) 
Revlimid#Ladevina#Lenangio

>  <DrugBank ID>  (1) 
DB00480

>  <ATC Codes>  (1) 
L04AX04

>  <Ligand ID>  (1) 
LVY

>  <Target Name>  (1) 
Protein cereblon

>  <UniProt ID>  (1) 
Q96SW2

>  <PDB ID.1>  (1) 
5FQD

>  <Seq. Identity>  (1) 
100%

$$$$
