PDB_DB00293_90
     RDKit          3D

 54 56  0  0  0  0  0  0  0  0999 V2000
   14.8620   11.7290   22.3300 N   0  0  0  0  0  0  0  0  0  0  0  0
   15.2930   10.4420   22.7930 C   0  0  0  0  0  0  0  0  0  0  0  0
   15.9680    9.4540   21.9190 C   0  0  0  0  0  0  0  0  0  0  0  0
   15.0990   10.0270   24.1090 N   0  0  0  0  0  0  0  0  0  0  0  0
   14.4870   10.8660   25.0060 C   0  0  0  0  0  0  0  0  0  0  0  0
   14.3490   10.4420   26.1310 O   0  0  0  0  0  0  0  0  0  0  0  0
   14.0200   12.2290   24.5820 C   0  0  0  0  0  0  0  0  0  0  0  0
   13.3750   13.0700   25.5180 C   0  0  0  0  0  0  0  0  0  0  0  0
   12.9470   14.3070   25.0790 C   0  0  0  0  0  0  0  0  0  0  0  0
   13.1550   14.7070   23.7340 C   0  0  0  0  0  0  0  0  0  0  0  0
   13.7770   13.8740   22.8100 C   0  0  0  0  0  0  0  0  0  0  0  0
   14.2120   12.6220   23.2650 C   0  0  0  0  0  0  0  0  0  0  0  0
   12.2550   15.2230   26.0800 C   0  0  0  0  0  0  0  0  0  0  0  0
   11.2890   16.0280   25.3450 N   0  0  0  0  0  0  0  0  0  0  0  0
    8.2350   14.7650   23.1210 C   0  0  0  0  0  0  0  0  0  0  0  0
    9.2260   16.1450   23.4610 S   0  0  0  0  0  0  0  0  0  0  0  0
   10.1990   15.3850   24.6390 C   0  0  0  0  0  0  0  0  0  0  0  0
    9.7510   14.0810   24.7490 C   0  0  0  0  0  0  0  0  0  0  0  0
    8.6780   13.7580   23.9440 C   0  0  0  0  0  0  0  0  0  0  0  0
    7.0640   14.7740   22.1350 C   0  0  0  0  0  0  0  0  0  0  0  0
    6.8730   15.8110   21.5340 O   0  0  0  0  0  0  0  0  0  0  0  0
    6.1580   13.6400   21.9280 N   0  0  0  0  0  0  0  0  0  0  0  0
    5.0110   13.7740   21.0100 C   0  0  1  0  0  0  0  0  0  0  0  0
    5.2750   13.2950   19.5780 C   0  0  0  0  0  0  0  0  0  0  0  0
    5.3300   11.7520   19.3680 C   0  0  0  0  0  0  0  0  0  0  0  0
    5.9480   11.2670   18.0540 C   0  0  0  0  0  0  0  0  0  0  0  0
    6.1620   12.0760   17.1050 O   0  0  0  0  0  0  0  0  0  0  0  0
    6.2590   10.0430   17.8930 O   0  0  0  0  0  0  0  0  0  0  0  0
    3.7990   13.1790   21.6950 C   0  0  0  0  0  0  0  0  0  0  0  0
    2.6710   13.6100   21.3370 O   0  0  0  0  0  0  0  0  0  0  0  0
    3.8760   12.3140   22.6470 O   0  0  0  0  0  0  0  0  0  0  0  0
   11.4000   17.4580   25.2890 C   0  0  0  0  0  0  0  0  0  0  0  0
   15.0121   12.0122   21.3512 H   0  0  0  0  0  0  0  0  0  0  0  0
   16.4801    8.7044   22.5402 H   0  0  0  0  0  0  0  0  0  0  0  0
   15.2209    8.9554   21.2840 H   0  0  0  0  0  0  0  0  0  0  0  0
   16.7041    9.9687   21.2840 H   0  0  0  0  0  0  0  0  0  0  0  0
   13.2198   12.7500   26.5589 H   0  0  0  0  0  0  0  0  0  0  0  0
   12.8152   15.7028   23.4132 H   0  0  0  0  0  0  0  0  0  0  0  0
   13.9215   14.1852   21.7649 H   0  0  0  0  0  0  0  0  0  0  0  0
   11.7391   14.6225   26.8437 H   0  0  0  0  0  0  0  0  0  0  0  0
   12.9891   15.8670   26.5863 H   0  0  0  0  0  0  0  0  0  0  0  0
   10.2170   13.3534   25.4297 H   0  0  0  0  0  0  0  0  0  0  0  0
    8.2095   12.7629   23.9600 H   0  0  0  0  0  0  0  0  0  0  0  0
    6.3220   12.7515   22.4226 H   0  0  0  0  0  0  0  0  0  0  0  0
    4.8114   14.8393   20.8220 H   0  0  0  0  0  0  0  0  0  0  0  0
    4.4735   13.6925   18.9380 H   0  0  0  0  0  0  0  0  0  0  0  0
    6.2805   13.6626   19.3252 H   0  0  0  0  0  0  0  0  0  0  0  0
    5.9172   11.3224   20.1930 H   0  0  0  0  0  0  0  0  0  0  0  0
    4.2808   11.4230   19.3372 H   0  0  0  0  0  0  0  0  0  0  0  0
    6.5621   11.7523   16.2593 H   0  0  0  0  0  0  0  0  0  0  0  0
    1.8485   13.2518   21.7558 H   0  0  0  0  0  0  0  0  0  0  0  0
   11.4315   17.8636   26.3110 H   0  0  0  0  0  0  0  0  0  0  0  0
   12.3222   17.7336   24.7565 H   0  0  0  0  0  0  0  0  0  0  0  0
   10.5313   17.8726   24.7565 H   0  0  0  0  0  0  0  0  0  0  0  0
  1  2  1  0
  2  3  1  0
  2  4  2  0
  4  5  1  0
  5  6  2  0
  5  7  1  0
  7  8  1  0
  8  9  2  0
  9 10  1  0
 10 11  2  0
  1 12  1  0
  7 12  2  0
 11 12  1  0
  9 13  1  0
 13 14  1  0
 15 16  1  0
 14 17  1  0
 16 17  1  0
 17 18  2  0
 15 19  2  0
 18 19  1  0
 15 20  1  0
 20 21  2  0
 20 22  1  0
 22 23  1  0
 23 24  1  0
 24 25  1  0
 25 26  1  0
 26 27  1  0
 26 28  2  0
 23 29  1  0
 29 30  1  0
 29 31  2  0
 14 32  1  0
  1 33  1  0
  3 34  1  0
  3 35  1  0
  3 36  1  0
  8 37  1  0
 10 38  1  0
 11 39  1  0
 13 40  1  0
 13 41  1  0
 18 42  1  0
 19 43  1  0
 22 44  1  0
 23 45  1  6
 24 46  1  0
 24 47  1  0
 25 48  1  0
 25 49  1  0
 27 50  1  0
 30 51  1  0
 32 52  1  0
 32 53  1  0
 32 54  1  0
M  END
$$$$
