PDB_DB01167_98
     RDKit          3D

113119  0  0  0  0  0  0  0  0999 V2000
    9.6860   12.8000   19.5350 C   0  0  0  0  0  0  0  0  0  0  0  0
    9.2800   11.7770   18.6930 C   0  0  1  0  0  0  0  0  0  0  0  0
    6.0170   15.9850   16.1460 C   0  0  0  0  0  0  0  0  0  0  0  0
    5.7800   14.6940   15.3940 C   0  0  0  0  0  0  0  0  0  0  0  0
    5.2890   13.5870   16.3420 C   0  0  1  0  0  0  0  0  0  0  0  0
    4.3310   12.6710   15.6020 C   0  0  0  0  0  0  0  0  0  0  0  0
    6.4340   12.7660   16.8250 N   0  0  0  0  0  0  0  0  0  0  0  0
    7.4030   13.1210   17.7060 C   0  0  0  0  0  0  0  0  0  0  0  0
    7.5860   14.1970   18.2440 O   0  0  0  0  0  0  0  0  0  0  0  0
    8.1480   11.9540   17.8170 N   0  0  0  0  0  0  0  0  0  0  0  0
    7.6190   10.9830   17.0050 C   0  0  0  0  0  0  0  0  0  0  0  0
    6.5410   11.4760   16.3750 N   0  0  0  0  0  0  0  0  0  0  0  0
   10.8420   12.6660   20.2810 C   0  0  0  0  0  0  0  0  0  0  0  0
   11.6120   11.5100   20.1940 C   0  0  1  0  0  0  0  0  0  0  0  0
   11.1660   10.4670   19.3900 C   0  0  0  0  0  0  0  0  0  0  0  0
   10.0130   10.6020   18.6400 C   0  0  0  0  0  0  0  0  0  0  0  0
   12.8520   11.4540   20.7980 N   0  0  0  0  0  0  0  0  0  0  0  0
   13.5110   10.1560   20.9790 C   0  0  0  0  0  0  0  0  0  0  0  0
   14.4010    9.8110   19.7900 C   0  0  0  0  0  0  0  0  0  0  0  0
   15.3020   10.9160   19.4540 N   0  0  0  0  0  0  0  0  0  0  0  0
   15.1910   12.0660   20.3530 C   0  0  0  0  0  0  0  0  0  0  0  0
   13.7610   12.5470   20.4400 C   0  0  0  0  0  0  0  0  0  0  0  0
   16.5710   10.6060   18.9810 C   0  0  0  0  0  0  0  0  0  0  0  0
   17.2710   11.5190   18.2060 C   0  0  0  0  0  0  0  0  0  0  0  0
   18.5230   11.2120   17.7080 C   0  0  0  0  0  0  0  0  0  0  0  0
   19.0970    9.9880   17.9930 C   0  0  0  0  0  0  0  0  0  0  0  0
   18.4170    9.0670   18.7720 C   0  0  0  0  0  0  0  0  0  0  0  0
   17.1580    9.3740   19.2580 C   0  0  0  0  0  0  0  0  0  0  0  0
   20.3400    9.8450   17.4290 O   0  0  0  0  0  0  0  0  0  0  0  0
   21.0830    8.6410   17.6580 C   0  0  0  0  0  0  0  0  0  0  0  0
   22.0980    8.5320   16.5560 C   0  0  1  0  0  0  0  0  0  0  0  0
   21.5440    9.0870   15.2720 C   0  0  0  0  0  0  0  0  0  0  0  0
   21.8090   10.4650   15.3730 O   0  0  0  0  0  0  0  0  0  0  0  0
   23.0740   10.5790   16.0020 C   0  0  2  0  0  0  0  0  0  0  0  0
   23.2330    9.3990   16.7990 O   0  0  0  0  0  0  0  0  0  0  0  0
   22.9600   11.7920   16.9590 C   0  0  0  0  0  0  0  0  0  0  0  0
   24.2970   12.1580   17.3950 N   0  0  0  0  0  0  0  0  0  0  0  0
   25.1370   11.5010   18.1810 C   0  0  0  0  0  0  0  0  0  0  0  0
   26.2520   12.1710   18.3450 N   0  0  0  0  0  0  0  0  0  0  0  0
   26.0330   13.2760   17.6030 C   0  0  0  0  0  0  0  0  0  0  0  0
   24.8670   13.3280   17.0000 N   0  0  0  0  0  0  0  0  0  0  0  0
   24.1370   10.7180   14.8990 C   0  0  0  0  0  0  0  0  0  0  0  0
   24.1100   11.7220   13.9250 C   0  0  0  0  0  0  0  0  0  0  0  0
   25.0920   11.8230   12.9550 C   0  0  0  0  0  0  0  0  0  0  0  0
   26.1210   10.9080   12.9590 C   0  0  0  0  0  0  0  0  0  0  0  0
   26.1880    9.9080   13.9010 C   0  0  0  0  0  0  0  0  0  0  0  0
   25.1970    9.8210   14.8600 C   0  0  0  0  0  0  0  0  0  0  0  0
   27.3750   11.0340   11.7530 Cl  0  0  0  0  0  0  0  0  0  0  0  0
   22.8490   12.9100   13.8860 Cl  0  0  0  0  0  0  0  0  0  0  0  0
    9.8152   13.6944   18.9079 H   0  0  0  0  0  0  0  0  0  0  0  0
    8.8949   12.8264   20.2989 H   0  0  0  0  0  0  0  0  0  0  0  0
    8.6120   11.3951   19.4791 H   0  0  0  0  0  0  0  0  0  0  0  0
    5.9814   15.7908   17.2281 H   0  0  0  0  0  0  0  0  0  0  0  0
    7.0044   16.3893   15.8783 H   0  0  0  0  0  0  0  0  0  0  0  0
    5.2376   16.7136   15.8783 H   0  0  0  0  0  0  0  0  0  0  0  0
    5.0210   14.8647   14.6164 H   0  0  0  0  0  0  0  0  0  0  0  0
    6.7295   14.3724   14.9412 H   0  0  0  0  0  0  0  0  0  0  0  0
    4.7878   14.0640   17.1971 H   0  0  0  0  0  0  0  0  0  0  0  0
    3.7342   12.1004   16.3288 H   0  0  0  0  0  0  0  0  0  0  0  0
    3.6616   13.2736   14.9705 H   0  0  0  0  0  0  0  0  0  0  0  0
    4.9030   11.9753   14.9705 H   0  0  0  0  0  0  0  0  0  0  0  0
    8.0496   13.4286   16.8709 H   0  0  0  0  0  0  0  0  0  0  0  0
    7.5664   14.0820   19.2271 H   0  0  0  0  0  0  0  0  0  0  0  0
    8.3700   10.6741   16.2630 H   0  0  0  0  0  0  0  0  0  0  0  0
    7.3281   10.1119   17.6104 H   0  0  0  0  0  0  0  0  0  0  0  0
    5.6990   10.9353   16.6190 H   0  0  0  0  0  0  0  0  0  0  0  0
   11.4977   13.5027   19.9980 H   0  0  0  0  0  0  0  0  0  0  0  0
   10.4656   12.6337   21.3141 H   0  0  0  0  0  0  0  0  0  0  0  0
   11.0679   11.0832   21.0495 H   0  0  0  0  0  0  0  0  0  0  0  0
   11.9782   10.2457   18.6819 H   0  0  0  0  0  0  0  0  0  0  0  0
   10.8959    9.6902   20.1205 H   0  0  0  0  0  0  0  0  0  0  0  0
    9.3363    9.7925   18.9513 H   0  0  0  0  0  0  0  0  0  0  0  0
   10.3842   10.5849   17.6047 H   0  0  0  0  0  0  0  0  0  0  0  0
   14.1281   10.1921   21.8889 H   0  0  0  0  0  0  0  0  0  0  0  0
   12.7333    9.3828   21.0640 H   0  0  0  0  0  0  0  0  0  0  0  0
   15.0014    8.9235   20.0388 H   0  0  0  0  0  0  0  0  0  0  0  0
   13.7552    9.6165   18.9210 H   0  0  0  0  0  0  0  0  0  0  0  0
   15.5341   11.7732   21.3563 H   0  0  0  0  0  0  0  0  0  0  0  0
   15.8128   12.8825   19.9572 H   0  0  0  0  0  0  0  0  0  0  0  0
   13.4611   12.9575   19.4645 H   0  0  0  0  0  0  0  0  0  0  0  0
   13.7012   13.3184   21.2219 H   0  0  0  0  0  0  0  0  0  0  0  0
   16.1268   10.1748   18.0718 H   0  0  0  0  0  0  0  0  0  0  0  0
   16.6351   11.7459   17.3376 H   0  0  0  0  0  0  0  0  0  0  0  0
   17.4838   12.3304   18.9176 H   0  0  0  0  0  0  0  0  0  0  0  0
   18.4558   11.2843   16.6124 H   0  0  0  0  0  0  0  0  0  0  0  0
   19.1825   11.9272   18.2214 H   0  0  0  0  0  0  0  0  0  0  0  0
   19.5562   10.4139   18.8973 H   0  0  0  0  0  0  0  0  0  0  0  0
   18.3112    8.1544   18.1670 H   0  0  0  0  0  0  0  0  0  0  0  0
   19.0319    8.9985   19.6815 H   0  0  0  0  0  0  0  0  0  0  0  0
   17.2153    9.2922   20.3535 H   0  0  0  0  0  0  0  0  0  0  0  0
   16.5085    8.6663   18.7220 H   0  0  0  0  0  0  0  0  0  0  0  0
   21.5889    8.6896   18.6335 H   0  0  0  0  0  0  0  0  0  0  0  0
   20.4172    7.7654   17.6651 H   0  0  0  0  0  0  0  0  0  0  0  0
   22.3650    7.4660   16.5069 H   0  0  0  0  0  0  0  0  0  0  0  0
   22.0551    8.6504   14.4012 H   0  0  0  0  0  0  0  0  0  0  0  0
   20.4760    8.8635   15.1323 H   0  0  0  0  0  0  0  0  0  0  0  0
   22.4960   12.6388   16.4321 H   0  0  0  0  0  0  0  0  0  0  0  0
   22.3368   11.5318   17.8273 H   0  0  0  0  0  0  0  0  0  0  0  0
   24.6640   11.3451   19.1618 H   0  0  0  0  0  0  0  0  0  0  0  0
   25.3752   10.5364   17.7090 H   0  0  0  0  0  0  0  0  0  0  0  0
   26.4016   12.4101   19.3356 H   0  0  0  0  0  0  0  0  0  0  0  0
   26.1118   14.1507   18.2654 H   0  0  0  0  0  0  0  0  0  0  0  0
   26.7875   13.2581   16.8027 H   0  0  0  0  0  0  0  0  0  0  0  0
   24.9755   13.3655   15.9764 H   0  0  0  0  0  0  0  0  0  0  0  0
   23.5417   10.0657   14.2431 H   0  0  0  0  0  0  0  0  0  0  0  0
   24.6951   12.3787   14.5857 H   0  0  0  0  0  0  0  0  0  0  0  0
   24.5920   11.7439   11.9784 H   0  0  0  0  0  0  0  0  0  0  0  0
   25.5856   12.7816   13.1730 H   0  0  0  0  0  0  0  0  0  0  0  0
   26.7050   11.5676   13.6177 H   0  0  0  0  0  0  0  0  0  0  0  0
   26.1935    8.9524   13.3562 H   0  0  0  0  0  0  0  0  0  0  0  0
   27.0920   10.1512   14.4786 H   0  0  0  0  0  0  0  0  0  0  0  0
   25.7021    9.8967   15.8342 H   0  0  0  0  0  0  0  0  0  0  0  0
   24.6961    8.8786   14.5937 H   0  0  0  0  0  0  0  0  0  0  0  0
  1  2  1  0
  3  4  1  0
  4  5  1  0
  5  6  1  0
  5  7  1  0
  7  8  1  0
  8  9  1  0
  2 10  1  0
  8 10  1  0
 10 11  1  0
  7 12  1  0
 11 12  1  0
  1 13  1  0
 13 14  1  0
 14 15  1  0
  2 16  1  0
 15 16  1  0
 14 17  1  0
 17 18  1  0
 18 19  1  0
 19 20  1  0
 20 21  1  0
 17 22  1  0
 21 22  1  0
 20 23  1  0
 23 24  1  0
 24 25  1  0
 25 26  1  0
 26 27  1  0
 23 28  1  0
 27 28  1  0
 26 29  1  0
 29 30  1  0
 30 31  1  0
 31 32  1  0
 32 33  1  0
 33 34  1  0
 31 35  1  0
 34 35  1  0
 34 36  1  1
 36 37  1  0
 37 38  1  0
 38 39  1  0
 39 40  1  0
 37 41  1  0
 40 41  1  0
 34 42  1  0
 42 43  1  0
 43 44  1  0
 44 45  1  0
 45 46  1  0
 42 47  1  0
 46 47  1  0
 45 48  1  0
 43 49  1  0
  1 50  1  0
  1 51  1  0
  2 52  1  1
  3 53  1  0
  3 54  1  0
  3 55  1  0
  4 56  1  0
  4 57  1  0
  5 58  1  1
  6 59  1  0
  6 60  1  0
  6 61  1  0
  8 62  1  0
  9 63  1  0
 11 64  1  0
 11 65  1  0
 12 66  1  0
 13 67  1  0
 13 68  1  0
 14 69  1  1
 15 70  1  0
 15 71  1  0
 16 72  1  0
 16 73  1  0
 18 74  1  0
 18 75  1  0
 19 76  1  0
 19 77  1  0
 21 78  1  0
 21 79  1  0
 22 80  1  0
 22 81  1  0
 23 82  1  0
 24 83  1  0
 24 84  1  0
 25 85  1  0
 25 86  1  0
 26 87  1  0
 27 88  1  0
 27 89  1  0
 28 90  1  0
 28 91  1  0
 30 92  1  0
 30 93  1  0
 31 94  1  6
 32 95  1  0
 32 96  1  0
 36 97  1  0
 36 98  1  0
 38 99  1  0
 38100  1  0
 39101  1  6
 40102  1  0
 40103  1  0
 41104  1  0
 42105  1  0
 43106  1  0
 44107  1  0
 44108  1  0
 45109  1  0
 46110  1  0
 46111  1  0
 47112  1  0
 47113  1  0
M  END
>  <PDBID>  (1) 
5ESG

>  <PDB ID>  (1) 
5ESG

>  <Generic Name>  (1) 
Itraconazole

>  <Brand Name>  (1) 
Itraconazole#Onmel#Sporanox#Sporanox Oral Solution 10mg/ml#Itrizole#Oriconazole#Sporal

>  <DrugBank ID>  (1) 
DB01167

>  <ATC Codes>  (1) 
J02AC02

>  <Ligand ID>  (1) 
1YN

>  <Target Name>  (1) 
Lanosterol 14-alpha demethylase

>  <UniProt ID>  (1) 
P50859

>  <PDB ID.1>  (1) 
5ESG

>  <Seq. Identity>  (1) 
82%

$$$$
