PDB_DB00783_92
     RDKit          3D

 44 47  0  0  0  0  0  0  0  0999 V2000
  -24.9890   34.0470  -13.1180 C   0  0  0  0  0  0  0  0  0  0  0  0
  -24.9920   32.8270  -12.4600 C   0  0  0  0  0  0  0  0  0  0  0  0
  -25.5670   31.6990  -13.0400 C   0  0  0  0  0  0  0  0  0  0  0  0
  -25.5390   30.5170  -12.3900 O   0  0  0  0  0  0  0  0  0  0  0  0
  -26.1680   31.7930  -14.2870 C   0  0  0  0  0  0  0  0  0  0  0  0
  -26.2210   33.0080  -14.9710 C   0  0  0  0  0  0  0  0  0  0  0  0
  -26.9070   33.0880  -16.3180 C   0  0  0  0  0  0  0  0  0  0  0  0
  -27.2100   34.5240  -16.7240 C   0  0  0  0  0  0  0  0  0  0  0  0
  -25.9640   35.3850  -16.5630 C   0  0  2  0  0  0  0  0  0  0  0  0
  -25.6220   35.5380  -15.0760 C   0  0  1  0  0  0  0  0  0  0  0  0
  -25.5860   34.2130  -14.3700 C   0  0  0  0  0  0  0  0  0  0  0  0
  -24.3370   36.3770  -14.9180 C   0  0  0  0  0  0  0  0  0  0  0  0
  -24.4060   37.7390  -15.6510 C   0  0  0  0  0  0  0  0  0  0  0  0
  -24.8400   37.6050  -17.1040 C   0  0  1  0  0  0  0  0  0  0  0  0
  -26.1290   36.7930  -17.1660 C   0  0  1  0  0  0  0  0  0  0  0  0
  -26.5990   36.9710  -18.6170 C   0  0  0  0  0  0  0  0  0  0  0  0
  -26.1550   38.3830  -19.0090 C   0  0  0  0  0  0  0  0  0  0  0  0
  -25.2820   38.8730  -17.8320 C   0  0  2  0  0  0  0  0  0  0  0  0
  -24.2080   39.6740  -18.3330 O   0  0  0  0  0  0  0  0  0  0  0  0
  -23.7230   36.9410  -17.8820 C   0  0  0  0  0  0  0  0  0  0  0  0
  -24.5021   34.9099  -12.6402 H   0  0  0  0  0  0  0  0  0  0  0  0
  -24.5328   32.7485  -11.4635 H   0  0  0  0  0  0  0  0  0  0  0  0
  -25.9479   29.7154  -12.8027 H   0  0  0  0  0  0  0  0  0  0  0  0
  -26.6098   30.8952  -14.7438 H   0  0  0  0  0  0  0  0  0  0  0  0
  -26.2515   32.6360  -17.0769 H   0  0  0  0  0  0  0  0  0  0  0  0
  -27.8630   32.5491  -16.2430 H   0  0  0  0  0  0  0  0  0  0  0  0
  -27.5338   34.5448  -17.7751 H   0  0  0  0  0  0  0  0  0  0  0  0
  -28.0085   34.9205  -16.0797 H   0  0  0  0  0  0  0  0  0  0  0  0
  -25.1576   34.8700  -17.1057 H   0  0  0  0  0  0  0  0  0  0  0  0
  -26.4263   36.0940  -14.5721 H   0  0  0  0  0  0  0  0  0  0  0  0
  -24.1707   36.5641  -13.8469 H   0  0  0  0  0  0  0  0  0  0  0  0
  -23.5138   35.8035  -15.3690 H   0  0  0  0  0  0  0  0  0  0  0  0
  -25.1265   38.3842  -15.1270 H   0  0  0  0  0  0  0  0  0  0  0  0
  -23.3939   38.1698  -15.6458 H   0  0  0  0  0  0  0  0  0  0  0  0
  -26.9493   37.1299  -16.5152 H   0  0  0  0  0  0  0  0  0  0  0  0
  -26.1273   36.2224  -19.2705 H   0  0  0  0  0  0  0  0  0  0  0  0
  -27.6862   36.8377  -18.7176 H   0  0  0  0  0  0  0  0  0  0  0  0
  -25.5696   38.3590  -19.9400 H   0  0  0  0  0  0  0  0  0  0  0  0
  -27.0118   39.0484  -19.1909 H   0  0  0  0  0  0  0  0  0  0  0  0
  -25.8116   39.5274  -17.1240 H   0  0  0  0  0  0  0  0  0  0  0  0
  -23.6982   40.0542  -17.5743 H   0  0  0  0  0  0  0  0  0  0  0  0
  -22.9946   36.5080  -17.1805 H   0  0  0  0  0  0  0  0  0  0  0  0
  -24.1405   36.1443  -18.5153 H   0  0  0  0  0  0  0  0  0  0  0  0
  -23.2226   37.6884  -18.5153 H   0  0  0  0  0  0  0  0  0  0  0  0
  1  2  2  0
  2  3  1  0
  3  4  1  0
  3  5  2  0
  5  6  1  0
  6  7  1  0
  7  8  1  0
  8  9  1  0
  9 10  1  0
  1 11  1  0
  6 11  2  0
 10 11  1  0
 10 12  1  0
 12 13  1  0
 13 14  1  0
  9 15  1  0
 14 15  1  0
 15 16  1  0
 16 17  1  0
 14 18  1  0
 17 18  1  0
 18 19  1  0
 14 20  1  6
  1 21  1  0
  2 22  1  0
  4 23  1  0
  5 24  1  0
  7 25  1  0
  7 26  1  0
  8 27  1  0
  8 28  1  0
  9 29  1  6
 10 30  1  1
 12 31  1  0
 12 32  1  0
 13 33  1  0
 13 34  1  0
 15 35  1  1
 16 36  1  0
 16 37  1  0
 17 38  1  0
 17 39  1  0
 18 40  1  1
 19 41  1  0
 20 42  1  0
 20 43  1  0
 20 44  1  0
M  END
$$$$
