PDB_DB02703_94
     RDKit          3D

 85 88  0  0  0  0  0  0  0  0999 V2000
   55.2390 -208.6870  151.4400 C   0  0  0  0  0  0  0  0  0  0  0  0
   56.2650 -208.2650  152.4930 C   0  0  0  0  0  0  0  0  0  0  0  0
   55.8430 -208.8030  153.8610 C   0  0  2  0  0  0  0  0  0  0  0  0
   55.7200 -210.3290  153.8130 C   0  0  2  0  0  0  0  0  0  0  0  0
   54.7010 -210.7540  152.7530 C   0  0  2  0  0  0  0  0  0  0  0  0
   54.5280 -212.2740  152.7060 C   0  0  0  0  0  0  0  0  0  0  0  0
   53.5130 -212.6770  151.6320 C   0  0  0  0  0  0  0  0  0  0  0  0
   52.9120 -211.4620  150.9190 C   0  0  1  0  0  0  0  0  0  0  0  0
   54.0460 -210.6080  150.3400 C   0  0  2  0  0  0  0  0  0  0  0  0
   55.0990 -210.2110  151.3780 C   0  0  1  0  0  0  0  0  0  0  0  0
   53.5500 -209.3880  149.5580 C   0  0  1  0  0  0  0  0  0  0  0  0
   52.6020 -209.8170  148.4360 C   0  0  0  0  0  0  0  0  0  0  0  0
   51.4840 -210.6450  149.0710 C   0  0  2  0  0  0  0  0  0  0  0  0
   52.0470 -211.8990  149.7330 C   0  0  2  0  0  0  0  0  0  0  0  0
   50.7300 -212.6000  150.0710 C   0  0  0  0  0  0  0  0  0  0  0  0
   49.9620 -212.5160  148.7440 C   0  0  1  0  0  0  0  0  0  0  0  0
   50.4940 -211.2440  148.0700 C   0  0  0  0  0  0  0  0  0  0  0  0
   55.3440 -210.8950  155.1840 C   0  0  0  0  0  0  0  0  0  0  0  0
   56.4340 -210.8280  150.9580 C   0  0  0  0  0  0  0  0  0  0  0  0
   52.0550 -210.6570  151.8990 C   0  0  0  0  0  0  0  0  0  0  0  0
   52.8740 -212.7250  148.7450 C   0  0  0  0  0  0  0  0  0  0  0  0
   50.2280 -210.7750  146.7870 C   0  0  0  0  0  0  0  0  0  0  0  0
   50.6110 -209.4820  146.4430 C   0  0  0  0  0  0  0  0  0  0  0  0
   50.3720 -208.9690  145.1740 C   0  0  0  0  0  0  0  0  0  0  0  0
   50.7730 -207.6730  144.8760 C   0  0  0  0  0  0  0  0  0  0  0  0
   50.5440 -207.1380  143.6110 C   0  0  0  0  0  0  0  0  0  0  0  0
   50.9890 -205.7090  143.2980 C   0  0  0  0  0  0  0  0  0  0  0  0
   49.8510 -207.9750  142.5340 C   0  0  0  0  0  0  0  0  0  0  0  0
   49.6050 -211.6870  145.7280 C   0  0  0  0  0  0  0  0  0  0  0  0
   49.0970 -214.2480  147.4990 C   0  0  0  0  0  0  0  0  0  0  0  0
   49.2690 -215.3790  146.4830 C   0  0  0  0  0  0  0  0  0  0  0  0
   52.8760 -208.4920  150.4450 O   0  0  0  0  0  0  0  0  0  0  0  0
   50.2470 -213.6240  147.8750 O   0  0  0  0  0  0  0  0  0  0  0  0
   47.9800 -213.9610  147.9290 O   0  0  0  0  0  0  0  0  0  0  0  0
   48.4970 -212.2310  145.9360 O   0  0  0  0  0  0  0  0  0  0  0  0
   50.1860 -211.8640  144.6350 O   0  0  0  0  0  0  0  0  0  0  0  0
   54.5790 -208.2240  154.1980 O   0  0  0  0  0  0  0  0  0  0  0  0
   54.2632 -208.2477  151.6944 H   0  0  0  0  0  0  0  0  0  0  0  0
   55.5827 -208.3299  150.4580 H   0  0  0  0  0  0  0  0  0  0  0  0
   57.2517 -208.6723  152.2274 H   0  0  0  0  0  0  0  0  0  0  0  0
   56.3197 -207.1671  152.5320 H   0  0  0  0  0  0  0  0  0  0  0  0
   56.5970 -208.5402  154.6176 H   0  0  0  0  0  0  0  0  0  0  0  0
   56.7016 -210.7408  153.5358 H   0  0  0  0  0  0  0  0  0  0  0  0
   53.7293 -210.3227  153.0355 H   0  0  0  0  0  0  0  0  0  0  0  0
   55.4980 -212.7397  152.4773 H   0  0  0  0  0  0  0  0  0  0  0  0
   54.1581 -212.6154  153.6841 H   0  0  0  0  0  0  0  0  0  0  0  0
   54.0175 -213.3107  150.8878 H   0  0  0  0  0  0  0  0  0  0  0  0
   52.6931 -213.2172  152.1279 H   0  0  0  0  0  0  0  0  0  0  0  0
   54.5446 -211.2699  149.6166 H   0  0  0  0  0  0  0  0  0  0  0  0
   54.4161 -208.8798  149.1089 H   0  0  0  0  0  0  0  0  0  0  0  0
   52.1785 -208.9299  147.9423 H   0  0  0  0  0  0  0  0  0  0  0  0
   53.1393 -210.4071  147.6790 H   0  0  0  0  0  0  0  0  0  0  0  0
   51.0002 -209.9273  149.7498 H   0  0  0  0  0  0  0  0  0  0  0  0
   50.9002 -213.6457  150.3668 H   0  0  0  0  0  0  0  0  0  0  0  0
   50.1950 -212.1458  150.9180 H   0  0  0  0  0  0  0  0  0  0  0  0
   48.8779 -212.5190  148.9305 H   0  0  0  0  0  0  0  0  0  0  0  0
   55.7681 -210.2566  155.9731 H   0  0  0  0  0  0  0  0  0  0  0  0
   54.2487 -210.9206  155.2823 H   0  0  0  0  0  0  0  0  0  0  0  0
   55.7449 -211.9146  155.2823 H   0  0  0  0  0  0  0  0  0  0  0  0
   57.0126 -211.0954  151.8545 H   0  0  0  0  0  0  0  0  0  0  0  0
   56.2480 -211.7315  150.3587 H   0  0  0  0  0  0  0  0  0  0  0  0
   57.0016 -210.1009  150.3587 H   0  0  0  0  0  0  0  0  0  0  0  0
   52.3337 -210.9188  152.9304 H   0  0  0  0  0  0  0  0  0  0  0  0
   52.2226 -209.5822  151.7354 H   0  0  0  0  0  0  0  0  0  0  0  0
   50.9928 -210.8915  151.7354 H   0  0  0  0  0  0  0  0  0  0  0  0
   53.5458 -213.3960  149.3003 H   0  0  0  0  0  0  0  0  0  0  0  0
   52.2006 -213.3218  148.1123 H   0  0  0  0  0  0  0  0  0  0  0  0
   53.4700 -212.0509  148.1123 H   0  0  0  0  0  0  0  0  0  0  0  0
   50.1043 -208.8093  147.1506 H   0  0  0  0  0  0  0  0  0  0  0  0
   51.7089 -209.5445  146.4707 H   0  0  0  0  0  0  0  0  0  0  0  0
   50.8789 -209.6337  144.4590 H   0  0  0  0  0  0  0  0  0  0  0  0
   49.2746 -208.9209  145.1160 H   0  0  0  0  0  0  0  0  0  0  0  0
   51.2745 -207.0656  145.6439 H   0  0  0  0  0  0  0  0  0  0  0  0
   51.1588 -205.1636  144.2381 H   0  0  0  0  0  0  0  0  0  0  0  0
   51.9217 -205.7347  142.7154 H   0  0  0  0  0  0  0  0  0  0  0  0
   50.2066 -205.2006  142.7154 H   0  0  0  0  0  0  0  0  0  0  0  0
   49.2193 -208.7379  143.0125 H   0  0  0  0  0  0  0  0  0  0  0  0
   49.2259 -207.3217  141.9076 H   0  0  0  0  0  0  0  0  0  0  0  0
   50.6095 -208.4672  141.9076 H   0  0  0  0  0  0  0  0  0  0  0  0
   49.4138 -216.3309  147.0150 H   0  0  0  0  0  0  0  0  0  0  0  0
   48.3705 -215.4447  145.8518 H   0  0  0  0  0  0  0  0  0  0  0  0
   50.1464 -215.1746  145.8518 H   0  0  0  0  0  0  0  0  0  0  0  0
   53.0685 -208.7480  151.3818 H   0  0  0  0  0  0  0  0  0  0  0  0
   49.7828 -212.4541  143.9499 H   0  0  0  0  0  0  0  0  0  0  0  0
   54.4873 -208.1820  155.1829 H   0  0  0  0  0  0  0  0  0  0  0  0
  2  1  1  0
  3  2  1  0
  4  3  1  0
  5  4  1  0
  6  5  1  0
  7  6  1  0
  8  7  1  0
  9  8  1  0
 10  9  1  0
 10  1  1  0
 10  5  1  0
 11  9  1  0
 12 11  1  0
 13 12  1  0
 14 13  1  0
 14  8  1  0
 15 14  1  0
 16 15  1  0
 17 16  1  0
 17 13  1  0
 18  4  1  0
 10 19  1  6
  8 20  1  1
 14 21  1  6
 22 17  2  0
 23 22  1  0
 24 23  1  0
 25 24  1  0
 26 25  2  3
 27 26  1  0
 28 26  1  0
 29 22  1  0
 31 30  1  0
 32 11  1  0
 33 30  1  0
 33 16  1  0
 34 30  2  0
 35 29  2  0
 36 29  1  0
 37  3  1  0
  1 38  1  0
  1 39  1  0
  2 40  1  0
  2 41  1  0
  3 42  1  1
  4 43  1  6
  5 44  1  1
  6 45  1  0
  6 46  1  0
  7 47  1  0
  7 48  1  0
  9 49  1  6
 11 50  1  6
 12 51  1  0
 12 52  1  0
 13 53  1  1
 15 54  1  0
 15 55  1  0
 16 56  1  1
 18 57  1  0
 18 58  1  0
 18 59  1  0
 19 60  1  0
 19 61  1  0
 19 62  1  0
 20 63  1  0
 20 64  1  0
 20 65  1  0
 21 66  1  0
 21 67  1  0
 21 68  1  0
 23 69  1  0
 23 70  1  0
 24 71  1  0
 24 72  1  0
 25 73  1  0
 27 74  1  0
 27 75  1  0
 27 76  1  0
 28 77  1  0
 28 78  1  0
 28 79  1  0
 31 80  1  0
 31 81  1  0
 31 82  1  0
 32 83  1  0
 36 84  1  0
 37 85  1  0
M  END
$$$$
