PDB_DB00642_99
     RDKit          3D

288296  0  0  0  0  0  0  0  0999 V2000
   17.4150    6.1240   -7.7460 C   0  0  0  0  0  0  0  0  0  0  0  0
   17.7900    6.8350   -6.5640 C   0  0  0  0  0  0  0  0  0  0  0  0
   19.1610    6.8850   -6.1760 C   0  0  0  0  0  0  0  0  0  0  0  0
   20.1750    6.2240   -6.9650 C   0  0  0  0  0  0  0  0  0  0  0  0
   19.7560    5.5240   -8.1250 C   0  0  0  0  0  0  0  0  0  0  0  0
   18.4160    5.4790   -8.5070 C   0  0  0  0  0  0  0  0  0  0  0  0
   15.9420    6.0700   -8.2140 C   0  0  0  0  0  0  0  0  0  0  0  0
   15.2390    4.6870   -8.2040 C   0  0  0  0  0  0  0  0  0  0  0  0
   15.7790    3.6450   -9.1900 C   0  0  0  0  0  0  0  0  0  0  0  0
   15.7300    3.6830  -10.5900 C   0  0  0  0  0  0  0  0  0  0  0  0
   16.3370    2.5320  -11.1470 N   0  0  0  0  0  0  0  0  0  0  0  0
   16.7660    1.7710  -10.0790 C   0  0  0  0  0  0  0  0  0  0  0  0
   16.4160    2.4700   -8.8860 C   0  0  0  0  0  0  0  0  0  0  0  0
   16.7800    1.8400   -7.5160 C   0  0  0  0  0  0  0  0  0  0  0  0
   16.5270    2.3510   -6.4330 O   0  0  0  0  0  0  0  0  0  0  0  0
   17.4210    0.6350   -7.5590 N   0  0  0  0  0  0  0  0  0  0  0  0
   17.7520   -0.0300   -8.8030 C   0  0  0  0  0  0  0  0  0  0  0  0
   17.4490    0.4980   -9.9610 N   0  0  0  0  0  0  0  0  0  0  0  0
   18.3970   -1.2380   -8.7490 N   0  0  0  0  0  0  0  0  0  0  0  0
   21.6700    6.2100   -6.6850 C   0  0  0  0  0  0  0  0  0  0  0  0
   22.4300    5.6060   -7.4510 O   0  0  0  0  0  0  0  0  0  0  0  0
   22.1520    6.8770   -5.6150 N   0  0  0  0  0  0  0  0  0  0  0  0
   23.5990    6.9680   -5.2510 C   0  0  1  0  0  0  0  0  0  0  0  0
   24.4210    8.0120   -6.0940 C   0  0  0  0  0  0  0  0  0  0  0  0
   23.5770    9.0800   -6.8740 C   0  0  0  0  0  0  0  0  0  0  0  0
   24.3230   10.1200   -7.7110 C   0  0  0  0  0  0  0  0  0  0  0  0
   24.1470   10.1490   -8.9600 O   0  0  0  0  0  0  0  0  0  0  0  0
   25.0840   10.9280   -7.1180 O   0  0  0  0  0  0  0  0  0  0  0  0
   23.7080    7.1660   -3.7010 C   0  0  0  0  0  0  0  0  0  0  0  0
   24.7060    6.7410   -3.0550 O   0  0  0  0  0  0  0  0  0  0  0  0
   22.7630    7.7700   -3.1200 O   0  0  0  0  0  0  0  0  0  0  0  0
  -18.5820   -6.2760    6.1120 C   0  0  0  0  0  0  0  0  0  0  0  0
  -18.0400   -7.3200    6.9100 C   0  0  0  0  0  0  0  0  0  0  0  0
  -18.6330   -7.6690    8.1610 C   0  0  0  0  0  0  0  0  0  0  0  0
  -19.7850   -6.9830    8.6510 C   0  0  0  0  0  0  0  0  0  0  0  0
  -20.3110   -5.9290    7.8310 C   0  0  0  0  0  0  0  0  0  0  0  0
  -19.7250   -5.5800    6.5850 C   0  0  0  0  0  0  0  0  0  0  0  0
  -17.9340   -5.9200    4.7480 C   0  0  0  0  0  0  0  0  0  0  0  0
  -16.9560   -4.7070    4.7670 C   0  0  0  0  0  0  0  0  0  0  0  0
  -17.6630   -3.3500    4.8790 C   0  0  0  0  0  0  0  0  0  0  0  0
  -18.4660   -2.7520    3.9080 C   0  0  0  0  0  0  0  0  0  0  0  0
  -18.9530   -1.5160    4.3550 N   0  0  0  0  0  0  0  0  0  0  0  0
  -18.4520   -1.3330    5.6240 C   0  0  0  0  0  0  0  0  0  0  0  0
  -17.6570   -2.4640    5.9380 C   0  0  0  0  0  0  0  0  0  0  0  0
  -16.9630   -2.5150    7.3270 C   0  0  0  0  0  0  0  0  0  0  0  0
  -16.2520   -3.4290    7.7160 O   0  0  0  0  0  0  0  0  0  0  0  0
  -17.1830   -1.4520    8.1430 N   0  0  0  0  0  0  0  0  0  0  0  0
  -18.0110   -0.3290    7.7610 C   0  0  0  0  0  0  0  0  0  0  0  0
  -18.5880   -0.2810    6.6040 N   0  0  0  0  0  0  0  0  0  0  0  0
  -18.1850    0.6980    8.6460 N   0  0  0  0  0  0  0  0  0  0  0  0
  -20.4920   -7.3090    9.9800 C   0  0  0  0  0  0  0  0  0  0  0  0
  -21.4850   -6.6670   10.3220 O   0  0  0  0  0  0  0  0  0  0  0  0
  -20.0120   -8.3300   10.7630 N   0  0  0  0  0  0  0  0  0  0  0  0
  -20.5840   -8.8070   12.0790 C   0  0  1  0  0  0  0  0  0  0  0  0
  -21.6320   -9.9610   11.9640 C   0  0  0  0  0  0  0  0  0  0  0  0
  -22.4230  -10.0100   10.6220 C   0  0  0  0  0  0  0  0  0  0  0  0
  -23.4640  -11.1080   10.4010 C   0  0  0  0  0  0  0  0  0  0  0  0
  -23.7610  -11.4280    9.2290 O   0  0  0  0  0  0  0  0  0  0  0  0
  -23.9950  -11.6650   11.3910 O   0  0  0  0  0  0  0  0  0  0  0  0
  -19.4000   -9.1360   13.0440 C   0  0  0  0  0  0  0  0  0  0  0  0
  -19.5610   -9.1530   14.2860 O   0  0  0  0  0  0  0  0  0  0  0  0
  -18.2730   -9.3890   12.5380 O   0  0  0  0  0  0  0  0  0  0  0  0
   49.6130   35.1230   22.7780 C   0  0  0  0  0  0  0  0  0  0  0  0
   48.2040   35.0410   22.6220 C   0  0  0  0  0  0  0  0  0  0  0  0
   47.6500   34.6440   21.3680 C   0  0  0  0  0  0  0  0  0  0  0  0
   48.4990   34.3210   20.2470 C   0  0  0  0  0  0  0  0  0  0  0  0
   49.9070   34.4220   20.4420 C   0  0  0  0  0  0  0  0  0  0  0  0
   50.4520   34.8120   21.6800 C   0  0  0  0  0  0  0  0  0  0  0  0
   50.2370   35.5310   24.1260 C   0  0  0  0  0  0  0  0  0  0  0  0
   50.6270   37.0240   24.2530 C   0  0  0  0  0  0  0  0  0  0  0  0
   51.8650   37.4380   23.4560 C   0  0  0  0  0  0  0  0  0  0  0  0
   53.1460   36.8770   23.5410 C   0  0  0  0  0  0  0  0  0  0  0  0
   54.0370   37.5170   22.6500 N   0  0  0  0  0  0  0  0  0  0  0  0
   53.3020   38.4860   22.0030 C   0  0  0  0  0  0  0  0  0  0  0  0
   51.9660   38.4290   22.5090 C   0  0  0  0  0  0  0  0  0  0  0  0
   50.9110   39.4250   21.9510 C   0  0  0  0  0  0  0  0  0  0  0  0
   49.7380   39.4740   22.3060 O   0  0  0  0  0  0  0  0  0  0  0  0
   51.3610   40.2920   20.9980 N   0  0  0  0  0  0  0  0  0  0  0  0
   52.7460   40.2980   20.5190 C   0  0  0  0  0  0  0  0  0  0  0  0
   53.6270   39.4660   20.9880 N   0  0  0  0  0  0  0  0  0  0  0  0
   53.1180   41.2050   19.5550 N   0  0  0  0  0  0  0  0  0  0  0  0
   48.0120   33.8700   18.8730 C   0  0  0  0  0  0  0  0  0  0  0  0
   48.8340   33.6130   17.9840 O   0  0  0  0  0  0  0  0  0  0  0  0
   46.6780   33.7470   18.6600 N   0  0  0  0  0  0  0  0  0  0  0  0
   46.0300   33.2970   17.3800 C   0  0  1  0  0  0  0  0  0  0  0  0
   46.5020   31.8920   16.8630 C   0  0  0  0  0  0  0  0  0  0  0  0
   46.3930   30.7330   17.9030 C   0  0  0  0  0  0  0  0  0  0  0  0
   46.8610   29.3350   17.4750 C   0  0  0  0  0  0  0  0  0  0  0  0
   48.0140   28.9620   17.8060 O   0  0  0  0  0  0  0  0  0  0  0  0
   46.0870   28.5960   16.8140 O   0  0  0  0  0  0  0  0  0  0  0  0
   44.4770   33.4250   17.5460 C   0  0  0  0  0  0  0  0  0  0  0  0
   43.6910   32.9610   16.6860 O   0  0  0  0  0  0  0  0  0  0  0  0
   44.0410   34.0050   18.5770 O   0  0  0  0  0  0  0  0  0  0  0  0
   46.4160   62.0280   53.6840 C   0  0  0  0  0  0  0  0  0  0  0  0
   45.8350   63.0240   52.8570 C   0  0  0  0  0  0  0  0  0  0  0  0
   44.9350   63.9850   53.4030 C   0  0  0  0  0  0  0  0  0  0  0  0
   44.5870   63.9790   54.7930 C   0  0  0  0  0  0  0  0  0  0  0  0
   45.1890   62.9610   55.6060 C   0  0  0  0  0  0  0  0  0  0  0  0
   46.0880   62.0040   55.0620 C   0  0  0  0  0  0  0  0  0  0  0  0
   47.3960   60.9890   53.0870 C   0  0  0  0  0  0  0  0  0  0  0  0
   46.7440   59.6430   52.6190 C   0  0  0  0  0  0  0  0  0  0  0  0
   46.3950   58.7170   53.7860 C   0  0  0  0  0  0  0  0  0  0  0  0
   47.2970   58.1620   54.6910 C   0  0  0  0  0  0  0  0  0  0  0  0
   46.6330   57.3730   55.6350 N   0  0  0  0  0  0  0  0  0  0  0  0
   45.2990   57.4300   55.3220 C   0  0  0  0  0  0  0  0  0  0  0  0
   45.1580   58.2570   54.1770 C   0  0  0  0  0  0  0  0  0  0  0  0
   43.7260   58.4940   53.6000 C   0  0  0  0  0  0  0  0  0  0  0  0
   43.4800   59.1770   52.6280 O   0  0  0  0  0  0  0  0  0  0  0  0
   42.7050   57.8760   54.2570 N   0  0  0  0  0  0  0  0  0  0  0  0
   42.9210   57.0400   55.4350 C   0  0  0  0  0  0  0  0  0  0  0  0
   44.1150   56.8430   55.9100 N   0  0  0  0  0  0  0  0  0  0  0  0
   41.8460   56.4500   56.0520 N   0  0  0  0  0  0  0  0  0  0  0  0
   43.6240   64.9850   55.4620 C   0  0  0  0  0  0  0  0  0  0  0  0
   43.3800   64.9130   56.6740 O   0  0  0  0  0  0  0  0  0  0  0  0
   43.0550   65.9570   54.7000 N   0  0  0  0  0  0  0  0  0  0  0  0
   42.1270   67.0140   55.1780 C   0  0  1  0  0  0  0  0  0  0  0  0
   42.8570   68.3560   55.4880 C   0  0  0  0  0  0  0  0  0  0  0  0
   44.0000   68.2150   56.5420 C   0  0  0  0  0  0  0  0  0  0  0  0
   44.8330   69.4290   56.9500 C   0  0  0  0  0  0  0  0  0  0  0  0
   45.6580   69.2990   57.8750 O   0  0  0  0  0  0  0  0  0  0  0  0
   44.6950   70.5120   56.3450 O   0  0  0  0  0  0  0  0  0  0  0  0
   40.9450   67.1080   54.1570 C   0  0  0  0  0  0  0  0  0  0  0  0
   39.8430   67.6140   54.4690 O   0  0  0  0  0  0  0  0  0  0  0  0
   41.1290   66.6430   53.0080 O   0  0  0  0  0  0  0  0  0  0  0  0
   17.5529    7.0393   -8.3403 H   0  0  0  0  0  0  0  0  0  0  0  0
   17.4581    7.8751   -6.6983 H   0  0  0  0  0  0  0  0  0  0  0  0
   17.3156    6.2584   -5.7563 H   0  0  0  0  0  0  0  0  0  0  0  0
   19.4377    7.9489   -6.1361 H   0  0  0  0  0  0  0  0  0  0  0  0
   19.1709    6.3143   -5.2357 H   0  0  0  0  0  0  0  0  0  0  0  0
   20.0449    5.3102   -6.3666 H   0  0  0  0  0  0  0  0  0  0  0  0
   20.3041    5.9674   -8.9693 H   0  0  0  0  0  0  0  0  0  0  0  0
   19.9587    4.4773   -7.8542 H   0  0  0  0  0  0  0  0  0  0  0  0
   18.1392    4.4152   -8.5480 H   0  0  0  0  0  0  0  0  0  0  0  0
   18.4145    6.0567   -9.4431 H   0  0  0  0  0  0  0  0  0  0  0  0
   15.3634    6.7388   -7.5598 H   0  0  0  0  0  0  0  0  0  0  0  0
   15.9733    6.3615   -9.2742 H   0  0  0  0  0  0  0  0  0  0  0  0
   15.3333    4.2701   -7.1904 H   0  0  0  0  0  0  0  0  0  0  0  0
   14.2034    4.8814   -8.5198 H   0  0  0  0  0  0  0  0  0  0  0  0
   14.8103    3.1243   -9.1702 H   0  0  0  0  0  0  0  0  0  0  0  0
   14.6794    3.7283  -10.9127 H   0  0  0  0  0  0  0  0  0  0  0  0
   16.2766    4.5721  -10.9373 H   0  0  0  0  0  0  0  0  0  0  0  0
   15.6544    2.0050  -11.7102 H   0  0  0  0  0  0  0  0  0  0  0  0
   17.7356    2.2900  -10.0986 H   0  0  0  0  0  0  0  0  0  0  0  0
   15.4469    1.9499   -8.8656 H   0  0  0  0  0  0  0  0  0  0  0  0
   17.7494    2.3595   -7.5347 H   0  0  0  0  0  0  0  0  0  0  0  0
   16.8252    1.7486   -5.7062 H   0  0  0  0  0  0  0  0  0  0  0  0
   18.3124    0.7680   -7.0605 H   0  0  0  0  0  0  0  0  0  0  0  0
   16.7813   -0.5472   -8.7848 H   0  0  0  0  0  0  0  0  0  0  0  0
   16.8554   -0.1915  -10.4438 H   0  0  0  0  0  0  0  0  0  0  0  0
   18.5406   -1.5069   -7.7651 H   0  0  0  0  0  0  0  0  0  0  0  0
   17.8257   -1.9536   -9.2206 H   0  0  0  0  0  0  0  0  0  0  0  0
   21.5490    5.2963   -6.0846 H   0  0  0  0  0  0  0  0  0  0  0  0
   23.0855    5.0851   -6.9227 H   0  0  0  0  0  0  0  0  0  0  0  0
   21.8345    7.8501   -5.7302 H   0  0  0  0  0  0  0  0  0  0  0  0
   24.0875    6.0210   -5.5242 H   0  0  0  0  0  0  0  0  0  0  0  0
   25.0904    8.5487   -5.4056 H   0  0  0  0  0  0  0  0  0  0  0  0
   24.9447    7.4264   -6.8640 H   0  0  0  0  0  0  0  0  0  0  0  0
   22.9075    8.5332   -7.5543 H   0  0  0  0  0  0  0  0  0  0  0  0
   23.0847    9.6675   -6.0850 H   0  0  0  0  0  0  0  0  0  0  0  0
   25.1563    9.4146   -7.8448 H   0  0  0  0  0  0  0  0  0  0  0  0
   23.1893   10.3068   -9.1547 H   0  0  0  0  0  0  0  0  0  0  0  0
   24.9820   10.8197   -6.1392 H   0  0  0  0  0  0  0  0  0  0  0  0
   23.1962    6.2054   -3.5423 H   0  0  0  0  0  0  0  0  0  0  0  0
   24.5275    6.8170   -2.0842 H   0  0  0  0  0  0  0  0  0  0  0  0
   22.8779    7.6966   -2.1394 H   0  0  0  0  0  0  0  0  0  0  0  0
  -19.2341   -7.0023    5.6048 H   0  0  0  0  0  0  0  0  0  0  0  0
  -18.0571   -8.2289    6.2907 H   0  0  0  0  0  0  0  0  0  0  0  0
  -17.0619   -6.9150    7.2089 H   0  0  0  0  0  0  0  0  0  0  0  0
  -18.9099   -8.7311    8.0891 H   0  0  0  0  0  0  0  0  0  0  0  0
  -17.8561   -7.3785    8.8835 H   0  0  0  0  0  0  0  0  0  0  0  0
  -19.1354   -6.2591    9.1648 H   0  0  0  0  0  0  0  0  0  0  0  0
  -21.3552   -6.1991    7.6151 H   0  0  0  0  0  0  0  0  0  0  0  0
  -20.1042   -5.0373    8.4409 H   0  0  0  0  0  0  0  0  0  0  0  0
  -19.4430   -4.5190    6.6543 H   0  0  0  0  0  0  0  0  0  0  0  0
  -20.5032   -5.8539    5.8574 H   0  0  0  0  0  0  0  0  0  0  0  0
  -17.3753   -6.8005    4.3980 H   0  0  0  0  0  0  0  0  0  0  0  0
  -18.7631   -5.6295    4.0860 H   0  0  0  0  0  0  0  0  0  0  0  0
  -16.2798   -4.8189    5.6273 H   0  0  0  0  0  0  0  0  0  0  0  0
  -16.4171   -4.7119    3.8080 H   0  0  0  0  0  0  0  0  0  0  0  0
  -16.7784   -2.8540    4.4530 H   0  0  0  0  0  0  0  0  0  0  0  0
  -17.8723   -2.5966    2.9951 H   0  0  0  0  0  0  0  0  0  0  0  0
  -19.3205   -3.4133    3.7019 H   0  0  0  0  0  0  0  0  0  0  0  0
  -18.6307   -0.7608    3.7331 H   0  0  0  0  0  0  0  0  0  0  0  0
  -19.3347   -1.8365    6.0451 H   0  0  0  0  0  0  0  0  0  0  0  0
  -16.7752   -1.9621    5.5131 H   0  0  0  0  0  0  0  0  0  0  0  0
  -17.8441   -3.0209    7.7486 H   0  0  0  0  0  0  0  0  0  0  0  0
  -16.2424   -3.4413    8.7059 H   0  0  0  0  0  0  0  0  0  0  0  0
  -17.6016   -1.8349    9.0027 H   0  0  0  0  0  0  0  0  0  0  0  0
  -17.1294    0.1786    7.3424 H   0  0  0  0  0  0  0  0  0  0  0  0
  -18.2471    0.5784    6.1500 H   0  0  0  0  0  0  0  0  0  0  0  0
  -18.1237    0.3360    9.6084 H   0  0  0  0  0  0  0  0  0  0  0  0
  -17.4520    1.4064    8.4983 H   0  0  0  0  0  0  0  0  0  0  0  0
  -19.8459   -6.5870   10.5008 H   0  0  0  0  0  0  0  0  0  0  0  0
  -21.5334   -6.6357   11.3103 H   0  0  0  0  0  0  0  0  0  0  0  0
  -20.0194   -9.1598   10.1528 H   0  0  0  0  0  0  0  0  0  0  0  0
  -21.1857   -7.9884   12.5007 H   0  0  0  0  0  0  0  0  0  0  0  0
  -21.0996  -10.9166   12.0799 H   0  0  0  0  0  0  0  0  0  0  0  0
  -22.3780   -9.7744   12.7505 H   0  0  0  0  0  0  0  0  0  0  0  0
  -22.9472   -9.0479   10.5243 H   0  0  0  0  0  0  0  0  0  0  0  0
  -21.6485  -10.2341    9.8738 H   0  0  0  0  0  0  0  0  0  0  0  0
  -24.2618  -10.3507   10.3964 H   0  0  0  0  0  0  0  0  0  0  0  0
  -24.4344  -12.1535    9.2456 H   0  0  0  0  0  0  0  0  0  0  0  0
  -23.6263  -11.2782   12.2244 H   0  0  0  0  0  0  0  0  0  0  0  0
  -19.1423   -8.0677   13.0920 H   0  0  0  0  0  0  0  0  0  0  0  0
  -18.6830   -9.0603   14.7339 H   0  0  0  0  0  0  0  0  0  0  0  0
  -17.6126   -9.5372   13.2605 H   0  0  0  0  0  0  0  0  0  0  0  0
   49.6390   34.0703   23.0961 H   0  0  0  0  0  0  0  0  0  0  0  0
   47.8421   34.3220   23.3717 H   0  0  0  0  0  0  0  0  0  0  0  0
   47.8752   36.0855   22.7262 H   0  0  0  0  0  0  0  0  0  0  0  0
   47.0397   33.7503   21.5652 H   0  0  0  0  0  0  0  0  0  0  0  0
   47.1413   35.5585   21.0291 H   0  0  0  0  0  0  0  0  0  0  0  0
   48.4687   35.3713   19.9215 H   0  0  0  0  0  0  0  0  0  0  0  0
   50.3232   33.4285   20.2189 H   0  0  0  0  0  0  0  0  0  0  0  0
   50.1762   35.2653   19.7890 H   0  0  0  0  0  0  0  0  0  0  0  0
   51.0598   35.7082   21.4864 H   0  0  0  0  0  0  0  0  0  0  0  0
   50.9662   33.9000   22.0175 H   0  0  0  0  0  0  0  0  0  0  0  0
   49.5106   35.3014   24.9195 H   0  0  0  0  0  0  0  0  0  0  0  0
   51.1763   34.9645   24.2088 H   0  0  0  0  0  0  0  0  0  0  0  0
   49.7778   37.6296   23.9035 H   0  0  0  0  0  0  0  0  0  0  0  0
   50.8737   37.1886   25.3123 H   0  0  0  0  0  0  0  0  0  0  0  0
   52.1293   38.1607   24.2420 H   0  0  0  0  0  0  0  0  0  0  0  0
   53.5213   36.9902   24.5688 H   0  0  0  0  0  0  0  0  0  0  0  0
   53.0823   35.8127   23.2703 H   0  0  0  0  0  0  0  0  0  0  0  0
   54.8152   37.9468   23.1702 H   0  0  0  0  0  0  0  0  0  0  0  0
   53.0362   37.7612   21.2194 H   0  0  0  0  0  0  0  0  0  0  0  0
   52.2325   39.1520   23.2940 H   0  0  0  0  0  0  0  0  0  0  0  0
   50.6434   38.7019   21.1664 H   0  0  0  0  0  0  0  0  0  0  0  0
   49.6923   39.4759   23.2949 H   0  0  0  0  0  0  0  0  0  0  0  0
   50.7735   40.1316   20.1674 H   0  0  0  0  0  0  0  0  0  0  0  0
   53.0137   41.0228   21.3020 H   0  0  0  0  0  0  0  0  0  0  0  0
   54.3866   40.0420   21.3780 H   0  0  0  0  0  0  0  0  0  0  0  0
   53.4693   42.0614   20.0067 H   0  0  0  0  0  0  0  0  0  0  0  0
   53.8598   40.7974   18.9681 H   0  0  0  0  0  0  0  0  0  0  0  0
   47.9799   34.9180   18.5404 H   0  0  0  0  0  0  0  0  0  0  0  0
   49.6930   33.3444   18.3964 H   0  0  0  0  0  0  0  0  0  0  0  0
   46.3489   33.0854   19.3776 H   0  0  0  0  0  0  0  0  0  0  0  0
   46.3649   33.9608   16.5693 H   0  0  0  0  0  0  0  0  0  0  0  0
   45.8873   31.6258   15.9904 H   0  0  0  0  0  0  0  0  0  0  0  0
   47.5721   31.9949   16.6300 H   0  0  0  0  0  0  0  0  0  0  0  0
   46.9896   31.0234   18.7803 H   0  0  0  0  0  0  0  0  0  0  0  0
   45.3127   30.6201   18.0767 H   0  0  0  0  0  0  0  0  0  0  0  0
   47.2649   29.7557   16.5423 H   0  0  0  0  0  0  0  0  0  0  0  0
   48.0829   28.9397   18.7933 H   0  0  0  0  0  0  0  0  0  0  0  0
   45.5292   28.0634   17.4347 H   0  0  0  0  0  0  0  0  0  0  0  0
   44.4986   34.3845   17.0085 H   0  0  0  0  0  0  0  0  0  0  0  0
   42.9330   32.5135   17.1390 H   0  0  0  0  0  0  0  0  0  0  0  0
   44.3855   33.5467   19.3841 H   0  0  0  0  0  0  0  0  0  0  0  0
   47.2618   62.6982   53.8970 H   0  0  0  0  0  0  0  0  0  0  0  0
   46.6675   63.5892   52.4126 H   0  0  0  0  0  0  0  0  0  0  0  0
   45.1923   62.4399   52.1818 H   0  0  0  0  0  0  0  0  0  0  0  0
   45.3730   64.9728   53.1969 H   0  0  0  0  0  0  0  0  0  0  0  0
   43.9833   63.7194   52.9196 H   0  0  0  0  0  0  0  0  0  0  0  0
   43.7421   63.3081   54.5786 H   0  0  0  0  0  0  0  0  0  0  0  0
   45.7396   63.4855   56.4008 H   0  0  0  0  0  0  0  0  0  0  0  0
   44.3241   62.3394   55.8808 H   0  0  0  0  0  0  0  0  0  0  0  0
   45.6552   61.0135   55.2658 H   0  0  0  0  0  0  0  0  0  0  0  0
   47.0420   62.2564   55.5479 H   0  0  0  0  0  0  0  0  0  0  0  0
   47.8891   61.4479   52.2173 H   0  0  0  0  0  0  0  0  0  0  0  0
   48.0894   60.7242   53.8989 H   0  0  0  0  0  0  0  0  0  0  0  0
   45.8221   59.8729   52.0647 H   0  0  0  0  0  0  0  0  0  0  0  0
   47.4787   59.1201   51.9891 H   0  0  0  0  0  0  0  0  0  0  0  0
   46.5165   57.8432   53.1290 H   0  0  0  0  0  0  0  0  0  0  0  0
   48.0189   57.5381   54.1436 H   0  0  0  0  0  0  0  0  0  0  0  0
   47.8156   58.9776   55.2162 H   0  0  0  0  0  0  0  0  0  0  0  0
   46.9688   56.4006   55.5852 H   0  0  0  0  0  0  0  0  0  0  0  0
   45.1841   58.3101   55.9718 H   0  0  0  0  0  0  0  0  0  0  0  0
   45.2795   57.3779   53.5271 H   0  0  0  0  0  0  0  0  0  0  0  0
   43.6106   59.3751   54.2483 H   0  0  0  0  0  0  0  0  0  0  0  0
   43.1597   60.0664   52.9221 H   0  0  0  0  0  0  0  0  0  0  0  0
   42.0604   58.6235   54.5512 H   0  0  0  0  0  0  0  0  0  0  0  0
   43.0327   56.1574   54.7881 H   0  0  0  0  0  0  0  0  0  0  0  0
   44.2638   55.8240   55.8924 H   0  0  0  0  0  0  0  0  0  0  0  0
   41.9598   56.5124   57.0738 H   0  0  0  0  0  0  0  0  0  0  0  0
   40.9812   56.9347   55.7726 H   0  0  0  0  0  0  0  0  0  0  0  0
   42.7776   64.3146   55.2518 H   0  0  0  0  0  0  0  0  0  0  0  0
   44.1911   65.1523   57.1887 H   0  0  0  0  0  0  0  0  0  0  0  0
   43.8450   66.4638   54.2759 H   0  0  0  0  0  0  0  0  0  0  0  0
   41.7008   66.7495   56.1570 H   0  0  0  0  0  0  0  0  0  0  0  0
   43.2911   68.7401   54.5531 H   0  0  0  0  0  0  0  0  0  0  0  0
   42.1082   69.0406   55.9129 H   0  0  0  0  0  0  0  0  0  0  0  0
   43.5352   67.8285   57.4610 H   0  0  0  0  0  0  0  0  0  0  0  0
   44.7320   67.5741   56.0287 H   0  0  0  0  0  0  0  0  0  0  0  0
   44.0603   69.7141   57.6792 H   0  0  0  0  0  0  0  0  0  0  0  0
   45.1921   69.3724   58.7454 H   0  0  0  0  0  0  0  0  0  0  0  0
   44.6013   71.2471   57.0015 H   0  0  0  0  0  0  0  0  0  0  0  0
   40.5845   66.1214   54.4836 H   0  0  0  0  0  0  0  0  0  0  0  0
   39.7639   67.6503   55.4552 H   0  0  0  0  0  0  0  0  0  0  0  0
   41.4924   65.7247   53.0779 H   0  0  0  0  0  0  0  0  0  0  0  0
  1  2  1  0
  2  3  1  0
  3  4  1  0
  4  5  1  0
  1  6  1  0
  5  6  1  0
  1  7  1  0
  7  8  1  0
  8  9  1  0
  9 10  1  0
 10 11  1  0
 11 12  1  0
  9 13  1  0
 12 13  1  0
 13 14  1  0
 14 15  1  0
 14 16  1  0
 16 17  1  0
 12 18  1  0
 17 18  1  0
 17 19  1  0
  4 20  1  0
 20 21  1  0
 20 22  1  0
 22 23  1  0
 23 24  1  0
 24 25  1  0
 25 26  1  0
 26 27  1  0
 26 28  1  0
 23 29  1  0
 29 30  1  0
 29 31  1  0
 32 33  1  0
 33 34  1  0
 34 35  1  0
 35 36  1  0
 32 37  1  0
 36 37  1  0
 32 38  1  0
 38 39  1  0
 39 40  1  0
 40 41  1  0
 41 42  1  0
 42 43  1  0
 40 44  1  0
 43 44  1  0
 44 45  1  0
 45 46  1  0
 45 47  1  0
 47 48  1  0
 43 49  1  0
 48 49  1  0
 48 50  1  0
 35 51  1  0
 51 52  1  0
 51 53  1  0
 53 54  1  0
 54 55  1  0
 55 56  1  0
 56 57  1  0
 57 58  1  0
 57 59  1  0
 54 60  1  0
 60 61  1  0
 60 62  1  0
 63 64  1  0
 64 65  1  0
 65 66  1  0
 66 67  1  0
 63 68  1  0
 67 68  1  0
 63 69  1  0
 69 70  1  0
 70 71  1  0
 71 72  1  0
 72 73  1  0
 73 74  1  0
 71 75  1  0
 74 75  1  0
 75 76  1  0
 76 77  1  0
 76 78  1  0
 78 79  1  0
 74 80  1  0
 79 80  1  0
 79 81  1  0
 66 82  1  0
 82 83  1  0
 82 84  1  0
 84 85  1  0
 85 86  1  0
 86 87  1  0
 87 88  1  0
 88 89  1  0
 88 90  1  0
 85 91  1  0
 91 92  1  0
 91 93  1  0
 94 95  1  0
 95 96  1  0
 96 97  1  0
 97 98  1  0
 94 99  1  0
 98 99  1  0
 94100  1  0
100101  1  0
101102  1  0
102103  1  0
103104  1  0
104105  1  0
102106  1  0
105106  1  0
106107  1  0
107108  1  0
107109  1  0
109110  1  0
105111  1  0
110111  1  0
110112  1  0
 97113  1  0
113114  1  0
113115  1  0
115116  1  0
116117  1  0
117118  1  0
118119  1  0
119120  1  0
119121  1  0
116122  1  0
122123  1  0
122124  1  0
  1125  1  0
  2126  1  0
  2127  1  0
  3128  1  0
  3129  1  0
  4130  1  0
  5131  1  0
  5132  1  0
  6133  1  0
  6134  1  0
  7135  1  0
  7136  1  0
  8137  1  0
  8138  1  0
  9139  1  0
 10140  1  0
 10141  1  0
 11142  1  0
 12143  1  0
 13144  1  0
 14145  1  0
 15146  1  0
 16147  1  0
 17148  1  0
 18149  1  0
 19150  1  0
 19151  1  0
 20152  1  0
 21153  1  0
 22154  1  0
 23155  1  1
 24156  1  0
 24157  1  0
 25158  1  0
 25159  1  0
 26160  1  0
 27161  1  0
 28162  1  0
 29163  1  0
 30164  1  0
 31165  1  0
 32166  1  0
 33167  1  0
 33168  1  0
 34169  1  0
 34170  1  0
 35171  1  0
 36172  1  0
 36173  1  0
 37174  1  0
 37175  1  0
 38176  1  0
 38177  1  0
 39178  1  0
 39179  1  0
 40180  1  0
 41181  1  0
 41182  1  0
 42183  1  0
 43184  1  0
 44185  1  0
 45186  1  0
 46187  1  0
 47188  1  0
 48189  1  0
 49190  1  0
 50191  1  0
 50192  1  0
 51193  1  0
 52194  1  0
 53195  1  0
 54196  1  1
 55197  1  0
 55198  1  0
 56199  1  0
 56200  1  0
 57201  1  0
 58202  1  0
 59203  1  0
 60204  1  0
 61205  1  0
 62206  1  0
 63207  1  0
 64208  1  0
 64209  1  0
 65210  1  0
 65211  1  0
 66212  1  0
 67213  1  0
 67214  1  0
 68215  1  0
 68216  1  0
 69217  1  0
 69218  1  0
 70219  1  0
 70220  1  0
 71221  1  0
 72222  1  0
 72223  1  0
 73224  1  0
 74225  1  0
 75226  1  0
 76227  1  0
 77228  1  0
 78229  1  0
 79230  1  0
 80231  1  0
 81232  1  0
 81233  1  0
 82234  1  0
 83235  1  0
 84236  1  0
 85237  1  6
 86238  1  0
 86239  1  0
 87240  1  0
 87241  1  0
 88242  1  0
 89243  1  0
 90244  1  0
 91245  1  0
 92246  1  0
 93247  1  0
 94248  1  0
 95249  1  0
 95250  1  0
 96251  1  0
 96252  1  0
 97253  1  0
 98254  1  0
 98255  1  0
 99256  1  0
 99257  1  0
100258  1  0
100259  1  0
101260  1  0
101261  1  0
102262  1  0
103263  1  0
103264  1  0
104265  1  0
105266  1  0
106267  1  0
107268  1  0
108269  1  0
109270  1  0
110271  1  0
111272  1  0
112273  1  0
112274  1  0
113275  1  0
114276  1  0
115277  1  0
116278  1  1
117279  1  0
117280  1  0
118281  1  0
118282  1  0
119283  1  0
120284  1  0
121285  1  0
122286  1  0
123287  1  0
124288  1  0
M  END
>  <PDBID>  (1) 
1JU6

>  <PDB ID>  (1) 
1JU6

>  <Generic Name>  (1) 
Pemetrexed

>  <Brand Name>  (1) 
Act Pemetrexed#Alimta#Pemetrexed#Pemetrexed Disodium for Injection#Taro-pemetrexed

>  <DrugBank ID>  (1) 
DB00642

>  <ATC Codes>  (1) 
L01BA04

>  <Ligand ID>  (1) 
LYA

>  <Target Name>  (1) 
Thymidylate synthase

>  <UniProt ID>  (1) 
P04818

>  <PDB ID.1>  (1) 
1JU6

>  <Seq. Identity>  (1) 
100%

$$$$
