PDB_DB01597_99
     RDKit          3D

 82 82  0  0  0  0  0  0  0  0999 V2000
  -11.9420   11.0220    5.0620 C   0  0  0  0  0  0  0  0  0  0  0  0
  -13.2540   11.1670    4.3510 C   0  0  1  0  0  0  0  0  0  0  0  0
  -12.8620   12.1610    5.3950 C   0  0  2  0  0  0  0  0  0  0  0  0
  -12.4550   13.5510    4.9650 C   0  0  0  0  0  0  0  0  0  0  0  0
  -13.5990   12.1240    6.7080 C   0  0  0  0  0  0  0  0  0  0  0  0
  -13.2650   11.5560    2.9470 C   0  0  0  0  0  0  0  0  0  0  0  0
  -14.4770   11.4920    2.2940 N   0  0  0  0  0  0  0  0  0  0  0  0
  -14.6450   11.8180    0.9850 C   0  0  0  0  0  0  0  0  0  0  0  0
  -15.5490   12.7340    0.6080 C   0  0  0  0  0  0  0  0  0  0  0  0
  -12.2450   11.9150    2.3750 O   0  0  0  0  0  0  0  0  0  0  0  0
  -13.8130   11.1530   -0.1070 C   0  0  0  0  0  0  0  0  0  0  0  0
  -13.4290   11.8060   -1.0820 O   0  0  0  0  0  0  0  0  0  0  0  0
  -13.5310    9.9710   -0.0250 O   0  0  0  0  0  0  0  0  0  0  0  0
  -16.4350   13.4680    1.5620 C   0  0  0  0  0  0  0  0  0  0  0  0
  -16.0630   14.9420    1.5210 C   0  0  0  0  0  0  0  0  0  0  0  0
  -17.1400   15.7690    2.2170 C   0  0  0  0  0  0  0  0  0  0  0  0
   21.6260    6.7750   23.5800 C   0  0  0  0  0  0  0  0  0  0  0  0
   22.9680    6.6920   24.2430 C   0  0  1  0  0  0  0  0  0  0  0  0
   22.7260    7.7110   23.1700 C   0  0  2  0  0  0  0  0  0  0  0  0
   22.5940    9.1640   23.5520 C   0  0  0  0  0  0  0  0  0  0  0  0
   23.3850    7.4930   21.8360 C   0  0  0  0  0  0  0  0  0  0  0  0
   23.0990    7.1020   25.6370 C   0  0  0  0  0  0  0  0  0  0  0  0
   24.3110    6.8760   26.2530 N   0  0  0  0  0  0  0  0  0  0  0  0
   24.5660    7.1960   27.5460 C   0  0  0  0  0  0  0  0  0  0  0  0
   25.6910    7.8430   27.8950 C   0  0  0  0  0  0  0  0  0  0  0  0
   22.1700    7.6120   26.2340 O   0  0  0  0  0  0  0  0  0  0  0  0
   23.5870    6.8300   28.6440 C   0  0  0  0  0  0  0  0  0  0  0  0
   23.2830    7.6530   29.5120 O   0  0  0  0  0  0  0  0  0  0  0  0
   23.0950    5.7080   28.6660 O   0  0  0  0  0  0  0  0  0  0  0  0
   26.7310    8.2520   26.8990 C   0  0  0  0  0  0  0  0  0  0  0  0
   26.9950    9.7480   27.0190 C   0  0  0  0  0  0  0  0  0  0  0  0
   25.7640   10.5280   26.5660 C   0  0  0  0  0  0  0  0  0  0  0  0
  -11.7937   10.2048    5.7832 H   0  0  0  0  0  0  0  0  0  0  0  0
  -10.8911   10.9347    4.7488 H   0  0  0  0  0  0  0  0  0  0  0  0
  -14.1287   10.5201    4.1889 H   0  0  0  0  0  0  0  0  0  0  0  0
  -12.2733   14.1716    5.8548 H   0  0  0  0  0  0  0  0  0  0  0  0
  -11.5357   13.4943    4.3635 H   0  0  0  0  0  0  0  0  0  0  0  0
  -13.2597   13.9991    4.3635 H   0  0  0  0  0  0  0  0  0  0  0  0
  -12.8755   12.1603    7.5358 H   0  0  0  0  0  0  0  0  0  0  0  0
  -14.2749   12.9893    6.7736 H   0  0  0  0  0  0  0  0  0  0  0  0
  -14.1849   11.1953    6.7736 H   0  0  0  0  0  0  0  0  0  0  0  0
  -13.0540   10.5161    2.6572 H   0  0  0  0  0  0  0  0  0  0  0  0
  -14.7929   10.5157    2.3831 H   0  0  0  0  0  0  0  0  0  0  0  0
  -15.4040   11.0280    0.8857 H   0  0  0  0  0  0  0  0  0  0  0  0
  -14.9837   13.5081    0.0684 H   0  0  0  0  0  0  0  0  0  0  0  0
  -16.2810   12.1047    0.0806 H   0  0  0  0  0  0  0  0  0  0  0  0
  -11.5582   12.1567    3.0458 H   0  0  0  0  0  0  0  0  0  0  0  0
  -14.7338   10.8880   -0.6472 H   0  0  0  0  0  0  0  0  0  0  0  0
  -12.9528   12.6159   -0.7699 H   0  0  0  0  0  0  0  0  0  0  0  0
  -13.4692    9.7119    0.9285 H   0  0  0  0  0  0  0  0  0  0  0  0
  -17.4867   13.3414    1.2655 H   0  0  0  0  0  0  0  0  0  0  0  0
  -16.3057   13.0725    2.5803 H   0  0  0  0  0  0  0  0  0  0  0  0
  -15.1012   15.0898    2.0340 H   0  0  0  0  0  0  0  0  0  0  0  0
  -15.9790   15.2653    0.4729 H   0  0  0  0  0  0  0  0  0  0  0  0
  -17.0236   15.6796    3.3072 H   0  0  0  0  0  0  0  0  0  0  0  0
  -17.0394   16.8241    1.9228 H   0  0  0  0  0  0  0  0  0  0  0  0
  -18.1334   15.3994    1.9228 H   0  0  0  0  0  0  0  0  0  0  0  0
   21.2996    5.9770   22.8969 H   0  0  0  0  0  0  0  0  0  0  0  0
   20.5908    6.8974   23.9314 H   0  0  0  0  0  0  0  0  0  0  0  0
   23.7185    5.9033   24.4001 H   0  0  0  0  0  0  0  0  0  0  0  0
   22.5857    9.2556   24.6481 H   0  0  0  0  0  0  0  0  0  0  0  0
   23.4445    9.7293   23.1432 H   0  0  0  0  0  0  0  0  0  0  0  0
   21.6556    9.5668   23.1432 H   0  0  0  0  0  0  0  0  0  0  0  0
   24.4191    7.1509   21.9894 H   0  0  0  0  0  0  0  0  0  0  0  0
   22.8269    6.7316   21.2714 H   0  0  0  0  0  0  0  0  0  0  0  0
   23.3910    8.4370   21.2714 H   0  0  0  0  0  0  0  0  0  0  0  0
   22.7493    6.1108   25.9614 H   0  0  0  0  0  0  0  0  0  0  0  0
   24.4815    5.8632   26.1751 H   0  0  0  0  0  0  0  0  0  0  0  0
   25.0777    6.2320   27.6837 H   0  0  0  0  0  0  0  0  0  0  0  0
   25.3677    8.7680   28.3948 H   0  0  0  0  0  0  0  0  0  0  0  0
   26.2236    7.0708   28.4695 H   0  0  0  0  0  0  0  0  0  0  0  0
   22.3195    7.5299   27.2092 H   0  0  0  0  0  0  0  0  0  0  0  0
   24.4204    6.4779   29.2697 H   0  0  0  0  0  0  0  0  0  0  0  0
   23.4292    7.2573   30.4076 H   0  0  0  0  0  0  0  0  0  0  0  0
   22.9692    5.4212   29.6052 H   0  0  0  0  0  0  0  0  0  0  0  0
   27.6619    7.6994   27.0942 H   0  0  0  0  0  0  0  0  0  0  0  0
   26.3733    8.0249   25.8839 H   0  0  0  0  0  0  0  0  0  0  0  0
   27.2195    9.9963   28.0668 H   0  0  0  0  0  0  0  0  0  0  0  0
   27.8506   10.0181   26.3826 H   0  0  0  0  0  0  0  0  0  0  0  0
   25.2082   10.8802   27.4475 H   0  0  0  0  0  0  0  0  0  0  0  0
   26.0790   11.3917   25.9620 H   0  0  0  0  0  0  0  0  0  0  0  0
   25.1175    9.8744   25.9620 H   0  0  0  0  0  0  0  0  0  0  0  0
  1  2  1  0
  1  3  1  0
  2  3  1  0
  3  4  1  6
  3  5  1  0
  2  6  1  0
  6  7  1  0
  7  8  1  0
  8  9  1  0
  6 10  1  0
  8 11  1  0
 11 12  1  0
 11 13  1  0
  9 14  1  0
 14 15  1  0
 15 16  1  0
 17 18  1  0
 17 19  1  0
 18 19  1  0
 19 20  1  1
 19 21  1  0
 18 22  1  0
 22 23  1  0
 23 24  1  0
 24 25  1  0
 22 26  1  0
 24 27  1  0
 27 28  1  0
 27 29  1  0
 25 30  1  0
 30 31  1  0
 31 32  1  0
  1 33  1  0
  1 34  1  0
  2 35  1  1
  4 36  1  0
  4 37  1  0
  4 38  1  0
  5 39  1  0
  5 40  1  0
  5 41  1  0
  6 42  1  0
  7 43  1  0
  8 44  1  0
  9 45  1  0
  9 46  1  0
 10 47  1  0
 11 48  1  0
 12 49  1  0
 13 50  1  0
 14 51  1  0
 14 52  1  0
 15 53  1  0
 15 54  1  0
 16 55  1  0
 16 56  1  0
 16 57  1  0
 17 58  1  0
 17 59  1  0
 18 60  1  6
 20 61  1  0
 20 62  1  0
 20 63  1  0
 21 64  1  0
 21 65  1  0
 21 66  1  0
 22 67  1  0
 23 68  1  0
 24 69  1  0
 25 70  1  0
 25 71  1  0
 26 72  1  0
 27 73  1  0
 28 74  1  0
 29 75  1  0
 30 76  1  0
 30 77  1  0
 31 78  1  0
 31 79  1  0
 32 80  1  0
 32 81  1  0
 32 82  1  0
M  END
>  <PDBID>  (1) 
1ITU

>  <PDB ID>  (1) 
1ITU

>  <Generic Name>  (1) 
Cilastatin

>  <Brand Name>  (1) 
Imipenem and Cilastatin#Imipenem and Cilastatin for Injection#Imipenem and Cilastatin for Injection USP#Imipenem and Cilastatin for Injection, USP#Primaxin 250#Primaxin 500#Primaxin IV#Primaxin IV 250/250 Add-vantage Vial#Primaxin IV 500#Ran-imipenem-cilastatin

>  <DrugBank ID>  (1) 
DB01597

>  <ATC Codes>  (1) 
nan

>  <Ligand ID>  (1) 
CIL

>  <Target Name>  (1) 
Dipeptidase 1

>  <UniProt ID>  (1) 
P16444

>  <PDB ID.1>  (1) 
1ITU

>  <Seq. Identity>  (1) 
100%

$$$$
