PDB_DB00503_98
     RDKit          3D

124127  0  0  0  0  0  0  0  0999 V2000
   -9.2070   15.4970   20.2170 C   0  0  0  0  0  0  0  0  0  0  0  0
   -8.2300   14.8300   20.8950 C   0  0  0  0  0  0  0  0  0  0  0  0
   -6.6410   14.7540   20.0990 S   0  0  0  0  0  0  0  0  0  0  0  0
   -7.5990   15.6790   18.9220 C   0  0  0  0  0  0  0  0  0  0  0  0
   -8.8380   15.9770   19.0910 N   0  0  0  0  0  0  0  0  0  0  0  0
   -8.0800   14.1440   22.1310 C   0  0  0  0  0  0  0  0  0  0  0  0
   -8.1820   15.1400   23.1290 O   0  0  0  0  0  0  0  0  0  0  0  0
   -8.0930   14.9330   24.5140 C   0  0  0  0  0  0  0  0  0  0  0  0
   -7.9070   13.8100   25.0060 O   0  0  0  0  0  0  0  0  0  0  0  0
   -8.2450   16.0970   25.2210 N   0  0  0  0  0  0  0  0  0  0  0  0
   -8.2060   16.1370   26.7000 C   0  0  2  0  0  0  0  0  0  0  0  0
   -9.5310   16.5030   27.3890 C   0  0  2  0  0  0  0  0  0  0  0  0
  -10.6470   15.5190   27.1530 C   0  0  0  0  0  0  0  0  0  0  0  0
  -10.6990   14.1920   27.9330 C   0  0  2  0  0  0  0  0  0  0  0  0
   -7.0630   17.0020   27.2890 C   0  0  0  0  0  0  0  0  0  0  0  0
   -5.7050   16.8790   26.8020 C   0  0  0  0  0  0  0  0  0  0  0  0
   -5.0090   15.8680   27.5320 C   0  0  0  0  0  0  0  0  0  0  0  0
   -3.6600   15.6000   27.1830 C   0  0  0  0  0  0  0  0  0  0  0  0
   -3.0010   16.3150   26.1330 C   0  0  0  0  0  0  0  0  0  0  0  0
   -3.7150   17.3350   25.4080 C   0  0  0  0  0  0  0  0  0  0  0  0
   -5.0640   17.6150   25.7410 C   0  0  0  0  0  0  0  0  0  0  0  0
   -9.9440   17.7420   26.8730 O   0  0  0  0  0  0  0  0  0  0  0  0
  -12.0480   13.5970   27.6040 C   0  0  0  0  0  0  0  0  0  0  0  0
  -12.0560   12.1780   27.9300 C   0  0  0  0  0  0  0  0  0  0  0  0
  -12.8470   11.7880   29.0530 C   0  0  0  0  0  0  0  0  0  0  0  0
  -12.9150   10.4070   29.4500 C   0  0  0  0  0  0  0  0  0  0  0  0
  -12.1860    9.4480   28.7060 C   0  0  0  0  0  0  0  0  0  0  0  0
  -11.4060    9.8410   27.5930 C   0  0  0  0  0  0  0  0  0  0  0  0
  -11.3340   11.2040   27.1950 C   0  0  0  0  0  0  0  0  0  0  0  0
  -10.6000   14.3790   29.3700 N   0  0  0  0  0  0  0  0  0  0  0  0
  -10.5820   13.1210   32.2350 N   0  0  0  0  0  0  0  0  0  0  0  0
   -9.7870   14.2160   31.6230 C   0  0  2  0  0  0  0  0  0  0  0  0
   -9.6000   13.9110   30.1280 C   0  0  0  0  0  0  0  0  0  0  0  0
   -8.6280   13.2630   29.6720 O   0  0  0  0  0  0  0  0  0  0  0  0
   -8.4460   14.3670   32.4340 C   0  0  1  0  0  0  0  0  0  0  0  0
   -7.4570   15.4480   31.9260 C   0  0  0  0  0  0  0  0  0  0  0  0
   -8.7310   14.6610   33.9260 C   0  0  0  0  0  0  0  0  0  0  0  0
  -11.8820   13.2440   32.6200 C   0  0  0  0  0  0  0  0  0  0  0  0
  -12.4700   12.0490   32.9860 N   0  0  0  0  0  0  0  0  0  0  0  0
  -13.8770   11.9990   33.4240 C   0  0  0  0  0  0  0  0  0  0  0  0
  -12.4590   14.3630   32.6270 O   0  0  0  0  0  0  0  0  0  0  0  0
  -14.8420   11.5630   32.4020 C   0  0  0  0  0  0  0  0  0  0  0  0
  -15.5060   12.5240   31.6880 C   0  0  0  0  0  0  0  0  0  0  0  0
  -16.5490   11.6600   30.5280 S   0  0  0  0  0  0  0  0  0  0  0  0
  -15.9510   10.1210   31.1780 C   0  0  0  0  0  0  0  0  0  0  0  0
  -15.0820   10.3100   32.1350 N   0  0  0  0  0  0  0  0  0  0  0  0
  -16.5550    9.0920   30.4850 C   0  0  2  0  0  0  0  0  0  0  0  0
  -18.0090    8.8000   30.1280 C   0  0  0  0  0  0  0  0  0  0  0  0
  -16.0270    7.8390   31.0660 C   0  0  0  0  0  0  0  0  0  0  0  0
  -11.9350   10.8230   33.0100 C   0  0  0  0  0  0  0  0  0  0  0  0
  -10.0381   14.7992   20.0372 H   0  0  0  0  0  0  0  0  0  0  0  0
   -9.4931   16.3544   20.8439 H   0  0  0  0  0  0  0  0  0  0  0  0
   -8.5239   13.8939   20.3976 H   0  0  0  0  0  0  0  0  0  0  0  0
   -7.0744   16.6374   18.7949 H   0  0  0  0  0  0  0  0  0  0  0  0
   -7.6630   14.9634   18.0891 H   0  0  0  0  0  0  0  0  0  0  0  0
   -9.4031   15.5671   18.3336 H   0  0  0  0  0  0  0  0  0  0  0  0
   -8.8751   13.3938   22.2535 H   0  0  0  0  0  0  0  0  0  0  0  0
   -7.1218   13.6065   22.1864 H   0  0  0  0  0  0  0  0  0  0  0  0
   -9.1803   14.7730   24.5600 H   0  0  0  0  0  0  0  0  0  0  0  0
   -7.9180   13.8765   25.9937 H   0  0  0  0  0  0  0  0  0  0  0  0
   -7.4983   16.7284   24.8975 H   0  0  0  0  0  0  0  0  0  0  0  0
   -7.9996   15.0823   26.9346 H   0  0  0  0  0  0  0  0  0  0  0  0
   -9.3381   16.5129   28.4719 H   0  0  0  0  0  0  0  0  0  0  0  0
  -11.5857   16.0493   27.3710 H   0  0  0  0  0  0  0  0  0  0  0  0
  -10.4712   15.1901   26.1181 H   0  0  0  0  0  0  0  0  0  0  0  0
   -9.8505   13.5522   27.6487 H   0  0  0  0  0  0  0  0  0  0  0  0
   -7.3554   18.0514   27.1369 H   0  0  0  0  0  0  0  0  0  0  0  0
   -6.9840   16.6269   28.3201 H   0  0  0  0  0  0  0  0  0  0  0  0
   -5.3750   17.6331   27.5317 H   0  0  0  0  0  0  0  0  0  0  0  0
   -5.0195   16.1644   28.5913 H   0  0  0  0  0  0  0  0  0  0  0  0
   -5.5441   14.9381   27.2892 H   0  0  0  0  0  0  0  0  0  0  0  0
   -3.0653   15.7680   28.0930 H   0  0  0  0  0  0  0  0  0  0  0  0
   -3.7211   14.5815   26.7719 H   0  0  0  0  0  0  0  0  0  0  0  0
   -2.1200   16.7986   26.5802 H   0  0  0  0  0  0  0  0  0  0  0  0
   -2.8158   15.5418   25.3729 H   0  0  0  0  0  0  0  0  0  0  0  0
   -3.1529   18.2717   25.5369 H   0  0  0  0  0  0  0  0  0  0  0  0
   -3.7804   16.9282   24.3881 H   0  0  0  0  0  0  0  0  0  0  0  0
   -5.6588   17.4464   24.8312 H   0  0  0  0  0  0  0  0  0  0  0  0
   -5.0238   18.6431   26.1302 H   0  0  0  0  0  0  0  0  0  0  0  0
  -10.1495   18.3585   27.6198 H   0  0  0  0  0  0  0  0  0  0  0  0
  -12.8255   14.1101   28.1890 H   0  0  0  0  0  0  0  0  0  0  0  0
  -12.2474   13.7231   26.5296 H   0  0  0  0  0  0  0  0  0  0  0  0
  -11.1895   12.3251   28.5914 H   0  0  0  0  0  0  0  0  0  0  0  0
  -12.4631   12.3470   29.9191 H   0  0  0  0  0  0  0  0  0  0  0  0
  -13.8735   12.0023   28.7209 H   0  0  0  0  0  0  0  0  0  0  0  0
  -12.5572   10.3509   30.4887 H   0  0  0  0  0  0  0  0  0  0  0  0
  -13.9667   10.1324   29.2808 H   0  0  0  0  0  0  0  0  0  0  0  0
  -11.5010    8.9562   29.4123 H   0  0  0  0  0  0  0  0  0  0  0  0
  -12.9782    8.8374   28.2482 H   0  0  0  0  0  0  0  0  0  0  0  0
  -10.3749    9.5221   27.8053 H   0  0  0  0  0  0  0  0  0  0  0  0
  -11.9323    9.3698   26.7498 H   0  0  0  0  0  0  0  0  0  0  0  0
  -11.6919   11.2548   26.1561 H   0  0  0  0  0  0  0  0  0  0  0  0
  -10.2814   11.4721   27.3688 H   0  0  0  0  0  0  0  0  0  0  0  0
  -10.6061   15.3983   29.5178 H   0  0  0  0  0  0  0  0  0  0  0  0
  -10.5653   12.3497   31.5526 H   0  0  0  0  0  0  0  0  0  0  0  0
  -10.2952   15.1902   31.6756 H   0  0  0  0  0  0  0  0  0  0  0  0
   -9.0598   14.8609   30.0018 H   0  0  0  0  0  0  0  0  0  0  0  0
   -8.0898   12.9042   30.4215 H   0  0  0  0  0  0  0  0  0  0  0  0
   -7.9561   13.3936   32.2843 H   0  0  0  0  0  0  0  0  0  0  0  0
   -6.9938   15.9543   32.7858 H   0  0  0  0  0  0  0  0  0  0  0  0
   -6.6752   14.9720   31.3160 H   0  0  0  0  0  0  0  0  0  0  0  0
   -8.0005   16.1845   31.3160 H   0  0  0  0  0  0  0  0  0  0  0  0
   -8.1024   14.0126   34.5541 H   0  0  0  0  0  0  0  0  0  0  0  0
   -8.5017   15.7149   34.1424 H   0  0  0  0  0  0  0  0  0  0  0  0
   -9.7915   14.4646   34.1424 H   0  0  0  0  0  0  0  0  0  0  0  0
  -12.2049   13.0845   31.5806 H   0  0  0  0  0  0  0  0  0  0  0  0
  -13.9435   11.3022   34.2725 H   0  0  0  0  0  0  0  0  0  0  0  0
  -14.1519   13.0333   33.6781 H   0  0  0  0  0  0  0  0  0  0  0  0
  -12.6079   14.6517   33.5622 H   0  0  0  0  0  0  0  0  0  0  0  0
  -15.6432   11.5694   33.1557 H   0  0  0  0  0  0  0  0  0  0  0  0
  -16.1172   13.1434   32.3609 H   0  0  0  0  0  0  0  0  0  0  0  0
  -14.8028   13.1928   31.1701 H   0  0  0  0  0  0  0  0  0  0  0  0
  -15.1370   10.1248   30.4381 H   0  0  0  0  0  0  0  0  0  0  0  0
  -14.1958    9.8636   31.8588 H   0  0  0  0  0  0  0  0  0  0  0  0
  -16.3197    9.5275   29.5027 H   0  0  0  0  0  0  0  0  0  0  0  0
  -18.5965    8.6820   31.0505 H   0  0  0  0  0  0  0  0  0  0  0  0
  -18.4164    9.6343   29.5380 H   0  0  0  0  0  0  0  0  0  0  0  0
  -18.0627    7.8731   29.5380 H   0  0  0  0  0  0  0  0  0  0  0  0
  -16.0543    7.9038   32.1637 H   0  0  0  0  0  0  0  0  0  0  0  0
  -16.6446    6.9918   30.7332 H   0  0  0  0  0  0  0  0  0  0  0  0
  -14.9893    7.6893   30.7332 H   0  0  0  0  0  0  0  0  0  0  0  0
  -11.7958   10.5040   34.0535 H   0  0  0  0  0  0  0  0  0  0  0  0
  -12.6078   10.1192   32.4981 H   0  0  0  0  0  0  0  0  0  0  0  0
  -10.9615   10.8377   32.4981 H   0  0  0  0  0  0  0  0  0  0  0  0
  1  2  1  0
  2  3  1  0
  3  4  1  0
  1  5  1  0
  4  5  1  0
  2  6  1  0
  6  7  1  0
  7  8  1  0
  8  9  1  0
  8 10  1  0
 10 11  1  0
 11 12  1  0
 12 13  1  0
 13 14  1  0
 11 15  1  0
 15 16  1  0
 16 17  1  0
 17 18  1  0
 18 19  1  0
 19 20  1  0
 16 21  1  0
 20 21  1  0
 12 22  1  0
 14 23  1  0
 23 24  1  0
 24 25  1  0
 25 26  1  0
 26 27  1  0
 27 28  1  0
 24 29  1  0
 28 29  1  0
 14 30  1  0
 31 32  1  0
 30 33  1  0
 32 33  1  0
 33 34  1  0
 32 35  1  0
 35 36  1  0
 35 37  1  0
 31 38  1  0
 38 39  1  0
 39 40  1  0
 38 41  1  0
 40 42  1  0
 42 43  1  0
 43 44  1  0
 44 45  1  0
 42 46  1  0
 45 46  1  0
 45 47  1  0
 47 48  1  0
 47 49  1  0
 39 50  1  0
  1 51  1  0
  1 52  1  0
  2 53  1  0
  4 54  1  0
  4 55  1  0
  5 56  1  0
  6 57  1  0
  6 58  1  0
  8 59  1  0
  9 60  1  0
 10 61  1  0
 11 62  1  1
 12 63  1  1
 13 64  1  0
 13 65  1  0
 14 66  1  6
 15 67  1  0
 15 68  1  0
 16 69  1  0
 17 70  1  0
 17 71  1  0
 18 72  1  0
 18 73  1  0
 19 74  1  0
 19 75  1  0
 20 76  1  0
 20 77  1  0
 21 78  1  0
 21 79  1  0
 22 80  1  0
 23 81  1  0
 23 82  1  0
 24 83  1  0
 25 84  1  0
 25 85  1  0
 26 86  1  0
 26 87  1  0
 27 88  1  0
 27 89  1  0
 28 90  1  0
 28 91  1  0
 29 92  1  0
 29 93  1  0
 30 94  1  0
 31 95  1  0
 32 96  1  6
 33 97  1  0
 34 98  1  0
 35 99  1  1
 36100  1  0
 36101  1  0
 36102  1  0
 37103  1  0
 37104  1  0
 37105  1  0
 38106  1  0
 40107  1  0
 40108  1  0
 41109  1  0
 42110  1  0
 43111  1  0
 43112  1  0
 45113  1  0
 46114  1  0
 47115  1  6
 48116  1  0
 48117  1  0
 48118  1  0
 49119  1  0
 49120  1  0
 49121  1  0
 50122  1  0
 50123  1  0
 50124  1  0
M  END
>  <PDBID>  (1) 
1RL8

>  <PDB ID>  (1) 
1RL8

>  <Generic Name>  (1) 
Ritonavir

>  <Brand Name>  (1) 
Holkira Pak#Kaletra#Lopinavir-ritonavir#Norvir#Norvir Sec#Technivie#Viekira Pak#Viekira XR#Busvir#Empetus#Normune

>  <DrugBank ID>  (1) 
DB00503

>  <ATC Codes>  (1) 
J05AX67#J05AR10#J05AE03#J05AX66

>  <Ligand ID>  (1) 
RIT

>  <Target Name>  (1) 
Pol polyprotein

>  <UniProt ID>  (1) 
Q72874

>  <PDB ID.1>  (1) 
1RL8

>  <Seq. Identity>  (1) 
97%

$$$$
