PDB_DB09330_99
     RDKit          3D

 94 97  0  0  0  0  0  0  0  0999 V2000
   -3.2190  -49.7970   11.0900 C   0  0  0  0  0  0  0  0  0  0  0  0
   -2.4360  -49.0430   12.0780 N   0  0  0  0  0  0  0  0  0  0  0  0
   -3.1940  -48.2140   13.0480 C   0  0  0  0  0  0  0  0  0  0  0  0
   -1.8790  -50.1420   12.9170 C   0  0  0  0  0  0  0  0  0  0  0  0
   -0.3450  -50.2720   12.7500 C   0  0  0  0  0  0  0  0  0  0  0  0
    0.2540  -49.4220   13.8270 N   0  0  0  0  0  0  0  0  0  0  0  0
    1.2860  -48.4860   13.3050 C   0  0  0  0  0  0  0  0  0  0  0  0
    1.8270  -50.9880   14.7920 C   0  0  0  0  0  0  0  0  0  0  0  0
    2.2570  -51.7560   15.8830 C   0  0  0  0  0  0  0  0  0  0  0  0
    3.3840  -52.5630   15.7970 O   0  0  0  0  0  0  0  0  0  0  0  0
    4.2560  -52.2140   14.7430 C   0  0  0  0  0  0  0  0  0  0  0  0
    0.6890  -50.2020   14.9230 C   0  0  0  0  0  0  0  0  0  0  0  0
   -0.0870  -50.1800   16.1140 C   0  0  1  0  0  0  0  0  0  0  0  0
   -1.1890  -49.3830   16.2610 N   0  0  0  0  0  0  0  0  0  0  0  0
   -2.2310  -49.6780   17.0600 C   0  0  0  0  0  0  0  0  0  0  0  0
   -2.2740  -50.7450   17.6610 O   0  0  0  0  0  0  0  0  0  0  0  0
   -3.3970  -48.6770   17.2180 C   0  0  0  0  0  0  0  0  0  0  0  0
   -4.5960  -48.9250   18.0680 C   0  0  0  0  0  0  0  0  0  0  0  0
    0.3770  -50.9640   17.2040 C   0  0  0  0  0  0  0  0  0  0  0  0
    1.5390  -51.7450   17.1020 C   0  0  0  0  0  0  0  0  0  0  0  0
    2.0390  -52.5820   18.1300 N   0  0  0  0  0  0  0  0  0  0  0  0
    1.6980  -52.5930   19.4850 C   0  0  0  0  0  0  0  0  0  0  0  0
    0.9690  -51.6510   20.0690 N   0  0  0  0  0  0  0  0  0  0  0  0
    2.1650  -53.6150   20.2090 N   0  0  0  0  0  0  0  0  0  0  0  0
    1.8870  -53.7180   21.5680 C   0  0  0  0  0  0  0  0  0  0  0  0
    1.1370  -52.7430   22.1890 C   0  0  0  0  0  0  0  0  0  0  0  0
    0.6750  -51.6860   21.3960 C   0  0  0  0  0  0  0  0  0  0  0  0
   -0.1460  -50.6020   22.0120 C   0  0  0  0  0  0  0  0  0  0  0  0
   -0.4110  -49.3940   21.4760 C   0  0  0  0  0  0  0  0  0  0  0  0
   -0.0560  -48.8180   20.3070 C   0  0  0  0  0  0  0  0  0  0  0  0
   -0.4670  -47.5300   19.9650 C   0  0  0  0  0  0  0  0  0  0  0  0
   -1.2660  -46.8340   20.8660 C   0  0  0  0  0  0  0  0  0  0  0  0
   -1.6160  -47.4370   22.0710 C   0  0  0  0  0  0  0  0  0  0  0  0
   -1.1720  -48.7260   22.3530 C   0  0  0  0  0  0  0  0  0  0  0  0
   -1.3740  -49.5080   23.4040 N   0  0  0  0  0  0  0  0  0  0  0  0
   -2.1580  -49.1370   24.5860 C   0  0  0  0  0  0  0  0  0  0  0  0
   -0.7510  -50.6610   23.2050 C   0  0  0  0  0  0  0  0  0  0  0  0
   -3.9169  -50.4691   11.6108 H   0  0  0  0  0  0  0  0  0  0  0  0
   -3.7862  -49.0963   10.4597 H   0  0  0  0  0  0  0  0  0  0  0  0
   -2.5402  -50.3902   10.4597 H   0  0  0  0  0  0  0  0  0  0  0  0
   -2.9239  -48.5094   14.0726 H   0  0  0  0  0  0  0  0  0  0  0  0
   -2.9471  -47.1530   12.8952 H   0  0  0  0  0  0  0  0  0  0  0  0
   -4.2728  -48.3651   12.8952 H   0  0  0  0  0  0  0  0  0  0  0  0
   -2.1058  -49.9337   13.9730 H   0  0  0  0  0  0  0  0  0  0  0  0
   -2.3395  -51.0868   12.5926 H   0  0  0  0  0  0  0  0  0  0  0  0
   -0.0336  -51.3200   12.8710 H   0  0  0  0  0  0  0  0  0  0  0  0
   -0.0171  -49.9509   11.7503 H   0  0  0  0  0  0  0  0  0  0  0  0
    1.8098  -48.0109   14.1475 H   0  0  0  0  0  0  0  0  0  0  0  0
    2.0090  -49.0428   12.6908 H   0  0  0  0  0  0  0  0  0  0  0  0
    0.8022  -47.7123   12.6908 H   0  0  0  0  0  0  0  0  0  0  0  0
    2.6548  -50.3135   14.5276 H   0  0  0  0  0  0  0  0  0  0  0  0
    1.5415  -51.7385   14.0401 H   0  0  0  0  0  0  0  0  0  0  0  0
    1.6313  -52.5933   15.5402 H   0  0  0  0  0  0  0  0  0  0  0  0
    5.2013  -51.8357   15.1592 H   0  0  0  0  0  0  0  0  0  0  0  0
    4.4568  -53.1010   14.1243 H   0  0  0  0  0  0  0  0  0  0  0  0
    3.7893  -51.4334   14.1243 H   0  0  0  0  0  0  0  0  0  0  0  0
    0.0695  -51.0405   14.5721 H   0  0  0  0  0  0  0  0  0  0  0  0
    0.5481  -49.3754   16.5130 H   0  0  0  0  0  0  0  0  0  0  0  0
   -0.8339  -48.4738   16.5899 H   0  0  0  0  0  0  0  0  0  0  0  0
   -2.7543  -50.1367   16.2081 H   0  0  0  0  0  0  0  0  0  0  0  0
   -2.2671  -50.5749   18.6363 H   0  0  0  0  0  0  0  0  0  0  0  0
   -2.9452  -47.7504   17.6019 H   0  0  0  0  0  0  0  0  0  0  0  0
   -3.8414  -48.7115   16.2124 H   0  0  0  0  0  0  0  0  0  0  0  0
   -4.3118  -48.8662   19.1290 H   0  0  0  0  0  0  0  0  0  0  0  0
   -5.3625  -48.1664   17.8511 H   0  0  0  0  0  0  0  0  0  0  0  0
   -4.9986  -49.9254   17.8511 H   0  0  0  0  0  0  0  0  0  0  0  0
    0.5432  -50.2675   18.0390 H   0  0  0  0  0  0  0  0  0  0  0  0
   -0.4118  -51.7244   17.3018 H   0  0  0  0  0  0  0  0  0  0  0  0
    2.1420  -50.8932   17.4495 H   0  0  0  0  0  0  0  0  0  0  0  0
    1.8381  -53.5386   17.8051 H   0  0  0  0  0  0  0  0  0  0  0  0
    2.6135  -52.0302   19.7200 H   0  0  0  0  0  0  0  0  0  0  0  0
    1.4632  -50.7620   19.9066 H   0  0  0  0  0  0  0  0  0  0  0  0
    1.8029  -54.4738   19.7704 H   0  0  0  0  0  0  0  0  0  0  0  0
    1.3551  -54.6699   21.7131 H   0  0  0  0  0  0  0  0  0  0  0  0
    2.8760  -53.6180   22.0391 H   0  0  0  0  0  0  0  0  0  0  0  0
    0.2572  -53.2340   22.6304 H   0  0  0  0  0  0  0  0  0  0  0  0
    1.8232  -52.2757   22.9106 H   0  0  0  0  0  0  0  0  0  0  0  0
   -0.2431  -52.2511   21.1777 H   0  0  0  0  0  0  0  0  0  0  0  0
    0.7552  -50.1917   22.4911 H   0  0  0  0  0  0  0  0  0  0  0  0
    0.4922  -48.9846   21.9520 H   0  0  0  0  0  0  0  0  0  0  0  0
    1.0438  -48.8051   20.2911 H   0  0  0  0  0  0  0  0  0  0  0  0
   -0.5928  -49.4356   19.5718 H   0  0  0  0  0  0  0  0  0  0  0  0
    0.4408  -46.9302   19.8032 H   0  0  0  0  0  0  0  0  0  0  0  0
   -1.1107  -47.6741   19.0848 H   0  0  0  0  0  0  0  0  0  0  0  0
   -0.7343  -45.9038   21.1148 H   0  0  0  0  0  0  0  0  0  0  0  0
   -2.2253  -46.7295   20.3379 H   0  0  0  0  0  0  0  0  0  0  0  0
   -1.2386  -46.7870   22.8742 H   0  0  0  0  0  0  0  0  0  0  0  0
   -2.7068  -47.5542   21.9908 H   0  0  0  0  0  0  0  0  0  0  0  0
   -0.2675  -48.3118   22.8223 H   0  0  0  0  0  0  0  0  0  0  0  0
   -1.5983  -49.4019   25.4952 H   0  0  0  0  0  0  0  0  0  0  0  0
   -2.3478  -48.0536   24.5748 H   0  0  0  0  0  0  0  0  0  0  0  0
   -3.1161  -49.6772   24.5748 H   0  0  0  0  0  0  0  0  0  0  0  0
   -1.4790  -51.4855   23.2143 H   0  0  0  0  0  0  0  0  0  0  0  0
   -0.0125  -50.8394   24.0004 H   0  0  0  0  0  0  0  0  0  0  0  0
  1  2  1  0
  2  3  1  0
  2  4  1  0
  4  5  1  0
  5  6  1  0
  6  7  1  0
  8  9  1  0
  9 10  1  0
 10 11  1  0
  6 12  1  0
  8 12  1  0
 12 13  1  0
 13 14  1  0
 14 15  1  0
 15 16  1  0
 15 17  1  0
 17 18  1  0
 13 19  1  0
  9 20  1  0
 19 20  1  0
 20 21  1  0
 21 22  1  0
 22 23  1  0
 22 24  1  0
 24 25  1  0
 25 26  1  0
 23 27  1  0
 26 27  1  0
 27 28  1  0
 28 29  1  0
 29 30  1  0
 30 31  1  0
 31 32  1  0
 32 33  1  0
 29 34  1  0
 33 34  1  0
 34 35  1  0
 35 36  1  0
 28 37  1  0
 35 37  1  0
  1 38  1  0
  1 39  1  0
  1 40  1  0
  3 41  1  0
  3 42  1  0
  3 43  1  0
  4 44  1  0
  4 45  1  0
  5 46  1  0
  5 47  1  0
  7 48  1  0
  7 49  1  0
  7 50  1  0
  8 51  1  0
  8 52  1  0
  9 53  1  0
 11 54  1  0
 11 55  1  0
 11 56  1  0
 12 57  1  0
 13 58  1  6
 14 59  1  0
 15 60  1  0
 16 61  1  0
 17 62  1  0
 17 63  1  0
 18 64  1  0
 18 65  1  0
 18 66  1  0
 19 67  1  0
 19 68  1  0
 20 69  1  0
 21 70  1  0
 22 71  1  0
 23 72  1  0
 24 73  1  0
 25 74  1  0
 25 75  1  0
 26 76  1  0
 26 77  1  0
 27 78  1  0
 28 79  1  0
 29 80  1  0
 30 81  1  0
 30 82  1  0
 31 83  1  0
 31 84  1  0
 32 85  1  0
 32 86  1  0
 33 87  1  0
 33 88  1  0
 34 89  1  0
 36 90  1  0
 36 91  1  0
 36 92  1  0
 37 93  1  0
 37 94  1  0
M  END
>  <PDBID>  (1) 
4ZAU

>  <PDB ID>  (1) 
4ZAU

>  <Generic Name>  (1) 
Osimertinib

>  <Brand Name>  (1) 
Tagrisso

>  <DrugBank ID>  (1) 
DB09330

>  <ATC Codes>  (1) 
nan

>  <Ligand ID>  (1) 
YY3

>  <Target Name>  (1) 
Epidermal growth factor receptor

>  <UniProt ID>  (1) 
P00533

>  <PDB ID.1>  (1) 
4ZAU

>  <Seq. Identity>  (1) 
96%

$$$$
