PDB_DB00398_99
     RDKit          3D

 70 72  0  0  0  0  0  0  0  0999 V2000
   26.3000   23.0600   33.4880 C   0  0  0  0  0  0  0  0  0  0  0  0
   26.5270   22.0590   34.4220 C   0  0  1  0  0  0  0  0  0  0  0  0
   27.2160   20.9090   33.9970 C   0  0  0  0  0  0  0  0  0  0  0  0
   27.6570   20.7200   32.6830 C   0  0  0  0  0  0  0  0  0  0  0  0
   25.0010   22.8570   36.1800 C   0  0  0  0  0  0  0  0  0  0  0  0
   23.6440   23.1580   38.1460 C   0  0  1  0  0  0  0  0  0  0  0  0
   23.7370   23.5620   39.4630 C   0  0  0  0  0  0  0  0  0  0  0  0
   22.6200   24.1060   40.0910 C   0  0  0  0  0  0  0  0  0  0  0  0
   21.4190   24.2600   39.4500 C   0  0  1  0  0  0  0  0  0  0  0  0
   21.3100   23.8740   38.1470 C   0  0  0  0  0  0  0  0  0  0  0  0
   22.4270   23.3250   37.5340 C   0  0  0  0  0  0  0  0  0  0  0  0
   20.2980   24.6840   40.1440 O   0  0  0  0  0  0  0  0  0  0  0  0
   20.8090   27.0980   39.9440 C   0  0  0  0  0  0  0  0  0  0  0  0
   20.2470   28.3760   40.0430 C   0  0  0  0  0  0  0  0  0  0  0  0
   18.1720   27.5350   40.7810 C   0  0  0  0  0  0  0  0  0  0  0  0
   18.6480   26.2120   40.6670 C   0  0  0  0  0  0  0  0  0  0  0  0
   16.3820   29.0800   41.3800 N   0  0  0  0  0  0  0  0  0  0  0  0
   15.0470   29.4020   41.8520 C   0  0  0  0  0  0  0  0  0  0  0  0
   27.4200   21.7420   31.7450 C   0  0  0  0  0  0  0  0  0  0  0  0
   26.7200   22.9520   32.1850 C   0  0  0  0  0  0  0  0  0  0  0  0
   26.4330   24.0790   31.2050 C   0  0  1  0  0  0  0  0  0  0  0  0
   25.6430   23.6890   30.2510 F   0  0  0  0  0  0  0  0  0  0  0  0
   25.9040   25.1090   31.7580 F   0  0  0  0  0  0  0  0  0  0  0  0
   27.5590   24.5000   30.7230 F   0  0  0  0  0  0  0  0  0  0  0  0
   27.9360   21.5870   30.0520 Cl  0  0  0  0  0  0  0  0  0  0  0  0
   26.0470   22.1110   35.7280 N   0  0  0  0  0  0  0  0  0  0  0  0
   24.7680   22.7310   37.5000 N   0  0  0  0  0  0  0  0  0  0  0  0
   24.3710   23.5730   35.4360 O   0  0  0  0  0  0  0  0  0  0  0  0
   19.9570   26.0200   40.2190 C   0  0  0  0  0  0  0  0  0  0  0  0
   18.9760   28.5650   40.4480 N   0  0  0  0  0  0  0  0  0  0  0  0
   16.7850   27.8040   41.2370 C   0  0  0  0  0  0  0  0  0  0  0  0
   16.0640   26.8500   41.4790 O   0  0  0  0  0  0  0  0  0  0  0  0
   25.2099   23.2021   33.4487 H   0  0  0  0  0  0  0  0  0  0  0  0
   26.9340   23.8753   33.8667 H   0  0  0  0  0  0  0  0  0  0  0  0
   25.5715   21.5875   34.1489 H   0  0  0  0  0  0  0  0  0  0  0  0
   28.1142   20.8447   34.6288 H   0  0  0  0  0  0  0  0  0  0  0  0
   26.4293   20.1440   34.0739 H   0  0  0  0  0  0  0  0  0  0  0  0
   28.7448   20.5621   32.7244 H   0  0  0  0  0  0  0  0  0  0  0  0
   27.0601   19.8720   32.3163 H   0  0  0  0  0  0  0  0  0  0  0  0
   24.3169   22.0193   35.9793 H   0  0  0  0  0  0  0  0  0  0  0  0
   23.3404   22.1534   38.4756 H   0  0  0  0  0  0  0  0  0  0  0  0
   24.0361   22.6801   40.0484 H   0  0  0  0  0  0  0  0  0  0  0  0
   24.4489   24.3998   39.4279 H   0  0  0  0  0  0  0  0  0  0  0  0
   22.4205   23.4693   40.9655 H   0  0  0  0  0  0  0  0  0  0  0  0
   22.9314   25.1501   40.2420 H   0  0  0  0  0  0  0  0  0  0  0  0
   21.7208   25.2671   39.1264 H   0  0  0  0  0  0  0  0  0  0  0  0
   20.5065   23.1246   38.0941 H   0  0  0  0  0  0  0  0  0  0  0  0
   21.1277   24.8096   37.5980 H   0  0  0  0  0  0  0  0  0  0  0  0
   22.6220   23.9558   36.6542 H   0  0  0  0  0  0  0  0  0  0  0  0
   22.1071   22.2782   37.4254 H   0  0  0  0  0  0  0  0  0  0  0  0
   21.1830   26.9755   38.9168 H   0  0  0  0  0  0  0  0  0  0  0  0
   21.5879   27.0603   40.7198 H   0  0  0  0  0  0  0  0  0  0  0  0
   20.8811   28.9383   40.7442 H   0  0  0  0  0  0  0  0  0  0  0  0
   20.2050   28.6934   38.9906 H   0  0  0  0  0  0  0  0  0  0  0  0
   18.5434   27.5795   41.8154 H   0  0  0  0  0  0  0  0  0  0  0  0
   18.5727   25.7509   41.6628 H   0  0  0  0  0  0  0  0  0  0  0  0
   18.0216   25.7625   39.8824 H   0  0  0  0  0  0  0  0  0  0  0  0
   16.4780   29.5213   40.4543 H   0  0  0  0  0  0  0  0  0  0  0  0
   15.0376   29.4043   42.9520 H   0  0  0  0  0  0  0  0  0  0  0  0
   14.7567   30.3959   41.4808 H   0  0  0  0  0  0  0  0  0  0  0  0
   14.3355   28.6497   41.4808 H   0  0  0  0  0  0  0  0  0  0  0  0
   26.4566   21.2794   31.4844 H   0  0  0  0  0  0  0  0  0  0  0  0
   27.6824   23.4098   32.4573 H   0  0  0  0  0  0  0  0  0  0  0  0
   25.8019   21.1382   35.9614 H   0  0  0  0  0  0  0  0  0  0  0  0
   24.8271   21.7209   37.6929 H   0  0  0  0  0  0  0  0  0  0  0  0
   23.8199   24.1994   35.9690 H   0  0  0  0  0  0  0  0  0  0  0  0
   20.2708   26.0409   41.2731 H   0  0  0  0  0  0  0  0  0  0  0  0
   19.0252   29.1726   41.2782 H   0  0  0  0  0  0  0  0  0  0  0  0
   17.1269   27.7948   42.2825 H   0  0  0  0  0  0  0  0  0  0  0  0
   15.9806   26.7397   42.4593 H   0  0  0  0  0  0  0  0  0  0  0  0
  1  2  1  0
  2  3  1  0
  3  4  1  0
  6  7  1  0
  7  8  1  0
  8  9  1  0
  9 10  1  0
  6 11  1  0
 10 11  1  0
  9 12  1  0
 13 14  1  0
 15 16  1  0
 17 18  1  0
  4 19  1  0
  1 20  1  0
 19 20  1  0
 20 21  1  0
 21 22  1  6
 21 23  1  0
 21 24  1  0
 19 25  1  0
  2 26  1  0
  5 26  1  0
  5 27  1  0
  6 27  1  0
  5 28  1  0
 12 29  1  0
 13 29  1  0
 16 29  1  0
 14 30  1  0
 15 30  1  0
 15 31  1  0
 17 31  1  0
 31 32  1  0
  1 33  1  0
  1 34  1  0
  2 35  1  1
  3 36  1  0
  3 37  1  0
  4 38  1  0
  4 39  1  0
  5 40  1  0
  6 41  1  1
  7 42  1  0
  7 43  1  0
  8 44  1  0
  8 45  1  0
  9 46  1  6
 10 47  1  0
 10 48  1  0
 11 49  1  0
 11 50  1  0
 13 51  1  0
 13 52  1  0
 14 53  1  0
 14 54  1  0
 15 55  1  0
 16 56  1  0
 16 57  1  0
 17 58  1  0
 18 59  1  0
 18 60  1  0
 18 61  1  0
 19 62  1  0
 20 63  1  0
 26 64  1  0
 27 65  1  0
 28 66  1  0
 29 67  1  0
 30 68  1  0
 31 69  1  0
 32 70  1  0
M  END
>  <PDBID>  (1) 
3WZE

>  <PDB ID>  (1) 
3WZE

>  <Generic Name>  (1) 
Sorafenib

>  <Brand Name>  (1) 
Nexavar

>  <DrugBank ID>  (1) 
DB00398

>  <ATC Codes>  (1) 
L01XE05

>  <Ligand ID>  (1) 
BAX

>  <Target Name>  (1) 
Vascular endothelial growth factor receptor 3

>  <UniProt ID>  (1) 
P35916

>  <PDB ID.1>  (1) 
3WZE

>  <Seq. Identity>  (1) 
67%

$$$$
