PDB_DB00712_97
     RDKit          3D

180184  0  0  0  0  0  0  0  0999 V2000
   25.7030   25.5640   11.7310 C   0  0  0  0  0  0  0  0  0  0  0  0
   25.9650   24.8950   12.9470 C   0  0  0  0  0  0  0  0  0  0  0  0
   25.4500   23.6210   13.1640 C   0  0  0  0  0  0  0  0  0  0  0  0
   24.6770   23.0200   12.1690 C   0  0  0  0  0  0  0  0  0  0  0  0
   24.4210   23.6930   10.9590 C   0  0  0  0  0  0  0  0  0  0  0  0
   24.9370   24.9670   10.7450 C   0  0  0  0  0  0  0  0  0  0  0  0
   25.6920   22.9020   14.4740 C   0  0  0  0  0  0  0  0  0  0  0  0
   26.9670   22.9010   15.0900 C   0  0  0  0  0  0  0  0  0  0  0  0
   27.1540   22.2300   16.3370 C   0  0  0  0  0  0  0  0  0  0  0  0
   26.0390   21.5620   16.9510 C   0  0  1  0  0  0  0  0  0  0  0  0
   24.7930   21.5790   16.3360 C   0  0  0  0  0  0  0  0  0  0  0  0
   24.6100   22.2320   15.1130 C   0  0  0  0  0  0  0  0  0  0  0  0
   26.2080   20.7520   18.2200 C   0  0  2  0  0  0  0  0  0  0  0  0
   27.3880   21.2730   19.0370 C   0  0  0  0  0  0  0  0  0  0  0  0
   26.4410   19.2950   17.8220 C   0  0  0  0  0  0  0  0  0  0  0  0
   27.4480   18.9770   17.2390 O   0  0  0  0  0  0  0  0  0  0  0  0
   25.5420   18.3820   18.0790 O   0  0  0  0  0  0  0  0  0  0  0  0
   23.3820   22.2060   14.5300 F   0  0  0  0  0  0  0  0  0  0  0  0
   69.1310   18.9350    7.1780 C   0  0  0  0  0  0  0  0  0  0  0  0
   68.6870   17.7490    7.7630 C   0  0  0  0  0  0  0  0  0  0  0  0
   69.1860   17.3510    9.0170 C   0  0  0  0  0  0  0  0  0  0  0  0
   70.1350   18.1620    9.6920 C   0  0  0  0  0  0  0  0  0  0  0  0
   70.5820   19.3590    9.1010 C   0  0  0  0  0  0  0  0  0  0  0  0
   70.0840   19.7450    7.8480 C   0  0  0  0  0  0  0  0  0  0  0  0
   68.7460   16.0300    9.6280 C   0  0  0  0  0  0  0  0  0  0  0  0
   67.3580   15.6110    9.6230 C   0  0  0  0  0  0  0  0  0  0  0  0
   67.0020   14.3960   10.2450 C   0  0  0  0  0  0  0  0  0  0  0  0
   68.0130   13.5900   10.8680 C   0  0  0  0  0  0  0  0  0  0  0  0
   69.3290   13.9910   10.8620 C   0  0  0  0  0  0  0  0  0  0  0  0
   69.7120   15.2000   10.2530 C   0  0  0  0  0  0  0  0  0  0  0  0
   67.6820   12.3230   11.5710 C   0  0  2  0  0  0  0  0  0  0  0  0
   66.4450   11.6730   10.9880 C   0  0  0  0  0  0  0  0  0  0  0  0
   67.4810   12.6510   13.0190 C   0  0  0  0  0  0  0  0  0  0  0  0
   66.5480   13.3380   13.3490 O   0  0  0  0  0  0  0  0  0  0  0  0
   68.3250   12.2260   13.9280 O   0  0  0  0  0  0  0  0  0  0  0  0
   71.0010   15.5800   10.2850 F   0  0  0  0  0  0  0  0  0  0  0  0
   58.4870   40.7660   69.5430 C   0  0  0  0  0  0  0  0  0  0  0  0
   58.2640   41.4290   70.7620 C   0  0  0  0  0  0  0  0  0  0  0  0
   58.7360   42.7240   70.9350 C   0  0  0  0  0  0  0  0  0  0  0  0
   59.4350   43.3510   69.8850 C   0  0  0  0  0  0  0  0  0  0  0  0
   59.6610   42.6960   68.6700 C   0  0  0  0  0  0  0  0  0  0  0  0
   59.1910   41.4090   68.4940 C   0  0  0  0  0  0  0  0  0  0  0  0
   58.5110   43.4550   72.2330 C   0  0  0  0  0  0  0  0  0  0  0  0
   57.2810   43.3870   72.9240 C   0  0  0  0  0  0  0  0  0  0  0  0
   57.1320   44.0920   74.1620 C   0  0  0  0  0  0  0  0  0  0  0  0
   58.2080   44.8370   74.6730 C   0  0  0  0  0  0  0  0  0  0  0  0
   59.4030   44.8870   73.9780 C   0  0  0  0  0  0  0  0  0  0  0  0
   59.5530   44.2080   72.7650 C   0  0  0  0  0  0  0  0  0  0  0  0
   58.0860   45.6390   75.9590 C   0  0  2  0  0  0  0  0  0  0  0  0
   56.9960   45.0610   76.8620 C   0  0  0  0  0  0  0  0  0  0  0  0
   57.7480   47.0740   75.6040 C   0  0  0  0  0  0  0  0  0  0  0  0
   56.6650   47.3380   75.1220 O   0  0  0  0  0  0  0  0  0  0  0  0
   58.6430   48.0370   75.7950 O   0  0  0  0  0  0  0  0  0  0  0  0
   60.7060   44.3050   72.0770 F   0  0  0  0  0  0  0  0  0  0  0  0
   15.4050   48.9370   65.7220 C   0  0  0  0  0  0  0  0  0  0  0  0
   15.8450   50.1170   66.3070 C   0  0  0  0  0  0  0  0  0  0  0  0
   15.3670   50.4900   67.5650 C   0  0  0  0  0  0  0  0  0  0  0  0
   14.4330   49.6550   68.2440 C   0  0  0  0  0  0  0  0  0  0  0  0
   13.9850   48.4600   67.6550 C   0  0  0  0  0  0  0  0  0  0  0  0
   14.4710   48.1000   66.3900 C   0  0  0  0  0  0  0  0  0  0  0  0
   15.8090   51.8030   68.2040 C   0  0  0  0  0  0  0  0  0  0  0  0
   17.1330   52.2150   68.1570 C   0  0  0  0  0  0  0  0  0  0  0  0
   17.5010   53.4350   68.7810 C   0  0  0  0  0  0  0  0  0  0  0  0
   16.5230   54.2170   69.4390 C   0  0  0  0  0  0  0  0  0  0  0  0
   15.2100   53.7930   69.4730 C   0  0  0  0  0  0  0  0  0  0  0  0
   14.8460   52.6230   68.8810 C   0  0  0  0  0  0  0  0  0  0  0  0
   16.8820   55.5060   70.1420 C   0  0  2  0  0  0  0  0  0  0  0  0
   18.1130   56.1320   69.5320 C   0  0  0  0  0  0  0  0  0  0  0  0
   17.1000   55.1970   71.6210 C   0  0  0  0  0  0  0  0  0  0  0  0
   18.0730   54.5150   71.9890 O   0  0  0  0  0  0  0  0  0  0  0  0
   16.2230   55.6320   72.5180 O   0  0  0  0  0  0  0  0  0  0  0  0
   13.5860   52.2270   68.9830 F   0  0  0  0  0  0  0  0  0  0  0  0
   25.1985   26.5056   11.9933 H   0  0  0  0  0  0  0  0  0  0  0  0
   26.6978   25.6230   11.2653 H   0  0  0  0  0  0  0  0  0  0  0  0
   27.0584   24.8152   13.0366 H   0  0  0  0  0  0  0  0  0  0  0  0
   25.4407   25.5105   13.6928 H   0  0  0  0  0  0  0  0  0  0  0  0
   24.5427   24.0624   13.6022 H   0  0  0  0  0  0  0  0  0  0  0  0
   25.1797   22.0778   11.9053 H   0  0  0  0  0  0  0  0  0  0  0  0
   23.6815   22.9576   12.6329 H   0  0  0  0  0  0  0  0  0  0  0  0
   24.8103   23.0540   10.1527 H   0  0  0  0  0  0  0  0  0  0  0  0
   23.3349   23.8643   10.9920 H   0  0  0  0  0  0  0  0  0  0  0  0
   24.0811   25.6321   10.5574 H   0  0  0  0  0  0  0  0  0  0  0  0
   25.6462   24.8239    9.9164 H   0  0  0  0  0  0  0  0  0  0  0  0
   25.9574   21.9876   13.9231 H   0  0  0  0  0  0  0  0  0  0  0  0
   27.6657   22.4431   14.3744 H   0  0  0  0  0  0  0  0  0  0  0  0
   27.1275   23.9592   15.3441 H   0  0  0  0  0  0  0  0  0  0  0  0
   27.9351   21.4717   16.1793 H   0  0  0  0  0  0  0  0  0  0  0  0
   27.3879   23.0445   17.0384 H   0  0  0  0  0  0  0  0  0  0  0  0
   25.7843   22.4849   17.4926 H   0  0  0  0  0  0  0  0  0  0  0  0
   24.5063   20.5289   16.1776 H   0  0  0  0  0  0  0  0  0  0  0  0
   24.1856   22.1801   17.0286 H   0  0  0  0  0  0  0  0  0  0  0  0
   24.8687   21.3054   14.5796 H   0  0  0  0  0  0  0  0  0  0  0  0
   25.3062   20.8379   18.8440 H   0  0  0  0  0  0  0  0  0  0  0  0
   27.1637   21.1740   20.1093 H   0  0  0  0  0  0  0  0  0  0  0  0
   28.2880   20.6886   18.7951 H   0  0  0  0  0  0  0  0  0  0  0  0
   27.5624   22.3318   18.7951 H   0  0  0  0  0  0  0  0  0  0  0  0
   25.9414   19.4781   16.8592 H   0  0  0  0  0  0  0  0  0  0  0  0
   28.1537   18.7542   17.8966 H   0  0  0  0  0  0  0  0  0  0  0  0
   25.4438   18.2822   19.0591 H   0  0  0  0  0  0  0  0  0  0  0  0
   69.5715   18.6643    6.2071 H   0  0  0  0  0  0  0  0  0  0  0  0
   68.2286   19.5640    7.1673 H   0  0  0  0  0  0  0  0  0  0  0  0
   67.5957   17.8370    7.8694 H   0  0  0  0  0  0  0  0  0  0  0  0
   69.0691   16.9740    7.0823 H   0  0  0  0  0  0  0  0  0  0  0  0
   70.0034   16.8085    8.5195 H   0  0  0  0  0  0  0  0  0  0  0  0
   69.6901   18.4325   10.6610 H   0  0  0  0  0  0  0  0  0  0  0  0
   71.0384   17.5346    9.7094 H   0  0  0  0  0  0  0  0  0  0  0  0
   70.3412   20.1706    9.8034 H   0  0  0  0  0  0  0  0  0  0  0  0
   71.6466   19.1647    8.9040 H   0  0  0  0  0  0  0  0  0  0  0  0
   70.9509   19.8347    7.1768 H   0  0  0  0  0  0  0  0  0  0  0  0
   69.5190   20.6612    8.0745 H   0  0  0  0  0  0  0  0  0  0  0  0
   68.5918   16.5291   10.5961 H   0  0  0  0  0  0  0  0  0  0  0  0
   66.7809   16.4061   10.1177 H   0  0  0  0  0  0  0  0  0  0  0  0
   67.1435   15.4320    8.5591 H   0  0  0  0  0  0  0  0  0  0  0  0
   66.2653   14.6411   11.0242 H   0  0  0  0  0  0  0  0  0  0  0  0
   66.6590   13.7716    9.4068 H   0  0  0  0  0  0  0  0  0  0  0  0
   68.1715   13.0557    9.9196 H   0  0  0  0  0  0  0  0  0  0  0  0
   69.6412   14.0576   11.9147 H   0  0  0  0  0  0  0  0  0  0  0  0
   69.8113   13.2343   10.2257 H   0  0  0  0  0  0  0  0  0  0  0  0
   69.5519   15.7296   11.2037 H   0  0  0  0  0  0  0  0  0  0  0  0
   68.5021   11.6001   11.4489 H   0  0  0  0  0  0  0  0  0  0  0  0
   65.7920   11.3298   11.8039 H   0  0  0  0  0  0  0  0  0  0  0  0
   65.9044   12.4035   10.3683 H   0  0  0  0  0  0  0  0  0  0  0  0
   66.7400   10.8134   10.3683 H   0  0  0  0  0  0  0  0  0  0  0  0
   68.1022   13.5512   12.9013 H   0  0  0  0  0  0  0  0  0  0  0  0
   66.4983   13.3746   14.3371 H   0  0  0  0  0  0  0  0  0  0  0  0
   67.9595   12.4101   14.8295 H   0  0  0  0  0  0  0  0  0  0  0  0
   59.0444   39.8480   69.7806 H   0  0  0  0  0  0  0  0  0  0  0  0
   57.4730   40.6571   69.1308 H   0  0  0  0  0  0  0  0  0  0  0  0
   57.1749   41.4631   70.9125 H   0  0  0  0  0  0  0  0  0  0  0  0
   58.8504   40.8427   71.4848 H   0  0  0  0  0  0  0  0  0  0  0  0
   59.6832   42.3262   71.3281 H   0  0  0  0  0  0  0  0  0  0  0  0
   58.8785   44.2690   69.6450 H   0  0  0  0  0  0  0  0  0  0  0  0
   60.4503   43.4462   70.2974 H   0  0  0  0  0  0  0  0  0  0  0  0
   59.2038   43.3141   67.8833 H   0  0  0  0  0  0  0  0  0  0  0  0
   60.7543   42.5786   68.6389 H   0  0  0  0  0  0  0  0  0  0  0  0
   60.0636   40.7801   68.2638 H   0  0  0  0  0  0  0  0  0  0  0  0
   58.4300   41.5210   67.7076 H   0  0  0  0  0  0  0  0  0  0  0  0
   58.1498   44.3323   71.6763 H   0  0  0  0  0  0  0  0  0  0  0  0
   56.5081   43.7702   72.2416 H   0  0  0  0  0  0  0  0  0  0  0  0
   57.2047   42.3292   73.2160 H   0  0  0  0  0  0  0  0  0  0  0  0
   56.2931   44.7915   74.0317 H   0  0  0  0  0  0  0  0  0  0  0  0
   57.0039   43.2873   74.9010 H   0  0  0  0  0  0  0  0  0  0  0  0
   58.5626   43.9503   75.2190 H   0  0  0  0  0  0  0  0  0  0  0  0
   59.6012   45.9488   73.7701 H   0  0  0  0  0  0  0  0  0  0  0  0
   60.0965   44.3534   74.6446 H   0  0  0  0  0  0  0  0  0  0  0  0
   59.1890   45.0939   72.2241 H   0  0  0  0  0  0  0  0  0  0  0  0
   59.0401   45.5935   76.5046 H   0  0  0  0  0  0  0  0  0  0  0  0
   57.2757   45.2093   77.9154 H   0  0  0  0  0  0  0  0  0  0  0  0
   56.0433   45.5724   76.6601 H   0  0  0  0  0  0  0  0  0  0  0  0
   56.8848   43.9854   76.6601 H   0  0  0  0  0  0  0  0  0  0  0  0
   58.1597   46.9215   74.5954 H   0  0  0  0  0  0  0  0  0  0  0  0
   56.0108   47.4975   75.8478 H   0  0  0  0  0  0  0  0  0  0  0  0
   58.7740   48.1779   76.7661 H   0  0  0  0  0  0  0  0  0  0  0  0
   14.9470   49.2145   64.7612 H   0  0  0  0  0  0  0  0  0  0  0  0
   16.3153   48.3199   65.7005 H   0  0  0  0  0  0  0  0  0  0  0  0
   16.9391   50.0413   66.3920 H   0  0  0  0  0  0  0  0  0  0  0  0
   15.4440   50.8957   65.6415 H   0  0  0  0  0  0  0  0  0  0  0  0
   14.5365   51.0317   67.0888 H   0  0  0  0  0  0  0  0  0  0  0  0
   14.8957   49.3795   69.2032 H   0  0  0  0  0  0  0  0  0  0  0  0
   13.5235   50.2731   68.2723 H   0  0  0  0  0  0  0  0  0  0  0  0
   14.2459   47.6436   68.3445 H   0  0  0  0  0  0  0  0  0  0  0  0
   12.9128   48.6367   67.4843 H   0  0  0  0  0  0  0  0  0  0  0  0
   13.5969   48.0087   65.7285 H   0  0  0  0  0  0  0  0  0  0  0  0
   15.0502   47.1871   66.5927 H   0  0  0  0  0  0  0  0  0  0  0  0
   16.0064   51.2764   69.1494 H   0  0  0  0  0  0  0  0  0  0  0  0
   17.7335   51.4209   68.6248 H   0  0  0  0  0  0  0  0  0  0  0  0
   17.3103   52.4041   67.0880 H   0  0  0  0  0  0  0  0  0  0  0  0
   18.2679   53.1895   69.5304 H   0  0  0  0  0  0  0  0  0  0  0  0
   17.8045   54.0696   67.9353 H   0  0  0  0  0  0  0  0  0  0  0  0
   16.3243   54.7572   68.5016 H   0  0  0  0  0  0  0  0  0  0  0  0
   14.9337   53.7084   70.5344 H   0  0  0  0  0  0  0  0  0  0  0  0
   14.6904   54.5491   68.8662 H   0  0  0  0  0  0  0  0  0  0  0  0
   15.0479   52.0855   69.8192 H   0  0  0  0  0  0  0  0  0  0  0  0
   16.0642   56.2329   70.0289 H   0  0  0  0  0  0  0  0  0  0  0  0
   18.7855   56.4740   70.3325 H   0  0  0  0  0  0  0  0  0  0  0  0
   18.6323   55.3885   68.9095 H   0  0  0  0  0  0  0  0  0  0  0  0
   17.8181   56.9896   68.9095 H   0  0  0  0  0  0  0  0  0  0  0  0
   16.4976   54.2823   71.5187 H   0  0  0  0  0  0  0  0  0  0  0  0
   18.1050   54.4926   72.9782 H   0  0  0  0  0  0  0  0  0  0  0  0
   16.5699   55.4599   73.4291 H   0  0  0  0  0  0  0  0  0  0  0  0
  1  2  1  0
  2  3  1  0
  3  4  1  0
  4  5  1  0
  1  6  1  0
  5  6  1  0
  3  7  1  0
  7  8  1  0
  8  9  1  0
  9 10  1  0
 10 11  1  0
  7 12  1  0
 11 12  1  0
 10 13  1  0
 13 14  1  0
 13 15  1  0
 15 16  1  0
 15 17  1  0
 12 18  1  0
 19 20  1  0
 20 21  1  0
 21 22  1  0
 22 23  1  0
 19 24  1  0
 23 24  1  0
 21 25  1  0
 25 26  1  0
 26 27  1  0
 27 28  1  0
 28 29  1  0
 25 30  1  0
 29 30  1  0
 28 31  1  0
 31 32  1  0
 31 33  1  0
 33 34  1  0
 33 35  1  0
 30 36  1  0
 37 38  1  0
 38 39  1  0
 39 40  1  0
 40 41  1  0
 37 42  1  0
 41 42  1  0
 39 43  1  0
 43 44  1  0
 44 45  1  0
 45 46  1  0
 46 47  1  0
 43 48  1  0
 47 48  1  0
 46 49  1  0
 49 50  1  0
 49 51  1  0
 51 52  1  0
 51 53  1  0
 48 54  1  0
 55 56  1  0
 56 57  1  0
 57 58  1  0
 58 59  1  0
 55 60  1  0
 59 60  1  0
 57 61  1  0
 61 62  1  0
 62 63  1  0
 63 64  1  0
 64 65  1  0
 61 66  1  0
 65 66  1  0
 64 67  1  0
 67 68  1  0
 67 69  1  0
 69 70  1  0
 69 71  1  0
 66 72  1  0
  1 73  1  0
  1 74  1  0
  2 75  1  0
  2 76  1  0
  3 77  1  0
  4 78  1  0
  4 79  1  0
  5 80  1  0
  5 81  1  0
  6 82  1  0
  6 83  1  0
  7 84  1  0
  8 85  1  0
  8 86  1  0
  9 87  1  0
  9 88  1  0
 10 89  1  1
 11 90  1  0
 11 91  1  0
 12 92  1  0
 13 93  1  1
 14 94  1  0
 14 95  1  0
 14 96  1  0
 15 97  1  0
 16 98  1  0
 17 99  1  0
 19100  1  0
 19101  1  0
 20102  1  0
 20103  1  0
 21104  1  0
 22105  1  0
 22106  1  0
 23107  1  0
 23108  1  0
 24109  1  0
 24110  1  0
 25111  1  0
 26112  1  0
 26113  1  0
 27114  1  0
 27115  1  0
 28116  1  0
 29117  1  0
 29118  1  0
 30119  1  0
 31120  1  1
 32121  1  0
 32122  1  0
 32123  1  0
 33124  1  0
 34125  1  0
 35126  1  0
 37127  1  0
 37128  1  0
 38129  1  0
 38130  1  0
 39131  1  0
 40132  1  0
 40133  1  0
 41134  1  0
 41135  1  0
 42136  1  0
 42137  1  0
 43138  1  0
 44139  1  0
 44140  1  0
 45141  1  0
 45142  1  0
 46143  1  0
 47144  1  0
 47145  1  0
 48146  1  0
 49147  1  1
 50148  1  0
 50149  1  0
 50150  1  0
 51151  1  0
 52152  1  0
 53153  1  0
 55154  1  0
 55155  1  0
 56156  1  0
 56157  1  0
 57158  1  0
 58159  1  0
 58160  1  0
 59161  1  0
 59162  1  0
 60163  1  0
 60164  1  0
 61165  1  0
 62166  1  0
 62167  1  0
 63168  1  0
 63169  1  0
 64170  1  0
 65171  1  0
 65172  1  0
 66173  1  0
 67174  1  1
 68175  1  0
 68176  1  0
 68177  1  0
 69178  1  0
 70179  1  0
 71180  1  0
M  END
>  <PDBID>  (1) 
3PGH

>  <PDB ID>  (1) 
3PGH

>  <Generic Name>  (1) 
Flurbiprofen

>  <Brand Name>  (1) 
Ansaid Tablets 100 mg#Ansaid Tablets 50 mg#Antiphlamine Pain Relieving#Apo-flurbiprofen Fc Tablets 100mg#Apo-flurbiprofen Fc Tablets 50mg#Flurbiprofen#Flurbiprofen Sodium#Flurbiprofen-100 Tab 100mg#Flurbiprofen-50 Tab 50mg#Froben#Froben SR#Froben Tab 100mg#Froben Tab 50mg#Froben-SR Cap 200mg#Novo-flurprofen SR#Nu-flurbiprofen Tab 100mg#Nu-flurbiprofen Tab 50mg#Ocufen#Ocufen Oph Soln 0.03%#Ratio-flurbiprofen Tablets 100mg#Ratio-flurbiprofen Tablets 50mg#Teva-flurbiprofen#Acustop Cataplasma#Adofeed#Ansaid#Antadys#Cebutid#Flurofen#Ocuflur#Stayban#Strefen#Strepfen#Strepsils#Strepsils Intensive#TransAct#Urbifen#Zepolas

>  <DrugBank ID>  (1) 
DB00712

>  <ATC Codes>  (1) 
M02AA19#R02AX01#M01AE09#S01BC04

>  <Ligand ID>  (1) 
FLP,FLR

>  <Target Name>  (1) 
Prostaglandin G/H synthase 2

>  <UniProt ID>  (1) 
P35354

>  <PDB ID.1>  (1) 
3PGH

>  <Seq. Identity>  (1) 
84%

$$$$
