PDB_DB08954_02
     RDKit          3D

126130  0  0  0  0  0  0  0  0999 V2000
    6.3899    1.2322    1.1158 C   0  0  0  0  0  0  0  0  0  0  0  0
   -0.2964   -0.5344   -0.5962 N   0  0  0  0  0  0  0  0  0  0  0  0
   -2.3795   -1.0803    1.2152 O   0  0  0  0  0  0  0  0  0  0  0  0
   -5.3773    2.3092   -0.0869 C   0  0  0  0  0  0  0  0  0  0  0  0
   -6.8495    1.1444   -1.5658 O   0  0  0  0  0  0  0  0  0  0  0  0
   -6.1477   -0.0187    0.4276 C   0  0  0  0  0  0  0  0  0  0  0  0
    4.5078   -0.2211   -0.6415 C   0  0  0  0  0  0  0  0  0  0  0  0
    4.2805    1.1112   -0.0622 C   0  0  0  0  0  0  0  0  0  0  0  0
    4.8864    1.2968    1.3391 C   0  0  0  0  0  0  0  0  0  0  0  0
    3.3143   -0.9966   -0.9443 C   0  0  0  0  0  0  0  0  0  0  0  0
    2.3349   -1.4313    0.0574 C   0  0  0  0  0  0  0  0  0  0  0  0
    1.6131   -0.3795    0.8195 C   0  0  0  0  0  0  0  0  0  0  0  0
    6.7071   -0.0511    0.4393 C   0  0  0  0  0  0  0  0  0  0  0  0
    5.5235   -0.9638    0.2172 C   0  0  0  0  0  0  0  0  0  0  0  0
    0.5775    0.3845    0.0097 C   0  0  0  0  0  0  0  0  0  0  0  0
   -0.0757   -1.9117   -0.3308 C   0  0  0  0  0  0  0  0  0  0  0  0
    1.3246   -2.3162   -0.6437 C   0  0  0  0  0  0  0  0  0  0  0  0
   -1.6390   -0.1614   -0.8604 C   0  0  2  0  0  0  0  0  0  0  0  0
   -2.3757    0.0783    0.4013 C   0  0  1  0  0  0  0  0  0  0  0  0
   -3.8016    0.5175    0.2799 C   0  0  0  0  0  0  0  0  0  0  0  0
   -4.0314    1.7359   -0.5559 C   0  0  0  0  0  0  0  0  0  0  0  0
   -6.4676    1.2979   -0.2309 C   0  0  0  0  0  0  0  0  0  0  0  0
   -4.7899   -0.5223   -0.0981 C   0  0  0  0  0  0  0  0  0  0  0  0
   -2.3232   -1.1176   -1.7945 C   0  0  0  0  0  0  0  0  0  0  0  0
    6.3899    1.2322    1.1158 C   0  0  0  0  0  0  0  0  0  0  0  0
   -0.2964   -0.5344   -0.5962 N   0  0  0  0  0  0  0  0  0  0  0  0
   -2.3795   -1.0803    1.2152 O   0  0  0  0  0  0  0  0  0  0  0  0
   -5.3773    2.3092   -0.0869 C   0  0  0  0  0  0  0  0  0  0  0  0
   -6.8495    1.1444   -1.5658 O   0  0  0  0  0  0  0  0  0  0  0  0
   -6.1477   -0.0187    0.4276 C   0  0  0  0  0  0  0  0  0  0  0  0
    4.5078   -0.2211   -0.6415 C   0  0  0  0  0  0  0  0  0  0  0  0
    4.2805    1.1112   -0.0622 C   0  0  0  0  0  0  0  0  0  0  0  0
    4.8864    1.2968    1.3391 C   0  0  0  0  0  0  0  0  0  0  0  0
    3.3143   -0.9966   -0.9443 C   0  0  0  0  0  0  0  0  0  0  0  0
    2.3349   -1.4313    0.0574 C   0  0  0  0  0  0  0  0  0  0  0  0
    1.6131   -0.3795    0.8195 C   0  0  0  0  0  0  0  0  0  0  0  0
    6.7071   -0.0511    0.4393 C   0  0  0  0  0  0  0  0  0  0  0  0
    5.5235   -0.9638    0.2172 C   0  0  0  0  0  0  0  0  0  0  0  0
    0.5775    0.3845    0.0097 C   0  0  0  0  0  0  0  0  0  0  0  0
   -0.0757   -1.9117   -0.3308 C   0  0  0  0  0  0  0  0  0  0  0  0
    1.3246   -2.3162   -0.6437 C   0  0  0  0  0  0  0  0  0  0  0  0
   -1.6390   -0.1614   -0.8604 C   0  0  2  0  0  0  0  0  0  0  0  0
   -2.3757    0.0783    0.4013 C   0  0  1  0  0  0  0  0  0  0  0  0
   -3.8016    0.5175    0.2799 C   0  0  0  0  0  0  0  0  0  0  0  0
   -4.0314    1.7359   -0.5559 C   0  0  0  0  0  0  0  0  0  0  0  0
   -6.4676    1.2979   -0.2309 C   0  0  0  0  0  0  0  0  0  0  0  0
   -4.7899   -0.5223   -0.0981 C   0  0  0  0  0  0  0  0  0  0  0  0
   -2.3232   -1.1176   -1.7945 C   0  0  0  0  0  0  0  0  0  0  0  0
    6.9657    1.3533    2.0484 H   0  0  0  0  0  0  0  0  0  0  0  0
    6.6083    2.0754    0.4018 H   0  0  0  0  0  0  0  0  0  0  0  0
   -2.4287   -0.8427    2.1684 H   0  0  0  0  0  0  0  0  0  0  0  0
   -5.6438    3.2198   -0.6280 H   0  0  0  0  0  0  0  0  0  0  0  0
   -5.2435    2.5133    1.0036 H   0  0  0  0  0  0  0  0  0  0  0  0
   -6.2920    1.7451   -2.1012 H   0  0  0  0  0  0  0  0  0  0  0  0
   -6.0128    0.1455    1.4996 H   0  0  0  0  0  0  0  0  0  0  0  0
   -6.9367   -0.7425    0.2409 H   0  0  0  0  0  0  0  0  0  0  0  0
    5.0947   -0.0572   -1.6176 H   0  0  0  0  0  0  0  0  0  0  0  0
    4.9011    1.8821   -0.6699 H   0  0  0  0  0  0  0  0  0  0  0  0
    3.2800    1.5446   -0.1200 H   0  0  0  0  0  0  0  0  0  0  0  0
    4.5975    2.2993    1.6999 H   0  0  0  0  0  0  0  0  0  0  0  0
    4.5568    0.4934    2.0028 H   0  0  0  0  0  0  0  0  0  0  0  0
    3.6403   -1.9433   -1.5131 H   0  0  0  0  0  0  0  0  0  0  0  0
    2.7002   -0.4882   -1.7747 H   0  0  0  0  0  0  0  0  0  0  0  0
    2.8120   -2.1463    0.8184 H   0  0  0  0  0  0  0  0  0  0  0  0
    0.9876   -0.9473    1.5997 H   0  0  0  0  0  0  0  0  0  0  0  0
    2.2602    0.2569    1.4338 H   0  0  0  0  0  0  0  0  0  0  0  0
    7.4699   -0.5911    1.0513 H   0  0  0  0  0  0  0  0  0  0  0  0
    7.1941    0.1668   -0.5552 H   0  0  0  0  0  0  0  0  0  0  0  0
    5.9275   -1.8355   -0.3745 H   0  0  0  0  0  0  0  0  0  0  0  0
    5.0982   -1.2634    1.1679 H   0  0  0  0  0  0  0  0  0  0  0  0
    0.0439    1.0133    0.7636 H   0  0  0  0  0  0  0  0  0  0  0  0
    1.0737    1.0756   -0.7235 H   0  0  0  0  0  0  0  0  0  0  0  0
   -0.2731   -2.1171    0.7401 H   0  0  0  0  0  0  0  0  0  0  0  0
   -0.8229   -2.5739   -0.8528 H   0  0  0  0  0  0  0  0  0  0  0  0
    1.5566   -2.2700   -1.7314 H   0  0  0  0  0  0  0  0  0  0  0  0
    1.4197   -3.3936   -0.3084 H   0  0  0  0  0  0  0  0  0  0  0  0
   -1.6298    0.8362   -1.4206 H   0  0  0  0  0  0  0  0  0  0  0  0
   -1.8660    0.8581    0.9954 H   0  0  0  0  0  0  0  0  0  0  0  0
   -4.0856    0.8358    1.3359 H   0  0  0  0  0  0  0  0  0  0  0  0
   -3.2573    2.5138   -0.4506 H   0  0  0  0  0  0  0  0  0  0  0  0
   -4.1907    1.4338   -1.6132 H   0  0  0  0  0  0  0  0  0  0  0  0
   -7.3653    1.7125    0.3151 H   0  0  0  0  0  0  0  0  0  0  0  0
   -4.9181   -0.5496   -1.1817 H   0  0  0  0  0  0  0  0  0  0  0  0
   -4.6432   -1.5003    0.3861 H   0  0  0  0  0  0  0  0  0  0  0  0
   -2.8753   -1.8590   -1.1942 H   0  0  0  0  0  0  0  0  0  0  0  0
   -2.9786   -0.5733   -2.5387 H   0  0  0  0  0  0  0  0  0  0  0  0
   -1.6296   -1.6823   -2.4562 H   0  0  0  0  0  0  0  0  0  0  0  0
    6.9657    1.3533    2.0484 H   0  0  0  0  0  0  0  0  0  0  0  0
    6.6083    2.0754    0.4018 H   0  0  0  0  0  0  0  0  0  0  0  0
   -2.4287   -0.8427    2.1684 H   0  0  0  0  0  0  0  0  0  0  0  0
   -5.6438    3.2198   -0.6280 H   0  0  0  0  0  0  0  0  0  0  0  0
   -5.2435    2.5133    1.0036 H   0  0  0  0  0  0  0  0  0  0  0  0
   -6.2920    1.7451   -2.1012 H   0  0  0  0  0  0  0  0  0  0  0  0
   -6.0128    0.1455    1.4996 H   0  0  0  0  0  0  0  0  0  0  0  0
   -6.9367   -0.7425    0.2409 H   0  0  0  0  0  0  0  0  0  0  0  0
    5.0947   -0.0572   -1.6176 H   0  0  0  0  0  0  0  0  0  0  0  0
    4.9011    1.8821   -0.6699 H   0  0  0  0  0  0  0  0  0  0  0  0
    3.2800    1.5446   -0.1200 H   0  0  0  0  0  0  0  0  0  0  0  0
    4.5975    2.2993    1.6999 H   0  0  0  0  0  0  0  0  0  0  0  0
    4.5568    0.4934    2.0028 H   0  0  0  0  0  0  0  0  0  0  0  0
    3.6403   -1.9433   -1.5131 H   0  0  0  0  0  0  0  0  0  0  0  0
    2.7002   -0.4882   -1.7747 H   0  0  0  0  0  0  0  0  0  0  0  0
    2.8120   -2.1463    0.8184 H   0  0  0  0  0  0  0  0  0  0  0  0
    0.9876   -0.9473    1.5997 H   0  0  0  0  0  0  0  0  0  0  0  0
    2.2602    0.2569    1.4338 H   0  0  0  0  0  0  0  0  0  0  0  0
    7.4699   -0.5911    1.0513 H   0  0  0  0  0  0  0  0  0  0  0  0
    7.1941    0.1668   -0.5552 H   0  0  0  0  0  0  0  0  0  0  0  0
    5.9275   -1.8355   -0.3745 H   0  0  0  0  0  0  0  0  0  0  0  0
    5.0982   -1.2634    1.1679 H   0  0  0  0  0  0  0  0  0  0  0  0
    0.0439    1.0133    0.7636 H   0  0  0  0  0  0  0  0  0  0  0  0
    1.0737    1.0756   -0.7235 H   0  0  0  0  0  0  0  0  0  0  0  0
   -0.2731   -2.1171    0.7401 H   0  0  0  0  0  0  0  0  0  0  0  0
   -0.8229   -2.5739   -0.8528 H   0  0  0  0  0  0  0  0  0  0  0  0
    1.5566   -2.2700   -1.7314 H   0  0  0  0  0  0  0  0  0  0  0  0
    1.4197   -3.3936   -0.3084 H   0  0  0  0  0  0  0  0  0  0  0  0
   -1.6298    0.8362   -1.4206 H   0  0  0  0  0  0  0  0  0  0  0  0
   -1.8660    0.8581    0.9954 H   0  0  0  0  0  0  0  0  0  0  0  0
   -4.0856    0.8358    1.3359 H   0  0  0  0  0  0  0  0  0  0  0  0
   -3.2573    2.5138   -0.4506 H   0  0  0  0  0  0  0  0  0  0  0  0
   -4.1907    1.4338   -1.6132 H   0  0  0  0  0  0  0  0  0  0  0  0
   -7.3653    1.7125    0.3151 H   0  0  0  0  0  0  0  0  0  0  0  0
   -4.9181   -0.5496   -1.1817 H   0  0  0  0  0  0  0  0  0  0  0  0
   -4.6432   -1.5003    0.3861 H   0  0  0  0  0  0  0  0  0  0  0  0
   -2.8753   -1.8590   -1.1942 H   0  0  0  0  0  0  0  0  0  0  0  0
   -2.9786   -0.5733   -2.5387 H   0  0  0  0  0  0  0  0  0  0  0  0
   -1.6296   -1.6823   -2.4562 H   0  0  0  0  0  0  0  0  0  0  0  0
  7  8  1  0
  1  9  1  0
  8  9  1  0
  7 10  1  0
 10 11  1  0
 11 12  1  0
  1 13  1  0
  7 14  1  0
 13 14  1  0
  2 15  1  0
 12 15  1  0
  2 16  1  0
 11 17  1  0
 16 17  1  0
  2 18  1  0
  3 19  1  0
 18 19  1  0
 19 20  1  0
  4 21  1  0
 20 21  1  0
  4 22  1  0
  5 22  1  0
  6 22  1  0
  6 23  1  0
 20 23  1  0
 18 24  1  0
 31 32  1  0
 25 33  1  0
 32 33  1  0
 31 34  1  0
 34 35  1  0
 35 36  1  0
 25 37  1  0
 31 38  1  0
 37 38  1  0
 26 39  1  0
 36 39  1  0
 26 40  1  0
 35 41  1  0
 40 41  1  0
 26 42  1  0
 27 43  1  0
 42 43  1  0
 43 44  1  0
 28 45  1  0
 44 45  1  0
 28 46  1  0
 29 46  1  0
 30 46  1  0
 30 47  1  0
 44 47  1  0
 42 48  1  0
  1 49  1  0
  1 50  1  0
  3 51  1  0
  4 52  1  0
  4 53  1  0
  5 54  1  0
  6 55  1  0
  6 56  1  0
  7 57  1  0
  8 58  1  0
  8 59  1  0
  9 60  1  0
  9 61  1  0
 10 62  1  0
 10 63  1  0
 11 64  1  0
 12 65  1  0
 12 66  1  0
 13 67  1  0
 13 68  1  0
 14 69  1  0
 14 70  1  0
 15 71  1  0
 15 72  1  0
 16 73  1  0
 16 74  1  0
 17 75  1  0
 17 76  1  0
 18 77  1  6
 19 78  1  1
 20 79  1  0
 21 80  1  0
 21 81  1  0
 22 82  1  0
 23 83  1  0
 23 84  1  0
 24 85  1  0
 24 86  1  0
 24 87  1  0
 25 88  1  0
 25 89  1  0
 27 90  1  0
 28 91  1  0
 28 92  1  0
 29 93  1  0
 30 94  1  0
 30 95  1  0
 31 96  1  0
 32 97  1  0
 32 98  1  0
 33 99  1  0
 33100  1  0
 34101  1  0
 34102  1  0
 35103  1  0
 36104  1  0
 36105  1  0
 37106  1  0
 37107  1  0
 38108  1  0
 38109  1  0
 39110  1  0
 39111  1  0
 40112  1  0
 40113  1  0
 41114  1  0
 41115  1  0
 42116  1  6
 43117  1  1
 44118  1  0
 45119  1  0
 45120  1  0
 46121  1  0
 47122  1  0
 47123  1  0
 48124  1  0
 48125  1  0
 48126  1  0
M  END
>  <PDBID>  (1) 
4PE5

>  <PDB ID>  (1) 
4PE5

>  <Generic Name>  (1) 
Ifenprodil

>  <Brand Name>  (1) 
Cerocral#Furezanil#Iburonol#Linbulane#Technis#Vadilex#Vasculodil#Youajyl

>  <DrugBank ID>  (1) 
DB08954

>  <ATC Codes>  (1) 
C04AX28

>  <Ligand ID>  (1) 
QEL

>  <Target Name>  (1) 
Glutamate receptor ionotropic, NMDA 1

>  <UniProt ID>  (1) 
Q05586

>  <PDB ID.1>  (1) 
4PE5

>  <Seq. Identity>  (1) 
98%

$$$$
