PDB_DB00509_05
     RDKit          3D

 49 50  0  0  0  0  0  0  0  0999 V2000
    2.2911   -0.0492    0.3622 C   0  0  2  0  0  0  0  0  0  0  0  0
    1.2889   -1.1407    0.7121 C   0  0  0  0  0  0  0  0  0  0  0  0
    0.3935   -1.3041   -0.4966 C   0  0  2  0  0  0  0  0  0  0  0  0
   -0.5843   -0.1776   -0.5043 C   0  0  0  0  0  0  0  0  0  0  0  0
    0.2280    1.1042   -0.3744 C   0  0  0  0  0  0  0  0  0  0  0  0
    1.7002    0.8878   -0.6508 C   0  0  0  0  0  0  0  0  0  0  0  0
    3.5437   -0.7275   -0.1194 C   0  0  0  0  0  0  0  0  0  0  0  0
    4.6278    0.2189   -0.5029 C   0  0  1  0  0  0  0  0  0  0  0  0
    5.0682    1.1082    0.6412 C   0  0  0  0  0  0  0  0  0  0  0  0
   -2.8857   -0.2387   -0.1455 C   0  0  0  0  0  0  0  0  0  0  0  0
   -3.6172   -1.4653    0.3050 C   0  0  0  0  0  0  0  0  0  0  0  0
   -5.0982   -1.2181    0.5004 C   0  0  0  0  0  0  0  0  0  0  0  0
   -5.5500   -0.1199   -0.4326 C   0  0  0  0  0  0  0  0  0  0  0  0
   -4.9726    1.1744    0.0681 C   0  0  0  0  0  0  0  0  0  0  0  0
   -3.5314    1.0218    0.4015 C   0  0  0  0  0  0  0  0  0  0  0  0
    5.7513   -0.5564   -0.9958 N   0  0  0  0  0  0  0  0  0  0  0  0
   -1.5908   -0.2477    0.4245 O   0  0  0  0  0  0  0  0  0  0  0  0
   -6.9490   -0.0037   -0.3651 O   0  0  0  0  0  0  0  0  0  0  0  0
    5.5636    0.2712    1.6600 O   0  0  0  0  0  0  0  0  0  0  0  0
    6.1489    1.8867    0.2293 O   0  0  0  0  0  0  0  0  0  0  0  0
   -0.4336   -3.2274   -0.6491 I   0  0  0  0  0  0  0  0  0  0  0  0
   -5.4899   -0.5926    2.4979 I   0  0  0  0  0  0  0  0  0  0  0  0
    0.1349    1.8453    1.6445 I   0  0  0  0  0  0  0  0  0  0  0  0
   -5.2785    2.7667   -1.3138 I   0  0  0  0  0  0  0  0  0  0  0  0
    2.4747    0.5090    1.2981 H   0  0  0  0  0  0  0  0  0  0  0  0
    0.7071   -0.9005    1.6212 H   0  0  0  0  0  0  0  0  0  0  0  0
    1.8307   -2.0992    0.9408 H   0  0  0  0  0  0  0  0  0  0  0  0
    1.0553   -1.1544   -1.3962 H   0  0  0  0  0  0  0  0  0  0  0  0
   -1.0702   -0.1533   -1.5241 H   0  0  0  0  0  0  0  0  0  0  0  0
   -0.1865    1.8675   -1.0575 H   0  0  0  0  0  0  0  0  0  0  0  0
    1.9318    0.6570   -1.6895 H   0  0  0  0  0  0  0  0  0  0  0  0
    2.1744    1.8937   -0.4540 H   0  0  0  0  0  0  0  0  0  0  0  0
    3.8667   -1.4215    0.6905 H   0  0  0  0  0  0  0  0  0  0  0  0
    3.2889   -1.3450   -0.9856 H   0  0  0  0  0  0  0  0  0  0  0  0
    4.2660    0.8355   -1.3529 H   0  0  0  0  0  0  0  0  0  0  0  0
    4.2635    1.7594    0.9915 H   0  0  0  0  0  0  0  0  0  0  0  0
   -2.7714   -0.1862   -1.2410 H   0  0  0  0  0  0  0  0  0  0  0  0
   -3.5568   -2.2537   -0.4792 H   0  0  0  0  0  0  0  0  0  0  0  0
   -3.1515   -1.8323    1.2370 H   0  0  0  0  0  0  0  0  0  0  0  0
   -5.7131   -2.1152    0.2926 H   0  0  0  0  0  0  0  0  0  0  0  0
   -5.2374   -0.3398   -1.4758 H   0  0  0  0  0  0  0  0  0  0  0  0
   -5.5712    1.4405    0.9885 H   0  0  0  0  0  0  0  0  0  0  0  0
   -2.9807    1.8659   -0.0661 H   0  0  0  0  0  0  0  0  0  0  0  0
   -3.4176    0.9976    1.4981 H   0  0  0  0  0  0  0  0  0  0  0  0
    6.6493   -0.0496   -0.9363 H   0  0  0  0  0  0  0  0  0  0  0  0
    5.7533   -1.4677   -0.4903 H   0  0  0  0  0  0  0  0  0  0  0  0
   -7.1979    0.1147    0.5804 H   0  0  0  0  0  0  0  0  0  0  0  0
    6.0019   -0.5173    1.2992 H   0  0  0  0  0  0  0  0  0  0  0  0
    5.8316    2.6784   -0.2600 H   0  0  0  0  0  0  0  0  0  0  0  0
  1  2  1  0
  2  3  1  0
  3  4  1  0
  4  5  1  0
  1  6  1  0
  5  6  1  0
  1  7  1  0
  7  8  1  0
  8  9  1  0
 10 11  1  0
 11 12  1  0
 12 13  1  0
 13 14  1  0
 10 15  1  0
 14 15  1  0
  8 16  1  0
  4 17  1  0
 10 17  1  0
 13 18  1  0
  9 19  1  0
  9 20  1  0
  3 21  1  0
 12 22  1  0
  5 23  1  0
 14 24  1  0
  1 25  1  1
  2 26  1  0
  2 27  1  0
  3 28  1  6
  4 29  1  0
  5 30  1  0
  6 31  1  0
  6 32  1  0
  7 33  1  0
  7 34  1  0
  8 35  1  6
  9 36  1  0
 10 37  1  0
 11 38  1  0
 11 39  1  0
 12 40  1  0
 13 41  1  0
 14 42  1  0
 15 43  1  0
 15 44  1  0
 16 45  1  0
 16 46  1  0
 18 47  1  0
 19 48  1  0
 20 49  1  0
M  END
>  <PDBID>  (1) 
1Y0X

>  <PDB ID>  (1) 
1Y0X

>  <Generic Name>  (1) 
Dextrothyroxine

>  <Brand Name>  (1) 
Choloxin - Tab 4mg#Choloxin Tab 2mg#Choloxin Tablet 4mg#Choloxin#Dynothel#Eulipos#Lisolipin

>  <DrugBank ID>  (1) 
DB00509

>  <ATC Codes>  (1) 
C10AX01

>  <Ligand ID>  (1) 
T44

>  <Target Name>  (1) 
Thyroid hormone receptor beta

>  <UniProt ID>  (1) 
P10828

>  <PDB ID.1>  (1) 
1Y0X

>  <Seq. Identity>  (1) 
100%

$$$$
