PDB_DB00190_09
     RDKit          3D

 74 74  0  0  0  0  0  0  0  0999 V2000
   -2.9629    0.2961   -1.0255 N   0  0  0  0  0  0  0  0  0  0  0  0
   -3.0280   -0.7010   -2.0205 N   0  0  0  0  0  0  0  0  0  0  0  0
   -1.9452   -0.1506   -0.0132 C   0  0  2  0  0  0  0  0  0  0  0  0
   -0.6590   -0.2975   -0.7158 C   0  0  0  0  0  0  0  0  0  0  0  0
   -2.5033   -1.4143    0.5647 C   0  0  0  0  0  0  0  0  0  0  0  0
    0.5451   -0.7592   -0.0093 C   0  0  0  0  0  0  0  0  0  0  0  0
    1.0135    0.0817    1.0953 C   0  0  0  0  0  0  0  0  0  0  0  0
    2.5226    0.1184    1.2641 C   0  0  0  0  0  0  0  0  0  0  0  0
    1.6405   -0.9562   -1.0628 C   0  0  0  0  0  0  0  0  0  0  0  0
    2.3239    0.3835   -1.2132 C   0  0  0  0  0  0  0  0  0  0  0  0
    3.2369    0.5085    0.0001 C   0  0  0  0  0  0  0  0  0  0  0  0
    3.7579    1.7922    0.0374 O   0  0  0  0  0  0  0  0  0  0  0  0
    2.9788   -1.0961    1.7539 O   0  0  0  0  0  0  0  0  0  0  0  0
   -2.0303    0.9249    1.0359 C   0  0  0  0  0  0  0  0  0  0  0  0
   -1.7234    2.1903    0.5297 O   0  0  0  0  0  0  0  0  0  0  0  0
   -3.3849    0.9183    1.4746 O   0  0  0  0  0  0  0  0  0  0  0  0
   -2.9629    0.2961   -1.0255 N   0  0  0  0  0  0  0  0  0  0  0  0
   -3.0280   -0.7010   -2.0205 N   0  0  0  0  0  0  0  0  0  0  0  0
   -1.9452   -0.1506   -0.0132 C   0  0  2  0  0  0  0  0  0  0  0  0
   -0.6590   -0.2975   -0.7158 C   0  0  0  0  0  0  0  0  0  0  0  0
   -2.5033   -1.4143    0.5647 C   0  0  0  0  0  0  0  0  0  0  0  0
    0.5451   -0.7592   -0.0093 C   0  0  0  0  0  0  0  0  0  0  0  0
    1.0135    0.0817    1.0953 C   0  0  0  0  0  0  0  0  0  0  0  0
    2.5226    0.1184    1.2641 C   0  0  0  0  0  0  0  0  0  0  0  0
    1.6405   -0.9562   -1.0628 C   0  0  0  0  0  0  0  0  0  0  0  0
    2.3239    0.3835   -1.2132 C   0  0  0  0  0  0  0  0  0  0  0  0
    3.2369    0.5085    0.0001 C   0  0  0  0  0  0  0  0  0  0  0  0
    3.7579    1.7922    0.0374 O   0  0  0  0  0  0  0  0  0  0  0  0
    2.9788   -1.0961    1.7539 O   0  0  0  0  0  0  0  0  0  0  0  0
   -2.0303    0.9249    1.0359 C   0  0  0  0  0  0  0  0  0  0  0  0
   -1.7234    2.1903    0.5297 O   0  0  0  0  0  0  0  0  0  0  0  0
   -3.3849    0.9183    1.4746 O   0  0  0  0  0  0  0  0  0  0  0  0
   -2.6280    1.1918   -1.4594 H   0  0  0  0  0  0  0  0  0  0  0  0
   -3.5889   -1.4854   -1.6435 H   0  0  0  0  0  0  0  0  0  0  0  0
   -0.4464    0.7239   -1.1921 H   0  0  0  0  0  0  0  0  0  0  0  0
   -0.8776   -0.9367   -1.6369 H   0  0  0  0  0  0  0  0  0  0  0  0
   -2.1701   -1.5614    1.6263 H   0  0  0  0  0  0  0  0  0  0  0  0
   -2.2934   -2.3116   -0.0548 H   0  0  0  0  0  0  0  0  0  0  0  0
   -3.6069   -1.3145    0.6192 H   0  0  0  0  0  0  0  0  0  0  0  0
    0.3605   -1.8320    0.3499 H   0  0  0  0  0  0  0  0  0  0  0  0
    0.6852    1.1345    1.0409 H   0  0  0  0  0  0  0  0  0  0  0  0
    0.6443   -0.3369    2.0608 H   0  0  0  0  0  0  0  0  0  0  0  0
    2.7388    0.8925    2.0240 H   0  0  0  0  0  0  0  0  0  0  0  0
    1.2067   -1.2856   -2.0176 H   0  0  0  0  0  0  0  0  0  0  0  0
    2.3797   -1.6696   -0.6439 H   0  0  0  0  0  0  0  0  0  0  0  0
    1.6189    1.2270   -1.1619 H   0  0  0  0  0  0  0  0  0  0  0  0
    2.9563    0.4050   -2.1254 H   0  0  0  0  0  0  0  0  0  0  0  0
    4.0838   -0.1862   -0.1784 H   0  0  0  0  0  0  0  0  0  0  0  0
    3.1368    2.4058   -0.4230 H   0  0  0  0  0  0  0  0  0  0  0  0
    3.9631   -1.0273    1.8547 H   0  0  0  0  0  0  0  0  0  0  0  0
   -1.4356    0.6688    1.9121 H   0  0  0  0  0  0  0  0  0  0  0  0
   -2.5261    2.7672    0.5343 H   0  0  0  0  0  0  0  0  0  0  0  0
   -3.9832    0.6916    0.7125 H   0  0  0  0  0  0  0  0  0  0  0  0
   -2.6280    1.1918   -1.4594 H   0  0  0  0  0  0  0  0  0  0  0  0
   -3.5889   -1.4854   -1.6435 H   0  0  0  0  0  0  0  0  0  0  0  0
   -0.4464    0.7239   -1.1921 H   0  0  0  0  0  0  0  0  0  0  0  0
   -0.8776   -0.9367   -1.6369 H   0  0  0  0  0  0  0  0  0  0  0  0
   -2.1701   -1.5614    1.6263 H   0  0  0  0  0  0  0  0  0  0  0  0
   -2.2934   -2.3116   -0.0548 H   0  0  0  0  0  0  0  0  0  0  0  0
   -3.6069   -1.3145    0.6192 H   0  0  0  0  0  0  0  0  0  0  0  0
    0.3605   -1.8320    0.3499 H   0  0  0  0  0  0  0  0  0  0  0  0
    0.6852    1.1345    1.0409 H   0  0  0  0  0  0  0  0  0  0  0  0
    0.6443   -0.3369    2.0608 H   0  0  0  0  0  0  0  0  0  0  0  0
    2.7388    0.8925    2.0240 H   0  0  0  0  0  0  0  0  0  0  0  0
    1.2067   -1.2856   -2.0176 H   0  0  0  0  0  0  0  0  0  0  0  0
    2.3797   -1.6696   -0.6439 H   0  0  0  0  0  0  0  0  0  0  0  0
    1.6189    1.2270   -1.1619 H   0  0  0  0  0  0  0  0  0  0  0  0
    2.9563    0.4050   -2.1254 H   0  0  0  0  0  0  0  0  0  0  0  0
    4.0838   -0.1862   -0.1784 H   0  0  0  0  0  0  0  0  0  0  0  0
    3.1368    2.4058   -0.4230 H   0  0  0  0  0  0  0  0  0  0  0  0
    3.9631   -1.0273    1.8547 H   0  0  0  0  0  0  0  0  0  0  0  0
   -1.4356    0.6688    1.9121 H   0  0  0  0  0  0  0  0  0  0  0  0
   -2.5261    2.7672    0.5343 H   0  0  0  0  0  0  0  0  0  0  0  0
   -3.9832    0.6916    0.7125 H   0  0  0  0  0  0  0  0  0  0  0  0
  1  2  1  0
  3  1  1  6
  3  4  1  0
  3  5  1  0
  4  6  1  0
  6  7  1  0
  7  8  1  0
  6  9  1  0
  9 10  1  0
  8 11  1  0
 10 11  1  0
 11 12  1  0
  8 13  1  0
  3 14  1  0
 14 15  1  0
 14 16  1  0
 17 18  1  0
 19 17  1  6
 19 20  1  0
 19 21  1  0
 20 22  1  0
 22 23  1  0
 23 24  1  0
 22 25  1  0
 25 26  1  0
 24 27  1  0
 26 27  1  0
 27 28  1  0
 24 29  1  0
 19 30  1  0
 30 31  1  0
 30 32  1  0
  1 33  1  0
  2 34  1  0
  4 35  1  0
  4 36  1  0
  5 37  1  0
  5 38  1  0
  5 39  1  0
  6 40  1  0
  7 41  1  0
  7 42  1  0
  8 43  1  0
  9 44  1  0
  9 45  1  0
 10 46  1  0
 10 47  1  0
 11 48  1  0
 12 49  1  0
 13 50  1  0
 14 51  1  0
 15 52  1  0
 16 53  1  0
 17 54  1  0
 18 55  1  0
 20 56  1  0
 20 57  1  0
 21 58  1  0
 21 59  1  0
 21 60  1  0
 22 61  1  0
 23 62  1  0
 23 63  1  0
 24 64  1  0
 25 65  1  0
 25 66  1  0
 26 67  1  0
 26 68  1  0
 27 69  1  0
 28 70  1  0
 29 71  1  0
 30 72  1  0
 31 73  1  0
 32 74  1  0
M  END
>  <PDBID>  (1) 
1JS3

>  <PDB ID>  (1) 
1JS3

>  <Generic Name>  (1) 
Carbidopa

>  <Brand Name>  (1) 
Apo-levocarb - Tab 10mg/100mg#Apo-levocarb - Tab 25mg/250mg#Apo-levocarb CR#Apo-levocarb-tab 25mg/100mg#Carbidopa#Carbidopa Tablets, 25 mg#Carbidopa and Levodopa#Carbidopa, Levodopa and Entacapone#Carbidopa, Levodopa, and Entacapone#Dom-levo-carbidopa#Duodopa#Duopa#Lodosyn#Mint-levocarb#Nu-levocarb - Tab 10mg/100mg#Nu-levocarb - Tab 25 Mg/100 mg#Nu-levocarb - Tablets 25 Mg/250 mg#PMS-levocarb CR#Parcopa#Pro-lecarb-100/10 - Tab#Pro-lecarb-100/25 - Tab#Pro-levocarb - 100/25#Ratio-levodopa/carbidopa#Rytary#Sinemet#Sinemet 100/10#Sinemet 100/25#Sinemet 250/25#Sinemet CR#Sinemet CR 100/25#Sinemet CR 200/50#Stalevo#Teva-levocarbidopa

>  <DrugBank ID>  (1) 
DB00190

>  <ATC Codes>  (1) 
nan

>  <Ligand ID>  (1) 
142

>  <Target Name>  (1) 
Aromatic-L-amino-acid decarboxylase

>  <UniProt ID>  (1) 
P20711

>  <PDB ID.1>  (1) 
1JS3

>  <Seq. Identity>  (1) 
90%

$$$$
