PDB_DB08864_08
     RDKit          3D

 74 76  0  0  0  0  0  0  0  0999 V2000
    2.6553   -1.9205   -0.0643 C   0  0  0  0  0  0  0  0  0  0  0  0
   -2.0520   -1.9289   -0.4288 N   0  0  0  0  0  0  0  0  0  0  0  0
    4.5013   -0.2626   -0.6273 C   0  0  0  0  0  0  0  0  0  0  0  0
    4.3102    0.3656    0.6750 C   0  0  0  0  0  0  0  0  0  0  0  0
    3.3318   -0.3429    1.5925 C   0  0  0  0  0  0  0  0  0  0  0  0
    2.1307   -0.8376    0.7824 C   0  0  0  0  0  0  0  0  0  0  0  0
    2.9641   -3.1202    0.8910 C   0  0  0  0  0  0  0  0  0  0  0  0
    3.9154   -1.6256   -0.8220 C   0  0  0  0  0  0  0  0  0  0  0  0
    2.8881    0.5561    2.7118 C   0  0  0  0  0  0  0  0  0  0  0  0
    1.3326    0.1771    0.3056 N   0  0  0  0  0  0  0  0  0  0  0  0
   -0.9454   -1.9580   -1.3269 C   0  0  0  0  0  0  0  0  0  0  0  0
   -0.1655   -0.6955   -1.4542 C   0  0  0  0  0  0  0  0  0  0  0  0
    0.0274    0.0525   -0.1931 C   0  0  0  0  0  0  0  0  0  0  0  0
   -0.9147   -0.3407    0.8684 N   0  0  0  0  0  0  0  0  0  0  0  0
   -2.1858   -0.7857    0.3966 C   0  0  1  0  0  0  0  0  0  0  0  0
   -2.8757    0.3162   -0.2407 N   0  0  0  0  0  0  0  0  0  0  0  0
   -6.9964    0.8405   -0.4379 C   0  0  0  0  0  0  0  0  0  0  0  0
   -6.5313   -0.4272    0.2270 C   0  0  0  0  0  0  0  0  0  0  0  0
   -5.0724   -0.4318    0.5421 C   0  0  0  0  0  0  0  0  0  0  0  0
   -4.2138   -0.0528   -0.6405 C   0  0  0  0  0  0  0  0  0  0  0  0
   -4.7923    1.1044   -1.4156 C   0  0  0  0  0  0  0  0  0  0  0  0
   -5.8290    1.7856   -0.5158 C   0  0  0  0  0  0  0  0  0  0  0  0
   -7.9698    1.8094    1.6194 N   0  0  0  0  0  0  0  0  0  0  0  0
   -8.1888    1.4503    0.2515 C   0  0  0  0  0  0  0  0  0  0  0  0
    6.7219    0.8701   -1.2252 C   0  0  0  0  0  0  0  0  0  0  0  0
    5.9335   -0.3460   -1.0336 C   0  0  0  0  0  0  0  0  0  0  0  0
    7.7858    2.8987   -0.5283 N   0  0  0  0  0  0  0  0  0  0  0  0
    6.9062    1.7946   -0.0631 C   0  0  0  0  0  0  0  0  0  0  0  0
    3.9148    1.4049    0.6170 H   0  0  0  0  0  0  0  0  0  0  0  0
    4.0313   -3.0368    1.1716 H   0  0  0  0  0  0  0  0  0  0  0  0
    2.2898   -3.0887    1.7669 H   0  0  0  0  0  0  0  0  0  0  0  0
    2.8310   -4.0743    0.3693 H   0  0  0  0  0  0  0  0  0  0  0  0
    3.6980   -1.7640   -1.9002 H   0  0  0  0  0  0  0  0  0  0  0  0
    3.6617    0.5821    3.5077 H   0  0  0  0  0  0  0  0  0  0  0  0
    1.9982    0.0912    3.1842 H   0  0  0  0  0  0  0  0  0  0  0  0
    2.6364    1.5766    2.3748 H   0  0  0  0  0  0  0  0  0  0  0  0
    1.8543    1.0262   -0.0614 H   0  0  0  0  0  0  0  0  0  0  0  0
   -0.3079   -2.8088   -1.0263 H   0  0  0  0  0  0  0  0  0  0  0  0
   -0.7418   -0.0587   -2.2209 H   0  0  0  0  0  0  0  0  0  0  0  0
   -2.8144    1.1454    0.3578 H   0  0  0  0  0  0  0  0  0  0  0  0
   -7.0840   -0.5110    1.1844 H   0  0  0  0  0  0  0  0  0  0  0  0
   -4.8464    0.1546    1.4578 H   0  0  0  0  0  0  0  0  0  0  0  0
   -5.3327    0.7577   -2.3250 H   0  0  0  0  0  0  0  0  0  0  0  0
   -5.3857    1.9351    0.4978 H   0  0  0  0  0  0  0  0  0  0  0  0
    7.7872    0.5983   -1.5426 H   0  0  0  0  0  0  0  0  0  0  0  0
    6.4700   -1.0263   -0.2783 H   0  0  0  0  0  0  0  0  0  0  0  0
    1.8756   -2.3361   -0.7121 H   0  0  0  0  0  0  0  0  0  0  0  0
   -2.9043   -2.4068   -0.7243 H   0  0  0  0  0  0  0  0  0  0  0  0
    4.0190    0.4143   -1.4126 H   0  0  0  0  0  0  0  0  0  0  0  0
    5.2454    0.4180    1.2816 H   0  0  0  0  0  0  0  0  0  0  0  0
    3.8296   -1.2196    2.0121 H   0  0  0  0  0  0  0  0  0  0  0  0
    1.5037   -1.3982    1.6035 H   0  0  0  0  0  0  0  0  0  0  0  0
    4.6657   -2.4043   -0.5841 H   0  0  0  0  0  0  0  0  0  0  0  0
   -1.3442   -2.2146   -2.3520 H   0  0  0  0  0  0  0  0  0  0  0  0
    0.7732   -0.8915   -2.0084 H   0  0  0  0  0  0  0  0  0  0  0  0
   -0.2908    1.1404   -0.4499 H   0  0  0  0  0  0  0  0  0  0  0  0
   -1.0292    0.4857    1.4910 H   0  0  0  0  0  0  0  0  0  0  0  0
   -2.7498   -1.1156    1.3232 H   0  0  0  0  0  0  0  0  0  0  0  0
   -7.3068    0.6095   -1.4807 H   0  0  0  0  0  0  0  0  0  0  0  0
   -6.8494   -1.2950   -0.3829 H   0  0  0  0  0  0  0  0  0  0  0  0
   -4.8019   -1.4933    0.8081 H   0  0  0  0  0  0  0  0  0  0  0  0
   -4.1319   -0.8981   -1.3464 H   0  0  0  0  0  0  0  0  0  0  0  0
   -4.0713    1.8568   -1.7301 H   0  0  0  0  0  0  0  0  0  0  0  0
   -6.0805    2.7748   -0.9270 H   0  0  0  0  0  0  0  0  0  0  0  0
   -7.9853    2.8233    1.7847 H   0  0  0  0  0  0  0  0  0  0  0  0
   -7.1488    1.3245    2.0471 H   0  0  0  0  0  0  0  0  0  0  0  0
   -9.0081    0.7012    0.1838 H   0  0  0  0  0  0  0  0  0  0  0  0
   -8.4958    2.3436   -0.3273 H   0  0  0  0  0  0  0  0  0  0  0  0
    6.3557    1.4353   -2.1326 H   0  0  0  0  0  0  0  0  0  0  0  0
    6.0434   -0.9845   -1.9798 H   0  0  0  0  0  0  0  0  0  0  0  0
    7.6376    3.0304   -1.5486 H   0  0  0  0  0  0  0  0  0  0  0  0
    7.5605    3.7703   -0.0187 H   0  0  0  0  0  0  0  0  0  0  0  0
    5.9834    2.3306    0.2526 H   0  0  0  0  0  0  0  0  0  0  0  0
    7.3742    1.3502    0.8152 H   0  0  0  0  0  0  0  0  0  0  0  0
  3  4  1  0
  4  5  1  0
  1  6  1  0
  5  6  1  0
  1  7  1  0
  1  8  1  0
  3  8  1  0
  5  9  1  0
  6 10  1  0
  2 11  1  0
 11 12  1  0
 10 13  1  0
 12 13  1  0
 13 14  1  0
  2 15  1  0
 14 15  1  0
 15 16  1  0
 17 18  1  0
 18 19  1  0
 16 20  1  0
 19 20  1  0
 20 21  1  0
 17 22  1  0
 21 22  1  0
 17 24  1  0
 23 24  1  0
  3 26  1  0
 25 26  1  0
 25 28  1  0
 27 28  1  0
  4 29  1  0
  7 30  1  0
  7 31  1  0
  7 32  1  0
  8 33  1  0
  9 34  1  0
  9 35  1  0
  9 36  1  0
 10 37  1  0
 11 38  1  0
 12 39  1  0
 16 40  1  0
 18 41  1  0
 19 42  1  0
 21 43  1  0
 22 44  1  0
 25 45  1  0
 26 46  1  0
  1 47  1  0
  2 48  1  0
  3 49  1  0
  4 50  1  0
  5 51  1  0
  6 52  1  0
  8 53  1  0
 11 54  1  0
 12 55  1  0
 13 56  1  0
 14 57  1  0
 15 58  1  1
 17 59  1  0
 18 60  1  0
 19 61  1  0
 20 62  1  0
 21 63  1  0
 22 64  1  0
 23 65  1  0
 23 66  1  0
 24 67  1  0
 24 68  1  0
 25 69  1  0
 26 70  1  0
 27 71  1  0
 27 72  1  0
 28 73  1  0
 28 74  1  0
M  END
>  <PDBID>  (1) 
4G1Q

>  <PDB ID>  (1) 
4G1Q

>  <Generic Name>  (1) 
Rilpivirine

>  <Brand Name>  (1) 
Complera#Edurant#Odefsey

>  <DrugBank ID>  (1) 
DB08864

>  <ATC Codes>  (1) 
nan

>  <Ligand ID>  (1) 
T27

>  <Target Name>  (1) 
Reverse transcriptase/RNaseH

>  <UniProt ID>  (1) 
Q72547

>  <PDB ID.1>  (1) 
4G1Q

>  <Seq. Identity>  (1) 
95%

$$$$
