PDB_DB06335_06
     RDKit          3D

106114  0  0  0  0  0  0  0  0999 V2000
   -1.1277    0.3258   -0.1965 C   0  0  1  0  0  0  0  0  0  0  0  0
    0.2568    0.0599   -0.6407 C   0  0  1  0  0  0  0  0  0  0  0  0
   -1.6468   -0.8037    0.6602 C   0  0  0  0  0  0  0  0  0  0  0  0
   -3.1209   -0.7005    0.9601 C   0  0  1  0  0  0  0  0  0  0  0  0
   -2.9190    1.7095    0.7373 C   0  0  2  0  0  0  0  0  0  0  0  0
   -3.4445    0.3694   -1.2051 C   0  0  1  0  0  0  0  0  0  0  0  0
   -3.3480    0.6104    1.6792 C   0  0  0  0  0  0  0  0  0  0  0  0
   -3.8758   -0.7795   -0.3461 C   0  0  0  0  0  0  0  0  0  0  0  0
   -3.6961    1.7071   -0.5369 C   0  0  0  0  0  0  0  0  0  0  0  0
    4.2657   -0.9950   -1.4820 C   0  0  1  0  0  0  0  0  0  0  0  0
    3.2810   -0.5627   -2.4654 C   0  0  0  0  0  0  0  0  0  0  0  0
    4.7911   -0.0686   -0.3799 C   0  0  0  0  0  0  0  0  0  0  0  0
    3.8819    0.3750    1.9056 C   0  0  0  0  0  0  0  0  0  0  0  0
    2.8844    0.0215    2.8846 N   0  0  0  0  0  0  0  0  0  0  0  0
   -1.4100    1.6256    0.4598 C   0  0  0  0  0  0  0  0  0  0  0  0
   -1.9844    0.2847   -1.4771 C   0  0  0  0  0  0  0  0  0  0  0  0
    1.2867   -0.1271    0.4619 C   0  0  0  0  0  0  0  0  0  0  0  0
    0.2824   -1.0782   -1.4980 N   0  0  0  0  0  0  0  0  0  0  0  0
    2.5620   -0.0542   -0.1679 N   0  0  0  0  0  0  0  0  0  0  0  0
    1.2194    1.0454    1.2684 O   0  0  0  0  0  0  0  0  0  0  0  0
   -3.4655   -1.7824    1.7488 O   0  0  0  0  0  0  0  0  0  0  0  0
    2.7341   -1.0869   -1.1961 C   0  0  2  0  0  0  0  0  0  0  0  0
    3.6993   -0.4084    0.6764 C   0  0  1  0  0  0  0  0  0  0  0  0
   -1.1277    0.3258   -0.1965 C   0  0  1  0  0  0  0  0  0  0  0  0
    0.2568    0.0599   -0.6407 C   0  0  1  0  0  0  0  0  0  0  0  0
   -1.6468   -0.8037    0.6602 C   0  0  0  0  0  0  0  0  0  0  0  0
   -3.1209   -0.7005    0.9601 C   0  0  1  0  0  0  0  0  0  0  0  0
   -2.9190    1.7095    0.7373 C   0  0  2  0  0  0  0  0  0  0  0  0
   -3.4445    0.3694   -1.2051 C   0  0  1  0  0  0  0  0  0  0  0  0
   -3.3480    0.6104    1.6792 C   0  0  0  0  0  0  0  0  0  0  0  0
   -3.8758   -0.7795   -0.3461 C   0  0  0  0  0  0  0  0  0  0  0  0
   -3.6961    1.7071   -0.5369 C   0  0  0  0  0  0  0  0  0  0  0  0
    4.2657   -0.9950   -1.4820 C   0  0  1  0  0  0  0  0  0  0  0  0
    3.2810   -0.5627   -2.4654 C   0  0  0  0  0  0  0  0  0  0  0  0
    4.7911   -0.0686   -0.3799 C   0  0  0  0  0  0  0  0  0  0  0  0
    3.8819    0.3750    1.9056 C   0  0  0  0  0  0  0  0  0  0  0  0
    2.8844    0.0215    2.8846 N   0  0  0  0  0  0  0  0  0  0  0  0
   -1.4100    1.6256    0.4598 C   0  0  0  0  0  0  0  0  0  0  0  0
   -1.9844    0.2847   -1.4771 C   0  0  0  0  0  0  0  0  0  0  0  0
    1.2867   -0.1271    0.4619 C   0  0  0  0  0  0  0  0  0  0  0  0
    0.2824   -1.0782   -1.4980 N   0  0  0  0  0  0  0  0  0  0  0  0
    2.5620   -0.0542   -0.1679 N   0  0  0  0  0  0  0  0  0  0  0  0
    1.2194    1.0454    1.2684 O   0  0  0  0  0  0  0  0  0  0  0  0
   -3.4655   -1.7824    1.7488 O   0  0  0  0  0  0  0  0  0  0  0  0
    2.7341   -1.0869   -1.1961 C   0  0  2  0  0  0  0  0  0  0  0  0
    3.6993   -0.4084    0.6764 C   0  0  1  0  0  0  0  0  0  0  0  0
    0.6647    0.9199   -1.2535 H   0  0  0  0  0  0  0  0  0  0  0  0
   -1.4548   -1.7936    0.2305 H   0  0  0  0  0  0  0  0  0  0  0  0
   -1.1306   -0.8077    1.6645 H   0  0  0  0  0  0  0  0  0  0  0  0
   -3.0864    2.6848    1.2614 H   0  0  0  0  0  0  0  0  0  0  0  0
   -3.9679    0.2847   -2.1675 H   0  0  0  0  0  0  0  0  0  0  0  0
   -2.7314    0.6273    2.5783 H   0  0  0  0  0  0  0  0  0  0  0  0
   -4.4228    0.7731    1.8886 H   0  0  0  0  0  0  0  0  0  0  0  0
   -4.9664   -0.7440   -0.2173 H   0  0  0  0  0  0  0  0  0  0  0  0
   -3.5199   -1.7142   -0.8491 H   0  0  0  0  0  0  0  0  0  0  0  0
   -3.2958    2.4942   -1.1980 H   0  0  0  0  0  0  0  0  0  0  0  0
   -4.7612    1.7912   -0.3286 H   0  0  0  0  0  0  0  0  0  0  0  0
    4.8075   -1.9370   -1.6453 H   0  0  0  0  0  0  0  0  0  0  0  0
    3.0819    0.5225   -2.6982 H   0  0  0  0  0  0  0  0  0  0  0  0
    3.2228   -1.1687   -3.3950 H   0  0  0  0  0  0  0  0  0  0  0  0
    5.7807   -0.3512   -0.0287 H   0  0  0  0  0  0  0  0  0  0  0  0
    4.6847    1.0014   -0.6525 H   0  0  0  0  0  0  0  0  0  0  0  0
    4.0127    1.4501    1.7719 H   0  0  0  0  0  0  0  0  0  0  0  0
    3.0785   -0.8864    3.3559 H   0  0  0  0  0  0  0  0  0  0  0  0
    2.7025    0.7821    3.5737 H   0  0  0  0  0  0  0  0  0  0  0  0
   -0.9061    1.7920    1.4324 H   0  0  0  0  0  0  0  0  0  0  0  0
   -1.2086    2.5033   -0.2001 H   0  0  0  0  0  0  0  0  0  0  0  0
   -1.7117   -0.6817   -1.9716 H   0  0  0  0  0  0  0  0  0  0  0  0
   -1.6040    1.1095   -2.1074 H   0  0  0  0  0  0  0  0  0  0  0  0
    1.1241   -0.9945    1.0928 H   0  0  0  0  0  0  0  0  0  0  0  0
    0.2388   -0.9226   -2.5013 H   0  0  0  0  0  0  0  0  0  0  0  0
    0.0316   -1.9811   -1.1120 H   0  0  0  0  0  0  0  0  0  0  0  0
    1.5091    1.7762    0.6481 H   0  0  0  0  0  0  0  0  0  0  0  0
   -3.4721   -2.6002    1.1944 H   0  0  0  0  0  0  0  0  0  0  0  0
    2.4148   -2.1104   -1.0218 H   0  0  0  0  0  0  0  0  0  0  0  0
    3.7792   -1.5063    0.8048 H   0  0  0  0  0  0  0  0  0  0  0  0
    0.6647    0.9199   -1.2535 H   0  0  0  0  0  0  0  0  0  0  0  0
   -1.4548   -1.7936    0.2305 H   0  0  0  0  0  0  0  0  0  0  0  0
   -1.1306   -0.8077    1.6645 H   0  0  0  0  0  0  0  0  0  0  0  0
   -3.0864    2.6848    1.2614 H   0  0  0  0  0  0  0  0  0  0  0  0
   -3.9679    0.2847   -2.1675 H   0  0  0  0  0  0  0  0  0  0  0  0
   -2.7314    0.6273    2.5783 H   0  0  0  0  0  0  0  0  0  0  0  0
   -4.4228    0.7731    1.8886 H   0  0  0  0  0  0  0  0  0  0  0  0
   -4.9664   -0.7440   -0.2173 H   0  0  0  0  0  0  0  0  0  0  0  0
   -3.5199   -1.7142   -0.8491 H   0  0  0  0  0  0  0  0  0  0  0  0
   -3.2958    2.4942   -1.1980 H   0  0  0  0  0  0  0  0  0  0  0  0
   -4.7612    1.7912   -0.3286 H   0  0  0  0  0  0  0  0  0  0  0  0
    4.8075   -1.9370   -1.6453 H   0  0  0  0  0  0  0  0  0  0  0  0
    3.0819    0.5225   -2.6982 H   0  0  0  0  0  0  0  0  0  0  0  0
    3.2228   -1.1687   -3.3950 H   0  0  0  0  0  0  0  0  0  0  0  0
    5.7807   -0.3512   -0.0287 H   0  0  0  0  0  0  0  0  0  0  0  0
    4.6847    1.0014   -0.6525 H   0  0  0  0  0  0  0  0  0  0  0  0
    4.0127    1.4501    1.7719 H   0  0  0  0  0  0  0  0  0  0  0  0
    3.0785   -0.8864    3.3559 H   0  0  0  0  0  0  0  0  0  0  0  0
    2.7025    0.7821    3.5737 H   0  0  0  0  0  0  0  0  0  0  0  0
   -0.9061    1.7920    1.4324 H   0  0  0  0  0  0  0  0  0  0  0  0
   -1.2086    2.5033   -0.2001 H   0  0  0  0  0  0  0  0  0  0  0  0
   -1.7117   -0.6817   -1.9716 H   0  0  0  0  0  0  0  0  0  0  0  0
   -1.6040    1.1095   -2.1074 H   0  0  0  0  0  0  0  0  0  0  0  0
    1.1241   -0.9945    1.0928 H   0  0  0  0  0  0  0  0  0  0  0  0
    0.2388   -0.9226   -2.5013 H   0  0  0  0  0  0  0  0  0  0  0  0
    0.0316   -1.9811   -1.1120 H   0  0  0  0  0  0  0  0  0  0  0  0
    1.5091    1.7762    0.6481 H   0  0  0  0  0  0  0  0  0  0  0  0
   -3.4721   -2.6002    1.1944 H   0  0  0  0  0  0  0  0  0  0  0  0
    2.4148   -2.1104   -1.0218 H   0  0  0  0  0  0  0  0  0  0  0  0
    3.7792   -1.5063    0.8048 H   0  0  0  0  0  0  0  0  0  0  0  0
  1  2  1  0
  1  3  1  0
  3  4  1  0
  4  7  1  0
  5  7  1  0
  4  8  1  0
  6  8  1  0
  5  9  1  0
  6  9  1  0
 10 11  1  0
 10 12  1  0
 13 14  1  0
  1 15  1  1
  5 15  1  0
  1 16  1  0
  6 16  1  0
  2 17  1  0
  2 18  1  0
 17 19  1  0
 17 20  1  0
  4 21  1  1
 10 22  1  0
 11 22  1  0
 19 22  1  0
 12 23  1  0
 13 23  1  0
 19 23  1  0
 24 25  1  0
 24 26  1  1
 26 27  1  0
 27 30  1  0
 28 30  1  0
 27 31  1  0
 29 31  1  0
 28 32  1  0
 29 32  1  0
 33 34  1  0
 33 35  1  0
 36 37  1  0
 24 38  1  0
 28 38  1  0
 24 39  1  0
 29 39  1  0
 25 40  1  0
 25 41  1  0
 40 42  1  0
 40 43  1  0
 27 44  1  1
 33 45  1  0
 34 45  1  0
 42 45  1  0
 35 46  1  0
 36 46  1  0
 42 46  1  0
  2 47  1  6
  3 48  1  0
  3 49  1  0
  5 50  1  1
  6 51  1  6
  7 52  1  0
  7 53  1  0
  8 54  1  0
  8 55  1  0
  9 56  1  0
  9 57  1  0
 10 58  1  6
 11 59  1  0
 11 60  1  0
 12 61  1  0
 12 62  1  0
 13 63  1  0
 14 64  1  0
 14 65  1  0
 15 66  1  0
 15 67  1  0
 16 68  1  0
 16 69  1  0
 17 70  1  0
 18 71  1  0
 18 72  1  0
 20 73  1  0
 21 74  1  0
 22 75  1  6
 23 76  1  1
 25 77  1  6
 26 78  1  0
 26 79  1  0
 28 80  1  1
 29 81  1  6
 30 82  1  0
 30 83  1  0
 31 84  1  0
 31 85  1  0
 32 86  1  0
 32 87  1  0
 33 88  1  6
 34 89  1  0
 34 90  1  0
 35 91  1  0
 35 92  1  0
 36 93  1  0
 37 94  1  0
 37 95  1  0
 38 96  1  0
 38 97  1  0
 39 98  1  0
 39 99  1  0
 40100  1  0
 41101  1  0
 41102  1  0
 43103  1  0
 44104  1  0
 45105  1  6
 46106  1  1
M  END
>  <PDBID>  (1) 
3BJM

>  <PDB ID>  (1) 
3BJM

>  <Generic Name>  (1) 
Saxagliptin

>  <Brand Name>  (1) 
Kombiglyze XR#Komboglyze#Onglyza#Qtern

>  <DrugBank ID>  (1) 
DB06335

>  <ATC Codes>  (1) 
A10BD10#A10BH03#A10BD21

>  <Ligand ID>  (1) 
BJM

>  <Target Name>  (1) 
Dipeptidyl peptidase 4

>  <UniProt ID>  (1) 
P27487

>  <PDB ID.1>  (1) 
3BJM

>  <Seq. Identity>  (1) 
100%

$$$$
