PDB_DB01536_06
     RDKit          3D

 53 56  0  0  0  0  0  0  0  0999 V2000
   -2.5213   -0.6614   -1.2820 C   0  0  0  0  0  0  0  0  0  0  0  0
   -1.6061    0.3503   -0.6937 C   0  0  1  0  0  0  0  0  0  0  0  0
    0.1058   -1.4755   -0.6627 C   0  0  0  0  0  0  0  0  0  0  0  0
    1.3370   -1.9455    0.0870 C   0  0  0  0  0  0  0  0  0  0  0  0
    2.3737   -0.8883   -0.1066 C   0  0  1  0  0  0  0  0  0  0  0  0
    1.8704    0.3578    0.6345 C   0  0  1  0  0  0  0  0  0  0  0  0
    3.0619    1.2374    0.4922 C   0  0  0  0  0  0  0  0  0  0  0  0
    4.2470    0.2965    0.6431 C   0  0  0  0  0  0  0  0  0  0  0  0
    3.6540   -1.1188    0.6240 C   0  0  0  0  0  0  0  0  0  0  0  0
    2.6731   -0.6108   -1.5417 C   0  0  0  0  0  0  0  0  0  0  0  0
   -1.1546    1.2741   -1.8318 C   0  0  0  0  0  0  0  0  0  0  0  0
   -3.3993   -1.3479   -0.2753 C   0  0  0  0  0  0  0  0  0  0  0  0
   -4.1047   -0.3583    0.6190 C   0  0  0  0  0  0  0  0  0  0  0  0
   -3.0582    0.4533    1.3558 C   0  0  0  0  0  0  0  0  0  0  0  0
   -2.2839    1.2459    0.3201 C   0  0  0  0  0  0  0  0  0  0  0  0
   -1.3654    2.2515    0.8887 C   0  0  0  0  0  0  0  0  0  0  0  0
    0.0569    1.9248    1.0157 C   0  0  0  0  0  0  0  0  0  0  0  0
    0.6019    0.8790    0.0760 C   0  0  2  0  0  0  0  0  0  0  0  0
   -0.4077   -0.2408    0.0114 C   0  0  1  0  0  0  0  0  0  0  0  0
   -4.8959   -1.0925    1.5020 O   0  0  0  0  0  0  0  0  0  0  0  0
    4.4728   -1.9941   -0.0723 O   0  0  0  0  0  0  0  0  0  0  0  0
   -3.1879   -0.1345   -2.0107 H   0  0  0  0  0  0  0  0  0  0  0  0
   -1.9523   -1.3948   -1.8553 H   0  0  0  0  0  0  0  0  0  0  0  0
    0.3054   -1.3341   -1.7425 H   0  0  0  0  0  0  0  0  0  0  0  0
   -0.6548   -2.2644   -0.5443 H   0  0  0  0  0  0  0  0  0  0  0  0
    1.6456   -2.9551   -0.2191 H   0  0  0  0  0  0  0  0  0  0  0  0
    1.0675   -1.9727    1.1643 H   0  0  0  0  0  0  0  0  0  0  0  0
    1.7451    0.0939    1.6937 H   0  0  0  0  0  0  0  0  0  0  0  0
    3.1118    1.6780   -0.5440 H   0  0  0  0  0  0  0  0  0  0  0  0
    3.0970    2.0796    1.1890 H   0  0  0  0  0  0  0  0  0  0  0  0
    4.8337    0.4854    1.5434 H   0  0  0  0  0  0  0  0  0  0  0  0
    4.9156    0.3406   -0.2452 H   0  0  0  0  0  0  0  0  0  0  0  0
    3.5256   -1.3989    1.6869 H   0  0  0  0  0  0  0  0  0  0  0  0
    2.4199   -1.5472   -2.1159 H   0  0  0  0  0  0  0  0  0  0  0  0
    2.0883    0.1895   -1.9990 H   0  0  0  0  0  0  0  0  0  0  0  0
    3.7790   -0.4780   -1.7289 H   0  0  0  0  0  0  0  0  0  0  0  0
   -0.4032    0.8132   -2.4707 H   0  0  0  0  0  0  0  0  0  0  0  0
   -0.9172    2.2845   -1.4699 H   0  0  0  0  0  0  0  0  0  0  0  0
   -2.0762    1.3969   -2.4739 H   0  0  0  0  0  0  0  0  0  0  0  0
   -4.1918   -1.8911   -0.8564 H   0  0  0  0  0  0  0  0  0  0  0  0
   -2.8869   -2.0813    0.3510 H   0  0  0  0  0  0  0  0  0  0  0  0
   -4.7137    0.3644    0.0370 H   0  0  0  0  0  0  0  0  0  0  0  0
   -2.4515   -0.2285    1.9398 H   0  0  0  0  0  0  0  0  0  0  0  0
   -3.5250    1.1987    2.0314 H   0  0  0  0  0  0  0  0  0  0  0  0
   -3.0876    1.7861   -0.2666 H   0  0  0  0  0  0  0  0  0  0  0  0
   -1.4563    3.2254    0.3198 H   0  0  0  0  0  0  0  0  0  0  0  0
   -1.7604    2.5224    1.9144 H   0  0  0  0  0  0  0  0  0  0  0  0
    0.2734    1.5471    2.0581 H   0  0  0  0  0  0  0  0  0  0  0  0
    0.7100    2.8174    0.9036 H   0  0  0  0  0  0  0  0  0  0  0  0
    0.8029    1.3404   -0.9123 H   0  0  0  0  0  0  0  0  0  0  0  0
   -0.6326   -0.5115    1.0636 H   0  0  0  0  0  0  0  0  0  0  0  0
   -5.0916   -2.0009    1.1623 H   0  0  0  0  0  0  0  0  0  0  0  0
    5.0106   -2.5069    0.5930 H   0  0  0  0  0  0  0  0  0  0  0  0
  1  2  1  0
  3  4  1  0
  4  5  1  0
  5  6  1  0
  6  7  1  0
  7  8  1  0
  5  9  1  0
  8  9  1  0
  5 10  1  6
  2 11  1  6
  1 12  1  0
 12 13  1  0
 13 14  1  0
  2 15  1  0
 14 15  1  0
 15 16  1  0
 16 17  1  0
  6 18  1  0
 17 18  1  0
  2 19  1  0
  3 19  1  0
 18 19  1  0
 13 20  1  0
  9 21  1  0
  1 22  1  0
  1 23  1  0
  3 24  1  0
  3 25  1  0
  4 26  1  0
  4 27  1  0
  6 28  1  1
  7 29  1  0
  7 30  1  0
  8 31  1  0
  8 32  1  0
  9 33  1  0
 10 34  1  0
 10 35  1  0
 10 36  1  0
 11 37  1  0
 11 38  1  0
 11 39  1  0
 12 40  1  0
 12 41  1  0
 13 42  1  0
 14 43  1  0
 14 44  1  0
 15 45  1  0
 16 46  1  0
 16 47  1  0
 17 48  1  0
 17 49  1  0
 18 50  1  6
 19 51  1  1
 20 52  1  0
 21 53  1  0
M  END
>  <PDBID>  (1) 
1QYX

>  <PDB ID>  (1) 
1QYX

>  <Generic Name>  (1) 
4-Androstenedione

>  <Brand Name>  (1) 
nan

>  <DrugBank ID>  (1) 
DB01536

>  <ATC Codes>  (1) 
nan

>  <Ligand ID>  (1) 
ASD

>  <Target Name>  (1) 
Estradiol 17-beta-dehydrogenase 1

>  <UniProt ID>  (1) 
P14061

>  <PDB ID.1>  (1) 
1QYX

>  <Seq. Identity>  (1) 
89%

$$$$
