PDB_DB00380_01
     RDKit          3D

 43 44  0  0  0  0  0  0  0  0999 V2000
    2.9790   -0.1216   -1.8003 O   0  0  0  0  0  0  0  0  0  0  0  0
    3.5379    0.7288   -0.8724 C   0  0  0  0  0  0  0  0  0  0  0  0
    4.5135   -0.0065   -0.1185 N   0  0  0  0  0  0  0  0  0  0  0  0
    3.9651   -0.9813    0.7720 C   0  0  0  0  0  0  0  0  0  0  0  0
    4.4932   -0.7871    2.0671 O   0  0  0  0  0  0  0  0  0  0  0  0
    2.4733   -1.0665    0.7788 C   0  0  0  0  0  0  0  0  0  0  0  0
    2.5151    1.2572    0.1325 C   0  0  0  0  0  0  0  0  0  0  0  0
    1.8248    0.1706    0.6752 N   0  0  0  0  0  0  0  0  0  0  0  0
    0.4773    0.2714    0.9949 C   0  0  0  0  0  0  0  0  0  0  0  0
   -0.4781   -0.4258    0.0677 C   0  0  2  0  0  0  0  0  0  0  0  0
   -0.4055    0.0857   -1.3442 C   0  0  0  0  0  0  0  0  0  0  0  0
   -1.8453   -0.3009    0.5823 N   0  0  0  0  0  0  0  0  0  0  0  0
   -2.6364   -1.2399   -0.1543 C   0  0  0  0  0  0  0  0  0  0  0  0
   -4.0391   -0.8660   -0.4327 C   0  0  0  0  0  0  0  0  0  0  0  0
   -4.8875   -1.3839    0.5746 O   0  0  0  0  0  0  0  0  0  0  0  0
   -4.3055    0.5152   -0.6098 N   0  0  0  0  0  0  0  0  0  0  0  0
   -3.6967    1.3231    0.4250 C   0  0  0  0  0  0  0  0  0  0  0  0
   -2.2293    1.0678    0.4237 C   0  0  0  0  0  0  0  0  0  0  0  0
   -3.8848    2.6654    0.0279 O   0  0  0  0  0  0  0  0  0  0  0  0
    3.6572   -0.8250   -2.0292 H   0  0  0  0  0  0  0  0  0  0  0  0
    4.0409    1.5387   -1.4117 H   0  0  0  0  0  0  0  0  0  0  0  0
    5.2727    0.5657    0.2692 H   0  0  0  0  0  0  0  0  0  0  0  0
    4.3443   -1.9893    0.4296 H   0  0  0  0  0  0  0  0  0  0  0  0
    5.0599   -1.5478    2.3520 H   0  0  0  0  0  0  0  0  0  0  0  0
    2.1426   -1.7860    0.0067 H   0  0  0  0  0  0  0  0  0  0  0  0
    2.1856   -1.5457    1.7611 H   0  0  0  0  0  0  0  0  0  0  0  0
    3.1392    1.7304    0.9466 H   0  0  0  0  0  0  0  0  0  0  0  0
    1.8928    2.0490   -0.2722 H   0  0  0  0  0  0  0  0  0  0  0  0
    0.2031    1.3505    1.1382 H   0  0  0  0  0  0  0  0  0  0  0  0
    0.3030   -0.1901    2.0116 H   0  0  0  0  0  0  0  0  0  0  0  0
   -0.2480   -1.5109    0.0866 H   0  0  0  0  0  0  0  0  0  0  0  0
    0.2663   -0.5879   -1.9141 H   0  0  0  0  0  0  0  0  0  0  0  0
    0.0157    1.1068   -1.4216 H   0  0  0  0  0  0  0  0  0  0  0  0
   -1.3830    0.1272   -1.8644 H   0  0  0  0  0  0  0  0  0  0  0  0
   -2.1396   -1.5968   -1.0992 H   0  0  0  0  0  0  0  0  0  0  0  0
   -2.6618   -2.1793    0.4812 H   0  0  0  0  0  0  0  0  0  0  0  0
   -4.3721   -1.3978   -1.3725 H   0  0  0  0  0  0  0  0  0  0  0  0
   -5.1372   -2.3268    0.3459 H   0  0  0  0  0  0  0  0  0  0  0  0
   -4.0428    0.8988   -1.5405 H   0  0  0  0  0  0  0  0  0  0  0  0
   -4.1311    1.1676    1.4184 H   0  0  0  0  0  0  0  0  0  0  0  0
   -1.8071    1.6344    1.3065 H   0  0  0  0  0  0  0  0  0  0  0  0
   -1.7931    1.5540   -0.4644 H   0  0  0  0  0  0  0  0  0  0  0  0
   -3.1782    2.8548   -0.6547 H   0  0  0  0  0  0  0  0  0  0  0  0
  1  2  1  0
  2  3  1  0
  3  4  1  0
  4  5  1  0
  4  6  1  0
  2  7  1  0
  6  8  1  0
  7  8  1  0
  8  9  1  0
  9 10  1  0
 10 11  1  0
 10 12  1  0
 12 13  1  0
 13 14  1  0
 14 15  1  0
 14 16  1  0
 16 17  1  0
 12 18  1  0
 17 18  1  0
 17 19  1  0
  1 20  1  0
  2 21  1  0
  3 22  1  0
  4 23  1  0
  5 24  1  0
  6 25  1  0
  6 26  1  0
  7 27  1  0
  7 28  1  0
  9 29  1  0
  9 30  1  0
 10 31  1  6
 11 32  1  0
 11 33  1  0
 11 34  1  0
 13 35  1  0
 13 36  1  0
 14 37  1  0
 15 38  1  0
 16 39  1  0
 17 40  1  0
 18 41  1  0
 18 42  1  0
 19 43  1  0
M  END
>  <PDBID>  (1) 
1QZR

>  <PDB ID>  (1) 
1QZR

>  <Generic Name>  (1) 
Dexrazoxane

>  <Brand Name>  (1) 
Dexrazoxane#Dexrazoxane Hydrochloride#Zinecard#Ao Nuo Xian#Cardioxane#Dexrazoxane#Savene#Totect

>  <DrugBank ID>  (1) 
DB00380

>  <ATC Codes>  (1) 
V03AF02

>  <Ligand ID>  (1) 
CDX

>  <Target Name>  (1) 
DNA topoisomerase 2-alpha

>  <UniProt ID>  (1) 
P11388

>  <PDB ID.1>  (1) 
1QZR

>  <Seq. Identity>  (1) 
51%

$$$$
