PDB_DB01010_03
     RDKit          3D

 34 34  0  0  0  0  0  0  0  0999 V2000
    0.5763    1.2248    0.2093 C   0  0  0  0  0  0  0  0  0  0  0  0
    0.2015   -0.1046   -0.3871 C   0  0  0  0  0  0  0  0  0  0  0  0
    1.1042   -1.1500    0.1811 C   0  0  0  0  0  0  0  0  0  0  0  0
    2.5136   -0.7789    0.3377 C   0  0  2  0  0  0  0  0  0  0  0  0
    2.9570    0.5272   -0.1871 C   0  0  0  0  0  0  0  0  0  0  0  0
    1.9422    1.5932   -0.3047 C   0  0  0  0  0  0  0  0  0  0  0  0
    3.3064   -1.7797   -0.2790 O   0  0  0  0  0  0  0  0  0  0  0  0
   -1.1929   -0.4114   -0.1272 N   0  0  0  0  0  0  0  0  0  0  0  0
   -1.5984    0.0590    1.1920 C   0  0  0  0  0  0  0  0  0  0  0  0
   -1.4144   -1.8673   -0.1051 C   0  0  0  0  0  0  0  0  0  0  0  0
   -2.0384    0.1115   -1.1730 C   0  0  0  0  0  0  0  0  0  0  0  0
   -2.9132    1.2381   -0.7456 C   0  0  0  0  0  0  0  0  0  0  0  0
   -0.1372    1.9789   -0.2199 H   0  0  0  0  0  0  0  0  0  0  0  0
    0.5063    1.2559    1.2997 H   0  0  0  0  0  0  0  0  0  0  0  0
    0.3311   -0.0542   -1.4712 H   0  0  0  0  0  0  0  0  0  0  0  0
    0.9665   -2.0741   -0.4551 H   0  0  0  0  0  0  0  0  0  0  0  0
    0.6634   -1.4527    1.1763 H   0  0  0  0  0  0  0  0  0  0  0  0
    2.8226   -0.8520    1.4235 H   0  0  0  0  0  0  0  0  0  0  0  0
    3.4396    0.3939   -1.2020 H   0  0  0  0  0  0  0  0  0  0  0  0
    3.8039    0.9278    0.4474 H   0  0  0  0  0  0  0  0  0  0  0  0
    1.7988    1.9305   -1.3745 H   0  0  0  0  0  0  0  0  0  0  0  0
    2.2348    2.5387    0.2328 H   0  0  0  0  0  0  0  0  0  0  0  0
    3.5032   -1.4581   -1.2131 H   0  0  0  0  0  0  0  0  0  0  0  0
   -2.6060   -0.3825    1.3832 H   0  0  0  0  0  0  0  0  0  0  0  0
   -1.5520    1.1384    1.3047 H   0  0  0  0  0  0  0  0  0  0  0  0
   -0.9208   -0.4109    1.9287 H   0  0  0  0  0  0  0  0  0  0  0  0
   -1.1670   -2.3016    0.8691 H   0  0  0  0  0  0  0  0  0  0  0  0
   -2.5348   -1.9724   -0.2081 H   0  0  0  0  0  0  0  0  0  0  0  0
   -0.9851   -2.3639   -0.9728 H   0  0  0  0  0  0  0  0  0  0  0  0
   -2.6824   -0.6656   -1.6435 H   0  0  0  0  0  0  0  0  0  0  0  0
   -1.3721    0.4717   -2.0031 H   0  0  0  0  0  0  0  0  0  0  0  0
   -2.4336    2.2437   -0.8900 H   0  0  0  0  0  0  0  0  0  0  0  0
   -3.3085    1.1745    0.2681 H   0  0  0  0  0  0  0  0  0  0  0  0
   -3.8146    1.2720   -1.4271 H   0  0  0  0  0  0  0  0  0  0  0  0
  1  2  1  0
  2  3  1  0
  3  4  1  0
  4  5  1  0
  1  6  1  0
  5  6  1  0
  4  7  1  0
  2  8  1  0
  8  9  1  0
  8 10  1  0
  8 11  1  0
 11 12  1  0
  1 13  1  0
  1 14  1  0
  2 15  1  0
  3 16  1  0
  3 17  1  0
  4 18  1  1
  5 19  1  0
  5 20  1  0
  6 21  1  0
  6 22  1  0
  7 23  1  0
  9 24  1  0
  9 25  1  0
  9 26  1  0
 10 27  1  0
 10 28  1  0
 10 29  1  0
 11 30  1  0
 11 31  1  0
 12 32  1  0
 12 33  1  0
 12 34  1  0
M  CHG  1   8   1
M  END
>  <PDBID>  (1) 
2ACK

>  <PDB ID>  (1) 
2ACK

>  <Generic Name>  (1) 
Edrophonium

>  <Brand Name>  (1) 
Enlon#Enlon 10mg/ml#Enlon Liq IV 10mg/ml#Enlon Plus#Tensilon#Antirex#Reversol

>  <DrugBank ID>  (1) 
DB01010

>  <ATC Codes>  (1) 
nan

>  <Ligand ID>  (1) 
EDR

>  <Target Name>  (1) 
Acetylcholinesterase

>  <UniProt ID>  (1) 
P22303

>  <PDB ID.1>  (1) 
2ACK

>  <Seq. Identity>  (1) 
57%

$$$$
