PDB_DB00259_00
     RDKit          3D

 27 27  0  0  0  0  0  0  0  0999 V2000
    2.1317    0.0890    0.2514 C   0  0  0  0  0  0  0  0  0  0  0  0
    3.4350   -0.4039   -0.1613 N   0  0  0  0  0  0  0  0  0  0  0  0
    1.4155    0.8058   -0.8245 C   0  0  0  0  0  0  0  0  0  0  0  0
    0.1095    0.2641   -1.2404 C   0  0  0  0  0  0  0  0  0  0  0  0
   -0.7156   -0.3851   -0.2000 C   0  0  0  0  0  0  0  0  0  0  0  0
   -0.0277   -0.5852    1.1199 C   0  0  0  0  0  0  0  0  0  0  0  0
    1.3709   -1.0845    0.8298 C   0  0  0  0  0  0  0  0  0  0  0  0
   -2.1726    0.6038    0.1602 S   0  0  0  0  0  0  0  0  0  0  0  0
   -3.0563    0.7730   -0.9510 N   0  0  0  0  0  0  0  0  0  0  0  0
   -2.9572   -0.9136    1.1736 O   0  0  0  0  0  0  0  0  0  0  0  0
   -1.8635    1.4500    1.3822 O   0  0  0  0  0  0  0  0  0  0  0  0
    2.3286    0.7789    1.1236 H   0  0  0  0  0  0  0  0  0  0  0  0
    4.1068    0.3822   -0.3274 H   0  0  0  0  0  0  0  0  0  0  0  0
    3.8062   -1.1055    0.5026 H   0  0  0  0  0  0  0  0  0  0  0  0
    2.0893    0.8227   -1.7319 H   0  0  0  0  0  0  0  0  0  0  0  0
    1.3188    1.8982   -0.5530 H   0  0  0  0  0  0  0  0  0  0  0  0
    0.2230   -0.4532   -2.1028 H   0  0  0  0  0  0  0  0  0  0  0  0
   -0.4940    1.1140   -1.6782 H   0  0  0  0  0  0  0  0  0  0  0  0
   -1.1191   -1.3591   -0.5341 H   0  0  0  0  0  0  0  0  0  0  0  0
    0.0297    0.3840    1.6335 H   0  0  0  0  0  0  0  0  0  0  0  0
   -0.6232   -1.3022    1.7210 H   0  0  0  0  0  0  0  0  0  0  0  0
    1.3013   -1.9227    0.1349 H   0  0  0  0  0  0  0  0  0  0  0  0
    1.8772   -1.3541    1.7872 H   0  0  0  0  0  0  0  0  0  0  0  0
   -2.8144    0.7021   -1.9819 H   0  0  0  0  0  0  0  0  0  0  0  0
   -4.1201    0.7371   -0.9453 H   0  0  0  0  0  0  0  0  0  0  0  0
   -3.0105   -1.4745    0.3720 H   0  0  0  0  0  0  0  0  0  0  0  0
   -2.5690    1.5387    2.0825 H   0  0  0  0  0  0  0  0  0  0  0  0
  1  2  1  0
  1  3  1  0
  3  4  1  0
  4  5  1  0
  5  6  1  0
  1  7  1  0
  6  7  1  0
  5  8  1  0
  8  9  1  0
  8 10  1  0
  8 11  1  0
  1 12  1  0
  2 13  1  0
  2 14  1  0
  3 15  1  0
  3 16  1  0
  4 17  1  0
  4 18  1  0
  5 19  1  0
  6 20  1  0
  6 21  1  0
  7 22  1  0
  7 23  1  0
  9 24  1  0
  9 25  1  0
 10 26  1  0
 11 27  1  0
M  END
>  <PDBID>  (1) 
1AJ0

>  <PDB ID>  (1) 
1AJ0

>  <Generic Name>  (1) 
Sulfanilamide

>  <Brand Name>  (1) 
AVC Vaginal#Avc#Avc Cream - 15%#Streptocid

>  <DrugBank ID>  (1) 
DB00259

>  <ATC Codes>  (1) 
J01EB06#D06BA05

>  <Ligand ID>  (1) 
SAN

>  <Target Name>  (1) 
Dihydropteroate synthase

>  <UniProt ID>  (1) 
P0AC13

>  <PDB ID.1>  (1) 
1AJ0

>  <Seq. Identity>  (1) 
100%

$$$$
