PDB_DB00215_08
     RDKit          3D

 61 63  0  0  0  0  0  0  0  0999 V2000
    0.1013    1.8106   -0.2174 C   0  0  0  0  0  0  0  0  0  0  0  0
    1.7498   -0.1980   -1.3647 C   0  0  0  0  0  0  0  0  0  0  0  0
   -0.3711    2.3028   -1.5184 C   0  0  0  0  0  0  0  0  0  0  0  0
    3.0692   -0.4541   -0.6319 C   0  0  0  0  0  0  0  0  0  0  0  0
   -0.2545    4.2091    0.3900 C   0  0  0  0  0  0  0  0  0  0  0  0
    0.8318    4.2966   -0.6597 C   0  0  0  0  0  0  0  0  0  0  0  0
   -4.9449   -2.2585    1.1929 C   0  0  0  0  0  0  0  0  0  0  0  0
    4.4902   -2.2872    0.2066 C   0  0  0  0  0  0  0  0  0  0  0  0
    0.9055    5.6384   -1.0333 F   0  0  0  0  0  0  0  0  0  0  0  0
    0.4697    0.3386    1.4896 O   0  0  0  0  0  0  0  0  0  0  0  0
   -3.7419   -1.7472    0.5842 N   0  0  0  0  0  0  0  0  0  0  0  0
    4.5990   -1.6921    1.5140 N   0  0  0  0  0  0  0  0  0  0  0  0
   -0.1468    0.4221    0.2055 C   0  0  1  0  0  0  0  0  0  0  0  0
   -1.5571    0.0340    0.5223 C   0  0  0  0  0  0  0  0  0  0  0  0
    0.5702   -0.6329   -0.6048 C   0  0  0  0  0  0  0  0  0  0  0  0
    0.8371   -1.6689    0.4480 C   0  0  0  0  0  0  0  0  0  0  0  0
   -2.5914    0.1227   -0.5043 C   0  0  0  0  0  0  0  0  0  0  0  0
    0.9660   -0.8893    1.6968 C   0  0  0  0  0  0  0  0  0  0  0  0
   -3.9089   -0.3751    0.1398 C   0  0  0  0  0  0  0  0  0  0  0  0
    1.9968   -2.5693    0.1571 C   0  0  0  0  0  0  0  0  0  0  0  0
   -0.4879    2.7793    0.8328 C   0  0  0  0  0  0  0  0  0  0  0  0
    3.1716   -1.9377   -0.4775 C   0  0  0  0  0  0  0  0  0  0  0  0
    0.5403    3.4991   -1.8854 C   0  0  0  0  0  0  0  0  0  0  0  0
   -3.4156   -2.6021   -0.5364 C   0  0  0  0  0  0  0  0  0  0  0  0
    1.1993    2.0166   -0.1179 H   0  0  0  0  0  0  0  0  0  0  0  0
    1.7988    0.8261   -1.7099 H   0  0  0  0  0  0  0  0  0  0  0  0
    1.8417   -0.8411   -2.2930 H   0  0  0  0  0  0  0  0  0  0  0  0
   -0.3433    1.6491   -2.3778 H   0  0  0  0  0  0  0  0  0  0  0  0
   -1.3766    2.8140   -1.3993 H   0  0  0  0  0  0  0  0  0  0  0  0
    3.1560    0.1144    0.2850 H   0  0  0  0  0  0  0  0  0  0  0  0
    3.8894   -0.1279   -1.3188 H   0  0  0  0  0  0  0  0  0  0  0  0
    0.0995    4.7671    1.2809 H   0  0  0  0  0  0  0  0  0  0  0  0
   -1.1742    4.6629    0.0101 H   0  0  0  0  0  0  0  0  0  0  0  0
    1.8322    4.0583   -0.2121 H   0  0  0  0  0  0  0  0  0  0  0  0
   -5.5704   -1.4757    1.6473 H   0  0  0  0  0  0  0  0  0  0  0  0
   -4.6200   -3.0276    1.9505 H   0  0  0  0  0  0  0  0  0  0  0  0
   -5.5252   -2.8215    0.4399 H   0  0  0  0  0  0  0  0  0  0  0  0
    5.3190   -1.8786   -0.4098 H   0  0  0  0  0  0  0  0  0  0  0  0
    4.6456   -3.3886    0.2262 H   0  0  0  0  0  0  0  0  0  0  0  0
    5.0941   -0.7561    1.4597 H   0  0  0  0  0  0  0  0  0  0  0  0
    5.2676   -2.2951    2.0773 H   0  0  0  0  0  0  0  0  0  0  0  0
   -1.8575    0.6006    1.4482 H   0  0  0  0  0  0  0  0  0  0  0  0
   -1.5165   -1.0334    0.8950 H   0  0  0  0  0  0  0  0  0  0  0  0
   -0.1827   -1.0641   -1.2976 H   0  0  0  0  0  0  0  0  0  0  0  0
   -0.0429   -2.3480    0.5479 H   0  0  0  0  0  0  0  0  0  0  0  0
   -2.4734   -0.4734   -1.4026 H   0  0  0  0  0  0  0  0  0  0  0  0
   -2.8387    1.1730   -0.7613 H   0  0  0  0  0  0  0  0  0  0  0  0
    0.3286   -1.3707    2.5049 H   0  0  0  0  0  0  0  0  0  0  0  0
    1.9841   -0.9214    2.1493 H   0  0  0  0  0  0  0  0  0  0  0  0
   -4.7407   -0.2549   -0.5836 H   0  0  0  0  0  0  0  0  0  0  0  0
   -4.1518    0.2296    1.0375 H   0  0  0  0  0  0  0  0  0  0  0  0
    2.3316   -2.9866    1.1535 H   0  0  0  0  0  0  0  0  0  0  0  0
    1.6611   -3.4676   -0.4125 H   0  0  0  0  0  0  0  0  0  0  0  0
   -0.0302    2.5322    1.7926 H   0  0  0  0  0  0  0  0  0  0  0  0
   -1.5841    2.6423    0.9208 H   0  0  0  0  0  0  0  0  0  0  0  0
    3.2753   -2.3592   -1.5217 H   0  0  0  0  0  0  0  0  0  0  0  0
   -0.0087    4.0704   -2.6646 H   0  0  0  0  0  0  0  0  0  0  0  0
    1.4296    3.0762   -2.3573 H   0  0  0  0  0  0  0  0  0  0  0  0
   -3.8652   -2.1339   -1.4543 H   0  0  0  0  0  0  0  0  0  0  0  0
   -3.8128   -3.6360   -0.3748 H   0  0  0  0  0  0  0  0  0  0  0  0
   -2.3172   -2.7122   -0.6283 H   0  0  0  0  0  0  0  0  0  0  0  0
  1  3  1  0
  2  4  1  0
  5  6  1  0
  6  9  1  0
  7 11  1  0
  8 12  1  0
  1 13  1  0
 10 13  1  0
 13 14  1  1
  2 15  1  0
 13 15  1  0
 15 16  1  0
 14 17  1  0
 10 18  1  0
 16 18  1  0
 11 19  1  0
 17 19  1  0
 16 20  1  0
  1 21  1  0
  5 21  1  0
  4 22  1  0
  8 22  1  0
 20 22  1  0
  3 23  1  0
  6 23  1  0
 11 24  1  0
  1 25  1  0
  2 26  1  0
  2 27  1  0
  3 28  1  0
  3 29  1  0
  4 30  1  0
  4 31  1  0
  5 32  1  0
  5 33  1  0
  6 34  1  0
  7 35  1  0
  7 36  1  0
  7 37  1  0
  8 38  1  0
  8 39  1  0
 12 40  1  0
 12 41  1  0
 14 42  1  0
 14 43  1  0
 15 44  1  0
 16 45  1  0
 17 46  1  0
 17 47  1  0
 18 48  1  0
 18 49  1  0
 19 50  1  0
 19 51  1  0
 20 52  1  0
 20 53  1  0
 21 54  1  0
 21 55  1  0
 22 56  1  0
 23 57  1  0
 23 58  1  0
 24 59  1  0
 24 60  1  0
 24 61  1  0
M  END
>  <PDBID>  (1) 
5I71

>  <PDB ID>  (1) 
5I71

>  <Generic Name>  (1) 
Citalopram

>  <Brand Name>  (1) 
Abbott-citalopram#Accel-citalopram Tablets#Act Citalopram#Ag-citalopram#Apo-citalopram#Auro-citalopram#Ava-citalopram#Bio-citalopram#Celexa#Celexa 10 mg#Celexa 20 mg#Celexa 40 mg#Citalopram#Citalopram Hydrobromide#Citalopram Tablets#Citalopram Tablets USP#Citalopram-10#Citalopram-20#Citalopram-40#Citalopram-odan#Ctp 30#Dom-citalopram#Ecl-citalopram#Ipg-citalopram#Jamp-citalopram#Manda-citalopram#Mar-citalopram#Mint-citalopram#Mylan-citalopram#Nat-citalopram#Nat-citalopram Tablets#Ng Citalopram#Novo-citalopram#Ntp-citalopram#Nu-citalopram#PHL-citalopram#PMS-citalopram#Pendo-citalopram#Perrigo Citalopram#Priva-citalopram#Q-citalopram#Ran-citalo#Ran-citalopram#Ratio-citalopram#Riva-citalopram#Sandoz Citalopram#Sentralopram Am-10#Septa-citalopram#Teva-citalopram#Van-citalopram#Akarin#Celapram#Ciazil#Cilift#Cipram#Cipramil#Ciprapine#Citabax#Citalec#Citol#Citopam#Citox#Citrol#Dalsan#Elopram#Humorup#Oropram#Pramcit#Recital#Seropram#Talam#Talohexal#Temperax#Vodelax#Zentius#Zetalo

>  <DrugBank ID>  (1) 
DB00215

>  <ATC Codes>  (1) 
N06AB04

>  <Ligand ID>  (1) 
68P

>  <Target Name>  (1) 
Sodium-dependent serotonin transporter

>  <UniProt ID>  (1) 
P31645

>  <PDB ID.1>  (1) 
5I71

>  <Seq. Identity>  (1) 
99%

$$$$
