PDB_DB00907_08
     RDKit          3D

 53 55  0  0  0  0  0  0  0  0999 V2000
   -3.6062   -3.0946    0.3635 C   0  0  0  0  0  0  0  0  0  0  0  0
   -2.7458   -2.4541    1.2137 O   0  0  0  0  0  0  0  0  0  0  0  0
   -1.7599   -1.7638    0.5110 C   0  0  0  0  0  0  0  0  0  0  0  0
   -0.5450   -2.4084    0.8431 O   0  0  0  0  0  0  0  0  0  0  0  0
   -1.7146   -0.3061    0.9479 C   0  0  2  0  0  0  0  0  0  0  0  0
   -3.0868    0.2749    0.6478 C   0  0  2  0  0  0  0  0  0  0  0  0
   -3.2115    0.2029   -0.8171 N   0  0  0  0  0  0  0  0  0  0  0  0
   -4.5742    0.4443   -1.2375 C   0  0  0  0  0  0  0  0  0  0  0  0
   -3.1341    1.7425    0.9818 C   0  0  0  0  0  0  0  0  0  0  0  0
   -2.9519    2.4383   -0.3500 C   0  0  0  0  0  0  0  0  0  0  0  0
   -2.4136    1.3156   -1.2120 C   0  0  1  0  0  0  0  0  0  0  0  0
   -0.9438    1.1570   -0.9512 C   0  0  0  0  0  0  0  0  0  0  0  0
   -0.6090    0.4529    0.3195 C   0  0  2  0  0  0  0  0  0  0  0  0
    0.5358   -0.3115    0.0973 O   0  0  0  0  0  0  0  0  0  0  0  0
    1.6325    0.1233    0.7947 C   0  0  0  0  0  0  0  0  0  0  0  0
    2.0058   -0.8728    1.6947 O   0  0  0  0  0  0  0  0  0  0  0  0
    2.8039    0.4750   -0.1340 C   0  0  0  0  0  0  0  0  0  0  0  0
    3.1591   -0.7583   -0.8896 C   0  0  0  0  0  0  0  0  0  0  0  0
    4.5639   -0.7624   -1.4375 C   0  0  0  0  0  0  0  0  0  0  0  0
    5.4823   -0.6019   -0.2419 C   0  0  0  0  0  0  0  0  0  0  0  0
    5.2763    0.8109    0.2277 C   0  0  0  0  0  0  0  0  0  0  0  0
    3.8729    1.0877    0.6782 C   0  0  0  0  0  0  0  0  0  0  0  0
   -4.1102   -2.3950   -0.3007 H   0  0  0  0  0  0  0  0  0  0  0  0
   -4.3754   -3.6212    0.9972 H   0  0  0  0  0  0  0  0  0  0  0  0
   -3.0892   -3.9245   -0.1900 H   0  0  0  0  0  0  0  0  0  0  0  0
   -1.8556   -1.8587   -0.5745 H   0  0  0  0  0  0  0  0  0  0  0  0
   -0.4270   -2.3033    1.8180 H   0  0  0  0  0  0  0  0  0  0  0  0
   -1.6369   -0.3266    2.0675 H   0  0  0  0  0  0  0  0  0  0  0  0
   -3.8492   -0.3227    1.1457 H   0  0  0  0  0  0  0  0  0  0  0  0
   -5.0746   -0.5255   -1.4635 H   0  0  0  0  0  0  0  0  0  0  0  0
   -5.1775    0.9519   -0.4794 H   0  0  0  0  0  0  0  0  0  0  0  0
   -4.5753    1.0566   -2.1808 H   0  0  0  0  0  0  0  0  0  0  0  0
   -4.0747    2.0334    1.4821 H   0  0  0  0  0  0  0  0  0  0  0  0
   -2.2410    1.9895    1.5970 H   0  0  0  0  0  0  0  0  0  0  0  0
   -3.9188    2.7858   -0.7646 H   0  0  0  0  0  0  0  0  0  0  0  0
   -2.2079    3.2573   -0.2864 H   0  0  0  0  0  0  0  0  0  0  0  0
   -2.6076    1.5974   -2.2587 H   0  0  0  0  0  0  0  0  0  0  0  0
   -0.4960    2.1767   -0.9959 H   0  0  0  0  0  0  0  0  0  0  0  0
   -0.5183    0.6175   -1.8353 H   0  0  0  0  0  0  0  0  0  0  0  0
   -0.2888    1.2534    1.0519 H   0  0  0  0  0  0  0  0  0  0  0  0
    1.3843    1.0268    1.4188 H   0  0  0  0  0  0  0  0  0  0  0  0
    2.9550   -1.0842    1.6744 H   0  0  0  0  0  0  0  0  0  0  0  0
    2.3908    1.2168   -0.8548 H   0  0  0  0  0  0  0  0  0  0  0  0
    3.0532   -1.6835   -0.2782 H   0  0  0  0  0  0  0  0  0  0  0  0
    2.4762   -0.8923   -1.7583 H   0  0  0  0  0  0  0  0  0  0  0  0
    4.7561    0.0724   -2.1349 H   0  0  0  0  0  0  0  0  0  0  0  0
    4.7553   -1.7489   -1.8858 H   0  0  0  0  0  0  0  0  0  0  0  0
    5.1315   -1.3080    0.5504 H   0  0  0  0  0  0  0  0  0  0  0  0
    6.5358   -0.7368   -0.4953 H   0  0  0  0  0  0  0  0  0  0  0  0
    5.5008    1.4792   -0.6337 H   0  0  0  0  0  0  0  0  0  0  0  0
    5.9779    1.0466    1.0599 H   0  0  0  0  0  0  0  0  0  0  0  0
    3.7602    2.2054    0.7079 H   0  0  0  0  0  0  0  0  0  0  0  0
    3.8109    0.7730    1.7500 H   0  0  0  0  0  0  0  0  0  0  0  0
  1  2  1  0
  2  3  1  0
  3  4  1  0
  3  5  1  0
  5  6  1  0
  6  7  1  0
  7  8  1  0
  6  9  1  0
  9 10  1  0
  7 11  1  0
 10 11  1  0
 11 12  1  0
  5 13  1  0
 12 13  1  0
 13 14  1  0
 14 15  1  0
 15 16  1  0
 15 17  1  0
 17 18  1  0
 18 19  1  0
 19 20  1  0
 20 21  1  0
 17 22  1  0
 21 22  1  0
  1 23  1  0
  1 24  1  0
  1 25  1  0
  3 26  1  0
  4 27  1  0
  5 28  1  1
  6 29  1  1
  8 30  1  0
  8 31  1  0
  8 32  1  0
  9 33  1  0
  9 34  1  0
 10 35  1  0
 10 36  1  0
 11 37  1  6
 12 38  1  0
 12 39  1  0
 13 40  1  1
 15 41  1  0
 16 42  1  0
 17 43  1  0
 18 44  1  0
 18 45  1  0
 19 46  1  0
 19 47  1  0
 20 48  1  0
 20 49  1  0
 21 50  1  0
 21 51  1  0
 22 52  1  0
 22 53  1  0
M  END
>  <PDBID>  (1) 
4XP4

>  <PDB ID>  (1) 
4XP4

>  <Generic Name>  (1) 
Cocaine

>  <Brand Name>  (1) 
Cocaine Hydrochloride#Cocaine Hydrochloride Top Sol 40mg/ml#Cocaine Hydrochloride Topical Sol 10%#PMS-cocaine Hydrochloride  Topical Sol 4%#PMS-cocaine Hydrochloride Topical Sol 10%

>  <DrugBank ID>  (1) 
DB00907

>  <ATC Codes>  (1) 
S01HA01#N01BC01#R02AD03#S02DA02

>  <Ligand ID>  (1) 
COC

>  <Target Name>  (1) 
Sodium-dependent noradrenaline transporter

>  <UniProt ID>  (1) 
P23975

>  <PDB ID.1>  (1) 
4XP4

>  <Seq. Identity>  (1) 
58%

$$$$
