PDB_DB05015_06
     RDKit          3D

108110  0  0  0  0  0  0  0  0999 V2000
   -6.5465    0.3118    0.1329 O   0  0  0  0  0  0  0  0  0  0  0  0
   -5.6301    0.1066    1.1565 C   0  0  0  0  0  0  0  0  0  0  0  0
   -6.0682   -0.9409    2.0625 N   0  0  0  0  0  0  0  0  0  0  0  0
   -7.2376   -0.6412    2.6331 O   0  0  0  0  0  0  0  0  0  0  0  0
   -4.2886   -0.3076    0.5577 C   0  0  0  0  0  0  0  0  0  0  0  0
   -3.8520    0.8224   -0.3393 C   0  0  0  0  0  0  0  0  0  0  0  0
   -2.5467    0.5902   -1.0156 C   0  0  0  0  0  0  0  0  0  0  0  0
   -1.3945    0.3907   -0.0888 C   0  0  0  0  0  0  0  0  0  0  0  0
   -2.6027   -0.5933   -1.9746 C   0  0  0  0  0  0  0  0  0  0  0  0
   -1.1647   -1.0297   -2.1613 C   0  0  0  0  0  0  0  0  0  0  0  0
   -0.3281    0.2320   -2.2416 C   0  0  0  0  0  0  0  0  0  0  0  0
   -0.1274    0.7555   -0.8449 C   0  0  2  0  0  0  0  0  0  0  0  0
    1.2938    0.2733   -0.1773 S   0  0  0  0  0  0  0  0  0  0  0  0
    1.3989   -1.3200   -0.1520 O   0  0  0  0  0  0  0  0  0  0  0  0
    2.2569    0.5073   -1.9599 O   0  0  0  0  0  0  0  0  0  0  0  0
    2.2026    1.0602    0.6149 N   0  0  0  0  0  0  0  0  0  0  0  0
    3.5702    0.7187    0.8175 C   0  0  0  0  0  0  0  0  0  0  0  0
    3.7315   -0.6465    1.4963 C   0  0  0  0  0  0  0  0  0  0  0  0
    5.1950   -0.7378    1.9360 C   0  0  0  0  0  0  0  0  0  0  0  0
    6.0646   -0.7170    0.6775 C   0  0  0  0  0  0  0  0  0  0  0  0
    5.8765    0.6447    0.0480 C   0  0  0  0  0  0  0  0  0  0  0  0
    4.4131    0.6974   -0.4130 C   0  0  0  0  0  0  0  0  0  0  0  0
   -6.5449    0.3067    0.1260 O   0  0  0  0  0  0  0  0  0  0  0  0
   -5.6298    0.0954    1.1497 C   0  0  0  0  0  0  0  0  0  0  0  0
   -6.0728   -0.9473    2.0576 N   0  0  0  0  0  0  0  0  0  0  0  0
   -7.2395   -0.6287    2.6227 O   0  0  0  0  0  0  0  0  0  0  0  0
   -4.2880   -0.3141    0.5492 C   0  0  0  0  0  0  0  0  0  0  0  0
   -3.8505    0.8214   -0.3400 C   0  0  0  0  0  0  0  0  0  0  0  0
   -2.5447    0.5952   -1.0170 C   0  0  0  0  0  0  0  0  0  0  0  0
   -1.3936    0.3906   -0.0878 C   0  0  0  0  0  0  0  0  0  0  0  0
   -2.6008   -0.5796   -1.9873 C   0  0  0  0  0  0  0  0  0  0  0  0
   -1.1627   -1.0177   -2.1687 C   0  0  0  0  0  0  0  0  0  0  0  0
   -0.3230    0.2440   -2.2420 C   0  0  0  0  0  0  0  0  0  0  0  0
   -0.1274    0.7600   -0.8423 C   0  0  2  0  0  0  0  0  0  0  0  0
    1.2956    0.2777   -0.1766 S   0  0  0  0  0  0  0  0  0  0  0  0
    1.3996   -1.3174   -0.1594 O   0  0  0  0  0  0  0  0  0  0  0  0
    2.2571    0.5210   -1.9597 O   0  0  0  0  0  0  0  0  0  0  0  0
    2.1994    1.0581    0.6227 N   0  0  0  0  0  0  0  0  0  0  0  0
    3.5671    0.7162    0.8271 C   0  0  0  0  0  0  0  0  0  0  0  0
    3.7254   -0.6520    1.4958 C   0  0  0  0  0  0  0  0  0  0  0  0
    5.1903   -0.7446    1.9368 C   0  0  0  0  0  0  0  0  0  0  0  0
    6.0564   -0.7218    0.6838 C   0  0  0  0  0  0  0  0  0  0  0  0
    5.8755    0.6371    0.0520 C   0  0  0  0  0  0  0  0  0  0  0  0
    4.4111    0.7025   -0.4046 C   0  0  0  0  0  0  0  0  0  0  0  0
   -7.4524   -0.0173    0.4134 H   0  0  0  0  0  0  0  0  0  0  0  0
   -5.5467    1.0446    1.7381 H   0  0  0  0  0  0  0  0  0  0  0  0
   -5.3615   -1.1555    2.7802 H   0  0  0  0  0  0  0  0  0  0  0  0
   -7.1913    0.1142    3.2561 H   0  0  0  0  0  0  0  0  0  0  0  0
   -3.5308   -0.4738    1.3296 H   0  0  0  0  0  0  0  0  0  0  0  0
   -4.4471   -1.2488    0.0061 H   0  0  0  0  0  0  0  0  0  0  0  0
   -3.8679    1.7863    0.1647 H   0  0  0  0  0  0  0  0  0  0  0  0
   -4.6321    0.8843   -1.1540 H   0  0  0  0  0  0  0  0  0  0  0  0
   -2.3267    1.5182   -1.6138 H   0  0  0  0  0  0  0  0  0  0  0  0
   -1.5083    1.1461    0.7433 H   0  0  0  0  0  0  0  0  0  0  0  0
   -1.3474   -0.5786    0.4079 H   0  0  0  0  0  0  0  0  0  0  0  0
   -2.9315   -0.1996   -2.9756 H   0  0  0  0  0  0  0  0  0  0  0  0
   -3.2435   -1.4030   -1.6296 H   0  0  0  0  0  0  0  0  0  0  0  0
   -0.8510   -1.6099   -1.2725 H   0  0  0  0  0  0  0  0  0  0  0  0
   -1.0318   -1.6661   -3.0594 H   0  0  0  0  0  0  0  0  0  0  0  0
   -0.7875    0.9858   -2.9153 H   0  0  0  0  0  0  0  0  0  0  0  0
    0.6229   -0.0682   -2.7142 H   0  0  0  0  0  0  0  0  0  0  0  0
   -0.1883    1.8847   -0.9129 H   0  0  0  0  0  0  0  0  0  0  0  0
    1.6786   -1.7939   -0.9660 H   0  0  0  0  0  0  0  0  0  0  0  0
    2.1025    1.4635   -1.9112 H   0  0  0  0  0  0  0  0  0  0  0  0
    2.0408    2.0339    0.9765 H   0  0  0  0  0  0  0  0  0  0  0  0
    4.0552    1.4451    1.5344 H   0  0  0  0  0  0  0  0  0  0  0  0
    3.5586   -1.4683    0.8005 H   0  0  0  0  0  0  0  0  0  0  0  0
    3.1270   -0.7145    2.4179 H   0  0  0  0  0  0  0  0  0  0  0  0
    5.3998   -1.6803    2.4483 H   0  0  0  0  0  0  0  0  0  0  0  0
    5.4905    0.1469    2.5204 H   0  0  0  0  0  0  0  0  0  0  0  0
    7.1027   -0.8756    0.9985 H   0  0  0  0  0  0  0  0  0  0  0  0
    5.6932   -1.4724   -0.0294 H   0  0  0  0  0  0  0  0  0  0  0  0
    6.5038    0.6673   -0.8749 H   0  0  0  0  0  0  0  0  0  0  0  0
    6.0890    1.4774    0.7348 H   0  0  0  0  0  0  0  0  0  0  0  0
    4.3340    1.5972   -1.0401 H   0  0  0  0  0  0  0  0  0  0  0  0
    4.2312   -0.2509   -0.9661 H   0  0  0  0  0  0  0  0  0  0  0  0
   -7.4488   -0.0490    0.3974 H   0  0  0  0  0  0  0  0  0  0  0  0
   -5.5368    1.0321    1.7345 H   0  0  0  0  0  0  0  0  0  0  0  0
   -5.3703   -1.1625    2.7815 H   0  0  0  0  0  0  0  0  0  0  0  0
   -7.1912    0.0991    3.2808 H   0  0  0  0  0  0  0  0  0  0  0  0
   -3.5323   -0.4879    1.3141 H   0  0  0  0  0  0  0  0  0  0  0  0
   -4.4433   -1.2549   -0.0115 H   0  0  0  0  0  0  0  0  0  0  0  0
   -3.8690    1.7826    0.1689 H   0  0  0  0  0  0  0  0  0  0  0  0
   -4.6299    0.8874   -1.1558 H   0  0  0  0  0  0  0  0  0  0  0  0
   -2.3237    1.5293   -1.6054 H   0  0  0  0  0  0  0  0  0  0  0  0
   -1.5079    1.1430    0.7469 H   0  0  0  0  0  0  0  0  0  0  0  0
   -1.3484   -0.5807    0.4036 H   0  0  0  0  0  0  0  0  0  0  0  0
   -2.9262   -0.1784   -2.9838 H   0  0  0  0  0  0  0  0  0  0  0  0
   -3.2446   -1.3909   -1.6520 H   0  0  0  0  0  0  0  0  0  0  0  0
   -0.8532   -1.6040   -1.2820 H   0  0  0  0  0  0  0  0  0  0  0  0
   -1.0284   -1.6505   -3.0680 H   0  0  0  0  0  0  0  0  0  0  0  0
   -0.7807    1.0009   -2.9132 H   0  0  0  0  0  0  0  0  0  0  0  0
    0.6258   -0.0568   -2.7185 H   0  0  0  0  0  0  0  0  0  0  0  0
   -0.1893    1.8893   -0.9072 H   0  0  0  0  0  0  0  0  0  0  0  0
    1.6975   -1.7831   -0.9709 H   0  0  0  0  0  0  0  0  0  0  0  0
    2.1026    1.4864   -1.8974 H   0  0  0  0  0  0  0  0  0  0  0  0
    2.0369    2.0282    0.9957 H   0  0  0  0  0  0  0  0  0  0  0  0
    4.0533    1.4383    1.5477 H   0  0  0  0  0  0  0  0  0  0  0  0
    3.5564   -1.4758    0.7983 H   0  0  0  0  0  0  0  0  0  0  0  0
    3.1204   -0.7239    2.4157 H   0  0  0  0  0  0  0  0  0  0  0  0
    5.3957   -1.6867    2.4548 H   0  0  0  0  0  0  0  0  0  0  0  0
    5.4807    0.1449    2.5302 H   0  0  0  0  0  0  0  0  0  0  0  0
    7.1029   -0.8771    1.0109 H   0  0  0  0  0  0  0  0  0  0  0  0
    5.6993   -1.4766   -0.0242 H   0  0  0  0  0  0  0  0  0  0  0  0
    6.4861    0.6430   -0.8825 H   0  0  0  0  0  0  0  0  0  0  0  0
    6.1114    1.4724    0.7303 H   0  0  0  0  0  0  0  0  0  0  0  0
    4.3366    1.6009   -1.0291 H   0  0  0  0  0  0  0  0  0  0  0  0
    4.2187   -0.2462   -0.9478 H   0  0  0  0  0  0  0  0  0  0  0  0
  1  2  1  0
  2  3  1  0
  3  4  1  0
  2  5  1  0
  5  6  1  0
  6  7  1  0
  7  8  1  0
  7  9  1  0
  9 10  1  0
 10 11  1  0
  8 12  1  0
 11 12  1  0
 12 13  1  0
 13 14  1  0
 13 15  1  0
 13 16  1  0
 16 17  1  0
 17 18  1  0
 18 19  1  0
 19 20  1  0
 20 21  1  0
 17 22  1  0
 21 22  1  0
 24 23  1  0
 24 25  1  0
 26 25  1  0
 24 27  1  0
 27 28  1  0
 28 29  1  0
 29 30  1  0
 29 31  1  0
 31 32  1  0
 32 33  1  0
 30 34  1  0
 33 34  1  0
 34 35  1  0
 35 36  1  0
 35 37  1  0
 35 38  1  0
 38 39  1  0
 39 40  1  0
 40 41  1  0
 41 42  1  0
 42 43  1  0
 39 44  1  0
 43 44  1  0
  1 45  1  0
  2 46  1  0
  3 47  1  0
  4 48  1  0
  5 49  1  0
  5 50  1  0
  6 51  1  0
  6 52  1  0
  7 53  1  0
  8 54  1  0
  8 55  1  0
  9 56  1  0
  9 57  1  0
 10 58  1  0
 10 59  1  0
 11 60  1  0
 11 61  1  0
 12 62  1  6
 14 63  1  0
 15 64  1  0
 16 65  1  0
 17 66  1  0
 18 67  1  0
 18 68  1  0
 19 69  1  0
 19 70  1  0
 20 71  1  0
 20 72  1  0
 21 73  1  0
 21 74  1  0
 22 75  1  0
 22 76  1  0
 23 77  1  0
 24 78  1  0
 25 79  1  0
 26 80  1  0
 27 81  1  0
 27 82  1  0
 28 83  1  0
 28 84  1  0
 29 85  1  0
 30 86  1  0
 30 87  1  0
 31 88  1  0
 31 89  1  0
 32 90  1  0
 32 91  1  0
 33 92  1  0
 33 93  1  0
 34 94  1  6
 36 95  1  0
 37 96  1  0
 38 97  1  0
 39 98  1  0
 40 99  1  0
 40100  1  0
 41101  1  0
 41102  1  0
 42103  1  0
 42104  1  0
 43105  1  0
 43106  1  0
 44107  1  0
 44108  1  0
M  END
>  <PDBID>  (1) 
5EEN

>  <PDB ID>  (1) 
5EEN

>  <Generic Name>  (1) 
Belinostat

>  <Brand Name>  (1) 
Beleodaq

>  <DrugBank ID>  (1) 
DB05015

>  <ATC Codes>  (1) 
L01XX49

>  <Ligand ID>  (1) 
5OG

>  <Target Name>  (1) 
Histone deacetylase 9

>  <UniProt ID>  (1) 
Q9UKV0

>  <PDB ID.1>  (1) 
5EEN

>  <Seq. Identity>  (1) 
46%

$$$$
