PDB_DB01409_01
     RDKit          3D

116124  0  0  0  0  0  0  0  0999 V2000
   -0.7297   -0.0437   -0.9251 C   0  0  2  0  0  0  0  0  0  0  0  0
   -1.2139   -1.2479   -1.4213 O   0  0  0  0  0  0  0  0  0  0  0  0
   -2.4578    0.2952    0.8687 C   0  0  0  0  0  0  0  0  0  0  0  0
   -2.6864    1.3163   -1.4339 C   0  0  0  0  0  0  0  0  0  0  0  0
   -3.1467   -0.9983    0.8410 C   0  0  0  0  0  0  0  0  0  0  0  0
   -3.2597   -1.4529    2.2968 C   0  0  0  0  0  0  0  0  0  0  0  0
   -1.8441   -1.5628    2.8111 C   0  0  0  0  0  0  0  0  0  0  0  0
   -3.3950    0.3363   -2.2790 C   0  0  0  0  0  0  0  0  0  0  0  0
   -4.3295    1.2151   -3.1232 C   0  0  0  0  0  0  0  0  0  0  0  0
   -5.2991    1.8400   -2.1159 C   0  0  0  0  0  0  0  0  0  0  0  0
    3.5641   -1.2623    2.8033 O   0  0  0  0  0  0  0  0  0  0  0  0
    0.2707   -0.3478   -0.0109 O   0  0  0  0  0  0  0  0  0  0  0  0
   -1.1161    1.9878    0.0998 O   0  0  0  0  0  0  0  0  0  0  0  0
   -1.1418   -0.0142    2.1146 S   0  0  0  0  0  0  0  0  0  0  0  0
   -4.0979    2.3093   -0.8046 S   0  0  0  0  0  0  0  0  0  0  0  0
    4.4619    0.4139   -0.8718 C   0  0  0  0  0  0  0  0  0  0  0  0
    3.4770   -1.3504    0.2974 C   0  0  2  0  0  0  0  0  0  0  0  0
    2.3581   -1.1509   -0.6628 C   0  0  0  0  0  0  0  0  0  0  0  0
    1.5121    0.0607   -0.4457 C   0  0  2  0  0  0  0  0  0  0  0  0
    2.1268    1.1179    0.4298 C   0  0  0  0  0  0  0  0  0  0  0  0
    3.3107    0.6721    1.2216 C   0  0  1  0  0  0  0  0  0  0  0  0
    2.8194   -0.2195    2.3262 C   0  0  1  0  0  0  0  0  0  0  0  0
    2.8575   -1.5974    1.6757 C   0  0  2  0  0  0  0  0  0  0  0  0
    5.4897   -0.3037    1.0896 C   0  0  0  0  0  0  0  0  0  0  0  0
   -1.8196    0.8235   -0.3447 C   0  0  0  0  0  0  0  0  0  0  0  0
    4.2351   -0.1179    0.4348 N   0  0  0  0  0  0  0  0  0  0  0  0
   -0.8430   -0.5864   -0.5161 C   0  0  1  0  0  0  0  0  0  0  0  0
   -1.3576   -0.5009   -1.8026 O   0  0  0  0  0  0  0  0  0  0  0  0
   -2.9737   -1.1386    0.6764 C   0  0  0  0  0  0  0  0  0  0  0  0
   -2.1362    1.2487    0.4858 C   0  0  0  0  0  0  0  0  0  0  0  0
   -3.8345   -1.3960   -0.4950 C   0  0  0  0  0  0  0  0  0  0  0  0
   -4.6317   -2.6419   -0.0606 C   0  0  0  0  0  0  0  0  0  0  0  0
   -3.5634   -3.7456   -0.0074 C   0  0  0  0  0  0  0  0  0  0  0  0
   -2.6928    1.8406   -0.7506 C   0  0  0  0  0  0  0  0  0  0  0  0
   -2.9668    3.2990   -0.3411 C   0  0  0  0  0  0  0  0  0  0  0  0
   -4.0469    3.2064    0.7468 C   0  0  0  0  0  0  0  0  0  0  0  0
    3.9245    2.5933   -0.2243 O   0  0  0  0  0  0  0  0  0  0  0  0
    0.3181    0.1499   -0.3538 O   0  0  0  0  0  0  0  0  0  0  0  0
   -1.1263   -0.3532    1.7631 O   0  0  0  0  0  0  0  0  0  0  0  0
   -2.3032   -2.8302    0.9714 S   0  0  0  0  0  0  0  0  0  0  0  0
   -3.3574    1.7977    1.7141 S   0  0  0  0  0  0  0  0  0  0  0  0
    4.3728   -1.5124    0.2373 C   0  0  0  0  0  0  0  0  0  0  0  0
    3.4098    0.5176    1.0891 C   0  0  2  0  0  0  0  0  0  0  0  0
    2.1335   -0.2793    1.2042 C   0  0  0  0  0  0  0  0  0  0  0  0
    1.4487   -0.5834   -0.0723 C   0  0  2  0  0  0  0  0  0  0  0  0
    2.3614   -0.5688   -1.2823 C   0  0  0  0  0  0  0  0  0  0  0  0
    3.5816    0.2755   -1.1178 C   0  0  1  0  0  0  0  0  0  0  0  0
    3.1637    1.7066   -0.9750 C   0  0  1  0  0  0  0  0  0  0  0  0
    3.0314    1.8743    0.5294 C   0  0  2  0  0  0  0  0  0  0  0  0
    5.6155    0.4531    0.1436 C   0  0  0  0  0  0  0  0  0  0  0  0
   -1.8453   -0.1847    0.5335 C   0  0  0  0  0  0  0  0  0  0  0  0
    4.2634   -0.0930    0.1213 N   0  0  0  0  0  0  0  0  0  0  0  0
   -0.2420    0.4638   -1.7796 H   0  0  0  0  0  0  0  0  0  0  0  0
   -0.6471   -1.5827   -2.1769 H   0  0  0  0  0  0  0  0  0  0  0  0
   -3.1572    1.0699    1.2608 H   0  0  0  0  0  0  0  0  0  0  0  0
   -2.1093    1.9971   -2.0995 H   0  0  0  0  0  0  0  0  0  0  0  0
   -4.2298   -0.8904    0.5322 H   0  0  0  0  0  0  0  0  0  0  0  0
   -2.7234   -1.8083    0.2619 H   0  0  0  0  0  0  0  0  0  0  0  0
   -3.7508   -2.4276    2.3850 H   0  0  0  0  0  0  0  0  0  0  0  0
   -3.7564   -0.6391    2.8598 H   0  0  0  0  0  0  0  0  0  0  0  0
   -1.8427   -1.4475    3.9141 H   0  0  0  0  0  0  0  0  0  0  0  0
   -1.3131   -2.4415    2.4438 H   0  0  0  0  0  0  0  0  0  0  0  0
   -2.7559   -0.1871   -3.0222 H   0  0  0  0  0  0  0  0  0  0  0  0
   -4.0010   -0.4172   -1.7905 H   0  0  0  0  0  0  0  0  0  0  0  0
   -4.8689    0.6388   -3.8762 H   0  0  0  0  0  0  0  0  0  0  0  0
   -3.7184    2.0361   -3.5305 H   0  0  0  0  0  0  0  0  0  0  0  0
   -6.0316    1.1222   -1.7559 H   0  0  0  0  0  0  0  0  0  0  0  0
   -5.6914    2.7669   -2.5375 H   0  0  0  0  0  0  0  0  0  0  0  0
   -1.8150    2.5086    0.6027 H   0  0  0  0  0  0  0  0  0  0  0  0
    3.7000    1.0959   -1.2448 H   0  0  0  0  0  0  0  0  0  0  0  0
    5.4237    1.0066   -0.8545 H   0  0  0  0  0  0  0  0  0  0  0  0
    4.6895   -0.4187   -1.6020 H   0  0  0  0  0  0  0  0  0  0  0  0
    4.0939   -2.1817   -0.0419 H   0  0  0  0  0  0  0  0  0  0  0  0
    1.7328   -2.0924   -0.6295 H   0  0  0  0  0  0  0  0  0  0  0  0
    2.8027   -1.1826   -1.7018 H   0  0  0  0  0  0  0  0  0  0  0  0
    1.3754    0.5379   -1.4432 H   0  0  0  0  0  0  0  0  0  0  0  0
    2.3249    2.0810   -0.1072 H   0  0  0  0  0  0  0  0  0  0  0  0
    1.3341    1.3965    1.1872 H   0  0  0  0  0  0  0  0  0  0  0  0
    3.8002    1.5775    1.6360 H   0  0  0  0  0  0  0  0  0  0  0  0
    1.8594    0.0708    2.7997 H   0  0  0  0  0  0  0  0  0  0  0  0
    1.9636   -2.2424    1.7269 H   0  0  0  0  0  0  0  0  0  0  0  0
    5.7548    0.5122    1.7902 H   0  0  0  0  0  0  0  0  0  0  0  0
    6.2930   -0.3324    0.3252 H   0  0  0  0  0  0  0  0  0  0  0  0
    5.5601   -1.3086    1.5966 H   0  0  0  0  0  0  0  0  0  0  0  0
   -0.5858   -1.6535   -0.3618 H   0  0  0  0  0  0  0  0  0  0  0  0
   -0.6958   -0.3334   -2.4928 H   0  0  0  0  0  0  0  0  0  0  0  0
   -3.6118   -0.9353    1.5494 H   0  0  0  0  0  0  0  0  0  0  0  0
   -1.1965    1.8254    0.7294 H   0  0  0  0  0  0  0  0  0  0  0  0
   -4.6208   -0.6425   -0.6982 H   0  0  0  0  0  0  0  0  0  0  0  0
   -3.3073   -1.7205   -1.4116 H   0  0  0  0  0  0  0  0  0  0  0  0
   -5.4279   -2.8794   -0.7688 H   0  0  0  0  0  0  0  0  0  0  0  0
   -5.0093   -2.5123    0.9759 H   0  0  0  0  0  0  0  0  0  0  0  0
   -3.9444   -4.6107    0.5280 H   0  0  0  0  0  0  0  0  0  0  0  0
   -3.2369   -3.9082   -1.0328 H   0  0  0  0  0  0  0  0  0  0  0  0
   -1.9243    1.9332   -1.5608 H   0  0  0  0  0  0  0  0  0  0  0  0
   -3.6491    1.4735   -1.1069 H   0  0  0  0  0  0  0  0  0  0  0  0
   -3.3485    3.8377   -1.2251 H   0  0  0  0  0  0  0  0  0  0  0  0
   -2.0539    3.7030    0.0911 H   0  0  0  0  0  0  0  0  0  0  0  0
   -5.0270    2.9679    0.3354 H   0  0  0  0  0  0  0  0  0  0  0  0
   -4.0047    4.1102    1.3568 H   0  0  0  0  0  0  0  0  0  0  0  0
   -1.7443    0.0242    2.4405 H   0  0  0  0  0  0  0  0  0  0  0  0
    3.4445   -2.0728    0.2258 H   0  0  0  0  0  0  0  0  0  0  0  0
    4.9701   -1.8668   -0.6500 H   0  0  0  0  0  0  0  0  0  0  0  0
    4.9655   -1.7748    1.1283 H   0  0  0  0  0  0  0  0  0  0  0  0
    3.8471    0.5843    2.0982 H   0  0  0  0  0  0  0  0  0  0  0  0
    2.4129   -1.2207    1.7634 H   0  0  0  0  0  0  0  0  0  0  0  0
    1.5061    0.2880    1.9349 H   0  0  0  0  0  0  0  0  0  0  0  0
    1.0960   -1.6577   -0.0186 H   0  0  0  0  0  0  0  0  0  0  0  0
    2.6670   -1.6090   -1.6009 H   0  0  0  0  0  0  0  0  0  0  0  0
    1.7973   -0.1751   -2.1539 H   0  0  0  0  0  0  0  0  0  0  0  0
    4.2477    0.0908   -1.9632 H   0  0  0  0  0  0  0  0  0  0  0  0
    2.3512    2.0658   -1.6101 H   0  0  0  0  0  0  0  0  0  0  0  0
    2.1498    2.3974    0.9219 H   0  0  0  0  0  0  0  0  0  0  0  0
    5.7513    1.2118   -0.6805 H   0  0  0  0  0  0  0  0  0  0  0  0
    5.8863    0.8563    1.1310 H   0  0  0  0  0  0  0  0  0  0  0  0
    6.3496   -0.3451   -0.0912 H   0  0  0  0  0  0  0  0  0  0  0  0
  1  2  1  0
  3  5  1  0
  5  6  1  0
  6  7  1  0
  4  8  1  0
  8  9  1  0
  9 10  1  0
  1 12  1  0
  3 14  1  0
  7 14  1  0
  4 15  1  0
 10 15  1  0
 17 18  1  0
 12 19  1  0
 18 19  1  0
 19 20  1  0
 20 21  1  0
 11 22  1  0
 21 22  1  0
 11 23  1  0
 17 23  1  0
 22 23  1  0
  1 25  1  0
  3 25  1  0
  4 25  1  0
 25 13  1  0
 26 16  1  0
 17 26  1  0
 21 26  1  0
 24 26  1  0
 27 28  1  0
 29 31  1  0
 31 32  1  0
 32 33  1  0
 30 34  1  0
 34 35  1  0
 35 36  1  0
 27 38  1  0
 29 40  1  0
 33 40  1  0
 30 41  1  0
 36 41  1  0
 43 44  1  0
 38 45  1  0
 44 45  1  0
 45 46  1  0
 46 47  1  0
 37 48  1  0
 47 48  1  0
 37 49  1  0
 43 49  1  0
 48 49  1  0
 27 51  1  0
 29 51  1  0
 30 51  1  0
 51 39  1  0
 52 42  1  0
 43 52  1  0
 47 52  1  0
 50 52  1  0
  1 53  1  6
  2 54  1  0
  3 55  1  0
  4 56  1  0
  5 57  1  0
  5 58  1  0
  6 59  1  0
  6 60  1  0
  7 61  1  0
  7 62  1  0
  8 63  1  0
  8 64  1  0
  9 65  1  0
  9 66  1  0
 10 67  1  0
 10 68  1  0
 13 69  1  0
 16 70  1  0
 16 71  1  0
 16 72  1  0
 17 73  1  6
 18 74  1  0
 18 75  1  0
 19 76  1  6
 20 77  1  0
 20 78  1  0
 21 79  1  1
 22 80  1  1
 23 81  1  1
 24 82  1  0
 24 83  1  0
 24 84  1  0
 27 85  1  1
 28 86  1  0
 29 87  1  0
 30 88  1  0
 31 89  1  0
 31 90  1  0
 32 91  1  0
 32 92  1  0
 33 93  1  0
 33 94  1  0
 34 95  1  0
 34 96  1  0
 35 97  1  0
 35 98  1  0
 36 99  1  0
 36100  1  0
 39101  1  0
 42102  1  0
 42103  1  0
 42104  1  0
 43105  1  1
 44106  1  0
 44107  1  0
 45108  1  1
 46109  1  0
 46110  1  0
 47111  1  6
 48112  1  6
 49113  1  6
 50114  1  0
 50115  1  0
 50116  1  0
M  CHG  2  26   1  52   1
M  END
>  <PDBID>  (1) 
4U15

>  <PDB ID>  (1) 
4U15

>  <Generic Name>  (1) 
Tiotropium

>  <Brand Name>  (1) 
Inspiolto Respimat#Spiriva#Spiriva Respimat#Stiolto Respimat

>  <DrugBank ID>  (1) 
DB01409

>  <ATC Codes>  (1) 
R03AL06#R03BB54#R03BB04

>  <Ligand ID>  (1) 
0HK

>  <Target Name>  (1) 
Muscarinic acetylcholine receptor M3

>  <UniProt ID>  (1) 
P20309

>  <PDB ID.1>  (1) 
4U15

>  <Seq. Identity>  (1) 
98%

$$$$
