PDB_DB00939_08
     RDKit          3D

 88 90  0  0  0  0  0  0  0  0999 V2000
   -4.3023   -2.0260   -0.3025 O   0  0  0  0  0  0  0  0  0  0  0  0
   -3.2088   -1.3493   -0.8501 C   0  0  0  0  0  0  0  0  0  0  0  0
   -2.4545   -2.3667   -1.4799 O   0  0  0  0  0  0  0  0  0  0  0  0
   -2.3959   -0.7650    0.2928 C   0  0  0  0  0  0  0  0  0  0  0  0
   -3.3082    0.1739    1.0675 C   0  0  0  0  0  0  0  0  0  0  0  0
   -3.8237    1.2824    0.2214 C   0  0  0  0  0  0  0  0  0  0  0  0
   -2.6563    2.0269   -0.4061 C   0  0  0  0  0  0  0  0  0  0  0  0
   -1.3443    1.4928    0.0325 C   0  0  0  0  0  0  0  0  0  0  0  0
   -1.1914    0.0037   -0.2392 C   0  0  0  0  0  0  0  0  0  0  0  0
   -0.0144   -0.4940    0.4276 N   0  0  0  0  0  0  0  0  0  0  0  0
    1.2159    0.0964    0.0579 C   0  0  0  0  0  0  0  0  0  0  0  0
    2.1152   -0.9374   -0.6025 C   0  0  0  0  0  0  0  0  0  0  0  0
    1.6756   -2.5954   -0.1604 Cl  0  0  0  0  0  0  0  0  0  0  0  0
    3.5576   -0.6963   -0.1990 C   0  0  0  0  0  0  0  0  0  0  0  0
    4.4854   -1.5360   -1.0010 C   0  0  0  0  0  0  0  0  0  0  0  0
    3.8469    0.7715   -0.4337 C   0  0  0  0  0  0  0  0  0  0  0  0
    3.1356    1.5404    0.6505 C   0  0  0  0  0  0  0  0  0  0  0  0
    1.8918    0.8710    1.1435 C   0  0  0  0  0  0  0  0  0  0  0  0
    2.1194   -0.0194    2.6456 Cl  0  0  0  0  0  0  0  0  0  0  0  0
   -2.8168    0.5688    1.9784 H   0  0  0  0  0  0  0  0  0  0  0  0
   -4.4471    1.9440    0.8878 H   0  0  0  0  0  0  0  0  0  0  0  0
   -2.7695    2.1538   -1.4947 H   0  0  0  0  0  0  0  0  0  0  0  0
   -0.5638    2.0395   -0.4989 H   0  0  0  0  0  0  0  0  0  0  0  0
   -0.1262   -0.8725    1.3566 H   0  0  0  0  0  0  0  0  0  0  0  0
    5.5102   -1.0510   -0.9315 H   0  0  0  0  0  0  0  0  0  0  0  0
    4.2109   -1.7132   -2.0408 H   0  0  0  0  0  0  0  0  0  0  0  0
    4.6458   -2.5146   -0.4638 H   0  0  0  0  0  0  0  0  0  0  0  0
    4.9388    0.9516   -0.3385 H   0  0  0  0  0  0  0  0  0  0  0  0
    2.9082    2.5528    0.2048 H   0  0  0  0  0  0  0  0  0  0  0  0
   -4.3023   -2.0260   -0.3025 O   0  0  0  0  0  0  0  0  0  0  0  0
   -3.2088   -1.3493   -0.8501 C   0  0  0  0  0  0  0  0  0  0  0  0
   -2.4545   -2.3667   -1.4799 O   0  0  0  0  0  0  0  0  0  0  0  0
   -2.3959   -0.7650    0.2928 C   0  0  0  0  0  0  0  0  0  0  0  0
   -3.3082    0.1739    1.0675 C   0  0  0  0  0  0  0  0  0  0  0  0
   -3.8237    1.2824    0.2214 C   0  0  0  0  0  0  0  0  0  0  0  0
   -2.6563    2.0269   -0.4061 C   0  0  0  0  0  0  0  0  0  0  0  0
   -1.3443    1.4928    0.0325 C   0  0  0  0  0  0  0  0  0  0  0  0
   -1.1914    0.0037   -0.2392 C   0  0  0  0  0  0  0  0  0  0  0  0
   -0.0144   -0.4940    0.4276 N   0  0  0  0  0  0  0  0  0  0  0  0
    1.2159    0.0964    0.0579 C   0  0  0  0  0  0  0  0  0  0  0  0
    2.1152   -0.9374   -0.6025 C   0  0  0  0  0  0  0  0  0  0  0  0
    1.6756   -2.5954   -0.1604 Cl  0  0  0  0  0  0  0  0  0  0  0  0
    3.5576   -0.6963   -0.1990 C   0  0  0  0  0  0  0  0  0  0  0  0
    4.4854   -1.5360   -1.0010 C   0  0  0  0  0  0  0  0  0  0  0  0
    3.8469    0.7715   -0.4337 C   0  0  0  0  0  0  0  0  0  0  0  0
    3.1356    1.5404    0.6505 C   0  0  0  0  0  0  0  0  0  0  0  0
    1.8918    0.8710    1.1435 C   0  0  0  0  0  0  0  0  0  0  0  0
    2.1194   -0.0194    2.6456 Cl  0  0  0  0  0  0  0  0  0  0  0  0
   -2.8168    0.5688    1.9784 H   0  0  0  0  0  0  0  0  0  0  0  0
   -4.4471    1.9440    0.8878 H   0  0  0  0  0  0  0  0  0  0  0  0
   -2.7695    2.1538   -1.4947 H   0  0  0  0  0  0  0  0  0  0  0  0
   -0.5638    2.0395   -0.4989 H   0  0  0  0  0  0  0  0  0  0  0  0
   -0.1262   -0.8725    1.3566 H   0  0  0  0  0  0  0  0  0  0  0  0
    5.5102   -1.0510   -0.9315 H   0  0  0  0  0  0  0  0  0  0  0  0
    4.2109   -1.7132   -2.0408 H   0  0  0  0  0  0  0  0  0  0  0  0
    4.6458   -2.5146   -0.4638 H   0  0  0  0  0  0  0  0  0  0  0  0
    4.9388    0.9516   -0.3385 H   0  0  0  0  0  0  0  0  0  0  0  0
    2.9082    2.5528    0.2048 H   0  0  0  0  0  0  0  0  0  0  0  0
   -4.0797   -2.8725    0.1270 H   0  0  0  0  0  0  0  0  0  0  0  0
   -3.5444   -0.5839   -1.5291 H   0  0  0  0  0  0  0  0  0  0  0  0
   -2.5376   -3.1426   -0.8692 H   0  0  0  0  0  0  0  0  0  0  0  0
   -2.1371   -1.5895    0.9675 H   0  0  0  0  0  0  0  0  0  0  0  0
   -4.1762   -0.4453    1.3798 H   0  0  0  0  0  0  0  0  0  0  0  0
   -4.4784    0.9579   -0.6001 H   0  0  0  0  0  0  0  0  0  0  0  0
   -2.7160    3.0738    0.0186 H   0  0  0  0  0  0  0  0  0  0  0  0
   -1.2775    1.6256    1.1511 H   0  0  0  0  0  0  0  0  0  0  0  0
   -1.1103   -0.1788   -1.3127 H   0  0  0  0  0  0  0  0  0  0  0  0
    0.9855    0.8750   -0.7403 H   0  0  0  0  0  0  0  0  0  0  0  0
    2.0421   -0.8300   -1.6851 H   0  0  0  0  0  0  0  0  0  0  0  0
    3.7442   -0.9039    0.8622 H   0  0  0  0  0  0  0  0  0  0  0  0
    3.4329    1.0588   -1.4098 H   0  0  0  0  0  0  0  0  0  0  0  0
    3.8358    1.7005    1.4884 H   0  0  0  0  0  0  0  0  0  0  0  0
    1.1827    1.7220    1.3883 H   0  0  0  0  0  0  0  0  0  0  0  0
   -4.0797   -2.8725    0.1270 H   0  0  0  0  0  0  0  0  0  0  0  0
   -3.5444   -0.5839   -1.5291 H   0  0  0  0  0  0  0  0  0  0  0  0
   -2.5376   -3.1426   -0.8692 H   0  0  0  0  0  0  0  0  0  0  0  0
   -2.1371   -1.5895    0.9675 H   0  0  0  0  0  0  0  0  0  0  0  0
   -4.1762   -0.4453    1.3798 H   0  0  0  0  0  0  0  0  0  0  0  0
   -4.4784    0.9579   -0.6001 H   0  0  0  0  0  0  0  0  0  0  0  0
   -2.7160    3.0738    0.0186 H   0  0  0  0  0  0  0  0  0  0  0  0
   -1.2775    1.6256    1.1511 H   0  0  0  0  0  0  0  0  0  0  0  0
   -1.1103   -0.1788   -1.3127 H   0  0  0  0  0  0  0  0  0  0  0  0
    0.9855    0.8750   -0.7403 H   0  0  0  0  0  0  0  0  0  0  0  0
    2.0421   -0.8300   -1.6851 H   0  0  0  0  0  0  0  0  0  0  0  0
    3.7442   -0.9039    0.8622 H   0  0  0  0  0  0  0  0  0  0  0  0
    3.4329    1.0588   -1.4098 H   0  0  0  0  0  0  0  0  0  0  0  0
    3.8358    1.7005    1.4884 H   0  0  0  0  0  0  0  0  0  0  0  0
    1.1827    1.7220    1.3883 H   0  0  0  0  0  0  0  0  0  0  0  0
  1  2  1  0
  2  3  1  0
  2  4  1  0
  4  5  1  0
  5  6  1  0
  6  7  1  0
  7  8  1  0
  4  9  1  0
  8  9  1  0
  9 10  1  0
 10 11  1  0
 11 12  1  0
 12 13  1  0
 12 14  1  0
 14 15  1  0
 14 16  1  0
 16 17  1  0
 11 18  1  0
 17 18  1  0
 18 19  1  0
  5 20  1  0
  6 21  1  0
  7 22  1  0
  8 23  1  0
 10 24  1  0
 15 25  1  0
 15 26  1  0
 15 27  1  0
 16 28  1  0
 17 29  1  0
 30 31  1  0
 31 32  1  0
 31 33  1  0
 33 34  1  0
 34 35  1  0
 35 36  1  0
 36 37  1  0
 33 38  1  0
 37 38  1  0
 38 39  1  0
 39 40  1  0
 40 41  1  0
 41 42  1  0
 41 43  1  0
 43 44  1  0
 43 45  1  0
 45 46  1  0
 40 47  1  0
 46 47  1  0
 47 48  1  0
 34 49  1  0
 35 50  1  0
 36 51  1  0
 37 52  1  0
 39 53  1  0
 44 54  1  0
 44 55  1  0
 44 56  1  0
 45 57  1  0
 46 58  1  0
  1 59  1  0
  2 60  1  0
  3 61  1  0
  4 62  1  0
  5 63  1  0
  6 64  1  0
  7 65  1  0
  8 66  1  0
  9 67  1  0
 11 68  1  0
 12 69  1  0
 14 70  1  0
 16 71  1  0
 17 72  1  0
 18 73  1  0
 30 74  1  0
 31 75  1  0
 32 76  1  0
 33 77  1  0
 34 78  1  0
 35 79  1  0
 36 80  1  0
 37 81  1  0
 38 82  1  0
 40 83  1  0
 41 84  1  0
 43 85  1  0
 45 86  1  0
 46 87  1  0
 47 88  1  0
M  END
>  <PDBID>  (1) 
5IKQ

>  <PDB ID>  (1) 
5IKQ

>  <Generic Name>  (1) 
Meclofenamic acid

>  <Brand Name>  (1) 
Meclofenamate Sodium#Ethos#Eucome#Meclomen

>  <DrugBank ID>  (1) 
DB00939

>  <ATC Codes>  (1) 
M01AG04#M02AA18

>  <Ligand ID>  (1) 
JMS

>  <Target Name>  (1) 
Prostaglandin G/H synthase 1

>  <UniProt ID>  (1) 
P23219

>  <PDB ID.1>  (1) 
5IKQ

>  <Seq. Identity>  (1) 
61%

$$$$
