PDB_DB00843_01
     RDKit          3D

142148  0  0  0  0  0  0  0  0999 V2000
   -6.0618   -0.2720   -0.0310 C   0  0  0  0  0  0  0  0  0  0  0  0
   -5.6516    1.1356    0.0438 C   0  0  0  0  0  0  0  0  0  0  0  0
   -4.2695    1.4706   -0.5102 C   0  0  0  0  0  0  0  0  0  0  0  0
   -3.4056    0.3160   -0.0919 C   0  0  0  0  0  0  0  0  0  0  0  0
   -3.8161   -0.7959   -1.0252 C   0  0  0  0  0  0  0  0  0  0  0  0
   -5.2196   -1.2335   -0.8063 C   0  0  0  0  0  0  0  0  0  0  0  0
   -2.7403   -1.7857   -0.6808 C   0  0  0  0  0  0  0  0  0  0  0  0
   -1.5174   -0.8445   -0.9791 C   0  0  1  0  0  0  0  0  0  0  0  0
   -1.9476    0.4531   -0.3477 C   0  0  0  0  0  0  0  0  0  0  0  0
   -0.3035   -1.4135   -0.3728 C   0  0  0  0  0  0  0  0  0  0  0  0
    1.0065   -0.7495   -0.5677 C   0  0  0  0  0  0  0  0  0  0  0  0
    1.0888    0.6425   -0.0457 C   0  0  0  0  0  0  0  0  0  0  0  0
    2.5199    1.1775   -0.1821 C   0  0  0  0  0  0  0  0  0  0  0  0
    3.4367    0.3985    0.6090 N   0  0  0  0  0  0  0  0  0  0  0  0
    2.8324   -0.7574    1.1759 C   0  0  0  0  0  0  0  0  0  0  0  0
    2.1115   -1.5651    0.1386 C   0  0  0  0  0  0  0  0  0  0  0  0
    4.5849    0.1385   -0.1871 C   0  0  0  0  0  0  0  0  0  0  0  0
    5.6919   -0.6338    0.4360 C   0  0  0  0  0  0  0  0  0  0  0  0
    6.2521    0.0399    1.6637 C   0  0  0  0  0  0  0  0  0  0  0  0
    6.8499    1.3774    1.3812 C   0  0  0  0  0  0  0  0  0  0  0  0
    7.5530    1.4643    0.0689 C   0  0  0  0  0  0  0  0  0  0  0  0
    7.8605    0.1724   -0.5960 C   0  0  0  0  0  0  0  0  0  0  0  0
    6.8314   -0.8901   -0.5279 C   0  0  0  0  0  0  0  0  0  0  0  0
   -2.7272   -1.9742    0.6938 O   0  0  0  0  0  0  0  0  0  0  0  0
   -7.3745   -0.3161   -0.5334 O   0  0  0  0  0  0  0  0  0  0  0  0
   -8.2761   -0.8496    0.3554 C   0  0  0  0  0  0  0  0  0  0  0  0
   -6.5834    2.0167   -0.5226 O   0  0  0  0  0  0  0  0  0  0  0  0
   -7.0676    2.9285    0.4120 C   0  0  0  0  0  0  0  0  0  0  0  0
   -6.0618   -0.2720   -0.0310 C   0  0  0  0  0  0  0  0  0  0  0  0
   -5.6516    1.1356    0.0438 C   0  0  0  0  0  0  0  0  0  0  0  0
   -4.2695    1.4706   -0.5102 C   0  0  0  0  0  0  0  0  0  0  0  0
   -3.4056    0.3160   -0.0919 C   0  0  0  0  0  0  0  0  0  0  0  0
   -3.8161   -0.7959   -1.0252 C   0  0  0  0  0  0  0  0  0  0  0  0
   -5.2196   -1.2335   -0.8063 C   0  0  0  0  0  0  0  0  0  0  0  0
   -2.7403   -1.7857   -0.6808 C   0  0  0  0  0  0  0  0  0  0  0  0
   -1.5174   -0.8445   -0.9791 C   0  0  1  0  0  0  0  0  0  0  0  0
   -1.9476    0.4531   -0.3477 C   0  0  0  0  0  0  0  0  0  0  0  0
   -0.3035   -1.4135   -0.3728 C   0  0  0  0  0  0  0  0  0  0  0  0
    1.0065   -0.7495   -0.5677 C   0  0  0  0  0  0  0  0  0  0  0  0
    1.0888    0.6425   -0.0457 C   0  0  0  0  0  0  0  0  0  0  0  0
    2.5199    1.1775   -0.1821 C   0  0  0  0  0  0  0  0  0  0  0  0
    3.4367    0.3985    0.6090 N   0  0  0  0  0  0  0  0  0  0  0  0
    2.8324   -0.7574    1.1759 C   0  0  0  0  0  0  0  0  0  0  0  0
    2.1115   -1.5651    0.1386 C   0  0  0  0  0  0  0  0  0  0  0  0
    4.5849    0.1385   -0.1871 C   0  0  0  0  0  0  0  0  0  0  0  0
    5.6919   -0.6338    0.4360 C   0  0  0  0  0  0  0  0  0  0  0  0
    6.2521    0.0399    1.6637 C   0  0  0  0  0  0  0  0  0  0  0  0
    6.8499    1.3774    1.3812 C   0  0  0  0  0  0  0  0  0  0  0  0
    7.5530    1.4643    0.0689 C   0  0  0  0  0  0  0  0  0  0  0  0
    7.8605    0.1724   -0.5960 C   0  0  0  0  0  0  0  0  0  0  0  0
    6.8314   -0.8901   -0.5279 C   0  0  0  0  0  0  0  0  0  0  0  0
   -2.7272   -1.9742    0.6938 O   0  0  0  0  0  0  0  0  0  0  0  0
   -7.3745   -0.3161   -0.5334 O   0  0  0  0  0  0  0  0  0  0  0  0
   -8.2761   -0.8496    0.3554 C   0  0  0  0  0  0  0  0  0  0  0  0
   -6.5834    2.0167   -0.5226 O   0  0  0  0  0  0  0  0  0  0  0  0
   -7.0676    2.9285    0.4120 C   0  0  0  0  0  0  0  0  0  0  0  0
   -6.1486   -0.7129    1.0073 H   0  0  0  0  0  0  0  0  0  0  0  0
   -5.5755    1.4451    1.1299 H   0  0  0  0  0  0  0  0  0  0  0  0
   -4.3203    1.5323   -1.6364 H   0  0  0  0  0  0  0  0  0  0  0  0
   -3.9392    2.4218   -0.0683 H   0  0  0  0  0  0  0  0  0  0  0  0
   -3.6459    0.0751    0.9689 H   0  0  0  0  0  0  0  0  0  0  0  0
   -3.6303   -0.4558   -2.0619 H   0  0  0  0  0  0  0  0  0  0  0  0
   -5.1959   -2.2420   -0.3410 H   0  0  0  0  0  0  0  0  0  0  0  0
   -5.6875   -1.3785   -1.8092 H   0  0  0  0  0  0  0  0  0  0  0  0
   -2.6996   -2.6822   -1.2840 H   0  0  0  0  0  0  0  0  0  0  0  0
   -1.5097   -0.7968   -2.0810 H   0  0  0  0  0  0  0  0  0  0  0  0
   -1.8280    1.2558   -1.1070 H   0  0  0  0  0  0  0  0  0  0  0  0
   -1.3964    0.6858    0.6050 H   0  0  0  0  0  0  0  0  0  0  0  0
   -0.4702   -1.6497    0.7362 H   0  0  0  0  0  0  0  0  0  0  0  0
   -0.1994   -2.4681   -0.7993 H   0  0  0  0  0  0  0  0  0  0  0  0
    1.2907   -0.7549   -1.6794 H   0  0  0  0  0  0  0  0  0  0  0  0
    0.8616    0.6555    1.0316 H   0  0  0  0  0  0  0  0  0  0  0  0
    0.4386    1.3564   -0.6007 H   0  0  0  0  0  0  0  0  0  0  0  0
    2.7904    1.1292   -1.2450 H   0  0  0  0  0  0  0  0  0  0  0  0
    2.4624    2.2473    0.1776 H   0  0  0  0  0  0  0  0  0  0  0  0
    2.1526   -0.4958    2.0207 H   0  0  0  0  0  0  0  0  0  0  0  0
    3.6029   -1.4102    1.6208 H   0  0  0  0  0  0  0  0  0  0  0  0
    1.6110   -2.4005    0.6622 H   0  0  0  0  0  0  0  0  0  0  0  0
    2.8022   -2.0246   -0.5970 H   0  0  0  0  0  0  0  0  0  0  0  0
    4.2215   -0.4608   -1.0766 H   0  0  0  0  0  0  0  0  0  0  0  0
    4.9890    1.0750   -0.6727 H   0  0  0  0  0  0  0  0  0  0  0  0
    5.3257   -1.6366    0.7313 H   0  0  0  0  0  0  0  0  0  0  0  0
    5.3865    0.2103    2.3593 H   0  0  0  0  0  0  0  0  0  0  0  0
    6.9324   -0.6622    2.1671 H   0  0  0  0  0  0  0  0  0  0  0  0
    6.0473    2.1696    1.3776 H   0  0  0  0  0  0  0  0  0  0  0  0
    7.4930    1.6473    2.2551 H   0  0  0  0  0  0  0  0  0  0  0  0
    7.0926    2.1910   -0.6462 H   0  0  0  0  0  0  0  0  0  0  0  0
    8.5586    1.9419    0.2940 H   0  0  0  0  0  0  0  0  0  0  0  0
    7.9979    0.4128   -1.6965 H   0  0  0  0  0  0  0  0  0  0  0  0
    8.8888   -0.2003   -0.3034 H   0  0  0  0  0  0  0  0  0  0  0  0
    6.4060   -1.1703   -1.5143 H   0  0  0  0  0  0  0  0  0  0  0  0
    7.3491   -1.8263   -0.1673 H   0  0  0  0  0  0  0  0  0  0  0  0
   -3.1031   -2.8496    0.9643 H   0  0  0  0  0  0  0  0  0  0  0  0
   -8.3407   -0.2840    1.3003 H   0  0  0  0  0  0  0  0  0  0  0  0
   -9.2479   -0.9846   -0.1458 H   0  0  0  0  0  0  0  0  0  0  0  0
   -7.9185   -1.8912    0.5980 H   0  0  0  0  0  0  0  0  0  0  0  0
   -7.7890    3.6119   -0.0267 H   0  0  0  0  0  0  0  0  0  0  0  0
   -7.5242    2.3027    1.2311 H   0  0  0  0  0  0  0  0  0  0  0  0
   -6.1882    3.4208    0.8726 H   0  0  0  0  0  0  0  0  0  0  0  0
   -6.1486   -0.7129    1.0073 H   0  0  0  0  0  0  0  0  0  0  0  0
   -5.5755    1.4451    1.1299 H   0  0  0  0  0  0  0  0  0  0  0  0
   -4.3203    1.5323   -1.6364 H   0  0  0  0  0  0  0  0  0  0  0  0
   -3.9392    2.4218   -0.0683 H   0  0  0  0  0  0  0  0  0  0  0  0
   -3.6459    0.0751    0.9689 H   0  0  0  0  0  0  0  0  0  0  0  0
   -3.6303   -0.4558   -2.0619 H   0  0  0  0  0  0  0  0  0  0  0  0
   -5.1959   -2.2420   -0.3410 H   0  0  0  0  0  0  0  0  0  0  0  0
   -5.6875   -1.3785   -1.8092 H   0  0  0  0  0  0  0  0  0  0  0  0
   -2.6996   -2.6822   -1.2840 H   0  0  0  0  0  0  0  0  0  0  0  0
   -1.5097   -0.7968   -2.0810 H   0  0  0  0  0  0  0  0  0  0  0  0
   -1.8280    1.2558   -1.1070 H   0  0  0  0  0  0  0  0  0  0  0  0
   -1.3964    0.6858    0.6050 H   0  0  0  0  0  0  0  0  0  0  0  0
   -0.4702   -1.6497    0.7362 H   0  0  0  0  0  0  0  0  0  0  0  0
   -0.1994   -2.4681   -0.7993 H   0  0  0  0  0  0  0  0  0  0  0  0
    1.2907   -0.7549   -1.6794 H   0  0  0  0  0  0  0  0  0  0  0  0
    0.8616    0.6555    1.0316 H   0  0  0  0  0  0  0  0  0  0  0  0
    0.4386    1.3564   -0.6007 H   0  0  0  0  0  0  0  0  0  0  0  0
    2.7904    1.1292   -1.2450 H   0  0  0  0  0  0  0  0  0  0  0  0
    2.4624    2.2473    0.1776 H   0  0  0  0  0  0  0  0  0  0  0  0
    2.1526   -0.4958    2.0207 H   0  0  0  0  0  0  0  0  0  0  0  0
    3.6029   -1.4102    1.6208 H   0  0  0  0  0  0  0  0  0  0  0  0
    1.6110   -2.4005    0.6622 H   0  0  0  0  0  0  0  0  0  0  0  0
    2.8022   -2.0246   -0.5970 H   0  0  0  0  0  0  0  0  0  0  0  0
    4.2215   -0.4608   -1.0766 H   0  0  0  0  0  0  0  0  0  0  0  0
    4.9890    1.0750   -0.6727 H   0  0  0  0  0  0  0  0  0  0  0  0
    5.3257   -1.6366    0.7313 H   0  0  0  0  0  0  0  0  0  0  0  0
    5.3865    0.2103    2.3593 H   0  0  0  0  0  0  0  0  0  0  0  0
    6.9324   -0.6622    2.1671 H   0  0  0  0  0  0  0  0  0  0  0  0
    6.0473    2.1696    1.3776 H   0  0  0  0  0  0  0  0  0  0  0  0
    7.4930    1.6473    2.2551 H   0  0  0  0  0  0  0  0  0  0  0  0
    7.0926    2.1910   -0.6462 H   0  0  0  0  0  0  0  0  0  0  0  0
    8.5586    1.9419    0.2940 H   0  0  0  0  0  0  0  0  0  0  0  0
    7.9979    0.4128   -1.6965 H   0  0  0  0  0  0  0  0  0  0  0  0
    8.8888   -0.2003   -0.3034 H   0  0  0  0  0  0  0  0  0  0  0  0
    6.4060   -1.1703   -1.5143 H   0  0  0  0  0  0  0  0  0  0  0  0
    7.3491   -1.8263   -0.1673 H   0  0  0  0  0  0  0  0  0  0  0  0
   -3.1031   -2.8496    0.9643 H   0  0  0  0  0  0  0  0  0  0  0  0
   -8.3407   -0.2840    1.3003 H   0  0  0  0  0  0  0  0  0  0  0  0
   -9.2479   -0.9846   -0.1458 H   0  0  0  0  0  0  0  0  0  0  0  0
   -7.9185   -1.8912    0.5980 H   0  0  0  0  0  0  0  0  0  0  0  0
   -7.7890    3.6119   -0.0267 H   0  0  0  0  0  0  0  0  0  0  0  0
   -7.5242    2.3027    1.2311 H   0  0  0  0  0  0  0  0  0  0  0  0
   -6.1882    3.4208    0.8726 H   0  0  0  0  0  0  0  0  0  0  0  0
  1  2  1  0
  2  3  1  0
  3  4  1  0
  4  5  1  0
  1  6  1  0
  5  6  1  0
  5  7  1  0
  7  8  1  0
  4  9  1  0
  8  9  1  0
  8 10  1  0
 10 11  1  0
 11 12  1  0
 12 13  1  0
 13 14  1  0
 14 15  1  0
 11 16  1  0
 15 16  1  0
 14 17  1  0
 17 18  1  0
 18 19  1  0
 19 20  1  0
 20 21  1  0
 21 22  1  0
 18 23  1  0
 22 23  1  0
  7 24  1  0
  1 25  1  0
 25 26  1  0
  2 27  1  0
 27 28  1  0
 29 30  1  0
 30 31  1  0
 31 32  1  0
 32 33  1  0
 29 34  1  0
 33 34  1  0
 33 35  1  0
 35 36  1  0
 32 37  1  0
 36 37  1  0
 36 38  1  0
 38 39  1  0
 39 40  1  0
 40 41  1  0
 41 42  1  0
 42 43  1  0
 39 44  1  0
 43 44  1  0
 42 45  1  0
 45 46  1  0
 46 47  1  0
 47 48  1  0
 48 49  1  0
 49 50  1  0
 46 51  1  0
 50 51  1  0
 35 52  1  0
 29 53  1  0
 53 54  1  0
 30 55  1  0
 55 56  1  0
  1 57  1  0
  2 58  1  0
  3 59  1  0
  3 60  1  0
  4 61  1  0
  5 62  1  0
  6 63  1  0
  6 64  1  0
  7 65  1  0
  8 66  1  6
  9 67  1  0
  9 68  1  0
 10 69  1  0
 10 70  1  0
 11 71  1  0
 12 72  1  0
 12 73  1  0
 13 74  1  0
 13 75  1  0
 15 76  1  0
 15 77  1  0
 16 78  1  0
 16 79  1  0
 17 80  1  0
 17 81  1  0
 18 82  1  0
 19 83  1  0
 19 84  1  0
 20 85  1  0
 20 86  1  0
 21 87  1  0
 21 88  1  0
 22 89  1  0
 22 90  1  0
 23 91  1  0
 23 92  1  0
 24 93  1  0
 26 94  1  0
 26 95  1  0
 26 96  1  0
 28 97  1  0
 28 98  1  0
 28 99  1  0
 29100  1  0
 30101  1  0
 31102  1  0
 31103  1  0
 32104  1  0
 33105  1  0
 34106  1  0
 34107  1  0
 35108  1  0
 36109  1  6
 37110  1  0
 37111  1  0
 38112  1  0
 38113  1  0
 39114  1  0
 40115  1  0
 40116  1  0
 41117  1  0
 41118  1  0
 43119  1  0
 43120  1  0
 44121  1  0
 44122  1  0
 45123  1  0
 45124  1  0
 46125  1  0
 47126  1  0
 47127  1  0
 48128  1  0
 48129  1  0
 49130  1  0
 49131  1  0
 50132  1  0
 50133  1  0
 51134  1  0
 51135  1  0
 52136  1  0
 54137  1  0
 54138  1  0
 54139  1  0
 56140  1  0
 56141  1  0
 56142  1  0
M  END
>  <PDBID>  (1) 
4EY7

>  <PDB ID>  (1) 
4EY7

>  <Generic Name>  (1) 
Donepezil

>  <Brand Name>  (1) 
Accel-donepezil#Act Donepezil#Act Donepezil ODT#Ag-donepezil#Apo-donepezil#Aricept#Aricept ODT#Aricept Rdt#Auro-donepezil#Bio-donepezil#Dom-donepezil#Donepezil#Donepezil Hydrochloride#Donepezil Hydrochloride 10 mg#Donepezil Hydrochloride 10mg#Donepezil Hydrochloride 5 mg#Donepezil Hydrochloride ODT#Donepezil Hydrochloride Tablets#Donepezil Hydrochloride Tablets USP#Donepezil Hyrochloride 5mg#Ecl-donepezil#Ipg-donepezil#Jamp-donepezil#Jamp-donepezil Tablets#Mar-donepezil#Mint-donepezil#Mylan-donepezil#Namzaric#Nat-donepezil#PMS-donepezil#Priva-donepezil#Ran-donepezil#Riva-donepezil#Sandoz Donepezil#Sandoz Donepezil ODT#Septa Donepezil#Teva-donepezil#Van-donepezil#Alzepil#Davia#Depzil#Donecept#Donecil#Donep#Donepex#Donesyn#Dopezil#Eranz#Memac#Nomi-Nox#Pezale#Redumas#Zolpezil

>  <DrugBank ID>  (1) 
DB00843

>  <ATC Codes>  (1) 
N06DA02#N06DA52#N06DA53

>  <Ligand ID>  (1) 
E20

>  <Target Name>  (1) 
Acetylcholinesterase

>  <UniProt ID>  (1) 
P22303

>  <PDB ID.1>  (1) 
4EY7

>  <Seq. Identity>  (1) 
97%

$$$$
