PDB_DB00540_01
     RDKit          3D

 55 57  0  0  0  0  0  0  0  0999 V2000
    6.2473   -0.4235    0.4754 C   0  0  0  0  0  0  0  0  0  0  0  0
    5.0712    0.2360   -0.0442 N   0  0  0  0  0  0  0  0  0  0  0  0
    3.8821   -0.5669    0.2659 C   0  0  0  0  0  0  0  0  0  0  0  0
    2.6357    0.1538   -0.2970 C   0  0  0  0  0  0  0  0  0  0  0  0
    1.4811   -0.7018    0.0472 C   0  0  0  0  0  0  0  0  0  0  0  0
    0.1216   -0.2314   -0.4094 C   0  0  0  0  0  0  0  0  0  0  0  0
   -0.8231   -1.2811    0.0553 C   0  0  0  0  0  0  0  0  0  0  0  0
   -0.6156   -2.4843   -0.8756 C   0  0  0  0  0  0  0  0  0  0  0  0
   -1.8852   -2.7560   -1.6975 C   0  0  0  0  0  0  0  0  0  0  0  0
   -2.8981   -3.2802   -0.7389 C   0  0  0  0  0  0  0  0  0  0  0  0
   -0.1590    1.1597   -0.0854 C   0  0  0  0  0  0  0  0  0  0  0  0
   -0.7940    1.8967   -1.2779 C   0  0  0  0  0  0  0  0  0  0  0  0
   -0.8752    3.3569   -0.9759 C   0  0  0  0  0  0  0  0  0  0  0  0
   -1.4592    3.6909    0.3539 C   0  0  0  0  0  0  0  0  0  0  0  0
   -0.7305    2.9405    1.4650 C   0  0  0  0  0  0  0  0  0  0  0  0
   -0.9458    1.4506    1.1616 C   0  0  0  0  0  0  0  0  0  0  0  0
   -2.4187    1.2600    1.0293 C   0  0  0  0  0  0  0  0  0  0  0  0
   -2.6884   -0.1885    1.3593 C   0  0  0  0  0  0  0  0  0  0  0  0
   -2.2573   -1.0069    0.1291 C   0  0  0  0  0  0  0  0  0  0  0  0
   -2.9590   -2.3490    0.4280 C   0  0  0  0  0  0  0  0  0  0  0  0
    6.3046   -1.4905    0.1447 H   0  0  0  0  0  0  0  0  0  0  0  0
    7.1523    0.0647    0.0445 H   0  0  0  0  0  0  0  0  0  0  0  0
    6.2599   -0.4290    1.5822 H   0  0  0  0  0  0  0  0  0  0  0  0
    5.1527    0.1999   -1.0990 H   0  0  0  0  0  0  0  0  0  0  0  0
    4.0112   -1.5266   -0.2728 H   0  0  0  0  0  0  0  0  0  0  0  0
    3.7780   -0.7674    1.3392 H   0  0  0  0  0  0  0  0  0  0  0  0
    2.6319    1.1889    0.0227 H   0  0  0  0  0  0  0  0  0  0  0  0
    2.8252    0.1634   -1.4046 H   0  0  0  0  0  0  0  0  0  0  0  0
    1.4340   -0.9484    1.1500 H   0  0  0  0  0  0  0  0  0  0  0  0
    1.6674   -1.7043   -0.4462 H   0  0  0  0  0  0  0  0  0  0  0  0
    0.1633   -0.3084   -1.5407 H   0  0  0  0  0  0  0  0  0  0  0  0
   -0.4835   -1.6269    1.0701 H   0  0  0  0  0  0  0  0  0  0  0  0
   -0.3485   -3.3893   -0.3335 H   0  0  0  0  0  0  0  0  0  0  0  0
    0.1578   -2.2975   -1.6466 H   0  0  0  0  0  0  0  0  0  0  0  0
   -2.2261   -1.8736   -2.2381 H   0  0  0  0  0  0  0  0  0  0  0  0
   -1.5978   -3.5965   -2.3752 H   0  0  0  0  0  0  0  0  0  0  0  0
   -3.9164   -3.3741   -1.1622 H   0  0  0  0  0  0  0  0  0  0  0  0
   -2.5906   -4.2807   -0.3663 H   0  0  0  0  0  0  0  0  0  0  0  0
    0.7857    1.7247    0.0578 H   0  0  0  0  0  0  0  0  0  0  0  0
   -0.0314    1.7842   -2.1040 H   0  0  0  0  0  0  0  0  0  0  0  0
   -1.7019    1.4361   -1.6436 H   0  0  0  0  0  0  0  0  0  0  0  0
   -1.4285    3.8913   -1.7506 H   0  0  0  0  0  0  0  0  0  0  0  0
    0.1839    3.7479   -0.9797 H   0  0  0  0  0  0  0  0  0  0  0  0
   -1.3778    4.7886    0.4955 H   0  0  0  0  0  0  0  0  0  0  0  0
   -2.5324    3.4539    0.3481 H   0  0  0  0  0  0  0  0  0  0  0  0
   -1.2477    3.1356    2.4122 H   0  0  0  0  0  0  0  0  0  0  0  0
    0.3280    3.1986    1.4491 H   0  0  0  0  0  0  0  0  0  0  0  0
   -0.5323    0.8726    1.9856 H   0  0  0  0  0  0  0  0  0  0  0  0
   -2.8398    1.4609    0.0453 H   0  0  0  0  0  0  0  0  0  0  0  0
   -2.9685    1.9399    1.7446 H   0  0  0  0  0  0  0  0  0  0  0  0
   -3.7337   -0.3851    1.6292 H   0  0  0  0  0  0  0  0  0  0  0  0
   -2.0366   -0.5408    2.1870 H   0  0  0  0  0  0  0  0  0  0  0  0
   -2.6976   -0.5418   -0.7692 H   0  0  0  0  0  0  0  0  0  0  0  0
   -4.0061   -2.1029    0.7150 H   0  0  0  0  0  0  0  0  0  0  0  0
   -2.4686   -2.7428    1.3412 H   0  0  0  0  0  0  0  0  0  0  0  0
  1  2  1  0
  2  3  1  0
  3  4  1  0
  4  5  1  0
  5  6  1  0
  6  7  1  0
  7  8  1  0
  8  9  1  0
  9 10  1  0
  6 11  1  0
 11 12  1  0
 12 13  1  0
 13 14  1  0
 14 15  1  0
 11 16  1  0
 15 16  1  0
 16 17  1  0
 17 18  1  0
  7 19  1  0
 18 19  1  0
 10 20  1  0
 19 20  1  0
  1 21  1  0
  1 22  1  0
  1 23  1  0
  2 24  1  0
  3 25  1  0
  3 26  1  0
  4 27  1  0
  4 28  1  0
  5 29  1  0
  5 30  1  0
  6 31  1  0
  7 32  1  0
  8 33  1  0
  8 34  1  0
  9 35  1  0
  9 36  1  0
 10 37  1  0
 10 38  1  0
 11 39  1  0
 12 40  1  0
 12 41  1  0
 13 42  1  0
 13 43  1  0
 14 44  1  0
 14 45  1  0
 15 46  1  0
 15 47  1  0
 16 48  1  0
 17 49  1  0
 17 50  1  0
 18 51  1  0
 18 52  1  0
 19 53  1  0
 20 54  1  0
 20 55  1  0
M  END
>  <PDBID>  (1) 
4M48

>  <PDB ID>  (1) 
4M48

>  <Generic Name>  (1) 
Nortriptyline

>  <Brand Name>  (1) 
Apo-nortriptyline - Cap 10mg#Apo-nortriptyline - Cap 25mg#Ava-nortriptyline#Aventyl#Dom-nortriptyline 10mg Capsules#Dom-nortriptyline 25mg Capsules#Gen-nortriptyline Capsules 10mg#Gen-nortriptyline Capsules 25mg#Nortriptyline#Nortriptyline Hydrochloride#Nortriptyline-10#Nortriptyline-25#Norventyl#Nu-nortriptyline - Cap 10mg#Nu-nortriptyline - Cap 25mg#PMS-nortriptyline#Pamelor#Ratio-nortriptyline#Teva-nortriptyline#Allegron#Noritren#Norpress#Nortrilen#Sensoval

>  <DrugBank ID>  (1) 
DB00540

>  <ATC Codes>  (1) 
N06AA10

>  <Ligand ID>  (1) 
21B

>  <Target Name>  (1) 
Sodium-dependent noradrenaline transporter

>  <UniProt ID>  (1) 
P23975

>  <PDB ID.1>  (1) 
4M48

>  <Seq. Identity>  (1) 
57%

$$$$
