PDB_DB00530_04
     RDKit          3D

 72 74  0  0  0  0  0  0  0  0999 V2000
    6.8554    0.3556   -0.5340 C   0  0  0  0  0  0  0  0  0  0  0  0
    6.4382    0.0805   -1.9371 C   0  0  0  0  0  0  0  0  0  0  0  0
    5.0054   -0.3912   -2.0849 C   0  0  0  0  0  0  0  0  0  0  0  0
    4.0114    0.5839   -1.5799 C   0  0  0  0  0  0  0  0  0  0  0  0
    2.9462   -0.0548   -0.6817 C   0  0  0  0  0  0  0  0  0  0  0  0
    2.1788    1.0119   -0.1621 N   0  0  0  0  0  0  0  0  0  0  0  0
    1.2133    0.6910    0.8342 C   0  0  0  0  0  0  0  0  0  0  0  0
    0.1350   -0.2478    0.3397 C   0  0  0  0  0  0  0  0  0  0  0  0
   -0.9448    0.5263   -0.3420 C   0  0  0  0  0  0  0  0  0  0  0  0
   -2.2684    0.5188    0.3575 C   0  0  0  0  0  0  0  0  0  0  0  0
   -2.2320    1.3828    1.4299 O   0  0  0  0  0  0  0  0  0  0  0  0
   -3.0674    2.4480    1.4274 C   0  0  0  0  0  0  0  0  0  0  0  0
   -2.8847    3.4791    0.3649 C   0  0  0  0  0  0  0  0  0  0  0  0
   -3.0273    3.0014   -0.9188 O   0  0  0  0  0  0  0  0  0  0  0  0
   -2.8357    4.0414   -1.8142 C   0  0  0  0  0  0  0  0  0  0  0  0
   -2.6766   -0.8314    0.8791 C   0  0  0  0  0  0  0  0  0  0  0  0
   -3.6323   -1.3694   -0.0156 O   0  0  0  0  0  0  0  0  0  0  0  0
   -4.8722   -1.5287    0.5507 C   0  0  0  0  0  0  0  0  0  0  0  0
   -5.7690   -2.1120   -0.5440 C   0  0  0  0  0  0  0  0  0  0  0  0
   -7.0659   -2.3192   -0.0855 O   0  0  0  0  0  0  0  0  0  0  0  0
   -7.7863   -2.8483   -1.1607 C   0  0  0  0  0  0  0  0  0  0  0  0
   -1.5672   -1.7840    1.1343 C   0  0  0  0  0  0  0  0  0  0  0  0
   -0.3491   -1.0338    1.5322 C   0  0  0  0  0  0  0  0  0  0  0  0
   -0.4818   -0.1973    2.6802 N   0  0  0  0  0  0  0  0  0  0  0  0
    0.8574    0.1442    3.1412 C   0  0  0  0  0  0  0  0  0  0  0  0
    1.7980    0.2826    2.0805 N   0  0  0  0  0  0  0  0  0  0  0  0
    3.5609   -0.9300    0.3671 C   0  0  0  0  0  0  0  0  0  0  0  0
    4.6090   -1.8580   -0.1637 C   0  0  0  0  0  0  0  0  0  0  0  0
    4.8432   -1.7972   -1.6289 C   0  0  0  0  0  0  0  0  0  0  0  0
    6.0054    0.6543    0.1303 H   0  0  0  0  0  0  0  0  0  0  0  0
    7.4989   -0.4296   -0.0852 H   0  0  0  0  0  0  0  0  0  0  0  0
    7.5217    1.2685   -0.5446 H   0  0  0  0  0  0  0  0  0  0  0  0
    7.1525   -0.6877   -2.3426 H   0  0  0  0  0  0  0  0  0  0  0  0
    6.6370    0.9827   -2.5522 H   0  0  0  0  0  0  0  0  0  0  0  0
    4.8539   -0.4316   -3.2128 H   0  0  0  0  0  0  0  0  0  0  0  0
    4.4824    1.4234   -0.9862 H   0  0  0  0  0  0  0  0  0  0  0  0
    3.4402    1.1056   -2.3765 H   0  0  0  0  0  0  0  0  0  0  0  0
    2.3506   -0.7024   -1.3516 H   0  0  0  0  0  0  0  0  0  0  0  0
    2.6353    1.9214   -0.0866 H   0  0  0  0  0  0  0  0  0  0  0  0
    0.6750    1.6608    1.0627 H   0  0  0  0  0  0  0  0  0  0  0  0
    0.5875   -0.9832   -0.3585 H   0  0  0  0  0  0  0  0  0  0  0  0
   -1.0856    0.1125   -1.3606 H   0  0  0  0  0  0  0  0  0  0  0  0
   -0.6160    1.5757   -0.4811 H   0  0  0  0  0  0  0  0  0  0  0  0
   -3.0566    0.8613   -0.3347 H   0  0  0  0  0  0  0  0  0  0  0  0
   -4.1490    2.1565    1.3963 H   0  0  0  0  0  0  0  0  0  0  0  0
   -2.9620    2.9924    2.4057 H   0  0  0  0  0  0  0  0  0  0  0  0
   -3.6853    4.2726    0.4781 H   0  0  0  0  0  0  0  0  0  0  0  0
   -1.9228    4.0181    0.5194 H   0  0  0  0  0  0  0  0  0  0  0  0
   -3.5819    4.8417   -1.6345 H   0  0  0  0  0  0  0  0  0  0  0  0
   -2.9809    3.6641   -2.8528 H   0  0  0  0  0  0  0  0  0  0  0  0
   -1.8260    4.4767   -1.7447 H   0  0  0  0  0  0  0  0  0  0  0  0
   -3.2464   -0.6896    1.8370 H   0  0  0  0  0  0  0  0  0  0  0  0
   -4.8823   -2.1538    1.4503 H   0  0  0  0  0  0  0  0  0  0  0  0
   -5.2596   -0.5290    0.8353 H   0  0  0  0  0  0  0  0  0  0  0  0
   -5.7260   -1.4394   -1.4176 H   0  0  0  0  0  0  0  0  0  0  0  0
   -5.3860   -3.0995   -0.8659 H   0  0  0  0  0  0  0  0  0  0  0  0
   -8.8343   -3.0361   -0.8545 H   0  0  0  0  0  0  0  0  0  0  0  0
   -7.7148   -2.1499   -2.0382 H   0  0  0  0  0  0  0  0  0  0  0  0
   -7.3121   -3.8055   -1.4880 H   0  0  0  0  0  0  0  0  0  0  0  0
   -1.3179   -2.3696    0.2212 H   0  0  0  0  0  0  0  0  0  0  0  0
   -1.8708   -2.4665    1.9719 H   0  0  0  0  0  0  0  0  0  0  0  0
    0.4486   -1.7842    1.7600 H   0  0  0  0  0  0  0  0  0  0  0  0
   -0.9617   -0.6567    3.4716 H   0  0  0  0  0  0  0  0  0  0  0  0
    0.8372    1.0015    3.8469 H   0  0  0  0  0  0  0  0  0  0  0  0
    1.1958   -0.7396    3.7575 H   0  0  0  0  0  0  0  0  0  0  0  0
    2.4513    1.0722    2.3628 H   0  0  0  0  0  0  0  0  0  0  0  0
    4.0160   -0.2516    1.1179 H   0  0  0  0  0  0  0  0  0  0  0  0
    2.7524   -1.5574    0.7966 H   0  0  0  0  0  0  0  0  0  0  0  0
    5.5603   -1.7177    0.4000 H   0  0  0  0  0  0  0  0  0  0  0  0
    4.3533   -2.9426    0.0559 H   0  0  0  0  0  0  0  0  0  0  0  0
    4.0966   -2.3727   -2.2145 H   0  0  0  0  0  0  0  0  0  0  0  0
    5.8343   -2.3103   -1.8151 H   0  0  0  0  0  0  0  0  0  0  0  0
  1  2  1  0
  2  3  1  0
  3  4  1  0
  4  5  1  0
  5  6  1  0
  6  7  1  0
  7  8  1  0
  8  9  1  0
  9 10  1  0
 10 11  1  0
 11 12  1  0
 12 13  1  0
 13 14  1  0
 14 15  1  0
 10 16  1  0
 16 17  1  0
 17 18  1  0
 18 19  1  0
 19 20  1  0
 20 21  1  0
 16 22  1  0
  8 23  1  0
 22 23  1  0
 23 24  1  0
 24 25  1  0
  7 26  1  0
 25 26  1  0
  5 27  1  0
 27 28  1  0
  3 29  1  0
 28 29  1  0
  1 30  1  0
  1 31  1  0
  1 32  1  0
  2 33  1  0
  2 34  1  0
  3 35  1  0
  4 36  1  0
  4 37  1  0
  5 38  1  0
  6 39  1  0
  7 40  1  0
  8 41  1  0
  9 42  1  0
  9 43  1  0
 10 44  1  0
 12 45  1  0
 12 46  1  0
 13 47  1  0
 13 48  1  0
 15 49  1  0
 15 50  1  0
 15 51  1  0
 16 52  1  0
 18 53  1  0
 18 54  1  0
 19 55  1  0
 19 56  1  0
 21 57  1  0
 21 58  1  0
 21 59  1  0
 22 60  1  0
 22 61  1  0
 23 62  1  0
 24 63  1  0
 25 64  1  0
 25 65  1  0
 26 66  1  0
 27 67  1  0
 27 68  1  0
 28 69  1  0
 28 70  1  0
 29 71  1  0
 29 72  1  0
M  END
>  <PDBID>  (1) 
1M17

>  <PDB ID>  (1) 
1M17

>  <Generic Name>  (1) 
Erlotinib

>  <Brand Name>  (1) 
PMS-erlotinib#Tarceva#Teva-erlotinib

>  <DrugBank ID>  (1) 
DB00530

>  <ATC Codes>  (1) 
L01XE03

>  <Ligand ID>  (1) 
AQ4

>  <Target Name>  (1) 
Epidermal growth factor receptor

>  <UniProt ID>  (1) 
P00533

>  <PDB ID.1>  (1) 
1M17

>  <Seq. Identity>  (1) 
96%

$$$$
