PDB_DB01263_01
     RDKit          3D

119125  0  0  0  0  0  0  0  0999 V2000
   10.0851   -1.7227   -1.0878 C   0  0  0  0  0  0  0  0  0  0  0  0
   13.0317   -1.2508    0.5830 C   0  0  0  0  0  0  0  0  0  0  0  0
    8.3455    0.1371    1.9894 O   0  0  0  0  0  0  0  0  0  0  0  0
   12.8873    1.0749    0.5727 O   0  0  0  0  0  0  0  0  0  0  0  0
   -8.0915   -2.7333   -2.4281 F   0  0  0  0  0  0  0  0  0  0  0  0
  -10.9588   -4.8257    0.7048 F   0  0  0  0  0  0  0  0  0  0  0  0
   -9.5519   -3.8315   -0.9706 C   0  0  0  0  0  0  0  0  0  0  0  0
   -1.9851   -0.4969    1.8597 C   0  0  0  0  0  0  0  0  0  0  0  0
   -2.1426   -1.1663   -0.4347 C   0  0  0  0  0  0  0  0  0  0  0  0
   -1.2496    0.7689    1.5598 C   0  0  0  0  0  0  0  0  0  0  0  0
   -1.4429    0.0673   -0.8795 C   0  0  0  0  0  0  0  0  0  0  0  0
    5.1726    0.8804   -2.0636 C   0  0  0  0  0  0  0  0  0  0  0  0
    5.0199   -0.5091   -0.1416 C   0  0  0  0  0  0  0  0  0  0  0  0
    6.4231    1.5621   -1.5734 C   0  0  0  0  0  0  0  0  0  0  0  0
    6.3521   -0.0530    0.3587 C   0  0  0  0  0  0  0  0  0  0  0  0
  -10.1270   -3.7591    0.4265 C   0  0  0  0  0  0  0  0  0  0  0  0
  -10.7704    3.2813    0.4959 C   0  0  0  0  0  0  0  0  0  0  0  0
   -9.1666   -1.3570   -0.9099 C   0  0  1  0  0  0  0  0  0  0  0  0
   -8.9874    2.0210    1.2507 C   0  0  0  0  0  0  0  0  0  0  0  0
    8.8624    2.5181   -0.5419 C   0  0  0  0  0  0  0  0  0  0  0  0
   10.2396   -1.4991    0.4069 C   0  0  0  0  0  0  0  0  0  0  0  0
   -7.2661   -0.6290    0.5768 C   0  0  0  0  0  0  0  0  0  0  0  0
    1.3289   -0.2544    0.3802 C   0  0  0  0  0  0  0  0  0  0  0  0
    1.1797    1.8195   -0.8856 C   0  0  0  0  0  0  0  0  0  0  0  0
    2.2656   -0.7889   -0.6948 C   0  0  0  0  0  0  0  0  0  0  0  0
    2.1820    1.2576   -1.8524 C   0  0  0  0  0  0  0  0  0  0  0  0
   -5.0002    0.3420    0.8740 C   0  0  0  0  0  0  0  0  0  0  0  0
   -8.4722    1.0380   -0.9205 C   0  0  0  0  0  0  0  0  0  0  0  0
   -9.8130    3.1974    1.5879 N   0  0  0  0  0  0  0  0  0  0  0  0
   -9.9912    2.7497   -0.6194 N   0  0  0  0  0  0  0  0  0  0  0  0
   10.0111    1.6109   -0.6503 N   0  0  0  0  0  0  0  0  0  0  0  0
   -3.6903    0.3291    0.5186 O   0  0  0  0  0  0  0  0  0  0  0  0
   -7.1176   -0.6571   -1.7306 O   0  0  0  0  0  0  0  0  0  0  0  0
   -8.5601   -2.6958   -1.1049 C   0  0  0  0  0  0  0  0  0  0  0  0
  -10.1191   -1.2618    0.2565 C   0  0  0  0  0  0  0  0  0  0  0  0
   -2.9953   -0.8278    0.7484 C   0  0  0  0  0  0  0  0  0  0  0  0
   -0.7991    0.9134    0.1417 C   0  0  0  0  0  0  0  0  0  0  0  0
    4.2756    0.5774   -0.8396 C   0  0  0  0  0  0  0  0  0  0  0  0
    7.1955    0.7641   -0.5417 C   0  0  0  0  0  0  0  0  0  0  0  0
  -10.9346   -2.4809    0.5051 C   0  0  0  0  0  0  0  0  0  0  0  0
    8.8556    1.1526    1.2040 C   0  0  0  0  0  0  0  0  0  0  0  0
   12.2419   -0.0599    0.0724 C   0  0  2  0  0  0  0  0  0  0  0  0
   10.8655   -0.1619    0.7032 C   0  0  1  0  0  0  0  0  0  0  0  0
    0.6237    0.8836    0.0076 N   0  0  0  0  0  0  0  0  0  0  0  0
    3.0009    0.2378   -1.3242 N   0  0  0  0  0  0  0  0  0  0  0  0
   -9.3899    1.6338   -0.0518 N   0  0  0  0  0  0  0  0  0  0  0  0
    7.9393    1.7289    0.2567 N   0  0  0  0  0  0  0  0  0  0  0  0
   10.0164    0.8909    0.4918 N   0  0  0  0  0  0  0  0  0  0  0  0
   -8.0131   -0.3540   -0.6618 C   0  0  2  0  0  0  0  0  0  0  0  0
   -5.8830   -0.2188   -1.3308 C   0  0  0  0  0  0  0  0  0  0  0  0
   -5.7989   -0.6657    0.1152 C   0  0  2  0  0  0  0  0  0  0  0  0
    9.0326   -1.9882   -1.3665 H   0  0  0  0  0  0  0  0  0  0  0  0
   10.3212   -0.7819   -1.6287 H   0  0  0  0  0  0  0  0  0  0  0  0
   10.7621   -2.5537   -1.3643 H   0  0  0  0  0  0  0  0  0  0  0  0
   14.1053   -0.9313    0.7226 H   0  0  0  0  0  0  0  0  0  0  0  0
   12.6962   -1.6034    1.5593 H   0  0  0  0  0  0  0  0  0  0  0  0
   13.0865   -2.0406   -0.1995 H   0  0  0  0  0  0  0  0  0  0  0  0
    8.7794    0.0872    2.8770 H   0  0  0  0  0  0  0  0  0  0  0  0
   12.3824    1.5165    1.2841 H   0  0  0  0  0  0  0  0  0  0  0  0
  -10.3797   -3.7419   -1.7220 H   0  0  0  0  0  0  0  0  0  0  0  0
   -9.0214   -4.7773   -1.0982 H   0  0  0  0  0  0  0  0  0  0  0  0
   -1.3583   -1.3976    1.9704 H   0  0  0  0  0  0  0  0  0  0  0  0
   -2.5796   -0.4051    2.7860 H   0  0  0  0  0  0  0  0  0  0  0  0
   -1.4409   -2.0096   -0.2289 H   0  0  0  0  0  0  0  0  0  0  0  0
   -2.8060   -1.4987   -1.2648 H   0  0  0  0  0  0  0  0  0  0  0  0
   -1.8809    1.6214    1.9171 H   0  0  0  0  0  0  0  0  0  0  0  0
   -0.3455    0.7882    2.2043 H   0  0  0  0  0  0  0  0  0  0  0  0
   -0.6750   -0.2598   -1.6443 H   0  0  0  0  0  0  0  0  0  0  0  0
   -2.1803    0.6422   -1.5217 H   0  0  0  0  0  0  0  0  0  0  0  0
    4.6807    1.5295   -2.7826 H   0  0  0  0  0  0  0  0  0  0  0  0
    5.3612   -0.1033   -2.5407 H   0  0  0  0  0  0  0  0  0  0  0  0
    4.4752   -0.9366    0.7267 H   0  0  0  0  0  0  0  0  0  0  0  0
    5.1429   -1.3497   -0.8652 H   0  0  0  0  0  0  0  0  0  0  0  0
    6.1211    2.5094   -1.1109 H   0  0  0  0  0  0  0  0  0  0  0  0
    7.0759    1.7004   -2.4609 H   0  0  0  0  0  0  0  0  0  0  0  0
    6.8959   -1.0151    0.6105 H   0  0  0  0  0  0  0  0  0  0  0  0
    6.2110    0.4898    1.3377 H   0  0  0  0  0  0  0  0  0  0  0  0
   -9.2747   -3.6979    1.1352 H   0  0  0  0  0  0  0  0  0  0  0  0
  -11.0811    4.3233    0.2878 H   0  0  0  0  0  0  0  0  0  0  0  0
  -11.6257    2.5956    0.6450 H   0  0  0  0  0  0  0  0  0  0  0  0
   -9.6648   -1.0133   -1.8295 H   0  0  0  0  0  0  0  0  0  0  0  0
   -7.9111    2.3399    1.3032 H   0  0  0  0  0  0  0  0  0  0  0  0
   -9.2403    1.2778    2.0342 H   0  0  0  0  0  0  0  0  0  0  0  0
    9.1480    3.4039    0.0875 H   0  0  0  0  0  0  0  0  0  0  0  0
    8.4784    2.8380   -1.5099 H   0  0  0  0  0  0  0  0  0  0  0  0
   10.8376   -2.3187    0.8671 H   0  0  0  0  0  0  0  0  0  0  0  0
    9.2428   -1.5627    0.8573 H   0  0  0  0  0  0  0  0  0  0  0  0
   -7.4534   -1.6464    1.0063 H   0  0  0  0  0  0  0  0  0  0  0  0
   -7.3532    0.0851    1.4016 H   0  0  0  0  0  0  0  0  0  0  0  0
    1.9155   -0.0098    1.3174 H   0  0  0  0  0  0  0  0  0  0  0  0
    0.6740   -1.0983    0.6687 H   0  0  0  0  0  0  0  0  0  0  0  0
    0.3739    2.2690   -1.4973 H   0  0  0  0  0  0  0  0  0  0  0  0
    1.6305    2.6609   -0.3276 H   0  0  0  0  0  0  0  0  0  0  0  0
    2.8702   -1.6304   -0.3144 H   0  0  0  0  0  0  0  0  0  0  0  0
    1.5876   -1.2538   -1.4690 H   0  0  0  0  0  0  0  0  0  0  0  0
    2.8015    2.0922   -2.2282 H   0  0  0  0  0  0  0  0  0  0  0  0
    1.6660    0.8325   -2.7703 H   0  0  0  0  0  0  0  0  0  0  0  0
   -5.3767    1.3891    0.7072 H   0  0  0  0  0  0  0  0  0  0  0  0
   -5.1831    0.1454    1.9559 H   0  0  0  0  0  0  0  0  0  0  0  0
   -8.8293    1.0457   -2.0029 H   0  0  0  0  0  0  0  0  0  0  0  0
   -7.5450    1.6708   -0.9373 H   0  0  0  0  0  0  0  0  0  0  0  0
   -9.2279    4.0659    1.5124 H   0  0  0  0  0  0  0  0  0  0  0  0
   -9.2708    3.4643   -0.8455 H   0  0  0  0  0  0  0  0  0  0  0  0
   10.8208    2.1925   -0.8795 H   0  0  0  0  0  0  0  0  0  0  0  0
   -7.6995   -2.9529   -0.4745 H   0  0  0  0  0  0  0  0  0  0  0  0
   -9.6431   -0.9401    1.2041 H   0  0  0  0  0  0  0  0  0  0  0  0
  -10.8380   -0.4411    0.0028 H   0  0  0  0  0  0  0  0  0  0  0  0
   -3.5878   -1.6673    1.1614 H   0  0  0  0  0  0  0  0  0  0  0  0
   -1.0646    1.9885   -0.1305 H   0  0  0  0  0  0  0  0  0  0  0  0
    4.2672    1.5326   -0.2517 H   0  0  0  0  0  0  0  0  0  0  0  0
    7.9087    0.1391   -1.0952 H   0  0  0  0  0  0  0  0  0  0  0  0
  -11.7461   -2.5232   -0.2422 H   0  0  0  0  0  0  0  0  0  0  0  0
  -11.3471   -2.4054    1.5424 H   0  0  0  0  0  0  0  0  0  0  0  0
    9.0035    2.0096    1.9681 H   0  0  0  0  0  0  0  0  0  0  0  0
   12.2409   -0.1136   -1.0125 H   0  0  0  0  0  0  0  0  0  0  0  0
   11.0999   -0.2149    1.8189 H   0  0  0  0  0  0  0  0  0  0  0  0
   -5.7217    0.8736   -1.4223 H   0  0  0  0  0  0  0  0  0  0  0  0
   -5.0743   -0.7612   -1.8681 H   0  0  0  0  0  0  0  0  0  0  0  0
   -5.3532   -1.6523    0.2146 H   0  0  0  0  0  0  0  0  0  0  0  0
  8 10  1  0
  9 11  1  0
 12 14  1  0
 13 15  1  0
  6 16  1  0
  7 16  1  0
  1 21  1  0
 23 25  1  0
 24 26  1  0
 17 29  1  0
 19 29  1  0
 17 30  1  0
 20 31  1  0
 27 32  1  0
  5 34  1  0
  7 34  1  0
 18 34  1  0
 18 35  1  0
  8 36  1  0
  9 36  1  0
 32 36  1  0
 10 37  1  0
 11 37  1  0
 12 38  1  0
 13 38  1  0
 14 39  1  0
 15 39  1  0
 16 40  1  0
 35 40  1  0
  3 41  1  0
  2 42  1  0
  4 42  1  0
 21 43  1  0
 42 43  1  0
 23 44  1  0
 24 44  1  0
 37 44  1  0
 25 45  1  0
 26 45  1  0
 38 45  1  0
 19 46  1  0
 28 46  1  0
 30 46  1  0
 20 47  1  0
 39 47  1  0
 41 47  1  0
 31 48  1  0
 41 48  1  0
 43 48  1  0
 18 49  1  0
 22 49  1  0
 49 28  1  1
 33 49  1  0
 33 50  1  0
 22 51  1  0
 27 51  1  0
 50 51  1  0
  1 52  1  0
  1 53  1  0
  1 54  1  0
  2 55  1  0
  2 56  1  0
  2 57  1  0
  3 58  1  0
  4 59  1  0
  7 60  1  0
  7 61  1  0
  8 62  1  0
  8 63  1  0
  9 64  1  0
  9 65  1  0
 10 66  1  0
 10 67  1  0
 11 68  1  0
 11 69  1  0
 12 70  1  0
 12 71  1  0
 13 72  1  0
 13 73  1  0
 14 74  1  0
 14 75  1  0
 15 76  1  0
 15 77  1  0
 16 78  1  0
 17 79  1  0
 17 80  1  0
 18 81  1  6
 19 82  1  0
 19 83  1  0
 20 84  1  0
 20 85  1  0
 21 86  1  0
 21 87  1  0
 22 88  1  0
 22 89  1  0
 23 90  1  0
 23 91  1  0
 24 92  1  0
 24 93  1  0
 25 94  1  0
 25 95  1  0
 26 96  1  0
 26 97  1  0
 27 98  1  0
 27 99  1  0
 28100  1  0
 28101  1  0
 29102  1  0
 30103  1  0
 31104  1  0
 34105  1  0
 35106  1  0
 35107  1  0
 36108  1  0
 37109  1  0
 38110  1  0
 39111  1  0
 40112  1  0
 40113  1  0
 41114  1  0
 42115  1  6
 43116  1  1
 50117  1  0
 50118  1  0
 51119  1  6
M  END
>  <PDBID>  (1) 
4ZE1

>  <PDB ID>  (1) 
4ZE1

>  <Generic Name>  (1) 
Posaconazole

>  <Brand Name>  (1) 
Noxafil#Posanol

>  <DrugBank ID>  (1) 
DB01263

>  <ATC Codes>  (1) 
J02AC04

>  <Ligand ID>  (1) 
X2N

>  <Target Name>  (1) 
Lanosterol 14-alpha demethylase

>  <UniProt ID>  (1) 
P10613

>  <PDB ID.1>  (1) 
4ZE1

>  <Seq. Identity>  (1) 
65%

$$$$
