PDB_DB00624_03
     RDKit          3D

 53 56  0  0  0  0  0  0  0  0999 V2000
   -2.5374    1.2421   -0.2584 C   0  0  0  0  0  0  0  0  0  0  0  0
   -3.7693    0.7480   -0.8970 C   0  0  0  0  0  0  0  0  0  0  0  0
   -4.4130   -0.4430   -0.3090 C   0  0  0  0  0  0  0  0  0  0  0  0
   -5.3887   -0.1504    0.6549 O   0  0  0  0  0  0  0  0  0  0  0  0
   -3.4539   -1.4648    0.2466 C   0  0  0  0  0  0  0  0  0  0  0  0
   -2.0947   -1.1488   -0.2794 C   0  0  0  0  0  0  0  0  0  0  0  0
   -1.1001   -2.2661   -0.1225 C   0  0  0  0  0  0  0  0  0  0  0  0
    0.1241   -1.8111   -0.9314 C   0  0  0  0  0  0  0  0  0  0  0  0
    0.7122   -0.6504   -0.1923 C   0  0  2  0  0  0  0  0  0  0  0  0
   -0.2252    0.4891    0.0281 C   0  0  1  0  0  0  0  0  0  0  0  0
   -1.6311    0.1532    0.2962 C   0  0  1  0  0  0  0  0  0  0  0  0
    0.4123    1.3632    1.1096 C   0  0  0  0  0  0  0  0  0  0  0  0
    1.7648    1.8521    0.6525 C   0  0  0  0  0  0  0  0  0  0  0  0
    2.6766    0.7128    0.2703 C   0  0  1  0  0  0  0  0  0  0  0  0
    1.9264   -0.0788   -0.8118 C   0  0  1  0  0  0  0  0  0  0  0  0
    2.9546   -0.9934   -1.3048 C   0  0  0  0  0  0  0  0  0  0  0  0
    4.2267   -0.1473   -1.2698 C   0  0  0  0  0  0  0  0  0  0  0  0
    3.8471    1.1434   -0.5521 C   0  0  2  0  0  0  0  0  0  0  0  0
    4.8916    1.6668    0.1758 O   0  0  0  0  0  0  0  0  0  0  0  0
    3.0747   -0.1494    1.4221 C   0  0  0  0  0  0  0  0  0  0  0  0
   -1.9444    0.1150    1.8002 C   0  0  0  0  0  0  0  0  0  0  0  0
   -2.7584    2.0072    0.5314 H   0  0  0  0  0  0  0  0  0  0  0  0
   -1.9483    1.8128   -1.0320 H   0  0  0  0  0  0  0  0  0  0  0  0
   -3.5823    0.5771   -1.9953 H   0  0  0  0  0  0  0  0  0  0  0  0
   -4.5255    1.5879   -0.8871 H   0  0  0  0  0  0  0  0  0  0  0  0
   -4.9788   -0.9693   -1.1342 H   0  0  0  0  0  0  0  0  0  0  0  0
   -5.4272    0.8268    0.8057 H   0  0  0  0  0  0  0  0  0  0  0  0
   -3.5042   -1.5148    1.3486 H   0  0  0  0  0  0  0  0  0  0  0  0
   -3.7016   -2.5109   -0.1016 H   0  0  0  0  0  0  0  0  0  0  0  0
   -2.2061   -0.9851   -1.3903 H   0  0  0  0  0  0  0  0  0  0  0  0
   -0.8309   -2.4214    0.9428 H   0  0  0  0  0  0  0  0  0  0  0  0
   -1.5114   -3.1593   -0.6090 H   0  0  0  0  0  0  0  0  0  0  0  0
   -0.2630   -1.5268   -1.9245 H   0  0  0  0  0  0  0  0  0  0  0  0
    0.8767   -2.6114   -0.9677 H   0  0  0  0  0  0  0  0  0  0  0  0
    1.0000   -1.0362    0.8300 H   0  0  0  0  0  0  0  0  0  0  0  0
   -0.1887    1.1277   -0.9040 H   0  0  0  0  0  0  0  0  0  0  0  0
   -0.2034    2.2557    1.3323 H   0  0  0  0  0  0  0  0  0  0  0  0
    0.6111    0.7472    2.0353 H   0  0  0  0  0  0  0  0  0  0  0  0
    2.2351    2.3494    1.5371 H   0  0  0  0  0  0  0  0  0  0  0  0
    1.7185    2.5869   -0.1536 H   0  0  0  0  0  0  0  0  0  0  0  0
    1.6786    0.6654   -1.6110 H   0  0  0  0  0  0  0  0  0  0  0  0
    2.7236   -1.2615   -2.3773 H   0  0  0  0  0  0  0  0  0  0  0  0
    3.0777   -1.9427   -0.7756 H   0  0  0  0  0  0  0  0  0  0  0  0
    5.0296   -0.6566   -0.7182 H   0  0  0  0  0  0  0  0  0  0  0  0
    4.5339    0.0867   -2.3182 H   0  0  0  0  0  0  0  0  0  0  0  0
    3.4746    1.8294   -1.3395 H   0  0  0  0  0  0  0  0  0  0  0  0
    5.0088    2.6200   -0.0916 H   0  0  0  0  0  0  0  0  0  0  0  0
    2.9991   -1.2412    1.2064 H   0  0  0  0  0  0  0  0  0  0  0  0
    2.5259    0.0340    2.3515 H   0  0  0  0  0  0  0  0  0  0  0  0
    4.1610    0.0670    1.6337 H   0  0  0  0  0  0  0  0  0  0  0  0
   -1.3960    0.9373    2.3337 H   0  0  0  0  0  0  0  0  0  0  0  0
   -3.0324    0.3679    1.9728 H   0  0  0  0  0  0  0  0  0  0  0  0
   -1.6493   -0.8312    2.2588 H   0  0  0  0  0  0  0  0  0  0  0  0
  1  2  1  0
  2  3  1  0
  3  4  1  0
  3  5  1  0
  5  6  1  0
  6  7  1  0
  7  8  1  0
  8  9  1  0
  9 10  1  0
  1 11  1  0
  6 11  1  0
 10 11  1  0
 10 12  1  0
 12 13  1  0
 13 14  1  0
  9 15  1  0
 14 15  1  0
 15 16  1  0
 16 17  1  0
 14 18  1  0
 17 18  1  0
 18 19  1  0
 14 20  1  1
 11 21  1  1
  1 22  1  0
  1 23  1  0
  2 24  1  0
  2 25  1  0
  3 26  1  0
  4 27  1  0
  5 28  1  0
  5 29  1  0
  6 30  1  0
  7 31  1  0
  7 32  1  0
  8 33  1  0
  8 34  1  0
  9 35  1  1
 10 36  1  6
 12 37  1  0
 12 38  1  0
 13 39  1  0
 13 40  1  0
 15 41  1  6
 16 42  1  0
 16 43  1  0
 17 44  1  0
 17 45  1  0
 18 46  1  6
 19 47  1  0
 20 48  1  0
 20 49  1  0
 20 50  1  0
 21 51  1  0
 21 52  1  0
 21 53  1  0
M  END
>  <PDBID>  (1) 
2AM9

>  <PDB ID>  (1) 
2AM9

>  <Generic Name>  (1) 
Testosterone

>  <Brand Name>  (1) 
Andriol#Androderm#Androgel#Aveed#Axiron#Delatestryl#Depo-testosterone#Depo-testosterone Inj 100mg/ml#Fortesta#Malogen Aqueous 100 Sus 100mg/ml#Malogex La200 Liq 200mg/ml#Natesto#Neo Pause Injection#PMS-testosterone#PMS-testosterone Enanthate Inj 200mg/ml USP#Scheinpharm Testone-cyp Inject.- Im 100mg/ml#Striant#Taro-testosterone#Testim#Testim 1%#Testopel#Testosterone#Testosterone Cypionate#Testosterone Cypionate Injection USP#Testosterone Cypionate Injection, USP#Testosterone Enanthate#Testosterone Enanthate Inj 200mg/ml#Vogelxo#Andronate 100#Andronate 200#Andropatch#Andropository 200#Andryl 200#Bio-T-Gel#Fortigel#Intrinsa#Livensa#Nebido#Sustanon#Testamone 100#Testaqua IM#Testoderm#Testoderm TTS#Testogel#Testolin#Testopatch#Testopel Pellets#Testrin-P.A#Testro AQ#Tostrelle#Tostrex#Virormone

>  <DrugBank ID>  (1) 
DB00624

>  <ATC Codes>  (1) 
G03EA02#G03BA03

>  <Ligand ID>  (1) 
TES

>  <Target Name>  (1) 
Androgen receptor

>  <UniProt ID>  (1) 
P10275

>  <PDB ID.1>  (1) 
2AM9

>  <Seq. Identity>  (1) 
100%

$$$$
