PDB_DB08873_06
     RDKit          3D

 91 93  0  0  0  0  0  0  0  0999 V2000
   -3.7746   -0.9573   -1.3526 C   0  0  0  0  0  0  0  0  0  0  0  0
   -3.7161    0.0515   -2.3707 O   0  0  0  0  0  0  0  0  0  0  0  0
   -4.9734   -1.6567   -1.6349 N   0  0  0  0  0  0  0  0  0  0  0  0
   -5.5118   -2.6234   -0.8058 C   0  0  0  0  0  0  0  0  0  0  0  0
   -5.9706   -2.0558    0.5190 C   0  0  0  0  0  0  0  0  0  0  0  0
   -6.7926   -3.2034   -1.4507 C   0  0  0  0  0  0  0  0  0  0  0  0
   -4.6499   -3.8162   -0.4812 C   0  0  0  0  0  0  0  0  0  0  0  0
   -3.6464   -0.3435   -0.0887 N   0  0  0  0  0  0  0  0  0  0  0  0
   -2.8891    0.9464   -0.1025 C   0  0  1  0  0  0  0  0  0  0  0  0
   -3.5232    1.7647    0.9370 C   0  0  0  0  0  0  0  0  0  0  0  0
   -3.4167    1.2179    2.3408 C   0  0  0  0  0  0  0  0  0  0  0  0
   -3.3676    3.2556    0.8368 C   0  0  0  0  0  0  0  0  0  0  0  0
   -5.0693    1.5857    0.6426 C   0  0  0  0  0  0  0  0  0  0  0  0
   -1.4756    0.5334   -0.0485 C   0  0  1  0  0  0  0  0  0  0  0  0
   -1.3181   -0.1496   -1.2934 O   0  0  0  0  0  0  0  0  0  0  0  0
   -0.4083    1.3636    0.1197 N   0  0  0  0  0  0  0  0  0  0  0  0
   -0.1113    2.1294    1.2399 C   0  0  0  0  0  0  0  0  0  0  0  0
    0.8204    0.9926   -0.4642 C   0  0  1  0  0  0  0  0  0  0  0  0
    1.7616    2.1848   -0.2891 C   0  0  2  0  0  0  0  0  0  0  0  0
    1.2830    2.7536    0.9664 C   0  0  1  0  0  0  0  0  0  0  0  0
    1.3194    3.5786   -0.3100 C   0  0  0  0  0  0  0  0  0  0  0  0
    0.0497    4.0371   -0.9417 C   0  0  0  0  0  0  0  0  0  0  0  0
    2.4921    4.5798   -0.3812 C   0  0  0  0  0  0  0  0  0  0  0  0
    1.5775   -0.1676    0.1404 C   0  0  0  0  0  0  0  0  0  0  0  0
    1.8527    0.1033    1.4968 O   0  0  0  0  0  0  0  0  0  0  0  0
    2.8907   -0.1666   -0.4894 N   0  0  0  0  0  0  0  0  0  0  0  0
    4.0031   -0.1396    0.4005 C   0  0  1  0  0  0  0  0  0  0  0  0
    4.0712   -1.4804    1.1494 C   0  0  0  0  0  0  0  0  0  0  0  0
    4.2304   -2.5521    0.1152 C   0  0  0  0  0  0  0  0  0  0  0  0
    4.3101   -3.9662    0.6954 C   0  0  0  0  0  0  0  0  0  0  0  0
    5.5870   -2.7985   -0.4653 C   0  0  0  0  0  0  0  0  0  0  0  0
    5.1791   -4.2897   -0.5353 C   0  0  0  0  0  0  0  0  0  0  0  0
    5.0900    1.0286   -1.3853 O   0  0  0  0  0  0  0  0  0  0  0  0
    5.2958   -0.0635   -0.4289 C   0  0  0  0  0  0  0  0  0  0  0  0
    7.4688    0.8587   -0.3451 O   0  0  0  0  0  0  0  0  0  0  0  0
    6.7747   -0.3200    1.5036 N   0  0  0  0  0  0  0  0  0  0  0  0
    6.3960    0.5682    0.4824 C   0  0  0  0  0  0  0  0  0  0  0  0
   -2.9354   -1.6609   -1.6371 H   0  0  0  0  0  0  0  0  0  0  0  0
   -3.8187   -0.4488   -3.2438 H   0  0  0  0  0  0  0  0  0  0  0  0
   -5.2666   -1.6673   -2.6208 H   0  0  0  0  0  0  0  0  0  0  0  0
   -6.6978   -1.2409    0.2479 H   0  0  0  0  0  0  0  0  0  0  0  0
   -5.1821   -1.7614    1.1950 H   0  0  0  0  0  0  0  0  0  0  0  0
   -6.6409   -2.8555    0.9584 H   0  0  0  0  0  0  0  0  0  0  0  0
   -6.5516   -3.8753   -2.2795 H   0  0  0  0  0  0  0  0  0  0  0  0
   -7.3666   -3.6532   -0.6227 H   0  0  0  0  0  0  0  0  0  0  0  0
   -7.3463   -2.2916   -1.7813 H   0  0  0  0  0  0  0  0  0  0  0  0
   -5.3474   -4.6376   -0.1575 H   0  0  0  0  0  0  0  0  0  0  0  0
   -4.0777   -3.5668    0.4509 H   0  0  0  0  0  0  0  0  0  0  0  0
   -4.0492   -4.2015   -1.2959 H   0  0  0  0  0  0  0  0  0  0  0  0
   -3.1201   -0.9688    0.6103 H   0  0  0  0  0  0  0  0  0  0  0  0
   -3.0453    1.4597   -1.0926 H   0  0  0  0  0  0  0  0  0  0  0  0
   -2.9150    0.2477    2.4057 H   0  0  0  0  0  0  0  0  0  0  0  0
   -2.8274    1.9719    2.9422 H   0  0  0  0  0  0  0  0  0  0  0  0
   -4.3787    1.1365    2.8814 H   0  0  0  0  0  0  0  0  0  0  0  0
   -2.9817    3.6206    1.8364 H   0  0  0  0  0  0  0  0  0  0  0  0
   -2.5994    3.5594    0.1071 H   0  0  0  0  0  0  0  0  0  0  0  0
   -4.3041    3.8190    0.6456 H   0  0  0  0  0  0  0  0  0  0  0  0
   -5.6117    2.4309    1.0718 H   0  0  0  0  0  0  0  0  0  0  0  0
   -5.1672    1.5615   -0.4421 H   0  0  0  0  0  0  0  0  0  0  0  0
   -5.3550    0.6373    1.1168 H   0  0  0  0  0  0  0  0  0  0  0  0
   -1.3824   -0.3973    0.6672 H   0  0  0  0  0  0  0  0  0  0  0  0
   -0.7160   -0.8936   -1.2518 H   0  0  0  0  0  0  0  0  0  0  0  0
   -0.0421    1.5982    2.2151 H   0  0  0  0  0  0  0  0  0  0  0  0
   -0.7064    3.0355    1.4574 H   0  0  0  0  0  0  0  0  0  0  0  0
    0.7953    0.7989   -1.5542 H   0  0  0  0  0  0  0  0  0  0  0  0
    2.8207    1.9327   -0.4647 H   0  0  0  0  0  0  0  0  0  0  0  0
    1.8736    3.0682    1.8175 H   0  0  0  0  0  0  0  0  0  0  0  0
    0.2709    4.7117   -1.8078 H   0  0  0  0  0  0  0  0  0  0  0  0
   -0.4961    4.6438   -0.1613 H   0  0  0  0  0  0  0  0  0  0  0  0
   -0.5597    3.2058   -1.3422 H   0  0  0  0  0  0  0  0  0  0  0  0
    3.0774    4.2720   -1.2961 H   0  0  0  0  0  0  0  0  0  0  0  0
    3.1672    4.4401    0.4733 H   0  0  0  0  0  0  0  0  0  0  0  0
    2.1501    5.6069   -0.5278 H   0  0  0  0  0  0  0  0  0  0  0  0
    1.1612   -1.1456    0.0674 H   0  0  0  0  0  0  0  0  0  0  0  0
    1.1987   -0.4136    2.0673 H   0  0  0  0  0  0  0  0  0  0  0  0
    2.9614   -0.7252   -1.3340 H   0  0  0  0  0  0  0  0  0  0  0  0
    3.9467    0.6876    1.0949 H   0  0  0  0  0  0  0  0  0  0  0  0
    3.1396   -1.6976    1.7124 H   0  0  0  0  0  0  0  0  0  0  0  0
    4.8986   -1.4748    1.8356 H   0  0  0  0  0  0  0  0  0  0  0  0
    3.4751   -2.5656   -0.6997 H   0  0  0  0  0  0  0  0  0  0  0  0
    3.3397   -4.4527    0.7210 H   0  0  0  0  0  0  0  0  0  0  0  0
    4.9010   -3.9440    1.6190 H   0  0  0  0  0  0  0  0  0  0  0  0
    6.4480   -2.6359    0.1870 H   0  0  0  0  0  0  0  0  0  0  0  0
    5.7309   -2.3952   -1.5066 H   0  0  0  0  0  0  0  0  0  0  0  0
    5.9888   -4.9792   -0.2993 H   0  0  0  0  0  0  0  0  0  0  0  0
    4.5653   -4.4888   -1.4114 H   0  0  0  0  0  0  0  0  0  0  0  0
    5.9051    1.0024   -1.9175 H   0  0  0  0  0  0  0  0  0  0  0  0
    7.4844    1.8028   -0.6559 H   0  0  0  0  0  0  0  0  0  0  0  0
    7.7962   -0.5956    1.4422 H   0  0  0  0  0  0  0  0  0  0  0  0
    6.5688    0.0580    2.4789 H   0  0  0  0  0  0  0  0  0  0  0  0
    5.9854    1.5419    0.8561 H   0  0  0  0  0  0  0  0  0  0  0  0
  1  2  1  0
  1  3  1  0
  4  3  1  0
  4  5  1  0
  4  6  1  0
  4  7  1  0
  1  8  1  0
  8  9  1  0
  9 10  1  0
 10 11  1  0
 10 12  1  0
 10 13  1  0
  9 14  1  0
 14 15  1  0
 14 16  1  0
 16 17  1  0
 16 18  1  0
 18 19  1  0
 17 20  1  0
 19 20  1  0
 19 21  1  0
 20 21  1  0
 21 22  1  0
 21 23  1  0
 18 24  1  0
 24 25  1  0
 24 26  1  0
 26 27  1  0
 27 28  1  0
 28 29  1  0
 29 30  1  0
 29 31  1  0
 30 32  1  0
 31 32  1  0
 27 34  1  0
 34 33  1  0
 34 37  1  0
 35 37  1  0
 36 37  1  0
  1 38  1  0
  2 39  1  0
  3 40  1  0
  5 41  1  0
  5 42  1  0
  5 43  1  0
  6 44  1  0
  6 45  1  0
  6 46  1  0
  7 47  1  0
  7 48  1  0
  7 49  1  0
  8 50  1  0
  9 51  1  6
 11 52  1  0
 11 53  1  0
 11 54  1  0
 12 55  1  0
 12 56  1  0
 12 57  1  0
 13 58  1  0
 13 59  1  0
 13 60  1  0
 14 61  1  1
 15 62  1  0
 17 63  1  0
 17 64  1  0
 18 65  1  6
 19 66  1  1
 20 67  1  1
 22 68  1  0
 22 69  1  0
 22 70  1  0
 23 71  1  0
 23 72  1  0
 23 73  1  0
 24 74  1  0
 25 75  1  0
 26 76  1  0
 27 77  1  1
 28 78  1  0
 28 79  1  0
 29 80  1  0
 30 81  1  0
 30 82  1  0
 31 83  1  0
 31 84  1  0
 32 85  1  0
 32 86  1  0
 33 87  1  0
 35 88  1  0
 36 89  1  0
 36 90  1  0
 37 91  1  0
M  END
>  <PDBID>  (1) 
2OC8

>  <PDB ID>  (1) 
2OC8

>  <Generic Name>  (1) 
Boceprevir

>  <Brand Name>  (1) 
Victrelis#Victrelis Triple

>  <DrugBank ID>  (1) 
DB08873

>  <ATC Codes>  (1) 
J05AE12

>  <Ligand ID>  (1) 
HU5

>  <Target Name>  (1) 
Genome polyprotein

>  <UniProt ID>  (1) 
B0B3C9

>  <PDB ID.1>  (1) 
2OC8

>  <Seq. Identity>  (1) 
69%

$$$$
