PDB_DB05812_00
     RDKit          3D

268284  0  0  0  0  0  0  0  0999 V2000
   -3.6327   -0.6948    1.4493 C   0  0  0  0  0  0  0  0  0  0  0  0
   -4.8336    0.1562    1.5805 C   0  0  0  0  0  0  0  0  0  0  0  0
   -5.7037    0.2540    0.3815 C   0  0  2  0  0  0  0  0  0  0  0  0
   -6.6184   -0.8236    0.3347 O   0  0  0  0  0  0  0  0  0  0  0  0
   -4.9914    0.3369   -0.9230 C   0  0  0  0  0  0  0  0  0  0  0  0
   -3.4917    0.4193   -0.8024 C   0  0  0  0  0  0  0  0  0  0  0  0
   -3.1362    1.8191   -0.4173 C   0  0  0  0  0  0  0  0  0  0  0  0
   -1.8907    1.8930    0.4382 C   0  0  0  0  0  0  0  0  0  0  0  0
   -0.9272    0.8673   -0.1496 C   0  0  2  0  0  0  0  0  0  0  0  0
   -1.4806   -0.4863    0.3193 C   0  0  1  0  0  0  0  0  0  0  0  0
   -2.9394   -0.6300    0.1181 C   0  0  1  0  0  0  0  0  0  0  0  0
   -0.6554   -1.5623   -0.3289 C   0  0  0  0  0  0  0  0  0  0  0  0
    0.7936   -1.4049   -0.0136 C   0  0  0  0  0  0  0  0  0  0  0  0
    1.3410   -0.0340   -0.3304 C   0  0  1  0  0  0  0  0  0  0  0  0
    0.4314    0.9700    0.3914 C   0  0  1  0  0  0  0  0  0  0  0  0
    1.1704    2.2305    0.2018 C   0  0  0  0  0  0  0  0  0  0  0  0
    2.6263    1.7768    0.4032 C   0  0  0  0  0  0  0  0  0  0  0  0
    2.6053    0.2703    0.3873 C   0  0  0  0  0  0  0  0  0  0  0  0
    1.3329    0.1472   -1.7976 C   0  0  0  0  0  0  0  0  0  0  0  0
   -3.2258   -1.9740   -0.5742 C   0  0  0  0  0  0  0  0  0  0  0  0
    3.8393   -0.3906   -0.0207 C   0  0  0  0  0  0  0  0  0  0  0  0
    4.3950   -0.1723   -1.3674 C   0  0  0  0  0  0  0  0  0  0  0  0
    5.8579    0.0025   -1.2270 N   0  0  0  0  0  0  0  0  0  0  0  0
    6.3389   -1.2238   -0.6096 C   0  0  0  0  0  0  0  0  0  0  0  0
    6.0552   -1.1076    0.8923 C   0  0  0  0  0  0  0  0  0  0  0  0
    4.8940   -0.1501    1.0779 C   0  0  0  0  0  0  0  0  0  0  0  0
   -3.6327   -0.6948    1.4493 C   0  0  0  0  0  0  0  0  0  0  0  0
   -4.8336    0.1562    1.5805 C   0  0  0  0  0  0  0  0  0  0  0  0
   -5.7037    0.2540    0.3815 C   0  0  2  0  0  0  0  0  0  0  0  0
   -6.6184   -0.8236    0.3347 O   0  0  0  0  0  0  0  0  0  0  0  0
   -4.9914    0.3369   -0.9230 C   0  0  0  0  0  0  0  0  0  0  0  0
   -3.4917    0.4193   -0.8024 C   0  0  0  0  0  0  0  0  0  0  0  0
   -3.1362    1.8191   -0.4173 C   0  0  0  0  0  0  0  0  0  0  0  0
   -1.8907    1.8930    0.4382 C   0  0  0  0  0  0  0  0  0  0  0  0
   -0.9272    0.8673   -0.1496 C   0  0  2  0  0  0  0  0  0  0  0  0
   -1.4806   -0.4863    0.3193 C   0  0  1  0  0  0  0  0  0  0  0  0
   -2.9394   -0.6300    0.1181 C   0  0  1  0  0  0  0  0  0  0  0  0
   -0.6554   -1.5623   -0.3289 C   0  0  0  0  0  0  0  0  0  0  0  0
    0.7936   -1.4049   -0.0136 C   0  0  0  0  0  0  0  0  0  0  0  0
    1.3410   -0.0340   -0.3304 C   0  0  1  0  0  0  0  0  0  0  0  0
    0.4314    0.9700    0.3914 C   0  0  1  0  0  0  0  0  0  0  0  0
    1.1704    2.2305    0.2018 C   0  0  0  0  0  0  0  0  0  0  0  0
    2.6263    1.7768    0.4032 C   0  0  0  0  0  0  0  0  0  0  0  0
    2.6053    0.2703    0.3873 C   0  0  0  0  0  0  0  0  0  0  0  0
    1.3329    0.1472   -1.7976 C   0  0  0  0  0  0  0  0  0  0  0  0
   -3.2258   -1.9740   -0.5742 C   0  0  0  0  0  0  0  0  0  0  0  0
    3.8393   -0.3906   -0.0207 C   0  0  0  0  0  0  0  0  0  0  0  0
    4.3950   -0.1723   -1.3674 C   0  0  0  0  0  0  0  0  0  0  0  0
    5.8579    0.0025   -1.2270 N   0  0  0  0  0  0  0  0  0  0  0  0
    6.3389   -1.2238   -0.6096 C   0  0  0  0  0  0  0  0  0  0  0  0
    6.0552   -1.1076    0.8923 C   0  0  0  0  0  0  0  0  0  0  0  0
    4.8940   -0.1501    1.0779 C   0  0  0  0  0  0  0  0  0  0  0  0
   -3.3031   -1.9585    0.1720 C   0  0  0  0  0  0  0  0  0  0  0  0
   -4.2703   -1.9518    1.3343 C   0  0  0  0  0  0  0  0  0  0  0  0
   -5.4925   -1.1138    1.0528 C   0  0  2  0  0  0  0  0  0  0  0  0
   -6.4496   -1.8001    0.3208 O   0  0  0  0  0  0  0  0  0  0  0  0
   -5.1036    0.1765    0.3180 C   0  0  0  0  0  0  0  0  0  0  0  0
   -3.6545    0.4037    0.5737 C   0  0  0  0  0  0  0  0  0  0  0  0
   -3.1935    1.8284    0.3520 C   0  0  0  0  0  0  0  0  0  0  0  0
   -1.8363    1.9185    1.0219 C   0  0  0  0  0  0  0  0  0  0  0  0
   -0.9165    1.0160    0.1812 C   0  0  2  0  0  0  0  0  0  0  0  0
   -1.3865   -0.4207    0.3624 C   0  0  1  0  0  0  0  0  0  0  0  0
   -2.7915   -0.5871   -0.1730 C   0  0  1  0  0  0  0  0  0  0  0  0
   -0.4416   -1.4527   -0.0941 C   0  0  0  0  0  0  0  0  0  0  0  0
    1.0008   -1.1256   -0.1992 C   0  0  0  0  0  0  0  0  0  0  0  0
    1.3119    0.3088   -0.4180 C   0  0  1  0  0  0  0  0  0  0  0  0
    0.4682    1.0171    0.6607 C   0  0  1  0  0  0  0  0  0  0  0  0
    1.1498    2.3177    0.8775 C   0  0  0  0  0  0  0  0  0  0  0  0
    2.5602    1.7272    1.0838 C   0  0  0  0  0  0  0  0  0  0  0  0
    2.6045    0.8605   -0.1981 C   0  0  1  0  0  0  0  0  0  0  0  0
    0.7677    0.6267   -1.8120 C   0  0  0  0  0  0  0  0  0  0  0  0
   -2.8898   -0.4263   -1.6634 C   0  0  0  0  0  0  0  0  0  0  0  0
    3.8639    0.1243   -0.2425 C   0  0  1  0  0  0  0  0  0  0  0  0
    4.1053   -1.0020    0.6735 C   0  0  0  0  0  0  0  0  0  0  0  0
    5.5515   -1.1646    0.8296 N   0  0  0  0  0  0  0  0  0  0  0  0
    6.3032   -0.6499   -0.2706 C   0  0  0  0  0  0  0  0  0  0  0  0
    5.6260   -0.9580   -1.5877 C   0  0  0  0  0  0  0  0  0  0  0  0
    4.2440   -0.3361   -1.6456 C   0  0  0  0  0  0  0  0  0  0  0  0
   -3.5721   -0.6121    1.5506 C   0  0  0  0  0  0  0  0  0  0  0  0
   -4.8052    0.1929    1.6600 C   0  0  0  0  0  0  0  0  0  0  0  0
   -5.6683    0.2461    0.4549 C   0  0  2  0  0  0  0  0  0  0  0  0
   -6.6561   -0.7601    0.4673 O   0  0  0  0  0  0  0  0  0  0  0  0
   -4.9649    0.1813   -0.8496 C   0  0  0  0  0  0  0  0  0  0  0  0
   -3.4899    0.3813   -0.7632 C   0  0  1  0  0  0  0  0  0  0  0  0
   -3.1690    1.7938   -0.4221 C   0  0  0  0  0  0  0  0  0  0  0  0
   -1.8778    1.9269    0.3596 C   0  0  0  0  0  0  0  0  0  0  0  0
   -0.9435    0.8686   -0.1819 C   0  0  2  0  0  0  0  0  0  0  0  0
   -1.4396   -0.5156    0.2906 C   0  0  1  0  0  0  0  0  0  0  0  0
   -2.9204   -0.6389    0.1953 C   0  0  1  0  0  0  0  0  0  0  0  0
   -0.6749   -1.6107   -0.3569 C   0  0  0  0  0  0  0  0  0  0  0  0
    0.7282   -1.3739   -0.6844 C   0  0  0  0  0  0  0  0  0  0  0  0
    1.2856   -0.0177   -0.5760 C   0  0  1  0  0  0  0  0  0  0  0  0
    0.4195    0.9291    0.2767 C   0  0  1  0  0  0  0  0  0  0  0  0
    1.2210    2.1500    0.2323 C   0  0  0  0  0  0  0  0  0  0  0  0
    2.6474    1.5885    0.4134 C   0  0  0  0  0  0  0  0  0  0  0  0
    2.5034    0.1139    0.3132 C   0  0  0  0  0  0  0  0  0  0  0  0
    1.4758    0.6871   -1.8992 C   0  0  0  0  0  0  0  0  0  0  0  0
   -3.2882   -2.0040   -0.4128 C   0  0  0  0  0  0  0  0  0  0  0  0
    3.6539   -0.7126    0.0603 C   0  0  0  0  0  0  0  0  0  0  0  0
    4.3822   -0.6801   -1.2119 C   0  0  0  0  0  0  0  0  0  0  0  0
    5.5787    0.1823   -1.1877 N   0  0  0  0  0  0  0  0  0  0  0  0
    6.6160   -0.5422   -0.4351 C   0  0  0  0  0  0  0  0  0  0  0  0
    5.9653   -1.0921    0.7895 C   0  0  0  0  0  0  0  0  0  0  0  0
    4.6822   -0.3951    1.1639 C   0  0  0  0  0  0  0  0  0  0  0  0
   -2.9119   -0.3925    2.2666 H   0  0  0  0  0  0  0  0  0  0  0  0
   -3.9123   -1.7521    1.7337 H   0  0  0  0  0  0  0  0  0  0  0  0
   -4.5254    1.1634    1.9905 H   0  0  0  0  0  0  0  0  0  0  0  0
   -5.4681   -0.2719    2.4139 H   0  0  0  0  0  0  0  0  0  0  0  0
   -6.3639    1.1607    0.5239 H   0  0  0  0  0  0  0  0  0  0  0  0
   -7.4643   -0.6056    0.7876 H   0  0  0  0  0  0  0  0  0  0  0  0
   -5.3058    1.2802   -1.4622 H   0  0  0  0  0  0  0  0  0  0  0  0
   -5.3138   -0.4820   -1.6315 H   0  0  0  0  0  0  0  0  0  0  0  0
   -3.0898    0.1734   -1.8298 H   0  0  0  0  0  0  0  0  0  0  0  0
   -3.9832    2.3995    0.0084 H   0  0  0  0  0  0  0  0  0  0  0  0
   -2.8749    2.3686   -1.3703 H   0  0  0  0  0  0  0  0  0  0  0  0
   -1.4654    2.9112    0.3039 H   0  0  0  0  0  0  0  0  0  0  0  0
   -2.0759    1.7233    1.5025 H   0  0  0  0  0  0  0  0  0  0  0  0
   -1.0502    0.9317   -1.2290 H   0  0  0  0  0  0  0  0  0  0  0  0
   -1.2210   -0.5180    1.4190 H   0  0  0  0  0  0  0  0  0  0  0  0
   -0.8381   -1.6207   -1.4065 H   0  0  0  0  0  0  0  0  0  0  0  0
   -0.9498   -2.5753    0.0768 H   0  0  0  0  0  0  0  0  0  0  0  0
    1.0345   -1.7034    1.0283 H   0  0  0  0  0  0  0  0  0  0  0  0
    1.3611   -2.1259   -0.6621 H   0  0  0  0  0  0  0  0  0  0  0  0
    0.4446    0.6931    1.4618 H   0  0  0  0  0  0  0  0  0  0  0  0
    0.8825    3.0002    0.9425 H   0  0  0  0  0  0  0  0  0  0  0  0
    1.0460    2.6962   -0.7951 H   0  0  0  0  0  0  0  0  0  0  0  0
    2.9247    2.1656    1.3993 H   0  0  0  0  0  0  0  0  0  0  0  0
    3.2924    2.2213   -0.3336 H   0  0  0  0  0  0  0  0  0  0  0  0
    2.4084   -0.0268    1.4662 H   0  0  0  0  0  0  0  0  0  0  0  0
    1.6497    1.1116   -2.1862 H   0  0  0  0  0  0  0  0  0  0  0  0
    0.3279   -0.1451   -2.1856 H   0  0  0  0  0  0  0  0  0  0  0  0
    2.0113   -0.6345   -2.2352 H   0  0  0  0  0  0  0  0  0  0  0  0
   -2.8315   -2.0097   -1.5870 H   0  0  0  0  0  0  0  0  0  0  0  0
   -4.3511   -2.0048   -0.6768 H   0  0  0  0  0  0  0  0  0  0  0  0
   -2.9729   -2.8250    0.0709 H   0  0  0  0  0  0  0  0  0  0  0  0
    3.6548   -1.5103    0.0744 H   0  0  0  0  0  0  0  0  0  0  0  0
    3.9740    0.6648   -1.9566 H   0  0  0  0  0  0  0  0  0  0  0  0
    4.3235   -1.0745   -2.0278 H   0  0  0  0  0  0  0  0  0  0  0  0
    6.0968    0.8473   -0.6978 H   0  0  0  0  0  0  0  0  0  0  0  0
    7.4056   -1.3937   -0.7862 H   0  0  0  0  0  0  0  0  0  0  0  0
    5.7137   -2.0512   -0.9954 H   0  0  0  0  0  0  0  0  0  0  0  0
    5.7624   -2.0755    1.3273 H   0  0  0  0  0  0  0  0  0  0  0  0
    6.9203   -0.6738    1.4254 H   0  0  0  0  0  0  0  0  0  0  0  0
    5.1850    0.8975    1.1245 H   0  0  0  0  0  0  0  0  0  0  0  0
    4.3957   -0.4262    2.0297 H   0  0  0  0  0  0  0  0  0  0  0  0
   -2.9119   -0.3925    2.2666 H   0  0  0  0  0  0  0  0  0  0  0  0
   -3.9123   -1.7521    1.7337 H   0  0  0  0  0  0  0  0  0  0  0  0
   -4.5254    1.1634    1.9905 H   0  0  0  0  0  0  0  0  0  0  0  0
   -5.4681   -0.2719    2.4139 H   0  0  0  0  0  0  0  0  0  0  0  0
   -6.3639    1.1607    0.5239 H   0  0  0  0  0  0  0  0  0  0  0  0
   -7.4643   -0.6056    0.7876 H   0  0  0  0  0  0  0  0  0  0  0  0
   -5.3058    1.2802   -1.4622 H   0  0  0  0  0  0  0  0  0  0  0  0
   -5.3138   -0.4820   -1.6315 H   0  0  0  0  0  0  0  0  0  0  0  0
   -3.0898    0.1734   -1.8298 H   0  0  0  0  0  0  0  0  0  0  0  0
   -3.9832    2.3995    0.0084 H   0  0  0  0  0  0  0  0  0  0  0  0
   -2.8749    2.3686   -1.3703 H   0  0  0  0  0  0  0  0  0  0  0  0
   -1.4654    2.9112    0.3039 H   0  0  0  0  0  0  0  0  0  0  0  0
   -2.0759    1.7233    1.5025 H   0  0  0  0  0  0  0  0  0  0  0  0
   -1.0502    0.9317   -1.2290 H   0  0  0  0  0  0  0  0  0  0  0  0
   -1.2210   -0.5180    1.4190 H   0  0  0  0  0  0  0  0  0  0  0  0
   -0.8381   -1.6207   -1.4065 H   0  0  0  0  0  0  0  0  0  0  0  0
   -0.9498   -2.5753    0.0768 H   0  0  0  0  0  0  0  0  0  0  0  0
    1.0345   -1.7034    1.0283 H   0  0  0  0  0  0  0  0  0  0  0  0
    1.3611   -2.1259   -0.6621 H   0  0  0  0  0  0  0  0  0  0  0  0
    0.4446    0.6931    1.4618 H   0  0  0  0  0  0  0  0  0  0  0  0
    0.8825    3.0002    0.9425 H   0  0  0  0  0  0  0  0  0  0  0  0
    1.0460    2.6962   -0.7951 H   0  0  0  0  0  0  0  0  0  0  0  0
    2.9247    2.1656    1.3993 H   0  0  0  0  0  0  0  0  0  0  0  0
    3.2924    2.2213   -0.3336 H   0  0  0  0  0  0  0  0  0  0  0  0
    2.4084   -0.0268    1.4662 H   0  0  0  0  0  0  0  0  0  0  0  0
    1.6497    1.1116   -2.1862 H   0  0  0  0  0  0  0  0  0  0  0  0
    0.3279   -0.1451   -2.1856 H   0  0  0  0  0  0  0  0  0  0  0  0
    2.0113   -0.6345   -2.2352 H   0  0  0  0  0  0  0  0  0  0  0  0
   -2.8315   -2.0097   -1.5870 H   0  0  0  0  0  0  0  0  0  0  0  0
   -4.3511   -2.0048   -0.6768 H   0  0  0  0  0  0  0  0  0  0  0  0
   -2.9729   -2.8250    0.0709 H   0  0  0  0  0  0  0  0  0  0  0  0
    3.6548   -1.5103    0.0744 H   0  0  0  0  0  0  0  0  0  0  0  0
    3.9740    0.6648   -1.9566 H   0  0  0  0  0  0  0  0  0  0  0  0
    4.3235   -1.0745   -2.0278 H   0  0  0  0  0  0  0  0  0  0  0  0
    6.0968    0.8473   -0.6978 H   0  0  0  0  0  0  0  0  0  0  0  0
    7.4056   -1.3937   -0.7862 H   0  0  0  0  0  0  0  0  0  0  0  0
    5.7137   -2.0512   -0.9954 H   0  0  0  0  0  0  0  0  0  0  0  0
    5.7624   -2.0755    1.3273 H   0  0  0  0  0  0  0  0  0  0  0  0
    6.9203   -0.6738    1.4254 H   0  0  0  0  0  0  0  0  0  0  0  0
    5.1850    0.8975    1.1245 H   0  0  0  0  0  0  0  0  0  0  0  0
    4.3957   -0.4262    2.0297 H   0  0  0  0  0  0  0  0  0  0  0  0
   -2.5090   -2.6642    0.4041 H   0  0  0  0  0  0  0  0  0  0  0  0
   -3.8760   -2.4091   -0.6909 H   0  0  0  0  0  0  0  0  0  0  0  0
   -3.7864   -1.7118    2.2999 H   0  0  0  0  0  0  0  0  0  0  0  0
   -4.6323   -3.0073    1.4368 H   0  0  0  0  0  0  0  0  0  0  0  0
   -5.9610   -0.8348    2.0160 H   0  0  0  0  0  0  0  0  0  0  0  0
   -7.2695   -1.9762    0.8399 H   0  0  0  0  0  0  0  0  0  0  0  0
   -5.4115    0.1352   -0.7257 H   0  0  0  0  0  0  0  0  0  0  0  0
   -5.6696    1.0254    0.7798 H   0  0  0  0  0  0  0  0  0  0  0  0
   -3.4767    0.2014    1.6665 H   0  0  0  0  0  0  0  0  0  0  0  0
   -3.9366    2.4950    0.8104 H   0  0  0  0  0  0  0  0  0  0  0  0
   -3.1146    2.0882   -0.7139 H   0  0  0  0  0  0  0  0  0  0  0  0
   -1.4430    2.9648    0.9452 H   0  0  0  0  0  0  0  0  0  0  0  0
   -1.9138    1.5629    2.0491 H   0  0  0  0  0  0  0  0  0  0  0  0
   -1.0466    1.3833   -0.8520 H   0  0  0  0  0  0  0  0  0  0  0  0
   -1.5174   -0.5053    1.4876 H   0  0  0  0  0  0  0  0  0  0  0  0
   -0.8633   -1.8857   -1.0454 H   0  0  0  0  0  0  0  0  0  0  0  0
   -0.5185   -2.3286    0.6233 H   0  0  0  0  0  0  0  0  0  0  0  0
    1.3930   -1.6834   -1.0786 H   0  0  0  0  0  0  0  0  0  0  0  0
    1.5357   -1.4290    0.7497 H   0  0  0  0  0  0  0  0  0  0  0  0
    0.5412    0.4480    1.6116 H   0  0  0  0  0  0  0  0  0  0  0  0
    1.1537    3.0066    0.0351 H   0  0  0  0  0  0  0  0  0  0  0  0
    0.8164    2.7494    1.8346 H   0  0  0  0  0  0  0  0  0  0  0  0
    3.3228    2.5049    1.0630 H   0  0  0  0  0  0  0  0  0  0  0  0
    2.5396    1.1086    1.9798 H   0  0  0  0  0  0  0  0  0  0  0  0
    2.7525    1.6894   -0.9660 H   0  0  0  0  0  0  0  0  0  0  0  0
    1.6150    0.3636   -2.5144 H   0  0  0  0  0  0  0  0  0  0  0  0
   -0.0573   -0.0199   -2.1041 H   0  0  0  0  0  0  0  0  0  0  0  0
    0.6191    1.7077   -1.9662 H   0  0  0  0  0  0  0  0  0  0  0  0
   -2.4333   -1.2926   -2.1821 H   0  0  0  0  0  0  0  0  0  0  0  0
   -3.9352   -0.3876   -2.0216 H   0  0  0  0  0  0  0  0  0  0  0  0
   -2.3980    0.4824   -2.0617 H   0  0  0  0  0  0  0  0  0  0  0  0
    4.6674    0.8899    0.0043 H   0  0  0  0  0  0  0  0  0  0  0  0
    3.8049   -2.0064    0.2552 H   0  0  0  0  0  0  0  0  0  0  0  0
    3.7102   -0.8451    1.6975 H   0  0  0  0  0  0  0  0  0  0  0  0
    5.8869   -0.9107    1.7543 H   0  0  0  0  0  0  0  0  0  0  0  0
    6.6288    0.3877   -0.1837 H   0  0  0  0  0  0  0  0  0  0  0  0
    7.2615   -1.2533   -0.2923 H   0  0  0  0  0  0  0  0  0  0  0  0
    5.5825   -2.0433   -1.7675 H   0  0  0  0  0  0  0  0  0  0  0  0
    6.2934   -0.5070   -2.3803 H   0  0  0  0  0  0  0  0  0  0  0  0
    4.3249    0.5834   -2.2549 H   0  0  0  0  0  0  0  0  0  0  0  0
    3.4927   -1.0425   -2.0526 H   0  0  0  0  0  0  0  0  0  0  0  0
   -2.8180   -0.1980    2.2750 H   0  0  0  0  0  0  0  0  0  0  0  0
   -3.7565   -1.6591    1.9349 H   0  0  0  0  0  0  0  0  0  0  0  0
   -4.5576    1.2185    2.0664 H   0  0  0  0  0  0  0  0  0  0  0  0
   -5.4311   -0.2577    2.4896 H   0  0  0  0  0  0  0  0  0  0  0  0
   -6.2433    1.2175    0.4964 H   0  0  0  0  0  0  0  0  0  0  0  0
   -7.3455   -0.4688    1.1401 H   0  0  0  0  0  0  0  0  0  0  0  0
   -5.3585    0.9658   -1.5611 H   0  0  0  0  0  0  0  0  0  0  0  0
   -5.1577   -0.7860   -1.3964 H   0  0  0  0  0  0  0  0  0  0  0  0
   -3.0684    0.1047   -1.7752 H   0  0  0  0  0  0  0  0  0  0  0  0
   -2.9739    2.3260   -1.4019 H   0  0  0  0  0  0  0  0  0  0  0  0
   -4.0051    2.3617    0.0334 H   0  0  0  0  0  0  0  0  0  0  0  0
   -1.4002    2.9165    0.0991 H   0  0  0  0  0  0  0  0  0  0  0  0
   -2.0083    1.8993    1.4387 H   0  0  0  0  0  0  0  0  0  0  0  0
   -1.1281    0.8337   -1.2825 H   0  0  0  0  0  0  0  0  0  0  0  0
   -1.1660   -0.5275    1.3880 H   0  0  0  0  0  0  0  0  0  0  0  0
   -1.2735   -1.9388   -1.2595 H   0  0  0  0  0  0  0  0  0  0  0  0
   -0.7509   -2.5072    0.3302 H   0  0  0  0  0  0  0  0  0  0  0  0
    1.4035   -2.0670   -0.0961 H   0  0  0  0  0  0  0  0  0  0  0  0
    0.9095   -1.7164   -1.7505 H   0  0  0  0  0  0  0  0  0  0  0  0
    0.4887    0.5058    1.3227 H   0  0  0  0  0  0  0  0  0  0  0  0
    0.9688    2.7909    1.1168 H   0  0  0  0  0  0  0  0  0  0  0  0
    1.1392    2.7765   -0.6486 H   0  0  0  0  0  0  0  0  0  0  0  0
    2.9968    1.8650    1.4520 H   0  0  0  0  0  0  0  0  0  0  0  0
    3.3109    2.0841   -0.2737 H   0  0  0  0  0  0  0  0  0  0  0  0
    2.1052   -0.1999    1.3365 H   0  0  0  0  0  0  0  0  0  0  0  0
    2.3433    1.3762   -1.9139 H   0  0  0  0  0  0  0  0  0  0  0  0
    0.6101    1.3410   -2.1806 H   0  0  0  0  0  0  0  0  0  0  0  0
    1.5180   -0.0722   -2.7297 H   0  0  0  0  0  0  0  0  0  0  0  0
   -3.2940   -1.9704   -1.5113 H   0  0  0  0  0  0  0  0  0  0  0  0
   -4.3688   -2.1683   -0.1216 H   0  0  0  0  0  0  0  0  0  0  0  0
   -2.7371   -2.8270    0.0368 H   0  0  0  0  0  0  0  0  0  0  0  0
    3.3737   -1.7856    0.2981 H   0  0  0  0  0  0  0  0  0  0  0  0
    3.7962   -0.5050   -2.1287 H   0  0  0  0  0  0  0  0  0  0  0  0
    4.8436   -1.7037   -1.3925 H   0  0  0  0  0  0  0  0  0  0  0  0
    5.4328    1.0599   -0.6909 H   0  0  0  0  0  0  0  0  0  0  0  0
    7.4246    0.1754   -0.1807 H   0  0  0  0  0  0  0  0  0  0  0  0
    6.9777   -1.3382   -1.1142 H   0  0  0  0  0  0  0  0  0  0  0  0
    5.7076   -2.1565    0.5941 H   0  0  0  0  0  0  0  0  0  0  0  0
    6.6828   -1.0916    1.6360 H   0  0  0  0  0  0  0  0  0  0  0  0
    4.7901    0.6865    1.3003 H   0  0  0  0  0  0  0  0  0  0  0  0
    4.3300   -0.8468    2.1139 H   0  0  0  0  0  0  0  0  0  0  0  0
  1  2  1  0
  2  3  1  0
  3  4  1  0
  3  5  1  0
  5  6  1  0
  6  7  1  0
  7  8  1  0
  8  9  1  0
  9 10  1  0
  1 11  1  0
  6 11  1  0
 10 11  1  0
 10 12  1  0
 12 13  1  0
 13 14  1  0
  9 15  1  0
 14 15  1  0
 15 16  1  0
 16 17  1  0
 14 18  1  0
 17 18  1  0
 14 19  1  6
 11 20  1  6
 18 21  1  0
 21 22  1  0
 22 23  1  0
 24 23  1  0
 24 25  1  0
 21 26  1  0
 25 26  1  0
 27 28  1  0
 28 29  1  0
 29 30  1  0
 29 31  1  0
 31 32  1  0
 32 33  1  0
 33 34  1  0
 34 35  1  0
 35 36  1  0
 27 37  1  0
 32 37  1  0
 36 37  1  0
 36 38  1  0
 38 39  1  0
 39 40  1  0
 35 41  1  0
 40 41  1  0
 41 42  1  0
 42 43  1  0
 40 44  1  0
 43 44  1  0
 40 45  1  6
 37 46  1  6
 44 47  1  0
 47 48  1  0
 48 49  1  0
 50 49  1  0
 50 51  1  0
 47 52  1  0
 51 52  1  0
 53 54  1  0
 54 55  1  0
 55 56  1  0
 55 57  1  0
 57 58  1  0
 58 59  1  0
 59 60  1  0
 60 61  1  0
 61 62  1  0
 53 63  1  0
 58 63  1  0
 62 63  1  0
 62 64  1  0
 64 65  1  0
 65 66  1  0
 61 67  1  0
 66 67  1  0
 67 68  1  0
 68 69  1  0
 66 70  1  0
 69 70  1  0
 66 71  1  6
 63 72  1  6
 70 73  1  0
 73 74  1  0
 74 75  1  0
 76 75  1  0
 76 77  1  0
 73 78  1  0
 77 78  1  0
 79 80  1  0
 80 81  1  0
 81 82  1  0
 81 83  1  0
 83 84  1  0
 84 85  1  0
 85 86  1  0
 86 87  1  0
 87 88  1  0
 79 89  1  0
 84 89  1  0
 88 89  1  0
 88 90  1  0
 90 91  1  0
 91 92  1  0
 87 93  1  0
 92 93  1  0
 93 94  1  0
 94 95  1  0
 92 96  1  0
 95 96  1  0
 92 97  1  6
 89 98  1  6
 96 99  1  0
 99100  1  0
100101  1  0
102101  1  0
102103  1  0
 99104  1  0
103104  1  0
  1105  1  0
  1106  1  0
  2107  1  0
  2108  1  0
  3109  1  1
  4110  1  0
  5111  1  0
  5112  1  0
  6113  1  0
  7114  1  0
  7115  1  0
  8116  1  0
  8117  1  0
  9118  1  6
 10119  1  1
 12120  1  0
 12121  1  0
 13122  1  0
 13123  1  0
 15124  1  1
 16125  1  0
 16126  1  0
 17127  1  0
 17128  1  0
 18129  1  0
 19130  1  0
 19131  1  0
 19132  1  0
 20133  1  0
 20134  1  0
 20135  1  0
 21136  1  0
 22137  1  0
 22138  1  0
 23139  1  0
 24140  1  0
 24141  1  0
 25142  1  0
 25143  1  0
 26144  1  0
 26145  1  0
 27146  1  0
 27147  1  0
 28148  1  0
 28149  1  0
 29150  1  1
 30151  1  0
 31152  1  0
 31153  1  0
 32154  1  0
 33155  1  0
 33156  1  0
 34157  1  0
 34158  1  0
 35159  1  6
 36160  1  1
 38161  1  0
 38162  1  0
 39163  1  0
 39164  1  0
 41165  1  1
 42166  1  0
 42167  1  0
 43168  1  0
 43169  1  0
 44170  1  0
 45171  1  0
 45172  1  0
 45173  1  0
 46174  1  0
 46175  1  0
 46176  1  0
 47177  1  0
 48178  1  0
 48179  1  0
 49180  1  0
 50181  1  0
 50182  1  0
 51183  1  0
 51184  1  0
 52185  1  0
 52186  1  0
 53187  1  0
 53188  1  0
 54189  1  0
 54190  1  0
 55191  1  1
 56192  1  0
 57193  1  0
 57194  1  0
 58195  1  0
 59196  1  0
 59197  1  0
 60198  1  0
 60199  1  0
 61200  1  6
 62201  1  1
 64202  1  0
 64203  1  0
 65204  1  0
 65205  1  0
 67206  1  1
 68207  1  0
 68208  1  0
 69209  1  0
 69210  1  0
 70211  1  6
 71212  1  0
 71213  1  0
 71214  1  0
 72215  1  0
 72216  1  0
 72217  1  0
 73218  1  1
 74219  1  0
 74220  1  0
 75221  1  0
 76222  1  0
 76223  1  0
 77224  1  0
 77225  1  0
 78226  1  0
 78227  1  0
 79228  1  0
 79229  1  0
 80230  1  0
 80231  1  0
 81232  1  6
 82233  1  0
 83234  1  0
 83235  1  0
 84236  1  6
 85237  1  0
 85238  1  0
 86239  1  0
 86240  1  0
 87241  1  6
 88242  1  1
 90243  1  0
 90244  1  0
 91245  1  0
 91246  1  0
 93247  1  1
 94248  1  0
 94249  1  0
 95250  1  0
 95251  1  0
 96252  1  0
 97253  1  0
 97254  1  0
 97255  1  0
 98256  1  0
 98257  1  0
 98258  1  0
 99259  1  0
100260  1  0
100261  1  0
101262  1  0
102263  1  0
102264  1  0
103265  1  0
103266  1  0
104267  1  0
104268  1  0
M  END
>  <PDBID>  (1) 
3RUK

>  <PDB ID>  (1) 
3RUK

>  <Generic Name>  (1) 
Abiraterone

>  <Brand Name>  (1) 
Zytiga

>  <DrugBank ID>  (1) 
DB05812

>  <ATC Codes>  (1) 
L02BX03

>  <Ligand ID>  (1) 
AER

>  <Target Name>  (1) 
Steroid 17-alpha-hydroxylase/17,20 lyase

>  <UniProt ID>  (1) 
P05093

>  <PDB ID.1>  (1) 
3RUK

>  <Seq. Identity>  (1) 
97%

$$$$
