PDB_DB00806_01
     RDKit          3D

 96 98  0  0  0  0  0  0  0  0999 V2000
   -5.7185   -1.6623   -0.6339 C   0  0  0  0  0  0  0  0  0  0  0  0
   -5.5110   -0.1659   -0.6770 C   0  0  0  0  0  0  0  0  0  0  0  0
   -5.8307    0.3243    0.6058 O   0  0  0  0  0  0  0  0  0  0  0  0
   -4.0750    0.2176   -0.9612 C   0  0  0  0  0  0  0  0  0  0  0  0
   -3.1844   -0.3304    0.1091 C   0  0  0  0  0  0  0  0  0  0  0  0
   -1.7368    0.0817   -0.2001 C   0  0  0  0  0  0  0  0  0  0  0  0
   -0.8089   -0.4587    0.8772 C   0  0  0  0  0  0  0  0  0  0  0  0
    0.4997   -0.0779    0.6095 N   0  0  0  0  0  0  0  0  0  0  0  0
    1.2161   -0.5724   -0.4666 C   0  0  0  0  0  0  0  0  0  0  0  0
    0.7828    0.0792   -1.6489 O   0  0  0  0  0  0  0  0  0  0  0  0
    2.6990   -0.4939   -0.4214 C   0  0  0  0  0  0  0  0  0  0  0  0
    3.2272    0.2071   -1.5725 N   0  0  0  0  0  0  0  0  0  0  0  0
    4.2372   -0.5561   -2.2808 C   0  0  0  0  0  0  0  0  0  0  0  0
    3.8422    1.4208   -1.1070 C   0  0  0  0  0  0  0  0  0  0  0  0
    3.4608    1.5773    0.2486 N   0  0  0  0  0  0  0  0  0  0  0  0
    3.3011    0.2251    0.7437 C   0  0  0  0  0  0  0  0  0  0  0  0
    2.4145    0.2674    1.8365 N   0  0  0  0  0  0  0  0  0  0  0  0
    2.6824   -0.3946    3.0063 C   0  0  0  0  0  0  0  0  0  0  0  0
    1.1519    0.7800    1.5363 C   0  0  0  0  0  0  0  0  0  0  0  0
    1.3090    2.0300    0.9098 O   0  0  0  0  0  0  0  0  0  0  0  0
   -5.7185   -1.6623   -0.6339 C   0  0  0  0  0  0  0  0  0  0  0  0
   -5.5110   -0.1659   -0.6770 C   0  0  0  0  0  0  0  0  0  0  0  0
   -5.8307    0.3243    0.6058 O   0  0  0  0  0  0  0  0  0  0  0  0
   -4.0750    0.2176   -0.9612 C   0  0  0  0  0  0  0  0  0  0  0  0
   -3.1844   -0.3304    0.1091 C   0  0  0  0  0  0  0  0  0  0  0  0
   -1.7368    0.0817   -0.2001 C   0  0  0  0  0  0  0  0  0  0  0  0
   -0.8089   -0.4587    0.8772 C   0  0  0  0  0  0  0  0  0  0  0  0
    0.4997   -0.0779    0.6095 N   0  0  0  0  0  0  0  0  0  0  0  0
    1.2161   -0.5724   -0.4666 C   0  0  0  0  0  0  0  0  0  0  0  0
    0.7828    0.0792   -1.6489 O   0  0  0  0  0  0  0  0  0  0  0  0
    2.6990   -0.4939   -0.4214 C   0  0  0  0  0  0  0  0  0  0  0  0
    3.2272    0.2071   -1.5725 N   0  0  0  0  0  0  0  0  0  0  0  0
    4.2372   -0.5561   -2.2808 C   0  0  0  0  0  0  0  0  0  0  0  0
    3.8422    1.4208   -1.1070 C   0  0  0  0  0  0  0  0  0  0  0  0
    3.4608    1.5773    0.2486 N   0  0  0  0  0  0  0  0  0  0  0  0
    3.3011    0.2251    0.7437 C   0  0  0  0  0  0  0  0  0  0  0  0
    2.4145    0.2674    1.8365 N   0  0  0  0  0  0  0  0  0  0  0  0
    2.6824   -0.3946    3.0063 C   0  0  0  0  0  0  0  0  0  0  0  0
    1.1519    0.7800    1.5363 C   0  0  0  0  0  0  0  0  0  0  0  0
    1.3090    2.0300    0.9098 O   0  0  0  0  0  0  0  0  0  0  0  0
   -5.5441   -2.0938   -1.6408 H   0  0  0  0  0  0  0  0  0  0  0  0
   -5.1189   -2.1474    0.1422 H   0  0  0  0  0  0  0  0  0  0  0  0
   -6.7881   -1.8383   -0.4020 H   0  0  0  0  0  0  0  0  0  0  0  0
   -6.2130    0.2692   -1.4206 H   0  0  0  0  0  0  0  0  0  0  0  0
   -5.3669    1.1812    0.7076 H   0  0  0  0  0  0  0  0  0  0  0  0
   -3.7776   -0.1297   -1.9753 H   0  0  0  0  0  0  0  0  0  0  0  0
   -3.9986    1.3174   -0.9913 H   0  0  0  0  0  0  0  0  0  0  0  0
   -3.4709    0.1162    1.0639 H   0  0  0  0  0  0  0  0  0  0  0  0
   -3.2309   -1.4321    0.0833 H   0  0  0  0  0  0  0  0  0  0  0  0
   -1.4374   -0.3405   -1.1645 H   0  0  0  0  0  0  0  0  0  0  0  0
   -1.7565    1.1922   -0.1774 H   0  0  0  0  0  0  0  0  0  0  0  0
   -1.1404    0.0621    1.8253 H   0  0  0  0  0  0  0  0  0  0  0  0
   -0.9724   -1.5212    1.0720 H   0  0  0  0  0  0  0  0  0  0  0  0
    0.9473   -1.6531   -0.6395 H   0  0  0  0  0  0  0  0  0  0  0  0
    0.8668    1.0582   -1.4722 H   0  0  0  0  0  0  0  0  0  0  0  0
    3.1823   -1.5145   -0.4396 H   0  0  0  0  0  0  0  0  0  0  0  0
    4.8458    0.1933   -2.8581 H   0  0  0  0  0  0  0  0  0  0  0  0
    3.8260   -1.3514   -2.9021 H   0  0  0  0  0  0  0  0  0  0  0  0
    4.9510   -0.9295   -1.4873 H   0  0  0  0  0  0  0  0  0  0  0  0
    4.9655    1.3173   -1.1233 H   0  0  0  0  0  0  0  0  0  0  0  0
    3.5492    2.2845   -1.7512 H   0  0  0  0  0  0  0  0  0  0  0  0
    4.1357    2.0821    0.8604 H   0  0  0  0  0  0  0  0  0  0  0  0
    4.2946   -0.1607    1.0102 H   0  0  0  0  0  0  0  0  0  0  0  0
    3.7109   -0.8262    2.9799 H   0  0  0  0  0  0  0  0  0  0  0  0
    1.9930   -1.2517    3.2668 H   0  0  0  0  0  0  0  0  0  0  0  0
    2.6625    0.2725    3.9040 H   0  0  0  0  0  0  0  0  0  0  0  0
    0.4828    0.9382    2.4006 H   0  0  0  0  0  0  0  0  0  0  0  0
    0.4434    2.4072    0.6159 H   0  0  0  0  0  0  0  0  0  0  0  0
   -5.5441   -2.0938   -1.6408 H   0  0  0  0  0  0  0  0  0  0  0  0
   -5.1189   -2.1474    0.1422 H   0  0  0  0  0  0  0  0  0  0  0  0
   -6.7881   -1.8383   -0.4020 H   0  0  0  0  0  0  0  0  0  0  0  0
   -6.2130    0.2692   -1.4206 H   0  0  0  0  0  0  0  0  0  0  0  0
   -5.3669    1.1812    0.7076 H   0  0  0  0  0  0  0  0  0  0  0  0
   -3.7776   -0.1297   -1.9753 H   0  0  0  0  0  0  0  0  0  0  0  0
   -3.9986    1.3174   -0.9913 H   0  0  0  0  0  0  0  0  0  0  0  0
   -3.4709    0.1162    1.0639 H   0  0  0  0  0  0  0  0  0  0  0  0
   -3.2309   -1.4321    0.0833 H   0  0  0  0  0  0  0  0  0  0  0  0
   -1.4374   -0.3405   -1.1645 H   0  0  0  0  0  0  0  0  0  0  0  0
   -1.7565    1.1922   -0.1774 H   0  0  0  0  0  0  0  0  0  0  0  0
   -1.1404    0.0621    1.8253 H   0  0  0  0  0  0  0  0  0  0  0  0
   -0.9724   -1.5212    1.0720 H   0  0  0  0  0  0  0  0  0  0  0  0
    0.9473   -1.6531   -0.6395 H   0  0  0  0  0  0  0  0  0  0  0  0
    0.8668    1.0582   -1.4722 H   0  0  0  0  0  0  0  0  0  0  0  0
    3.1823   -1.5145   -0.4396 H   0  0  0  0  0  0  0  0  0  0  0  0
    4.8458    0.1933   -2.8581 H   0  0  0  0  0  0  0  0  0  0  0  0
    3.8260   -1.3514   -2.9021 H   0  0  0  0  0  0  0  0  0  0  0  0
    4.9510   -0.9295   -1.4873 H   0  0  0  0  0  0  0  0  0  0  0  0
    4.9655    1.3173   -1.1233 H   0  0  0  0  0  0  0  0  0  0  0  0
    3.5492    2.2845   -1.7512 H   0  0  0  0  0  0  0  0  0  0  0  0
    4.1357    2.0821    0.8604 H   0  0  0  0  0  0  0  0  0  0  0  0
    4.2946   -0.1607    1.0102 H   0  0  0  0  0  0  0  0  0  0  0  0
    3.7109   -0.8262    2.9799 H   0  0  0  0  0  0  0  0  0  0  0  0
    1.9930   -1.2517    3.2668 H   0  0  0  0  0  0  0  0  0  0  0  0
    2.6625    0.2725    3.9040 H   0  0  0  0  0  0  0  0  0  0  0  0
    0.4828    0.9382    2.4006 H   0  0  0  0  0  0  0  0  0  0  0  0
    0.4434    2.4072    0.6159 H   0  0  0  0  0  0  0  0  0  0  0  0
  1  2  1  0
  2  3  1  0
  2  4  1  0
  4  5  1  0
  5  6  1  0
  6  7  1  0
  7  8  1  0
  8  9  1  0
  9 10  1  0
  9 11  1  0
 11 12  1  0
 12 13  1  0
 12 14  1  0
 14 15  1  0
 11 16  1  0
 15 16  1  0
 16 17  1  0
 17 18  1  0
  8 19  1  0
 17 19  1  0
 19 20  1  0
 21 22  1  0
 22 23  1  0
 22 24  1  0
 24 25  1  0
 25 26  1  0
 26 27  1  0
 27 28  1  0
 28 29  1  0
 29 30  1  0
 29 31  1  0
 31 32  1  0
 32 33  1  0
 32 34  1  0
 34 35  1  0
 31 36  1  0
 35 36  1  0
 36 37  1  0
 37 38  1  0
 28 39  1  0
 37 39  1  0
 39 40  1  0
  1 41  1  0
  1 42  1  0
  1 43  1  0
  2 44  1  0
  3 45  1  0
  4 46  1  0
  4 47  1  0
  5 48  1  0
  5 49  1  0
  6 50  1  0
  6 51  1  0
  7 52  1  0
  7 53  1  0
  9 54  1  0
 10 55  1  0
 11 56  1  0
 13 57  1  0
 13 58  1  0
 13 59  1  0
 14 60  1  0
 14 61  1  0
 15 62  1  0
 16 63  1  0
 18 64  1  0
 18 65  1  0
 18 66  1  0
 19 67  1  0
 20 68  1  0
 21 69  1  0
 21 70  1  0
 21 71  1  0
 22 72  1  0
 23 73  1  0
 24 74  1  0
 24 75  1  0
 25 76  1  0
 25 77  1  0
 26 78  1  0
 26 79  1  0
 27 80  1  0
 27 81  1  0
 29 82  1  0
 30 83  1  0
 31 84  1  0
 33 85  1  0
 33 86  1  0
 33 87  1  0
 34 88  1  0
 34 89  1  0
 35 90  1  0
 36 91  1  0
 38 92  1  0
 38 93  1  0
 38 94  1  0
 39 95  1  0
 40 96  1  0
M  END
>  <PDBID>  (1) 
3TVX

>  <PDB ID>  (1) 
3TVX

>  <Generic Name>  (1) 
Pentoxifylline

>  <Brand Name>  (1) 
Gapeam Budibac#Nu-pentoxifylline-SR 400 mg#Pentoxifylline#Pentoxifylline SR#Ratio-pentoxifylline#Trental#Trental Srt 400mg#Trental Tab 400mg#Agapurin#Agapurin SR#An Ruo Ning#Angiopent#Ao Le Ni#Ao Nuo Hong#Aotong#Azupentat#Behrifil#Bo Shu Te#Claudicat#Durapental#Elorgan#Endopentoksas#Pentilin#Pentilin Retard#Pentoflux#Pentofyllin#Pentoksifilin#Pentolab#Pentomer#Pentoxil#Rentylin#Torental#Trentilin Retard

>  <DrugBank ID>  (1) 
DB00806

>  <ATC Codes>  (1) 
C04AD03

>  <Ligand ID>  (1) 
PNX

>  <Target Name>  (1) 
cAMP-specific 3',5'-cyclic phosphodiesterase 4B

>  <UniProt ID>  (1) 
Q07343

>  <PDB ID.1>  (1) 
3TVX

>  <Seq. Identity>  (1) 
84%

$$$$
