PDB_DB00696_07
     RDKit          3D

100107  0  0  0  0  0  0  0  0999 V2000
   -8.1782    1.6033   -0.6301 C   0  0  0  0  0  0  0  0  0  0  0  0
   -8.9377    0.5452   -0.0352 N   0  0  0  0  0  0  0  0  0  0  0  0
   -0.5691   -0.0134    1.5256 O   0  0  0  0  0  0  0  0  0  0  0  0
   -6.0968   -1.7141    1.6292 C   0  0  0  0  0  0  0  0  0  0  0  0
   -7.2617   -1.4527    2.5906 C   0  0  0  0  0  0  0  0  0  0  0  0
   -8.4940   -0.9608    1.8671 C   0  0  0  0  0  0  0  0  0  0  0  0
   -8.0212   -0.3951    0.5459 C   0  0  0  0  0  0  0  0  0  0  0  0
   -6.7996    0.4688    0.8754 C   0  0  0  0  0  0  0  0  0  0  0  0
   -4.1527    0.9532   -3.2110 C   0  0  0  0  0  0  0  0  0  0  0  0
   -0.9516   -0.2322    0.1931 C   0  0  0  0  0  0  0  0  0  0  0  0
    1.3110    0.6282   -0.0586 C   0  0  2  0  0  0  0  0  0  0  0  0
    1.9839   -0.4993    0.6954 C   0  0  0  0  0  0  0  0  0  0  0  0
    4.3936   -0.1180    0.3168 C   0  0  2  0  0  0  0  0  0  0  0  0
   -3.8851    0.8052   -1.7848 N   0  0  0  0  0  0  0  0  0  0  0  0
   -6.7173    1.3276   -0.3352 C   0  0  0  0  0  0  0  0  0  0  0  0
    2.2108    0.9512   -1.0682 O   0  0  0  0  0  0  0  0  0  0  0  0
    5.3434   -0.7758   -0.6234 C   0  0  0  0  0  0  0  0  0  0  0  0
    5.9919   -0.6611   -2.9184 C   0  0  0  0  0  0  0  0  0  0  0  0
    5.1796   -1.6182   -3.7489 C   0  0  0  0  0  0  0  0  0  0  0  0
    3.7697   -1.4800   -3.2743 C   0  0  0  0  0  0  0  0  0  0  0  0
    3.8073   -0.2515   -2.4031 C   0  0  1  0  0  0  0  0  0  0  0  0
    2.7521   -0.3019   -1.3696 C   0  0  1  0  0  0  0  0  0  0  0  0
    1.1351    1.8679    0.7687 C   0  0  0  0  0  0  0  0  0  0  0  0
    4.5324   -0.2757    1.7580 C   0  0  0  0  0  0  0  0  0  0  0  0
    5.7372    0.0862    2.5251 C   0  0  0  0  0  0  0  0  0  0  0  0
    6.9406   -0.6794    2.1691 C   0  0  0  0  0  0  0  0  0  0  0  0
   -6.1972    0.4693   -1.4641 C   0  0  0  0  0  0  0  0  0  0  0  0
    0.1041    0.1661   -0.7092 N   0  0  0  0  0  0  0  0  0  0  0  0
    1.1361   -1.6476    0.5235 O   0  0  0  0  0  0  0  0  0  0  0  0
    8.1403    0.0138    1.6680 C   0  0  0  0  0  0  0  0  0  0  0  0
    7.8946    1.4190    1.1599 C   0  0  0  0  0  0  0  0  0  0  0  0
    7.2326    2.1228    2.3377 C   0  0  0  0  0  0  0  0  0  0  0  0
    5.8737    1.5784    2.5963 C   0  0  0  0  0  0  0  0  0  0  0  0
   -4.8444   -0.1102   -1.1809 C   0  0  2  0  0  0  0  0  0  0  0  0
    3.1249   -0.7837   -0.0692 N   0  0  0  0  0  0  0  0  0  0  0  0
    5.0146   -2.1023   -0.9000 O   0  0  0  0  0  0  0  0  0  0  0  0
   -2.5446    0.2807   -1.5700 C   0  0  0  0  0  0  0  0  0  0  0  0
    5.1307   -0.0838   -1.9293 N   0  0  0  0  0  0  0  0  0  0  0  0
    1.7408   -1.1697   -1.8259 O   0  0  0  0  0  0  0  0  0  0  0  0
   -2.1686    0.6018   -0.1476 C   0  0  1  0  0  0  0  0  0  0  0  0
   -3.3282    0.4312    0.7491 C   0  0  0  0  0  0  0  0  0  0  0  0
   -4.4901   -0.3675    0.2187 C   0  0  1  0  0  0  0  0  0  0  0  0
   -5.6131   -0.3331    1.2094 C   0  0  0  0  0  0  0  0  0  0  0  0
   -8.4929    2.5591   -0.1572 H   0  0  0  0  0  0  0  0  0  0  0  0
   -8.3413    1.6544   -1.7433 H   0  0  0  0  0  0  0  0  0  0  0  0
   -9.4608    0.0478   -0.8035 H   0  0  0  0  0  0  0  0  0  0  0  0
   -0.9932   -0.6417    2.1586 H   0  0  0  0  0  0  0  0  0  0  0  0
   -6.3532   -2.3662    0.8009 H   0  0  0  0  0  0  0  0  0  0  0  0
   -5.2948   -2.1491    2.2741 H   0  0  0  0  0  0  0  0  0  0  0  0
   -6.9250   -0.5973    3.2364 H   0  0  0  0  0  0  0  0  0  0  0  0
   -7.4439   -2.2903    3.2576 H   0  0  0  0  0  0  0  0  0  0  0  0
   -9.1331   -1.8449    1.6189 H   0  0  0  0  0  0  0  0  0  0  0  0
   -9.0617   -0.1992    2.4423 H   0  0  0  0  0  0  0  0  0  0  0  0
   -7.7905   -1.2471   -0.0920 H   0  0  0  0  0  0  0  0  0  0  0  0
   -7.1411    1.1292    1.7209 H   0  0  0  0  0  0  0  0  0  0  0  0
   -4.6250    1.9426   -3.3515 H   0  0  0  0  0  0  0  0  0  0  0  0
   -4.8661    0.1901   -3.5852 H   0  0  0  0  0  0  0  0  0  0  0  0
   -3.1948    0.9684   -3.7698 H   0  0  0  0  0  0  0  0  0  0  0  0
   -1.1785   -1.2786    0.0573 H   0  0  0  0  0  0  0  0  0  0  0  0
    2.0340   -0.3752    1.7572 H   0  0  0  0  0  0  0  0  0  0  0  0
    4.2237    0.9543    0.0267 H   0  0  0  0  0  0  0  0  0  0  0  0
   -6.1288    2.2439   -0.1828 H   0  0  0  0  0  0  0  0  0  0  0  0
    6.4140   -0.6187   -0.4583 H   0  0  0  0  0  0  0  0  0  0  0  0
    6.3527    0.1503   -3.5962 H   0  0  0  0  0  0  0  0  0  0  0  0
    6.8570   -1.1700   -2.4859 H   0  0  0  0  0  0  0  0  0  0  0  0
    5.2899   -1.4091   -4.8278 H   0  0  0  0  0  0  0  0  0  0  0  0
    5.4756   -2.6776   -3.6059 H   0  0  0  0  0  0  0  0  0  0  0  0
    3.3669   -2.3621   -2.7591 H   0  0  0  0  0  0  0  0  0  0  0  0
    3.1216   -1.3081   -4.1753 H   0  0  0  0  0  0  0  0  0  0  0  0
    3.5775    0.6212   -3.0831 H   0  0  0  0  0  0  0  0  0  0  0  0
    2.0699    2.5035    0.6950 H   0  0  0  0  0  0  0  0  0  0  0  0
    1.0902    1.5976    1.8433 H   0  0  0  0  0  0  0  0  0  0  0  0
    0.3257    2.5130    0.4327 H   0  0  0  0  0  0  0  0  0  0  0  0
    4.1728   -1.2818    2.1442 H   0  0  0  0  0  0  0  0  0  0  0  0
    3.7183    0.4170    2.2012 H   0  0  0  0  0  0  0  0  0  0  0  0
    5.4888   -0.2113    3.6056 H   0  0  0  0  0  0  0  0  0  0  0  0
    7.3312   -1.2428    3.1092 H   0  0  0  0  0  0  0  0  0  0  0  0
    6.7501   -1.5939    1.5289 H   0  0  0  0  0  0  0  0  0  0  0  0
   -6.1989    1.1188   -2.3669 H   0  0  0  0  0  0  0  0  0  0  0  0
   -6.9390   -0.3257   -1.6741 H   0  0  0  0  0  0  0  0  0  0  0  0
   -0.2241    0.9315   -1.3807 H   0  0  0  0  0  0  0  0  0  0  0  0
    1.7614   -2.4081    0.7496 H   0  0  0  0  0  0  0  0  0  0  0  0
    8.6457   -0.6128    0.9010 H   0  0  0  0  0  0  0  0  0  0  0  0
    8.8700    0.1522    2.5235 H   0  0  0  0  0  0  0  0  0  0  0  0
    7.2882    1.4837    0.2596 H   0  0  0  0  0  0  0  0  0  0  0  0
    8.8947    1.8838    1.0227 H   0  0  0  0  0  0  0  0  0  0  0  0
    7.9415    2.0195    3.2034 H   0  0  0  0  0  0  0  0  0  0  0  0
    7.1707    3.1873    2.1085 H   0  0  0  0  0  0  0  0  0  0  0  0
    5.5465    1.9799    3.5807 H   0  0  0  0  0  0  0  0  0  0  0  0
    5.1769    2.0955    1.8698 H   0  0  0  0  0  0  0  0  0  0  0  0
   -4.7734   -1.0369   -1.8307 H   0  0  0  0  0  0  0  0  0  0  0  0
    5.0691   -2.6892   -0.1174 H   0  0  0  0  0  0  0  0  0  0  0  0
   -1.8950    0.6993   -2.3386 H   0  0  0  0  0  0  0  0  0  0  0  0
   -2.6556   -0.8357   -1.7134 H   0  0  0  0  0  0  0  0  0  0  0  0
    1.6228   -1.0822   -2.7933 H   0  0  0  0  0  0  0  0  0  0  0  0
   -1.8200    1.6656   -0.1639 H   0  0  0  0  0  0  0  0  0  0  0  0
   -2.9731   -0.1321    1.6698 H   0  0  0  0  0  0  0  0  0  0  0  0
   -3.6610    1.4147    1.1585 H   0  0  0  0  0  0  0  0  0  0  0  0
   -4.1161   -1.4433    0.2612 H   0  0  0  0  0  0  0  0  0  0  0  0
   -5.1958    0.0955    2.1714 H   0  0  0  0  0  0  0  0  0  0  0  0
  1  2  1  0
  4  5  1  0
  5  6  1  0
  2  7  1  0
  6  7  1  0
  7  8  1  0
  3 10  1  0
 11 12  1  0
  9 14  1  0
  1 15  1  0
  8 15  1  0
 11 16  1  0
 13 17  1  0
 18 19  1  0
 19 20  1  0
 20 21  1  0
 16 22  1  0
 21 22  1  0
 11 23  1  0
 13 24  1  0
 24 25  1  0
 25 26  1  0
 15 27  1  0
 10 28  1  0
 11 28  1  6
 12 29  1  0
 26 30  1  0
 30 31  1  0
 31 32  1  0
 25 33  1  0
 32 33  1  0
 14 34  1  0
 27 34  1  0
 12 35  1  0
 13 35  1  0
 22 35  1  0
 17 36  1  0
 14 37  1  0
 17 38  1  0
 18 38  1  0
 21 38  1  0
 22 39  1  6
 10 40  1  0
 37 40  1  0
 40 41  1  0
 34 42  1  0
 41 42  1  0
  4 43  1  0
  8 43  1  0
 42 43  1  0
  1 44  1  0
  1 45  1  0
  2 46  1  0
  3 47  1  0
  4 48  1  0
  4 49  1  0
  5 50  1  0
  5 51  1  0
  6 52  1  0
  6 53  1  0
  7 54  1  0
  8 55  1  0
  9 56  1  0
  9 57  1  0
  9 58  1  0
 10 59  1  0
 12 60  1  0
 13 61  1  1
 15 62  1  0
 17 63  1  0
 18 64  1  0
 18 65  1  0
 19 66  1  0
 19 67  1  0
 20 68  1  0
 20 69  1  0
 21 70  1  6
 23 71  1  0
 23 72  1  0
 23 73  1  0
 24 74  1  0
 24 75  1  0
 25 76  1  0
 26 77  1  0
 26 78  1  0
 27 79  1  0
 27 80  1  0
 28 81  1  0
 29 82  1  0
 30 83  1  0
 30 84  1  0
 31 85  1  0
 31 86  1  0
 32 87  1  0
 32 88  1  0
 33 89  1  0
 33 90  1  0
 34 91  1  6
 36 92  1  0
 37 93  1  0
 37 94  1  0
 39 95  1  0
 40 96  1  6
 41 97  1  0
 41 98  1  0
 42 99  1  6
 43100  1  0
M  END
>  <PDBID>  (1) 
4IB4

>  <PDB ID>  (1) 
4IB4

>  <Generic Name>  (1) 
Ergotamine

>  <Brand Name>  (1) 
Cafergot#Cafergot Sup#Cafergot Tab#Ergodryl Cap#Ergomar#Ergomar Slt 2mg#Ergomar Sublingual#Ergotamine#Ergotamine Tartrate and Caffeine#Gravergol Capsules#Megral Tabs#Migergot#Anervan#Antimigraine#Enxak#Ergam#Ergo-Kranit#Gynaemine#Wigrettes

>  <DrugBank ID>  (1) 
DB00696

>  <ATC Codes>  (1) 
N02CA52#N02CA72#N02CA02

>  <Ligand ID>  (1) 
ERM

>  <Target Name>  (1) 
5-hydroxytryptamine receptor 2A

>  <UniProt ID>  (1) 
P28223

>  <PDB ID.1>  (1) 
4IB4

>  <Seq. Identity>  (1) 
58%

$$$$
