PDB_DB00275_09
     RDKit          3D

 81 84  0  0  0  0  0  0  0  0999 V2000
    2.3179   -0.9158    0.5017 C   0  0  0  0  0  0  0  0  0  0  0  0
    1.2202   -0.0748    1.1784 C   0  0  0  0  0  0  0  0  0  0  0  0
   -6.5567    0.1150   -1.2493 O   0  0  0  0  0  0  0  0  0  0  0  0
    0.0548    0.2015    0.2398 C   0  0  0  0  0  0  0  0  0  0  0  0
   -3.3669   -2.2447    1.4946 O   0  0  0  0  0  0  0  0  0  0  0  0
   -1.2447    0.1194    0.9533 C   0  0  0  0  0  0  0  0  0  0  0  0
   -3.3680   -3.1299   -0.6256 O   0  0  0  0  0  0  0  0  0  0  0  0
   -4.5612    4.2986    2.2271 C   0  0  0  0  0  0  0  0  0  0  0  0
   -4.5345    2.7651    2.2201 C   0  0  0  0  0  0  0  0  0  0  0  0
   -3.4882    2.2602    1.2769 C   0  0  0  0  0  0  0  0  0  0  0  0
   -3.4469    0.7402    1.2385 C   0  0  0  0  0  0  0  0  0  0  0  0
   -4.6639    0.1609    0.8245 N   0  0  0  0  0  0  0  0  0  0  0  0
   -4.4299   -0.2172   -0.5316 C   0  0  0  0  0  0  0  0  0  0  0  0
   -5.5011   -0.8538   -1.2747 C   0  0  0  0  0  0  0  0  0  0  0  0
   -6.1281   -2.0966   -0.7617 C   0  0  0  0  0  0  0  0  0  0  0  0
   -5.1147   -0.9397   -2.7380 C   0  0  0  0  0  0  0  0  0  0  0  0
   -3.0587   -0.7892   -0.4349 C   0  0  0  0  0  0  0  0  0  0  0  0
   -2.8919   -2.0929    0.2021 C   0  0  0  0  0  0  0  0  0  0  0  0
   -2.4164    0.3353    0.2278 N   0  0  0  0  0  0  0  0  0  0  0  0
    0.2052   -0.6232   -0.9633 C   0  0  0  0  0  0  0  0  0  0  0  0
    1.5199   -0.3577   -1.6966 C   0  0  0  0  0  0  0  0  0  0  0  0
    2.6880   -0.2105   -0.7412 C   0  0  0  0  0  0  0  0  0  0  0  0
    3.9881   -0.4573   -1.3833 C   0  0  0  0  0  0  0  0  0  0  0  0
    4.2748   -1.8704   -1.8198 C   0  0  0  0  0  0  0  0  0  0  0  0
    4.7410   -2.7800   -0.7277 C   0  0  0  0  0  0  0  0  0  0  0  0
    6.1186   -2.2329   -0.3215 C   0  0  0  0  0  0  0  0  0  0  0  0
    5.8966   -0.8716    0.2386 C   0  0  0  0  0  0  0  0  0  0  0  0
    5.2095    0.0469   -0.7265 C   0  0  0  0  0  0  0  0  0  0  0  0
    5.1013    1.4586   -0.2059 C   0  0  0  0  0  0  0  0  0  0  0  0
    4.7960    2.4077   -1.2622 N   0  0  0  0  0  0  0  0  0  0  0  0
    5.0948    3.6238   -0.5963 N   0  0  0  0  0  0  0  0  0  0  0  0
    6.1062    3.3456    0.3131 N   0  0  0  0  0  0  0  0  0  0  0  0
    6.3855    1.9753    0.2399 N   0  0  0  0  0  0  0  0  0  0  0  0
    3.0916   -0.9465    1.3038 H   0  0  0  0  0  0  0  0  0  0  0  0
    1.8554   -1.9126    0.3484 H   0  0  0  0  0  0  0  0  0  0  0  0
    0.8308   -0.7146    2.0018 H   0  0  0  0  0  0  0  0  0  0  0  0
    1.6726    0.8254    1.5855 H   0  0  0  0  0  0  0  0  0  0  0  0
   -6.3079    0.8454   -1.8644 H   0  0  0  0  0  0  0  0  0  0  0  0
    0.2498    1.2795   -0.0950 H   0  0  0  0  0  0  0  0  0  0  0  0
   -2.9858   -3.0722    1.8531 H   0  0  0  0  0  0  0  0  0  0  0  0
   -1.1837    0.9221    1.7647 H   0  0  0  0  0  0  0  0  0  0  0  0
   -1.2223   -0.8033    1.5815 H   0  0  0  0  0  0  0  0  0  0  0  0
   -3.1419   -4.0193   -0.2848 H   0  0  0  0  0  0  0  0  0  0  0  0
   -4.6384    4.6292    1.1502 H   0  0  0  0  0  0  0  0  0  0  0  0
   -3.6156    4.6862    2.6199 H   0  0  0  0  0  0  0  0  0  0  0  0
   -5.4537    4.6664    2.7363 H   0  0  0  0  0  0  0  0  0  0  0  0
   -4.2695    2.5003    3.2863 H   0  0  0  0  0  0  0  0  0  0  0  0
   -5.5402    2.3586    2.0483 H   0  0  0  0  0  0  0  0  0  0  0  0
   -3.5962    2.6836    0.2491 H   0  0  0  0  0  0  0  0  0  0  0  0
   -2.4988    2.5933    1.6473 H   0  0  0  0  0  0  0  0  0  0  0  0
   -3.1557    0.3932    2.2415 H   0  0  0  0  0  0  0  0  0  0  0  0
   -4.9605   -0.5903    1.4678 H   0  0  0  0  0  0  0  0  0  0  0  0
   -4.2666    0.7881   -1.0527 H   0  0  0  0  0  0  0  0  0  0  0  0
   -5.9825   -2.9825   -1.4156 H   0  0  0  0  0  0  0  0  0  0  0  0
   -5.8172   -2.2690    0.2844 H   0  0  0  0  0  0  0  0  0  0  0  0
   -7.2579   -2.0230   -0.7123 H   0  0  0  0  0  0  0  0  0  0  0  0
   -4.0569   -0.6790   -2.9315 H   0  0  0  0  0  0  0  0  0  0  0  0
   -5.3564   -1.9747   -3.1075 H   0  0  0  0  0  0  0  0  0  0  0  0
   -5.7104   -0.2623   -3.3945 H   0  0  0  0  0  0  0  0  0  0  0  0
   -2.6792   -0.8350   -1.4543 H   0  0  0  0  0  0  0  0  0  0  0  0
   -1.8007   -2.3190    0.2725 H   0  0  0  0  0  0  0  0  0  0  0  0
   -0.5667   -0.3269   -1.7161 H   0  0  0  0  0  0  0  0  0  0  0  0
    0.1669   -1.7134   -0.8286 H   0  0  0  0  0  0  0  0  0  0  0  0
    1.3561    0.5978   -2.2697 H   0  0  0  0  0  0  0  0  0  0  0  0
    1.6137   -1.1501   -2.4300 H   0  0  0  0  0  0  0  0  0  0  0  0
    2.6779    0.8941   -0.4707 H   0  0  0  0  0  0  0  0  0  0  0  0
    3.9293    0.0864   -2.3922 H   0  0  0  0  0  0  0  0  0  0  0  0
    3.4892   -2.2979   -2.4657 H   0  0  0  0  0  0  0  0  0  0  0  0
    5.1685   -1.7759   -2.5172 H   0  0  0  0  0  0  0  0  0  0  0  0
    4.1288   -2.7734    0.1674 H   0  0  0  0  0  0  0  0  0  0  0  0
    4.9286   -3.7647   -1.1665 H   0  0  0  0  0  0  0  0  0  0  0  0
    6.7453   -2.1483   -1.2343 H   0  0  0  0  0  0  0  0  0  0  0  0
    6.5636   -2.8702    0.4618 H   0  0  0  0  0  0  0  0  0  0  0  0
    5.4691   -0.9492    1.2238 H   0  0  0  0  0  0  0  0  0  0  0  0
    6.9299   -0.4280    0.3904 H   0  0  0  0  0  0  0  0  0  0  0  0
    5.9747    0.1321   -1.5665 H   0  0  0  0  0  0  0  0  0  0  0  0
    4.4230    1.5579    0.6591 H   0  0  0  0  0  0  0  0  0  0  0  0
    5.4885    2.3259   -2.0126 H   0  0  0  0  0  0  0  0  0  0  0  0
    4.2475    4.0579   -0.1961 H   0  0  0  0  0  0  0  0  0  0  0  0
    6.9596    3.9194    0.1848 H   0  0  0  0  0  0  0  0  0  0  0  0
    7.1576    1.7623   -0.4172 H   0  0  0  0  0  0  0  0  0  0  0  0
  1  2  1  0
  2  4  1  0
  4  6  1  0
  8  9  1  0
  9 10  1  0
 10 11  1  0
 11 12  1  0
 12 13  1  0
 14  3  1  0
 13 14  1  0
 14 15  1  0
 14 16  1  0
 13 17  1  0
  5 18  1  0
  7 18  1  0
 17 18  1  0
  6 19  1  0
 11 19  1  0
 17 19  1  0
  4 20  1  0
 20 21  1  0
  1 22  1  0
 21 22  1  0
 22 23  1  0
 23 24  1  0
 24 25  1  0
 25 26  1  0
 26 27  1  0
 23 28  1  0
 27 28  1  0
 28 29  1  0
 29 30  1  0
 30 31  1  0
 31 32  1  0
 29 33  1  0
 32 33  1  0
  1 34  1  0
  1 35  1  0
  2 36  1  0
  2 37  1  0
  3 38  1  0
  4 39  1  0
  5 40  1  0
  6 41  1  0
  6 42  1  0
  7 43  1  0
  8 44  1  0
  8 45  1  0
  8 46  1  0
  9 47  1  0
  9 48  1  0
 10 49  1  0
 10 50  1  0
 11 51  1  0
 12 52  1  0
 13 53  1  0
 15 54  1  0
 15 55  1  0
 15 56  1  0
 16 57  1  0
 16 58  1  0
 16 59  1  0
 17 60  1  0
 18 61  1  0
 20 62  1  0
 20 63  1  0
 21 64  1  0
 21 65  1  0
 22 66  1  0
 23 67  1  0
 24 68  1  0
 24 69  1  0
 25 70  1  0
 25 71  1  0
 26 72  1  0
 26 73  1  0
 27 74  1  0
 27 75  1  0
 28 76  1  0
 29 77  1  0
 30 78  1  0
 31 79  1  0
 32 80  1  0
 33 81  1  0
M  END
>  <PDBID>  (1) 
4ZUD

>  <PDB ID>  (1) 
4ZUD

>  <Generic Name>  (1) 
Olmesartan

>  <Brand Name>  (1) 
Amlodipine Besylate and Olmesartan Medoxomil#Amlodipine and Olmesartan Medoxomil#Azor#Benicar#Benicar Hct#Olmesartan Medoxmil and Hydrochlorothiazide#Olmesartan Medoxomil#Olmesartan Medoxomil / Amlodipine Besylate / Hydrochlorothiazide#Olmesartan Medoxomil and Hydrochlorothiazide#Olmesartan Medoxomil, Amlodipine and Hydrochlorothiazide#Olmesartan Medoxomil, Amlodipine and Hydrochlorothiazide 20/5/12.5 mg#Olmesartan Medoxomil, Amlodipine and Hydrochlorothiazide 40/10/12.5 mg#Olmesartan Medoxomil, Amlodipine and Hydrochlorothiazide 40/10/25 mg#Olmesartan Medoxomil, Amlodipine and Hydrochlorothiazide 40/5/12.5 mg#Olmesartan Medoxomil, Amlodipine and Hydrochlorothiazide 40/5/25 mg#Olmetec#Olmetec Plus#Tribenzor#Erastapex#Golme#Olmetec#WinBP

>  <DrugBank ID>  (1) 
DB00275

>  <ATC Codes>  (1) 
C09DA08#C09CA08#C09DX03#C09DB02

>  <Ligand ID>  (1) 
OLM

>  <Target Name>  (1) 
Type-1 angiotensin II receptor

>  <UniProt ID>  (1) 
P30556

>  <PDB ID.1>  (1) 
4ZUD

>  <Seq. Identity>  (1) 
87%

$$$$
