PDB_DB08877_08
     RDKit          3D

114120  0  0  0  0  0  0  0  0999 V2000
   -2.5715   -2.0402   -0.8263 C   0  0  0  0  0  0  0  0  0  0  0  0
   -3.7940   -3.0059   -0.7652 C   0  0  0  0  0  0  0  0  0  0  0  0
   -4.8975   -2.0418   -1.1815 C   0  0  0  0  0  0  0  0  0  0  0  0
   -4.5631   -0.8017   -0.4128 C   0  0  0  0  0  0  0  0  0  0  0  0
   -3.0871   -0.9229   -0.0135 C   0  0  0  0  0  0  0  0  0  0  0  0
   -2.4404    0.4272   -0.1907 C   0  0  1  0  0  0  0  0  0  0  0  0
   -3.2554    1.3288    0.7611 C   0  0  0  0  0  0  0  0  0  0  0  0
   -2.8342    2.7449    0.8004 C   0  0  0  0  0  0  0  0  0  0  0  0
   -3.7469    3.4967    1.7105 N   0  0  0  0  0  0  0  0  0  0  0  0
   -1.0903    0.4470    0.2690 N   0  0  0  0  0  0  0  0  0  0  0  0
   -0.1684   -0.4466   -0.3745 C   0  0  0  0  0  0  0  0  0  0  0  0
   -0.5912    1.7527   -0.0863 N   0  0  0  0  0  0  0  0  0  0  0  0
    0.8191    1.5652    0.2948 C   0  0  0  0  0  0  0  0  0  0  0  0
    1.1222    0.3507   -0.5578 C   0  0  0  0  0  0  0  0  0  0  0  0
    2.3134   -0.3804   -0.0329 C   0  0  0  0  0  0  0  0  0  0  0  0
    2.2124   -0.6720    1.3855 N   0  0  0  0  0  0  0  0  0  0  0  0
    3.2710   -1.6195    1.6863 C   0  0  0  0  0  0  0  0  0  0  0  0
    4.5510   -1.0585    1.4047 N   0  0  0  0  0  0  0  0  0  0  0  0
    4.5690    0.2532    0.8577 C   0  0  0  0  0  0  0  0  0  0  0  0
    3.5299    0.5002   -0.2036 C   0  0  0  0  0  0  0  0  0  0  0  0
    4.2028    0.2861   -1.5339 C   0  0  0  0  0  0  0  0  0  0  0  0
    5.5462   -0.2582   -1.1282 C   0  0  0  0  0  0  0  0  0  0  0  0
    5.8082    0.4307    0.1220 N   0  0  0  0  0  0  0  0  0  0  0  0
   -1.9620   -1.7508   -0.4935 C   0  0  0  0  0  0  0  0  0  0  0  0
   -3.0883   -2.7902   -0.7618 C   0  0  0  0  0  0  0  0  0  0  0  0
   -3.9954   -1.8977   -1.5932 C   0  0  0  0  0  0  0  0  0  0  0  0
   -4.0405   -0.6335   -0.7243 C   0  0  0  0  0  0  0  0  0  0  0  0
   -2.7962   -0.6440    0.1329 C   0  0  0  0  0  0  0  0  0  0  0  0
   -2.1550    0.6793    0.1677 C   0  0  1  0  0  0  0  0  0  0  0  0
   -2.9618    1.7530    0.8121 C   0  0  0  0  0  0  0  0  0  0  0  0
   -4.2719    2.1349    0.2388 C   0  0  0  0  0  0  0  0  0  0  0  0
   -4.8524    3.2651    1.0286 N   0  0  0  0  0  0  0  0  0  0  0  0
   -0.8406    0.7515    0.7719 N   0  0  0  0  0  0  0  0  0  0  0  0
    0.2311    0.1009    0.1306 C   0  0  0  0  0  0  0  0  0  0  0  0
   -0.5236    2.1076    0.8942 N   0  0  0  0  0  0  0  0  0  0  0  0
    0.9151    2.1250    1.2107 C   0  0  0  0  0  0  0  0  0  0  0  0
    1.3985    1.0879    0.2313 C   0  0  0  0  0  0  0  0  0  0  0  0
    2.6395    0.4568    0.7244 C   0  0  1  0  0  0  0  0  0  0  0  0
    2.5863   -0.1409    2.0220 N   0  0  0  0  0  0  0  0  0  0  0  0
    3.2791   -1.4009    2.1069 C   0  0  0  0  0  0  0  0  0  0  0  0
    4.5945   -1.4006    1.5122 N   0  0  0  0  0  0  0  0  0  0  0  0
    4.6580   -0.7557    0.2455 C   0  0  0  0  0  0  0  0  0  0  0  0
    3.1989   -0.5863   -0.2162 C   0  0  0  0  0  0  0  0  0  0  0  0
    3.4068   -0.1196   -1.6103 C   0  0  0  0  0  0  0  0  0  0  0  0
    4.6123   -0.9316   -2.0563 C   0  0  0  0  0  0  0  0  0  0  0  0
    5.1781   -1.5240   -0.8342 N   0  0  0  0  0  0  0  0  0  0  0  0
   -1.7499   -2.6280   -0.4216 H   0  0  0  0  0  0  0  0  0  0  0  0
   -2.4952   -1.8190   -1.9154 H   0  0  0  0  0  0  0  0  0  0  0  0
   -3.9959   -3.3078    0.2704 H   0  0  0  0  0  0  0  0  0  0  0  0
   -3.6715   -3.8278   -1.4708 H   0  0  0  0  0  0  0  0  0  0  0  0
   -4.7807   -1.8577   -2.2547 H   0  0  0  0  0  0  0  0  0  0  0  0
   -5.9028   -2.4299   -0.9086 H   0  0  0  0  0  0  0  0  0  0  0  0
   -5.2162   -0.7467    0.4752 H   0  0  0  0  0  0  0  0  0  0  0  0
   -4.7200    0.0678   -1.0921 H   0  0  0  0  0  0  0  0  0  0  0  0
   -3.0353   -1.2202    1.0719 H   0  0  0  0  0  0  0  0  0  0  0  0
   -2.5845    0.7624   -1.2182 H   0  0  0  0  0  0  0  0  0  0  0  0
   -3.1983    0.8685    1.7788 H   0  0  0  0  0  0  0  0  0  0  0  0
   -4.3427    1.2859    0.4989 H   0  0  0  0  0  0  0  0  0  0  0  0
   -2.8780    3.2824   -0.1602 H   0  0  0  0  0  0  0  0  0  0  0  0
   -1.8449    2.9004    1.3399 H   0  0  0  0  0  0  0  0  0  0  0  0
   -3.6452    2.9977    2.6221 H   0  0  0  0  0  0  0  0  0  0  0  0
   -3.3072    4.4279    1.8200 H   0  0  0  0  0  0  0  0  0  0  0  0
    0.0257   -1.3179    0.2987 H   0  0  0  0  0  0  0  0  0  0  0  0
   -0.4855   -0.8264   -1.3512 H   0  0  0  0  0  0  0  0  0  0  0  0
   -0.5748    1.7073   -1.1498 H   0  0  0  0  0  0  0  0  0  0  0  0
    0.8056    1.3381    1.3700 H   0  0  0  0  0  0  0  0  0  0  0  0
    1.4211    2.4460    0.0248 H   0  0  0  0  0  0  0  0  0  0  0  0
    1.2678    0.6982   -1.5814 H   0  0  0  0  0  0  0  0  0  0  0  0
    2.5189   -1.3205   -0.5588 H   0  0  0  0  0  0  0  0  0  0  0  0
    2.4357    0.1928    1.9533 H   0  0  0  0  0  0  0  0  0  0  0  0
    3.1873   -1.9366    2.7668 H   0  0  0  0  0  0  0  0  0  0  0  0
    3.1527   -2.5259    1.0392 H   0  0  0  0  0  0  0  0  0  0  0  0
    5.1109   -1.0539    2.2874 H   0  0  0  0  0  0  0  0  0  0  0  0
    4.5428    1.0573    1.6230 H   0  0  0  0  0  0  0  0  0  0  0  0
    3.2564    1.5745   -0.1509 H   0  0  0  0  0  0  0  0  0  0  0  0
    3.6152   -0.4104   -2.1572 H   0  0  0  0  0  0  0  0  0  0  0  0
    4.3706    1.2216   -2.1004 H   0  0  0  0  0  0  0  0  0  0  0  0
    5.4468   -1.3315   -0.9298 H   0  0  0  0  0  0  0  0  0  0  0  0
    6.3109   -0.0335   -1.9041 H   0  0  0  0  0  0  0  0  0  0  0  0
    6.0557    1.4293   -0.0158 H   0  0  0  0  0  0  0  0  0  0  0  0
   -1.2986   -2.2618    0.1999 H   0  0  0  0  0  0  0  0  0  0  0  0
   -1.5725   -1.5145   -1.4829 H   0  0  0  0  0  0  0  0  0  0  0  0
   -3.6149   -3.0599    0.1505 H   0  0  0  0  0  0  0  0  0  0  0  0
   -2.7445   -3.6038   -1.3949 H   0  0  0  0  0  0  0  0  0  0  0  0
   -3.5812   -1.6909   -2.5978 H   0  0  0  0  0  0  0  0  0  0  0  0
   -5.0076   -2.3137   -1.7278 H   0  0  0  0  0  0  0  0  0  0  0  0
   -4.9620   -0.7926   -0.0956 H   0  0  0  0  0  0  0  0  0  0  0  0
   -4.1065    0.1897   -1.4404 H   0  0  0  0  0  0  0  0  0  0  0  0
   -3.0922   -1.0182    1.1444 H   0  0  0  0  0  0  0  0  0  0  0  0
   -1.9629    0.9770   -0.9386 H   0  0  0  0  0  0  0  0  0  0  0  0
   -2.3701    2.7177    0.9057 H   0  0  0  0  0  0  0  0  0  0  0  0
   -3.1362    1.5082    1.9193 H   0  0  0  0  0  0  0  0  0  0  0  0
   -4.1471    2.4596   -0.8083 H   0  0  0  0  0  0  0  0  0  0  0  0
   -5.0691    1.3740    0.3271 H   0  0  0  0  0  0  0  0  0  0  0  0
   -5.5028    3.8227    0.4431 H   0  0  0  0  0  0  0  0  0  0  0  0
   -4.0940    3.8232    1.4641 H   0  0  0  0  0  0  0  0  0  0  0  0
    0.5378   -0.8818    0.5262 H   0  0  0  0  0  0  0  0  0  0  0  0
    0.0476   -0.0076   -0.9642 H   0  0  0  0  0  0  0  0  0  0  0  0
   -0.5819    2.5056   -0.0748 H   0  0  0  0  0  0  0  0  0  0  0  0
    1.1050    1.8562    2.2524 H   0  0  0  0  0  0  0  0  0  0  0  0
    1.2437    3.1580    0.9460 H   0  0  0  0  0  0  0  0  0  0  0  0
    1.6171    1.5399   -0.7559 H   0  0  0  0  0  0  0  0  0  0  0  0
    3.4221    1.2684    0.7738 H   0  0  0  0  0  0  0  0  0  0  0  0
    2.9390    0.4695    2.7940 H   0  0  0  0  0  0  0  0  0  0  0  0
    2.7157   -2.2572    1.7259 H   0  0  0  0  0  0  0  0  0  0  0  0
    3.4450   -1.6123    3.2044 H   0  0  0  0  0  0  0  0  0  0  0  0
    4.8812   -2.3945    1.3955 H   0  0  0  0  0  0  0  0  0  0  0  0
    5.0791    0.2765    0.3002 H   0  0  0  0  0  0  0  0  0  0  0  0
    2.6538   -1.5287   -0.1814 H   0  0  0  0  0  0  0  0  0  0  0  0
    2.5212   -0.4179   -2.2243 H   0  0  0  0  0  0  0  0  0  0  0  0
    3.5986    0.9698   -1.6691 H   0  0  0  0  0  0  0  0  0  0  0  0
    4.2861   -1.7926   -2.7069 H   0  0  0  0  0  0  0  0  0  0  0  0
    5.3313   -0.2675   -2.5675 H   0  0  0  0  0  0  0  0  0  0  0  0
    6.2096   -1.3867   -0.8981 H   0  0  0  0  0  0  0  0  0  0  0  0
  1  2  1  0
  2  3  1  0
  3  4  1  0
  1  5  1  0
  4  5  1  0
  5  6  1  0
  6  7  1  0
  7  8  1  0
  8  9  1  0
  6 10  1  0
 10 11  1  0
 10 12  1  0
 12 13  1  0
 11 14  1  0
 13 14  1  0
 14 15  1  0
 15 16  1  0
 16 17  1  0
 17 18  1  0
 18 19  1  0
 15 20  1  0
 19 20  1  0
 20 21  1  0
 21 22  1  0
 19 23  1  0
 22 23  1  0
 24 25  1  0
 25 26  1  0
 26 27  1  0
 24 28  1  0
 27 28  1  0
 28 29  1  0
 29 30  1  0
 30 31  1  0
 31 32  1  0
 29 33  1  0
 33 34  1  0
 33 35  1  0
 35 36  1  0
 34 37  1  0
 36 37  1  0
 37 38  1  0
 38 39  1  0
 39 40  1  0
 40 41  1  0
 41 42  1  0
 38 43  1  0
 42 43  1  0
 43 44  1  0
 44 45  1  0
 42 46  1  0
 45 46  1  0
  1 47  1  0
  1 48  1  0
  2 49  1  0
  2 50  1  0
  3 51  1  0
  3 52  1  0
  4 53  1  0
  4 54  1  0
  5 55  1  0
  6 56  1  6
  7 57  1  0
  7 58  1  0
  8 59  1  0
  8 60  1  0
  9 61  1  0
  9 62  1  0
 11 63  1  0
 11 64  1  0
 12 65  1  0
 13 66  1  0
 13 67  1  0
 14 68  1  0
 15 69  1  0
 16 70  1  0
 17 71  1  0
 17 72  1  0
 18 73  1  0
 19 74  1  0
 20 75  1  0
 21 76  1  0
 21 77  1  0
 22 78  1  0
 22 79  1  0
 23 80  1  0
 24 81  1  0
 24 82  1  0
 25 83  1  0
 25 84  1  0
 26 85  1  0
 26 86  1  0
 27 87  1  0
 27 88  1  0
 28 89  1  0
 29 90  1  6
 30 91  1  0
 30 92  1  0
 31 93  1  0
 31 94  1  0
 32 95  1  0
 32 96  1  0
 34 97  1  0
 34 98  1  0
 35 99  1  0
 36100  1  0
 36101  1  0
 37102  1  0
 38103  1  1
 39104  1  0
 40105  1  0
 40106  1  0
 41107  1  0
 42108  1  0
 43109  1  0
 44110  1  0
 44111  1  0
 45112  1  0
 45113  1  0
 46114  1  0
M  END
>  <PDBID>  (1) 
4U5J

>  <PDB ID>  (1) 
4U5J

>  <Generic Name>  (1) 
Ruxolitinib

>  <Brand Name>  (1) 
Jakafi#Jakavi

>  <DrugBank ID>  (1) 
DB08877

>  <ATC Codes>  (1) 
L01XE18

>  <Ligand ID>  (1) 
RXT

>  <Target Name>  (1) 
Tyrosine-protein kinase JAK2

>  <UniProt ID>  (1) 
O60674

>  <PDB ID.1>  (1) 
4U5J

>  <Seq. Identity>  (1) 
30%

$$$$
