PDB_DB09034_08
     RDKit          3D

 75 79  0  0  0  0  0  0  0  0999 V2000
    3.7351    0.0995   -1.0056 C   0  0  0  0  0  0  0  0  0  0  0  0
    2.3609   -0.3482   -1.0416 N   0  0  0  0  0  0  0  0  0  0  0  0
    4.5717   -0.6494   -1.7935 O   0  0  0  0  0  0  0  0  0  0  0  0
    7.3165    2.3419    2.0038 Cl  0  0  0  0  0  0  0  0  0  0  0  0
    4.2728    0.1448    0.3248 N   0  0  0  0  0  0  0  0  0  0  0  0
   -2.3121   -1.4664    1.5289 O   0  0  0  0  0  0  0  0  0  0  0  0
    5.5030   -0.6161    0.2636 C   0  0  0  0  0  0  0  0  0  0  0  0
   -0.6445   -0.8190   -0.0366 N   0  0  0  0  0  0  0  0  0  0  0  0
    6.5619   -0.0966    1.1733 C   0  0  0  0  0  0  0  0  0  0  0  0
   -3.4398    1.6944    1.3831 N   0  0  0  0  0  0  0  0  0  0  0  0
    7.2447    1.1504    0.6648 C   0  0  0  0  0  0  0  0  0  0  0  0
   -2.7791    2.6750    0.6743 N   0  0  0  0  0  0  0  0  0  0  0  0
    6.4835    1.7908   -0.4489 C   0  0  0  0  0  0  0  0  0  0  0  0
   -4.4307    2.2916    2.1527 N   0  0  0  0  0  0  0  0  0  0  0  0
    6.3749    0.8327   -1.5972 C   0  0  0  0  0  0  0  0  0  0  0  0
    5.8507   -0.5236   -1.2029 C   0  0  0  0  0  0  0  0  0  0  0  0
    1.4912    0.4228   -0.2182 C   0  0  0  0  0  0  0  0  0  0  0  0
    0.0645    0.2151   -0.6786 C   0  0  0  0  0  0  0  0  0  0  0  0
   -0.0865   -2.0951   -0.0769 C   0  0  1  0  0  0  0  0  0  0  0  0
    1.3893   -2.1444    0.3187 C   0  0  0  0  0  0  0  0  0  0  0  0
    2.2371   -1.7718   -0.8479 C   0  0  0  0  0  0  0  0  0  0  0  0
   -1.8057   -0.5136    0.6807 C   0  0  0  0  0  0  0  0  0  0  0  0
   -2.8619    0.0408   -0.2611 C   0  0  0  0  0  0  0  0  0  0  0  0
   -4.0007    0.6811    0.5066 C   0  0  0  0  0  0  0  0  0  0  0  0
   -4.8614   -0.2934    1.2303 C   0  0  0  0  0  0  0  0  0  0  0  0
   -5.1714   -1.5040    0.4206 C   0  0  0  0  0  0  0  0  0  0  0  0
   -4.7588   -1.4452   -1.0138 C   0  0  0  0  0  0  0  0  0  0  0  0
   -3.3638   -0.9651   -1.2599 C   0  0  0  0  0  0  0  0  0  0  0  0
   -3.5693    3.8829    0.7409 C   0  0  0  0  0  0  0  0  0  0  0  0
   -4.8925    3.3575    1.2846 C   0  0  0  0  0  0  0  0  0  0  0  0
   -5.7559   -0.6824   -1.8594 C   0  0  0  0  0  0  0  0  0  0  0  0
   -0.8561   -3.1835    0.5952 C   0  0  0  0  0  0  0  0  0  0  0  0
    3.7366    1.1383   -1.4060 H   0  0  0  0  0  0  0  0  0  0  0  0
    3.6306   -0.1758    1.0580 H   0  0  0  0  0  0  0  0  0  0  0  0
   -2.1312   -1.3248    2.4833 H   0  0  0  0  0  0  0  0  0  0  0  0
    5.3442   -1.7015    0.4896 H   0  0  0  0  0  0  0  0  0  0  0  0
    6.1057    0.0718    2.1755 H   0  0  0  0  0  0  0  0  0  0  0  0
    7.3389   -0.8684    1.3115 H   0  0  0  0  0  0  0  0  0  0  0  0
    8.2892    0.9660    0.3417 H   0  0  0  0  0  0  0  0  0  0  0  0
   -1.8467    2.8346    1.1466 H   0  0  0  0  0  0  0  0  0  0  0  0
    5.5022    2.1495   -0.0800 H   0  0  0  0  0  0  0  0  0  0  0  0
    7.0766    2.6628   -0.8076 H   0  0  0  0  0  0  0  0  0  0  0  0
   -4.0666    2.7217    3.0290 H   0  0  0  0  0  0  0  0  0  0  0  0
    7.3848    0.7200   -2.0476 H   0  0  0  0  0  0  0  0  0  0  0  0
    5.7457    1.3146   -2.3793 H   0  0  0  0  0  0  0  0  0  0  0  0
    6.5216   -1.3350   -1.5245 H   0  0  0  0  0  0  0  0  0  0  0  0
    1.6331    0.3421    0.8574 H   0  0  0  0  0  0  0  0  0  0  0  0
    1.7261    1.5045   -0.4582 H   0  0  0  0  0  0  0  0  0  0  0  0
    0.1034    0.0143   -1.7796 H   0  0  0  0  0  0  0  0  0  0  0  0
   -0.4963    1.1813   -0.5724 H   0  0  0  0  0  0  0  0  0  0  0  0
   -0.0602   -2.4042   -1.1733 H   0  0  0  0  0  0  0  0  0  0  0  0
    1.6003   -1.6454    1.2587 H   0  0  0  0  0  0  0  0  0  0  0  0
    1.5784   -3.2438    0.5131 H   0  0  0  0  0  0  0  0  0  0  0  0
    3.2430   -2.2785   -0.7566 H   0  0  0  0  0  0  0  0  0  0  0  0
    1.7804   -2.1959   -1.7653 H   0  0  0  0  0  0  0  0  0  0  0  0
   -1.5194    0.3475    1.3808 H   0  0  0  0  0  0  0  0  0  0  0  0
   -2.4143    0.8670   -0.8473 H   0  0  0  0  0  0  0  0  0  0  0  0
   -4.6172    1.2166   -0.2436 H   0  0  0  0  0  0  0  0  0  0  0  0
   -5.8356    0.2361    1.4485 H   0  0  0  0  0  0  0  0  0  0  0  0
   -4.4717   -0.5650    2.2392 H   0  0  0  0  0  0  0  0  0  0  0  0
   -4.7748   -2.4633    0.8653 H   0  0  0  0  0  0  0  0  0  0  0  0
   -6.2881   -1.6936    0.4036 H   0  0  0  0  0  0  0  0  0  0  0  0
   -4.8034   -2.5097   -1.3920 H   0  0  0  0  0  0  0  0  0  0  0  0
   -3.3897   -0.5136   -2.3039 H   0  0  0  0  0  0  0  0  0  0  0  0
   -2.6583   -1.8315   -1.4015 H   0  0  0  0  0  0  0  0  0  0  0  0
   -3.1417    4.5307    1.5384 H   0  0  0  0  0  0  0  0  0  0  0  0
   -3.6794    4.4082   -0.2055 H   0  0  0  0  0  0  0  0  0  0  0  0
   -5.4761    2.9835    0.4291 H   0  0  0  0  0  0  0  0  0  0  0  0
   -5.4659    4.1317    1.7910 H   0  0  0  0  0  0  0  0  0  0  0  0
   -6.1919   -1.2923   -2.6772 H   0  0  0  0  0  0  0  0  0  0  0  0
   -5.2447    0.1782   -2.3346 H   0  0  0  0  0  0  0  0  0  0  0  0
   -6.6348   -0.3469   -1.2392 H   0  0  0  0  0  0  0  0  0  0  0  0
   -0.7325   -3.1140    1.7113 H   0  0  0  0  0  0  0  0  0  0  0  0
   -0.3767   -4.1992    0.3792 H   0  0  0  0  0  0  0  0  0  0  0  0
   -1.8910   -3.3218    0.2630 H   0  0  0  0  0  0  0  0  0  0  0  0
  1  2  1  0
  1  3  1  0
  1  5  1  0
  5  7  1  0
  7  9  1  0
  4 11  1  0
  9 11  1  0
 10 12  1  0
 11 13  1  0
 10 14  1  0
 13 15  1  0
  3 16  1  0
  7 16  1  0
 15 16  1  0
  2 17  1  0
  8 18  1  0
 17 18  1  0
  8 19  1  0
 19 20  1  0
  2 21  1  0
 20 21  1  0
  6 22  1  0
  8 22  1  0
 22 23  1  0
 10 24  1  0
 23 24  1  0
 24 25  1  0
 25 26  1  0
 26 27  1  0
 23 28  1  0
 27 28  1  0
 12 29  1  0
 14 30  1  0
 29 30  1  0
 27 31  1  0
 19 32  1  0
  1 33  1  0
  5 34  1  0
  6 35  1  0
  7 36  1  0
  9 37  1  0
  9 38  1  0
 11 39  1  0
 12 40  1  0
 13 41  1  0
 13 42  1  0
 14 43  1  0
 15 44  1  0
 15 45  1  0
 16 46  1  0
 17 47  1  0
 17 48  1  0
 18 49  1  0
 18 50  1  0
 19 51  1  6
 20 52  1  0
 20 53  1  0
 21 54  1  0
 21 55  1  0
 22 56  1  0
 23 57  1  0
 24 58  1  0
 25 59  1  0
 25 60  1  0
 26 61  1  0
 26 62  1  0
 27 63  1  0
 28 64  1  0
 28 65  1  0
 29 66  1  0
 29 67  1  0
 30 68  1  0
 30 69  1  0
 31 70  1  0
 31 71  1  0
 31 72  1  0
 32 73  1  0
 32 74  1  0
 32 75  1  0
M  END
>  <PDBID>  (1) 
4ZJ8

>  <PDB ID>  (1) 
4ZJ8

>  <Generic Name>  (1) 
Suvorexant

>  <Brand Name>  (1) 
Belsomra

>  <DrugBank ID>  (1) 
DB09034

>  <ATC Codes>  (1) 
nan

>  <Ligand ID>  (1) 
SUV

>  <Target Name>  (1) 
Orexin receptor type 1

>  <UniProt ID>  (1) 
O43613

>  <PDB ID.1>  (1) 
4ZJ8

>  <Seq. Identity>  (1) 
85%

$$$$
