PDB_DB01011_07
     RDKit          3D

 45 46  0  0  0  0  0  0  0  0999 V2000
   -4.2268   -0.1251    0.6975 N   0  0  0  0  0  0  0  0  0  0  0  0
   -3.1666   -0.8922    0.1138 C   0  0  0  0  0  0  0  0  0  0  0  0
   -1.7952   -0.2088    0.3107 C   0  0  0  0  0  0  0  0  0  0  0  0
   -1.8679    0.9870   -0.6515 C   0  0  0  0  0  0  0  0  0  0  0  0
   -3.3151    1.3443   -0.9633 C   0  0  0  0  0  0  0  0  0  0  0  0
   -4.1366    1.2771    0.3019 C   0  0  0  0  0  0  0  0  0  0  0  0
   -0.6959   -1.1369   -0.1190 C   0  0  0  0  0  0  0  0  0  0  0  0
   -0.8133   -1.4548   -1.4598 O   0  0  0  0  0  0  0  0  0  0  0  0
    1.6313   -1.9494   -0.1390 C   0  0  0  0  0  0  0  0  0  0  0  0
    0.6499   -0.9000    0.4110 C   0  0  0  0  0  0  0  0  0  0  0  0
    0.5887   -1.1460    1.9321 C   0  0  0  0  0  0  0  0  0  0  0  0
    1.2656    0.4620    0.2351 C   0  0  0  0  0  0  0  0  0  0  0  0
    1.4055    0.8772   -1.1615 C   0  0  0  0  0  0  0  0  0  0  0  0
    2.6513    1.1151   -1.7447 N   0  0  0  0  0  0  0  0  0  0  0  0
    3.7691    1.3408   -0.9253 C   0  0  0  0  0  0  0  0  0  0  0  0
    3.8024    0.4076    0.2545 C   0  0  0  0  0  0  0  0  0  0  0  0
    2.5449    0.4551    1.0417 C   0  0  0  0  0  0  0  0  0  0  0  0
   -5.1237   -0.4749    0.2945 H   0  0  0  0  0  0  0  0  0  0  0  0
   -3.3396   -1.0551   -0.9610 H   0  0  0  0  0  0  0  0  0  0  0  0
   -3.1657   -1.8885    0.5951 H   0  0  0  0  0  0  0  0  0  0  0  0
   -1.6494    0.1447    1.3254 H   0  0  0  0  0  0  0  0  0  0  0  0
   -1.4354    0.6604   -1.6190 H   0  0  0  0  0  0  0  0  0  0  0  0
   -1.4112    1.8719   -0.2106 H   0  0  0  0  0  0  0  0  0  0  0  0
   -3.7513    0.7544   -1.7718 H   0  0  0  0  0  0  0  0  0  0  0  0
   -3.2974    2.4127   -1.3065 H   0  0  0  0  0  0  0  0  0  0  0  0
   -5.1294    1.7147    0.1091 H   0  0  0  0  0  0  0  0  0  0  0  0
   -3.6675    1.8543    1.1004 H   0  0  0  0  0  0  0  0  0  0  0  0
   -1.0091   -2.1411    0.3781 H   0  0  0  0  0  0  0  0  0  0  0  0
   -0.3022   -2.2325   -1.7410 H   0  0  0  0  0  0  0  0  0  0  0  0
    1.0754   -2.8999   -0.3591 H   0  0  0  0  0  0  0  0  0  0  0  0
    2.1262   -1.5873   -1.0633 H   0  0  0  0  0  0  0  0  0  0  0  0
    2.4200   -2.1885    0.5883 H   0  0  0  0  0  0  0  0  0  0  0  0
   -0.3811   -1.6112    2.2172 H   0  0  0  0  0  0  0  0  0  0  0  0
    0.7482   -0.2193    2.4968 H   0  0  0  0  0  0  0  0  0  0  0  0
    1.3571   -1.8742    2.2526 H   0  0  0  0  0  0  0  0  0  0  0  0
    0.5807    1.1631    0.7935 H   0  0  0  0  0  0  0  0  0  0  0  0
    0.8812    0.1018   -1.7995 H   0  0  0  0  0  0  0  0  0  0  0  0
    0.8064    1.8272   -1.3191 H   0  0  0  0  0  0  0  0  0  0  0  0
    2.8781    0.4843   -2.5457 H   0  0  0  0  0  0  0  0  0  0  0  0
    4.7042    1.1668   -1.4993 H   0  0  0  0  0  0  0  0  0  0  0  0
    3.8407    2.4070   -0.5661 H   0  0  0  0  0  0  0  0  0  0  0  0
    4.6414    0.7606    0.9120 H   0  0  0  0  0  0  0  0  0  0  0  0
    4.0781   -0.5927   -0.0872 H   0  0  0  0  0  0  0  0  0  0  0  0
    2.6189    1.3740    1.6992 H   0  0  0  0  0  0  0  0  0  0  0  0
    2.6148   -0.3855    1.7644 H   0  0  0  0  0  0  0  0  0  0  0  0
  1  2  1  0
  2  3  1  0
  3  4  1  0
  4  5  1  0
  1  6  1  0
  5  6  1  0
  3  7  1  0
  7  8  1  0
 10  7  1  0
  9 10  1  0
 10 11  1  0
 10 12  1  0
 12 13  1  0
 13 14  1  0
 14 15  1  0
 15 16  1  0
 12 17  1  0
 16 17  1  0
  1 18  1  0
  2 19  1  0
  2 20  1  0
  3 21  1  0
  4 22  1  0
  4 23  1  0
  5 24  1  0
  5 25  1  0
  6 26  1  0
  6 27  1  0
  7 28  1  0
  8 29  1  0
  9 30  1  0
  9 31  1  0
  9 32  1  0
 11 33  1  0
 11 34  1  0
 11 35  1  0
 12 36  1  0
 13 37  1  0
 13 38  1  0
 14 39  1  0
 15 40  1  0
 15 41  1  0
 16 42  1  0
 16 43  1  0
 17 44  1  0
 17 45  1  0
M  END
>  <PDBID>  (1) 
1W0G

>  <PDB ID>  (1) 
1W0G

>  <Generic Name>  (1) 
Metyrapone

>  <Brand Name>  (1) 
Metopirone#Metopiron

>  <DrugBank ID>  (1) 
DB01011

>  <ATC Codes>  (1) 
V04CD01

>  <Ligand ID>  (1) 
MYT

>  <Target Name>  (1) 
Cytochrome P450 11B1, mitochondrial

>  <UniProt ID>  (1) 
P15538

>  <PDB ID.1>  (1) 
1W0G

>  <Seq. Identity>  (1) 
32%

$$$$
