PDB_DB01254_02
     RDKit          3D

154160  0  0  0  0  0  0  0  0999 V2000
   -2.9108    0.0456    1.4036 C   0  0  0  0  0  0  0  0  0  0  0  0
   -3.3372   -0.4675    0.0701 C   0  0  0  0  0  0  0  0  0  0  0  0
   -4.3554   -1.5734    0.2073 C   0  0  0  0  0  0  0  0  0  0  0  0
    7.2275    0.1513   -0.3035 N   0  0  0  0  0  0  0  0  0  0  0  0
   -8.7571    1.2533   -0.0098 C   0  0  0  0  0  0  0  0  0  0  0  0
   -7.6605    1.7222    0.8600 C   0  0  0  0  0  0  0  0  0  0  0  0
   -6.3033    1.1077    0.4287 C   0  0  0  0  0  0  0  0  0  0  0  0
   -6.0196    1.7177   -0.8839 C   0  0  0  0  0  0  0  0  0  0  0  0
    1.1625   -0.5214    0.2889 C   0  0  0  0  0  0  0  0  0  0  0  0
    2.6329   -0.8701    0.5755 C   0  0  0  0  0  0  0  0  0  0  0  0
    3.5222   -0.1859   -0.3980 C   0  0  0  0  0  0  0  0  0  0  0  0
    1.8149   -0.1629   -1.9639 C   0  0  0  0  0  0  0  0  0  0  0  0
    2.5503   -1.1989   -2.8268 C   0  0  0  0  0  0  0  0  0  0  0  0
    5.3395   -0.4379    1.0262 C   0  0  0  0  0  0  0  0  0  0  0  0
    5.2266    1.3732   -0.5950 C   0  0  0  0  0  0  0  0  0  0  0  0
    8.6053    0.0169   -0.6227 C   0  0  0  0  0  0  0  0  0  0  0  0
    9.5397    0.8978    0.1614 C   0  0  0  0  0  0  0  0  0  0  0  0
    0.4068   -1.3182    1.1946 N   0  0  0  0  0  0  0  0  0  0  0  0
   -0.9887   -1.2287    1.1845 C   0  0  1  0  0  0  0  0  0  0  0  0
   -1.4979    0.1059    1.5328 N   0  0  0  0  0  0  0  0  0  0  0  0
   -1.7379   -1.2639   -0.5002 S   0  0  0  0  0  0  0  0  0  0  0  0
   -5.5028   -1.2352    0.8514 N   0  0  0  0  0  0  0  0  0  0  0  0
   -6.5058   -0.3501    0.5388 C   0  0  2  0  0  0  0  0  0  0  0  0
   -7.4755   -0.8745   -0.5199 C   0  0  0  0  0  0  0  0  0  0  0  0
   -8.5965    0.0348   -0.8035 C   0  0  0  0  0  0  0  0  0  0  0  0
   -6.5398   -1.3568   -1.9562 Cl  0  0  0  0  0  0  0  0  0  0  0  0
   -3.7105   -2.5923    0.9778 O   0  0  0  0  0  0  0  0  0  0  0  0
    2.7920    0.6654   -1.2922 N   0  0  0  0  0  0  0  0  0  0  0  0
    0.8994   -0.8145   -1.0839 N   0  0  0  0  0  0  0  0  0  0  0  0
    4.5822    0.5306    0.3323 N   0  0  0  0  0  0  0  0  0  0  0  0
    6.8262   -0.3065    0.9899 C   0  0  0  0  0  0  0  0  0  0  0  0
    6.7120    1.5061   -0.4373 C   0  0  0  0  0  0  0  0  0  0  0  0
    9.2087    2.2316   -0.0648 O   0  0  0  0  0  0  0  0  0  0  0  0
   -3.2742   -0.7410    1.5053 C   0  0  0  0  0  0  0  0  0  0  0  0
   -3.2987    0.3208    0.4816 C   0  0  0  0  0  0  0  0  0  0  0  0
   -3.6904   -0.1278   -0.9120 C   0  0  0  0  0  0  0  0  0  0  0  0
    7.0280   -0.1084   -0.7600 N   0  0  0  0  0  0  0  0  0  0  0  0
   -8.4112    1.5264    0.1920 C   0  0  0  0  0  0  0  0  0  0  0  0
   -8.2936    0.0885    0.5871 C   0  0  0  0  0  0  0  0  0  0  0  0
   -7.3426   -0.6847   -0.3364 C   0  0  0  0  0  0  0  0  0  0  0  0
   -7.2353   -2.0857    0.2040 C   0  0  0  0  0  0  0  0  0  0  0  0
    1.0914   -0.1964    0.5497 C   0  0  0  0  0  0  0  0  0  0  0  0
    2.4391    0.0309    1.1756 C   0  0  0  0  0  0  0  0  0  0  0  0
    3.2702    0.7606    0.1396 C   0  0  2  0  0  0  0  0  0  0  0  0
    2.2382   -0.6731   -1.5400 C   0  0  0  0  0  0  0  0  0  0  0  0
    2.9361   -1.9741   -1.9208 C   0  0  0  0  0  0  0  0  0  0  0  0
    5.1990   -0.4919    0.8474 C   0  0  0  0  0  0  0  0  0  0  0  0
    5.4856    1.6972   -0.0933 C   0  0  0  0  0  0  0  0  0  0  0  0
    8.4475   -0.0393   -0.8585 C   0  0  0  0  0  0  0  0  0  0  0  0
    9.1387    1.0511   -0.1295 C   0  0  0  0  0  0  0  0  0  0  0  0
    0.2680   -0.9447    1.4734 N   0  0  0  0  0  0  0  0  0  0  0  0
   -0.9846   -0.3361    1.7705 C   0  0  2  0  0  0  0  0  0  0  0  0
   -2.0261   -1.3757    1.5768 N   0  0  0  0  0  0  0  0  0  0  0  0
   -1.5299    0.8300    0.4839 S   0  0  0  0  0  0  0  0  0  0  0  0
   -4.9899   -0.7442   -0.8178 N   0  0  0  0  0  0  0  0  0  0  0  0
   -6.0273    0.0597   -0.2957 C   0  0  0  0  0  0  0  0  0  0  0  0
   -6.2046    1.3563   -1.0126 C   0  0  0  0  0  0  0  0  0  0  0  0
   -7.1091    2.2036   -0.0877 C   0  0  0  0  0  0  0  0  0  0  0  0
   -6.9953    1.1834   -2.5779 Cl  0  0  0  0  0  0  0  0  0  0  0  0
   -2.7942   -1.0588   -1.3939 O   0  0  0  0  0  0  0  0  0  0  0  0
    3.1902    0.2839   -1.1787 N   0  0  0  0  0  0  0  0  0  0  0  0
    1.2347   -1.0114   -0.6024 N   0  0  0  0  0  0  0  0  0  0  0  0
    4.6387    0.8182    0.6718 N   0  0  0  0  0  0  0  0  0  0  0  0
    6.6635   -0.5542    0.5900 C   0  0  0  0  0  0  0  0  0  0  0  0
    6.2624    0.9920   -1.1962 C   0  0  0  0  0  0  0  0  0  0  0  0
    8.8102    2.3451   -0.5251 O   0  0  0  0  0  0  0  0  0  0  0  0
   -3.3402   -0.5301    2.2535 H   0  0  0  0  0  0  0  0  0  0  0  0
   -3.2875    1.0866    1.5151 H   0  0  0  0  0  0  0  0  0  0  0  0
   -3.5958    0.3169   -0.6359 H   0  0  0  0  0  0  0  0  0  0  0  0
   -4.4299   -2.0551   -0.7936 H   0  0  0  0  0  0  0  0  0  0  0  0
   -9.0122    2.1080   -0.7064 H   0  0  0  0  0  0  0  0  0  0  0  0
   -9.6776    1.1979    0.6510 H   0  0  0  0  0  0  0  0  0  0  0  0
   -7.4835    2.8167    0.8041 H   0  0  0  0  0  0  0  0  0  0  0  0
   -7.8380    1.5016    1.9410 H   0  0  0  0  0  0  0  0  0  0  0  0
   -5.6009    1.4277    1.2256 H   0  0  0  0  0  0  0  0  0  0  0  0
   -6.6871    2.6078   -1.1151 H   0  0  0  0  0  0  0  0  0  0  0  0
   -6.0777    1.1014   -1.7735 H   0  0  0  0  0  0  0  0  0  0  0  0
   -5.0140    2.2366   -0.7921 H   0  0  0  0  0  0  0  0  0  0  0  0
    0.9967    0.5707    0.4544 H   0  0  0  0  0  0  0  0  0  0  0  0
    2.8180   -0.5218    1.6205 H   0  0  0  0  0  0  0  0  0  0  0  0
    2.6771   -1.9760    0.5068 H   0  0  0  0  0  0  0  0  0  0  0  0
    3.9956   -0.9848   -1.0326 H   0  0  0  0  0  0  0  0  0  0  0  0
    1.2509    0.4721   -2.6810 H   0  0  0  0  0  0  0  0  0  0  0  0
    3.5482   -0.7983   -3.0697 H   0  0  0  0  0  0  0  0  0  0  0  0
    2.0181   -1.4056   -3.7705 H   0  0  0  0  0  0  0  0  0  0  0  0
    2.6079   -2.1335   -2.2085 H   0  0  0  0  0  0  0  0  0  0  0  0
    5.0418   -0.3683    2.1150 H   0  0  0  0  0  0  0  0  0  0  0  0
    5.0623   -1.4882    0.7482 H   0  0  0  0  0  0  0  0  0  0  0  0
    4.7928    2.3967   -0.5105 H   0  0  0  0  0  0  0  0  0  0  0  0
    5.0321    1.0647   -1.6604 H   0  0  0  0  0  0  0  0  0  0  0  0
    8.7111    0.2583   -1.7181 H   0  0  0  0  0  0  0  0  0  0  0  0
    8.8773   -1.0408   -0.5222 H   0  0  0  0  0  0  0  0  0  0  0  0
   10.5674    0.7125   -0.2295 H   0  0  0  0  0  0  0  0  0  0  0  0
    9.5447    0.6646    1.2234 H   0  0  0  0  0  0  0  0  0  0  0  0
    0.7803   -2.2722    1.2502 H   0  0  0  0  0  0  0  0  0  0  0  0
   -1.5124   -2.0100    1.7527 H   0  0  0  0  0  0  0  0  0  0  0  0
   -1.0669    0.7665    0.8469 H   0  0  0  0  0  0  0  0  0  0  0  0
   -5.8401   -1.9220    1.5894 H   0  0  0  0  0  0  0  0  0  0  0  0
   -7.1955   -0.4245    1.4805 H   0  0  0  0  0  0  0  0  0  0  0  0
   -7.8369   -1.8649   -0.1005 H   0  0  0  0  0  0  0  0  0  0  0  0
   -9.5555   -0.5718   -0.7227 H   0  0  0  0  0  0  0  0  0  0  0  0
   -8.5687    0.2683   -1.9130 H   0  0  0  0  0  0  0  0  0  0  0  0
   -3.1352   -3.1341    0.3913 H   0  0  0  0  0  0  0  0  0  0  0  0
    2.4073    1.5189   -0.8789 H   0  0  0  0  0  0  0  0  0  0  0  0
    0.8368   -1.8512   -1.2606 H   0  0  0  0  0  0  0  0  0  0  0  0
    7.2670   -1.3176    1.1853 H   0  0  0  0  0  0  0  0  0  0  0  0
    7.1844    0.3963    1.7889 H   0  0  0  0  0  0  0  0  0  0  0  0
    6.9060    2.0099    0.5449 H   0  0  0  0  0  0  0  0  0  0  0  0
    7.1158    2.0379   -1.3045 H   0  0  0  0  0  0  0  0  0  0  0  0
    9.5667    2.5307   -0.9394 H   0  0  0  0  0  0  0  0  0  0  0  0
   -4.0403   -1.5329    1.3440 H   0  0  0  0  0  0  0  0  0  0  0  0
   -3.5246   -0.3144    2.5167 H   0  0  0  0  0  0  0  0  0  0  0  0
   -3.8503    1.1958    0.8230 H   0  0  0  0  0  0  0  0  0  0  0  0
   -3.6700    0.7399   -1.5693 H   0  0  0  0  0  0  0  0  0  0  0  0
   -9.1464    1.6996   -0.6279 H   0  0  0  0  0  0  0  0  0  0  0  0
   -8.8647    2.0672    1.0697 H   0  0  0  0  0  0  0  0  0  0  0  0
   -7.8779    0.0402    1.6260 H   0  0  0  0  0  0  0  0  0  0  0  0
   -9.3212   -0.3620    0.5243 H   0  0  0  0  0  0  0  0  0  0  0  0
   -7.8213   -0.6958   -1.3260 H   0  0  0  0  0  0  0  0  0  0  0  0
   -8.2781   -2.4960    0.2401 H   0  0  0  0  0  0  0  0  0  0  0  0
   -6.9146   -2.0405    1.2741 H   0  0  0  0  0  0  0  0  0  0  0  0
   -6.6478   -2.7671   -0.4128 H   0  0  0  0  0  0  0  0  0  0  0  0
    0.6378    0.8058    0.3195 H   0  0  0  0  0  0  0  0  0  0  0  0
    2.4004    0.6290    2.0867 H   0  0  0  0  0  0  0  0  0  0  0  0
    2.8887   -0.9878    1.3614 H   0  0  0  0  0  0  0  0  0  0  0  0
    2.9078    1.8239    0.1669 H   0  0  0  0  0  0  0  0  0  0  0  0
    1.7088   -0.3313   -2.4743 H   0  0  0  0  0  0  0  0  0  0  0  0
    4.0333   -1.8627   -1.9697 H   0  0  0  0  0  0  0  0  0  0  0  0
    2.4766   -2.4262   -2.8224 H   0  0  0  0  0  0  0  0  0  0  0  0
    2.7685   -2.7527   -1.1163 H   0  0  0  0  0  0  0  0  0  0  0  0
    5.0240   -0.7692    1.9202 H   0  0  0  0  0  0  0  0  0  0  0  0
    4.6789   -1.2937    0.2844 H   0  0  0  0  0  0  0  0  0  0  0  0
    6.1747    2.2751    0.5591 H   0  0  0  0  0  0  0  0  0  0  0  0
    4.8242    2.4333   -0.5788 H   0  0  0  0  0  0  0  0  0  0  0  0
    8.7013    0.0155   -1.9511 H   0  0  0  0  0  0  0  0  0  0  0  0
    8.8293   -1.0547   -0.5532 H   0  0  0  0  0  0  0  0  0  0  0  0
   10.2312    0.9330   -0.2661 H   0  0  0  0  0  0  0  0  0  0  0  0
    8.9647    1.0332    0.9760 H   0  0  0  0  0  0  0  0  0  0  0  0
    0.1894   -1.9530    1.2800 H   0  0  0  0  0  0  0  0  0  0  0  0
   -1.0802    0.1169    2.7665 H   0  0  0  0  0  0  0  0  0  0  0  0
   -1.7766   -1.7848    0.6353 H   0  0  0  0  0  0  0  0  0  0  0  0
   -4.9082   -1.7053   -0.4900 H   0  0  0  0  0  0  0  0  0  0  0  0
   -5.8637    0.3305    0.7885 H   0  0  0  0  0  0  0  0  0  0  0  0
   -5.2757    1.9253   -1.1711 H   0  0  0  0  0  0  0  0  0  0  0  0
   -7.2852    3.1724   -0.5446 H   0  0  0  0  0  0  0  0  0  0  0  0
   -6.5409    2.3326    0.8635 H   0  0  0  0  0  0  0  0  0  0  0  0
   -2.9255   -1.2014   -2.3805 H   0  0  0  0  0  0  0  0  0  0  0  0
    3.1888    1.1143   -1.8506 H   0  0  0  0  0  0  0  0  0  0  0  0
    1.2325   -2.0148   -0.3069 H   0  0  0  0  0  0  0  0  0  0  0  0
    6.9624   -1.6399    0.6297 H   0  0  0  0  0  0  0  0  0  0  0  0
    7.2299   -0.0389    1.3700 H   0  0  0  0  0  0  0  0  0  0  0  0
    5.5178    0.6202   -1.9504 H   0  0  0  0  0  0  0  0  0  0  0  0
    6.8471    1.7599   -1.7079 H   0  0  0  0  0  0  0  0  0  0  0  0
    9.0603    2.5612   -1.4544 H   0  0  0  0  0  0  0  0  0  0  0  0
  1  2  1  0
  2  3  1  0
  5  6  1  0
  6  7  1  0
  7  8  1  0
  9 10  1  0
 10 11  1  0
 12 13  1  0
  4 16  1  0
 16 17  1  0
  9 18  1  0
 18 19  1  0
  1 20  1  0
 19 20  1  0
  2 21  1  0
 19 21  1  0
  3 22  1  0
  7 23  1  0
 22 23  1  0
 23 24  1  0
  5 25  1  0
 24 25  1  0
 24 26  1  0
  3 27  1  0
 11 28  1  0
 12 28  1  0
  9 29  1  0
 12 29  1  0
 11 30  1  0
 14 30  1  0
 15 30  1  0
  4 31  1  0
 14 31  1  0
  4 32  1  0
 15 32  1  0
 17 33  1  0
 34 35  1  0
 35 36  1  0
 38 39  1  0
 39 40  1  0
 40 41  1  0
 42 43  1  0
 43 44  1  0
 45 46  1  0
 37 49  1  0
 49 50  1  0
 42 51  1  0
 51 52  1  0
 34 53  1  0
 52 53  1  0
 35 54  1  0
 52 54  1  0
 36 55  1  0
 40 56  1  0
 55 56  1  0
 56 57  1  0
 38 58  1  0
 57 58  1  0
 57 59  1  0
 36 60  1  0
 44 61  1  0
 45 61  1  0
 42 62  1  0
 45 62  1  0
 44 63  1  0
 47 63  1  0
 48 63  1  0
 37 64  1  0
 47 64  1  0
 37 65  1  0
 48 65  1  0
 50 66  1  0
  1 67  1  0
  1 68  1  0
  2 69  1  0
  3 70  1  0
  5 71  1  0
  5 72  1  0
  6 73  1  0
  6 74  1  0
  7 75  1  0
  8 76  1  0
  8 77  1  0
  8 78  1  0
  9 79  1  0
 10 80  1  0
 10 81  1  0
 11 82  1  0
 12 83  1  0
 13 84  1  0
 13 85  1  0
 13 86  1  0
 14 87  1  0
 14 88  1  0
 15 89  1  0
 15 90  1  0
 16 91  1  0
 16 92  1  0
 17 93  1  0
 17 94  1  0
 18 95  1  0
 19 96  1  1
 20 97  1  0
 22 98  1  0
 23 99  1  1
 24100  1  0
 25101  1  0
 25102  1  0
 27103  1  0
 28104  1  0
 29105  1  0
 31106  1  0
 31107  1  0
 32108  1  0
 32109  1  0
 33110  1  0
 34111  1  0
 34112  1  0
 35113  1  0
 36114  1  0
 38115  1  0
 38116  1  0
 39117  1  0
 39118  1  0
 40119  1  0
 41120  1  0
 41121  1  0
 41122  1  0
 42123  1  0
 43124  1  0
 43125  1  0
 44126  1  6
 45127  1  0
 46128  1  0
 46129  1  0
 46130  1  0
 47131  1  0
 47132  1  0
 48133  1  0
 48134  1  0
 49135  1  0
 49136  1  0
 50137  1  0
 50138  1  0
 51139  1  0
 52140  1  1
 53141  1  0
 55142  1  0
 56143  1  0
 57144  1  0
 58145  1  0
 58146  1  0
 60147  1  0
 61148  1  0
 62149  1  0
 64150  1  0
 64151  1  0
 65152  1  0
 65153  1  0
 66154  1  0
M  END
>  <PDBID>  (1) 
2GQG

>  <PDB ID>  (1) 
2GQG

>  <Generic Name>  (1) 
Dasatinib

>  <Brand Name>  (1) 
Sprycel

>  <DrugBank ID>  (1) 
DB01254

>  <ATC Codes>  (1) 
L01XE06

>  <Ligand ID>  (1) 
1N1

>  <Target Name>  (1) 
Tyrosine-protein kinase ABL1

>  <UniProt ID>  (1) 
P00519

>  <PDB ID.1>  (1) 
2GQG

>  <Seq. Identity>  (1) 
96%

$$$$
