PDB_DB00939_00
     RDKit          3D

 88 90  0  0  0  0  0  0  0  0999 V2000
   -3.5696    1.3617    1.5880 O   0  0  0  0  0  0  0  0  0  0  0  0
   -2.6630    1.8586    0.6502 C   0  0  0  0  0  0  0  0  0  0  0  0
   -3.1668    2.9620    0.0134 O   0  0  0  0  0  0  0  0  0  0  0  0
   -2.1182    0.7835   -0.2702 C   0  0  0  0  0  0  0  0  0  0  0  0
   -3.2272    0.1004   -1.0050 C   0  0  0  0  0  0  0  0  0  0  0  0
   -3.6393   -1.2367   -0.4918 C   0  0  0  0  0  0  0  0  0  0  0  0
   -2.4656   -2.0659   -0.0263 C   0  0  0  0  0  0  0  0  0  0  0  0
   -1.8410   -1.2694    1.1183 C   0  0  0  0  0  0  0  0  0  0  0  0
   -1.1519   -0.0962    0.4131 C   0  0  0  0  0  0  0  0  0  0  0  0
   -0.0918   -0.5725   -0.4355 N   0  0  0  0  0  0  0  0  0  0  0  0
    1.2223   -0.5494    0.0479 C   0  0  0  0  0  0  0  0  0  0  0  0
    1.9205    0.7226    0.3265 C   0  0  0  0  0  0  0  0  0  0  0  0
    1.0418    2.1577   -0.1895 Cl  0  0  0  0  0  0  0  0  0  0  0  0
    3.2923    0.7950   -0.3419 C   0  0  0  0  0  0  0  0  0  0  0  0
    3.9783    2.0405    0.1705 C   0  0  0  0  0  0  0  0  0  0  0  0
    4.1572   -0.3960   -0.0408 C   0  0  0  0  0  0  0  0  0  0  0  0
    3.3652   -1.6667    0.0009 C   0  0  0  0  0  0  0  0  0  0  0  0
    2.1263   -1.4196   -0.8566 C   0  0  0  0  0  0  0  0  0  0  0  0
    1.3051   -2.9477   -1.2205 Cl  0  0  0  0  0  0  0  0  0  0  0  0
   -3.0158    0.0043   -2.1037 H   0  0  0  0  0  0  0  0  0  0  0  0
   -4.3256   -1.1724    0.4048 H   0  0  0  0  0  0  0  0  0  0  0  0
   -2.8231   -3.0505    0.2996 H   0  0  0  0  0  0  0  0  0  0  0  0
   -2.6403   -0.8565    1.7197 H   0  0  0  0  0  0  0  0  0  0  0  0
   -0.2639   -0.5730   -1.4366 H   0  0  0  0  0  0  0  0  0  0  0  0
    3.4029    2.5682    0.9438 H   0  0  0  0  0  0  0  0  0  0  0  0
    4.9594    1.8054    0.6352 H   0  0  0  0  0  0  0  0  0  0  0  0
    4.2340    2.7314   -0.6848 H   0  0  0  0  0  0  0  0  0  0  0  0
    4.9585   -0.4134   -0.8158 H   0  0  0  0  0  0  0  0  0  0  0  0
    3.8569   -2.5465   -0.4077 H   0  0  0  0  0  0  0  0  0  0  0  0
   -3.5696    1.3617    1.5880 O   0  0  0  0  0  0  0  0  0  0  0  0
   -2.6630    1.8586    0.6502 C   0  0  0  0  0  0  0  0  0  0  0  0
   -3.1668    2.9620    0.0134 O   0  0  0  0  0  0  0  0  0  0  0  0
   -2.1182    0.7835   -0.2702 C   0  0  0  0  0  0  0  0  0  0  0  0
   -3.2272    0.1004   -1.0050 C   0  0  0  0  0  0  0  0  0  0  0  0
   -3.6393   -1.2367   -0.4918 C   0  0  0  0  0  0  0  0  0  0  0  0
   -2.4656   -2.0659   -0.0263 C   0  0  0  0  0  0  0  0  0  0  0  0
   -1.8410   -1.2694    1.1183 C   0  0  0  0  0  0  0  0  0  0  0  0
   -1.1519   -0.0962    0.4131 C   0  0  0  0  0  0  0  0  0  0  0  0
   -0.0918   -0.5725   -0.4355 N   0  0  0  0  0  0  0  0  0  0  0  0
    1.2223   -0.5494    0.0479 C   0  0  0  0  0  0  0  0  0  0  0  0
    1.9205    0.7226    0.3265 C   0  0  0  0  0  0  0  0  0  0  0  0
    1.0418    2.1577   -0.1895 Cl  0  0  0  0  0  0  0  0  0  0  0  0
    3.2923    0.7950   -0.3419 C   0  0  0  0  0  0  0  0  0  0  0  0
    3.9783    2.0405    0.1705 C   0  0  0  0  0  0  0  0  0  0  0  0
    4.1572   -0.3960   -0.0408 C   0  0  0  0  0  0  0  0  0  0  0  0
    3.3652   -1.6667    0.0009 C   0  0  0  0  0  0  0  0  0  0  0  0
    2.1263   -1.4196   -0.8566 C   0  0  0  0  0  0  0  0  0  0  0  0
    1.3051   -2.9477   -1.2205 Cl  0  0  0  0  0  0  0  0  0  0  0  0
   -3.0158    0.0043   -2.1037 H   0  0  0  0  0  0  0  0  0  0  0  0
   -4.3256   -1.1724    0.4048 H   0  0  0  0  0  0  0  0  0  0  0  0
   -2.8231   -3.0505    0.2996 H   0  0  0  0  0  0  0  0  0  0  0  0
   -2.6403   -0.8565    1.7197 H   0  0  0  0  0  0  0  0  0  0  0  0
   -0.2639   -0.5730   -1.4366 H   0  0  0  0  0  0  0  0  0  0  0  0
    3.4029    2.5682    0.9438 H   0  0  0  0  0  0  0  0  0  0  0  0
    4.9594    1.8054    0.6352 H   0  0  0  0  0  0  0  0  0  0  0  0
    4.2340    2.7314   -0.6848 H   0  0  0  0  0  0  0  0  0  0  0  0
    4.9585   -0.4134   -0.8158 H   0  0  0  0  0  0  0  0  0  0  0  0
    3.8569   -2.5465   -0.4077 H   0  0  0  0  0  0  0  0  0  0  0  0
   -4.4860    1.6367    1.3467 H   0  0  0  0  0  0  0  0  0  0  0  0
   -1.7839    2.2282    1.2835 H   0  0  0  0  0  0  0  0  0  0  0  0
   -3.6875    2.7285   -0.7897 H   0  0  0  0  0  0  0  0  0  0  0  0
   -1.5610    1.3576   -1.0709 H   0  0  0  0  0  0  0  0  0  0  0  0
   -4.1325    0.7450   -0.9557 H   0  0  0  0  0  0  0  0  0  0  0  0
   -4.1597   -1.7888   -1.2702 H   0  0  0  0  0  0  0  0  0  0  0  0
   -1.7327   -2.2383   -0.8370 H   0  0  0  0  0  0  0  0  0  0  0  0
   -1.1087   -1.8602    1.6676 H   0  0  0  0  0  0  0  0  0  0  0  0
   -0.6658    0.4888    1.2423 H   0  0  0  0  0  0  0  0  0  0  0  0
    1.2925   -1.1373    1.0512 H   0  0  0  0  0  0  0  0  0  0  0  0
    2.1581    0.8801    1.4234 H   0  0  0  0  0  0  0  0  0  0  0  0
    3.0896    0.9286   -1.4082 H   0  0  0  0  0  0  0  0  0  0  0  0
    4.6113   -0.2668    0.9855 H   0  0  0  0  0  0  0  0  0  0  0  0
    2.9966   -1.8414    1.0519 H   0  0  0  0  0  0  0  0  0  0  0  0
    2.3523   -0.9195   -1.7989 H   0  0  0  0  0  0  0  0  0  0  0  0
   -4.4860    1.6367    1.3467 H   0  0  0  0  0  0  0  0  0  0  0  0
   -1.7839    2.2282    1.2835 H   0  0  0  0  0  0  0  0  0  0  0  0
   -3.6875    2.7285   -0.7897 H   0  0  0  0  0  0  0  0  0  0  0  0
   -1.5610    1.3576   -1.0709 H   0  0  0  0  0  0  0  0  0  0  0  0
   -4.1325    0.7450   -0.9557 H   0  0  0  0  0  0  0  0  0  0  0  0
   -4.1597   -1.7888   -1.2702 H   0  0  0  0  0  0  0  0  0  0  0  0
   -1.7327   -2.2383   -0.8370 H   0  0  0  0  0  0  0  0  0  0  0  0
   -1.1087   -1.8602    1.6676 H   0  0  0  0  0  0  0  0  0  0  0  0
   -0.6658    0.4888    1.2423 H   0  0  0  0  0  0  0  0  0  0  0  0
    1.2925   -1.1373    1.0512 H   0  0  0  0  0  0  0  0  0  0  0  0
    2.1581    0.8801    1.4234 H   0  0  0  0  0  0  0  0  0  0  0  0
    3.0896    0.9286   -1.4082 H   0  0  0  0  0  0  0  0  0  0  0  0
    4.6113   -0.2668    0.9855 H   0  0  0  0  0  0  0  0  0  0  0  0
    2.9966   -1.8414    1.0519 H   0  0  0  0  0  0  0  0  0  0  0  0
    2.3523   -0.9195   -1.7989 H   0  0  0  0  0  0  0  0  0  0  0  0
  1  2  1  0
  2  3  1  0
  2  4  1  0
  4  5  1  0
  5  6  1  0
  6  7  1  0
  7  8  1  0
  4  9  1  0
  8  9  1  0
  9 10  1  0
 10 11  1  0
 11 12  1  0
 12 13  1  0
 12 14  1  0
 14 15  1  0
 14 16  1  0
 16 17  1  0
 11 18  1  0
 17 18  1  0
 18 19  1  0
  5 20  1  0
  6 21  1  0
  7 22  1  0
  8 23  1  0
 10 24  1  0
 15 25  1  0
 15 26  1  0
 15 27  1  0
 16 28  1  0
 17 29  1  0
 30 31  1  0
 31 32  1  0
 31 33  1  0
 33 34  1  0
 34 35  1  0
 35 36  1  0
 36 37  1  0
 33 38  1  0
 37 38  1  0
 38 39  1  0
 39 40  1  0
 40 41  1  0
 41 42  1  0
 41 43  1  0
 43 44  1  0
 43 45  1  0
 45 46  1  0
 40 47  1  0
 46 47  1  0
 47 48  1  0
 34 49  1  0
 35 50  1  0
 36 51  1  0
 37 52  1  0
 39 53  1  0
 44 54  1  0
 44 55  1  0
 44 56  1  0
 45 57  1  0
 46 58  1  0
  1 59  1  0
  2 60  1  0
  3 61  1  0
  4 62  1  0
  5 63  1  0
  6 64  1  0
  7 65  1  0
  8 66  1  0
  9 67  1  0
 11 68  1  0
 12 69  1  0
 14 70  1  0
 16 71  1  0
 17 72  1  0
 18 73  1  0
 30 74  1  0
 31 75  1  0
 32 76  1  0
 33 77  1  0
 34 78  1  0
 35 79  1  0
 36 80  1  0
 37 81  1  0
 38 82  1  0
 40 83  1  0
 41 84  1  0
 43 85  1  0
 45 86  1  0
 46 87  1  0
 47 88  1  0
M  END
>  <PDBID>  (1) 
5IKQ

>  <PDB ID>  (1) 
5IKQ

>  <Generic Name>  (1) 
Meclofenamic acid

>  <Brand Name>  (1) 
Meclofenamate Sodium#Ethos#Eucome#Meclomen

>  <DrugBank ID>  (1) 
DB00939

>  <ATC Codes>  (1) 
M01AG04#M02AA18

>  <Ligand ID>  (1) 
JMS

>  <Target Name>  (1) 
Prostaglandin G/H synthase 1

>  <UniProt ID>  (1) 
P23219

>  <PDB ID.1>  (1) 
5IKQ

>  <Seq. Identity>  (1) 
61%

$$$$
