PDB_DB06605_06
     RDKit          3D

 81 85  0  0  0  0  0  0  0  0999 V2000
   -5.3381    2.1526    0.9289 C   0  0  0  0  0  0  0  0  0  0  0  0
   -4.9743    0.7387    1.3224 C   0  0  0  0  0  0  0  0  0  0  0  0
   -3.5496    0.5058    0.7779 C   0  0  0  0  0  0  0  0  0  0  0  0
   -4.2340    2.9601    1.2724 O   0  0  0  0  0  0  0  0  0  0  0  0
   -3.9911   -1.7514   -1.3530 N   0  0  0  0  0  0  0  0  0  0  0  0
    1.5625   -0.5057    0.0236 C   0  0  0  0  0  0  0  0  0  0  0  0
   -0.7949   -0.2662   -0.5191 C   0  0  0  0  0  0  0  0  0  0  0  0
   -3.2320   -2.9707   -1.1013 C   0  0  2  0  0  0  0  0  0  0  0  0
   -4.0050   -3.9076   -0.2371 C   0  0  0  0  0  0  0  0  0  0  0  0
   -1.9582   -2.4635   -0.4356 C   0  0  0  0  0  0  0  0  0  0  0  0
   -1.8408   -1.1385   -1.1759 C   0  0  0  0  0  0  0  0  0  0  0  0
    3.6511    0.4255   -0.8537 C   0  0  0  0  0  0  0  0  0  0  0  0
   -4.5931    3.9986    2.1090 C   0  0  0  0  0  0  0  0  0  0  0  0
    4.0346    0.2400    0.5757 C   0  0  0  0  0  0  0  0  0  0  0  0
    5.4470    2.2087    0.7552 C   0  0  0  0  0  0  0  0  0  0  0  0
    6.3687   -0.0008    0.4054 C   0  0  0  0  0  0  0  0  0  0  0  0
    7.6683    0.5713    0.9097 C   0  0  0  0  0  0  0  0  0  0  0  0
    1.6044    0.2976    1.2754 C   0  0  0  0  0  0  0  0  0  0  0  0
    0.3870   -2.3012   -1.0730 C   0  0  0  0  0  0  0  0  0  0  0  0
   -3.6084    0.5025   -0.7132 C   0  0  0  0  0  0  0  0  0  0  0  0
   -5.0253    0.8503   -1.1857 C   0  0  0  0  0  0  0  0  0  0  0  0
   -5.4564    2.1576   -0.5798 C   0  0  0  0  0  0  0  0  0  0  0  0
   -3.1334   -0.6833   -1.2686 N   0  0  0  0  0  0  0  0  0  0  0  0
    0.3269   -1.1199   -0.2850 N   0  0  0  0  0  0  0  0  0  0  0  0
    2.1590    0.3340   -1.0834 C   0  0  0  0  0  0  0  0  0  0  0  0
    5.3023    0.8095    0.8966 N   0  0  0  0  0  0  0  0  0  0  0  0
    3.0149    0.7136    1.5577 C   0  0  0  0  0  0  0  0  0  0  0  0
   -0.5045    0.7511   -1.4556 O   0  0  0  0  0  0  0  0  0  0  0  0
    7.8684    1.9008    0.2246 C   0  0  0  0  0  0  0  0  0  0  0  0
    5.8656    2.7189    2.0079 O   0  0  0  0  0  0  0  0  0  0  0  0
    6.5969    2.5613   -0.1978 C   0  0  0  0  0  0  0  0  0  0  0  0
   -3.2385   -5.0748   -0.0157 O   0  0  0  0  0  0  0  0  0  0  0  0
   -5.1540   -4.3639   -1.0291 N   0  0  0  0  0  0  0  0  0  0  0  0
   -0.7468   -3.2800   -0.8289 C   0  0  0  0  0  0  0  0  0  0  0  0
   -6.2684    2.4871    1.3823 H   0  0  0  0  0  0  0  0  0  0  0  0
   -4.9191    0.6370    2.4428 H   0  0  0  0  0  0  0  0  0  0  0  0
   -5.6850   -0.0080    0.9513 H   0  0  0  0  0  0  0  0  0  0  0  0
   -2.9766    1.4013    1.1131 H   0  0  0  0  0  0  0  0  0  0  0  0
   -3.2241   -0.4154    1.2567 H   0  0  0  0  0  0  0  0  0  0  0  0
   -4.3564   -1.8431   -2.3312 H   0  0  0  0  0  0  0  0  0  0  0  0
    2.2960   -1.3555    0.1706 H   0  0  0  0  0  0  0  0  0  0  0  0
   -1.0812    0.1790    0.4270 H   0  0  0  0  0  0  0  0  0  0  0  0
   -2.9378   -3.4813   -2.0231 H   0  0  0  0  0  0  0  0  0  0  0  0
   -4.3699   -3.4953    0.7020 H   0  0  0  0  0  0  0  0  0  0  0  0
   -2.0575   -2.3594    0.6453 H   0  0  0  0  0  0  0  0  0  0  0  0
   -1.3759   -1.4291   -2.1721 H   0  0  0  0  0  0  0  0  0  0  0  0
    4.1195   -0.3857   -1.4487 H   0  0  0  0  0  0  0  0  0  0  0  0
    4.0181    1.3808   -1.3015 H   0  0  0  0  0  0  0  0  0  0  0  0
   -3.7032    4.5869    2.3415 H   0  0  0  0  0  0  0  0  0  0  0  0
   -5.3103    4.6434    1.5480 H   0  0  0  0  0  0  0  0  0  0  0  0
   -5.0578    3.5564    3.0045 H   0  0  0  0  0  0  0  0  0  0  0  0
    4.1665   -0.8715    0.7465 H   0  0  0  0  0  0  0  0  0  0  0  0
    4.5552    2.7673    0.4846 H   0  0  0  0  0  0  0  0  0  0  0  0
    6.2175   -1.0369    0.8301 H   0  0  0  0  0  0  0  0  0  0  0  0
    6.3737   -0.0045   -0.6941 H   0  0  0  0  0  0  0  0  0  0  0  0
    8.4695   -0.1513    0.6198 H   0  0  0  0  0  0  0  0  0  0  0  0
    7.6496    0.6645    2.0212 H   0  0  0  0  0  0  0  0  0  0  0  0
    1.1412   -0.2480    2.1385 H   0  0  0  0  0  0  0  0  0  0  0  0
    1.0035    1.2466    1.2038 H   0  0  0  0  0  0  0  0  0  0  0  0
    0.5340   -2.1152   -2.1751 H   0  0  0  0  0  0  0  0  0  0  0  0
    1.3232   -2.8466   -0.7586 H   0  0  0  0  0  0  0  0  0  0  0  0
   -2.9829    1.3716   -1.0926 H   0  0  0  0  0  0  0  0  0  0  0  0
   -5.7311    0.0258   -1.0752 H   0  0  0  0  0  0  0  0  0  0  0  0
   -4.8945    1.0576   -2.2899 H   0  0  0  0  0  0  0  0  0  0  0  0
   -6.5317    2.3201   -0.8562 H   0  0  0  0  0  0  0  0  0  0  0  0
   -4.8443    2.9593   -1.0080 H   0  0  0  0  0  0  0  0  0  0  0  0
    1.7368    1.3564   -0.9790 H   0  0  0  0  0  0  0  0  0  0  0  0
    1.8947   -0.0415   -2.0882 H   0  0  0  0  0  0  0  0  0  0  0  0
    3.1335    1.8318    1.6436 H   0  0  0  0  0  0  0  0  0  0  0  0
    3.3064    0.2964    2.5662 H   0  0  0  0  0  0  0  0  0  0  0  0
   -0.4842    0.3710   -2.3641 H   0  0  0  0  0  0  0  0  0  0  0  0
    8.4445    1.6740   -0.7210 H   0  0  0  0  0  0  0  0  0  0  0  0
    8.5400    2.5767    0.8010 H   0  0  0  0  0  0  0  0  0  0  0  0
    5.3750    2.3118    2.7481 H   0  0  0  0  0  0  0  0  0  0  0  0
    6.3475    2.3258   -1.2356 H   0  0  0  0  0  0  0  0  0  0  0  0
    6.7702    3.6675   -0.1522 H   0  0  0  0  0  0  0  0  0  0  0  0
   -2.9840   -5.4141   -0.9238 H   0  0  0  0  0  0  0  0  0  0  0  0
   -5.8452   -4.8647   -0.4227 H   0  0  0  0  0  0  0  0  0  0  0  0
   -4.8105   -5.1130   -1.7033 H   0  0  0  0  0  0  0  0  0  0  0  0
   -0.9742   -3.8951   -1.6995 H   0  0  0  0  0  0  0  0  0  0  0  0
   -0.4899   -3.8919    0.0765 H   0  0  0  0  0  0  0  0  0  0  0  0
  1  2  1  0
  2  3  1  0
  1  4  1  0
  5  8  1  0
  8  9  1  0
  8 10  1  0
  7 11  1  0
 10 11  1  0
  4 13  1  0
 12 14  1  0
 16 17  1  0
  6 18  1  0
  3 20  1  0
 20 21  1  0
  1 22  1  0
 21 22  1  0
  5 23  1  0
 11 23  1  0
 20 23  1  0
  6 24  1  0
  7 24  1  0
 19 24  1  0
  6 25  1  0
 12 25  1  0
 14 26  1  0
 15 26  1  0
 16 26  1  0
 14 27  1  0
 18 27  1  0
  7 28  1  0
 17 29  1  0
 15 30  1  0
 15 31  1  0
 29 31  1  0
  9 32  1  0
  9 33  1  0
 10 34  1  0
 19 34  1  0
  1 35  1  0
  2 36  1  0
  2 37  1  0
  3 38  1  0
  3 39  1  0
  5 40  1  0
  6 41  1  0
  7 42  1  0
  8 43  1  6
  9 44  1  0
 10 45  1  0
 11 46  1  0
 12 47  1  0
 12 48  1  0
 13 49  1  0
 13 50  1  0
 13 51  1  0
 14 52  1  0
 15 53  1  0
 16 54  1  0
 16 55  1  0
 17 56  1  0
 17 57  1  0
 18 58  1  0
 18 59  1  0
 19 60  1  0
 19 61  1  0
 20 62  1  0
 21 63  1  0
 21 64  1  0
 22 65  1  0
 22 66  1  0
 25 67  1  0
 25 68  1  0
 27 69  1  0
 27 70  1  0
 28 71  1  0
 29 72  1  0
 29 73  1  0
 30 74  1  0
 31 75  1  0
 31 76  1  0
 32 77  1  0
 33 78  1  0
 33 79  1  0
 34 80  1  0
 34 81  1  0
M  END
>  <PDBID>  (1) 
2P16

>  <PDB ID>  (1) 
2P16

>  <Generic Name>  (1) 
Apixaban

>  <Brand Name>  (1) 
Eliquis

>  <DrugBank ID>  (1) 
DB06605

>  <ATC Codes>  (1) 
B01AF02

>  <Ligand ID>  (1) 
GG2

>  <Target Name>  (1) 
Coagulation factor X

>  <UniProt ID>  (1) 
P00742

>  <PDB ID.1>  (1) 
2P16

>  <Seq. Identity>  (1) 
100%

$$$$
