PDB_DB01026_00
     RDKit          3D

164172  0  0  0  0  0  0  0  0999 V2000
   -5.5031   -3.2299   -1.1848 C   0  0  0  0  0  0  0  0  0  0  0  0
   -5.5466   -1.8407   -0.7162 N   0  0  0  0  0  0  0  0  0  0  0  0
   -2.5195    0.0681    0.0864 O   0  0  0  0  0  0  0  0  0  0  0  0
   -6.7061    1.6141    3.7071 Cl  0  0  0  0  0  0  0  0  0  0  0  0
   -7.2763   -2.0848   -2.1874 C   0  0  0  0  0  0  0  0  0  0  0  0
   -6.7394   -3.4055   -1.9216 N   0  0  0  0  0  0  0  0  0  0  0  0
   -4.3455    0.8024   -0.9640 O   0  0  0  0  0  0  0  0  0  0  0  0
   -3.8592    1.9447    3.3641 Cl  0  0  0  0  0  0  0  0  0  0  0  0
   -6.0788   -1.2093   -1.9069 C   0  0  0  0  0  0  0  0  0  0  0  0
    5.2214   -0.3859    0.9314 N   0  0  0  0  0  0  0  0  0  0  0  0
    0.1061    0.4208   -0.5811 O   0  0  0  0  0  0  0  0  0  0  0  0
   -4.1447   -1.4685   -0.5053 C   0  0  0  0  0  0  0  0  0  0  0  0
    7.9565   -0.6357    1.3878 N   0  0  0  0  0  0  0  0  0  0  0  0
   10.0488    0.3148    1.3750 O   0  0  0  0  0  0  0  0  0  0  0  0
   -3.9317   -0.1088    0.0144 C   0  0  1  0  0  0  0  0  0  0  0  0
   -2.1326    0.8582   -0.9499 C   0  0  2  0  0  0  0  0  0  0  0  0
   -3.2924    0.8480   -1.8848 C   0  0  0  0  0  0  0  0  0  0  0  0
   -4.5635    0.2687    1.3038 C   0  0  0  0  0  0  0  0  0  0  0  0
   -4.3365    1.7369    1.6508 C   0  0  0  0  0  0  0  0  0  0  0  0
   -5.5462    2.5909    1.4294 C   0  0  0  0  0  0  0  0  0  0  0  0
   -6.8240    2.0009    1.9790 C   0  0  0  0  0  0  0  0  0  0  0  0
   -7.0297    0.7189    1.1528 C   0  0  0  0  0  0  0  0  0  0  0  0
   -5.9215   -0.1973    1.6223 C   0  0  0  0  0  0  0  0  0  0  0  0
   -0.8286    0.3636   -1.5957 C   0  0  0  0  0  0  0  0  0  0  0  0
    1.3815    0.0257   -0.9233 C   0  0  0  0  0  0  0  0  0  0  0  0
    2.2793    1.2188   -0.6768 C   0  0  0  0  0  0  0  0  0  0  0  0
    3.7591    0.8393   -0.6474 C   0  0  0  0  0  0  0  0  0  0  0  0
    3.8941   -0.1173    0.5199 C   0  0  0  0  0  0  0  0  0  0  0  0
    3.2144   -1.3934    0.0749 C   0  0  0  0  0  0  0  0  0  0  0  0
    1.7197   -1.1540   -0.0162 C   0  0  0  0  0  0  0  0  0  0  0  0
    5.9412    0.7525    1.4096 C   0  0  0  0  0  0  0  0  0  0  0  0
    7.3947    0.6185    0.9903 C   0  0  0  0  0  0  0  0  0  0  0  0
    7.1742   -1.7683    1.0061 C   0  0  0  0  0  0  0  0  0  0  0  0
    5.9852   -1.2952    0.1548 C   0  0  0  0  0  0  0  0  0  0  0  0
    9.2864   -0.7581    0.8851 C   0  0  0  0  0  0  0  0  0  0  0  0
    9.4206   -0.7628   -0.6007 C   0  0  0  0  0  0  0  0  0  0  0  0
   -6.2855   -2.2294   -1.2566 C   0  0  0  0  0  0  0  0  0  0  0  0
   -5.9588   -0.7875   -1.1670 N   0  0  0  0  0  0  0  0  0  0  0  0
   -2.5004    0.2437   -0.5311 O   0  0  0  0  0  0  0  0  0  0  0  0
   -5.3434    2.4153    3.5741 Cl  0  0  0  0  0  0  0  0  0  0  0  0
   -7.6711   -0.9826   -2.6637 C   0  0  0  0  0  0  0  0  0  0  0  0
   -7.5790   -2.2061   -1.9086 N   0  0  0  0  0  0  0  0  0  0  0  0
   -4.0087    1.3002   -1.8344 O   0  0  0  0  0  0  0  0  0  0  0  0
   -5.9668    3.5281    0.6773 Cl  0  0  0  0  0  0  0  0  0  0  0  0
   -6.2801   -0.4355   -2.5380 C   0  0  0  0  0  0  0  0  0  0  0  0
    4.9841   -1.1586    1.5186 N   0  0  0  0  0  0  0  0  0  0  0  0
    0.2167    0.3909   -0.5352 O   0  0  0  0  0  0  0  0  0  0  0  0
   -4.5331   -0.7815   -0.9192 C   0  0  0  0  0  0  0  0  0  0  0  0
    7.8448   -1.1512    1.5903 N   0  0  0  0  0  0  0  0  0  0  0  0
    9.7921    0.0557    1.5914 O   0  0  0  0  0  0  0  0  0  0  0  0
   -3.8949    0.5218   -0.7038 C   0  0  1  0  0  0  0  0  0  0  0  0
   -1.8452    1.1400   -1.3393 C   0  0  2  0  0  0  0  0  0  0  0  0
   -2.7944    1.2484   -2.5092 C   0  0  0  0  0  0  0  0  0  0  0  0
   -4.3537    1.3357    0.4847 C   0  0  0  0  0  0  0  0  0  0  0  0
   -5.7816    1.7383    0.4786 C   0  0  0  0  0  0  0  0  0  0  0  0
   -6.6535    1.1395    1.5388 C   0  0  0  0  0  0  0  0  0  0  0  0
   -5.9814    0.9307    2.8651 C   0  0  0  0  0  0  0  0  0  0  0  0
   -4.8395   -0.0534    2.5353 C   0  0  0  0  0  0  0  0  0  0  0  0
   -3.8394    0.8061    1.7974 C   0  0  0  0  0  0  0  0  0  0  0  0
   -0.4934    0.5807   -1.7134 C   0  0  0  0  0  0  0  0  0  0  0  0
    1.4979   -0.1212   -0.7605 C   0  0  0  0  0  0  0  0  0  0  0  0
    2.4643    0.9310   -0.2661 C   0  0  0  0  0  0  0  0  0  0  0  0
    3.8518    0.3839   -0.0434 C   0  0  0  0  0  0  0  0  0  0  0  0
    3.7051   -0.7176    1.0096 C   0  0  0  0  0  0  0  0  0  0  0  0
    3.0061   -1.8491    0.2895 C   0  0  0  0  0  0  0  0  0  0  0  0
    1.5947   -1.4192   -0.0337 C   0  0  0  0  0  0  0  0  0  0  0  0
    5.7070   -0.1286    2.1875 C   0  0  0  0  0  0  0  0  0  0  0  0
    7.0957    0.0624    1.5755 C   0  0  0  0  0  0  0  0  0  0  0  0
    7.0735   -2.2964    1.1651 C   0  0  0  0  0  0  0  0  0  0  0  0
    5.7936   -1.7970    0.5358 C   0  0  0  0  0  0  0  0  0  0  0  0
    9.1041   -0.9971    0.9531 C   0  0  2  0  0  0  0  0  0  0  0  0
    9.0690   -0.6703   -0.5074 C   0  0  0  0  0  0  0  0  0  0  0  0
   -4.6631   -3.4264   -1.8511 H   0  0  0  0  0  0  0  0  0  0  0  0
   -5.5525   -3.9309   -0.3126 H   0  0  0  0  0  0  0  0  0  0  0  0
   -7.5374   -1.9628   -3.2565 H   0  0  0  0  0  0  0  0  0  0  0  0
   -8.1400   -1.8184   -1.5608 H   0  0  0  0  0  0  0  0  0  0  0  0
   -7.4273   -4.0012   -1.4105 H   0  0  0  0  0  0  0  0  0  0  0  0
   -5.3419   -1.3914   -2.7125 H   0  0  0  0  0  0  0  0  0  0  0  0
   -6.2796   -0.1524   -1.8393 H   0  0  0  0  0  0  0  0  0  0  0  0
   -3.7363   -2.2908    0.1189 H   0  0  0  0  0  0  0  0  0  0  0  0
   -3.6692   -1.6123   -1.5001 H   0  0  0  0  0  0  0  0  0  0  0  0
    9.7706    0.5369    2.3045 H   0  0  0  0  0  0  0  0  0  0  0  0
   -1.9020    1.9118   -0.6635 H   0  0  0  0  0  0  0  0  0  0  0  0
   -3.3134    0.0472   -2.6216 H   0  0  0  0  0  0  0  0  0  0  0  0
   -3.3731    1.8483   -2.4002 H   0  0  0  0  0  0  0  0  0  0  0  0
   -3.8986   -0.2487    2.0818 H   0  0  0  0  0  0  0  0  0  0  0  0
   -3.5180    2.1855    1.0538 H   0  0  0  0  0  0  0  0  0  0  0  0
   -5.3770    3.5305    2.0091 H   0  0  0  0  0  0  0  0  0  0  0  0
   -5.7254    2.8312    0.3686 H   0  0  0  0  0  0  0  0  0  0  0  0
   -7.6567    2.6669    1.7445 H   0  0  0  0  0  0  0  0  0  0  0  0
   -6.9624    1.0325    0.1164 H   0  0  0  0  0  0  0  0  0  0  0  0
   -7.9867    0.2502    1.4269 H   0  0  0  0  0  0  0  0  0  0  0  0
   -6.0619   -1.2513    1.4332 H   0  0  0  0  0  0  0  0  0  0  0  0
   -6.0345   -0.1345    2.7630 H   0  0  0  0  0  0  0  0  0  0  0  0
   -1.0534   -0.6734   -1.9485 H   0  0  0  0  0  0  0  0  0  0  0  0
   -0.5864    0.9531   -2.4869 H   0  0  0  0  0  0  0  0  0  0  0  0
    1.4983   -0.3006   -1.9719 H   0  0  0  0  0  0  0  0  0  0  0  0
    1.9908    1.6328    0.3043 H   0  0  0  0  0  0  0  0  0  0  0  0
    2.1463    1.9153   -1.5255 H   0  0  0  0  0  0  0  0  0  0  0  0
    3.9988    0.3087   -1.5953 H   0  0  0  0  0  0  0  0  0  0  0  0
    4.3451    1.7518   -0.5559 H   0  0  0  0  0  0  0  0  0  0  0  0
    3.3310    0.3546    1.3604 H   0  0  0  0  0  0  0  0  0  0  0  0
    3.3783   -2.1520    0.8564 H   0  0  0  0  0  0  0  0  0  0  0  0
    3.6084   -1.6758   -0.9241 H   0  0  0  0  0  0  0  0  0  0  0  0
    1.3698   -0.8862    0.9933 H   0  0  0  0  0  0  0  0  0  0  0  0
    1.2712   -2.0534   -0.4416 H   0  0  0  0  0  0  0  0  0  0  0  0
    5.5861    1.7215    1.0562 H   0  0  0  0  0  0  0  0  0  0  0  0
    5.9223    0.7155    2.5350 H   0  0  0  0  0  0  0  0  0  0  0  0
    7.4998    0.8461   -0.0708 H   0  0  0  0  0  0  0  0  0  0  0  0
    7.9478    1.4257    1.5457 H   0  0  0  0  0  0  0  0  0  0  0  0
    7.7449   -2.5519    0.4701 H   0  0  0  0  0  0  0  0  0  0  0  0
    6.7084   -2.2022    1.9192 H   0  0  0  0  0  0  0  0  0  0  0  0
    5.3907   -2.1773   -0.1542 H   0  0  0  0  0  0  0  0  0  0  0  0
    6.4163   -0.7681   -0.7224 H   0  0  0  0  0  0  0  0  0  0  0  0
    9.7013   -1.7275    1.2865 H   0  0  0  0  0  0  0  0  0  0  0  0
    8.6951   -1.3809   -1.1343 H   0  0  0  0  0  0  0  0  0  0  0  0
   10.4310   -1.2085   -0.8316 H   0  0  0  0  0  0  0  0  0  0  0  0
    9.3871    0.2533   -1.0388 H   0  0  0  0  0  0  0  0  0  0  0  0
   -5.5382   -2.7946   -1.8095 H   0  0  0  0  0  0  0  0  0  0  0  0
   -6.4685   -2.5976   -0.2243 H   0  0  0  0  0  0  0  0  0  0  0  0
   -7.9747   -1.1263   -3.7135 H   0  0  0  0  0  0  0  0  0  0  0  0
   -8.3896   -0.2504   -2.2161 H   0  0  0  0  0  0  0  0  0  0  0  0
   -7.7530   -3.0100   -2.5369 H   0  0  0  0  0  0  0  0  0  0  0  0
   -5.6200   -1.0471   -3.1791 H   0  0  0  0  0  0  0  0  0  0  0  0
   -6.1582    0.6049   -2.7815 H   0  0  0  0  0  0  0  0  0  0  0  0
   -4.3534   -1.5448   -0.1334 H   0  0  0  0  0  0  0  0  0  0  0  0
   -4.1008   -1.2738   -1.8473 H   0  0  0  0  0  0  0  0  0  0  0  0
   10.0832    0.7481    0.9530 H   0  0  0  0  0  0  0  0  0  0  0  0
   -1.6591    2.1308   -0.8738 H   0  0  0  0  0  0  0  0  0  0  0  0
   -2.7013    0.4167   -3.2077 H   0  0  0  0  0  0  0  0  0  0  0  0
   -2.5599    2.2119   -3.0175 H   0  0  0  0  0  0  0  0  0  0  0  0
   -3.7834    2.3139    0.3400 H   0  0  0  0  0  0  0  0  0  0  0  0
   -6.2905    1.5414   -0.4898 H   0  0  0  0  0  0  0  0  0  0  0  0
   -7.0279    0.1346    1.2247 H   0  0  0  0  0  0  0  0  0  0  0  0
   -7.5405    1.7904    1.6745 H   0  0  0  0  0  0  0  0  0  0  0  0
   -6.6656    0.3741    3.5253 H   0  0  0  0  0  0  0  0  0  0  0  0
   -5.3092   -0.8292    1.9386 H   0  0  0  0  0  0  0  0  0  0  0  0
   -4.3508   -0.4248    3.4464 H   0  0  0  0  0  0  0  0  0  0  0  0
   -2.8548    0.3667    1.6717 H   0  0  0  0  0  0  0  0  0  0  0  0
   -3.6926    1.6912    2.4815 H   0  0  0  0  0  0  0  0  0  0  0  0
   -0.6124   -0.4030   -2.2120 H   0  0  0  0  0  0  0  0  0  0  0  0
   -0.0157    1.3240   -2.3839 H   0  0  0  0  0  0  0  0  0  0  0  0
    1.7062   -0.2927   -1.8349 H   0  0  0  0  0  0  0  0  0  0  0  0
    2.0336    1.3408    0.6727 H   0  0  0  0  0  0  0  0  0  0  0  0
    2.5384    1.6926   -1.0712 H   0  0  0  0  0  0  0  0  0  0  0  0
    4.1574   -0.0988   -1.0181 H   0  0  0  0  0  0  0  0  0  0  0  0
    4.5064    1.1935    0.2675 H   0  0  0  0  0  0  0  0  0  0  0  0
    3.0874   -0.2845    1.8064 H   0  0  0  0  0  0  0  0  0  0  0  0
    2.9575   -2.7110    0.9639 H   0  0  0  0  0  0  0  0  0  0  0  0
    3.5550   -2.0294   -0.6585 H   0  0  0  0  0  0  0  0  0  0  0  0
    0.9549   -1.4445    0.8594 H   0  0  0  0  0  0  0  0  0  0  0  0
    1.1872   -2.2234   -0.7095 H   0  0  0  0  0  0  0  0  0  0  0  0
    5.1918    0.8613    2.1554 H   0  0  0  0  0  0  0  0  0  0  0  0
    5.8111   -0.3598    3.2780 H   0  0  0  0  0  0  0  0  0  0  0  0
    6.9974    0.4548    0.5519 H   0  0  0  0  0  0  0  0  0  0  0  0
    7.6455    0.8106    2.1834 H   0  0  0  0  0  0  0  0  0  0  0  0
    7.6052   -2.9231    0.4358 H   0  0  0  0  0  0  0  0  0  0  0  0
    6.7796   -2.8569    2.0963 H   0  0  0  0  0  0  0  0  0  0  0  0
    5.2807   -2.7149    0.1541 H   0  0  0  0  0  0  0  0  0  0  0  0
    5.9792   -1.0785   -0.2938 H   0  0  0  0  0  0  0  0  0  0  0  0
    9.7650   -1.9042    1.0850 H   0  0  0  0  0  0  0  0  0  0  0  0
    8.7663   -1.5813   -1.0887 H   0  0  0  0  0  0  0  0  0  0  0  0
   10.1294   -0.4669   -0.8453 H   0  0  0  0  0  0  0  0  0  0  0  0
    8.5053    0.2291   -0.7561 H   0  0  0  0  0  0  0  0  0  0  0  0
  1  2  1  0
  1  6  1  0
  5  6  1  0
  2  9  1  0
  5  9  1  0
  2 12  1  0
  3 15  1  0
  7 15  1  0
 15 12  1  6
  3 16  1  0
  7 17  1  0
 16 17  1  0
 15 18  1  0
  8 19  1  0
 18 19  1  0
 19 20  1  0
  4 21  1  0
 20 21  1  0
 21 22  1  0
 18 23  1  0
 22 23  1  0
 11 24  1  0
 16 24  1  0
 11 25  1  0
 25 26  1  0
 26 27  1  0
 10 28  1  0
 27 28  1  0
 28 29  1  0
 25 30  1  0
 29 30  1  0
 10 31  1  0
 13 32  1  0
 31 32  1  0
 13 33  1  0
 10 34  1  0
 33 34  1  0
 13 35  1  0
 14 35  1  0
 35 36  1  0
 37 38  1  0
 37 42  1  0
 41 42  1  0
 38 45  1  0
 41 45  1  0
 38 48  1  0
 39 51  1  0
 43 51  1  0
 51 48  1  6
 39 52  1  0
 43 53  1  0
 52 53  1  0
 51 54  1  0
 44 55  1  0
 54 55  1  0
 55 56  1  0
 40 57  1  0
 56 57  1  0
 57 58  1  0
 54 59  1  0
 58 59  1  0
 47 60  1  0
 52 60  1  0
 47 61  1  0
 61 62  1  0
 62 63  1  0
 46 64  1  0
 63 64  1  0
 64 65  1  0
 61 66  1  0
 65 66  1  0
 46 67  1  0
 49 68  1  0
 67 68  1  0
 49 69  1  0
 46 70  1  0
 69 70  1  0
 49 71  1  0
 50 71  1  0
 71 72  1  0
  1 73  1  0
  1 74  1  0
  5 75  1  0
  5 76  1  0
  6 77  1  0
  9 78  1  0
  9 79  1  0
 12 80  1  0
 12 81  1  0
 14 82  1  0
 16 83  1  1
 17 84  1  0
 17 85  1  0
 18 86  1  0
 19 87  1  0
 20 88  1  0
 20 89  1  0
 21 90  1  0
 22 91  1  0
 22 92  1  0
 23 93  1  0
 23 94  1  0
 24 95  1  0
 24 96  1  0
 25 97  1  0
 26 98  1  0
 26 99  1  0
 27100  1  0
 27101  1  0
 28102  1  0
 29103  1  0
 29104  1  0
 30105  1  0
 30106  1  0
 31107  1  0
 31108  1  0
 32109  1  0
 32110  1  0
 33111  1  0
 33112  1  0
 34113  1  0
 34114  1  0
 35115  1  0
 36116  1  0
 36117  1  0
 36118  1  0
 37119  1  0
 37120  1  0
 41121  1  0
 41122  1  0
 42123  1  0
 45124  1  0
 45125  1  0
 48126  1  0
 48127  1  0
 50128  1  0
 52129  1  1
 53130  1  0
 53131  1  0
 54132  1  0
 55133  1  0
 56134  1  0
 56135  1  0
 57136  1  0
 58137  1  0
 58138  1  0
 59139  1  0
 59140  1  0
 60141  1  0
 60142  1  0
 61143  1  0
 62144  1  0
 62145  1  0
 63146  1  0
 63147  1  0
 64148  1  0
 65149  1  0
 65150  1  0
 66151  1  0
 66152  1  0
 67153  1  0
 67154  1  0
 68155  1  0
 68156  1  0
 69157  1  0
 69158  1  0
 70159  1  0
 70160  1  0
 71161  1  6
 72162  1  0
 72163  1  0
 72164  1  0
M  END
>  <PDBID>  (1) 
3LD6

>  <PDB ID>  (1) 
3LD6

>  <Generic Name>  (1) 
Ketoconazole

>  <Brand Name>  (1) 
Apo-ketoconazole#Extina#Ketoconazole#Ketodan#Ketoderm Cream 2%#Nizoral#Nizoral  - 2%#Nizoral A-D#Nizoral Cream 2%#Nizoral Oral Suspension 20mg/ml#Nizoral Shp 2%#Nizoral Tablets 200mg#Nu-ketocon Tablets - 200mg#Teva-ketoconazole#Xolegel#Fungarest#Fungoral#Ketoderm#Ketoisdin#Ketozole#Nizoral Cream#Nizoral Shampoo#Orifungal#Orifungal M#Panfungol

>  <DrugBank ID>  (1) 
DB01026

>  <ATC Codes>  (1) 
G01AF11#D01AC08#J02AB02

>  <Ligand ID>  (1) 
KKK,KLN,KTN

>  <Target Name>  (1) 
Lanosterol 14-alpha demethylase

>  <UniProt ID>  (1) 
P10613

>  <PDB ID.1>  (1) 
3LD6

>  <Seq. Identity>  (1) 
40%

$$$$
