PDB_DB01201_01
     RDKit          3D

302312  0  0  0  0  0  0  0  0999 V2000
    0.4649   -0.3633   -0.8478 C   0  0  0  0  0  0  0  0  0  0  0  0
    1.8817    0.0477   -0.5619 C   0  0  0  0  0  0  0  0  0  0  0  0
    2.8640   -1.0983   -0.6989 C   0  0  2  0  0  0  0  0  0  0  0  0
    2.2725   -2.2478    0.1557 C   0  0  0  0  0  0  0  0  0  0  0  0
    0.5747   -4.0907   -0.2848 C   0  0  0  0  0  0  0  0  0  0  0  0
   -0.4206   -4.5153   -1.2938 C   0  0  0  0  0  0  0  0  0  0  0  0
   -1.0495   -3.5215   -2.1675 C   0  0  0  0  0  0  0  0  0  0  0  0
   -0.4191   -2.1927   -2.3415 C   0  0  0  0  0  0  0  0  0  0  0  0
    0.1577   -1.7787   -0.9744 C   0  0  0  0  0  0  0  0  0  0  0  0
    1.1980   -2.7993   -0.6859 C   0  0  1  0  0  0  0  0  0  0  0  0
   -0.1088   -4.1839    1.0013 C   0  0  2  0  0  0  0  0  0  0  0  0
   -1.5138   -4.7157    0.6752 C   0  0  2  0  0  0  0  0  0  0  0  0
   -1.7770   -5.9526    1.5525 C   0  0  0  0  0  0  0  0  0  0  0  0
   -1.1680   -4.1164   -3.5871 C   0  0  0  0  0  0  0  0  0  0  0  0
    2.4206    2.4091   -0.7165 C   0  0  0  0  0  0  0  0  0  0  0  0
    1.3971    3.4872   -0.8695 C   0  0  0  0  0  0  0  0  0  0  0  0
    0.5909    3.4314   -2.1122 C   0  0  0  0  0  0  0  0  0  0  0  0
   -0.8643    3.1739   -2.0069 C   0  0  0  0  0  0  0  0  0  0  0  0
   -1.7249    4.4070   -2.0872 C   0  0  0  0  0  0  0  0  0  0  0  0
   -3.0450    4.3227   -1.4207 C   0  0  1  0  0  0  0  0  0  0  0  0
   -3.7082    2.9719   -1.4522 C   0  0  1  0  0  0  0  0  0  0  0  0
   -5.1394    3.0286   -1.1307 C   0  0  2  0  0  0  0  0  0  0  0  0
   -5.8084    1.8313   -0.5606 C   0  0  2  0  0  0  0  0  0  0  0  0
   -5.2745    1.3014    0.7223 C   0  0  2  0  0  0  0  0  0  0  0  0
   -5.5374   -0.0659    1.1442 C   0  0  1  0  0  0  0  0  0  0  0  0
   -4.6987   -1.1869    0.6384 C   0  0  1  0  0  0  0  0  0  0  0  0
   -5.5295   -2.4513    0.6125 C   0  0  2  0  0  0  0  0  0  0  0  0
   -4.7109   -3.6554    0.1261 C   0  0  0  0  0  0  0  0  0  0  0  0
   -3.7215   -4.1305    1.1665 C   0  0  0  0  0  0  0  0  0  0  0  0
    0.6108    3.6310    0.4049 C   0  0  0  0  0  0  0  0  0  0  0  0
   -2.9750    4.7862    0.0403 C   0  0  0  0  0  0  0  0  0  0  0  0
   -5.9662    3.4345   -2.3617 C   0  0  0  0  0  0  0  0  0  0  0  0
   -5.8911    2.2180    1.8003 C   0  0  0  0  0  0  0  0  0  0  0  0
   -3.9871   -0.9797   -0.6571 C   0  0  0  0  0  0  0  0  0  0  0  0
   -6.4000   -0.4257    3.3190 C   0  0  0  0  0  0  0  0  0  0  0  0
   -6.6208    0.5682    4.4336 C   0  0  0  0  0  0  0  0  0  0  0  0
   -7.8195   -2.7629    0.3248 C   0  0  0  0  0  0  0  0  0  0  0  0
    9.7038    0.9599    1.3589 C   0  0  0  0  0  0  0  0  0  0  0  0
    7.9806    2.0888    0.0784 C   0  0  0  0  0  0  0  0  0  0  0  0
    6.6890    1.7159   -0.6640 C   0  0  0  0  0  0  0  0  0  0  0  0
    7.0747   -0.6024   -0.5214 C   0  0  0  0  0  0  0  0  0  0  0  0
    8.5063   -0.1445   -0.3428 C   0  0  0  0  0  0  0  0  0  0  0  0
    4.2064   -0.8398   -0.1158 C   0  0  0  0  0  0  0  0  0  0  0  0
    9.7159    1.8340    2.5690 C   0  0  0  0  0  0  0  0  0  0  0  0
   10.8816    1.4672    0.5729 C   0  0  0  0  0  0  0  0  0  0  0  0
   11.1966    1.7605    2.9667 C   0  0  0  0  0  0  0  0  0  0  0  0
   11.9489    1.5280    1.6636 C   0  0  0  0  0  0  0  0  0  0  0  0
    2.1776    1.1870   -1.3584 N   0  0  0  0  0  0  0  0  0  0  0  0
    4.9010    0.2855   -0.6981 N   0  0  0  0  0  0  0  0  0  0  0  0
    6.1662    0.4726   -0.1322 N   0  0  0  0  0  0  0  0  0  0  0  0
    8.4805    0.8942    0.6546 N   0  0  0  0  0  0  0  0  0  0  0  0
   -0.3282    0.2498    0.1525 O   0  0  0  0  0  0  0  0  0  0  0  0
   -1.3674   -1.2805   -2.7778 O   0  0  0  0  0  0  0  0  0  0  0  0
   -1.4455   -5.1961   -0.6068 O   0  0  0  0  0  0  0  0  0  0  0  0
   -0.2618   -3.0537    1.7513 O   0  0  0  0  0  0  0  0  0  0  0  0
   -2.4404   -3.7432    0.9091 O   0  0  0  0  0  0  0  0  0  0  0  0
   -6.6310   -2.3733   -0.2393 O   0  0  0  0  0  0  0  0  0  0  0  0
   -5.3570   -0.0859    2.5525 O   0  0  0  0  0  0  0  0  0  0  0  0
   -6.1678   -1.6462    4.0468 O   0  0  0  0  0  0  0  0  0  0  0  0
   -6.1344    0.8630   -1.5137 O   0  0  0  0  0  0  0  0  0  0  0  0
   -3.5488    2.3236   -2.6696 O   0  0  0  0  0  0  0  0  0  0  0  0
    2.6758    2.2847    0.6685 O   0  0  0  0  0  0  0  0  0  0  0  0
    1.9263   -1.6735    1.3450 O   0  0  0  0  0  0  0  0  0  0  0  0
    0.4940    0.2201   -0.5378 C   0  0  0  0  0  0  0  0  0  0  0  0
    1.8390    0.8914   -0.2213 C   0  0  0  0  0  0  0  0  0  0  0  0
    2.8720   -0.1478    0.0034 C   0  0  2  0  0  0  0  0  0  0  0  0
    2.3100   -1.2708    0.8594 C   0  0  0  0  0  0  0  0  0  0  0  0
    1.1424   -3.4418    0.1288 C   0  0  0  0  0  0  0  0  0  0  0  0
    0.5830   -4.0466   -1.1402 C   0  0  0  0  0  0  0  0  0  0  0  0
   -0.1618   -3.1618   -2.0372 C   0  0  0  0  0  0  0  0  0  0  0  0
    0.3414   -1.7342   -2.1614 C   0  0  0  0  0  0  0  0  0  0  0  0
    0.4706   -1.2342   -0.7127 C   0  0  0  0  0  0  0  0  0  0  0  0
    1.5464   -2.0751   -0.1453 C   0  0  0  0  0  0  0  0  0  0  0  0
    0.1920   -3.7422    1.1905 C   0  0  2  0  0  0  0  0  0  0  0  0
   -0.8737   -4.5753    0.4614 C   0  0  2  0  0  0  0  0  0  0  0  0
   -1.2197   -5.7721    1.3336 C   0  0  0  0  0  0  0  0  0  0  0  0
   -0.1195   -3.7505   -3.4558 C   0  0  0  0  0  0  0  0  0  0  0  0
    2.3583    3.1036   -1.2069 C   0  0  0  0  0  0  0  0  0  0  0  0
    1.2718    4.1458   -1.3065 C   0  0  0  0  0  0  0  0  0  0  0  0
    0.2179    3.9451   -2.3000 C   0  0  0  0  0  0  0  0  0  0  0  0
   -1.1119    3.4632   -1.7945 C   0  0  0  0  0  0  0  0  0  0  0  0
   -2.1010    4.5098   -1.4247 C   0  0  0  0  0  0  0  0  0  0  0  0
   -3.1290    4.0561   -0.4199 C   0  0  1  0  0  0  0  0  0  0  0  0
   -3.7079    2.7161   -0.6230 C   0  0  1  0  0  0  0  0  0  0  0  0
   -5.1963    2.8034   -0.9646 C   0  0  2  0  0  0  0  0  0  0  0  0
   -5.7600    1.3526   -0.9420 C   0  0  2  0  0  0  0  0  0  0  0  0
   -6.0964    1.0083    0.4252 C   0  0  2  0  0  0  0  0  0  0  0  0
   -6.4330   -0.4591    0.7682 C   0  0  1  0  0  0  0  0  0  0  0  0
   -5.6191   -1.4418    0.0284 C   0  0  1  0  0  0  0  0  0  0  0  0
   -5.1605   -2.6676    0.7490 C   0  0  2  0  0  0  0  0  0  0  0  0
   -4.2923   -3.5234   -0.2383 C   0  0  0  0  0  0  0  0  0  0  0  0
   -3.1848   -4.2410    0.5481 C   0  0  0  0  0  0  0  0  0  0  0  0
    0.8590    4.4855    0.0939 C   0  0  0  0  0  0  0  0  0  0  0  0
   -2.5958    4.1815    1.0165 C   0  0  0  0  0  0  0  0  0  0  0  0
   -5.4538    3.4244   -2.2888 C   0  0  0  0  0  0  0  0  0  0  0  0
   -7.4100    1.7735    0.7171 C   0  0  0  0  0  0  0  0  0  0  0  0
   -6.2635   -1.9262   -1.2885 C   0  0  0  0  0  0  0  0  0  0  0  0
   -7.2413   -0.5679    3.0350 C   0  0  0  0  0  0  0  0  0  0  0  0
   -6.6761   -0.2188    4.3977 C   0  0  0  0  0  0  0  0  0  0  0  0
   -5.9355   -4.1596    2.3659 C   0  0  0  0  0  0  0  0  0  0  0  0
    9.2318    0.1746    1.0904 C   0  0  0  0  0  0  0  0  0  0  0  0
    8.1153    1.7144   -0.3751 C   0  0  0  0  0  0  0  0  0  0  0  0
    6.9348    1.6861   -1.3805 C   0  0  0  0  0  0  0  0  0  0  0  0
    6.4757   -0.6208   -1.0866 C   0  0  0  0  0  0  0  0  0  0  0  0
    7.9990   -0.6068   -0.7436 C   0  0  0  0  0  0  0  0  0  0  0  0
    4.2152    0.2026    0.5295 C   0  0  0  0  0  0  0  0  0  0  0  0
    9.3029    1.0802    2.2869 C   0  0  0  0  0  0  0  0  0  0  0  0
   10.5634    0.4351    0.4174 C   0  0  0  0  0  0  0  0  0  0  0  0
   10.6858    0.7626    2.8105 C   0  0  0  0  0  0  0  0  0  0  0  0
   11.5016    0.2952    1.5936 C   0  0  0  0  0  0  0  0  0  0  0  0
    2.0820    1.7648   -1.3241 N   0  0  0  0  0  0  0  0  0  0  0  0
    4.9011    1.1022   -0.4074 N   0  0  0  0  0  0  0  0  0  0  0  0
    6.0493    0.6782   -0.9252 N   0  0  0  0  0  0  0  0  0  0  0  0
    8.1262    0.4353    0.2380 N   0  0  0  0  0  0  0  0  0  0  0  0
   -0.3529    0.5897    0.5109 O   0  0  0  0  0  0  0  0  0  0  0  0
   -0.6154   -1.0154   -2.8432 O   0  0  0  0  0  0  0  0  0  0  0  0
   -0.2249   -5.0737   -0.6774 O   0  0  0  0  0  0  0  0  0  0  0  0
   -0.4236   -2.7000    1.8142 O   0  0  0  0  0  0  0  0  0  0  0  0
   -1.9542   -3.7966    0.1528 O   0  0  0  0  0  0  0  0  0  0  0  0
   -6.1410   -3.5452    1.1409 O   0  0  0  0  0  0  0  0  0  0  0  0
   -6.3769   -0.6869    2.0645 O   0  0  0  0  0  0  0  0  0  0  0  0
   -7.8196   -1.8915    3.2604 O   0  0  0  0  0  0  0  0  0  0  0  0
   -4.9010    0.6388   -1.6999 O   0  0  0  0  0  0  0  0  0  0  0  0
   -3.0605    1.8541   -1.4766 O   0  0  0  0  0  0  0  0  0  0  0  0
    3.1219    3.5392   -0.0988 O   0  0  0  0  0  0  0  0  0  0  0  0
    1.5258   -0.6257    1.8105 O   0  0  0  0  0  0  0  0  0  0  0  0
    0.0851    0.1371   -1.7917 H   0  0  0  0  0  0  0  0  0  0  0  0
    1.9964    0.3725    0.5186 H   0  0  0  0  0  0  0  0  0  0  0  0
    2.8587   -1.3816   -1.7632 H   0  0  0  0  0  0  0  0  0  0  0  0
    3.0848   -3.0071    0.2416 H   0  0  0  0  0  0  0  0  0  0  0  0
    1.4225   -4.8434   -0.2965 H   0  0  0  0  0  0  0  0  0  0  0  0
    0.0260   -5.3359   -1.9441 H   0  0  0  0  0  0  0  0  0  0  0  0
   -2.1182   -3.3421   -1.8849 H   0  0  0  0  0  0  0  0  0  0  0  0
    0.4112   -2.2817   -3.0843 H   0  0  0  0  0  0  0  0  0  0  0  0
   -0.7036   -2.0154   -0.2788 H   0  0  0  0  0  0  0  0  0  0  0  0
    1.7058   -3.0299   -1.6785 H   0  0  0  0  0  0  0  0  0  0  0  0
    0.3877   -4.9339    1.6905 H   0  0  0  0  0  0  0  0  0  0  0  0
   -0.7572   -6.3888    1.7423 H   0  0  0  0  0  0  0  0  0  0  0  0
   -2.1962   -5.7030    2.5244 H   0  0  0  0  0  0  0  0  0  0  0  0
   -2.3272   -6.7345    0.9881 H   0  0  0  0  0  0  0  0  0  0  0  0
   -1.5333   -3.3691   -4.3124 H   0  0  0  0  0  0  0  0  0  0  0  0
   -1.7091   -5.0665   -3.5836 H   0  0  0  0  0  0  0  0  0  0  0  0
   -0.0939   -4.3073   -3.8871 H   0  0  0  0  0  0  0  0  0  0  0  0
    3.4080    2.7862   -1.1275 H   0  0  0  0  0  0  0  0  0  0  0  0
    1.9753    4.4657   -0.9217 H   0  0  0  0  0  0  0  0  0  0  0  0
    1.0569    2.6123   -2.7390 H   0  0  0  0  0  0  0  0  0  0  0  0
    0.7066    4.3477   -2.7682 H   0  0  0  0  0  0  0  0  0  0  0  0
   -1.1408    2.5871   -2.9391 H   0  0  0  0  0  0  0  0  0  0  0  0
   -1.1728    2.4896   -1.1898 H   0  0  0  0  0  0  0  0  0  0  0  0
   -1.8843    4.7001   -3.1561 H   0  0  0  0  0  0  0  0  0  0  0  0
   -1.1925    5.3037   -1.6517 H   0  0  0  0  0  0  0  0  0  0  0  0
   -3.7373    5.0337   -1.9151 H   0  0  0  0  0  0  0  0  0  0  0  0
   -3.1693    2.3626   -0.7006 H   0  0  0  0  0  0  0  0  0  0  0  0
   -5.2888    3.8997   -0.4256 H   0  0  0  0  0  0  0  0  0  0  0  0
   -6.8688    2.2423   -0.3681 H   0  0  0  0  0  0  0  0  0  0  0  0
   -4.1679    1.5142    0.8375 H   0  0  0  0  0  0  0  0  0  0  0  0
   -6.5962   -0.3302    0.9861 H   0  0  0  0  0  0  0  0  0  0  0  0
   -3.8645   -1.4149    1.3749 H   0  0  0  0  0  0  0  0  0  0  0  0
   -5.9062   -2.7778    1.5956 H   0  0  0  0  0  0  0  0  0  0  0  0
   -4.2646   -3.4791   -0.8503 H   0  0  0  0  0  0  0  0  0  0  0  0
   -5.4328   -4.4886   -0.0214 H   0  0  0  0  0  0  0  0  0  0  0  0
   -4.1094   -3.7999    2.1513 H   0  0  0  0  0  0  0  0  0  0  0  0
   -3.7123   -5.2576    1.2362 H   0  0  0  0  0  0  0  0  0  0  0  0
   -0.2250    2.9584    0.5365 H   0  0  0  0  0  0  0  0  0  0  0  0
    1.2948    3.4788    1.2780 H   0  0  0  0  0  0  0  0  0  0  0  0
    0.2334    4.6830    0.5228 H   0  0  0  0  0  0  0  0  0  0  0  0
   -3.9290    5.1642    0.4020 H   0  0  0  0  0  0  0  0  0  0  0  0
   -2.1258    5.4842    0.1879 H   0  0  0  0  0  0  0  0  0  0  0  0
   -2.7347    3.8586    0.6155 H   0  0  0  0  0  0  0  0  0  0  0  0
   -6.9954    3.0105   -2.3111 H   0  0  0  0  0  0  0  0  0  0  0  0
   -5.4932    2.9991   -3.2640 H   0  0  0  0  0  0  0  0  0  0  0  0
   -6.0917    4.5290   -2.4271 H   0  0  0  0  0  0  0  0  0  0  0  0
   -5.2309    2.3267    2.6701 H   0  0  0  0  0  0  0  0  0  0  0  0
   -6.9361    1.9950    1.9764 H   0  0  0  0  0  0  0  0  0  0  0  0
   -5.9206    3.2774    1.3762 H   0  0  0  0  0  0  0  0  0  0  0  0
   -3.6538    0.0747   -0.7044 H   0  0  0  0  0  0  0  0  0  0  0  0
   -2.9997   -1.5353   -0.5943 H   0  0  0  0  0  0  0  0  0  0  0  0
   -4.5577   -1.3255   -1.5413 H   0  0  0  0  0  0  0  0  0  0  0  0
   -7.3561   -0.6240    2.8404 H   0  0  0  0  0  0  0  0  0  0  0  0
   -7.0421    0.0552    5.3506 H   0  0  0  0  0  0  0  0  0  0  0  0
   -7.4306    1.3105    4.1792 H   0  0  0  0  0  0  0  0  0  0  0  0
   -5.7210    1.1525    4.6882 H   0  0  0  0  0  0  0  0  0  0  0  0
   -8.1006   -2.1511    1.1985 H   0  0  0  0  0  0  0  0  0  0  0  0
   -8.6581   -2.6474   -0.4104 H   0  0  0  0  0  0  0  0  0  0  0  0
   -7.8241   -3.8326    0.6351 H   0  0  0  0  0  0  0  0  0  0  0  0
    9.9675   -0.0722    1.6952 H   0  0  0  0  0  0  0  0  0  0  0  0
    7.7930    2.8421    0.8673 H   0  0  0  0  0  0  0  0  0  0  0  0
    8.6357    2.5606   -0.6674 H   0  0  0  0  0  0  0  0  0  0  0  0
    6.8421    1.6878   -1.7507 H   0  0  0  0  0  0  0  0  0  0  0  0
    5.9436    2.5086   -0.3617 H   0  0  0  0  0  0  0  0  0  0  0  0
    6.9420   -1.4941    0.1439 H   0  0  0  0  0  0  0  0  0  0  0  0
    6.8695   -0.8469   -1.5767 H   0  0  0  0  0  0  0  0  0  0  0  0
    9.1665   -0.9808   -0.1065 H   0  0  0  0  0  0  0  0  0  0  0  0
    8.8826    0.3139   -1.3022 H   0  0  0  0  0  0  0  0  0  0  0  0
    4.8832   -1.7116   -0.2323 H   0  0  0  0  0  0  0  0  0  0  0  0
    4.0754   -0.7177    0.9892 H   0  0  0  0  0  0  0  0  0  0  0  0
    9.1517    1.3732    3.4062 H   0  0  0  0  0  0  0  0  0  0  0  0
    9.4287    2.8782    2.3668 H   0  0  0  0  0  0  0  0  0  0  0  0
   11.2137    0.7692   -0.2061 H   0  0  0  0  0  0  0  0  0  0  0  0
   10.7560    2.4973    0.2046 H   0  0  0  0  0  0  0  0  0  0  0  0
   11.5073    2.6759    3.4707 H   0  0  0  0  0  0  0  0  0  0  0  0
   11.3625    0.9147    3.6675 H   0  0  0  0  0  0  0  0  0  0  0  0
   12.5115    0.5703    1.7327 H   0  0  0  0  0  0  0  0  0  0  0  0
   12.6727    2.3375    1.4819 H   0  0  0  0  0  0  0  0  0  0  0  0
    2.5177    1.0357   -2.3065 H   0  0  0  0  0  0  0  0  0  0  0  0
    4.9320    0.2402   -1.7360 H   0  0  0  0  0  0  0  0  0  0  0  0
    0.2067    0.6129    0.8851 H   0  0  0  0  0  0  0  0  0  0  0  0
   -0.9968   -0.6248   -3.3986 H   0  0  0  0  0  0  0  0  0  0  0  0
   -1.0695   -3.0351    2.3160 H   0  0  0  0  0  0  0  0  0  0  0  0
   -7.0198   -2.0049    4.3781 H   0  0  0  0  0  0  0  0  0  0  0  0
   -6.7682    0.2399   -1.0696 H   0  0  0  0  0  0  0  0  0  0  0  0
   -3.2089    1.4175   -2.6294 H   0  0  0  0  0  0  0  0  0  0  0  0
    3.3363    2.9451    0.9827 H   0  0  0  0  0  0  0  0  0  0  0  0
    2.6832   -1.8317    1.9946 H   0  0  0  0  0  0  0  0  0  0  0  0
    0.0400    0.6504   -1.4492 H   0  0  0  0  0  0  0  0  0  0  0  0
    1.7911    1.5057    0.6921 H   0  0  0  0  0  0  0  0  0  0  0  0
    3.0428   -0.6011   -1.0672 H   0  0  0  0  0  0  0  0  0  0  0  0
    3.0964   -1.8220    1.3734 H   0  0  0  0  0  0  0  0  0  0  0  0
    2.0987   -4.0264    0.3284 H   0  0  0  0  0  0  0  0  0  0  0  0
    1.4018   -4.5733   -1.7191 H   0  0  0  0  0  0  0  0  0  0  0  0
   -1.2622   -3.0542   -1.8493 H   0  0  0  0  0  0  0  0  0  0  0  0
    1.3238   -1.7326   -2.6612 H   0  0  0  0  0  0  0  0  0  0  0  0
   -0.5031   -1.6034   -0.2574 H   0  0  0  0  0  0  0  0  0  0  0  0
    2.3199   -2.1914   -1.0009 H   0  0  0  0  0  0  0  0  0  0  0  0
    0.6375   -4.3893    1.9980 H   0  0  0  0  0  0  0  0  0  0  0  0
   -0.2575   -6.0859    1.8258 H   0  0  0  0  0  0  0  0  0  0  0  0
   -1.8720   -5.4642    2.1824 H   0  0  0  0  0  0  0  0  0  0  0  0
   -1.5675   -6.6348    0.7682 H   0  0  0  0  0  0  0  0  0  0  0  0
   -0.4749   -3.0311   -4.2001 H   0  0  0  0  0  0  0  0  0  0  0  0
   -0.7388   -4.6851   -3.4768 H   0  0  0  0  0  0  0  0  0  0  0  0
    0.9001   -4.0453   -3.7340 H   0  0  0  0  0  0  0  0  0  0  0  0
    3.0831    3.3464   -2.0729 H   0  0  0  0  0  0  0  0  0  0  0  0
    1.8181    5.0941   -1.6329 H   0  0  0  0  0  0  0  0  0  0  0  0
    0.6086    3.1915   -3.0621 H   0  0  0  0  0  0  0  0  0  0  0  0
   -0.0096    4.8470   -2.9526 H   0  0  0  0  0  0  0  0  0  0  0  0
   -1.5308    2.9127   -2.6784 H   0  0  0  0  0  0  0  0  0  0  0  0
   -0.9815    2.7008   -1.0025 H   0  0  0  0  0  0  0  0  0  0  0  0
   -2.6526    4.8616   -2.3201 H   0  0  0  0  0  0  0  0  0  0  0  0
   -1.6380    5.4138   -0.9959 H   0  0  0  0  0  0  0  0  0  0  0  0
   -3.9425    4.8126   -0.4421 H   0  0  0  0  0  0  0  0  0  0  0  0
   -3.6886    2.1834    0.3772 H   0  0  0  0  0  0  0  0  0  0  0  0
   -5.6557    3.3902   -0.1574 H   0  0  0  0  0  0  0  0  0  0  0  0
   -6.6931    1.4842   -1.5763 H   0  0  0  0  0  0  0  0  0  0  0  0
   -5.3191    1.3513    1.1275 H   0  0  0  0  0  0  0  0  0  0  0  0
   -7.5118   -0.4717    0.4507 H   0  0  0  0  0  0  0  0  0  0  0  0
   -4.5986   -0.9719   -0.2602 H   0  0  0  0  0  0  0  0  0  0  0  0
   -4.3899   -2.4483    1.5289 H   0  0  0  0  0  0  0  0  0  0  0  0
   -3.8135   -2.9121   -0.9857 H   0  0  0  0  0  0  0  0  0  0  0  0
   -4.9149   -4.2988   -0.7209 H   0  0  0  0  0  0  0  0  0  0  0  0
   -3.3601   -3.9805    1.6223 H   0  0  0  0  0  0  0  0  0  0  0  0
   -3.3176   -5.3192    0.4469 H   0  0  0  0  0  0  0  0  0  0  0  0
    0.2030    3.7753    0.5658 H   0  0  0  0  0  0  0  0  0  0  0  0
    1.7746    4.5763    0.7255 H   0  0  0  0  0  0  0  0  0  0  0  0
    0.4100    5.4952    0.1231 H   0  0  0  0  0  0  0  0  0  0  0  0
   -3.4226    4.3037    1.7433 H   0  0  0  0  0  0  0  0  0  0  0  0
   -1.8432    4.9780    1.0232 H   0  0  0  0  0  0  0  0  0  0  0  0
   -2.0456    3.2153    1.2244 H   0  0  0  0  0  0  0  0  0  0  0  0
   -6.4869    3.2033   -2.5800 H   0  0  0  0  0  0  0  0  0  0  0  0
   -4.7866    3.0670   -3.0944 H   0  0  0  0  0  0  0  0  0  0  0  0
   -5.3806    4.5398   -2.2460 H   0  0  0  0  0  0  0  0  0  0  0  0
   -7.2987    2.4435    1.5875 H   0  0  0  0  0  0  0  0  0  0  0  0
   -8.2622    1.0585    0.7826 H   0  0  0  0  0  0  0  0  0  0  0  0
   -7.6967    2.4326   -0.1489 H   0  0  0  0  0  0  0  0  0  0  0  0
   -7.1046   -1.2792   -1.5854 H   0  0  0  0  0  0  0  0  0  0  0  0
   -5.4868   -2.0221   -2.0692 H   0  0  0  0  0  0  0  0  0  0  0  0
   -6.6923   -2.9580   -1.1746 H   0  0  0  0  0  0  0  0  0  0  0  0
   -8.1948   -0.0065    2.9138 H   0  0  0  0  0  0  0  0  0  0  0  0
   -6.8608   -1.0130    5.1370 H   0  0  0  0  0  0  0  0  0  0  0  0
   -7.1400    0.7214    4.7470 H   0  0  0  0  0  0  0  0  0  0  0  0
   -5.5648   -0.0304    4.3125 H   0  0  0  0  0  0  0  0  0  0  0  0
   -5.7587   -3.4280    3.1551 H   0  0  0  0  0  0  0  0  0  0  0  0
   -6.9644   -4.6129    2.6336 H   0  0  0  0  0  0  0  0  0  0  0  0
   -5.2490   -5.0098    2.3033 H   0  0  0  0  0  0  0  0  0  0  0  0
    9.2180   -0.8630    1.4283 H   0  0  0  0  0  0  0  0  0  0  0  0
    7.8662    2.4731    0.4194 H   0  0  0  0  0  0  0  0  0  0  0  0
    8.9807    2.0350   -0.9312 H   0  0  0  0  0  0  0  0  0  0  0  0
    7.3620    1.4896   -2.3916 H   0  0  0  0  0  0  0  0  0  0  0  0
    6.4498    2.6752   -1.3557 H   0  0  0  0  0  0  0  0  0  0  0  0
    6.0498   -1.4151   -0.4678 H   0  0  0  0  0  0  0  0  0  0  0  0
    6.4481   -0.9117   -2.1763 H   0  0  0  0  0  0  0  0  0  0  0  0
    8.2678   -1.5992   -0.3894 H   0  0  0  0  0  0  0  0  0  0  0  0
    8.5358   -0.2872   -1.6598 H   0  0  0  0  0  0  0  0  0  0  0  0
    4.8776   -0.6022    0.7741 H   0  0  0  0  0  0  0  0  0  0  0  0
    4.0613    0.7382    1.5278 H   0  0  0  0  0  0  0  0  0  0  0  0
    8.5712    0.7979    3.0633 H   0  0  0  0  0  0  0  0  0  0  0  0
    9.2358    2.1492    1.9865 H   0  0  0  0  0  0  0  0  0  0  0  0
   10.7831   -0.3417   -0.3169 H   0  0  0  0  0  0  0  0  0  0  0  0
   10.6617    1.4728    0.0464 H   0  0  0  0  0  0  0  0  0  0  0  0
   11.1702    1.6298    3.2570 H   0  0  0  0  0  0  0  0  0  0  0  0
   10.6505   -0.0419    3.5875 H   0  0  0  0  0  0  0  0  0  0  0  0
   11.7810   -0.7554    1.7754 H   0  0  0  0  0  0  0  0  0  0  0  0
   12.4005    0.9011    1.4828 H   0  0  0  0  0  0  0  0  0  0  0  0
    2.5026    1.2563   -2.1506 H   0  0  0  0  0  0  0  0  0  0  0  0
    5.1055    2.0015    0.2175 H   0  0  0  0  0  0  0  0  0  0  0  0
   -0.0842    1.4379    0.9218 H   0  0  0  0  0  0  0  0  0  0  0  0
   -0.2453   -0.8268   -3.7622 H   0  0  0  0  0  0  0  0  0  0  0  0
   -1.3868   -2.6225    1.7039 H   0  0  0  0  0  0  0  0  0  0  0  0
   -8.6190   -1.9953    2.6968 H   0  0  0  0  0  0  0  0  0  0  0  0
   -4.8845    0.9693   -2.6161 H   0  0  0  0  0  0  0  0  0  0  0  0
   -2.6862    1.0454   -1.0447 H   0  0  0  0  0  0  0  0  0  0  0  0
    3.5746    4.3901   -0.3568 H   0  0  0  0  0  0  0  0  0  0  0  0
    2.0194   -0.3661    2.6102 H   0  0  0  0  0  0  0  0  0  0  0  0
  1  2  1  0
  2  3  1  0
  3  4  1  0
  5  6  1  0
  6  7  1  0
  7  8  1  0
  1  9  1  0
  8  9  1  0
  4 10  1  0
  5 10  1  0
  9 10  1  0
  5 11  1  0
 11 12  1  0
 12 13  1  1
  7 14  1  0
 15 16  1  0
 16 17  1  0
 17 18  1  0
 18 19  1  0
 19 20  1  0
 20 21  1  0
 21 22  1  0
 22 23  1  0
 23 24  1  0
 24 25  1  0
 25 26  1  0
 26 27  1  0
 27 28  1  0
 28 29  1  0
 16 30  1  0
 20 31  1  0
 22 32  1  0
 24 33  1  0
 26 34  1  0
 35 36  1  0
 39 40  1  0
 41 42  1  0
  3 43  1  0
 38 44  1  0
 38 45  1  0
 44 46  1  0
 45 47  1  0
 46 47  1  0
  2 48  1  0
 15 48  1  0
 43 49  1  0
 40 50  1  0
 41 50  1  0
 49 50  1  0
 38 51  1  0
 39 51  1  0
 42 51  1  0
  1 52  1  0
  8 53  1  0
  6 54  1  0
 12 54  1  0
 11 55  1  0
 12 56  1  0
 29 56  1  0
 27 57  1  0
 37 57  1  0
 25 58  1  0
 35 58  1  0
 35 59  1  0
 23 60  1  0
 21 61  1  0
 15 62  1  0
  4 63  1  0
 64 65  1  0
 65 66  1  0
 66 67  1  0
 68 69  1  0
 69 70  1  0
 70 71  1  0
 64 72  1  0
 71 72  1  0
 67 73  1  0
 68 73  1  0
 72 73  1  0
 68 74  1  0
 74 75  1  0
 75 76  1  1
 70 77  1  0
 78 79  1  0
 79 80  1  0
 80 81  1  0
 81 82  1  0
 82 83  1  0
 83 84  1  0
 84 85  1  0
 85 86  1  0
 86 87  1  0
 87 88  1  0
 88 89  1  0
 89 90  1  0
 90 91  1  0
 91 92  1  0
 79 93  1  0
 83 94  1  0
 85 95  1  0
 87 96  1  0
 89 97  1  0
 98 99  1  0
102103  1  0
104105  1  0
 66106  1  0
101107  1  0
101108  1  0
107109  1  0
108110  1  0
109110  1  0
 65111  1  0
 78111  1  0
106112  1  0
103113  1  0
104113  1  0
112113  1  0
101114  1  0
102114  1  0
105114  1  0
 64115  1  0
 71116  1  0
 69117  1  0
 75117  1  0
 74118  1  0
 75119  1  0
 92119  1  0
 90120  1  0
100120  1  0
 88121  1  0
 98121  1  0
 98122  1  0
 86123  1  0
 84124  1  0
 78125  1  0
 67126  1  0
  1127  1  0
  2128  1  0
  3129  1  6
  4130  1  0
  5131  1  0
  6132  1  0
  7133  1  0
  8134  1  0
  9135  1  0
 10136  1  6
 11137  1  1
 13138  1  0
 13139  1  0
 13140  1  0
 14141  1  0
 14142  1  0
 14143  1  0
 15144  1  0
 16145  1  0
 17146  1  0
 17147  1  0
 18148  1  0
 18149  1  0
 19150  1  0
 19151  1  0
 20152  1  6
 21153  1  1
 22154  1  1
 23155  1  1
 24156  1  6
 25157  1  1
 26158  1  1
 27159  1  1
 28160  1  0
 28161  1  0
 29162  1  0
 29163  1  0
 30164  1  0
 30165  1  0
 30166  1  0
 31167  1  0
 31168  1  0
 31169  1  0
 32170  1  0
 32171  1  0
 32172  1  0
 33173  1  0
 33174  1  0
 33175  1  0
 34176  1  0
 34177  1  0
 34178  1  0
 35179  1  0
 36180  1  0
 36181  1  0
 36182  1  0
 37183  1  0
 37184  1  0
 37185  1  0
 38186  1  0
 39187  1  0
 39188  1  0
 40189  1  0
 40190  1  0
 41191  1  0
 41192  1  0
 42193  1  0
 42194  1  0
 43195  1  0
 43196  1  0
 44197  1  0
 44198  1  0
 45199  1  0
 45200  1  0
 46201  1  0
 46202  1  0
 47203  1  0
 47204  1  0
 48205  1  0
 49206  1  0
 52207  1  0
 53208  1  0
 55209  1  0
 59210  1  0
 60211  1  0
 61212  1  0
 62213  1  0
 63214  1  0
 64215  1  0
 65216  1  0
 66217  1  6
 67218  1  0
 68219  1  0
 69220  1  0
 70221  1  0
 71222  1  0
 72223  1  0
 73224  1  0
 74225  1  1
 76226  1  0
 76227  1  0
 76228  1  0
 77229  1  0
 77230  1  0
 77231  1  0
 78232  1  0
 79233  1  0
 80234  1  0
 80235  1  0
 81236  1  0
 81237  1  0
 82238  1  0
 82239  1  0
 83240  1  1
 84241  1  1
 85242  1  1
 86243  1  6
 87244  1  1
 88245  1  6
 89246  1  6
 90247  1  1
 91248  1  0
 91249  1  0
 92250  1  0
 92251  1  0
 93252  1  0
 93253  1  0
 93254  1  0
 94255  1  0
 94256  1  0
 94257  1  0
 95258  1  0
 95259  1  0
 95260  1  0
 96261  1  0
 96262  1  0
 96263  1  0
 97264  1  0
 97265  1  0
 97266  1  0
 98267  1  0
 99268  1  0
 99269  1  0
 99270  1  0
100271  1  0
100272  1  0
100273  1  0
101274  1  0
102275  1  0
102276  1  0
103277  1  0
103278  1  0
104279  1  0
104280  1  0
105281  1  0
105282  1  0
106283  1  0
106284  1  0
107285  1  0
107286  1  0
108287  1  0
108288  1  0
109289  1  0
109290  1  0
110291  1  0
110292  1  0
111293  1  0
112294  1  0
115295  1  0
116296  1  0
118297  1  0
122298  1  0
123299  1  0
124300  1  0
125301  1  0
126302  1  0
M  END
>  <PDBID>  (1) 
2A69

>  <PDB ID>  (1) 
2A69

>  <Generic Name>  (1) 
Rifapentine

>  <Brand Name>  (1) 
Priftin

>  <DrugBank ID>  (1) 
DB01201

>  <ATC Codes>  (1) 
J04AB05

>  <Ligand ID>  (1) 
RPT

>  <Target Name>  (1) 
DNA-directed RNA polymerase subunit beta'

>  <UniProt ID>  (1) 
P0A674

>  <PDB ID.1>  (1) 
2A69

>  <Seq. Identity>  (1) 
50%

$$$$
