PDB_DB04786_00
     RDKit          3D

192199  0  0  0  0  0  0  0  0999 V2000
  -15.9564    1.9296    2.2931 O   0  0  0  0  0  0  0  0  0  0  0  0
  -14.6761    2.4405    3.1099 S   0  0  0  0  0  0  0  0  0  0  0  0
  -14.5647    1.9442    4.5430 O   0  0  0  0  0  0  0  0  0  0  0  0
  -14.6954    4.1181    2.9667 O   0  0  0  0  0  0  0  0  0  0  0  0
  -13.1987    2.0584    2.1726 C   0  0  0  0  0  0  0  0  0  0  0  0
  -13.3147    2.7945    0.8685 C   0  0  0  0  0  0  0  0  0  0  0  0
  -12.3000    2.2690   -0.1421 C   0  0  2  0  0  0  0  0  0  0  0  0
  -12.4107    3.3817   -1.5260 S   0  0  0  0  0  0  0  0  0  0  0  0
  -11.4102    3.1268   -2.6145 O   0  0  0  0  0  0  0  0  0  0  0  0
  -12.0593    4.9097   -0.8222 O   0  0  0  0  0  0  0  0  0  0  0  0
  -13.9367    3.5024   -1.9950 O   0  0  0  0  0  0  0  0  0  0  0  0
  -13.2029    0.5879    1.9292 C   0  0  0  0  0  0  0  0  0  0  0  0
  -13.6106    0.3119    0.5062 C   0  0  0  0  0  0  0  0  0  0  0  0
  -13.9833   -1.1389    0.3191 C   0  0  1  0  0  0  0  0  0  0  0  0
  -15.4041   -1.3336   -0.6460 S   0  0  0  0  0  0  0  0  0  0  0  0
  -16.0211   -2.6747   -0.7549 O   0  0  0  0  0  0  0  0  0  0  0  0
  -16.6015   -0.3123    0.2064 O   0  0  0  0  0  0  0  0  0  0  0  0
  -15.2452   -0.4480   -2.0364 O   0  0  0  0  0  0  0  0  0  0  0  0
  -12.8559   -1.9881   -0.1061 C   0  0  0  0  0  0  0  0  0  0  0  0
  -11.5149   -1.3198   -0.2519 C   0  0  0  0  0  0  0  0  0  0  0  0
  -12.7266    0.8872   -0.5402 C   0  0  0  0  0  0  0  0  0  0  0  0
  -11.6387   -0.0189   -1.0239 C   0  0  1  0  0  0  0  0  0  0  0  0
  -10.5256    0.5220   -1.6192 N   0  0  0  0  0  0  0  0  0  0  0  0
   -9.3084    0.8615   -1.0734 C   0  0  0  0  0  0  0  0  0  0  0  0
   -8.5265    1.4962   -2.0803 O   0  0  0  0  0  0  0  0  0  0  0  0
   -8.3996   -0.3066   -0.6444 C   0  0  2  0  0  0  0  0  0  0  0  0
   -7.1335    0.2440   -0.0667 C   0  0  0  0  0  0  0  0  0  0  0  0
   -8.0772   -1.1316   -1.8736 C   0  0  0  0  0  0  0  0  0  0  0  0
   -7.4257   -2.4249   -1.3918 C   0  0  0  0  0  0  0  0  0  0  0  0
   -6.6415   -2.1204   -0.1223 C   0  0  0  0  0  0  0  0  0  0  0  0
   -5.6016   -3.1760    0.0438 C   0  0  0  0  0  0  0  0  0  0  0  0
   -5.9915   -0.7578   -0.2351 C   0  0  0  0  0  0  0  0  0  0  0  0
   -5.2835   -0.5256   -1.4485 N   0  0  0  0  0  0  0  0  0  0  0  0
   -4.6134    0.6622   -1.6589 C   0  0  0  0  0  0  0  0  0  0  0  0
   -4.2893    0.6771   -3.0759 O   0  0  0  0  0  0  0  0  0  0  0  0
   -3.3877    1.0955   -0.9939 C   0  0  0  0  0  0  0  0  0  0  0  0
   -2.1268    0.2658   -1.2540 C   0  0  0  0  0  0  0  0  0  0  0  0
   -3.4816    1.3867    0.4943 C   0  0  0  0  0  0  0  0  0  0  0  0
   -2.6213    0.4878    1.3322 C   0  0  0  0  0  0  0  0  0  0  0  0
   -2.4507   -0.9132    0.8808 C   0  0  0  0  0  0  0  0  0  0  0  0
   -2.1551   -1.0812   -0.5949 C   0  0  0  0  0  0  0  0  0  0  0  0
   -0.9933   -1.8344   -0.8599 N   0  0  0  0  0  0  0  0  0  0  0  0
    0.2669   -1.4434   -0.3650 C   0  0  0  0  0  0  0  0  0  0  0  0
    1.1942   -2.3611   -0.8977 O   0  0  0  0  0  0  0  0  0  0  0  0
    0.7280   -0.1198   -0.6189 N   0  0  0  0  0  0  0  0  0  0  0  0
    1.9328    0.1555    0.0557 C   0  0  0  0  0  0  0  0  0  0  0  0
    3.1952   -0.5103   -0.3647 C   0  0  0  0  0  0  0  0  0  0  0  0
    2.2221    1.6111    0.3779 C   0  0  0  0  0  0  0  0  0  0  0  0
    3.5693    1.6542    1.0744 C   0  0  0  0  0  0  0  0  0  0  0  0
    3.9029    0.3707    1.8133 C   0  0  0  0  0  0  0  0  0  0  0  0
    3.9590   -0.8504    0.9331 C   0  0  2  0  0  0  0  0  0  0  0  0
    5.3611   -1.3067    0.6022 C   0  0  0  0  0  0  0  0  0  0  0  0
    5.1918   -2.3904   -0.2819 O   0  0  0  0  0  0  0  0  0  0  0  0
    5.9218   -1.7964    1.8504 N   0  0  0  0  0  0  0  0  0  0  0  0
    7.0826   -2.6193    1.7179 C   0  0  0  0  0  0  0  0  0  0  0  0
    8.2853   -1.8855    1.1456 C   0  0  0  0  0  0  0  0  0  0  0  0
    6.8980   -3.9089    1.0093 C   0  0  0  0  0  0  0  0  0  0  0  0
    5.5905   -4.5560    1.4370 C   0  0  0  0  0  0  0  0  0  0  0  0
    8.0643   -4.8295    1.3491 C   0  0  0  0  0  0  0  0  0  0  0  0
    9.2453   -4.1083    1.8833 C   0  0  0  0  0  0  0  0  0  0  0  0
    9.5002   -2.7515    1.2789 C   0  0  0  0  0  0  0  0  0  0  0  0
   10.2437   -2.9234    0.0071 C   0  0  0  0  0  0  0  0  0  0  0  0
   11.3511   -3.8154    0.2014 O   0  0  0  0  0  0  0  0  0  0  0  0
   10.6761   -1.7830   -0.7029 N   0  0  0  0  0  0  0  0  0  0  0  0
   11.5814   -0.8808   -0.0397 C   0  0  0  0  0  0  0  0  0  0  0  0
   12.8183   -1.6014    0.4619 C   0  0  0  0  0  0  0  0  0  0  0  0
   13.5456   -0.5013    1.2780 C   0  0  0  0  0  0  0  0  0  0  0  0
   14.2831    0.2658    0.2546 C   0  0  2  0  0  0  0  0  0  0  0  0
   15.1359    1.6111    0.9382 S   0  0  0  0  0  0  0  0  0  0  0  0
   13.8545    2.5934    1.7022 O   0  0  0  0  0  0  0  0  0  0  0  0
   15.1663    0.6084    2.7766 O   0  0  0  0  0  0  0  0  0  0  0  0
   16.2623    2.0558    0.8969 O   0  0  0  0  0  0  0  0  0  0  0  0
   12.0612    0.1454   -1.0424 C   0  0  0  0  0  0  0  0  0  0  0  0
   13.4704    0.5714   -0.9684 C   0  0  0  0  0  0  0  0  0  0  0  0
   13.7847    1.9715   -1.4114 C   0  0  0  0  0  0  0  0  0  0  0  0
   11.0315    1.1832   -1.2425 C   0  0  1  0  0  0  0  0  0  0  0  0
   10.2830    1.8705    0.1486 S   0  0  0  0  0  0  0  0  0  0  0  0
   10.8223    2.3406    1.2653 O   0  0  0  0  0  0  0  0  0  0  0  0
    9.5948    3.3689   -0.7794 O   0  0  0  0  0  0  0  0  0  0  0  0
    8.6995    1.1651    0.2564 O   0  0  0  0  0  0  0  0  0  0  0  0
   11.5505    2.3157   -2.1585 C   0  0  0  0  0  0  0  0  0  0  0  0
   12.6556    2.9491   -1.3333 C   0  0  2  0  0  0  0  0  0  0  0  0
   13.1221    4.4250   -2.1199 S   0  0  0  0  0  0  0  0  0  0  0  0
   11.9805    5.3437   -2.3232 O   0  0  0  0  0  0  0  0  0  0  0  0
   14.5298    4.9588   -1.5645 O   0  0  0  0  0  0  0  0  0  0  0  0
   13.5143    3.7663   -3.7470 O   0  0  0  0  0  0  0  0  0  0  0  0
  -16.2152    2.4306    1.4928 H   0  0  0  0  0  0  0  0  0  0  0  0
  -15.3809    1.9498    5.1057 H   0  0  0  0  0  0  0  0  0  0  0  0
  -15.0307    4.3176    2.0496 H   0  0  0  0  0  0  0  0  0  0  0  0
  -12.3121    2.4019    2.7591 H   0  0  0  0  0  0  0  0  0  0  0  0
  -12.9520    3.8455    1.0855 H   0  0  0  0  0  0  0  0  0  0  0  0
  -14.3085    2.7993    0.4406 H   0  0  0  0  0  0  0  0  0  0  0  0
  -11.3354    2.3401    0.3458 H   0  0  0  0  0  0  0  0  0  0  0  0
  -11.6716    2.6214   -3.4222 H   0  0  0  0  0  0  0  0  0  0  0  0
  -11.0924    5.0999   -1.0054 H   0  0  0  0  0  0  0  0  0  0  0  0
  -14.2645    4.3857   -2.2966 H   0  0  0  0  0  0  0  0  0  0  0  0
  -13.9713    0.0586    2.5707 H   0  0  0  0  0  0  0  0  0  0  0  0
  -12.2327    0.1949    2.2268 H   0  0  0  0  0  0  0  0  0  0  0  0
  -14.6368    0.8408    0.4281 H   0  0  0  0  0  0  0  0  0  0  0  0
  -14.2821   -1.4685    1.3710 H   0  0  0  0  0  0  0  0  0  0  0  0
  -15.5433   -3.5395   -0.6739 H   0  0  0  0  0  0  0  0  0  0  0  0
  -17.0414   -0.9193    0.8460 H   0  0  0  0  0  0  0  0  0  0  0  0
  -15.2441   -1.0700   -2.8087 H   0  0  0  0  0  0  0  0  0  0  0  0
  -13.1577   -2.5284   -1.0564 H   0  0  0  0  0  0  0  0  0  0  0  0
  -12.6960   -2.8528    0.6086 H   0  0  0  0  0  0  0  0  0  0  0  0
  -10.8854   -1.9912   -0.8599 H   0  0  0  0  0  0  0  0  0  0  0  0
  -11.0606   -1.2146    0.7423 H   0  0  0  0  0  0  0  0  0  0  0  0
  -13.4305    1.0871   -1.4297 H   0  0  0  0  0  0  0  0  0  0  0  0
  -12.2007   -0.4916   -1.9871 H   0  0  0  0  0  0  0  0  0  0  0  0
  -10.4985    0.5507   -2.6674 H   0  0  0  0  0  0  0  0  0  0  0  0
   -9.2501    1.5572   -0.2303 H   0  0  0  0  0  0  0  0  0  0  0  0
   -8.6679    0.9199   -2.8953 H   0  0  0  0  0  0  0  0  0  0  0  0
   -8.8953   -0.8970    0.1034 H   0  0  0  0  0  0  0  0  0  0  0  0
   -6.9338    1.2107   -0.5530 H   0  0  0  0  0  0  0  0  0  0  0  0
   -7.3342    0.3912    1.0421 H   0  0  0  0  0  0  0  0  0  0  0  0
   -9.0187   -1.4351   -2.3649 H   0  0  0  0  0  0  0  0  0  0  0  0
   -7.3661   -0.6348   -2.5419 H   0  0  0  0  0  0  0  0  0  0  0  0
   -6.6870   -2.8132   -2.1211 H   0  0  0  0  0  0  0  0  0  0  0  0
   -8.1358   -3.2146   -1.1584 H   0  0  0  0  0  0  0  0  0  0  0  0
   -7.3119   -2.1779    0.7562 H   0  0  0  0  0  0  0  0  0  0  0  0
   -5.1996   -3.1688    1.1033 H   0  0  0  0  0  0  0  0  0  0  0  0
   -6.0337   -4.2061   -0.0486 H   0  0  0  0  0  0  0  0  0  0  0  0
   -4.7275   -3.0707   -0.6097 H   0  0  0  0  0  0  0  0  0  0  0  0
   -5.3988   -0.6471    0.6905 H   0  0  0  0  0  0  0  0  0  0  0  0
   -5.1695   -1.3567   -1.9881 H   0  0  0  0  0  0  0  0  0  0  0  0
   -5.3107    1.5805   -1.6290 H   0  0  0  0  0  0  0  0  0  0  0  0
   -4.1108    1.6042   -3.3542 H   0  0  0  0  0  0  0  0  0  0  0  0
   -3.1147    2.0981   -1.4668 H   0  0  0  0  0  0  0  0  0  0  0  0
   -2.0522    0.1730   -2.3607 H   0  0  0  0  0  0  0  0  0  0  0  0
   -1.2977    0.9268   -0.9141 H   0  0  0  0  0  0  0  0  0  0  0  0
   -4.5106    1.4637    0.8749 H   0  0  0  0  0  0  0  0  0  0  0  0
   -3.0685    2.4350    0.6975 H   0  0  0  0  0  0  0  0  0  0  0  0
   -3.1087    0.4337    2.3568 H   0  0  0  0  0  0  0  0  0  0  0  0
   -1.6409    0.9884    1.5607 H   0  0  0  0  0  0  0  0  0  0  0  0
   -1.6264   -1.3519    1.5009 H   0  0  0  0  0  0  0  0  0  0  0  0
   -3.3363   -1.5088    1.1533 H   0  0  0  0  0  0  0  0  0  0  0  0
   -2.9924   -1.6302   -1.0990 H   0  0  0  0  0  0  0  0  0  0  0  0
   -1.1008   -2.8693   -0.7735 H   0  0  0  0  0  0  0  0  0  0  0  0
    0.3409   -1.6738    0.7599 H   0  0  0  0  0  0  0  0  0  0  0  0
    0.7875   -3.2557   -1.0047 H   0  0  0  0  0  0  0  0  0  0  0  0
    0.7698    0.0902   -1.6558 H   0  0  0  0  0  0  0  0  0  0  0  0
    1.7366   -0.2778    1.1273 H   0  0  0  0  0  0  0  0  0  0  0  0
    3.1299   -1.3653   -1.0178 H   0  0  0  0  0  0  0  0  0  0  0  0
    3.8144    0.2926   -0.8933 H   0  0  0  0  0  0  0  0  0  0  0  0
    1.4493    1.9730    1.0817 H   0  0  0  0  0  0  0  0  0  0  0  0
    2.2263    2.2521   -0.4982 H   0  0  0  0  0  0  0  0  0  0  0  0
    4.3439    1.9702    0.3777 H   0  0  0  0  0  0  0  0  0  0  0  0
    3.4914    2.4385    1.8685 H   0  0  0  0  0  0  0  0  0  0  0  0
    4.9010    0.5247    2.2490 H   0  0  0  0  0  0  0  0  0  0  0  0
    3.1857    0.2502    2.6647 H   0  0  0  0  0  0  0  0  0  0  0  0
    3.4185   -1.6787    1.4074 H   0  0  0  0  0  0  0  0  0  0  0  0
    5.9153   -0.5284    0.1014 H   0  0  0  0  0  0  0  0  0  0  0  0
    5.3674   -2.1128   -1.2100 H   0  0  0  0  0  0  0  0  0  0  0  0
    6.1720   -0.9764    2.4320 H   0  0  0  0  0  0  0  0  0  0  0  0
    7.3891   -2.8769    2.7765 H   0  0  0  0  0  0  0  0  0  0  0  0
    8.3822   -0.9532    1.7603 H   0  0  0  0  0  0  0  0  0  0  0  0
    8.0656   -1.5781    0.1137 H   0  0  0  0  0  0  0  0  0  0  0  0
    6.8937   -3.8607   -0.0987 H   0  0  0  0  0  0  0  0  0  0  0  0
    4.9721   -3.8319    2.0003 H   0  0  0  0  0  0  0  0  0  0  0  0
    5.7888   -5.3973    2.1423 H   0  0  0  0  0  0  0  0  0  0  0  0
    4.9849   -4.9380    0.5915 H   0  0  0  0  0  0  0  0  0  0  0  0
    7.6840   -5.5049    2.1716 H   0  0  0  0  0  0  0  0  0  0  0  0
    8.2892   -5.5090    0.5063 H   0  0  0  0  0  0  0  0  0  0  0  0
   10.1544   -4.7277    1.6323 H   0  0  0  0  0  0  0  0  0  0  0  0
    9.2497   -4.0607    3.0121 H   0  0  0  0  0  0  0  0  0  0  0  0
   10.1409   -2.2310    2.0596 H   0  0  0  0  0  0  0  0  0  0  0  0
    9.5747   -3.4959   -0.6923 H   0  0  0  0  0  0  0  0  0  0  0  0
   11.2941   -4.5994   -0.3750 H   0  0  0  0  0  0  0  0  0  0  0  0
    9.8626   -1.2166   -1.0288 H   0  0  0  0  0  0  0  0  0  0  0  0
   11.0874   -0.4037    0.8010 H   0  0  0  0  0  0  0  0  0  0  0  0
   12.6242   -2.3687    1.2162 H   0  0  0  0  0  0  0  0  0  0  0  0
   13.4819   -1.9512   -0.3414 H   0  0  0  0  0  0  0  0  0  0  0  0
   12.7999    0.0776    1.8511 H   0  0  0  0  0  0  0  0  0  0  0  0
   14.2206   -0.9964    2.0076 H   0  0  0  0  0  0  0  0  0  0  0  0
   15.1338   -0.4189   -0.0995 H   0  0  0  0  0  0  0  0  0  0  0  0
   14.3926    3.1782    2.3134 H   0  0  0  0  0  0  0  0  0  0  0  0
   15.8957    0.0648    2.4089 H   0  0  0  0  0  0  0  0  0  0  0  0
   16.9909    2.6391    0.5370 H   0  0  0  0  0  0  0  0  0  0  0  0
   11.9829   -0.4590   -2.0348 H   0  0  0  0  0  0  0  0  0  0  0  0
   14.0054   -0.0380   -1.7900 H   0  0  0  0  0  0  0  0  0  0  0  0
   14.7070    2.3315   -0.9157 H   0  0  0  0  0  0  0  0  0  0  0  0
   14.0848    1.9973   -2.5158 H   0  0  0  0  0  0  0  0  0  0  0  0
   10.1735    0.8005   -1.8854 H   0  0  0  0  0  0  0  0  0  0  0  0
   11.1121    2.2134    2.1965 H   0  0  0  0  0  0  0  0  0  0  0  0
   10.0230    4.0532   -0.2421 H   0  0  0  0  0  0  0  0  0  0  0  0
    8.2724    1.6622    0.9917 H   0  0  0  0  0  0  0  0  0  0  0  0
   10.7252    3.0152   -2.2789 H   0  0  0  0  0  0  0  0  0  0  0  0
   11.9338    1.8354   -3.0598 H   0  0  0  0  0  0  0  0  0  0  0  0
   12.2370    3.1459   -0.3556 H   0  0  0  0  0  0  0  0  0  0  0  0
   11.7350    6.0625   -1.7140 H   0  0  0  0  0  0  0  0  0  0  0  0
   15.1791    4.2720   -1.3130 H   0  0  0  0  0  0  0  0  0  0  0  0
   14.5031    3.6841   -3.7484 H   0  0  0  0  0  0  0  0  0  0  0  0
  2  1  1  0
  2  3  1  0
  2  4  1  0
  2  5  1  0
  5  6  1  0
  6  7  1  0
  7  8  1  0
  8  9  1  0
  8 10  1  0
  8 11  1  0
  5 12  1  0
 12 13  1  0
 13 14  1  0
 14 15  1  0
 15 16  1  0
 15 17  1  0
 15 18  1  0
 14 19  1  0
 19 20  1  0
  7 21  1  0
 13 21  1  0
 20 22  1  0
 21 22  1  0
 22 23  1  0
 23 24  1  0
 24 25  1  0
 24 26  1  0
 26 27  1  0
 26 28  1  0
 28 29  1  0
 29 30  1  0
 30 31  1  0
 27 32  1  0
 30 32  1  0
 32 33  1  0
 33 34  1  0
 34 35  1  0
 34 36  1  0
 36 37  1  0
 36 38  1  0
 38 39  1  0
 39 40  1  0
 37 41  1  0
 40 41  1  0
 41 42  1  0
 42 43  1  0
 43 44  1  0
 43 45  1  0
 45 46  1  0
 46 47  1  0
 46 48  1  0
 48 49  1  0
 49 50  1  0
 47 51  1  0
 50 51  1  0
 51 52  1  0
 52 53  1  0
 52 54  1  0
 54 55  1  0
 55 56  1  0
 55 57  1  0
 57 58  1  0
 57 59  1  0
 59 60  1  0
 56 61  1  0
 60 61  1  0
 61 62  1  0
 62 63  1  0
 62 64  1  0
 64 65  1  0
 65 66  1  0
 66 67  1  0
 67 68  1  0
 68 69  1  0
 69 70  1  0
 69 71  1  0
 69 72  1  0
 65 73  1  0
 68 74  1  0
 73 74  1  0
 74 75  1  0
 73 76  1  0
 76 77  1  0
 77 78  1  0
 77 79  1  0
 77 80  1  0
 76 81  1  0
 75 82  1  0
 81 82  1  0
 82 83  1  0
 83 84  1  0
 83 85  1  0
 83 86  1  0
  1 87  1  0
  3 88  1  0
  4 89  1  0
  5 90  1  0
  6 91  1  0
  6 92  1  0
  7 93  1  1
  9 94  1  0
 10 95  1  0
 11 96  1  0
 12 97  1  0
 12 98  1  0
 13 99  1  0
 14100  1  1
 16101  1  0
 17102  1  0
 18103  1  0
 19104  1  0
 19105  1  0
 20106  1  0
 20107  1  0
 21108  1  0
 22109  1  6
 23110  1  0
 24111  1  0
 25112  1  0
 26113  1  1
 27114  1  0
 27115  1  0
 28116  1  0
 28117  1  0
 29118  1  0
 29119  1  0
 30120  1  0
 31121  1  0
 31122  1  0
 31123  1  0
 32124  1  0
 33125  1  0
 34126  1  0
 35127  1  0
 36128  1  0
 37129  1  0
 37130  1  0
 38131  1  0
 38132  1  0
 39133  1  0
 39134  1  0
 40135  1  0
 40136  1  0
 41137  1  0
 42138  1  0
 43139  1  0
 44140  1  0
 45141  1  0
 46142  1  0
 47143  1  0
 47144  1  0
 48145  1  0
 48146  1  0
 49147  1  0
 49148  1  0
 50149  1  0
 50150  1  0
 51151  1  1
 52152  1  0
 53153  1  0
 54154  1  0
 55155  1  0
 56156  1  0
 56157  1  0
 57158  1  0
 58159  1  0
 58160  1  0
 58161  1  0
 59162  1  0
 59163  1  0
 60164  1  0
 60165  1  0
 61166  1  0
 62167  1  0
 63168  1  0
 64169  1  0
 65170  1  0
 66171  1  0
 66172  1  0
 67173  1  0
 67174  1  0
 68175  1  6
 70176  1  0
 71177  1  0
 72178  1  0
 73179  1  0
 74180  1  0
 75181  1  0
 75182  1  0
 76183  1  6
 78184  1  0
 79185  1  0
 80186  1  0
 81187  1  0
 81188  1  0
 82189  1  1
 84190  1  0
 85191  1  0
 86192  1  0
M  END
>  <PDBID>  (1) 
2NYR

>  <PDB ID>  (1) 
2NYR

>  <Generic Name>  (1) 
Suramin

>  <Brand Name>  (1) 
309 Fourneau#Antrypol#Bayer 205#Belganyl#Germanin#Moranyl#Naganin#Naganine#Naganol#Naphuride

>  <DrugBank ID>  (1) 
DB04786

>  <ATC Codes>  (1) 
P01CX02

>  <Ligand ID>  (1) 
SVR

>  <Target Name>  (1) 
NAD-dependent protein deacylase sirtuin-5, mitochondrial

>  <UniProt ID>  (1) 
Q9NXA8

>  <PDB ID.1>  (1) 
2NYR

>  <Seq. Identity>  (1) 
100%

$$$$
