PDB_DB08877_05
     RDKit          3D

114120  0  0  0  0  0  0  0  0999 V2000
   -3.0575    0.4703    2.0311 C   0  0  0  0  0  0  0  0  0  0  0  0
   -4.2899    1.2539    1.6975 C   0  0  0  0  0  0  0  0  0  0  0  0
   -4.2598    1.4706    0.1948 C   0  0  0  0  0  0  0  0  0  0  0  0
   -2.7630    1.4185   -0.1309 C   0  0  0  0  0  0  0  0  0  0  0  0
   -2.1516    0.4370    0.8295 C   0  0  0  0  0  0  0  0  0  0  0  0
   -1.8473   -0.8824    0.2960 C   0  0  1  0  0  0  0  0  0  0  0  0
   -2.8624   -1.7852   -0.2536 C   0  0  0  0  0  0  0  0  0  0  0  0
   -3.9866   -2.2442    0.6234 C   0  0  0  0  0  0  0  0  0  0  0  0
   -4.8553   -3.1892   -0.0951 N   0  0  0  0  0  0  0  0  0  0  0  0
   -0.6868   -0.9299   -0.5826 N   0  0  0  0  0  0  0  0  0  0  0  0
    0.5685   -0.6215    0.0604 C   0  0  0  0  0  0  0  0  0  0  0  0
   -0.7807   -0.1382   -1.6949 N   0  0  0  0  0  0  0  0  0  0  0  0
    0.5315   -0.1495   -2.2628 C   0  0  0  0  0  0  0  0  0  0  0  0
    1.4962   -0.3467   -1.0966 C   0  0  0  0  0  0  0  0  0  0  0  0
    2.3107    0.8886   -0.9919 C   0  0  0  0  0  0  0  0  0  0  0  0
    3.0661    1.1245   -2.2361 N   0  0  0  0  0  0  0  0  0  0  0  0
    4.1916    0.2293   -2.3408 C   0  0  0  0  0  0  0  0  0  0  0  0
    5.1338    0.3824   -1.2615 N   0  0  0  0  0  0  0  0  0  0  0  0
    4.4500    0.0219   -0.0372 C   0  0  0  0  0  0  0  0  0  0  0  0
    3.2864    1.0042    0.0947 C   0  0  0  0  0  0  0  0  0  0  0  0
    2.8910    0.7244    1.4951 C   0  0  0  0  0  0  0  0  0  0  0  0
    4.2991    0.8523    2.1533 C   0  0  0  0  0  0  0  0  0  0  0  0
    5.2015    0.3420    1.1414 N   0  0  0  0  0  0  0  0  0  0  0  0
   -3.1980    1.1188    1.7608 C   0  0  0  0  0  0  0  0  0  0  0  0
   -4.3234    1.8219    1.0519 C   0  0  0  0  0  0  0  0  0  0  0  0
   -4.1169    1.5880   -0.4287 C   0  0  0  0  0  0  0  0  0  0  0  0
   -2.6391    1.2535   -0.5840 C   0  0  0  0  0  0  0  0  0  0  0  0
   -2.2175    0.6458    0.7300 C   0  0  0  0  0  0  0  0  0  0  0  0
   -1.9346   -0.7983    0.6763 C   0  0  1  0  0  0  0  0  0  0  0  0
   -3.0050   -1.7631    0.3833 C   0  0  0  0  0  0  0  0  0  0  0  0
   -4.1836   -1.8481    1.2717 C   0  0  0  0  0  0  0  0  0  0  0  0
   -5.0551   -2.9309    0.7345 N   0  0  0  0  0  0  0  0  0  0  0  0
   -0.7924   -1.0361   -0.1161 N   0  0  0  0  0  0  0  0  0  0  0  0
    0.4595   -0.5291    0.2689 C   0  0  0  0  0  0  0  0  0  0  0  0
   -0.8709   -1.2853   -1.4235 N   0  0  0  0  0  0  0  0  0  0  0  0
    0.4197   -0.9813   -2.0059 C   0  0  0  0  0  0  0  0  0  0  0  0
    1.3529   -1.0477   -0.8488 C   0  0  0  0  0  0  0  0  0  0  0  0
    2.5928   -0.2866   -1.0568 C   0  0  1  0  0  0  0  0  0  0  0  0
    2.4806    1.0973   -1.3772 N   0  0  0  0  0  0  0  0  0  0  0  0
    3.7569    1.4813   -2.0011 C   0  0  0  0  0  0  0  0  0  0  0  0
    4.8853    1.2433   -1.1739 N   0  0  0  0  0  0  0  0  0  0  0  0
    4.9376   -0.0063   -0.5023 C   0  0  0  0  0  0  0  0  0  0  0  0
    3.5747   -0.3821    0.0913 C   0  0  0  0  0  0  0  0  0  0  0  0
    3.3904    0.7992    1.0541 C   0  0  0  0  0  0  0  0  0  0  0  0
    4.8133    1.0383    1.5457 C   0  0  0  0  0  0  0  0  0  0  0  0
    5.6821    0.2128    0.7505 N   0  0  0  0  0  0  0  0  0  0  0  0
   -2.5426    0.9759    2.9090 H   0  0  0  0  0  0  0  0  0  0  0  0
   -3.2275   -0.5547    2.3950 H   0  0  0  0  0  0  0  0  0  0  0  0
   -5.1928    0.6775    1.9428 H   0  0  0  0  0  0  0  0  0  0  0  0
   -4.2967    2.1997    2.2504 H   0  0  0  0  0  0  0  0  0  0  0  0
   -4.6900    2.4738    0.0038 H   0  0  0  0  0  0  0  0  0  0  0  0
   -4.8390    0.7373   -0.3639 H   0  0  0  0  0  0  0  0  0  0  0  0
   -2.5766    1.2570   -1.1825 H   0  0  0  0  0  0  0  0  0  0  0  0
   -2.3927    2.4319    0.1282 H   0  0  0  0  0  0  0  0  0  0  0  0
   -1.1862    0.9043    1.1860 H   0  0  0  0  0  0  0  0  0  0  0  0
   -1.4321   -1.4733    1.2231 H   0  0  0  0  0  0  0  0  0  0  0  0
   -2.3009   -2.7440   -0.5217 H   0  0  0  0  0  0  0  0  0  0  0  0
   -3.2536   -1.4772   -1.2609 H   0  0  0  0  0  0  0  0  0  0  0  0
   -4.6612   -1.3707    0.8070 H   0  0  0  0  0  0  0  0  0  0  0  0
   -3.6092   -2.7393    1.5073 H   0  0  0  0  0  0  0  0  0  0  0  0
   -4.6132   -4.1733    0.2177 H   0  0  0  0  0  0  0  0  0  0  0  0
   -4.7452   -3.1465   -1.1130 H   0  0  0  0  0  0  0  0  0  0  0  0
    0.5352    0.2027    0.7745 H   0  0  0  0  0  0  0  0  0  0  0  0
    0.9313   -1.5155    0.6485 H   0  0  0  0  0  0  0  0  0  0  0  0
   -1.4942   -0.5587   -2.3499 H   0  0  0  0  0  0  0  0  0  0  0  0
    0.6932    0.8241   -2.7748 H   0  0  0  0  0  0  0  0  0  0  0  0
    0.6593   -0.9321   -3.0343 H   0  0  0  0  0  0  0  0  0  0  0  0
    2.0969   -1.2556   -1.3321 H   0  0  0  0  0  0  0  0  0  0  0  0
    1.6044    1.7618   -0.9245 H   0  0  0  0  0  0  0  0  0  0  0  0
    3.3025    2.1102   -2.3705 H   0  0  0  0  0  0  0  0  0  0  0  0
    3.8916   -0.8102   -2.4511 H   0  0  0  0  0  0  0  0  0  0  0  0
    4.7314    0.5206   -3.2748 H   0  0  0  0  0  0  0  0  0  0  0  0
    5.4059    1.3695   -1.1953 H   0  0  0  0  0  0  0  0  0  0  0  0
    4.1088   -1.0180   -0.0199 H   0  0  0  0  0  0  0  0  0  0  0  0
    3.7410    2.0310    0.0689 H   0  0  0  0  0  0  0  0  0  0  0  0
    2.2025    1.4313    1.9491 H   0  0  0  0  0  0  0  0  0  0  0  0
    2.6158   -0.3190    1.7129 H   0  0  0  0  0  0  0  0  0  0  0  0
    4.3391    0.3131    3.0968 H   0  0  0  0  0  0  0  0  0  0  0  0
    4.4943    1.9420    2.2309 H   0  0  0  0  0  0  0  0  0  0  0  0
    5.8147   -0.4093    1.4842 H   0  0  0  0  0  0  0  0  0  0  0  0
   -2.7371    1.9355    2.4161 H   0  0  0  0  0  0  0  0  0  0  0  0
   -3.5043    0.3683    2.5007 H   0  0  0  0  0  0  0  0  0  0  0  0
   -5.3084    1.4407    1.3903 H   0  0  0  0  0  0  0  0  0  0  0  0
   -4.3386    2.9213    1.1956 H   0  0  0  0  0  0  0  0  0  0  0  0
   -4.7316    0.7053   -0.7116 H   0  0  0  0  0  0  0  0  0  0  0  0
   -4.4330    2.4328   -1.0412 H   0  0  0  0  0  0  0  0  0  0  0  0
   -2.4936    0.6055   -1.4441 H   0  0  0  0  0  0  0  0  0  0  0  0
   -2.1278    2.2168   -0.7968 H   0  0  0  0  0  0  0  0  0  0  0  0
   -1.2389    1.1552    0.9847 H   0  0  0  0  0  0  0  0  0  0  0  0
   -1.5953   -1.0641    1.7471 H   0  0  0  0  0  0  0  0  0  0  0  0
   -2.5145   -2.7879    0.4594 H   0  0  0  0  0  0  0  0  0  0  0  0
   -3.3643   -1.7515   -0.6724 H   0  0  0  0  0  0  0  0  0  0  0  0
   -4.8885   -0.9659    1.1991 H   0  0  0  0  0  0  0  0  0  0  0  0
   -4.0136   -2.0637    2.3217 H   0  0  0  0  0  0  0  0  0  0  0  0
   -4.6592   -3.8611    0.9602 H   0  0  0  0  0  0  0  0  0  0  0  0
   -4.9939   -2.7922   -0.3192 H   0  0  0  0  0  0  0  0  0  0  0  0
    0.4744    0.5820    0.1447 H   0  0  0  0  0  0  0  0  0  0  0  0
    0.8412   -0.8482    1.2418 H   0  0  0  0  0  0  0  0  0  0  0  0
   -1.3211   -2.1224   -1.7858 H   0  0  0  0  0  0  0  0  0  0  0  0
    0.3090    0.0269   -2.4671 H   0  0  0  0  0  0  0  0  0  0  0  0
    0.6819   -1.6859   -2.8262 H   0  0  0  0  0  0  0  0  0  0  0  0
    1.6113   -2.1128   -0.6745 H   0  0  0  0  0  0  0  0  0  0  0  0
    3.1311   -0.7672   -1.9281 H   0  0  0  0  0  0  0  0  0  0  0  0
    1.7125    1.3897   -1.9766 H   0  0  0  0  0  0  0  0  0  0  0  0
    3.7546    2.5417   -2.3127 H   0  0  0  0  0  0  0  0  0  0  0  0
    3.8234    0.8205   -2.9127 H   0  0  0  0  0  0  0  0  0  0  0  0
    5.2887    2.0471   -0.6850 H   0  0  0  0  0  0  0  0  0  0  0  0
    5.3665   -0.8350   -1.0779 H   0  0  0  0  0  0  0  0  0  0  0  0
    3.6062   -1.3418    0.5943 H   0  0  0  0  0  0  0  0  0  0  0  0
    2.7295    0.5640    1.8860 H   0  0  0  0  0  0  0  0  0  0  0  0
    3.0705    1.6613    0.4312 H   0  0  0  0  0  0  0  0  0  0  0  0
    4.9305    0.7554    2.6244 H   0  0  0  0  0  0  0  0  0  0  0  0
    5.0870    2.1130    1.4803 H   0  0  0  0  0  0  0  0  0  0  0  0
    5.8357   -0.6887    1.2541 H   0  0  0  0  0  0  0  0  0  0  0  0
  1  2  1  0
  2  3  1  0
  3  4  1  0
  1  5  1  0
  4  5  1  0
  5  6  1  0
  6  7  1  0
  7  8  1  0
  8  9  1  0
  6 10  1  0
 10 11  1  0
 10 12  1  0
 12 13  1  0
 11 14  1  0
 13 14  1  0
 14 15  1  0
 15 16  1  0
 16 17  1  0
 17 18  1  0
 18 19  1  0
 15 20  1  0
 19 20  1  0
 20 21  1  0
 21 22  1  0
 19 23  1  0
 22 23  1  0
 24 25  1  0
 25 26  1  0
 26 27  1  0
 24 28  1  0
 27 28  1  0
 28 29  1  0
 29 30  1  0
 30 31  1  0
 31 32  1  0
 29 33  1  0
 33 34  1  0
 33 35  1  0
 35 36  1  0
 34 37  1  0
 36 37  1  0
 37 38  1  0
 38 39  1  0
 39 40  1  0
 40 41  1  0
 41 42  1  0
 38 43  1  0
 42 43  1  0
 43 44  1  0
 44 45  1  0
 42 46  1  0
 45 46  1  0
  1 47  1  0
  1 48  1  0
  2 49  1  0
  2 50  1  0
  3 51  1  0
  3 52  1  0
  4 53  1  0
  4 54  1  0
  5 55  1  0
  6 56  1  1
  7 57  1  0
  7 58  1  0
  8 59  1  0
  8 60  1  0
  9 61  1  0
  9 62  1  0
 11 63  1  0
 11 64  1  0
 12 65  1  0
 13 66  1  0
 13 67  1  0
 14 68  1  0
 15 69  1  0
 16 70  1  0
 17 71  1  0
 17 72  1  0
 18 73  1  0
 19 74  1  0
 20 75  1  0
 21 76  1  0
 21 77  1  0
 22 78  1  0
 22 79  1  0
 23 80  1  0
 24 81  1  0
 24 82  1  0
 25 83  1  0
 25 84  1  0
 26 85  1  0
 26 86  1  0
 27 87  1  0
 27 88  1  0
 28 89  1  0
 29 90  1  1
 30 91  1  0
 30 92  1  0
 31 93  1  0
 31 94  1  0
 32 95  1  0
 32 96  1  0
 34 97  1  0
 34 98  1  0
 35 99  1  0
 36100  1  0
 36101  1  0
 37102  1  0
 38103  1  6
 39104  1  0
 40105  1  0
 40106  1  0
 41107  1  0
 42108  1  0
 43109  1  0
 44110  1  0
 44111  1  0
 45112  1  0
 45113  1  0
 46114  1  0
M  END
>  <PDBID>  (1) 
4U5J

>  <PDB ID>  (1) 
4U5J

>  <Generic Name>  (1) 
Ruxolitinib

>  <Brand Name>  (1) 
Jakafi#Jakavi

>  <DrugBank ID>  (1) 
DB08877

>  <ATC Codes>  (1) 
L01XE18

>  <Ligand ID>  (1) 
RXT

>  <Target Name>  (1) 
Tyrosine-protein kinase JAK2

>  <UniProt ID>  (1) 
O60674

>  <PDB ID.1>  (1) 
4U5J

>  <Seq. Identity>  (1) 
30%

$$$$
