PDB_DB00988_04
     RDKit          3D

 28 28  0  0  0  0  0  0  0  0999 V2000
    1.3491   -0.4208   -0.3420 C   0  0  0  0  0  0  0  0  0  0  0  0
    0.1552   -0.1415   -1.1913 C   0  0  0  0  0  0  0  0  0  0  0  0
   -2.1188   -0.2972    0.6237 C   0  0  0  0  0  0  0  0  0  0  0  0
   -0.6157    1.0735   -0.8514 C   0  0  0  0  0  0  0  0  0  0  0  0
   -0.7622   -1.3442   -1.1149 C   0  0  0  0  0  0  0  0  0  0  0  0
   -1.3432   -1.5107    0.2578 C   0  0  0  0  0  0  0  0  0  0  0  0
   -1.4219    0.9963    0.4077 C   0  0  0  0  0  0  0  0  0  0  0  0
   -0.6726    1.3687    1.5419 O   0  0  0  0  0  0  0  0  0  0  0  0
   -2.4464   -0.4135    1.9958 O   0  0  0  0  0  0  0  0  0  0  0  0
    2.3953    0.6463   -0.3510 C   0  0  0  0  0  0  0  0  0  0  0  0
    3.4713    0.2037    0.5242 N   0  0  0  0  0  0  0  0  0  0  0  0
    1.8266   -1.3480   -0.7255 H   0  0  0  0  0  0  0  0  0  0  0  0
    1.0818   -0.6254    0.7153 H   0  0  0  0  0  0  0  0  0  0  0  0
   -1.3125    1.2891   -1.6899 H   0  0  0  0  0  0  0  0  0  0  0  0
   -0.1612   -2.2206   -1.4453 H   0  0  0  0  0  0  0  0  0  0  0  0
   -0.6087   -1.7464    1.0332 H   0  0  0  0  0  0  0  0  0  0  0  0
   -0.5672    2.3708    1.5420 H   0  0  0  0  0  0  0  0  0  0  0  0
   -1.7248   -0.9161    2.4713 H   0  0  0  0  0  0  0  0  0  0  0  0
    2.8432    0.7158   -1.3699 H   0  0  0  0  0  0  0  0  0  0  0  0
    2.0589    1.6209    0.0097 H   0  0  0  0  0  0  0  0  0  0  0  0
    3.0073   -0.1305    1.4033 H   0  0  0  0  0  0  0  0  0  0  0  0
    4.0111    1.0614    0.7838 H   0  0  0  0  0  0  0  0  0  0  0  0
    0.4850   -0.0682   -2.2495 H   0  0  0  0  0  0  0  0  0  0  0  0
   -3.0992   -0.3365    0.0687 H   0  0  0  0  0  0  0  0  0  0  0  0
    0.0348    1.9829   -0.7711 H   0  0  0  0  0  0  0  0  0  0  0  0
   -1.6007   -1.2299   -1.8228 H   0  0  0  0  0  0  0  0  0  0  0  0
   -2.0501   -2.3720    0.2127 H   0  0  0  0  0  0  0  0  0  0  0  0
   -2.2146    1.7920    0.3335 H   0  0  0  0  0  0  0  0  0  0  0  0
  1  2  1  0
  2  4  1  0
  2  5  1  0
  3  6  1  0
  5  6  1  0
  3  7  1  0
  4  7  1  0
  7  8  1  0
  3  9  1  0
  1 10  1  0
 10 11  1  0
  1 12  1  0
  1 13  1  0
  4 14  1  0
  5 15  1  0
  6 16  1  0
  8 17  1  0
  9 18  1  0
 10 19  1  0
 10 20  1  0
 11 21  1  0
 11 22  1  0
  2 23  1  0
  3 24  1  0
  4 25  1  0
  5 26  1  0
  6 27  1  0
  7 28  1  0
M  END
>  <PDBID>  (1) 
4XP1

>  <PDB ID>  (1) 
4XP1

>  <Generic Name>  (1) 
Dopamine

>  <Brand Name>  (1) 
Dopamine#Dopamine HCl#Dopamine HCl Inj 4%#Dopamine Hydrochloride#Dopamine Hydrochloride and Dextrose#Intropin Injection 40mg/ml#Intropin#Revimine

>  <DrugBank ID>  (1) 
DB00988

>  <ATC Codes>  (1) 
C01CA04

>  <Ligand ID>  (1) 
LDP

>  <Target Name>  (1) 
Sodium-dependent dopamine transporter

>  <UniProt ID>  (1) 
Q01959

>  <PDB ID.1>  (1) 
4XP1

>  <Seq. Identity>  (1) 
52%

$$$$
