PDB_DB00701_09
     RDKit          3D

 86 88  0  0  0  0  0  0  0  0999 V2000
   -3.1607   -3.8080   -0.3745 C   0  0  0  0  0  0  0  0  0  0  0  0
   -3.8388   -3.4447   -2.5665 C   0  0  0  0  0  0  0  0  0  0  0  0
   -3.4941   -0.4763   -1.1546 C   0  0  2  0  0  0  0  0  0  0  0  0
   -3.6757   -2.7036   -1.2280 C   0  0  2  0  0  0  0  0  0  0  0  0
   -1.6811    1.0051   -0.4043 C   0  0  2  0  0  0  0  0  0  0  0  0
   -0.4007    0.3395   -0.7222 C   0  0  1  0  0  0  0  0  0  0  0  0
   -1.5044    2.0720    0.7070 C   0  0  0  0  0  0  0  0  0  0  0  0
   -2.8399    2.7268    1.0021 C   0  0  0  0  0  0  0  0  0  0  0  0
   -2.6598    3.7506    2.0763 C   0  0  0  0  0  0  0  0  0  0  0  0
   -3.5168    3.1961   -0.2310 C   0  0  0  0  0  0  0  0  0  0  0  0
   -3.8229    4.6973    2.2138 C   0  0  0  0  0  0  0  0  0  0  0  0
   -4.5203    4.2895   -0.0481 C   0  0  0  0  0  0  0  0  0  0  0  0
   -4.1464    5.3708    0.8990 C   0  0  0  0  0  0  0  0  0  0  0  0
    0.2029   -0.4758    0.3524 C   0  0  0  0  0  0  0  0  0  0  0  0
    1.9075   -1.8969   -0.6873 C   0  0  0  0  0  0  0  0  0  0  0  0
    1.2951   -3.2943   -0.4520 C   0  0  0  0  0  0  0  0  0  0  0  0
    4.2715   -0.5535    0.7816 C   0  0  0  0  0  0  0  0  0  0  0  0
    5.1506   -0.0034    1.8895 C   0  0  0  0  0  0  0  0  0  0  0  0
    5.5958    1.3879    1.7044 C   0  0  0  0  0  0  0  0  0  0  0  0
    5.6844    1.8948    0.3075 C   0  0  0  0  0  0  0  0  0  0  0  0
    5.9438    0.7049   -0.5895 C   0  0  0  0  0  0  0  0  0  0  0  0
    4.6484   -0.1008   -0.5662 C   0  0  0  0  0  0  0  0  0  0  0  0
    1.7007   -3.8418    0.8979 C   0  0  0  0  0  0  0  0  0  0  0  0
    1.8889   -4.2158   -1.5068 C   0  0  0  0  0  0  0  0  0  0  0  0
   -4.2927   -4.7947   -2.0495 C   0  0  0  0  0  0  0  0  0  0  0  0
   -2.8566    0.3060   -0.1776 N   0  0  0  0  0  0  0  0  0  0  0  0
    1.5292   -0.9312    0.2477 N   0  0  0  0  0  0  0  0  0  0  0  0
    6.7415    2.8802    0.2122 N   0  0  0  0  0  0  0  0  0  0  0  0
   -2.8245   -1.6526   -1.4447 O   0  0  0  0  0  0  0  0  0  0  0  0
   -3.6185    0.1969   -2.3929 O   0  0  0  0  0  0  0  0  0  0  0  0
   -0.4968   -0.3769   -1.8986 O   0  0  0  0  0  0  0  0  0  0  0  0
    2.3846   -0.7734    2.7391 O   0  0  0  0  0  0  0  0  0  0  0  0
    2.3686    1.3802    1.1627 O   0  0  0  0  0  0  0  0  0  0  0  0
   -3.7464   -4.9883   -0.8104 O   0  0  0  0  0  0  0  0  0  0  0  0
    2.5614   -0.1778    1.1882 S   0  0  0  0  0  0  0  0  0  0  0  0
   -3.3576   -3.6777    0.7041 H   0  0  0  0  0  0  0  0  0  0  0  0
   -2.0767   -3.9141   -0.5670 H   0  0  0  0  0  0  0  0  0  0  0  0
   -4.6032   -2.9552   -3.1870 H   0  0  0  0  0  0  0  0  0  0  0  0
   -2.8403   -3.4937   -3.0101 H   0  0  0  0  0  0  0  0  0  0  0  0
   -4.5433   -0.6814   -0.8082 H   0  0  0  0  0  0  0  0  0  0  0  0
   -4.6736   -2.3622   -0.8700 H   0  0  0  0  0  0  0  0  0  0  0  0
   -1.9103    1.6994   -1.3062 H   0  0  0  0  0  0  0  0  0  0  0  0
    0.3397    1.2080   -0.8797 H   0  0  0  0  0  0  0  0  0  0  0  0
   -1.1350    1.5707    1.6165 H   0  0  0  0  0  0  0  0  0  0  0  0
   -0.8028    2.8274    0.3597 H   0  0  0  0  0  0  0  0  0  0  0  0
   -3.4747    1.9143    1.4452 H   0  0  0  0  0  0  0  0  0  0  0  0
   -2.5006    3.2951    3.0726 H   0  0  0  0  0  0  0  0  0  0  0  0
   -1.7647    4.3750    1.8750 H   0  0  0  0  0  0  0  0  0  0  0  0
   -2.7406    3.5767   -0.9292 H   0  0  0  0  0  0  0  0  0  0  0  0
   -4.0353    2.3787   -0.7764 H   0  0  0  0  0  0  0  0  0  0  0  0
   -4.7193    4.1394    2.5242 H   0  0  0  0  0  0  0  0  0  0  0  0
   -3.6126    5.4603    2.9750 H   0  0  0  0  0  0  0  0  0  0  0  0
   -5.4940    3.8567    0.3025 H   0  0  0  0  0  0  0  0  0  0  0  0
   -4.7610    4.7675   -1.0290 H   0  0  0  0  0  0  0  0  0  0  0  0
   -3.3633    6.0543    0.5634 H   0  0  0  0  0  0  0  0  0  0  0  0
   -5.0715    5.9714    1.0937 H   0  0  0  0  0  0  0  0  0  0  0  0
   -0.4896   -1.3730    0.4951 H   0  0  0  0  0  0  0  0  0  0  0  0
    0.1463    0.0848    1.3402 H   0  0  0  0  0  0  0  0  0  0  0  0
    1.9594   -1.6317   -1.7485 H   0  0  0  0  0  0  0  0  0  0  0  0
    3.0157   -2.1304   -0.4568 H   0  0  0  0  0  0  0  0  0  0  0  0
    0.2088   -3.2577   -0.4768 H   0  0  0  0  0  0  0  0  0  0  0  0
    4.3441   -1.6538    0.8662 H   0  0  0  0  0  0  0  0  0  0  0  0
    6.0194   -0.6813    2.0236 H   0  0  0  0  0  0  0  0  0  0  0  0
    4.5554   -0.0747    2.8260 H   0  0  0  0  0  0  0  0  0  0  0  0
    4.9425    2.1214    2.2669 H   0  0  0  0  0  0  0  0  0  0  0  0
    6.6094    1.5394    2.1836 H   0  0  0  0  0  0  0  0  0  0  0  0
    4.6928    2.3338    0.0267 H   0  0  0  0  0  0  0  0  0  0  0  0
    6.7609    0.0593   -0.1660 H   0  0  0  0  0  0  0  0  0  0  0  0
    6.1361    0.9846   -1.6309 H   0  0  0  0  0  0  0  0  0  0  0  0
    3.8678    0.5747   -0.9717 H   0  0  0  0  0  0  0  0  0  0  0  0
    4.8241   -0.9373   -1.2975 H   0  0  0  0  0  0  0  0  0  0  0  0
    1.1904   -4.8323    1.0535 H   0  0  0  0  0  0  0  0  0  0  0  0
    1.5181   -3.1474    1.7163 H   0  0  0  0  0  0  0  0  0  0  0  0
    2.7954   -4.0722    0.9036 H   0  0  0  0  0  0  0  0  0  0  0  0
    1.0833   -4.9137   -1.8281 H   0  0  0  0  0  0  0  0  0  0  0  0
    2.2457   -3.6358   -2.3852 H   0  0  0  0  0  0  0  0  0  0  0  0
    2.7372   -4.8109   -1.1277 H   0  0  0  0  0  0  0  0  0  0  0  0
   -4.0710   -5.6076   -2.7658 H   0  0  0  0  0  0  0  0  0  0  0  0
   -5.4107   -4.7129   -1.9066 H   0  0  0  0  0  0  0  0  0  0  0  0
   -3.0772    0.0106    0.7972 H   0  0  0  0  0  0  0  0  0  0  0  0
    7.4721    2.4869   -0.4480 H   0  0  0  0  0  0  0  0  0  0  0  0
    6.3492    3.7039   -0.2948 H   0  0  0  0  0  0  0  0  0  0  0  0
   -4.0281   -0.4445   -3.0251 H   0  0  0  0  0  0  0  0  0  0  0  0
   -0.2671   -1.3025   -1.7606 H   0  0  0  0  0  0  0  0  0  0  0  0
    1.8539   -0.1449    3.2936 H   0  0  0  0  0  0  0  0  0  0  0  0
    2.3786    1.7659    0.2519 H   0  0  0  0  0  0  0  0  0  0  0  0
  1  4  1  0
  2  4  1  0
  5  6  1  0
  5  7  1  0
  7  8  1  0
  8  9  1  0
  8 10  1  0
  9 11  1  0
 10 12  1  0
 11 13  1  0
 12 13  1  0
  6 14  1  0
 15 16  1  0
 17 18  1  0
 18 19  1  0
 19 20  1  0
 20 21  1  0
 17 22  1  0
 21 22  1  0
 16 23  1  0
 16 24  1  0
  2 25  1  0
  3 26  1  0
  5 26  1  0
 14 27  1  0
 15 27  1  0
 20 28  1  0
  3 29  1  0
  4 29  1  0
  3 30  1  0
  6 31  1  0
  1 34  1  0
 25 34  1  0
 17 35  1  0
 27 35  1  0
 35 32  1  0
 33 35  1  0
  1 36  1  0
  1 37  1  0
  2 38  1  0
  2 39  1  0
  3 40  1  1
  4 41  1  1
  5 42  1  6
  6 43  1  6
  7 44  1  0
  7 45  1  0
  8 46  1  0
  9 47  1  0
  9 48  1  0
 10 49  1  0
 10 50  1  0
 11 51  1  0
 11 52  1  0
 12 53  1  0
 12 54  1  0
 13 55  1  0
 13 56  1  0
 14 57  1  0
 14 58  1  0
 15 59  1  0
 15 60  1  0
 16 61  1  0
 17 62  1  0
 18 63  1  0
 18 64  1  0
 19 65  1  0
 19 66  1  0
 20 67  1  0
 21 68  1  0
 21 69  1  0
 22 70  1  0
 22 71  1  0
 23 72  1  0
 23 73  1  0
 23 74  1  0
 24 75  1  0
 24 76  1  0
 24 77  1  0
 25 78  1  0
 25 79  1  0
 26 80  1  0
 28 81  1  0
 28 82  1  0
 30 83  1  0
 31 84  1  0
 32 85  1  0
 33 86  1  0
M  END
>  <PDBID>  (1) 
1HPV

>  <PDB ID>  (1) 
1HPV

>  <Generic Name>  (1) 
Amprenavir

>  <Brand Name>  (1) 
Agenerase#Agemerase#Prozei

>  <DrugBank ID>  (1) 
DB00701

>  <ATC Codes>  (1) 
J05AE05

>  <Ligand ID>  (1) 
478

>  <Target Name>  (1) 
Pol polyprotein

>  <UniProt ID>  (1) 
Q72874

>  <PDB ID.1>  (1) 
1HPV

>  <Seq. Identity>  (1) 
99%

$$$$
