PDB_DB00619_02
     RDKit          3D

 94 98  0  0  0  0  0  0  0  0999 V2000
   -8.5577   -1.8877    1.3043 C   0  0  0  0  0  0  0  0  0  0  0  0
   -8.2295   -0.4207    1.5683 C   0  0  0  0  0  0  0  0  0  0  0  0
   -8.1688    0.3607    0.2740 C   0  0  0  0  0  0  0  0  0  0  0  0
   -9.4509    0.0881   -0.4707 C   0  0  0  0  0  0  0  0  0  0  0  0
   -9.6752   -1.2996   -0.7231 N   0  0  0  0  0  0  0  0  0  0  0  0
   -9.8302   -2.0056    0.5124 C   0  0  0  0  0  0  0  0  0  0  0  0
   -6.9902   -0.1305   -0.5040 C   0  0  0  0  0  0  0  0  0  0  0  0
   -6.9142    0.6349   -1.8098 C   0  0  0  0  0  0  0  0  0  0  0  0
   -5.4766    0.8522   -2.1429 C   0  0  0  0  0  0  0  0  0  0  0  0
   -4.6797   -0.3004   -1.8053 N   0  0  0  0  0  0  0  0  0  0  0  0
   -4.7484   -0.6957   -0.4327 C   0  0  0  0  0  0  0  0  0  0  0  0
   -5.7497    0.1282    0.2255 N   0  0  0  0  0  0  0  0  0  0  0  0
   -3.5608   -0.8752    0.2752 N   0  0  0  0  0  0  0  0  0  0  0  0
   -2.6460    0.1724    0.4906 C   0  0  0  0  0  0  0  0  0  0  0  0
   -1.9803    0.7861   -0.6768 C   0  0  0  0  0  0  0  0  0  0  0  0
   -0.7045    0.1169   -1.1462 C   0  0  0  0  0  0  0  0  0  0  0  0
   -0.1380   -0.7867   -0.0880 C   0  0  0  0  0  0  0  0  0  0  0  0
   -0.2759   -0.0565    1.2243 C   0  0  1  0  0  0  0  0  0  0  0  0
   -1.7349   -0.2489    1.6274 C   0  0  0  0  0  0  0  0  0  0  0  0
    0.6498   -0.3864    2.1608 N   0  0  0  0  0  0  0  0  0  0  0  0
    1.9579    0.0060    2.2002 C   0  0  0  0  0  0  0  0  0  0  0  0
    3.0072   -0.1858    1.1945 C   0  0  0  0  0  0  0  0  0  0  0  0
    2.8265    0.5042   -0.1150 C   0  0  0  0  0  0  0  0  0  0  0  0
    4.0287    1.3874   -0.4569 C   0  0  0  0  0  0  0  0  0  0  0  0
    5.2979    0.5214   -0.4771 C   0  0  0  0  0  0  0  0  0  0  0  0
    5.4990    0.0875    0.9574 C   0  0  0  0  0  0  0  0  0  0  0  0
    4.3102    0.3455    1.8151 C   0  0  0  0  0  0  0  0  0  0  0  0
    6.4114    1.3773   -0.9865 C   0  0  0  0  0  0  0  0  0  0  0  0
    7.6625    0.7540   -1.0821 N   0  0  0  0  0  0  0  0  0  0  0  0
    7.8711   -0.2657   -2.0295 C   0  0  0  0  0  0  0  0  0  0  0  0
    8.7562   -1.3914   -1.5411 C   0  0  0  0  0  0  0  0  0  0  0  0
    9.8752   -0.8966   -0.7641 N   0  0  0  0  0  0  0  0  0  0  0  0
    9.8617   -1.3866    0.5995 C   0  0  0  0  0  0  0  0  0  0  0  0
   10.0019    0.5359   -0.8126 C   0  0  0  0  0  0  0  0  0  0  0  0
    8.7088    1.1177   -0.2186 C   0  0  0  0  0  0  0  0  0  0  0  0
    2.4941   -0.4057    3.4878 O   0  0  0  0  0  0  0  0  0  0  0  0
   -1.7648    2.2776   -0.4211 C   0  0  0  0  0  0  0  0  0  0  0  0
   -8.6700   -2.3543    2.3039 H   0  0  0  0  0  0  0  0  0  0  0  0
   -7.7043   -2.3931    0.8249 H   0  0  0  0  0  0  0  0  0  0  0  0
   -8.9233    0.0134    2.3052 H   0  0  0  0  0  0  0  0  0  0  0  0
   -7.2144   -0.4006    2.0122 H   0  0  0  0  0  0  0  0  0  0  0  0
   -8.1364    1.4258    0.5276 H   0  0  0  0  0  0  0  0  0  0  0  0
  -10.2731    0.4597    0.1900 H   0  0  0  0  0  0  0  0  0  0  0  0
   -9.5249    0.6425   -1.4196 H   0  0  0  0  0  0  0  0  0  0  0  0
   -9.0133   -1.7100   -1.3901 H   0  0  0  0  0  0  0  0  0  0  0  0
  -10.0684   -3.0755    0.3779 H   0  0  0  0  0  0  0  0  0  0  0  0
  -10.6378   -1.5096    1.0884 H   0  0  0  0  0  0  0  0  0  0  0  0
   -7.1292   -1.1962   -0.7284 H   0  0  0  0  0  0  0  0  0  0  0  0
   -7.4180    1.6174   -1.7595 H   0  0  0  0  0  0  0  0  0  0  0  0
   -7.3715    0.0490   -2.6303 H   0  0  0  0  0  0  0  0  0  0  0  0
   -5.4064    0.9822   -3.2443 H   0  0  0  0  0  0  0  0  0  0  0  0
   -5.0381    1.7647   -1.6901 H   0  0  0  0  0  0  0  0  0  0  0  0
   -4.8232   -1.0721   -2.4920 H   0  0  0  0  0  0  0  0  0  0  0  0
   -5.2528   -1.7177   -0.4624 H   0  0  0  0  0  0  0  0  0  0  0  0
   -5.5799    1.1348    0.1748 H   0  0  0  0  0  0  0  0  0  0  0  0
   -3.2299   -1.8360    0.2634 H   0  0  0  0  0  0  0  0  0  0  0  0
   -3.2540    1.0233    0.9605 H   0  0  0  0  0  0  0  0  0  0  0  0
   -2.6490    0.7485   -1.5610 H   0  0  0  0  0  0  0  0  0  0  0  0
   -0.8238   -0.4455   -2.0914 H   0  0  0  0  0  0  0  0  0  0  0  0
    0.0259    0.9163   -1.3530 H   0  0  0  0  0  0  0  0  0  0  0  0
    0.8176   -1.2180   -0.2945 H   0  0  0  0  0  0  0  0  0  0  0  0
   -0.8845   -1.6983   -0.0567 H   0  0  0  0  0  0  0  0  0  0  0  0
   -0.1526    1.0507    0.9553 H   0  0  0  0  0  0  0  0  0  0  0  0
   -1.8307   -1.3392    1.8561 H   0  0  0  0  0  0  0  0  0  0  0  0
   -1.8902    0.2939    2.5612 H   0  0  0  0  0  0  0  0  0  0  0  0
    0.3190   -1.0015    2.9662 H   0  0  0  0  0  0  0  0  0  0  0  0
    1.9788    1.1789    2.4036 H   0  0  0  0  0  0  0  0  0  0  0  0
    3.1443   -1.2773    0.9486 H   0  0  0  0  0  0  0  0  0  0  0  0
    1.9731    1.2025   -0.0694 H   0  0  0  0  0  0  0  0  0  0  0  0
    2.7392   -0.1768   -0.9909 H   0  0  0  0  0  0  0  0  0  0  0  0
    4.1560    2.2212    0.2567 H   0  0  0  0  0  0  0  0  0  0  0  0
    3.8341    1.8034   -1.4648 H   0  0  0  0  0  0  0  0  0  0  0  0
    5.0698   -0.3318   -1.1396 H   0  0  0  0  0  0  0  0  0  0  0  0
    6.3201    0.7539    1.3549 H   0  0  0  0  0  0  0  0  0  0  0  0
    5.8642   -0.9419    1.0621 H   0  0  0  0  0  0  0  0  0  0  0  0
    4.1346    1.3788    2.1056 H   0  0  0  0  0  0  0  0  0  0  0  0
    4.4390   -0.2707    2.7497 H   0  0  0  0  0  0  0  0  0  0  0  0
    6.1551    1.8202   -1.9835 H   0  0  0  0  0  0  0  0  0  0  0  0
    6.5074    2.2597   -0.3095 H   0  0  0  0  0  0  0  0  0  0  0  0
    8.3721    0.1678   -2.9297 H   0  0  0  0  0  0  0  0  0  0  0  0
    6.9172   -0.6947   -2.3620 H   0  0  0  0  0  0  0  0  0  0  0  0
    9.1762   -1.8882   -2.4393 H   0  0  0  0  0  0  0  0  0  0  0  0
    8.2123   -2.1466   -0.9644 H   0  0  0  0  0  0  0  0  0  0  0  0
   10.6324   -2.1989    0.7400 H   0  0  0  0  0  0  0  0  0  0  0  0
   10.2203   -0.5513    1.2616 H   0  0  0  0  0  0  0  0  0  0  0  0
    8.8924   -1.7898    0.9147 H   0  0  0  0  0  0  0  0  0  0  0  0
   10.8797    0.8181   -0.2040 H   0  0  0  0  0  0  0  0  0  0  0  0
   10.1087    0.8280   -1.8756 H   0  0  0  0  0  0  0  0  0  0  0  0
    8.8841    2.2327   -0.2335 H   0  0  0  0  0  0  0  0  0  0  0  0
    8.6518    0.7625    0.8263 H   0  0  0  0  0  0  0  0  0  0  0  0
    1.7769   -0.8100    4.0245 H   0  0  0  0  0  0  0  0  0  0  0  0
   -2.4921    2.9093   -0.9989 H   0  0  0  0  0  0  0  0  0  0  0  0
   -0.7635    2.6174   -0.7471 H   0  0  0  0  0  0  0  0  0  0  0  0
   -1.9910    2.5408    0.6560 H   0  0  0  0  0  0  0  0  0  0  0  0
  1  2  1  0
  2  3  1  0
  3  4  1  0
  4  5  1  0
  1  6  1  0
  5  6  1  0
  3  7  1  0
  7  8  1  0
  8  9  1  0
  9 10  1  0
 10 11  1  0
  7 12  1  0
 11 12  1  0
 11 13  1  0
 13 14  1  0
 14 15  1  0
 15 16  1  0
 16 17  1  0
 17 18  1  0
 14 19  1  0
 18 19  1  0
 18 20  1  0
 20 21  1  0
 21 22  1  0
 22 23  1  0
 23 24  1  0
 24 25  1  0
 25 26  1  0
 22 27  1  0
 26 27  1  0
 25 28  1  0
 28 29  1  0
 29 30  1  0
 30 31  1  0
 31 32  1  0
 32 33  1  0
 32 34  1  0
 29 35  1  0
 34 35  1  0
 21 36  1  0
 15 37  1  0
  1 38  1  0
  1 39  1  0
  2 40  1  0
  2 41  1  0
  3 42  1  0
  4 43  1  0
  4 44  1  0
  5 45  1  0
  6 46  1  0
  6 47  1  0
  7 48  1  0
  8 49  1  0
  8 50  1  0
  9 51  1  0
  9 52  1  0
 10 53  1  0
 11 54  1  0
 12 55  1  0
 13 56  1  0
 14 57  1  0
 15 58  1  0
 16 59  1  0
 16 60  1  0
 17 61  1  0
 17 62  1  0
 18 63  1  6
 19 64  1  0
 19 65  1  0
 20 66  1  0
 21 67  1  0
 22 68  1  0
 23 69  1  0
 23 70  1  0
 24 71  1  0
 24 72  1  0
 25 73  1  0
 26 74  1  0
 26 75  1  0
 27 76  1  0
 27 77  1  0
 28 78  1  0
 28 79  1  0
 30 80  1  0
 30 81  1  0
 31 82  1  0
 31 83  1  0
 33 84  1  0
 33 85  1  0
 33 86  1  0
 34 87  1  0
 34 88  1  0
 35 89  1  0
 35 90  1  0
 36 91  1  0
 37 92  1  0
 37 93  1  0
 37 94  1  0
M  END
>  <PDBID>  (1) 
1T46

>  <PDB ID>  (1) 
1T46

>  <Generic Name>  (1) 
Imatinib

>  <Brand Name>  (1) 
Apo-imatinib#Gleevec#Imatinib Mesylate#Mylan-imatinib#Nat-imatinib#PMS-imatinib#Ran-imatinib#Teva-imatinib#Celonib#Enliven#Glivec#Imatib#Mesylonib#Mitinab#Plivatinib#Shantinib

>  <DrugBank ID>  (1) 
DB00619

>  <ATC Codes>  (1) 
L01XE01

>  <Ligand ID>  (1) 
STI

>  <Target Name>  (1) 
Mast/stem cell growth factor receptor Kit

>  <UniProt ID>  (1) 
P10721

>  <PDB ID.1>  (1) 
1T46

>  <Seq. Identity>  (1) 
90%

$$$$
