PDB_DB00176_01
     RDKit          3D

 51 51  0  0  0  0  0  0  0  0999 V2000
    4.6033   -2.8567    0.0739 C   0  0  0  0  0  0  0  0  0  0  0  0
    4.4462   -1.5476   -0.3500 O   0  0  0  0  0  0  0  0  0  0  0  0
    3.4157   -0.9870    0.4224 C   0  0  0  0  0  0  0  0  0  0  0  0
    3.2031    0.4390    0.0015 C   0  0  0  0  0  0  0  0  0  0  0  0
    2.1182    1.1232    0.7838 C   0  0  0  0  0  0  0  0  0  0  0  0
    0.7930    0.4423    0.6387 C   0  0  0  0  0  0  0  0  0  0  0  0
    0.3097    0.3889   -0.7780 C   0  0  0  0  0  0  0  0  0  0  0  0
    0.1465    1.7082   -1.3611 N   0  0  0  0  0  0  0  0  0  0  0  0
   -0.7276    2.4701   -0.7088 O   0  0  0  0  0  0  0  0  0  0  0  0
   -0.3981    3.8075   -0.9191 C   0  0  0  0  0  0  0  0  0  0  0  0
   -1.3571    4.7368   -0.2015 C   0  0  0  0  0  0  0  0  0  0  0  0
   -1.3390    4.4995    1.2420 N   0  0  0  0  0  0  0  0  0  0  0  0
   -0.9442   -0.4368   -0.8960 C   0  0  0  0  0  0  0  0  0  0  0  0
   -2.1013    0.0537   -0.1021 C   0  0  0  0  0  0  0  0  0  0  0  0
   -2.7758   -1.0761    0.6454 C   0  0  0  0  0  0  0  0  0  0  0  0
   -2.9835   -2.2885   -0.1967 C   0  0  0  0  0  0  0  0  0  0  0  0
   -1.7624   -2.7615   -0.9225 C   0  0  0  0  0  0  0  0  0  0  0  0
   -0.6060   -1.8600   -0.4770 C   0  0  0  0  0  0  0  0  0  0  0  0
   -3.4683   -3.4061    0.7322 C   0  0  0  0  0  0  0  0  0  0  0  0
   -3.6893   -4.5758    0.0421 F   0  0  0  0  0  0  0  0  0  0  0  0
   -2.5524   -3.6581    1.7209 F   0  0  0  0  0  0  0  0  0  0  0  0
   -4.6707   -3.0066    1.3036 F   0  0  0  0  0  0  0  0  0  0  0  0
    4.8747   -2.9149    1.1615 H   0  0  0  0  0  0  0  0  0  0  0  0
    5.4076   -3.3902   -0.4686 H   0  0  0  0  0  0  0  0  0  0  0  0
    3.6747   -3.4492   -0.0360 H   0  0  0  0  0  0  0  0  0  0  0  0
    3.7310   -1.0436    1.4687 H   0  0  0  0  0  0  0  0  0  0  0  0
    2.5075   -1.5803    0.1857 H   0  0  0  0  0  0  0  0  0  0  0  0
    2.9811    0.4589   -1.0987 H   0  0  0  0  0  0  0  0  0  0  0  0
    4.1524    1.0299    0.1362 H   0  0  0  0  0  0  0  0  0  0  0  0
    2.4214    1.0401    1.8659 H   0  0  0  0  0  0  0  0  0  0  0  0
    1.9874    2.1800    0.4928 H   0  0  0  0  0  0  0  0  0  0  0  0
    0.9223   -0.6183    0.9778 H   0  0  0  0  0  0  0  0  0  0  0  0
    0.0259    0.8520    1.3369 H   0  0  0  0  0  0  0  0  0  0  0  0
    1.0741   -0.1368   -1.3858 H   0  0  0  0  0  0  0  0  0  0  0  0
    1.0350    2.1640   -1.5865 H   0  0  0  0  0  0  0  0  0  0  0  0
   -0.4348    4.0946   -1.9923 H   0  0  0  0  0  0  0  0  0  0  0  0
    0.6155    4.0411   -0.5651 H   0  0  0  0  0  0  0  0  0  0  0  0
   -2.3777    4.6937   -0.5911 H   0  0  0  0  0  0  0  0  0  0  0  0
   -0.9840    5.7726   -0.3392 H   0  0  0  0  0  0  0  0  0  0  0  0
   -0.4915    3.9879    1.5449 H   0  0  0  0  0  0  0  0  0  0  0  0
   -1.3720    5.3919    1.7828 H   0  0  0  0  0  0  0  0  0  0  0  0
   -1.2241   -0.4293   -1.9765 H   0  0  0  0  0  0  0  0  0  0  0  0
   -2.8734    0.5234   -0.7814 H   0  0  0  0  0  0  0  0  0  0  0  0
   -1.8747    0.8483    0.6352 H   0  0  0  0  0  0  0  0  0  0  0  0
   -3.7878   -0.6907    0.9334 H   0  0  0  0  0  0  0  0  0  0  0  0
   -2.2761   -1.3276    1.5967 H   0  0  0  0  0  0  0  0  0  0  0  0
   -3.7688   -2.0937   -0.9458 H   0  0  0  0  0  0  0  0  0  0  0  0
   -1.4820   -3.8128   -0.6674 H   0  0  0  0  0  0  0  0  0  0  0  0
   -1.8666   -2.7374   -2.0305 H   0  0  0  0  0  0  0  0  0  0  0  0
   -0.5910   -1.9289    0.6209 H   0  0  0  0  0  0  0  0  0  0  0  0
    0.3338   -2.1335   -0.9684 H   0  0  0  0  0  0  0  0  0  0  0  0
  1  2  1  0
  2  3  1  0
  3  4  1  0
  4  5  1  0
  5  6  1  0
  6  7  1  0
  7  8  1  0
  8  9  1  0
  9 10  1  0
 10 11  1  0
 11 12  1  0
  7 13  1  0
 13 14  1  0
 14 15  1  0
 15 16  1  0
 16 17  1  0
 13 18  1  0
 17 18  1  0
 16 19  1  0
 19 20  1  0
 19 21  1  0
 19 22  1  0
  1 23  1  0
  1 24  1  0
  1 25  1  0
  3 26  1  0
  3 27  1  0
  4 28  1  0
  4 29  1  0
  5 30  1  0
  5 31  1  0
  6 32  1  0
  6 33  1  0
  7 34  1  0
  8 35  1  0
 10 36  1  0
 10 37  1  0
 11 38  1  0
 11 39  1  0
 12 40  1  0
 12 41  1  0
 13 42  1  0
 14 43  1  0
 14 44  1  0
 15 45  1  0
 15 46  1  0
 16 47  1  0
 17 48  1  0
 17 49  1  0
 18 50  1  0
 18 51  1  0
M  END
>  <PDBID>  (1) 
6AWP

>  <PDB ID>  (1) 
6AWP

>  <Generic Name>  (1) 
Fluvoxamine

>  <Brand Name>  (1) 
Act Fluvoxamine#Apo-fluvoxamine Tablets#Ava-fluvoxamine#Bci Fluvoxamine Tablets#Dom-fluvoxamine#Fluvoxamine Maleate#Fluvoxamine Maleate Extended-release#Fluvoxamine Tablets#Fluvoxamine-100#Fluvoxamine-50#Gen-fluvoxamine 100mg#Gen-fluvoxamine 50mg#Luvox#Luvox CR#Novo-fluvoxamine#Nu-fluvoxamine 100 Mg Tab#Nu-fluvoxamine 50 Mg Tab#PHL-fluvoxamine#PMS-fluvoxamine#Ratio-fluvoxamine#Riva-fluvox#Riva-fluvox 100mg Tablets#Riva-fluvox 50mg Tablets#Sandoz Fluvoxamine#Dumirox#Faverin#Fevarin#Floxyfral#Maveral

>  <DrugBank ID>  (1) 
DB00176

>  <ATC Codes>  (1) 
N06AB08

>  <Ligand ID>  (1) 
FVX

>  <Target Name>  (1) 
Sodium-dependent serotonin transporter

>  <UniProt ID>  (1) 
P31645

>  <PDB ID.1>  (1) 
6AWP

>  <Seq. Identity>  (1) 
99%

$$$$
