PDB_DB00136_03
     RDKit          3D

 80 82  0  0  0  0  0  0  0  0999 V2000
    7.1593    0.8896    2.2222 O   0  0  0  0  0  0  0  0  0  0  0  0
   -8.3985    1.2124    2.0229 O   0  0  0  0  0  0  0  0  0  0  0  0
    6.9685    0.2827   -0.9079 C   0  0  1  0  0  0  0  0  0  0  0  0
    7.6069    1.3338   -0.0321 C   0  0  0  0  0  0  0  0  0  0  0  0
    6.7309    1.6452    1.1374 C   0  0  1  0  0  0  0  0  0  0  0  0
    5.2695    1.2943    0.8682 C   0  0  0  0  0  0  0  0  0  0  0  0
    5.0750   -0.1679    0.6552 C   0  0  1  0  0  0  0  0  0  0  0  0
    3.8957   -0.5000   -0.2228 C   0  0  0  0  0  0  0  0  0  0  0  0
    2.5959   -0.0126    0.3154 C   0  0  0  0  0  0  0  0  0  0  0  0
    1.4909   -0.3952   -0.6345 C   0  0  0  0  0  0  0  0  0  0  0  0
    1.6447    0.1889   -2.0192 C   0  0  0  0  0  0  0  0  0  0  0  0
    6.3126   -0.7270   -0.0153 C   0  0  1  0  0  0  0  0  0  0  0  0
    0.4554    1.0017   -2.4352 C   0  0  0  0  0  0  0  0  0  0  0  0
   -0.8776    0.4035   -2.2126 C   0  0  0  0  0  0  0  0  0  0  0  0
   -0.9844   -0.4716   -0.9567 C   0  0  1  0  0  0  0  0  0  0  0  0
    0.1800    0.0399   -0.0920 C   0  0  1  0  0  0  0  0  0  0  0  0
   -0.1948   -0.4500    1.2552 C   0  0  0  0  0  0  0  0  0  0  0  0
   -1.6800   -0.1054    1.2991 C   0  0  0  0  0  0  0  0  0  0  0  0
   -2.1605   -0.1442   -0.1456 C   0  0  2  0  0  0  0  0  0  0  0  0
   -0.7637   -1.8693   -1.4030 C   0  0  0  0  0  0  0  0  0  0  0  0
    5.9610   -1.9546   -0.8093 C   0  0  0  0  0  0  0  0  0  0  0  0
   -3.3963   -0.9708   -0.2772 C   0  0  1  0  0  0  0  0  0  0  0  0
   -3.3030   -2.3928    0.0942 C   0  0  0  0  0  0  0  0  0  0  0  0
   -4.4944   -0.2859    0.5599 C   0  0  0  0  0  0  0  0  0  0  0  0
   -5.7881   -0.9781    0.5009 C   0  0  0  0  0  0  0  0  0  0  0  0
   -6.8650   -0.3702    1.3291 C   0  0  0  0  0  0  0  0  0  0  0  0
   -7.3143    1.0087    1.0800 C   0  0  0  0  0  0  0  0  0  0  0  0
   -7.8963    1.2740   -0.2661 C   0  0  0  0  0  0  0  0  0  0  0  0
   -6.2608    2.0174    1.5034 C   0  0  0  0  0  0  0  0  0  0  0  0
    6.0600    0.9387   -1.7367 O   0  0  0  0  0  0  0  0  0  0  0  0
    6.4325    0.6898    2.8677 H   0  0  0  0  0  0  0  0  0  0  0  0
   -8.5981    2.1875    2.0469 H   0  0  0  0  0  0  0  0  0  0  0  0
    7.6801   -0.2382   -1.5561 H   0  0  0  0  0  0  0  0  0  0  0  0
    7.7526    2.2417   -0.6721 H   0  0  0  0  0  0  0  0  0  0  0  0
    8.6180    0.9514    0.2709 H   0  0  0  0  0  0  0  0  0  0  0  0
    6.7754    2.7352    1.3473 H   0  0  0  0  0  0  0  0  0  0  0  0
    4.8419    1.9028    0.0693 H   0  0  0  0  0  0  0  0  0  0  0  0
    4.7244    1.5708    1.8090 H   0  0  0  0  0  0  0  0  0  0  0  0
    4.9512   -0.7285    1.6055 H   0  0  0  0  0  0  0  0  0  0  0  0
    3.8378   -1.6289   -0.2338 H   0  0  0  0  0  0  0  0  0  0  0  0
    4.0169   -0.1989   -1.2577 H   0  0  0  0  0  0  0  0  0  0  0  0
    2.5907    1.0689    0.5586 H   0  0  0  0  0  0  0  0  0  0  0  0
    2.3622   -0.5483    1.2751 H   0  0  0  0  0  0  0  0  0  0  0  0
    1.5145   -1.5239   -0.6828 H   0  0  0  0  0  0  0  0  0  0  0  0
    2.4981    0.9220   -1.9616 H   0  0  0  0  0  0  0  0  0  0  0  0
    1.9502   -0.5863   -2.7348 H   0  0  0  0  0  0  0  0  0  0  0  0
    7.0716   -1.0391    0.7396 H   0  0  0  0  0  0  0  0  0  0  0  0
    0.5512    2.0435   -2.0200 H   0  0  0  0  0  0  0  0  0  0  0  0
    0.5665    1.1611   -3.5496 H   0  0  0  0  0  0  0  0  0  0  0  0
   -1.2688   -0.1986   -3.0563 H   0  0  0  0  0  0  0  0  0  0  0  0
   -1.6143    1.2558   -2.1149 H   0  0  0  0  0  0  0  0  0  0  0  0
    0.1220    1.1425   -0.1280 H   0  0  0  0  0  0  0  0  0  0  0  0
    0.3635    0.1256    2.0205 H   0  0  0  0  0  0  0  0  0  0  0  0
   -0.0204   -1.5291    1.3159 H   0  0  0  0  0  0  0  0  0  0  0  0
   -2.1653   -0.8490    1.9296 H   0  0  0  0  0  0  0  0  0  0  0  0
   -1.7948    0.8839    1.7353 H   0  0  0  0  0  0  0  0  0  0  0  0
   -2.4291    0.9350   -0.3900 H   0  0  0  0  0  0  0  0  0  0  0  0
   -0.2510   -2.5375   -0.6934 H   0  0  0  0  0  0  0  0  0  0  0  0
   -0.0284   -1.8508   -2.2895 H   0  0  0  0  0  0  0  0  0  0  0  0
   -1.6252   -2.3902   -1.8213 H   0  0  0  0  0  0  0  0  0  0  0  0
    6.9215   -2.3690   -1.2065 H   0  0  0  0  0  0  0  0  0  0  0  0
    5.3208   -1.7482   -1.6756 H   0  0  0  0  0  0  0  0  0  0  0  0
    5.5482   -2.7577   -0.1567 H   0  0  0  0  0  0  0  0  0  0  0  0
   -3.8022   -0.8825   -1.3312 H   0  0  0  0  0  0  0  0  0  0  0  0
   -3.6289   -3.0321   -0.7480 H   0  0  0  0  0  0  0  0  0  0  0  0
   -2.2820   -2.7627    0.3806 H   0  0  0  0  0  0  0  0  0  0  0  0
   -3.9041   -2.6080    1.0200 H   0  0  0  0  0  0  0  0  0  0  0  0
   -4.1165   -0.2466    1.5946 H   0  0  0  0  0  0  0  0  0  0  0  0
   -4.6313    0.7434    0.1641 H   0  0  0  0  0  0  0  0  0  0  0  0
   -5.7534   -2.0654    0.8457 H   0  0  0  0  0  0  0  0  0  0  0  0
   -6.1123   -1.0165   -0.5866 H   0  0  0  0  0  0  0  0  0  0  0  0
   -6.5483   -0.4527    2.4133 H   0  0  0  0  0  0  0  0  0  0  0  0
   -7.7947   -1.0462    1.3248 H   0  0  0  0  0  0  0  0  0  0  0  0
   -7.1159    1.1912   -1.0389 H   0  0  0  0  0  0  0  0  0  0  0  0
   -8.7628    0.6264   -0.4093 H   0  0  0  0  0  0  0  0  0  0  0  0
   -8.2126    2.3573   -0.2777 H   0  0  0  0  0  0  0  0  0  0  0  0
   -6.7628    2.7833    2.1703 H   0  0  0  0  0  0  0  0  0  0  0  0
   -5.9083    2.5624    0.6111 H   0  0  0  0  0  0  0  0  0  0  0  0
   -5.4671    1.6047    2.1366 H   0  0  0  0  0  0  0  0  0  0  0  0
    6.5585    1.4137   -2.4360 H   0  0  0  0  0  0  0  0  0  0  0  0
  3  4  1  0
  1  5  1  0
  4  5  1  0
  5  6  1  0
  6  7  1  0
  7  8  1  0
  8  9  1  0
  9 10  1  0
 10 11  1  0
  3 12  1  0
  7 12  1  0
 11 13  1  0
 13 14  1  0
 14 15  1  0
 10 16  1  0
 15 16  1  0
 16 17  1  0
 17 18  1  0
 15 19  1  0
 18 19  1  0
 15 20  1  6
 12 21  1  0
 19 22  1  0
 22 23  1  0
 22 24  1  0
 24 25  1  0
 25 26  1  0
 27  2  1  0
 26 27  1  0
 27 28  1  0
 27 29  1  0
  3 30  1  0
  1 31  1  0
  2 32  1  0
  3 33  1  6
  4 34  1  0
  4 35  1  0
  5 36  1  1
  6 37  1  0
  6 38  1  0
  7 39  1  1
  8 40  1  0
  8 41  1  0
  9 42  1  0
  9 43  1  0
 10 44  1  0
 11 45  1  0
 11 46  1  0
 12 47  1  1
 13 48  1  0
 13 49  1  0
 14 50  1  0
 14 51  1  0
 16 52  1  1
 17 53  1  0
 17 54  1  0
 18 55  1  0
 18 56  1  0
 19 57  1  6
 20 58  1  0
 20 59  1  0
 20 60  1  0
 21 61  1  0
 21 62  1  0
 21 63  1  0
 22 64  1  6
 23 65  1  0
 23 66  1  0
 23 67  1  0
 24 68  1  0
 24 69  1  0
 25 70  1  0
 25 71  1  0
 26 72  1  0
 26 73  1  0
 28 74  1  0
 28 75  1  0
 28 76  1  0
 29 77  1  0
 29 78  1  0
 29 79  1  0
 30 80  1  0
M  END
>  <PDBID>  (1) 
1IE9

>  <PDB ID>  (1) 
1IE9

>  <Generic Name>  (1) 
Calcitriol

>  <Brand Name>  (1) 
Calcijex#Calcitriol#Calcitriol Injection#Calcitriol Injection USP#Calcitriol-odan#Rocaltrol#Rocaltrol Cap 0.25mcg#Rocaltrol Cap 0.5mcg#Rocaltrol Oral Solution 1mcg/ml#Silkis#Vectical#Calcitriol Oral Solution#Decostriol

>  <DrugBank ID>  (1) 
DB00136

>  <ATC Codes>  (1) 
A11CC04#D05AX03

>  <Ligand ID>  (1) 
VDX

>  <Target Name>  (1) 
Vitamin D3 receptor

>  <UniProt ID>  (1) 
P11473

>  <PDB ID.1>  (1) 
1IE9

>  <Seq. Identity>  (1) 
84%

$$$$
