PDB_DB01004_03
     RDKit          3D

 78 80  0  0  0  0  0  0  0  0999 V2000
    3.9258    0.4388   -0.6772 N   0  0  0  0  0  0  0  0  0  0  0  0
    3.3701   -0.8874   -0.5471 C   0  0  0  0  0  0  0  0  0  0  0  0
    1.2643   -0.1225    0.0210 C   0  0  0  0  0  0  0  0  0  0  0  0
   -0.4051    1.2106    0.5812 C   0  0  0  0  0  0  0  0  0  0  0  0
   -3.7248    0.6640   -0.8022 C   0  0  0  0  0  0  0  0  0  0  0  0
   -4.6276    1.4331   -0.0751 O   0  0  0  0  0  0  0  0  0  0  0  0
   -4.1013   -1.2935    0.6555 C   0  0  0  0  0  0  0  0  0  0  0  0
   -4.6398   -1.8887   -0.5030 O   0  0  0  0  0  0  0  0  0  0  0  0
   -3.0070   -0.3282    0.1250 C   0  0  0  0  0  0  0  0  0  0  0  0
   -2.1142   -1.0960   -0.5448 O   0  0  0  0  0  0  0  0  0  0  0  0
   -0.8222   -1.0915   -0.1513 C   0  0  0  0  0  0  0  0  0  0  0  0
   -0.1375    0.1324   -0.3323 N   0  0  0  0  0  0  0  0  0  0  0  0
    1.9574   -0.9444   -0.9072 N   0  0  0  0  0  0  0  0  0  0  0  0
    4.1499   -1.8359   -1.2651 N   0  0  0  0  0  0  0  0  0  0  0  0
    3.2071    1.3898    0.1882 C   0  0  0  0  0  0  0  0  0  0  0  0
    3.4772    1.1474    1.5162 O   0  0  0  0  0  0  0  0  0  0  0  0
    1.7807    1.3096   -0.1813 C   0  0  0  0  0  0  0  0  0  0  0  0
    0.8466    2.0183    0.6109 N   0  0  0  0  0  0  0  0  0  0  0  0
    3.9258    0.4388   -0.6772 N   0  0  0  0  0  0  0  0  0  0  0  0
    3.3701   -0.8874   -0.5471 C   0  0  0  0  0  0  0  0  0  0  0  0
    1.2643   -0.1225    0.0210 C   0  0  0  0  0  0  0  0  0  0  0  0
   -0.4051    1.2106    0.5812 C   0  0  0  0  0  0  0  0  0  0  0  0
   -3.7248    0.6640   -0.8022 C   0  0  0  0  0  0  0  0  0  0  0  0
   -4.6276    1.4331   -0.0751 O   0  0  0  0  0  0  0  0  0  0  0  0
   -4.1013   -1.2935    0.6555 C   0  0  0  0  0  0  0  0  0  0  0  0
   -4.6398   -1.8887   -0.5030 O   0  0  0  0  0  0  0  0  0  0  0  0
   -3.0070   -0.3282    0.1250 C   0  0  0  0  0  0  0  0  0  0  0  0
   -2.1142   -1.0960   -0.5448 O   0  0  0  0  0  0  0  0  0  0  0  0
   -0.8222   -1.0915   -0.1513 C   0  0  0  0  0  0  0  0  0  0  0  0
   -0.1375    0.1324   -0.3323 N   0  0  0  0  0  0  0  0  0  0  0  0
    1.9574   -0.9444   -0.9072 N   0  0  0  0  0  0  0  0  0  0  0  0
    4.1499   -1.8359   -1.2651 N   0  0  0  0  0  0  0  0  0  0  0  0
    3.2071    1.3898    0.1882 C   0  0  0  0  0  0  0  0  0  0  0  0
    3.4772    1.1474    1.5162 O   0  0  0  0  0  0  0  0  0  0  0  0
    1.7807    1.3096   -0.1813 C   0  0  0  0  0  0  0  0  0  0  0  0
    0.8466    2.0183    0.6109 N   0  0  0  0  0  0  0  0  0  0  0  0
    4.9018    0.4018   -0.3729 H   0  0  0  0  0  0  0  0  0  0  0  0
    3.3961   -1.1240    0.5566 H   0  0  0  0  0  0  0  0  0  0  0  0
    1.3075   -0.4436    1.0582 H   0  0  0  0  0  0  0  0  0  0  0  0
   -0.4916    0.7696    1.6041 H   0  0  0  0  0  0  0  0  0  0  0  0
   -1.2338    1.8721    0.2917 H   0  0  0  0  0  0  0  0  0  0  0  0
   -4.3240    0.1002   -1.5729 H   0  0  0  0  0  0  0  0  0  0  0  0
   -2.9547    1.2972   -1.2607 H   0  0  0  0  0  0  0  0  0  0  0  0
   -4.0748    1.9709    0.5631 H   0  0  0  0  0  0  0  0  0  0  0  0
   -4.8489   -0.6537    1.1509 H   0  0  0  0  0  0  0  0  0  0  0  0
   -3.6437   -2.0310    1.3190 H   0  0  0  0  0  0  0  0  0  0  0  0
   -4.4660   -2.8546   -0.5138 H   0  0  0  0  0  0  0  0  0  0  0  0
   -2.6466    0.2312    0.9960 H   0  0  0  0  0  0  0  0  0  0  0  0
   -0.6796   -1.5153    0.8888 H   0  0  0  0  0  0  0  0  0  0  0  0
   -0.2788   -1.8403   -0.8273 H   0  0  0  0  0  0  0  0  0  0  0  0
    1.7911   -0.5725   -1.8670 H   0  0  0  0  0  0  0  0  0  0  0  0
    3.9680   -2.7920   -0.8381 H   0  0  0  0  0  0  0  0  0  0  0  0
    5.1478   -1.6035   -1.2710 H   0  0  0  0  0  0  0  0  0  0  0  0
    3.5896    2.4048   -0.1087 H   0  0  0  0  0  0  0  0  0  0  0  0
    2.8536    1.6593    2.0678 H   0  0  0  0  0  0  0  0  0  0  0  0
    1.6609    1.5476   -1.2461 H   0  0  0  0  0  0  0  0  0  0  0  0
    0.6265    2.9198    0.1344 H   0  0  0  0  0  0  0  0  0  0  0  0
    4.9018    0.4018   -0.3729 H   0  0  0  0  0  0  0  0  0  0  0  0
    3.3961   -1.1240    0.5566 H   0  0  0  0  0  0  0  0  0  0  0  0
    1.3075   -0.4436    1.0582 H   0  0  0  0  0  0  0  0  0  0  0  0
   -0.4916    0.7696    1.6041 H   0  0  0  0  0  0  0  0  0  0  0  0
   -1.2338    1.8721    0.2917 H   0  0  0  0  0  0  0  0  0  0  0  0
   -4.3240    0.1002   -1.5729 H   0  0  0  0  0  0  0  0  0  0  0  0
   -2.9547    1.2972   -1.2607 H   0  0  0  0  0  0  0  0  0  0  0  0
   -4.0748    1.9709    0.5631 H   0  0  0  0  0  0  0  0  0  0  0  0
   -4.8489   -0.6537    1.1509 H   0  0  0  0  0  0  0  0  0  0  0  0
   -3.6437   -2.0310    1.3190 H   0  0  0  0  0  0  0  0  0  0  0  0
   -4.4660   -2.8546   -0.5138 H   0  0  0  0  0  0  0  0  0  0  0  0
   -2.6466    0.2312    0.9960 H   0  0  0  0  0  0  0  0  0  0  0  0
   -0.6796   -1.5153    0.8888 H   0  0  0  0  0  0  0  0  0  0  0  0
   -0.2788   -1.8403   -0.8273 H   0  0  0  0  0  0  0  0  0  0  0  0
    1.7911   -0.5725   -1.8670 H   0  0  0  0  0  0  0  0  0  0  0  0
    3.9680   -2.7920   -0.8381 H   0  0  0  0  0  0  0  0  0  0  0  0
    5.1478   -1.6035   -1.2710 H   0  0  0  0  0  0  0  0  0  0  0  0
    3.5896    2.4048   -0.1087 H   0  0  0  0  0  0  0  0  0  0  0  0
    2.8536    1.6593    2.0678 H   0  0  0  0  0  0  0  0  0  0  0  0
    1.6609    1.5476   -1.2461 H   0  0  0  0  0  0  0  0  0  0  0  0
    0.6265    2.9198    0.1344 H   0  0  0  0  0  0  0  0  0  0  0  0
  1  2  1  0
  5  6  1  0
  7  8  1  0
  5  9  1  0
  7  9  1  0
  9 10  1  0
 10 11  1  0
  3 12  1  0
  4 12  1  0
 11 12  1  0
  2 13  1  0
  3 13  1  0
  2 14  1  0
  1 15  1  0
 15 16  1  0
  3 17  1  0
 15 17  1  0
  4 18  1  0
 17 18  1  0
 19 20  1  0
 23 24  1  0
 25 26  1  0
 23 27  1  0
 25 27  1  0
 27 28  1  0
 28 29  1  0
 21 30  1  0
 22 30  1  0
 29 30  1  0
 20 31  1  0
 21 31  1  0
 20 32  1  0
 19 33  1  0
 33 34  1  0
 21 35  1  0
 33 35  1  0
 22 36  1  0
 35 36  1  0
  1 37  1  0
  2 38  1  0
  3 39  1  0
  4 40  1  0
  4 41  1  0
  5 42  1  0
  5 43  1  0
  6 44  1  0
  7 45  1  0
  7 46  1  0
  8 47  1  0
  9 48  1  0
 11 49  1  0
 11 50  1  0
 13 51  1  0
 14 52  1  0
 14 53  1  0
 15 54  1  0
 16 55  1  0
 17 56  1  0
 18 57  1  0
 19 58  1  0
 20 59  1  0
 21 60  1  0
 22 61  1  0
 22 62  1  0
 23 63  1  0
 23 64  1  0
 24 65  1  0
 25 66  1  0
 25 67  1  0
 26 68  1  0
 27 69  1  0
 29 70  1  0
 29 71  1  0
 31 72  1  0
 32 73  1  0
 32 74  1  0
 33 75  1  0
 34 76  1  0
 35 77  1  0
 36 78  1  0
M  END
>  <PDBID>  (1) 
1KI2

>  <PDB ID>  (1) 
1KI2

>  <Generic Name>  (1) 
Ganciclovir

>  <Brand Name>  (1) 
Cytovene - Cap 250mg#Cytovene - Pws 500mg/10m/-vial IV#Cytovene IV#Cytovene Inj 500mg/vial#Cytovene, 500 mg#Ganciclovir#Ganciclovir for Injection#Vitrasert, Intravitreal Implant#Zirgan#Cytovene#Vitrasert

>  <DrugBank ID>  (1) 
DB01004

>  <ATC Codes>  (1) 
J05AB06#S01AD09

>  <Ligand ID>  (1) 
GA2

>  <Target Name>  (1) 
Thymidine kinase

>  <UniProt ID>  (1) 
P03176

>  <PDB ID.1>  (1) 
1KI2

>  <Seq. Identity>  (1) 
100%

$$$$
