PDB_DB08865_06
     RDKit          3D

 68 71  0  0  0  0  0  0  0  0999 V2000
   -6.5463   -0.1734   -2.0626 Cl  0  0  0  0  0  0  0  0  0  0  0  0
   -6.1228   -0.0842   -0.3135 C   0  0  0  0  0  0  0  0  0  0  0  0
   -7.2744    0.6471    0.3222 C   0  0  0  0  0  0  0  0  0  0  0  0
   -7.0387    1.0752    1.7313 C   0  0  0  0  0  0  0  0  0  0  0  0
   -5.8671    2.0481    1.6840 C   0  0  0  0  0  0  0  0  0  0  0  0
   -5.6293    2.4541    2.9840 F   0  0  0  0  0  0  0  0  0  0  0  0
   -4.8066    0.6316   -0.1056 C   0  0  0  0  0  0  0  0  0  0  0  0
   -4.6660    1.2326    1.2451 C   0  0  0  0  0  0  0  0  0  0  0  0
   -4.4902   -0.0753    2.4287 Cl  0  0  0  0  0  0  0  0  0  0  0  0
   -3.6291   -0.2604   -0.3846 C   0  0  1  0  0  0  0  0  0  0  0  0
   -3.7632   -0.7061   -1.8650 C   0  0  0  0  0  0  0  0  0  0  0  0
   -2.4581    0.4283   -0.3419 O   0  0  0  0  0  0  0  0  0  0  0  0
   -1.4456   -0.0658    0.4525 C   0  0  0  0  0  0  0  0  0  0  0  0
   -0.2703   -0.5568   -0.3643 C   0  0  0  0  0  0  0  0  0  0  0  0
   -0.9499    0.8151    1.5348 C   0  0  0  0  0  0  0  0  0  0  0  0
   -0.1053    1.9037    1.0953 N   0  0  0  0  0  0  0  0  0  0  0  0
   -0.1744    0.0362    2.4861 N   0  0  0  0  0  0  0  0  0  0  0  0
    0.7561   -0.8567    1.8969 C   0  0  0  0  0  0  0  0  0  0  0  0
    0.9727   -0.6498    0.4387 C   0  0  0  0  0  0  0  0  0  0  0  0
    1.9037   -1.7101   -0.1221 C   0  0  0  0  0  0  0  0  0  0  0  0
    3.1819   -1.8143    0.6880 C   0  0  0  0  0  0  0  0  0  0  0  0
    2.5400   -1.0549   -1.3725 C   0  0  0  0  0  0  0  0  0  0  0  0
    3.5712   -0.2087   -0.8370 N   0  0  0  0  0  0  0  0  0  0  0  0
    3.7355   -0.5052    0.4760 N   0  0  0  0  0  0  0  0  0  0  0  0
    4.7158   -0.0270   -1.6482 C   0  0  0  0  0  0  0  0  0  0  0  0
    5.4749   -1.2996   -1.8923 C   0  0  0  0  0  0  0  0  0  0  0  0
    6.7882   -1.0485   -2.6057 C   0  0  0  0  0  0  0  0  0  0  0  0
    6.9043    0.3349   -3.0405 N   0  0  0  0  0  0  0  0  0  0  0  0
    6.9062    1.1605   -1.8546 C   0  0  0  0  0  0  0  0  0  0  0  0
    5.5992    1.0668   -1.0886 C   0  0  0  0  0  0  0  0  0  0  0  0
   -6.1178   -1.1084    0.1405 H   0  0  0  0  0  0  0  0  0  0  0  0
   -8.1612   -0.0171    0.2708 H   0  0  0  0  0  0  0  0  0  0  0  0
   -7.4422    1.5761   -0.2900 H   0  0  0  0  0  0  0  0  0  0  0  0
   -6.7460    0.2013    2.3215 H   0  0  0  0  0  0  0  0  0  0  0  0
   -7.9619    1.5745    2.0855 H   0  0  0  0  0  0  0  0  0  0  0  0
   -6.0620    2.9028    1.0226 H   0  0  0  0  0  0  0  0  0  0  0  0
   -4.7727    1.4480   -0.8850 H   0  0  0  0  0  0  0  0  0  0  0  0
   -3.8331    1.9461    1.2231 H   0  0  0  0  0  0  0  0  0  0  0  0
   -3.7001   -1.1519    0.2645 H   0  0  0  0  0  0  0  0  0  0  0  0
   -2.7663   -0.9975   -2.2516 H   0  0  0  0  0  0  0  0  0  0  0  0
   -4.4210   -1.5624   -1.9720 H   0  0  0  0  0  0  0  0  0  0  0  0
   -4.0535    0.2104   -2.4131 H   0  0  0  0  0  0  0  0  0  0  0  0
   -1.8706   -0.9908    0.9398 H   0  0  0  0  0  0  0  0  0  0  0  0
   -0.1487    0.0456   -1.3016 H   0  0  0  0  0  0  0  0  0  0  0  0
   -0.5255   -1.5759   -0.7296 H   0  0  0  0  0  0  0  0  0  0  0  0
   -1.8108    1.1998    2.1583 H   0  0  0  0  0  0  0  0  0  0  0  0
   -0.7045    2.4840    0.4328 H   0  0  0  0  0  0  0  0  0  0  0  0
    0.0920    2.5108    1.9059 H   0  0  0  0  0  0  0  0  0  0  0  0
    0.2380    0.5829    3.2512 H   0  0  0  0  0  0  0  0  0  0  0  0
    0.5161   -1.9030    2.1695 H   0  0  0  0  0  0  0  0  0  0  0  0
    1.7545   -0.6661    2.3946 H   0  0  0  0  0  0  0  0  0  0  0  0
    1.4989    0.3470    0.3334 H   0  0  0  0  0  0  0  0  0  0  0  0
    1.4266   -2.6588   -0.3469 H   0  0  0  0  0  0  0  0  0  0  0  0
    3.8023   -2.6140    0.2290 H   0  0  0  0  0  0  0  0  0  0  0  0
    3.0241   -2.0886    1.7411 H   0  0  0  0  0  0  0  0  0  0  0  0
    2.9135   -1.8541   -2.0445 H   0  0  0  0  0  0  0  0  0  0  0  0
    1.7684   -0.4993   -1.9405 H   0  0  0  0  0  0  0  0  0  0  0  0
    4.6251   -0.3325    0.9286 H   0  0  0  0  0  0  0  0  0  0  0  0
    4.4175    0.3581   -2.6745 H   0  0  0  0  0  0  0  0  0  0  0  0
    5.7065   -1.7472   -0.9133 H   0  0  0  0  0  0  0  0  0  0  0  0
    4.8764   -1.9441   -2.5647 H   0  0  0  0  0  0  0  0  0  0  0  0
    7.6466   -1.2969   -1.9495 H   0  0  0  0  0  0  0  0  0  0  0  0
    6.9098   -1.6790   -3.5130 H   0  0  0  0  0  0  0  0  0  0  0  0
    6.1622    0.5495   -3.7108 H   0  0  0  0  0  0  0  0  0  0  0  0
    7.1304    2.2018   -2.1755 H   0  0  0  0  0  0  0  0  0  0  0  0
    7.7791    0.8395   -1.2470 H   0  0  0  0  0  0  0  0  0  0  0  0
    5.8837    0.9166   -0.0320 H   0  0  0  0  0  0  0  0  0  0  0  0
    5.1139    2.0555   -1.1806 H   0  0  0  0  0  0  0  0  0  0  0  0
  1  2  1  0
  2  3  1  0
  3  4  1  0
  4  5  1  0
  5  6  1  0
  2  7  1  0
  5  8  1  0
  7  8  1  0
  8  9  1  0
  7 10  1  0
 10 11  1  0
 10 12  1  0
 12 13  1  0
 13 14  1  0
 13 15  1  0
 15 16  1  0
 15 17  1  0
 17 18  1  0
 14 19  1  0
 18 19  1  0
 19 20  1  0
 20 21  1  0
 20 22  1  0
 22 23  1  0
 21 24  1  0
 23 24  1  0
 23 25  1  0
 25 26  1  0
 26 27  1  0
 27 28  1  0
 28 29  1  0
 25 30  1  0
 29 30  1  0
  2 31  1  0
  3 32  1  0
  3 33  1  0
  4 34  1  0
  4 35  1  0
  5 36  1  0
  7 37  1  0
  8 38  1  0
 10 39  1  1
 11 40  1  0
 11 41  1  0
 11 42  1  0
 13 43  1  0
 14 44  1  0
 14 45  1  0
 15 46  1  0
 16 47  1  0
 16 48  1  0
 17 49  1  0
 18 50  1  0
 18 51  1  0
 19 52  1  0
 20 53  1  0
 21 54  1  0
 21 55  1  0
 22 56  1  0
 22 57  1  0
 24 58  1  0
 25 59  1  0
 26 60  1  0
 26 61  1  0
 27 62  1  0
 27 63  1  0
 28 64  1  0
 29 65  1  0
 29 66  1  0
 30 67  1  0
 30 68  1  0
M  END
>  <PDBID>  (1) 
4ANQ

>  <PDB ID>  (1) 
4ANQ

>  <Generic Name>  (1) 
Crizotinib

>  <Brand Name>  (1) 
Xalkori

>  <DrugBank ID>  (1) 
DB08865

>  <ATC Codes>  (1) 
L01XE16

>  <Ligand ID>  (1) 
VGH

>  <Target Name>  (1) 
ALK tyrosine kinase receptor

>  <UniProt ID>  (1) 
Q9UM73

>  <PDB ID.1>  (1) 
4ANQ

>  <Seq. Identity>  (1) 
100%

$$$$
