PDB_DB04552_01
     RDKit          3D

 43 44  0  0  0  0  0  0  0  0999 V2000
    2.6865    1.4511   -1.3808 F   0  0  0  0  0  0  0  0  0  0  0  0
    3.7313    0.5836   -1.3412 C   0  0  0  0  0  0  0  0  0  0  0  0
    4.8648    1.2784   -0.9649 F   0  0  0  0  0  0  0  0  0  0  0  0
    3.9185    0.0644   -2.6056 F   0  0  0  0  0  0  0  0  0  0  0  0
    3.5190   -0.5490   -0.3266 C   0  0  2  0  0  0  0  0  0  0  0  0
    2.3255   -1.3737   -0.6053 C   0  0  0  0  0  0  0  0  0  0  0  0
    1.0915   -1.0621    0.1762 C   0  0  0  0  0  0  0  0  0  0  0  0
    1.3584   -0.6437    1.5822 C   0  0  0  0  0  0  0  0  0  0  0  0
    2.2988    0.5683    1.5136 C   0  0  0  0  0  0  0  0  0  0  0  0
    3.6266   -0.0124    1.0736 C   0  0  0  0  0  0  0  0  0  0  0  0
    0.2325   -0.1628   -0.5678 N   0  0  0  0  0  0  0  0  0  0  0  0
   -0.9761    0.1765    0.1602 C   0  0  0  0  0  0  0  0  0  0  0  0
   -1.4246   -1.0033    0.8381 N   0  0  0  0  0  0  0  0  0  0  0  0
   -1.9721    0.8666   -0.6780 C   0  0  0  0  0  0  0  0  0  0  0  0
   -2.1555    2.3274   -0.2358 C   0  0  0  0  0  0  0  0  0  0  0  0
   -3.0977    2.9452   -1.0448 O   0  0  0  0  0  0  0  0  0  0  0  0
   -2.5377    2.3855    1.0995 O   0  0  0  0  0  0  0  0  0  0  0  0
   -3.3030    0.2502   -0.8271 C   0  0  0  0  0  0  0  0  0  0  0  0
   -3.5424   -1.0668   -0.1841 C   0  0  0  0  0  0  0  0  0  0  0  0
   -2.2751   -1.8358    0.0096 C   0  0  0  0  0  0  0  0  0  0  0  0
    4.4289   -1.2067   -0.4699 H   0  0  0  0  0  0  0  0  0  0  0  0
    2.5573   -2.4579   -0.5211 H   0  0  0  0  0  0  0  0  0  0  0  0
    2.0614   -1.2260   -1.6944 H   0  0  0  0  0  0  0  0  0  0  0  0
    0.4939   -2.0212    0.2505 H   0  0  0  0  0  0  0  0  0  0  0  0
    1.8913   -1.4876    2.0750 H   0  0  0  0  0  0  0  0  0  0  0  0
    0.4753   -0.3305    2.1206 H   0  0  0  0  0  0  0  0  0  0  0  0
    2.3991    1.0790    2.4673 H   0  0  0  0  0  0  0  0  0  0  0  0
    1.8577    1.2440    0.7644 H   0  0  0  0  0  0  0  0  0  0  0  0
    4.4666    0.6678    1.1593 H   0  0  0  0  0  0  0  0  0  0  0  0
    3.8021   -0.8993    1.7406 H   0  0  0  0  0  0  0  0  0  0  0  0
   -0.0429   -0.6738   -1.4373 H   0  0  0  0  0  0  0  0  0  0  0  0
   -0.6405    0.8971    0.9626 H   0  0  0  0  0  0  0  0  0  0  0  0
   -2.0447   -0.6785    1.6368 H   0  0  0  0  0  0  0  0  0  0  0  0
   -1.5230    0.9735   -1.7138 H   0  0  0  0  0  0  0  0  0  0  0  0
   -1.1670    2.8014   -0.3475 H   0  0  0  0  0  0  0  0  0  0  0  0
   -3.9704    2.9665   -0.6155 H   0  0  0  0  0  0  0  0  0  0  0  0
   -3.1200    1.6054    1.3475 H   0  0  0  0  0  0  0  0  0  0  0  0
   -4.1125    0.9412   -0.4393 H   0  0  0  0  0  0  0  0  0  0  0  0
   -3.5952    0.1360   -1.9162 H   0  0  0  0  0  0  0  0  0  0  0  0
   -4.0798   -0.9790    0.7913 H   0  0  0  0  0  0  0  0  0  0  0  0
   -4.2126   -1.7224   -0.8098 H   0  0  0  0  0  0  0  0  0  0  0  0
   -1.7955   -2.0742   -0.9498 H   0  0  0  0  0  0  0  0  0  0  0  0
   -2.4988   -2.7425    0.6066 H   0  0  0  0  0  0  0  0  0  0  0  0
  2  1  1  0
  2  3  1  0
  2  4  1  0
  2  5  1  0
  5  6  1  0
  6  7  1  0
  7  8  1  0
  8  9  1  0
  5 10  1  0
  9 10  1  0
  7 11  1  0
 11 12  1  0
 12 13  1  0
 12 14  1  0
 14 15  1  0
 15 16  1  0
 15 17  1  0
 14 18  1  0
 18 19  1  0
 13 20  1  0
 19 20  1  0
  5 21  1  6
  6 22  1  0
  6 23  1  0
  7 24  1  0
  8 25  1  0
  8 26  1  0
  9 27  1  0
  9 28  1  0
 10 29  1  0
 10 30  1  0
 11 31  1  0
 12 32  1  0
 13 33  1  0
 14 34  1  0
 15 35  1  0
 16 36  1  0
 17 37  1  0
 18 38  1  0
 18 39  1  0
 19 40  1  0
 19 41  1  0
 20 42  1  0
 20 43  1  0
M  END
>  <PDBID>  (1) 
1TD7

>  <PDB ID>  (1) 
1TD7

>  <Generic Name>  (1) 
Niflumic Acid

>  <Brand Name>  (1) 
Niflam#Niflugel#Nifluril

>  <DrugBank ID>  (1) 
DB04552

>  <ATC Codes>  (1) 
M02AA17#M01AX02

>  <Ligand ID>  (1) 
NFL

>  <Target Name>  (1) 
Phospholipase A2

>  <UniProt ID>  (1) 
P04054

>  <PDB ID.1>  (1) 
1TD7

>  <Seq. Identity>  (1) 
43%

$$$$
