PDB_DB00775_01
     RDKit          3D

 76 77  0  0  0  0  0  0  0  0999 V2000
    7.8799    1.7517   -1.0744 C   0  0  0  0  0  0  0  0  0  0  0  0
    6.9455    0.5737   -1.2826 C   0  0  0  0  0  0  0  0  0  0  0  0
    7.7003   -0.7078   -1.4835 C   0  0  0  0  0  0  0  0  0  0  0  0
    6.8001   -1.8714   -1.6966 C   0  0  0  0  0  0  0  0  0  0  0  0
    5.7379   -2.2435   -0.4659 S   0  0  0  0  0  0  0  0  0  0  0  0
    4.8726   -3.6289   -1.0532 O   0  0  0  0  0  0  0  0  0  0  0  0
    6.8044   -3.0691    0.6830 O   0  0  0  0  0  0  0  0  0  0  0  0
    4.9509   -1.2654    0.3081 N   0  0  0  0  0  0  0  0  0  0  0  0
    3.4892   -1.1233    0.2848 C   0  0  1  0  0  0  0  0  0  0  0  0
    3.0582   -0.1550    1.3363 C   0  0  0  0  0  0  0  0  0  0  0  0
    1.6331    0.1354    1.5303 C   0  0  0  0  0  0  0  0  0  0  0  0
    1.5515    1.1258    2.7212 C   0  0  0  0  0  0  0  0  0  0  0  0
    0.1426    0.9746    3.2966 C   0  0  0  0  0  0  0  0  0  0  0  0
   -0.8963    1.0929    2.2241 C   0  0  0  0  0  0  0  0  0  0  0  0
   -1.9367    1.9302    2.5211 O   0  0  0  0  0  0  0  0  0  0  0  0
   -0.1990    1.6763    1.0131 C   0  0  0  0  0  0  0  0  0  0  0  0
    0.8363    0.7125    0.4207 C   0  0  0  0  0  0  0  0  0  0  0  0
    3.1396   -0.6550   -1.0989 C   0  0  0  0  0  0  0  0  0  0  0  0
    3.7122    0.5558   -1.4512 O   0  0  0  0  0  0  0  0  0  0  0  0
    3.6759   -1.5887   -2.0246 O   0  0  0  0  0  0  0  0  0  0  0  0
   -3.2000    1.4624    2.3570 C   0  0  0  0  0  0  0  0  0  0  0  0
   -3.5260    1.0471    0.9366 C   0  0  0  0  0  0  0  0  0  0  0  0
   -4.9714    0.5626    0.9545 C   0  0  0  0  0  0  0  0  0  0  0  0
   -5.3202    0.1456   -0.4553 C   0  0  0  0  0  0  0  0  0  0  0  0
   -6.7439   -0.3516   -0.5610 C   0  0  0  0  0  0  0  0  0  0  0  0
   -7.7398    0.7140   -0.1531 C   0  0  0  0  0  0  0  0  0  0  0  0
   -8.9031    0.7278   -1.1206 C   0  0  0  0  0  0  0  0  0  0  0  0
   -9.3318   -0.6071   -1.4690 N   0  0  0  0  0  0  0  0  0  0  0  0
   -8.3453   -1.3317   -2.2227 C   0  0  0  0  0  0  0  0  0  0  0  0
   -7.0074   -0.6505   -2.0235 C   0  0  0  0  0  0  0  0  0  0  0  0
    7.3081    2.6860   -1.1813 H   0  0  0  0  0  0  0  0  0  0  0  0
    8.3440    1.7483   -0.0744 H   0  0  0  0  0  0  0  0  0  0  0  0
    8.6980    1.7722   -1.8256 H   0  0  0  0  0  0  0  0  0  0  0  0
    6.3510    0.8012   -2.1939 H   0  0  0  0  0  0  0  0  0  0  0  0
    6.2770    0.5269   -0.4119 H   0  0  0  0  0  0  0  0  0  0  0  0
    8.3444   -0.6191   -2.4001 H   0  0  0  0  0  0  0  0  0  0  0  0
    8.3970   -0.8993   -0.6238 H   0  0  0  0  0  0  0  0  0  0  0  0
    7.4827   -2.7600   -1.8904 H   0  0  0  0  0  0  0  0  0  0  0  0
    6.2819   -1.7200   -2.6840 H   0  0  0  0  0  0  0  0  0  0  0  0
    4.8403   -4.3083   -0.3443 H   0  0  0  0  0  0  0  0  0  0  0  0
    7.3561   -3.6303    0.0911 H   0  0  0  0  0  0  0  0  0  0  0  0
    5.2429   -0.8577    1.2407 H   0  0  0  0  0  0  0  0  0  0  0  0
    3.0454   -2.1072    0.5045 H   0  0  0  0  0  0  0  0  0  0  0  0
    3.4330   -0.5795    2.3312 H   0  0  0  0  0  0  0  0  0  0  0  0
    3.6629    0.8170    1.2517 H   0  0  0  0  0  0  0  0  0  0  0  0
    1.1284   -0.7772    1.9172 H   0  0  0  0  0  0  0  0  0  0  0  0
    2.2509    0.7284    3.4834 H   0  0  0  0  0  0  0  0  0  0  0  0
    1.7725    2.1489    2.4208 H   0  0  0  0  0  0  0  0  0  0  0  0
    0.0991   -0.0620    3.7087 H   0  0  0  0  0  0  0  0  0  0  0  0
    0.0480    1.6713    4.1196 H   0  0  0  0  0  0  0  0  0  0  0  0
   -1.2946    0.1129    1.8899 H   0  0  0  0  0  0  0  0  0  0  0  0
    0.2510    2.6663    1.1918 H   0  0  0  0  0  0  0  0  0  0  0  0
   -0.9515    1.8485    0.1956 H   0  0  0  0  0  0  0  0  0  0  0  0
    0.2012   -0.0409   -0.1235 H   0  0  0  0  0  0  0  0  0  0  0  0
    1.3733    1.3070   -0.3099 H   0  0  0  0  0  0  0  0  0  0  0  0
    2.0547   -0.6369   -1.3174 H   0  0  0  0  0  0  0  0  0  0  0  0
    3.7197    1.2003   -0.7205 H   0  0  0  0  0  0  0  0  0  0  0  0
    3.8474   -1.1352   -2.8971 H   0  0  0  0  0  0  0  0  0  0  0  0
   -3.4702    0.6396    3.0827 H   0  0  0  0  0  0  0  0  0  0  0  0
   -3.9056    2.2862    2.6002 H   0  0  0  0  0  0  0  0  0  0  0  0
   -2.8447    0.3045    0.5325 H   0  0  0  0  0  0  0  0  0  0  0  0
   -3.4125    1.9704    0.3157 H   0  0  0  0  0  0  0  0  0  0  0  0
   -5.6519    1.3026    1.3733 H   0  0  0  0  0  0  0  0  0  0  0  0
   -4.9860   -0.3271    1.6170 H   0  0  0  0  0  0  0  0  0  0  0  0
   -5.1466    0.9620   -1.1788 H   0  0  0  0  0  0  0  0  0  0  0  0
   -4.6613   -0.6976   -0.7431 H   0  0  0  0  0  0  0  0  0  0  0  0
   -6.8982   -1.2143    0.0840 H   0  0  0  0  0  0  0  0  0  0  0  0
   -7.2856    1.7257   -0.1400 H   0  0  0  0  0  0  0  0  0  0  0  0
   -8.1596    0.5354    0.8607 H   0  0  0  0  0  0  0  0  0  0  0  0
   -8.6822    1.2652   -2.0608 H   0  0  0  0  0  0  0  0  0  0  0  0
   -9.7903    1.2453   -0.6799 H   0  0  0  0  0  0  0  0  0  0  0  0
   -9.5862   -1.1763   -0.6321 H   0  0  0  0  0  0  0  0  0  0  0  0
   -8.5527   -1.3394   -3.3146 H   0  0  0  0  0  0  0  0  0  0  0  0
   -8.2309   -2.3798   -1.8779 H   0  0  0  0  0  0  0  0  0  0  0  0
   -6.9440    0.3209   -2.5615 H   0  0  0  0  0  0  0  0  0  0  0  0
   -6.1658   -1.2642   -2.4066 H   0  0  0  0  0  0  0  0  0  0  0  0
  1  2  1  0
  2  3  1  0
  3  4  1  0
  4  5  1  0
  5  6  1  0
  5  7  1  0
  5  8  1  0
  8  9  1  0
  9 10  1  0
 10 11  1  0
 11 12  1  0
 12 13  1  0
 13 14  1  0
 14 15  1  0
 14 16  1  0
 11 17  1  0
 16 17  1  0
  9 18  1  0
 18 19  1  0
 18 20  1  0
 15 21  1  0
 21 22  1  0
 22 23  1  0
 23 24  1  0
 24 25  1  0
 25 26  1  0
 26 27  1  0
 27 28  1  0
 28 29  1  0
 25 30  1  0
 29 30  1  0
  1 31  1  0
  1 32  1  0
  1 33  1  0
  2 34  1  0
  2 35  1  0
  3 36  1  0
  3 37  1  0
  4 38  1  0
  4 39  1  0
  6 40  1  0
  7 41  1  0
  8 42  1  0
  9 43  1  1
 10 44  1  0
 10 45  1  0
 11 46  1  0
 12 47  1  0
 12 48  1  0
 13 49  1  0
 13 50  1  0
 14 51  1  0
 16 52  1  0
 16 53  1  0
 17 54  1  0
 17 55  1  0
 18 56  1  0
 19 57  1  0
 20 58  1  0
 21 59  1  0
 21 60  1  0
 22 61  1  0
 22 62  1  0
 23 63  1  0
 23 64  1  0
 24 65  1  0
 24 66  1  0
 25 67  1  0
 26 68  1  0
 26 69  1  0
 27 70  1  0
 27 71  1  0
 28 72  1  0
 29 73  1  0
 29 74  1  0
 30 75  1  0
 30 76  1  0
M  END
>  <PDBID>  (1) 
2VDM

>  <PDB ID>  (1) 
2VDM

>  <Generic Name>  (1) 
Tirofiban

>  <Brand Name>  (1) 
Aggrastat#Aggribloc#Agrastat

>  <DrugBank ID>  (1) 
DB00775

>  <ATC Codes>  (1) 
B01AC17

>  <Ligand ID>  (1) 
AGG

>  <Target Name>  (1) 
Integrin alpha-IIb

>  <UniProt ID>  (1) 
P08514

>  <PDB ID.1>  (1) 
2VDM

>  <Seq. Identity>  (1) 
100%

$$$$
