PDB_DB01601_01
     RDKit          3D

118121  0  0  0  0  0  0  0  0999 V2000
   -5.6301   -3.7362   -3.4760 C   0  0  0  0  0  0  0  0  0  0  0  0
   -3.3887   -3.3793   -2.3708 C   0  0  0  0  0  0  0  0  0  0  0  0
   -3.9240   -2.2499   -1.7903 N   0  0  0  0  0  0  0  0  0  0  0  0
   -5.2132   -1.8031   -2.1173 C   0  0  0  0  0  0  0  0  0  0  0  0
   -6.1653   -2.8141   -2.5010 N   0  0  0  0  0  0  0  0  0  0  0  0
    1.8850    4.4643   -0.3292 C   0  0  0  0  0  0  0  0  0  0  0  0
    1.0156    4.8203   -1.4473 C   0  0  0  0  0  0  0  0  0  0  0  0
    1.1462    6.3595   -1.6370 C   0  0  0  0  0  0  0  0  0  0  0  0
    2.5974    6.7416   -1.4663 C   0  0  0  0  0  0  0  0  0  0  0  0
    3.0378    6.6004   -0.0206 C   0  0  0  0  0  0  0  0  0  0  0  0
    2.0704    5.6529    0.6492 C   0  0  0  0  0  0  0  0  0  0  0  0
   -5.7729   -1.0750   -1.0550 O   0  0  0  0  0  0  0  0  0  0  0  0
   -3.3965   -1.7139   -0.5373 C   0  0  2  0  0  0  0  0  0  0  0  0
   -1.9583   -1.4104   -0.8152 C   0  0  0  0  0  0  0  0  0  0  0  0
   -1.2350   -0.5261   -0.0062 N   0  0  0  0  0  0  0  0  0  0  0  0
   -1.4611    0.8453    0.0649 C   0  0  1  0  0  0  0  0  0  0  0  0
   -3.7382   -2.5842    0.6007 C   0  0  0  0  0  0  0  0  0  0  0  0
   -3.2615   -2.1427    1.9622 C   0  0  0  0  0  0  0  0  0  0  0  0
   -3.4175   -4.0456    0.5147 C   0  0  0  0  0  0  0  0  0  0  0  0
   -2.0051   -0.6438   -2.0779 O   0  0  0  0  0  0  0  0  0  0  0  0
   -3.1665    2.4220    4.5125 C   0  0  0  0  0  0  0  0  0  0  0  0
   -4.1971    3.2775    3.7664 C   0  0  0  0  0  0  0  0  0  0  0  0
   -4.0096    2.8952    2.2912 C   0  0  0  0  0  0  0  0  0  0  0  0
   -3.7244    1.4310    2.2520 C   0  0  0  0  0  0  0  0  0  0  0  0
   -2.2541    1.2106    2.4934 C   0  0  0  0  0  0  0  0  0  0  0  0
   -1.9444    2.1886    3.6676 C   0  0  0  0  0  0  0  0  0  0  0  0
   -1.3736    1.5160    1.3645 C   0  0  0  0  0  0  0  0  0  0  0  0
   -0.7685    1.6544   -1.0447 C   0  0  0  0  0  0  0  0  0  0  0  0
    0.6748    1.5637   -1.1809 C   0  0  1  0  0  0  0  0  0  0  0  0
    1.6392    1.9239   -0.1546 C   0  0  1  0  0  0  0  0  0  0  0  0
    3.0365    1.8720   -0.6871 N   0  0  0  0  0  0  0  0  0  0  0  0
    3.5240    0.6236   -1.0762 C   0  0  0  0  0  0  0  0  0  0  0  0
    3.6632   -0.4246    0.0070 C   0  0  0  0  0  0  0  0  0  0  0  0
    4.1578   -1.6151   -0.5215 O   0  0  0  0  0  0  0  0  0  0  0  0
    4.3130   -2.6038    0.4117 C   0  0  0  0  0  0  0  0  0  0  0  0
    0.9270    0.2551   -1.6942 O   0  0  0  0  0  0  0  0  0  0  0  0
    1.6311    3.2536    0.4991 C   0  0  0  0  0  0  0  0  0  0  0  0
    4.8913    0.8802   -1.4526 O   0  0  0  0  0  0  0  0  0  0  0  0
    5.7734   -2.9306    0.5827 C   0  0  0  0  0  0  0  0  0  0  0  0
    6.2174   -4.1475   -0.1580 C   0  0  0  0  0  0  0  0  0  0  0  0
    5.3559   -4.2823   -1.3924 C   0  0  0  0  0  0  0  0  0  0  0  0
    3.9818   -4.6987   -0.9291 C   0  0  0  0  0  0  0  0  0  0  0  0
    3.4654   -3.8283    0.1891 C   0  0  0  0  0  0  0  0  0  0  0  0
    3.2702   -4.6101    1.4812 C   0  0  0  0  0  0  0  0  0  0  0  0
    6.6510   -1.7646    0.1409 C   0  0  0  0  0  0  0  0  0  0  0  0
   -4.3680   -4.3737   -2.9667 C   0  0  0  0  0  0  0  0  0  0  0  0
   -5.4695   -3.2115   -4.4304 H   0  0  0  0  0  0  0  0  0  0  0  0
   -6.3767   -4.5399   -3.6364 H   0  0  0  0  0  0  0  0  0  0  0  0
   -2.6340   -3.9378   -1.8329 H   0  0  0  0  0  0  0  0  0  0  0  0
   -2.8034   -3.0101   -3.3022 H   0  0  0  0  0  0  0  0  0  0  0  0
   -5.1710   -1.0872   -2.9777 H   0  0  0  0  0  0  0  0  0  0  0  0
   -6.7008   -3.2359   -1.7401 H   0  0  0  0  0  0  0  0  0  0  0  0
    2.9391    4.3680   -0.7769 H   0  0  0  0  0  0  0  0  0  0  0  0
    1.3972    4.4437   -2.4458 H   0  0  0  0  0  0  0  0  0  0  0  0
   -0.0405    4.6150   -1.4102 H   0  0  0  0  0  0  0  0  0  0  0  0
    0.4587    6.8862   -0.9755 H   0  0  0  0  0  0  0  0  0  0  0  0
    0.8647    6.6120   -2.6900 H   0  0  0  0  0  0  0  0  0  0  0  0
    2.7330    7.7930   -1.7905 H   0  0  0  0  0  0  0  0  0  0  0  0
    3.1905    6.1066   -2.1550 H   0  0  0  0  0  0  0  0  0  0  0  0
    3.0966    7.5769    0.4949 H   0  0  0  0  0  0  0  0  0  0  0  0
    4.0229    6.0910   -0.0193 H   0  0  0  0  0  0  0  0  0  0  0  0
    2.5357    5.2340    1.5637 H   0  0  0  0  0  0  0  0  0  0  0  0
    1.1049    6.1138    0.8777 H   0  0  0  0  0  0  0  0  0  0  0  0
   -6.7101   -0.8777   -1.3140 H   0  0  0  0  0  0  0  0  0  0  0  0
   -3.9190   -0.7480   -0.4044 H   0  0  0  0  0  0  0  0  0  0  0  0
   -1.4283   -2.3198   -1.1322 H   0  0  0  0  0  0  0  0  0  0  0  0
   -0.5800   -0.9932    0.6213 H   0  0  0  0  0  0  0  0  0  0  0  0
   -2.5741    0.9434   -0.3279 H   0  0  0  0  0  0  0  0  0  0  0  0
   -4.8756   -2.5328    0.6868 H   0  0  0  0  0  0  0  0  0  0  0  0
   -2.2108   -1.8735    1.9894 H   0  0  0  0  0  0  0  0  0  0  0  0
   -3.3864   -2.9820    2.7087 H   0  0  0  0  0  0  0  0  0  0  0  0
   -3.9417   -1.3583    2.3404 H   0  0  0  0  0  0  0  0  0  0  0  0
   -2.3229   -4.1972    0.4455 H   0  0  0  0  0  0  0  0  0  0  0  0
   -3.6357   -4.4459    1.5695 H   0  0  0  0  0  0  0  0  0  0  0  0
   -4.0496   -4.6561   -0.1100 H   0  0  0  0  0  0  0  0  0  0  0  0
   -2.8649   -0.7630   -2.4963 H   0  0  0  0  0  0  0  0  0  0  0  0
   -2.8350    3.0348    5.3749 H   0  0  0  0  0  0  0  0  0  0  0  0
   -3.5988    1.5083    4.9369 H   0  0  0  0  0  0  0  0  0  0  0  0
   -4.0426    4.3495    3.9421 H   0  0  0  0  0  0  0  0  0  0  0  0
   -5.2269    3.0342    4.1021 H   0  0  0  0  0  0  0  0  0  0  0  0
   -3.1655    3.5241    1.9413 H   0  0  0  0  0  0  0  0  0  0  0  0
   -4.9353    3.1710    1.7109 H   0  0  0  0  0  0  0  0  0  0  0  0
   -4.2675    0.9543    3.0980 H   0  0  0  0  0  0  0  0  0  0  0  0
   -4.0939    0.9239    1.3405 H   0  0  0  0  0  0  0  0  0  0  0  0
   -2.1292    0.2308    2.9719 H   0  0  0  0  0  0  0  0  0  0  0  0
   -1.1545    1.7580    4.2917 H   0  0  0  0  0  0  0  0  0  0  0  0
   -1.6263    3.1727    3.2584 H   0  0  0  0  0  0  0  0  0  0  0  0
   -0.3129    1.3786    1.7403 H   0  0  0  0  0  0  0  0  0  0  0  0
   -1.4094    2.6559    1.2421 H   0  0  0  0  0  0  0  0  0  0  0  0
   -1.2599    1.3479   -1.9826 H   0  0  0  0  0  0  0  0  0  0  0  0
   -1.1645    2.7285   -0.9602 H   0  0  0  0  0  0  0  0  0  0  0  0
    0.9592    2.1843   -2.0976 H   0  0  0  0  0  0  0  0  0  0  0  0
    1.6872    1.1332    0.6258 H   0  0  0  0  0  0  0  0  0  0  0  0
    3.6262    2.2306    0.0994 H   0  0  0  0  0  0  0  0  0  0  0  0
    3.1282    0.1381   -1.9656 H   0  0  0  0  0  0  0  0  0  0  0  0
    4.3734   -0.1031    0.7998 H   0  0  0  0  0  0  0  0  0  0  0  0
    2.7092   -0.6064    0.5202 H   0  0  0  0  0  0  0  0  0  0  0  0
    3.9831   -2.1639    1.3957 H   0  0  0  0  0  0  0  0  0  0  0  0
    0.9563   -0.4228   -1.0140 H   0  0  0  0  0  0  0  0  0  0  0  0
    0.8173    3.4125    1.2545 H   0  0  0  0  0  0  0  0  0  0  0  0
    2.5344    3.2452    1.2108 H   0  0  0  0  0  0  0  0  0  0  0  0
    4.8928    1.4833   -2.2463 H   0  0  0  0  0  0  0  0  0  0  0  0
    6.0367   -3.0910    1.6703 H   0  0  0  0  0  0  0  0  0  0  0  0
    7.2607   -4.0014   -0.5056 H   0  0  0  0  0  0  0  0  0  0  0  0
    6.2174   -5.0685    0.4562 H   0  0  0  0  0  0  0  0  0  0  0  0
    5.7769   -5.0726   -2.0383 H   0  0  0  0  0  0  0  0  0  0  0  0
    5.3631   -3.3089   -1.8998 H   0  0  0  0  0  0  0  0  0  0  0  0
    4.0592   -5.7477   -0.5728 H   0  0  0  0  0  0  0  0  0  0  0  0
    3.3075   -4.7083   -1.8100 H   0  0  0  0  0  0  0  0  0  0  0  0
    2.4561   -3.4769   -0.1090 H   0  0  0  0  0  0  0  0  0  0  0  0
    3.0471   -3.8812    2.2794 H   0  0  0  0  0  0  0  0  0  0  0  0
    2.3949   -5.2877    1.4054 H   0  0  0  0  0  0  0  0  0  0  0  0
    4.1472   -5.2466    1.7177 H   0  0  0  0  0  0  0  0  0  0  0  0
    6.3703   -1.3782   -0.8430 H   0  0  0  0  0  0  0  0  0  0  0  0
    7.7208   -2.0794    0.0766 H   0  0  0  0  0  0  0  0  0  0  0  0
    6.6208   -0.9364    0.8874 H   0  0  0  0  0  0  0  0  0  0  0  0
   -3.8587   -4.8314   -3.8653 H   0  0  0  0  0  0  0  0  0  0  0  0
   -4.5651   -5.2497   -2.3161 H   0  0  0  0  0  0  0  0  0  0  0  0
  2  3  1  0
  3  4  1  0
  1  5  1  0
  4  5  1  0
  6  7  1  0
  7  8  1  0
  8  9  1  0
  9 10  1  0
  6 11  1  0
 10 11  1  0
  4 12  1  0
  3 13  1  0
 13 14  1  0
 14 15  1  0
 15 16  1  0
 13 17  1  0
 17 18  1  0
 17 19  1  0
 14 20  1  0
 21 22  1  0
 22 23  1  0
 23 24  1  0
 24 25  1  0
 21 26  1  0
 25 26  1  0
 16 27  1  0
 25 27  1  0
 16 28  1  0
 28 29  1  0
 29 30  1  0
 30 31  1  0
 31 32  1  0
 32 33  1  0
 33 34  1  0
 34 35  1  0
 29 36  1  0
  6 37  1  0
 30 37  1  0
 32 38  1  0
 35 39  1  0
 39 40  1  0
 40 41  1  0
 41 42  1  0
 35 43  1  0
 42 43  1  0
 43 44  1  0
 39 45  1  0
  1 46  1  0
  2 46  1  0
  1 47  1  0
  1 48  1  0
  2 49  1  0
  2 50  1  0
  4 51  1  0
  5 52  1  0
  6 53  1  0
  7 54  1  0
  7 55  1  0
  8 56  1  0
  8 57  1  0
  9 58  1  0
  9 59  1  0
 10 60  1  0
 10 61  1  0
 11 62  1  0
 11 63  1  0
 12 64  1  0
 13 65  1  1
 14 66  1  0
 15 67  1  0
 16 68  1  6
 17 69  1  0
 18 70  1  0
 18 71  1  0
 18 72  1  0
 19 73  1  0
 19 74  1  0
 19 75  1  0
 20 76  1  0
 21 77  1  0
 21 78  1  0
 22 79  1  0
 22 80  1  0
 23 81  1  0
 23 82  1  0
 24 83  1  0
 24 84  1  0
 25 85  1  0
 26 86  1  0
 26 87  1  0
 27 88  1  0
 27 89  1  0
 28 90  1  0
 28 91  1  0
 29 92  1  6
 30 93  1  1
 31 94  1  0
 32 95  1  0
 33 96  1  0
 33 97  1  0
 35 98  1  0
 36 99  1  0
 37100  1  0
 37101  1  0
 38102  1  0
 39103  1  0
 40104  1  0
 40105  1  0
 41106  1  0
 41107  1  0
 42108  1  0
 42109  1  0
 43110  1  0
 44111  1  0
 44112  1  0
 44113  1  0
 45114  1  0
 45115  1  0
 45116  1  0
 46117  1  0
 46118  1  0
M  END
>  <PDBID>  (1) 
1MUI

>  <PDB ID>  (1) 
1MUI

>  <Generic Name>  (1) 
Lopinavir

>  <Brand Name>  (1) 
Kaletra#Lopinavir-ritonavir#Aluviran#Koletra

>  <DrugBank ID>  (1) 
DB01601

>  <ATC Codes>  (1) 
J05AR10

>  <Ligand ID>  (1) 
AB1

>  <Target Name>  (1) 
Pol polyprotein

>  <UniProt ID>  (1) 
Q72874

>  <PDB ID.1>  (1) 
1MUI

>  <Seq. Identity>  (1) 
99%

$$$$
