PDB_DB00866_08
     RDKit          3D

 49 49  0  0  0  0  0  0  0  0999 V2000
    6.1663    1.0439    1.0641 C   0  0  0  0  0  0  0  0  0  0  0  0
    4.4420   -0.1718   -0.0434 N   0  0  0  0  0  0  0  0  0  0  0  0
    2.2698   -1.5982    1.2627 O   0  0  0  0  0  0  0  0  0  0  0  0
    4.7039    1.0618    0.6097 C   0  0  0  0  0  0  0  0  0  0  0  0
   -0.3720   -0.8330    0.3328 O   0  0  0  0  0  0  0  0  0  0  0  0
    4.5572    2.1873   -0.3717 C   0  0  0  0  0  0  0  0  0  0  0  0
    3.1580   -0.3658   -0.5952 C   0  0  0  0  0  0  0  0  0  0  0  0
    2.0314   -0.5018    0.4337 C   0  0  1  0  0  0  0  0  0  0  0  0
    0.7809   -0.6609   -0.3817 C   0  0  0  0  0  0  0  0  0  0  0  0
   -1.4542   -0.9581   -0.5233 C   0  0  0  0  0  0  0  0  0  0  0  0
   -1.9490   -2.3836   -0.3752 C   0  0  0  0  0  0  0  0  0  0  0  0
   -3.1234   -2.5900   -1.2844 C   0  0  0  0  0  0  0  0  0  0  0  0
   -4.2584   -1.7266   -0.7132 C   0  0  0  0  0  0  0  0  0  0  0  0
   -3.8171   -0.2991   -0.9412 C   0  0  0  0  0  0  0  0  0  0  0  0
   -2.5464    0.0493   -0.2616 C   0  0  0  0  0  0  0  0  0  0  0  0
   -2.7291    0.3211    1.2023 C   0  0  0  0  0  0  0  0  0  0  0  0
   -3.8100    1.3159    1.4708 C   0  0  0  0  0  0  0  0  0  0  0  0
   -3.5513    2.6537    0.8136 C   0  0  0  0  0  0  0  0  0  0  0  0
    6.7990    0.8520    0.1518 H   0  0  0  0  0  0  0  0  0  0  0  0
    6.3698    0.2492    1.7930 H   0  0  0  0  0  0  0  0  0  0  0  0
    6.4209    2.0518    1.4306 H   0  0  0  0  0  0  0  0  0  0  0  0
    5.2189   -0.7134   -0.4014 H   0  0  0  0  0  0  0  0  0  0  0  0
    2.1687   -2.4416    0.7706 H   0  0  0  0  0  0  0  0  0  0  0  0
    4.0571    1.2002    1.5007 H   0  0  0  0  0  0  0  0  0  0  0  0
    3.6254    2.7556   -0.1793 H   0  0  0  0  0  0  0  0  0  0  0  0
    5.3954    2.9073   -0.2700 H   0  0  0  0  0  0  0  0  0  0  0  0
    4.5871    1.7871   -1.4091 H   0  0  0  0  0  0  0  0  0  0  0  0
    2.8951    0.4086   -1.3223 H   0  0  0  0  0  0  0  0  0  0  0  0
    3.1691   -1.3661   -1.1178 H   0  0  0  0  0  0  0  0  0  0  0  0
    2.0294    0.4001    1.0729 H   0  0  0  0  0  0  0  0  0  0  0  0
    0.9306   -1.5842   -1.0088 H   0  0  0  0  0  0  0  0  0  0  0  0
    0.6949    0.2524   -1.0114 H   0  0  0  0  0  0  0  0  0  0  0  0
   -1.1500   -0.8642   -1.5833 H   0  0  0  0  0  0  0  0  0  0  0  0
   -1.1188   -3.0212   -0.7951 H   0  0  0  0  0  0  0  0  0  0  0  0
   -2.2012   -2.6401    0.6606 H   0  0  0  0  0  0  0  0  0  0  0  0
   -2.8577   -2.1293   -2.2784 H   0  0  0  0  0  0  0  0  0  0  0  0
   -3.4158   -3.6286   -1.4243 H   0  0  0  0  0  0  0  0  0  0  0  0
   -5.1802   -1.8918   -1.2872 H   0  0  0  0  0  0  0  0  0  0  0  0
   -4.3523   -1.8894    0.3669 H   0  0  0  0  0  0  0  0  0  0  0  0
   -4.6532    0.3524   -0.6628 H   0  0  0  0  0  0  0  0  0  0  0  0
   -3.7230   -0.1739   -2.0632 H   0  0  0  0  0  0  0  0  0  0  0  0
   -2.1925    1.0219   -0.7175 H   0  0  0  0  0  0  0  0  0  0  0  0
   -1.7740    0.6962    1.6327 H   0  0  0  0  0  0  0  0  0  0  0  0
   -2.9758   -0.6767    1.6645 H   0  0  0  0  0  0  0  0  0  0  0  0
   -4.8260    1.0090    1.2196 H   0  0  0  0  0  0  0  0  0  0  0  0
   -3.8452    1.5094    2.5924 H   0  0  0  0  0  0  0  0  0  0  0  0
   -2.4933    2.9059    0.7517 H   0  0  0  0  0  0  0  0  0  0  0  0
   -4.1449    3.4492    1.3410 H   0  0  0  0  0  0  0  0  0  0  0  0
   -3.9563    2.6682   -0.2376 H   0  0  0  0  0  0  0  0  0  0  0  0
  1  4  1  0
  2  4  1  0
  4  6  1  0
  2  7  1  0
  3  8  1  0
  7  8  1  0
  5  9  1  0
  8  9  1  0
  5 10  1  0
 10 11  1  0
 11 12  1  0
 12 13  1  0
 13 14  1  0
 10 15  1  0
 14 15  1  0
 15 16  1  0
 16 17  1  0
 17 18  1  0
  1 19  1  0
  1 20  1  0
  1 21  1  0
  2 22  1  0
  3 23  1  0
  4 24  1  0
  6 25  1  0
  6 26  1  0
  6 27  1  0
  7 28  1  0
  7 29  1  0
  8 30  1  1
  9 31  1  0
  9 32  1  0
 10 33  1  0
 11 34  1  0
 11 35  1  0
 12 36  1  0
 12 37  1  0
 13 38  1  0
 13 39  1  0
 14 40  1  0
 14 41  1  0
 15 42  1  0
 16 43  1  0
 16 44  1  0
 17 45  1  0
 17 46  1  0
 18 47  1  0
 18 48  1  0
 18 49  1  0
M  END
>  <PDBID>  (1) 
3NYA

>  <PDB ID>  (1) 
3NYA

>  <Generic Name>  (1) 
Alprenolol

>  <Brand Name>  (1) 
Apllobal#Aptin#Aptine#Aptol Duriles#Atenenol#Elp#Gubernal#Regletin#Skajilol#Yobir

>  <DrugBank ID>  (1) 
DB00866

>  <ATC Codes>  (1) 
C07AA01

>  <Ligand ID>  (1) 
JTZ

>  <Target Name>  (1) 
Beta-1 adrenergic receptor

>  <UniProt ID>  (1) 
P08588

>  <PDB ID.1>  (1) 
3NYA

>  <Seq. Identity>  (1) 
67%

$$$$
