PDB_DB03849_03
     RDKit          3D

124128  0  0  0  0  0  0  0  0999 V2000
    5.7250   -0.1352    0.6639 O   0  0  0  0  0  0  0  0  0  0  0  0
    5.4415    1.2081    0.6014 C   0  0  0  0  0  0  0  0  0  0  0  0
    5.8484    1.8187    1.8028 O   0  0  0  0  0  0  0  0  0  0  0  0
    3.9633    1.4845    0.3440 C   0  0  0  0  0  0  0  0  0  0  0  0
    3.0898    0.9226    1.4074 C   0  0  0  0  0  0  0  0  0  0  0  0
    2.5681   -0.4445    1.1707 C   0  0  0  0  0  0  0  0  0  0  0  0
    3.6342    1.0569   -1.0445 C   0  0  0  0  0  0  0  0  0  0  0  0
    2.2130    0.5272   -1.0844 C   0  0  0  0  0  0  0  0  0  0  0  0
    2.0095   -0.6763   -0.2040 C   0  0  0  0  0  0  0  0  0  0  0  0
    2.8023   -1.8373   -0.7862 C   0  0  0  0  0  0  0  0  0  0  0  0
    2.4201   -2.2188   -2.0993 N   0  0  0  0  0  0  0  0  0  0  0  0
    0.5694   -1.0468   -0.2090 C   0  0  0  0  0  0  0  0  0  0  0  0
    0.2712   -2.3267    0.5395 C   0  0  0  0  0  0  0  0  0  0  0  0
   -1.0779   -2.8183   -0.0053 C   0  0  0  0  0  0  0  0  0  0  0  0
   -2.1202   -1.7944    0.3919 C   0  0  0  0  0  0  0  0  0  0  0  0
   -3.3096   -2.1577   -0.1924 O   0  0  0  0  0  0  0  0  0  0  0  0
   -4.3015   -2.4587    0.7371 C   0  0  0  0  0  0  0  0  0  0  0  0
   -1.7655   -0.4122   -0.0498 C   0  0  0  0  0  0  0  0  0  0  0  0
   -0.3507   -0.0099    0.3917 C   0  0  0  0  0  0  0  0  0  0  0  0
   -2.7070    0.4830    0.3863 O   0  0  0  0  0  0  0  0  0  0  0  0
   -3.3357    1.1588   -0.6445 C   0  0  0  0  0  0  0  0  0  0  0  0
   -4.8202    1.0251   -0.6541 C   0  0  0  0  0  0  0  0  0  0  0  0
   -5.4022    2.2388    0.0269 C   0  0  0  0  0  0  0  0  0  0  0  0
   -4.2599    3.1898    0.2851 C   0  0  0  0  0  0  0  0  0  0  0  0
   -3.1306    2.6550   -0.5617 C   0  0  0  0  0  0  0  0  0  0  0  0
    5.7250   -0.1352    0.6639 O   0  0  0  0  0  0  0  0  0  0  0  0
    5.4415    1.2081    0.6014 C   0  0  0  0  0  0  0  0  0  0  0  0
    5.8484    1.8187    1.8028 O   0  0  0  0  0  0  0  0  0  0  0  0
    3.9633    1.4845    0.3440 C   0  0  0  0  0  0  0  0  0  0  0  0
    3.0898    0.9226    1.4074 C   0  0  0  0  0  0  0  0  0  0  0  0
    2.5681   -0.4445    1.1707 C   0  0  0  0  0  0  0  0  0  0  0  0
    3.6342    1.0569   -1.0445 C   0  0  0  0  0  0  0  0  0  0  0  0
    2.2130    0.5272   -1.0844 C   0  0  0  0  0  0  0  0  0  0  0  0
    2.0095   -0.6763   -0.2040 C   0  0  0  0  0  0  0  0  0  0  0  0
    2.8023   -1.8373   -0.7862 C   0  0  0  0  0  0  0  0  0  0  0  0
    2.4201   -2.2188   -2.0993 N   0  0  0  0  0  0  0  0  0  0  0  0
    0.5694   -1.0468   -0.2090 C   0  0  0  0  0  0  0  0  0  0  0  0
    0.2712   -2.3267    0.5395 C   0  0  0  0  0  0  0  0  0  0  0  0
   -1.0779   -2.8183   -0.0053 C   0  0  0  0  0  0  0  0  0  0  0  0
   -2.1202   -1.7944    0.3919 C   0  0  0  0  0  0  0  0  0  0  0  0
   -3.3096   -2.1577   -0.1924 O   0  0  0  0  0  0  0  0  0  0  0  0
   -4.3015   -2.4587    0.7371 C   0  0  0  0  0  0  0  0  0  0  0  0
   -1.7655   -0.4122   -0.0498 C   0  0  0  0  0  0  0  0  0  0  0  0
   -0.3507   -0.0099    0.3917 C   0  0  0  0  0  0  0  0  0  0  0  0
   -2.7070    0.4830    0.3863 O   0  0  0  0  0  0  0  0  0  0  0  0
   -3.3357    1.1588   -0.6445 C   0  0  0  0  0  0  0  0  0  0  0  0
   -4.8202    1.0251   -0.6541 C   0  0  0  0  0  0  0  0  0  0  0  0
   -5.4022    2.2388    0.0269 C   0  0  0  0  0  0  0  0  0  0  0  0
   -4.2599    3.1898    0.2851 C   0  0  0  0  0  0  0  0  0  0  0  0
   -3.1306    2.6550   -0.5617 C   0  0  0  0  0  0  0  0  0  0  0  0
    5.7961   -0.4246    1.6238 H   0  0  0  0  0  0  0  0  0  0  0  0
    6.0641    1.6688   -0.1917 H   0  0  0  0  0  0  0  0  0  0  0  0
    5.6741    2.7964    1.7141 H   0  0  0  0  0  0  0  0  0  0  0  0
    3.8768    2.6099    0.4223 H   0  0  0  0  0  0  0  0  0  0  0  0
    2.2351    1.6122    1.6714 H   0  0  0  0  0  0  0  0  0  0  0  0
    3.7002    0.8877    2.3550 H   0  0  0  0  0  0  0  0  0  0  0  0
    3.3435   -1.1746    1.4729 H   0  0  0  0  0  0  0  0  0  0  0  0
    1.7204   -0.6101    1.8972 H   0  0  0  0  0  0  0  0  0  0  0  0
    4.3806    0.3979   -1.4807 H   0  0  0  0  0  0  0  0  0  0  0  0
    3.6141    1.9665   -1.7163 H   0  0  0  0  0  0  0  0  0  0  0  0
    1.9168    0.3086   -2.1270 H   0  0  0  0  0  0  0  0  0  0  0  0
    1.5844    1.3849   -0.7680 H   0  0  0  0  0  0  0  0  0  0  0  0
    3.8677   -1.4632   -0.8640 H   0  0  0  0  0  0  0  0  0  0  0  0
    2.8858   -2.6714   -0.0532 H   0  0  0  0  0  0  0  0  0  0  0  0
    1.7102   -1.6634   -2.5760 H   0  0  0  0  0  0  0  0  0  0  0  0
    2.4168   -3.2317   -2.2952 H   0  0  0  0  0  0  0  0  0  0  0  0
    0.2365   -1.1922   -1.2559 H   0  0  0  0  0  0  0  0  0  0  0  0
    0.9687   -3.1401    0.3746 H   0  0  0  0  0  0  0  0  0  0  0  0
    0.0986   -2.0834    1.6006 H   0  0  0  0  0  0  0  0  0  0  0  0
   -1.0008   -2.8333   -1.1069 H   0  0  0  0  0  0  0  0  0  0  0  0
   -1.3611   -3.7803    0.4427 H   0  0  0  0  0  0  0  0  0  0  0  0
   -2.2613   -1.8355    1.4930 H   0  0  0  0  0  0  0  0  0  0  0  0
   -4.4834   -1.5759    1.3566 H   0  0  0  0  0  0  0  0  0  0  0  0
   -4.0772   -3.3761    1.2893 H   0  0  0  0  0  0  0  0  0  0  0  0
   -5.2408   -2.6220    0.1355 H   0  0  0  0  0  0  0  0  0  0  0  0
   -1.7337   -0.3783   -1.1643 H   0  0  0  0  0  0  0  0  0  0  0  0
   -0.2100    1.0055    0.0420 H   0  0  0  0  0  0  0  0  0  0  0  0
   -0.3274   -0.1041    1.5103 H   0  0  0  0  0  0  0  0  0  0  0  0
   -2.9206    0.8098   -1.6172 H   0  0  0  0  0  0  0  0  0  0  0  0
   -5.2200    0.1394   -0.1645 H   0  0  0  0  0  0  0  0  0  0  0  0
   -5.1885    1.0139   -1.7088 H   0  0  0  0  0  0  0  0  0  0  0  0
   -5.8830    2.0014    0.9932 H   0  0  0  0  0  0  0  0  0  0  0  0
   -6.1910    2.7080   -0.6061 H   0  0  0  0  0  0  0  0  0  0  0  0
   -3.9965    3.2289    1.3680 H   0  0  0  0  0  0  0  0  0  0  0  0
   -4.5708    4.1915   -0.0862 H   0  0  0  0  0  0  0  0  0  0  0  0
   -3.2136    3.0856   -1.5679 H   0  0  0  0  0  0  0  0  0  0  0  0
   -2.1856    2.9109   -0.0717 H   0  0  0  0  0  0  0  0  0  0  0  0
    5.7961   -0.4246    1.6238 H   0  0  0  0  0  0  0  0  0  0  0  0
    6.0641    1.6688   -0.1917 H   0  0  0  0  0  0  0  0  0  0  0  0
    5.6741    2.7964    1.7141 H   0  0  0  0  0  0  0  0  0  0  0  0
    3.8768    2.6099    0.4223 H   0  0  0  0  0  0  0  0  0  0  0  0
    2.2351    1.6122    1.6714 H   0  0  0  0  0  0  0  0  0  0  0  0
    3.7002    0.8877    2.3550 H   0  0  0  0  0  0  0  0  0  0  0  0
    3.3435   -1.1746    1.4729 H   0  0  0  0  0  0  0  0  0  0  0  0
    1.7204   -0.6101    1.8972 H   0  0  0  0  0  0  0  0  0  0  0  0
    4.3806    0.3979   -1.4807 H   0  0  0  0  0  0  0  0  0  0  0  0
    3.6141    1.9665   -1.7163 H   0  0  0  0  0  0  0  0  0  0  0  0
    1.9168    0.3086   -2.1270 H   0  0  0  0  0  0  0  0  0  0  0  0
    1.5844    1.3849   -0.7680 H   0  0  0  0  0  0  0  0  0  0  0  0
    3.8677   -1.4632   -0.8640 H   0  0  0  0  0  0  0  0  0  0  0  0
    2.8858   -2.6714   -0.0532 H   0  0  0  0  0  0  0  0  0  0  0  0
    1.7102   -1.6634   -2.5760 H   0  0  0  0  0  0  0  0  0  0  0  0
    2.4168   -3.2317   -2.2952 H   0  0  0  0  0  0  0  0  0  0  0  0
    0.2365   -1.1922   -1.2559 H   0  0  0  0  0  0  0  0  0  0  0  0
    0.9687   -3.1401    0.3746 H   0  0  0  0  0  0  0  0  0  0  0  0
    0.0986   -2.0834    1.6006 H   0  0  0  0  0  0  0  0  0  0  0  0
   -1.0008   -2.8333   -1.1069 H   0  0  0  0  0  0  0  0  0  0  0  0
   -1.3611   -3.7803    0.4427 H   0  0  0  0  0  0  0  0  0  0  0  0
   -2.2613   -1.8355    1.4930 H   0  0  0  0  0  0  0  0  0  0  0  0
   -4.4834   -1.5759    1.3566 H   0  0  0  0  0  0  0  0  0  0  0  0
   -4.0772   -3.3761    1.2893 H   0  0  0  0  0  0  0  0  0  0  0  0
   -5.2408   -2.6220    0.1355 H   0  0  0  0  0  0  0  0  0  0  0  0
   -1.7337   -0.3783   -1.1643 H   0  0  0  0  0  0  0  0  0  0  0  0
   -0.2100    1.0055    0.0420 H   0  0  0  0  0  0  0  0  0  0  0  0
   -0.3274   -0.1041    1.5103 H   0  0  0  0  0  0  0  0  0  0  0  0
   -2.9206    0.8098   -1.6172 H   0  0  0  0  0  0  0  0  0  0  0  0
   -5.2200    0.1394   -0.1645 H   0  0  0  0  0  0  0  0  0  0  0  0
   -5.1885    1.0139   -1.7088 H   0  0  0  0  0  0  0  0  0  0  0  0
   -5.8830    2.0014    0.9932 H   0  0  0  0  0  0  0  0  0  0  0  0
   -6.1910    2.7080   -0.6061 H   0  0  0  0  0  0  0  0  0  0  0  0
   -3.9965    3.2289    1.3680 H   0  0  0  0  0  0  0  0  0  0  0  0
   -4.5708    4.1915   -0.0862 H   0  0  0  0  0  0  0  0  0  0  0  0
   -3.2136    3.0856   -1.5679 H   0  0  0  0  0  0  0  0  0  0  0  0
   -2.1856    2.9109   -0.0717 H   0  0  0  0  0  0  0  0  0  0  0  0
  1  2  1  0
  2  3  1  0
  2  4  1  0
  4  5  1  0
  5  6  1  0
  4  7  1  0
  7  8  1  0
  6  9  1  0
  8  9  1  0
  9 10  1  0
 10 11  1  0
  9 12  1  0
 12 13  1  0
 13 14  1  0
 14 15  1  0
 15 16  1  0
 16 17  1  0
 15 18  1  0
 12 19  1  0
 18 19  1  0
 18 20  1  0
 20 21  1  0
 21 22  1  0
 22 23  1  0
 23 24  1  0
 21 25  1  0
 24 25  1  0
 26 27  1  0
 27 28  1  0
 27 29  1  0
 29 30  1  0
 30 31  1  0
 29 32  1  0
 32 33  1  0
 31 34  1  0
 33 34  1  0
 34 35  1  0
 35 36  1  0
 34 37  1  0
 37 38  1  0
 38 39  1  0
 39 40  1  0
 40 41  1  0
 41 42  1  0
 40 43  1  0
 37 44  1  0
 43 44  1  0
 43 45  1  0
 45 46  1  0
 46 47  1  0
 47 48  1  0
 48 49  1  0
 46 50  1  0
 49 50  1  0
  1 51  1  0
  2 52  1  0
  3 53  1  0
  4 54  1  0
  5 55  1  0
  5 56  1  0
  6 57  1  0
  6 58  1  0
  7 59  1  0
  7 60  1  0
  8 61  1  0
  8 62  1  0
 10 63  1  0
 10 64  1  0
 11 65  1  0
 11 66  1  0
 12 67  1  0
 13 68  1  0
 13 69  1  0
 14 70  1  0
 14 71  1  0
 15 72  1  0
 17 73  1  0
 17 74  1  0
 17 75  1  0
 18 76  1  0
 19 77  1  0
 19 78  1  0
 21 79  1  0
 22 80  1  0
 22 81  1  0
 23 82  1  0
 23 83  1  0
 24 84  1  0
 24 85  1  0
 25 86  1  0
 25 87  1  0
 26 88  1  0
 27 89  1  0
 28 90  1  0
 29 91  1  0
 30 92  1  0
 30 93  1  0
 31 94  1  0
 31 95  1  0
 32 96  1  0
 32 97  1  0
 33 98  1  0
 33 99  1  0
 35100  1  0
 35101  1  0
 36102  1  0
 36103  1  0
 37104  1  0
 38105  1  0
 38106  1  0
 39107  1  0
 39108  1  0
 40109  1  0
 42110  1  0
 42111  1  0
 42112  1  0
 43113  1  0
 44114  1  0
 44115  1  0
 46116  1  0
 47117  1  0
 47118  1  0
 48119  1  0
 48120  1  0
 49121  1  0
 49122  1  0
 50123  1  0
 50124  1  0
M  END
>  <PDBID>  (1) 
1XLX

>  <PDB ID>  (1) 
1XLX

>  <Generic Name>  (1) 
Cilomilast

>  <Brand Name>  (1) 
nan

>  <DrugBank ID>  (1) 
DB03849

>  <ATC Codes>  (1) 
nan

>  <Ligand ID>  (1) 
CIO

>  <Target Name>  (1) 
cAMP-specific 3',5'-cyclic phosphodiesterase 4B

>  <UniProt ID>  (1) 
Q07343

>  <PDB ID.1>  (1) 
1XLX

>  <Seq. Identity>  (1) 
97%

$$$$
