PDB_DB00275_08
     RDKit          3D

 81 84  0  0  0  0  0  0  0  0999 V2000
    1.9720    0.1176    1.3364 C   0  0  0  0  0  0  0  0  0  0  0  0
    0.6272    0.7586    1.5594 C   0  0  0  0  0  0  0  0  0  0  0  0
   -5.9787   -2.7489    0.8176 O   0  0  0  0  0  0  0  0  0  0  0  0
   -0.3727    0.5417    0.4788 C   0  0  0  0  0  0  0  0  0  0  0  0
   -3.6005   -3.7439    0.4043 O   0  0  0  0  0  0  0  0  0  0  0  0
   -1.6705    0.0433    1.1050 C   0  0  0  0  0  0  0  0  0  0  0  0
   -2.4188   -2.6413   -1.2301 O   0  0  0  0  0  0  0  0  0  0  0  0
   -3.5955    4.2141    1.0374 C   0  0  0  0  0  0  0  0  0  0  0  0
   -2.9371    2.9275    0.5419 C   0  0  0  0  0  0  0  0  0  0  0  0
   -3.9244    1.9853   -0.0323 C   0  0  0  0  0  0  0  0  0  0  0  0
   -3.3838    0.7129   -0.5433 C   0  0  0  0  0  0  0  0  0  0  0  0
   -4.5358   -0.0415   -1.1276 N   0  0  0  0  0  0  0  0  0  0  0  0
   -4.6448   -1.2731   -0.4560 C   0  0  0  0  0  0  0  0  0  0  0  0
   -5.9871   -1.5078    0.1969 C   0  0  0  0  0  0  0  0  0  0  0  0
   -6.3998   -0.4699    1.1782 C   0  0  0  0  0  0  0  0  0  0  0  0
   -7.0329   -1.5645   -0.8975 C   0  0  0  0  0  0  0  0  0  0  0  0
   -3.4838   -1.3637    0.4520 C   0  0  0  0  0  0  0  0  0  0  0  0
   -2.7587   -2.6664    0.1225 C   0  0  0  0  0  0  0  0  0  0  0  0
   -2.7030   -0.2019    0.2089 N   0  0  0  0  0  0  0  0  0  0  0  0
    0.1594   -0.4996   -0.4623 C   0  0  0  0  0  0  0  0  0  0  0  0
    1.4252    0.0081   -1.0920 C   0  0  0  0  0  0  0  0  0  0  0  0
    2.4471    0.4809   -0.0501 C   0  0  0  0  0  0  0  0  0  0  0  0
    3.7817   -0.0523   -0.4360 C   0  0  0  0  0  0  0  0  0  0  0  0
    4.0780    0.4799   -1.8291 C   0  0  0  0  0  0  0  0  0  0  0  0
    4.6071    1.8868   -1.7216 C   0  0  0  0  0  0  0  0  0  0  0  0
    5.9387    1.7526   -1.0300 C   0  0  0  0  0  0  0  0  0  0  0  0
    5.7887    1.2481    0.3760 C   0  0  0  0  0  0  0  0  0  0  0  0
    4.8964    0.0518    0.5121 C   0  0  0  0  0  0  0  0  0  0  0  0
    5.7390   -1.2353    0.5473 C   0  0  0  0  0  0  0  0  0  0  0  0
    6.8278   -1.1818    1.4482 N   0  0  0  0  0  0  0  0  0  0  0  0
    7.9875   -1.4679    0.7675 N   0  0  0  0  0  0  0  0  0  0  0  0
    7.6871   -1.5142   -0.5938 N   0  0  0  0  0  0  0  0  0  0  0  0
    6.3216   -1.5757   -0.6842 N   0  0  0  0  0  0  0  0  0  0  0  0
    2.6510    0.6576    2.0502 H   0  0  0  0  0  0  0  0  0  0  0  0
    1.8717   -0.9516    1.5245 H   0  0  0  0  0  0  0  0  0  0  0  0
    0.7222    1.8811    1.6778 H   0  0  0  0  0  0  0  0  0  0  0  0
    0.1787    0.4361    2.5286 H   0  0  0  0  0  0  0  0  0  0  0  0
   -6.3444   -3.4437    0.2464 H   0  0  0  0  0  0  0  0  0  0  0  0
   -0.6002    1.4464   -0.1119 H   0  0  0  0  0  0  0  0  0  0  0  0
   -3.4582   -4.0834    1.3040 H   0  0  0  0  0  0  0  0  0  0  0  0
   -1.3755   -1.0127    1.5104 H   0  0  0  0  0  0  0  0  0  0  0  0
   -1.8486    0.5730    2.0363 H   0  0  0  0  0  0  0  0  0  0  0  0
   -1.5879   -3.1568   -1.4116 H   0  0  0  0  0  0  0  0  0  0  0  0
   -4.4817    4.4577    0.4506 H   0  0  0  0  0  0  0  0  0  0  0  0
   -2.8473    5.0201    0.9158 H   0  0  0  0  0  0  0  0  0  0  0  0
   -3.8145    4.1464    2.1272 H   0  0  0  0  0  0  0  0  0  0  0  0
   -2.2972    3.2765   -0.3351 H   0  0  0  0  0  0  0  0  0  0  0  0
   -2.2471    2.5899    1.2904 H   0  0  0  0  0  0  0  0  0  0  0  0
   -4.8370    1.8654    0.6055 H   0  0  0  0  0  0  0  0  0  0  0  0
   -4.3544    2.5311   -0.9415 H   0  0  0  0  0  0  0  0  0  0  0  0
   -2.7816    0.9498   -1.4844 H   0  0  0  0  0  0  0  0  0  0  0  0
   -5.3855    0.5303   -1.0687 H   0  0  0  0  0  0  0  0  0  0  0  0
   -4.5738   -2.0931   -1.2375 H   0  0  0  0  0  0  0  0  0  0  0  0
   -7.2518   -0.9127    1.7736 H   0  0  0  0  0  0  0  0  0  0  0  0
   -6.8647    0.4124    0.6626 H   0  0  0  0  0  0  0  0  0  0  0  0
   -5.6413   -0.1753    1.9058 H   0  0  0  0  0  0  0  0  0  0  0  0
   -7.8369   -2.2399   -0.5477 H   0  0  0  0  0  0  0  0  0  0  0  0
   -7.4616   -0.5581   -0.9958 H   0  0  0  0  0  0  0  0  0  0  0  0
   -6.5880   -1.9118   -1.8499 H   0  0  0  0  0  0  0  0  0  0  0  0
   -3.7595   -1.3401    1.5366 H   0  0  0  0  0  0  0  0  0  0  0  0
   -1.8521   -2.7465    0.7110 H   0  0  0  0  0  0  0  0  0  0  0  0
   -0.5539   -0.6654   -1.3019 H   0  0  0  0  0  0  0  0  0  0  0  0
    0.3934   -1.4318    0.0786 H   0  0  0  0  0  0  0  0  0  0  0  0
    1.2335    0.8164   -1.7894 H   0  0  0  0  0  0  0  0  0  0  0  0
    1.9191   -0.8312   -1.6644 H   0  0  0  0  0  0  0  0  0  0  0  0
    2.4215    1.5901   -0.0946 H   0  0  0  0  0  0  0  0  0  0  0  0
    3.6467   -1.1675   -0.6332 H   0  0  0  0  0  0  0  0  0  0  0  0
    4.8408   -0.1133   -2.3596 H   0  0  0  0  0  0  0  0  0  0  0  0
    3.1560    0.5305   -2.4054 H   0  0  0  0  0  0  0  0  0  0  0  0
    3.9248    2.5633   -1.1860 H   0  0  0  0  0  0  0  0  0  0  0  0
    4.7935    2.2680   -2.7286 H   0  0  0  0  0  0  0  0  0  0  0  0
    6.5405    1.0211   -1.6079 H   0  0  0  0  0  0  0  0  0  0  0  0
    6.4822    2.7002   -1.0088 H   0  0  0  0  0  0  0  0  0  0  0  0
    6.8093    0.9883    0.7259 H   0  0  0  0  0  0  0  0  0  0  0  0
    5.4619    2.1110    0.9970 H   0  0  0  0  0  0  0  0  0  0  0  0
    4.4969    0.0851    1.5475 H   0  0  0  0  0  0  0  0  0  0  0  0
    5.0636   -2.0747    0.8739 H   0  0  0  0  0  0  0  0  0  0  0  0
    6.8587   -0.4555    2.1541 H   0  0  0  0  0  0  0  0  0  0  0  0
    8.2610   -2.4591    1.0286 H   0  0  0  0  0  0  0  0  0  0  0  0
    8.1432   -0.7524   -1.1389 H   0  0  0  0  0  0  0  0  0  0  0  0
    5.9180   -2.3310   -1.2220 H   0  0  0  0  0  0  0  0  0  0  0  0
  1  2  1  0
  2  4  1  0
  4  6  1  0
  8  9  1  0
  9 10  1  0
 10 11  1  0
 11 12  1  0
 12 13  1  0
 14  3  1  0
 13 14  1  0
 14 15  1  0
 14 16  1  0
 13 17  1  0
  5 18  1  0
  7 18  1  0
 17 18  1  0
  6 19  1  0
 11 19  1  0
 17 19  1  0
  4 20  1  0
 20 21  1  0
  1 22  1  0
 21 22  1  0
 22 23  1  0
 23 24  1  0
 24 25  1  0
 25 26  1  0
 26 27  1  0
 23 28  1  0
 27 28  1  0
 28 29  1  0
 29 30  1  0
 30 31  1  0
 31 32  1  0
 29 33  1  0
 32 33  1  0
  1 34  1  0
  1 35  1  0
  2 36  1  0
  2 37  1  0
  3 38  1  0
  4 39  1  0
  5 40  1  0
  6 41  1  0
  6 42  1  0
  7 43  1  0
  8 44  1  0
  8 45  1  0
  8 46  1  0
  9 47  1  0
  9 48  1  0
 10 49  1  0
 10 50  1  0
 11 51  1  0
 12 52  1  0
 13 53  1  0
 15 54  1  0
 15 55  1  0
 15 56  1  0
 16 57  1  0
 16 58  1  0
 16 59  1  0
 17 60  1  0
 18 61  1  0
 20 62  1  0
 20 63  1  0
 21 64  1  0
 21 65  1  0
 22 66  1  0
 23 67  1  0
 24 68  1  0
 24 69  1  0
 25 70  1  0
 25 71  1  0
 26 72  1  0
 26 73  1  0
 27 74  1  0
 27 75  1  0
 28 76  1  0
 29 77  1  0
 30 78  1  0
 31 79  1  0
 32 80  1  0
 33 81  1  0
M  END
>  <PDBID>  (1) 
4ZUD

>  <PDB ID>  (1) 
4ZUD

>  <Generic Name>  (1) 
Olmesartan

>  <Brand Name>  (1) 
Amlodipine Besylate and Olmesartan Medoxomil#Amlodipine and Olmesartan Medoxomil#Azor#Benicar#Benicar Hct#Olmesartan Medoxmil and Hydrochlorothiazide#Olmesartan Medoxomil#Olmesartan Medoxomil / Amlodipine Besylate / Hydrochlorothiazide#Olmesartan Medoxomil and Hydrochlorothiazide#Olmesartan Medoxomil, Amlodipine and Hydrochlorothiazide#Olmesartan Medoxomil, Amlodipine and Hydrochlorothiazide 20/5/12.5 mg#Olmesartan Medoxomil, Amlodipine and Hydrochlorothiazide 40/10/12.5 mg#Olmesartan Medoxomil, Amlodipine and Hydrochlorothiazide 40/10/25 mg#Olmesartan Medoxomil, Amlodipine and Hydrochlorothiazide 40/5/12.5 mg#Olmesartan Medoxomil, Amlodipine and Hydrochlorothiazide 40/5/25 mg#Olmetec#Olmetec Plus#Tribenzor#Erastapex#Golme#Olmetec#WinBP

>  <DrugBank ID>  (1) 
DB00275

>  <ATC Codes>  (1) 
C09DA08#C09CA08#C09DX03#C09DB02

>  <Ligand ID>  (1) 
OLM

>  <Target Name>  (1) 
Type-1 angiotensin II receptor

>  <UniProt ID>  (1) 
P30556

>  <PDB ID.1>  (1) 
4ZUD

>  <Seq. Identity>  (1) 
87%

$$$$
