PDB_DB00530_03
     RDKit          3D

 72 74  0  0  0  0  0  0  0  0999 V2000
    4.5738    2.3800   -0.7305 C   0  0  0  0  0  0  0  0  0  0  0  0
    5.0028    1.3022   -1.6721 C   0  0  0  0  0  0  0  0  0  0  0  0
    4.9518   -0.0848   -1.1319 C   0  0  0  0  0  0  0  0  0  0  0  0
    3.5438   -0.5049   -0.6935 C   0  0  0  0  0  0  0  0  0  0  0  0
    3.4103   -0.3900    0.7860 C   0  0  0  0  0  0  0  0  0  0  0  0
    2.1729   -0.1608    1.3262 N   0  0  0  0  0  0  0  0  0  0  0  0
    1.0622   -0.9815    1.2468 C   0  0  0  0  0  0  0  0  0  0  0  0
    0.4061   -1.1785   -0.0834 C   0  0  0  0  0  0  0  0  0  0  0  0
   -0.0366    0.0779   -0.7517 C   0  0  0  0  0  0  0  0  0  0  0  0
   -1.3791    0.5631   -0.3359 C   0  0  0  0  0  0  0  0  0  0  0  0
   -1.7172    1.7669   -0.9480 O   0  0  0  0  0  0  0  0  0  0  0  0
   -1.7583    2.8636   -0.1193 C   0  0  0  0  0  0  0  0  0  0  0  0
   -2.0799    4.0740   -0.9512 C   0  0  0  0  0  0  0  0  0  0  0  0
   -3.2925    3.9511   -1.5807 O   0  0  0  0  0  0  0  0  0  0  0  0
   -4.3653    3.8612   -0.7460 C   0  0  0  0  0  0  0  0  0  0  0  0
   -2.4135   -0.5013   -0.5587 C   0  0  0  0  0  0  0  0  0  0  0  0
   -3.2612   -0.6500    0.5341 O   0  0  0  0  0  0  0  0  0  0  0  0
   -4.5757   -0.3868    0.3202 C   0  0  0  0  0  0  0  0  0  0  0  0
   -5.2649   -1.2634   -0.6972 C   0  0  0  0  0  0  0  0  0  0  0  0
   -5.2656   -2.5998   -0.3992 O   0  0  0  0  0  0  0  0  0  0  0  0
   -5.8980   -2.9066    0.7924 C   0  0  0  0  0  0  0  0  0  0  0  0
   -1.8130   -1.8344   -0.9662 C   0  0  0  0  0  0  0  0  0  0  0  0
   -0.7272   -2.1674    0.0802 C   0  0  0  0  0  0  0  0  0  0  0  0
   -1.3690   -2.2407    1.3178 N   0  0  0  0  0  0  0  0  0  0  0  0
   -0.9502   -1.4945    2.4243 C   0  0  0  0  0  0  0  0  0  0  0  0
    0.0436   -0.4699    2.1730 N   0  0  0  0  0  0  0  0  0  0  0  0
    4.2342   -1.4820    1.4851 C   0  0  0  0  0  0  0  0  0  0  0  0
    5.5806   -1.5094    0.7962 C   0  0  0  0  0  0  0  0  0  0  0  0
    5.8968   -0.2683    0.0167 C   0  0  0  0  0  0  0  0  0  0  0  0
    3.5183    2.3078   -0.4681 H   0  0  0  0  0  0  0  0  0  0  0  0
    4.7624    3.3547   -1.2759 H   0  0  0  0  0  0  0  0  0  0  0  0
    5.2048    2.4535    0.1795 H   0  0  0  0  0  0  0  0  0  0  0  0
    4.3673    1.4115   -2.5912 H   0  0  0  0  0  0  0  0  0  0  0  0
    6.0604    1.5102   -2.0003 H   0  0  0  0  0  0  0  0  0  0  0  0
    5.2533   -0.8170   -1.9173 H   0  0  0  0  0  0  0  0  0  0  0  0
    3.3868   -1.5811   -0.9906 H   0  0  0  0  0  0  0  0  0  0  0  0
    2.8351    0.1443   -1.2027 H   0  0  0  0  0  0  0  0  0  0  0  0
    4.0539    0.5482    1.0371 H   0  0  0  0  0  0  0  0  0  0  0  0
    2.0373    0.7800    1.7626 H   0  0  0  0  0  0  0  0  0  0  0  0
    1.2821   -2.0410    1.6069 H   0  0  0  0  0  0  0  0  0  0  0  0
    1.1483   -1.7209   -0.7362 H   0  0  0  0  0  0  0  0  0  0  0  0
   -0.0671   -0.1132   -1.8658 H   0  0  0  0  0  0  0  0  0  0  0  0
    0.7339    0.8618   -0.5196 H   0  0  0  0  0  0  0  0  0  0  0  0
   -1.2663    0.8566    0.7519 H   0  0  0  0  0  0  0  0  0  0  0  0
   -2.5506    2.7102    0.6320 H   0  0  0  0  0  0  0  0  0  0  0  0
   -0.8276    2.9993    0.4749 H   0  0  0  0  0  0  0  0  0  0  0  0
   -2.0916    4.9975   -0.3274 H   0  0  0  0  0  0  0  0  0  0  0  0
   -1.3166    4.1868   -1.7826 H   0  0  0  0  0  0  0  0  0  0  0  0
   -4.3787    3.0203   -0.0518 H   0  0  0  0  0  0  0  0  0  0  0  0
   -4.5069    4.7966   -0.1242 H   0  0  0  0  0  0  0  0  0  0  0  0
   -5.3323    3.8129   -1.3336 H   0  0  0  0  0  0  0  0  0  0  0  0
   -3.0493   -0.1761   -1.4131 H   0  0  0  0  0  0  0  0  0  0  0  0
   -4.6310    0.6803   -0.0538 H   0  0  0  0  0  0  0  0  0  0  0  0
   -5.1980   -0.3840    1.2357 H   0  0  0  0  0  0  0  0  0  0  0  0
   -4.8249   -1.1210   -1.7192 H   0  0  0  0  0  0  0  0  0  0  0  0
   -6.3401   -0.9484   -0.8318 H   0  0  0  0  0  0  0  0  0  0  0  0
   -5.3620   -2.3699    1.6053 H   0  0  0  0  0  0  0  0  0  0  0  0
   -5.9285   -3.9948    0.9901 H   0  0  0  0  0  0  0  0  0  0  0  0
   -6.9443   -2.4863    0.7956 H   0  0  0  0  0  0  0  0  0  0  0  0
   -2.6105   -2.5933   -0.9418 H   0  0  0  0  0  0  0  0  0  0  0  0
   -1.4098   -1.7660   -1.9772 H   0  0  0  0  0  0  0  0  0  0  0  0
   -0.3540   -3.1666   -0.2007 H   0  0  0  0  0  0  0  0  0  0  0  0
   -1.6341   -3.2071    1.5499 H   0  0  0  0  0  0  0  0  0  0  0  0
   -1.8369   -0.9616    2.8713 H   0  0  0  0  0  0  0  0  0  0  0  0
   -0.5485   -2.1091    3.2786 H   0  0  0  0  0  0  0  0  0  0  0  0
    0.4898   -0.1183    3.0244 H   0  0  0  0  0  0  0  0  0  0  0  0
    4.3641   -1.1979    2.5310 H   0  0  0  0  0  0  0  0  0  0  0  0
    3.7925   -2.4705    1.4154 H   0  0  0  0  0  0  0  0  0  0  0  0
    5.6664   -2.3873    0.1246 H   0  0  0  0  0  0  0  0  0  0  0  0
    6.3956   -1.6374    1.5584 H   0  0  0  0  0  0  0  0  0  0  0  0
    6.0368    0.6233    0.6538 H   0  0  0  0  0  0  0  0  0  0  0  0
    6.9088   -0.4522   -0.4410 H   0  0  0  0  0  0  0  0  0  0  0  0
  1  2  1  0
  2  3  1  0
  3  4  1  0
  4  5  1  0
  5  6  1  0
  6  7  1  0
  7  8  1  0
  8  9  1  0
  9 10  1  0
 10 11  1  0
 11 12  1  0
 12 13  1  0
 13 14  1  0
 14 15  1  0
 10 16  1  0
 16 17  1  0
 17 18  1  0
 18 19  1  0
 19 20  1  0
 20 21  1  0
 16 22  1  0
  8 23  1  0
 22 23  1  0
 23 24  1  0
 24 25  1  0
  7 26  1  0
 25 26  1  0
  5 27  1  0
 27 28  1  0
  3 29  1  0
 28 29  1  0
  1 30  1  0
  1 31  1  0
  1 32  1  0
  2 33  1  0
  2 34  1  0
  3 35  1  0
  4 36  1  0
  4 37  1  0
  5 38  1  0
  6 39  1  0
  7 40  1  0
  8 41  1  0
  9 42  1  0
  9 43  1  0
 10 44  1  0
 12 45  1  0
 12 46  1  0
 13 47  1  0
 13 48  1  0
 15 49  1  0
 15 50  1  0
 15 51  1  0
 16 52  1  0
 18 53  1  0
 18 54  1  0
 19 55  1  0
 19 56  1  0
 21 57  1  0
 21 58  1  0
 21 59  1  0
 22 60  1  0
 22 61  1  0
 23 62  1  0
 24 63  1  0
 25 64  1  0
 25 65  1  0
 26 66  1  0
 27 67  1  0
 27 68  1  0
 28 69  1  0
 28 70  1  0
 29 71  1  0
 29 72  1  0
M  END
>  <PDBID>  (1) 
1M17

>  <PDB ID>  (1) 
1M17

>  <Generic Name>  (1) 
Erlotinib

>  <Brand Name>  (1) 
PMS-erlotinib#Tarceva#Teva-erlotinib

>  <DrugBank ID>  (1) 
DB00530

>  <ATC Codes>  (1) 
L01XE03

>  <Ligand ID>  (1) 
AQ4

>  <Target Name>  (1) 
Epidermal growth factor receptor

>  <UniProt ID>  (1) 
P00533

>  <PDB ID.1>  (1) 
1M17

>  <Seq. Identity>  (1) 
96%

$$$$
