PDB_DB01095_00
     RDKit          3D

296304  0  0  0  0  0  0  0  0999 V2000
   -2.3179    1.0066    0.3047 C   0  0  0  0  0  0  0  0  0  0  0  0
   -1.2862    1.8645   -0.4163 C   0  0  0  0  0  0  0  0  0  0  0  0
   -1.7162    3.2328   -0.7308 C   0  0  0  0  0  0  0  0  0  0  0  0
   -1.8661    3.9288    0.6340 C   0  0  0  0  0  0  0  0  0  0  0  0
   -2.8869    3.1944    1.4457 C   0  0  0  0  0  0  0  0  0  0  0  0
   -2.6476    1.7268    1.5783 C   0  0  0  0  0  0  0  0  0  0  0  0
   -1.4492   -0.1983    0.4829 C   0  0  0  0  0  0  0  0  0  0  0  0
   -0.8224   -0.2949   -0.8909 C   0  0  0  0  0  0  0  0  0  0  0  0
   -0.7945    1.0363   -1.4569 N   0  0  0  0  0  0  0  0  0  0  0  0
   -3.5305   -3.3661    0.5561 C   0  0  0  0  0  0  0  0  0  0  0  0
   -3.0791   -2.0477   -0.1046 C   0  0  0  0  0  0  0  0  0  0  0  0
   -2.0535   -1.4782    0.8470 C   0  0  0  0  0  0  0  0  0  0  0  0
   -2.5700   -1.5824    2.2601 C   0  0  0  0  0  0  0  0  0  0  0  0
   -4.0997   -1.7178    2.2686 C   0  0  0  0  0  0  0  0  0  0  0  0
   -4.5202   -3.0105    1.6141 C   0  0  0  0  0  0  0  0  0  0  0  0
   -5.7414   -2.8206    0.9818 F   0  0  0  0  0  0  0  0  0  0  0  0
    7.1615    0.7856   -0.4224 O   0  0  0  0  0  0  0  0  0  0  0  0
    7.6817    1.2863    1.7671 O   0  0  0  0  0  0  0  0  0  0  0  0
    5.6192   -1.2074   -0.9058 O   0  0  0  0  0  0  0  0  0  0  0  0
    6.6964    0.8602    0.8889 C   0  0  0  0  0  0  0  0  0  0  0  0
    6.3176   -0.5508    1.3142 C   0  0  0  0  0  0  0  0  0  0  0  0
    5.2422   -1.1281    0.4298 C   0  0  1  0  0  0  0  0  0  0  0  0
    3.9702   -0.3182    0.5781 C   0  0  0  0  0  0  0  0  0  0  0  0
    2.8647   -0.9822   -0.2116 C   0  0  1  0  0  0  0  0  0  0  0  0
    1.5672   -0.1701   -0.0660 C   0  0  0  0  0  0  0  0  0  0  0  0
    0.5408   -0.8966   -0.8726 C   0  0  0  0  0  0  0  0  0  0  0  0
   -1.3865    1.1519   -2.7338 C   0  0  0  0  0  0  0  0  0  0  0  0
   -2.8186    0.7886   -2.8796 C   0  0  0  0  0  0  0  0  0  0  0  0
   -0.5491    0.3803   -3.7435 C   0  0  0  0  0  0  0  0  0  0  0  0
    3.1687   -1.0046   -1.5634 O   0  0  0  0  0  0  0  0  0  0  0  0
   -2.3179    1.0066    0.3047 C   0  0  0  0  0  0  0  0  0  0  0  0
   -1.2862    1.8645   -0.4163 C   0  0  0  0  0  0  0  0  0  0  0  0
   -1.7162    3.2328   -0.7308 C   0  0  0  0  0  0  0  0  0  0  0  0
   -1.8661    3.9288    0.6340 C   0  0  0  0  0  0  0  0  0  0  0  0
   -2.8869    3.1944    1.4457 C   0  0  0  0  0  0  0  0  0  0  0  0
   -2.6476    1.7268    1.5783 C   0  0  0  0  0  0  0  0  0  0  0  0
   -1.4492   -0.1983    0.4829 C   0  0  0  0  0  0  0  0  0  0  0  0
   -0.8224   -0.2949   -0.8909 C   0  0  0  0  0  0  0  0  0  0  0  0
   -0.7945    1.0363   -1.4569 N   0  0  0  0  0  0  0  0  0  0  0  0
   -3.5305   -3.3661    0.5561 C   0  0  0  0  0  0  0  0  0  0  0  0
   -3.0791   -2.0477   -0.1046 C   0  0  0  0  0  0  0  0  0  0  0  0
   -2.0535   -1.4782    0.8470 C   0  0  0  0  0  0  0  0  0  0  0  0
   -2.5700   -1.5824    2.2601 C   0  0  0  0  0  0  0  0  0  0  0  0
   -4.0997   -1.7178    2.2686 C   0  0  0  0  0  0  0  0  0  0  0  0
   -4.5202   -3.0105    1.6141 C   0  0  0  0  0  0  0  0  0  0  0  0
   -5.7414   -2.8206    0.9818 F   0  0  0  0  0  0  0  0  0  0  0  0
    7.1615    0.7856   -0.4224 O   0  0  0  0  0  0  0  0  0  0  0  0
    7.6817    1.2863    1.7671 O   0  0  0  0  0  0  0  0  0  0  0  0
    5.6192   -1.2074   -0.9058 O   0  0  0  0  0  0  0  0  0  0  0  0
    6.6964    0.8602    0.8889 C   0  0  0  0  0  0  0  0  0  0  0  0
    6.3176   -0.5508    1.3142 C   0  0  0  0  0  0  0  0  0  0  0  0
    5.2422   -1.1281    0.4298 C   0  0  1  0  0  0  0  0  0  0  0  0
    3.9702   -0.3182    0.5781 C   0  0  0  0  0  0  0  0  0  0  0  0
    2.8647   -0.9822   -0.2116 C   0  0  1  0  0  0  0  0  0  0  0  0
    1.5672   -0.1701   -0.0660 C   0  0  0  0  0  0  0  0  0  0  0  0
    0.5408   -0.8966   -0.8726 C   0  0  0  0  0  0  0  0  0  0  0  0
   -1.3865    1.1519   -2.7338 C   0  0  0  0  0  0  0  0  0  0  0  0
   -2.8186    0.7886   -2.8796 C   0  0  0  0  0  0  0  0  0  0  0  0
   -0.5491    0.3803   -3.7435 C   0  0  0  0  0  0  0  0  0  0  0  0
    3.1687   -1.0046   -1.5634 O   0  0  0  0  0  0  0  0  0  0  0  0
   -2.3179    1.0066    0.3047 C   0  0  0  0  0  0  0  0  0  0  0  0
   -1.2862    1.8645   -0.4163 C   0  0  0  0  0  0  0  0  0  0  0  0
   -1.7162    3.2328   -0.7308 C   0  0  0  0  0  0  0  0  0  0  0  0
   -1.8661    3.9288    0.6340 C   0  0  0  0  0  0  0  0  0  0  0  0
   -2.8869    3.1944    1.4457 C   0  0  0  0  0  0  0  0  0  0  0  0
   -2.6476    1.7268    1.5783 C   0  0  0  0  0  0  0  0  0  0  0  0
   -1.4492   -0.1983    0.4829 C   0  0  0  0  0  0  0  0  0  0  0  0
   -0.8224   -0.2949   -0.8909 C   0  0  0  0  0  0  0  0  0  0  0  0
   -0.7945    1.0363   -1.4569 N   0  0  0  0  0  0  0  0  0  0  0  0
   -3.5305   -3.3661    0.5561 C   0  0  0  0  0  0  0  0  0  0  0  0
   -3.0791   -2.0477   -0.1046 C   0  0  0  0  0  0  0  0  0  0  0  0
   -2.0535   -1.4782    0.8470 C   0  0  0  0  0  0  0  0  0  0  0  0
   -2.5700   -1.5824    2.2601 C   0  0  0  0  0  0  0  0  0  0  0  0
   -4.0997   -1.7178    2.2686 C   0  0  0  0  0  0  0  0  0  0  0  0
   -4.5202   -3.0105    1.6141 C   0  0  0  0  0  0  0  0  0  0  0  0
   -5.7414   -2.8206    0.9818 F   0  0  0  0  0  0  0  0  0  0  0  0
    7.1615    0.7856   -0.4224 O   0  0  0  0  0  0  0  0  0  0  0  0
    7.6817    1.2863    1.7671 O   0  0  0  0  0  0  0  0  0  0  0  0
    5.6192   -1.2074   -0.9058 O   0  0  0  0  0  0  0  0  0  0  0  0
    6.6964    0.8602    0.8889 C   0  0  0  0  0  0  0  0  0  0  0  0
    6.3176   -0.5508    1.3142 C   0  0  0  0  0  0  0  0  0  0  0  0
    5.2422   -1.1281    0.4298 C   0  0  1  0  0  0  0  0  0  0  0  0
    3.9702   -0.3182    0.5781 C   0  0  0  0  0  0  0  0  0  0  0  0
    2.8647   -0.9822   -0.2116 C   0  0  1  0  0  0  0  0  0  0  0  0
    1.5672   -0.1701   -0.0660 C   0  0  0  0  0  0  0  0  0  0  0  0
    0.5408   -0.8966   -0.8726 C   0  0  0  0  0  0  0  0  0  0  0  0
   -1.3865    1.1519   -2.7338 C   0  0  0  0  0  0  0  0  0  0  0  0
   -2.8186    0.7886   -2.8796 C   0  0  0  0  0  0  0  0  0  0  0  0
   -0.5491    0.3803   -3.7435 C   0  0  0  0  0  0  0  0  0  0  0  0
    3.1687   -1.0046   -1.5634 O   0  0  0  0  0  0  0  0  0  0  0  0
   -2.3179    1.0066    0.3047 C   0  0  0  0  0  0  0  0  0  0  0  0
   -1.2862    1.8645   -0.4163 C   0  0  0  0  0  0  0  0  0  0  0  0
   -1.7162    3.2328   -0.7308 C   0  0  0  0  0  0  0  0  0  0  0  0
   -1.8661    3.9288    0.6340 C   0  0  0  0  0  0  0  0  0  0  0  0
   -2.8869    3.1944    1.4457 C   0  0  0  0  0  0  0  0  0  0  0  0
   -2.6476    1.7268    1.5783 C   0  0  0  0  0  0  0  0  0  0  0  0
   -1.4492   -0.1983    0.4829 C   0  0  0  0  0  0  0  0  0  0  0  0
   -0.8224   -0.2949   -0.8909 C   0  0  0  0  0  0  0  0  0  0  0  0
   -0.7945    1.0363   -1.4569 N   0  0  0  0  0  0  0  0  0  0  0  0
   -3.5305   -3.3661    0.5561 C   0  0  0  0  0  0  0  0  0  0  0  0
   -3.0791   -2.0477   -0.1046 C   0  0  0  0  0  0  0  0  0  0  0  0
   -2.0535   -1.4782    0.8470 C   0  0  0  0  0  0  0  0  0  0  0  0
   -2.5700   -1.5824    2.2601 C   0  0  0  0  0  0  0  0  0  0  0  0
   -4.0997   -1.7178    2.2686 C   0  0  0  0  0  0  0  0  0  0  0  0
   -4.5202   -3.0105    1.6141 C   0  0  0  0  0  0  0  0  0  0  0  0
   -5.7414   -2.8206    0.9818 F   0  0  0  0  0  0  0  0  0  0  0  0
    7.1615    0.7856   -0.4224 O   0  0  0  0  0  0  0  0  0  0  0  0
    7.6817    1.2863    1.7671 O   0  0  0  0  0  0  0  0  0  0  0  0
    5.6192   -1.2074   -0.9058 O   0  0  0  0  0  0  0  0  0  0  0  0
    6.6964    0.8602    0.8889 C   0  0  0  0  0  0  0  0  0  0  0  0
    6.3176   -0.5508    1.3142 C   0  0  0  0  0  0  0  0  0  0  0  0
    5.2422   -1.1281    0.4298 C   0  0  1  0  0  0  0  0  0  0  0  0
    3.9702   -0.3182    0.5781 C   0  0  0  0  0  0  0  0  0  0  0  0
    2.8647   -0.9822   -0.2116 C   0  0  1  0  0  0  0  0  0  0  0  0
    1.5672   -0.1701   -0.0660 C   0  0  0  0  0  0  0  0  0  0  0  0
    0.5408   -0.8966   -0.8726 C   0  0  0  0  0  0  0  0  0  0  0  0
   -1.3865    1.1519   -2.7338 C   0  0  0  0  0  0  0  0  0  0  0  0
   -2.8186    0.7886   -2.8796 C   0  0  0  0  0  0  0  0  0  0  0  0
   -0.5491    0.3803   -3.7435 C   0  0  0  0  0  0  0  0  0  0  0  0
    3.1687   -1.0046   -1.5634 O   0  0  0  0  0  0  0  0  0  0  0  0
   -3.1741    0.7920   -0.3280 H   0  0  0  0  0  0  0  0  0  0  0  0
   -0.4409    1.9527    0.3377 H   0  0  0  0  0  0  0  0  0  0  0  0
   -2.6803    3.3537   -1.2363 H   0  0  0  0  0  0  0  0  0  0  0  0
   -0.8815    3.7470   -1.2492 H   0  0  0  0  0  0  0  0  0  0  0  0
   -0.8679    3.8850    1.1111 H   0  0  0  0  0  0  0  0  0  0  0  0
   -2.2141    4.9504    0.4615 H   0  0  0  0  0  0  0  0  0  0  0  0
   -3.8861    3.4039    1.0268 H   0  0  0  0  0  0  0  0  0  0  0  0
   -2.8742    3.6270    2.4694 H   0  0  0  0  0  0  0  0  0  0  0  0
   -1.8539    1.4864    2.3198 H   0  0  0  0  0  0  0  0  0  0  0  0
   -3.5922    1.3056    1.9800 H   0  0  0  0  0  0  0  0  0  0  0  0
   -0.6194    0.0781    1.1730 H   0  0  0  0  0  0  0  0  0  0  0  0
   -1.4376   -0.8997   -1.5893 H   0  0  0  0  0  0  0  0  0  0  0  0
   -2.6199   -3.8794    0.9681 H   0  0  0  0  0  0  0  0  0  0  0  0
   -3.9358   -4.0669   -0.2044 H   0  0  0  0  0  0  0  0  0  0  0  0
   -3.9551   -1.4196   -0.2563 H   0  0  0  0  0  0  0  0  0  0  0  0
   -2.6212   -2.4145   -1.0686 H   0  0  0  0  0  0  0  0  0  0  0  0
   -1.2012   -2.2288    0.7892 H   0  0  0  0  0  0  0  0  0  0  0  0
   -2.2252   -2.5440    2.7345 H   0  0  0  0  0  0  0  0  0  0  0  0
   -2.2556   -0.7895    2.9323 H   0  0  0  0  0  0  0  0  0  0  0  0
   -4.5064   -0.8711    1.6891 H   0  0  0  0  0  0  0  0  0  0  0  0
   -4.4217   -1.6112    3.3049 H   0  0  0  0  0  0  0  0  0  0  0  0
   -4.6772   -3.8282    2.3517 H   0  0  0  0  0  0  0  0  0  0  0  0
    7.2562    1.7038   -0.7605 H   0  0  0  0  0  0  0  0  0  0  0  0
    8.3080    0.5323    1.9516 H   0  0  0  0  0  0  0  0  0  0  0  0
    6.5011   -1.6119   -0.9970 H   0  0  0  0  0  0  0  0  0  0  0  0
    5.8305    1.5266    0.9583 H   0  0  0  0  0  0  0  0  0  0  0  0
    5.8647   -0.4626    2.3328 H   0  0  0  0  0  0  0  0  0  0  0  0
    7.2086   -1.2041    1.3142 H   0  0  0  0  0  0  0  0  0  0  0  0
    5.0576   -2.1664    0.8035 H   0  0  0  0  0  0  0  0  0  0  0  0
    3.6407   -0.3162    1.6314 H   0  0  0  0  0  0  0  0  0  0  0  0
    4.1135    0.6929    0.1778 H   0  0  0  0  0  0  0  0  0  0  0  0
    2.6654   -2.0231    0.1043 H   0  0  0  0  0  0  0  0  0  0  0  0
    1.7733    0.8247   -0.5096 H   0  0  0  0  0  0  0  0  0  0  0  0
    1.3659   -0.1490    1.0057 H   0  0  0  0  0  0  0  0  0  0  0  0
    0.9242   -0.9251   -1.9205 H   0  0  0  0  0  0  0  0  0  0  0  0
    0.5253   -1.9754   -0.5617 H   0  0  0  0  0  0  0  0  0  0  0  0
   -1.2809    2.2271   -3.0505 H   0  0  0  0  0  0  0  0  0  0  0  0
   -3.1035   -0.2082   -2.4936 H   0  0  0  0  0  0  0  0  0  0  0  0
   -2.9937    0.6885   -3.9978 H   0  0  0  0  0  0  0  0  0  0  0  0
   -3.5071    1.5869   -2.5780 H   0  0  0  0  0  0  0  0  0  0  0  0
   -0.6647   -0.7001   -3.6809 H   0  0  0  0  0  0  0  0  0  0  0  0
   -0.8089    0.7020   -4.7910 H   0  0  0  0  0  0  0  0  0  0  0  0
    0.5269    0.6752   -3.6417 H   0  0  0  0  0  0  0  0  0  0  0  0
    3.0444   -1.9153   -1.9665 H   0  0  0  0  0  0  0  0  0  0  0  0
   -3.1741    0.7920   -0.3280 H   0  0  0  0  0  0  0  0  0  0  0  0
   -0.4409    1.9527    0.3377 H   0  0  0  0  0  0  0  0  0  0  0  0
   -2.6803    3.3537   -1.2363 H   0  0  0  0  0  0  0  0  0  0  0  0
   -0.8815    3.7470   -1.2492 H   0  0  0  0  0  0  0  0  0  0  0  0
   -0.8679    3.8850    1.1111 H   0  0  0  0  0  0  0  0  0  0  0  0
   -2.2141    4.9504    0.4615 H   0  0  0  0  0  0  0  0  0  0  0  0
   -3.8861    3.4039    1.0268 H   0  0  0  0  0  0  0  0  0  0  0  0
   -2.8742    3.6270    2.4694 H   0  0  0  0  0  0  0  0  0  0  0  0
   -1.8539    1.4864    2.3198 H   0  0  0  0  0  0  0  0  0  0  0  0
   -3.5922    1.3056    1.9800 H   0  0  0  0  0  0  0  0  0  0  0  0
   -0.6194    0.0781    1.1730 H   0  0  0  0  0  0  0  0  0  0  0  0
   -1.4376   -0.8997   -1.5893 H   0  0  0  0  0  0  0  0  0  0  0  0
   -2.6199   -3.8794    0.9681 H   0  0  0  0  0  0  0  0  0  0  0  0
   -3.9358   -4.0669   -0.2044 H   0  0  0  0  0  0  0  0  0  0  0  0
   -3.9551   -1.4196   -0.2563 H   0  0  0  0  0  0  0  0  0  0  0  0
   -2.6212   -2.4145   -1.0686 H   0  0  0  0  0  0  0  0  0  0  0  0
   -1.2012   -2.2288    0.7892 H   0  0  0  0  0  0  0  0  0  0  0  0
   -2.2252   -2.5440    2.7345 H   0  0  0  0  0  0  0  0  0  0  0  0
   -2.2556   -0.7895    2.9323 H   0  0  0  0  0  0  0  0  0  0  0  0
   -4.5064   -0.8711    1.6891 H   0  0  0  0  0  0  0  0  0  0  0  0
   -4.4217   -1.6112    3.3049 H   0  0  0  0  0  0  0  0  0  0  0  0
   -4.6772   -3.8282    2.3517 H   0  0  0  0  0  0  0  0  0  0  0  0
    7.2562    1.7038   -0.7605 H   0  0  0  0  0  0  0  0  0  0  0  0
    8.3080    0.5323    1.9516 H   0  0  0  0  0  0  0  0  0  0  0  0
    6.5011   -1.6119   -0.9970 H   0  0  0  0  0  0  0  0  0  0  0  0
    5.8305    1.5266    0.9583 H   0  0  0  0  0  0  0  0  0  0  0  0
    5.8647   -0.4626    2.3328 H   0  0  0  0  0  0  0  0  0  0  0  0
    7.2086   -1.2041    1.3142 H   0  0  0  0  0  0  0  0  0  0  0  0
    5.0576   -2.1664    0.8035 H   0  0  0  0  0  0  0  0  0  0  0  0
    3.6407   -0.3162    1.6314 H   0  0  0  0  0  0  0  0  0  0  0  0
    4.1135    0.6929    0.1778 H   0  0  0  0  0  0  0  0  0  0  0  0
    2.6654   -2.0231    0.1043 H   0  0  0  0  0  0  0  0  0  0  0  0
    1.7733    0.8247   -0.5096 H   0  0  0  0  0  0  0  0  0  0  0  0
    1.3659   -0.1490    1.0057 H   0  0  0  0  0  0  0  0  0  0  0  0
    0.9242   -0.9251   -1.9205 H   0  0  0  0  0  0  0  0  0  0  0  0
    0.5253   -1.9754   -0.5617 H   0  0  0  0  0  0  0  0  0  0  0  0
   -1.2809    2.2271   -3.0505 H   0  0  0  0  0  0  0  0  0  0  0  0
   -3.1035   -0.2082   -2.4936 H   0  0  0  0  0  0  0  0  0  0  0  0
   -2.9937    0.6885   -3.9978 H   0  0  0  0  0  0  0  0  0  0  0  0
   -3.5071    1.5869   -2.5780 H   0  0  0  0  0  0  0  0  0  0  0  0
   -0.6647   -0.7001   -3.6809 H   0  0  0  0  0  0  0  0  0  0  0  0
   -0.8089    0.7020   -4.7910 H   0  0  0  0  0  0  0  0  0  0  0  0
    0.5269    0.6752   -3.6417 H   0  0  0  0  0  0  0  0  0  0  0  0
    3.0444   -1.9153   -1.9665 H   0  0  0  0  0  0  0  0  0  0  0  0
   -3.1741    0.7920   -0.3280 H   0  0  0  0  0  0  0  0  0  0  0  0
   -0.4409    1.9527    0.3377 H   0  0  0  0  0  0  0  0  0  0  0  0
   -2.6803    3.3537   -1.2363 H   0  0  0  0  0  0  0  0  0  0  0  0
   -0.8815    3.7470   -1.2492 H   0  0  0  0  0  0  0  0  0  0  0  0
   -0.8679    3.8850    1.1111 H   0  0  0  0  0  0  0  0  0  0  0  0
   -2.2141    4.9504    0.4615 H   0  0  0  0  0  0  0  0  0  0  0  0
   -3.8861    3.4039    1.0268 H   0  0  0  0  0  0  0  0  0  0  0  0
   -2.8742    3.6270    2.4694 H   0  0  0  0  0  0  0  0  0  0  0  0
   -1.8539    1.4864    2.3198 H   0  0  0  0  0  0  0  0  0  0  0  0
   -3.5922    1.3056    1.9800 H   0  0  0  0  0  0  0  0  0  0  0  0
   -0.6194    0.0781    1.1730 H   0  0  0  0  0  0  0  0  0  0  0  0
   -1.4376   -0.8997   -1.5893 H   0  0  0  0  0  0  0  0  0  0  0  0
   -2.6199   -3.8794    0.9681 H   0  0  0  0  0  0  0  0  0  0  0  0
   -3.9358   -4.0669   -0.2044 H   0  0  0  0  0  0  0  0  0  0  0  0
   -3.9551   -1.4196   -0.2563 H   0  0  0  0  0  0  0  0  0  0  0  0
   -2.6212   -2.4145   -1.0686 H   0  0  0  0  0  0  0  0  0  0  0  0
   -1.2012   -2.2288    0.7892 H   0  0  0  0  0  0  0  0  0  0  0  0
   -2.2252   -2.5440    2.7345 H   0  0  0  0  0  0  0  0  0  0  0  0
   -2.2556   -0.7895    2.9323 H   0  0  0  0  0  0  0  0  0  0  0  0
   -4.5064   -0.8711    1.6891 H   0  0  0  0  0  0  0  0  0  0  0  0
   -4.4217   -1.6112    3.3049 H   0  0  0  0  0  0  0  0  0  0  0  0
   -4.6772   -3.8282    2.3517 H   0  0  0  0  0  0  0  0  0  0  0  0
    7.2562    1.7038   -0.7605 H   0  0  0  0  0  0  0  0  0  0  0  0
    8.3080    0.5323    1.9516 H   0  0  0  0  0  0  0  0  0  0  0  0
    6.5011   -1.6119   -0.9970 H   0  0  0  0  0  0  0  0  0  0  0  0
    5.8305    1.5266    0.9583 H   0  0  0  0  0  0  0  0  0  0  0  0
    5.8647   -0.4626    2.3328 H   0  0  0  0  0  0  0  0  0  0  0  0
    7.2086   -1.2041    1.3142 H   0  0  0  0  0  0  0  0  0  0  0  0
    5.0576   -2.1664    0.8035 H   0  0  0  0  0  0  0  0  0  0  0  0
    3.6407   -0.3162    1.6314 H   0  0  0  0  0  0  0  0  0  0  0  0
    4.1135    0.6929    0.1778 H   0  0  0  0  0  0  0  0  0  0  0  0
    2.6654   -2.0231    0.1043 H   0  0  0  0  0  0  0  0  0  0  0  0
    1.7733    0.8247   -0.5096 H   0  0  0  0  0  0  0  0  0  0  0  0
    1.3659   -0.1490    1.0057 H   0  0  0  0  0  0  0  0  0  0  0  0
    0.9242   -0.9251   -1.9205 H   0  0  0  0  0  0  0  0  0  0  0  0
    0.5253   -1.9754   -0.5617 H   0  0  0  0  0  0  0  0  0  0  0  0
   -1.2809    2.2271   -3.0505 H   0  0  0  0  0  0  0  0  0  0  0  0
   -3.1035   -0.2082   -2.4936 H   0  0  0  0  0  0  0  0  0  0  0  0
   -2.9937    0.6885   -3.9978 H   0  0  0  0  0  0  0  0  0  0  0  0
   -3.5071    1.5869   -2.5780 H   0  0  0  0  0  0  0  0  0  0  0  0
   -0.6647   -0.7001   -3.6809 H   0  0  0  0  0  0  0  0  0  0  0  0
   -0.8089    0.7020   -4.7910 H   0  0  0  0  0  0  0  0  0  0  0  0
    0.5269    0.6752   -3.6417 H   0  0  0  0  0  0  0  0  0  0  0  0
    3.0444   -1.9153   -1.9665 H   0  0  0  0  0  0  0  0  0  0  0  0
   -3.1741    0.7920   -0.3280 H   0  0  0  0  0  0  0  0  0  0  0  0
   -0.4409    1.9527    0.3377 H   0  0  0  0  0  0  0  0  0  0  0  0
   -2.6803    3.3537   -1.2363 H   0  0  0  0  0  0  0  0  0  0  0  0
   -0.8815    3.7470   -1.2492 H   0  0  0  0  0  0  0  0  0  0  0  0
   -0.8679    3.8850    1.1111 H   0  0  0  0  0  0  0  0  0  0  0  0
   -2.2141    4.9504    0.4615 H   0  0  0  0  0  0  0  0  0  0  0  0
   -3.8861    3.4039    1.0268 H   0  0  0  0  0  0  0  0  0  0  0  0
   -2.8742    3.6270    2.4694 H   0  0  0  0  0  0  0  0  0  0  0  0
   -1.8539    1.4864    2.3198 H   0  0  0  0  0  0  0  0  0  0  0  0
   -3.5922    1.3056    1.9800 H   0  0  0  0  0  0  0  0  0  0  0  0
   -0.6194    0.0781    1.1730 H   0  0  0  0  0  0  0  0  0  0  0  0
   -1.4376   -0.8997   -1.5893 H   0  0  0  0  0  0  0  0  0  0  0  0
   -2.6199   -3.8794    0.9681 H   0  0  0  0  0  0  0  0  0  0  0  0
   -3.9358   -4.0669   -0.2044 H   0  0  0  0  0  0  0  0  0  0  0  0
   -3.9551   -1.4196   -0.2563 H   0  0  0  0  0  0  0  0  0  0  0  0
   -2.6212   -2.4145   -1.0686 H   0  0  0  0  0  0  0  0  0  0  0  0
   -1.2012   -2.2288    0.7892 H   0  0  0  0  0  0  0  0  0  0  0  0
   -2.2252   -2.5440    2.7345 H   0  0  0  0  0  0  0  0  0  0  0  0
   -2.2556   -0.7895    2.9323 H   0  0  0  0  0  0  0  0  0  0  0  0
   -4.5064   -0.8711    1.6891 H   0  0  0  0  0  0  0  0  0  0  0  0
   -4.4217   -1.6112    3.3049 H   0  0  0  0  0  0  0  0  0  0  0  0
   -4.6772   -3.8282    2.3517 H   0  0  0  0  0  0  0  0  0  0  0  0
    7.2562    1.7038   -0.7605 H   0  0  0  0  0  0  0  0  0  0  0  0
    8.3080    0.5323    1.9516 H   0  0  0  0  0  0  0  0  0  0  0  0
    6.5011   -1.6119   -0.9970 H   0  0  0  0  0  0  0  0  0  0  0  0
    5.8305    1.5266    0.9583 H   0  0  0  0  0  0  0  0  0  0  0  0
    5.8647   -0.4626    2.3328 H   0  0  0  0  0  0  0  0  0  0  0  0
    7.2086   -1.2041    1.3142 H   0  0  0  0  0  0  0  0  0  0  0  0
    5.0576   -2.1664    0.8035 H   0  0  0  0  0  0  0  0  0  0  0  0
    3.6407   -0.3162    1.6314 H   0  0  0  0  0  0  0  0  0  0  0  0
    4.1135    0.6929    0.1778 H   0  0  0  0  0  0  0  0  0  0  0  0
    2.6654   -2.0231    0.1043 H   0  0  0  0  0  0  0  0  0  0  0  0
    1.7733    0.8247   -0.5096 H   0  0  0  0  0  0  0  0  0  0  0  0
    1.3659   -0.1490    1.0057 H   0  0  0  0  0  0  0  0  0  0  0  0
    0.9242   -0.9251   -1.9205 H   0  0  0  0  0  0  0  0  0  0  0  0
    0.5253   -1.9754   -0.5617 H   0  0  0  0  0  0  0  0  0  0  0  0
   -1.2809    2.2271   -3.0505 H   0  0  0  0  0  0  0  0  0  0  0  0
   -3.1035   -0.2082   -2.4936 H   0  0  0  0  0  0  0  0  0  0  0  0
   -2.9937    0.6885   -3.9978 H   0  0  0  0  0  0  0  0  0  0  0  0
   -3.5071    1.5869   -2.5780 H   0  0  0  0  0  0  0  0  0  0  0  0
   -0.6647   -0.7001   -3.6809 H   0  0  0  0  0  0  0  0  0  0  0  0
   -0.8089    0.7020   -4.7910 H   0  0  0  0  0  0  0  0  0  0  0  0
    0.5269    0.6752   -3.6417 H   0  0  0  0  0  0  0  0  0  0  0  0
    3.0444   -1.9153   -1.9665 H   0  0  0  0  0  0  0  0  0  0  0  0
  1  2  1  0
  2  3  1  0
  3  4  1  0
  4  5  1  0
  1  6  1  0
  5  6  1  0
  1  7  1  0
  7  8  1  0
  2  9  1  0
  8  9  1  0
 10 11  1  0
  7 12  1  0
 11 12  1  0
 12 13  1  0
 13 14  1  0
 10 15  1  0
 14 15  1  0
 15 16  1  0
 17 20  1  0
 18 20  1  0
 20 21  1  0
 19 22  1  0
 21 22  1  0
 22 23  1  0
 23 24  1  0
 24 25  1  0
  8 26  1  0
 25 26  1  0
  9 27  1  0
 27 28  1  0
 27 29  1  0
 24 30  1  0
 31 32  1  0
 32 33  1  0
 33 34  1  0
 34 35  1  0
 31 36  1  0
 35 36  1  0
 31 37  1  0
 37 38  1  0
 32 39  1  0
 38 39  1  0
 40 41  1  0
 37 42  1  0
 41 42  1  0
 42 43  1  0
 43 44  1  0
 40 45  1  0
 44 45  1  0
 45 46  1  0
 47 50  1  0
 48 50  1  0
 50 51  1  0
 49 52  1  0
 51 52  1  0
 52 53  1  0
 53 54  1  0
 54 55  1  0
 38 56  1  0
 55 56  1  0
 39 57  1  0
 57 58  1  0
 57 59  1  0
 54 60  1  0
 61 62  1  0
 62 63  1  0
 63 64  1  0
 64 65  1  0
 61 66  1  0
 65 66  1  0
 61 67  1  0
 67 68  1  0
 62 69  1  0
 68 69  1  0
 70 71  1  0
 67 72  1  0
 71 72  1  0
 72 73  1  0
 73 74  1  0
 70 75  1  0
 74 75  1  0
 75 76  1  0
 77 80  1  0
 78 80  1  0
 80 81  1  0
 79 82  1  0
 81 82  1  0
 82 83  1  0
 83 84  1  0
 84 85  1  0
 68 86  1  0
 85 86  1  0
 69 87  1  0
 87 88  1  0
 87 89  1  0
 84 90  1  0
 91 92  1  0
 92 93  1  0
 93 94  1  0
 94 95  1  0
 91 96  1  0
 95 96  1  0
 91 97  1  0
 97 98  1  0
 92 99  1  0
 98 99  1  0
100101  1  0
 97102  1  0
101102  1  0
102103  1  0
103104  1  0
100105  1  0
104105  1  0
105106  1  0
107110  1  0
108110  1  0
110111  1  0
109112  1  0
111112  1  0
112113  1  0
113114  1  0
114115  1  0
 98116  1  0
115116  1  0
 99117  1  0
117118  1  0
117119  1  0
114120  1  0
  1121  1  0
  2122  1  0
  3123  1  0
  3124  1  0
  4125  1  0
  4126  1  0
  5127  1  0
  5128  1  0
  6129  1  0
  6130  1  0
  7131  1  0
  8132  1  0
 10133  1  0
 10134  1  0
 11135  1  0
 11136  1  0
 12137  1  0
 13138  1  0
 13139  1  0
 14140  1  0
 14141  1  0
 15142  1  0
 17143  1  0
 18144  1  0
 19145  1  0
 20146  1  0
 21147  1  0
 21148  1  0
 22149  1  1
 23150  1  0
 23151  1  0
 24152  1  1
 25153  1  0
 25154  1  0
 26155  1  0
 26156  1  0
 27157  1  0
 28158  1  0
 28159  1  0
 28160  1  0
 29161  1  0
 29162  1  0
 29163  1  0
 30164  1  0
 31165  1  0
 32166  1  0
 33167  1  0
 33168  1  0
 34169  1  0
 34170  1  0
 35171  1  0
 35172  1  0
 36173  1  0
 36174  1  0
 37175  1  0
 38176  1  0
 40177  1  0
 40178  1  0
 41179  1  0
 41180  1  0
 42181  1  0
 43182  1  0
 43183  1  0
 44184  1  0
 44185  1  0
 45186  1  0
 47187  1  0
 48188  1  0
 49189  1  0
 50190  1  0
 51191  1  0
 51192  1  0
 52193  1  1
 53194  1  0
 53195  1  0
 54196  1  1
 55197  1  0
 55198  1  0
 56199  1  0
 56200  1  0
 57201  1  0
 58202  1  0
 58203  1  0
 58204  1  0
 59205  1  0
 59206  1  0
 59207  1  0
 60208  1  0
 61209  1  0
 62210  1  0
 63211  1  0
 63212  1  0
 64213  1  0
 64214  1  0
 65215  1  0
 65216  1  0
 66217  1  0
 66218  1  0
 67219  1  0
 68220  1  0
 70221  1  0
 70222  1  0
 71223  1  0
 71224  1  0
 72225  1  0
 73226  1  0
 73227  1  0
 74228  1  0
 74229  1  0
 75230  1  0
 77231  1  0
 78232  1  0
 79233  1  0
 80234  1  0
 81235  1  0
 81236  1  0
 82237  1  1
 83238  1  0
 83239  1  0
 84240  1  1
 85241  1  0
 85242  1  0
 86243  1  0
 86244  1  0
 87245  1  0
 88246  1  0
 88247  1  0
 88248  1  0
 89249  1  0
 89250  1  0
 89251  1  0
 90252  1  0
 91253  1  0
 92254  1  0
 93255  1  0
 93256  1  0
 94257  1  0
 94258  1  0
 95259  1  0
 95260  1  0
 96261  1  0
 96262  1  0
 97263  1  0
 98264  1  0
100265  1  0
100266  1  0
101267  1  0
101268  1  0
102269  1  0
103270  1  0
103271  1  0
104272  1  0
104273  1  0
105274  1  0
107275  1  0
108276  1  0
109277  1  0
110278  1  0
111279  1  0
111280  1  0
112281  1  1
113282  1  0
113283  1  0
114284  1  1
115285  1  0
115286  1  0
116287  1  0
116288  1  0
117289  1  0
118290  1  0
118291  1  0
118292  1  0
119293  1  0
119294  1  0
119295  1  0
120296  1  0
M  END
>  <PDBID>  (1) 
1HWI

>  <PDB ID>  (1) 
1HWI

>  <Generic Name>  (1) 
Fluvastatin

>  <Brand Name>  (1) 
Fluvastatin#Fluvastatin Sodium#Fluvastatin Sodium ER#Lescol#Lescol 20mg#Lescol 40mg#Lescol XL#Sandoz Fluvastatin#Teva-fluvastatin#Canef#Cranoc

>  <DrugBank ID>  (1) 
DB01095

>  <ATC Codes>  (1) 
C10AA04

>  <Ligand ID>  (1) 
115

>  <Target Name>  (1) 
3-hydroxy-3-methylglutaryl-coenzyme A reductase

>  <UniProt ID>  (1) 
P04035

>  <PDB ID.1>  (1) 
1HWI

>  <Seq. Identity>  (1) 
97%

$$$$
