PDB_DB04854_07
     RDKit          3D

108110  0  0  0  0  0  0  0  0999 V2000
   -3.4446   -1.2180   -0.8800 S   0  0  0  0  0  0  0  0  0  0  0  0
   -2.2559   -0.5967    0.3730 C   0  0  0  0  0  0  0  0  0  0  0  0
   -2.9184    0.5073    0.9679 N   0  0  0  0  0  0  0  0  0  0  0  0
   -3.8140    1.1151    0.0413 C   0  0  0  0  0  0  0  0  0  0  0  0
   -4.7327    0.0403   -0.4990 C   0  0  0  0  0  0  0  0  0  0  0  0
   -0.9265   -0.2719   -0.2396 C   0  0  0  0  0  0  0  0  0  0  0  0
   -0.0130    0.2171    0.8350 C   0  0  0  0  0  0  0  0  0  0  0  0
    1.2271   -0.5849    1.0384 C   0  0  0  0  0  0  0  0  0  0  0  0
    1.9379   -0.8793   -0.2416 C   0  0  0  0  0  0  0  0  0  0  0  0
    1.0583   -1.1171   -1.4208 C   0  0  0  0  0  0  0  0  0  0  0  0
   -0.3779   -1.3600   -1.0984 C   0  0  0  0  0  0  0  0  0  0  0  0
    1.0235   -1.8149    1.8936 C   0  0  0  0  0  0  0  0  0  0  0  0
    0.5462   -1.4389    3.2119 N   0  0  0  0  0  0  0  0  0  0  0  0
    2.8721    0.0906   -0.5842 O   0  0  0  0  0  0  0  0  0  0  0  0
    4.1703   -0.4026   -0.6086 C   0  0  0  0  0  0  0  0  0  0  0  0
    5.1183    0.7156   -0.9892 C   0  0  0  0  0  0  0  0  0  0  0  0
    4.9948    1.8147    0.0443 C   0  0  0  0  0  0  0  0  0  0  0  0
    6.5460    0.1705   -0.8665 C   0  0  0  0  0  0  0  0  0  0  0  0
   -4.6071    2.1748    0.7440 C   0  0  0  0  0  0  0  0  0  0  0  0
   -5.4218    0.4954   -1.7543 C   0  0  0  0  0  0  0  0  0  0  0  0
   -6.0498   -0.5247   -2.4303 O   0  0  0  0  0  0  0  0  0  0  0  0
   -6.3923    1.4210   -1.3723 O   0  0  0  0  0  0  0  0  0  0  0  0
   -3.4446   -1.2180   -0.8800 S   0  0  0  0  0  0  0  0  0  0  0  0
   -2.2559   -0.5967    0.3730 C   0  0  0  0  0  0  0  0  0  0  0  0
   -2.9184    0.5073    0.9679 N   0  0  0  0  0  0  0  0  0  0  0  0
   -3.8140    1.1151    0.0413 C   0  0  0  0  0  0  0  0  0  0  0  0
   -4.7327    0.0403   -0.4990 C   0  0  0  0  0  0  0  0  0  0  0  0
   -0.9265   -0.2719   -0.2396 C   0  0  0  0  0  0  0  0  0  0  0  0
   -0.0130    0.2171    0.8350 C   0  0  0  0  0  0  0  0  0  0  0  0
    1.2271   -0.5849    1.0384 C   0  0  0  0  0  0  0  0  0  0  0  0
    1.9379   -0.8793   -0.2416 C   0  0  0  0  0  0  0  0  0  0  0  0
    1.0583   -1.1171   -1.4208 C   0  0  0  0  0  0  0  0  0  0  0  0
   -0.3779   -1.3600   -1.0984 C   0  0  0  0  0  0  0  0  0  0  0  0
    1.0235   -1.8149    1.8936 C   0  0  0  0  0  0  0  0  0  0  0  0
    0.5462   -1.4389    3.2119 N   0  0  0  0  0  0  0  0  0  0  0  0
    2.8721    0.0906   -0.5842 O   0  0  0  0  0  0  0  0  0  0  0  0
    4.1703   -0.4026   -0.6086 C   0  0  0  0  0  0  0  0  0  0  0  0
    5.1183    0.7156   -0.9892 C   0  0  0  0  0  0  0  0  0  0  0  0
    4.9948    1.8147    0.0443 C   0  0  0  0  0  0  0  0  0  0  0  0
    6.5460    0.1705   -0.8665 C   0  0  0  0  0  0  0  0  0  0  0  0
   -4.6071    2.1748    0.7440 C   0  0  0  0  0  0  0  0  0  0  0  0
   -5.4218    0.4954   -1.7543 C   0  0  0  0  0  0  0  0  0  0  0  0
   -6.0498   -0.5247   -2.4303 O   0  0  0  0  0  0  0  0  0  0  0  0
   -6.3923    1.4210   -1.3723 O   0  0  0  0  0  0  0  0  0  0  0  0
   -2.1561   -1.4028    1.1277 H   0  0  0  0  0  0  0  0  0  0  0  0
   -2.2281    1.2133    1.2610 H   0  0  0  0  0  0  0  0  0  0  0  0
   -3.2272    1.5129   -0.8116 H   0  0  0  0  0  0  0  0  0  0  0  0
   -5.4103   -0.3411    0.2624 H   0  0  0  0  0  0  0  0  0  0  0  0
   -1.1153    0.6092   -0.9237 H   0  0  0  0  0  0  0  0  0  0  0  0
   -0.5303    0.2516    1.8385 H   0  0  0  0  0  0  0  0  0  0  0  0
    0.3087    1.2899    0.6789 H   0  0  0  0  0  0  0  0  0  0  0  0
    1.9326    0.0654    1.6405 H   0  0  0  0  0  0  0  0  0  0  0  0
    2.5171   -1.8348   -0.0719 H   0  0  0  0  0  0  0  0  0  0  0  0
    1.0935   -0.2224   -2.1096 H   0  0  0  0  0  0  0  0  0  0  0  0
    1.4104   -1.9700   -2.0597 H   0  0  0  0  0  0  0  0  0  0  0  0
   -0.9367   -1.3132   -2.0808 H   0  0  0  0  0  0  0  0  0  0  0  0
   -0.5894   -2.3866   -0.7224 H   0  0  0  0  0  0  0  0  0  0  0  0
    0.3266   -2.5406    1.4863 H   0  0  0  0  0  0  0  0  0  0  0  0
    2.0478   -2.2491    2.0556 H   0  0  0  0  0  0  0  0  0  0  0  0
    1.3515   -0.9618    3.7015 H   0  0  0  0  0  0  0  0  0  0  0  0
    0.3286   -2.3292    3.7317 H   0  0  0  0  0  0  0  0  0  0  0  0
    4.2978   -1.1944   -1.3927 H   0  0  0  0  0  0  0  0  0  0  0  0
    4.4843   -0.7544    0.3946 H   0  0  0  0  0  0  0  0  0  0  0  0
    4.9273    1.0760   -2.0187 H   0  0  0  0  0  0  0  0  0  0  0  0
    5.0916    1.3192    1.0377 H   0  0  0  0  0  0  0  0  0  0  0  0
    5.8311    2.5260   -0.0743 H   0  0  0  0  0  0  0  0  0  0  0  0
    4.0008    2.2847   -0.0625 H   0  0  0  0  0  0  0  0  0  0  0  0
    7.2467    0.9252   -1.2924 H   0  0  0  0  0  0  0  0  0  0  0  0
    6.7625    0.0220    0.2105 H   0  0  0  0  0  0  0  0  0  0  0  0
    6.6368   -0.7711   -1.4520 H   0  0  0  0  0  0  0  0  0  0  0  0
   -5.3624    1.6508    1.3939 H   0  0  0  0  0  0  0  0  0  0  0  0
   -3.9178    2.8087    1.3644 H   0  0  0  0  0  0  0  0  0  0  0  0
   -5.1272    2.8324    0.0160 H   0  0  0  0  0  0  0  0  0  0  0  0
   -4.7190    1.0351   -2.4160 H   0  0  0  0  0  0  0  0  0  0  0  0
   -6.9046   -0.8020   -2.0180 H   0  0  0  0  0  0  0  0  0  0  0  0
   -6.9121    1.0974   -0.5780 H   0  0  0  0  0  0  0  0  0  0  0  0
   -2.1561   -1.4028    1.1277 H   0  0  0  0  0  0  0  0  0  0  0  0
   -2.2281    1.2133    1.2610 H   0  0  0  0  0  0  0  0  0  0  0  0
   -3.2272    1.5129   -0.8116 H   0  0  0  0  0  0  0  0  0  0  0  0
   -5.4103   -0.3411    0.2624 H   0  0  0  0  0  0  0  0  0  0  0  0
   -1.1153    0.6092   -0.9237 H   0  0  0  0  0  0  0  0  0  0  0  0
   -0.5303    0.2516    1.8385 H   0  0  0  0  0  0  0  0  0  0  0  0
    0.3087    1.2899    0.6789 H   0  0  0  0  0  0  0  0  0  0  0  0
    1.9326    0.0654    1.6405 H   0  0  0  0  0  0  0  0  0  0  0  0
    2.5171   -1.8348   -0.0719 H   0  0  0  0  0  0  0  0  0  0  0  0
    1.0935   -0.2224   -2.1096 H   0  0  0  0  0  0  0  0  0  0  0  0
    1.4104   -1.9700   -2.0597 H   0  0  0  0  0  0  0  0  0  0  0  0
   -0.9367   -1.3132   -2.0808 H   0  0  0  0  0  0  0  0  0  0  0  0
   -0.5894   -2.3866   -0.7224 H   0  0  0  0  0  0  0  0  0  0  0  0
    0.3266   -2.5406    1.4863 H   0  0  0  0  0  0  0  0  0  0  0  0
    2.0478   -2.2491    2.0556 H   0  0  0  0  0  0  0  0  0  0  0  0
    1.3515   -0.9618    3.7015 H   0  0  0  0  0  0  0  0  0  0  0  0
    0.3286   -2.3292    3.7317 H   0  0  0  0  0  0  0  0  0  0  0  0
    4.2978   -1.1944   -1.3927 H   0  0  0  0  0  0  0  0  0  0  0  0
    4.4843   -0.7544    0.3946 H   0  0  0  0  0  0  0  0  0  0  0  0
    4.9273    1.0760   -2.0187 H   0  0  0  0  0  0  0  0  0  0  0  0
    5.0916    1.3192    1.0377 H   0  0  0  0  0  0  0  0  0  0  0  0
    5.8311    2.5260   -0.0743 H   0  0  0  0  0  0  0  0  0  0  0  0
    4.0008    2.2847   -0.0625 H   0  0  0  0  0  0  0  0  0  0  0  0
    7.2467    0.9252   -1.2924 H   0  0  0  0  0  0  0  0  0  0  0  0
    6.7625    0.0220    0.2105 H   0  0  0  0  0  0  0  0  0  0  0  0
    6.6368   -0.7711   -1.4520 H   0  0  0  0  0  0  0  0  0  0  0  0
   -5.3624    1.6508    1.3939 H   0  0  0  0  0  0  0  0  0  0  0  0
   -3.9178    2.8087    1.3644 H   0  0  0  0  0  0  0  0  0  0  0  0
   -5.1272    2.8324    0.0160 H   0  0  0  0  0  0  0  0  0  0  0  0
   -4.7190    1.0351   -2.4160 H   0  0  0  0  0  0  0  0  0  0  0  0
   -6.9046   -0.8020   -2.0180 H   0  0  0  0  0  0  0  0  0  0  0  0
   -6.9121    1.0974   -0.5780 H   0  0  0  0  0  0  0  0  0  0  0  0
  1  2  1  0
  2  3  1  0
  3  4  1  0
  1  5  1  0
  4  5  1  0
  2  6  1  0
  6  7  1  0
  7  8  1  0
  8  9  1  0
  9 10  1  0
  6 11  1  0
 10 11  1  0
  8 12  1  0
 12 13  1  0
  9 14  1  0
 14 15  1  0
 15 16  1  0
 16 17  1  0
 16 18  1  0
  4 19  1  0
  5 20  1  0
 20 21  1  0
 20 22  1  0
 23 24  1  0
 24 25  1  0
 25 26  1  0
 23 27  1  0
 26 27  1  0
 24 28  1  0
 28 29  1  0
 29 30  1  0
 30 31  1  0
 31 32  1  0
 28 33  1  0
 32 33  1  0
 30 34  1  0
 34 35  1  0
 31 36  1  0
 36 37  1  0
 37 38  1  0
 38 39  1  0
 38 40  1  0
 26 41  1  0
 27 42  1  0
 42 43  1  0
 42 44  1  0
  2 45  1  0
  3 46  1  0
  4 47  1  0
  5 48  1  0
  6 49  1  0
  7 50  1  0
  7 51  1  0
  8 52  1  0
  9 53  1  0
 10 54  1  0
 10 55  1  0
 11 56  1  0
 11 57  1  0
 12 58  1  0
 12 59  1  0
 13 60  1  0
 13 61  1  0
 15 62  1  0
 15 63  1  0
 16 64  1  0
 17 65  1  0
 17 66  1  0
 17 67  1  0
 18 68  1  0
 18 69  1  0
 18 70  1  0
 19 71  1  0
 19 72  1  0
 19 73  1  0
 20 74  1  0
 21 75  1  0
 22 76  1  0
 24 77  1  0
 25 78  1  0
 26 79  1  0
 27 80  1  0
 28 81  1  0
 29 82  1  0
 29 83  1  0
 30 84  1  0
 31 85  1  0
 32 86  1  0
 32 87  1  0
 33 88  1  0
 33 89  1  0
 34 90  1  0
 34 91  1  0
 35 92  1  0
 35 93  1  0
 37 94  1  0
 37 95  1  0
 38 96  1  0
 39 97  1  0
 39 98  1  0
 39 99  1  0
 40100  1  0
 40101  1  0
 40102  1  0
 41103  1  0
 41104  1  0
 41105  1  0
 42106  1  0
 43107  1  0
 44108  1  0
M  END
>  <PDBID>  (1) 
1N5X

>  <PDB ID>  (1) 
1N5X

>  <Generic Name>  (1) 
Febuxostat

>  <Brand Name>  (1) 
Febuxostat#Uloric#Adenuric#Atenurix#Barif#Feburic

>  <DrugBank ID>  (1) 
DB04854

>  <ATC Codes>  (1) 
M04AA03

>  <Ligand ID>  (1) 
TEI

>  <Target Name>  (1) 
Xanthine dehydrogenase/oxidase

>  <UniProt ID>  (1) 
P47989

>  <PDB ID.1>  (1) 
1N5X

>  <Seq. Identity>  (1) 
85%

$$$$
