PDB_DB00551_01
     RDKit          3D

 12 11  0  0  0  0  0  0  0  0999 V2000
   -0.7354   -0.9935    0.2262 C   0  0  0  0  0  0  0  0  0  0  0  0
   -0.3552    0.4404    0.4063 C   0  0  0  0  0  0  0  0  0  0  0  0
   -1.1544    1.3214   -0.3232 O   0  0  0  0  0  0  0  0  0  0  0  0
    1.0286    0.6958   -0.0164 N   0  0  0  0  0  0  0  0  0  0  0  0
    1.8596   -0.0657    0.7251 O   0  0  0  0  0  0  0  0  0  0  0  0
    0.1884   -1.5476   -0.1083 H   0  0  0  0  0  0  0  0  0  0  0  0
   -1.0139   -1.4818    1.2012 H   0  0  0  0  0  0  0  0  0  0  0  0
   -1.5611   -1.1766   -0.4596 H   0  0  0  0  0  0  0  0  0  0  0  0
   -0.4362    0.6837    1.4925 H   0  0  0  0  0  0  0  0  0  0  0  0
   -1.4342    2.0948    0.2346 H   0  0  0  0  0  0  0  0  0  0  0  0
    1.0658    0.4534   -1.0388 H   0  0  0  0  0  0  0  0  0  0  0  0
    2.5480   -0.4243    0.1016 H   0  0  0  0  0  0  0  0  0  0  0  0
  1  2  1  0
  2  3  1  0
  2  4  1  0
  5  4  1  0
  1  6  1  0
  1  7  1  0
  1  8  1  0
  2  9  1  0
  3 10  1  0
  4 11  1  0
  5 12  1  0
M  END
>  <PDBID>  (1) 
1FWE

>  <PDB ID>  (1) 
1FWE

>  <Generic Name>  (1) 
Acetohydroxamic Acid

>  <Brand Name>  (1) 
Lithostat

>  <DrugBank ID>  (1) 
DB00551

>  <ATC Codes>  (1) 
G04BX03

>  <Ligand ID>  (1) 
HAE

>  <Target Name>  (1) 
Urease subunit alpha

>  <UniProt ID>  (1) 
P18314

>  <PDB ID.1>  (1) 
1FWE

>  <Seq. Identity>  (1) 
95%

$$$$
