PDB_DB08865_02
     RDKit          3D

 68 71  0  0  0  0  0  0  0  0999 V2000
    4.3056    2.7852    1.2565 Cl  0  0  0  0  0  0  0  0  0  0  0  0
    4.9281    1.5266    0.2195 C   0  0  0  0  0  0  0  0  0  0  0  0
    6.4583    1.6634    0.1694 C   0  0  0  0  0  0  0  0  0  0  0  0
    7.0433    0.7435   -0.8715 C   0  0  0  0  0  0  0  0  0  0  0  0
    6.5109   -0.6400   -0.8162 C   0  0  0  0  0  0  0  0  0  0  0  0
    6.7733   -1.2392   -2.0562 F   0  0  0  0  0  0  0  0  0  0  0  0
    4.6307    0.1237    0.6026 C   0  0  0  0  0  0  0  0  0  0  0  0
    5.0347   -0.7606   -0.5876 C   0  0  0  0  0  0  0  0  0  0  0  0
    4.6857   -2.4625   -0.1511 Cl  0  0  0  0  0  0  0  0  0  0  0  0
    3.2648   -0.1900    1.0844 C   0  0  1  0  0  0  0  0  0  0  0  0
    2.9822    0.6086    2.3521 C   0  0  0  0  0  0  0  0  0  0  0  0
    2.2779    0.0600    0.1285 O   0  0  0  0  0  0  0  0  0  0  0  0
    1.5066   -1.0459   -0.1217 C   0  0  0  0  0  0  0  0  0  0  0  0
    0.0662   -0.7928    0.3620 C   0  0  0  0  0  0  0  0  0  0  0  0
    1.5068   -1.4745   -1.5574 C   0  0  0  0  0  0  0  0  0  0  0  0
    1.6902   -2.9152   -1.6958 N   0  0  0  0  0  0  0  0  0  0  0  0
    0.1844   -1.1524   -2.1126 N   0  0  0  0  0  0  0  0  0  0  0  0
   -0.0622    0.2494   -1.8310 C   0  0  0  0  0  0  0  0  0  0  0  0
   -0.6024    0.3062   -0.3967 C   0  0  0  0  0  0  0  0  0  0  0  0
   -2.0973    0.1321   -0.5003 C   0  0  0  0  0  0  0  0  0  0  0  0
   -2.6505    1.3062   -1.2818 C   0  0  0  0  0  0  0  0  0  0  0  0
   -2.8129    0.2428    0.8027 C   0  0  0  0  0  0  0  0  0  0  0  0
   -4.0353    0.9040    0.4905 N   0  0  0  0  0  0  0  0  0  0  0  0
   -3.5942    1.9503   -0.3543 N   0  0  0  0  0  0  0  0  0  0  0  0
   -4.9850    0.1391   -0.2391 C   0  0  0  0  0  0  0  0  0  0  0  0
   -6.2062    0.9941   -0.4805 C   0  0  0  0  0  0  0  0  0  0  0  0
   -7.1164    1.0424    0.7231 C   0  0  0  0  0  0  0  0  0  0  0  0
   -7.4964   -0.2859    1.1590 N   0  0  0  0  0  0  0  0  0  0  0  0
   -6.2883   -0.9490    1.6144 C   0  0  0  0  0  0  0  0  0  0  0  0
   -5.3928   -1.1489    0.4098 C   0  0  0  0  0  0  0  0  0  0  0  0
    4.5959    1.6409   -0.8521 H   0  0  0  0  0  0  0  0  0  0  0  0
    6.7469    2.7039   -0.0969 H   0  0  0  0  0  0  0  0  0  0  0  0
    6.8177    1.4042    1.1860 H   0  0  0  0  0  0  0  0  0  0  0  0
    6.9643    1.2121   -1.8714 H   0  0  0  0  0  0  0  0  0  0  0  0
    8.1477    0.6886   -0.6487 H   0  0  0  0  0  0  0  0  0  0  0  0
    7.0350   -1.2841   -0.0742 H   0  0  0  0  0  0  0  0  0  0  0  0
    5.4174   -0.1467    1.3834 H   0  0  0  0  0  0  0  0  0  0  0  0
    4.4434   -0.5011   -1.4673 H   0  0  0  0  0  0  0  0  0  0  0  0
    3.2294   -1.2503    1.4069 H   0  0  0  0  0  0  0  0  0  0  0  0
    2.3966    1.5104    2.1913 H   0  0  0  0  0  0  0  0  0  0  0  0
    3.9573    0.8637    2.8026 H   0  0  0  0  0  0  0  0  0  0  0  0
    2.4989   -0.0638    3.1282 H   0  0  0  0  0  0  0  0  0  0  0  0
    1.8337   -1.9295    0.4997 H   0  0  0  0  0  0  0  0  0  0  0  0
   -0.4884   -1.7291    0.4180 H   0  0  0  0  0  0  0  0  0  0  0  0
    0.1994   -0.4226    1.4173 H   0  0  0  0  0  0  0  0  0  0  0  0
    2.2257   -0.9745   -2.2054 H   0  0  0  0  0  0  0  0  0  0  0  0
    1.8878   -3.3568   -0.7472 H   0  0  0  0  0  0  0  0  0  0  0  0
    0.7822   -3.3819   -1.9883 H   0  0  0  0  0  0  0  0  0  0  0  0
   -0.4937   -1.7724   -1.6180 H   0  0  0  0  0  0  0  0  0  0  0  0
   -0.8310    0.6436   -2.4975 H   0  0  0  0  0  0  0  0  0  0  0  0
    0.8886    0.8452   -1.8673 H   0  0  0  0  0  0  0  0  0  0  0  0
   -0.4249    1.3098    0.0417 H   0  0  0  0  0  0  0  0  0  0  0  0
   -2.3766   -0.7957   -1.0404 H   0  0  0  0  0  0  0  0  0  0  0  0
   -1.8776    2.0770   -1.4970 H   0  0  0  0  0  0  0  0  0  0  0  0
   -3.1241    1.0277   -2.2221 H   0  0  0  0  0  0  0  0  0  0  0  0
   -2.2186    0.9220    1.4591 H   0  0  0  0  0  0  0  0  0  0  0  0
   -2.9330   -0.7155    1.3362 H   0  0  0  0  0  0  0  0  0  0  0  0
   -3.1251    2.6908    0.1934 H   0  0  0  0  0  0  0  0  0  0  0  0
   -4.5642   -0.1052   -1.2371 H   0  0  0  0  0  0  0  0  0  0  0  0
   -5.8682    2.0277   -0.6844 H   0  0  0  0  0  0  0  0  0  0  0  0
   -6.8047    0.6721   -1.3457 H   0  0  0  0  0  0  0  0  0  0  0  0
   -6.6505    1.5493    1.5866 H   0  0  0  0  0  0  0  0  0  0  0  0
   -8.0097    1.6178    0.4539 H   0  0  0  0  0  0  0  0  0  0  0  0
   -7.8235   -0.7993    0.3075 H   0  0  0  0  0  0  0  0  0  0  0  0
   -5.8013   -0.4101    2.4330 H   0  0  0  0  0  0  0  0  0  0  0  0
   -6.6157   -1.9858    1.9182 H   0  0  0  0  0  0  0  0  0  0  0  0
   -6.0052   -1.7135   -0.3371 H   0  0  0  0  0  0  0  0  0  0  0  0
   -4.5421   -1.7896    0.6642 H   0  0  0  0  0  0  0  0  0  0  0  0
  1  2  1  0
  2  3  1  0
  3  4  1  0
  4  5  1  0
  5  6  1  0
  2  7  1  0
  5  8  1  0
  7  8  1  0
  8  9  1  0
  7 10  1  0
 10 11  1  0
 10 12  1  0
 12 13  1  0
 13 14  1  0
 13 15  1  0
 15 16  1  0
 15 17  1  0
 17 18  1  0
 14 19  1  0
 18 19  1  0
 19 20  1  0
 20 21  1  0
 20 22  1  0
 22 23  1  0
 21 24  1  0
 23 24  1  0
 23 25  1  0
 25 26  1  0
 26 27  1  0
 27 28  1  0
 28 29  1  0
 25 30  1  0
 29 30  1  0
  2 31  1  0
  3 32  1  0
  3 33  1  0
  4 34  1  0
  4 35  1  0
  5 36  1  0
  7 37  1  0
  8 38  1  0
 10 39  1  1
 11 40  1  0
 11 41  1  0
 11 42  1  0
 13 43  1  0
 14 44  1  0
 14 45  1  0
 15 46  1  0
 16 47  1  0
 16 48  1  0
 17 49  1  0
 18 50  1  0
 18 51  1  0
 19 52  1  0
 20 53  1  0
 21 54  1  0
 21 55  1  0
 22 56  1  0
 22 57  1  0
 24 58  1  0
 25 59  1  0
 26 60  1  0
 26 61  1  0
 27 62  1  0
 27 63  1  0
 28 64  1  0
 29 65  1  0
 29 66  1  0
 30 67  1  0
 30 68  1  0
M  END
>  <PDBID>  (1) 
4ANQ

>  <PDB ID>  (1) 
4ANQ

>  <Generic Name>  (1) 
Crizotinib

>  <Brand Name>  (1) 
Xalkori

>  <DrugBank ID>  (1) 
DB08865

>  <ATC Codes>  (1) 
L01XE16

>  <Ligand ID>  (1) 
VGH

>  <Target Name>  (1) 
ALK tyrosine kinase receptor

>  <UniProt ID>  (1) 
Q9UM73

>  <PDB ID.1>  (1) 
4ANQ

>  <Seq. Identity>  (1) 
100%

$$$$
