PDB_DB01024_04
     RDKit          3D

110112  0  0  0  0  0  0  0  0999 V2000
   -3.9597    1.7658   -1.6619 C   0  0  0  0  0  0  0  0  0  0  0  0
    1.4727    0.3538    0.2435 C   0  0  0  0  0  0  0  0  0  0  0  0
    2.2135   -0.7790   -0.4123 C   0  0  0  0  0  0  0  0  0  0  0  0
    3.4303   -1.2153    0.3689 C   0  0  0  0  0  0  0  0  0  0  0  0
    4.4082   -0.0978    0.5240 C   0  0  0  0  0  0  0  0  0  0  0  0
    5.6409   -0.5329    1.3094 C   0  0  0  0  0  0  0  0  0  0  0  0
   -3.8136   -1.2688   -0.2214 C   0  0  0  0  0  0  0  0  0  0  0  0
   -0.3469   -2.4923    1.6013 C   0  0  0  0  0  0  0  0  0  0  0  0
    2.6819   -0.4406   -1.8081 C   0  0  0  0  0  0  0  0  0  0  0  0
   -4.5933    1.3918    0.4679 C   0  0  0  0  0  0  0  0  0  0  0  0
   -3.1414    1.0005    0.4453 C   0  0  0  0  0  0  0  0  0  0  0  0
   -2.9166   -0.4687    0.6523 C   0  0  0  0  0  0  0  0  0  0  0  0
   -1.4542   -0.7402    0.4897 C   0  0  0  0  0  0  0  0  0  0  0  0
   -0.8361   -0.1491   -0.7271 C   0  0  1  0  0  0  0  0  0  0  0  0
   -1.8486    0.5354   -1.6495 C   0  0  0  0  0  0  0  0  0  0  0  0
   -2.6972    1.5157   -0.8922 C   0  0  0  0  0  0  0  0  0  0  0  0
    0.2787    0.8154   -0.4741 C   0  0  0  0  0  0  0  0  0  0  0  0
   -3.9794    3.0313   -2.2500 O   0  0  0  0  0  0  0  0  0  0  0  0
   -5.0222    1.6006   -0.8147 O   0  0  0  0  0  0  0  0  0  0  0  0
   -1.1010   -2.0583    0.5775 O   0  0  0  0  0  0  0  0  0  0  0  0
   -1.1394    1.2479   -2.6168 O   0  0  0  0  0  0  0  0  0  0  0  0
    6.5355    0.5208    1.4413 O   0  0  0  0  0  0  0  0  0  0  0  0
    5.2760   -0.9518    2.5856 O   0  0  0  0  0  0  0  0  0  0  0  0
   -3.3042    2.4160   -1.7027 C   0  0  2  0  0  0  0  0  0  0  0  0
    1.1535   -1.6789   -0.4178 C   0  0  0  0  0  0  0  0  0  0  0  0
    2.5947   -1.9237   -0.5992 C   0  0  0  0  0  0  0  0  0  0  0  0
    3.6042   -0.9941   -0.0608 C   0  0  0  0  0  0  0  0  0  0  0  0
    3.6581    0.4042   -0.5344 C   0  0  0  0  0  0  0  0  0  0  0  0
    4.8616    1.0476    0.2046 C   0  0  0  0  0  0  0  0  0  0  0  0
   -2.9061    0.2523    2.4885 C   0  0  0  0  0  0  0  0  0  0  0  0
   -1.4666   -2.3843    2.1132 C   0  0  0  0  0  0  0  0  0  0  0  0
    2.9310   -2.1484   -2.0939 C   0  0  0  0  0  0  0  0  0  0  0  0
   -4.1191    2.0879    0.3779 C   0  0  0  0  0  0  0  0  0  0  0  0
   -3.1622    0.9876    0.1095 C   0  0  0  0  0  0  0  0  0  0  0  0
   -2.2239    0.6273    1.1903 C   0  0  2  0  0  0  0  0  0  0  0  0
   -1.3589   -0.5353    0.6675 C   0  0  2  0  0  0  0  0  0  0  0  0
   -1.0195   -0.4748   -0.7378 C   0  0  1  0  0  0  0  0  0  0  0  0
   -1.5561    0.5870   -1.6220 C   0  0  2  0  0  0  0  0  0  0  0  0
   -2.2701    1.6988   -0.9274 C   0  0  0  0  0  0  0  0  0  0  0  0
    0.5222   -0.4674   -0.9521 C   0  0  0  0  0  0  0  0  0  0  0  0
   -2.8593    3.7318   -1.9202 O   0  0  0  0  0  0  0  0  0  0  0  0
   -4.4502    2.5249   -0.9080 O   0  0  0  0  0  0  0  0  0  0  0  0
   -2.0165   -1.6689    1.1088 O   0  0  0  0  0  0  0  0  0  0  0  0
   -2.4670    0.0779   -2.5838 O   0  0  0  0  0  0  0  0  0  0  0  0
    6.0295    0.3865   -0.0936 O   0  0  0  0  0  0  0  0  0  0  0  0
    4.6015    0.8788    1.5575 O   0  0  0  0  0  0  0  0  0  0  0  0
   -4.0988    1.0545   -2.5229 H   0  0  0  0  0  0  0  0  0  0  0  0
    1.3805    0.1292    1.3005 H   0  0  0  0  0  0  0  0  0  0  0  0
    2.2139    1.2167    0.2196 H   0  0  0  0  0  0  0  0  0  0  0  0
    1.5743   -1.6995   -0.5260 H   0  0  0  0  0  0  0  0  0  0  0  0
    3.9005   -2.0367   -0.2016 H   0  0  0  0  0  0  0  0  0  0  0  0
    3.0954   -1.5937    1.3687 H   0  0  0  0  0  0  0  0  0  0  0  0
    4.7654    0.2247   -0.4747 H   0  0  0  0  0  0  0  0  0  0  0  0
    4.0014    0.7689    1.0686 H   0  0  0  0  0  0  0  0  0  0  0  0
    6.1641   -1.3642    0.7588 H   0  0  0  0  0  0  0  0  0  0  0  0
   -3.2866   -2.0011   -0.8667 H   0  0  0  0  0  0  0  0  0  0  0  0
   -4.5696   -1.7980    0.4378 H   0  0  0  0  0  0  0  0  0  0  0  0
   -4.4482   -0.6526   -0.8900 H   0  0  0  0  0  0  0  0  0  0  0  0
   -0.2048   -3.6063    1.4434 H   0  0  0  0  0  0  0  0  0  0  0  0
    0.6914   -2.1115    1.6635 H   0  0  0  0  0  0  0  0  0  0  0  0
   -0.8005   -2.4165    2.6081 H   0  0  0  0  0  0  0  0  0  0  0  0
    1.8750   -0.5142   -2.5622 H   0  0  0  0  0  0  0  0  0  0  0  0
    3.4207   -1.2432   -2.0859 H   0  0  0  0  0  0  0  0  0  0  0  0
    3.2432    0.5101   -1.8498 H   0  0  0  0  0  0  0  0  0  0  0  0
   -5.2260    0.7004    1.0505 H   0  0  0  0  0  0  0  0  0  0  0  0
   -4.6498    2.3784    1.0057 H   0  0  0  0  0  0  0  0  0  0  0  0
   -2.5588    1.5421    1.2236 H   0  0  0  0  0  0  0  0  0  0  0  0
   -3.1369   -0.6553    1.7475 H   0  0  0  0  0  0  0  0  0  0  0  0
   -0.9783   -0.2265    1.3814 H   0  0  0  0  0  0  0  0  0  0  0  0
   -0.4274   -0.9797   -1.3358 H   0  0  0  0  0  0  0  0  0  0  0  0
   -2.4938   -0.1739   -2.1861 H   0  0  0  0  0  0  0  0  0  0  0  0
   -2.1465    2.4737   -0.8235 H   0  0  0  0  0  0  0  0  0  0  0  0
   -0.1636    1.7048    0.0263 H   0  0  0  0  0  0  0  0  0  0  0  0
    0.6149    1.2091   -1.4803 H   0  0  0  0  0  0  0  0  0  0  0  0
   -3.7539    3.7516   -1.6180 H   0  0  0  0  0  0  0  0  0  0  0  0
   -1.0929    2.2172   -2.4050 H   0  0  0  0  0  0  0  0  0  0  0  0
    6.7836    0.7926    0.5094 H   0  0  0  0  0  0  0  0  0  0  0  0
    5.2235   -0.1855    3.2142 H   0  0  0  0  0  0  0  0  0  0  0  0
   -3.5394    1.9548   -2.6910 H   0  0  0  0  0  0  0  0  0  0  0  0
    0.6212   -2.6272   -0.7185 H   0  0  0  0  0  0  0  0  0  0  0  0
    0.9771   -1.6893    0.7170 H   0  0  0  0  0  0  0  0  0  0  0  0
    2.8722   -2.9567   -0.1641 H   0  0  0  0  0  0  0  0  0  0  0  0
    3.4242   -0.9396    1.0758 H   0  0  0  0  0  0  0  0  0  0  0  0
    4.6048   -1.5109   -0.1714 H   0  0  0  0  0  0  0  0  0  0  0  0
    3.8934    0.4966   -1.6127 H   0  0  0  0  0  0  0  0  0  0  0  0
    2.8361    1.0553   -0.2971 H   0  0  0  0  0  0  0  0  0  0  0  0
    4.9624    2.1038   -0.0574 H   0  0  0  0  0  0  0  0  0  0  0  0
   -3.3806   -0.7449    2.4326 H   0  0  0  0  0  0  0  0  0  0  0  0
   -2.2243    0.3994    3.3377 H   0  0  0  0  0  0  0  0  0  0  0  0
   -3.7681    0.9560    2.6869 H   0  0  0  0  0  0  0  0  0  0  0  0
   -1.3297   -1.7979    3.0449 H   0  0  0  0  0  0  0  0  0  0  0  0
   -2.2644   -3.1372    2.4171 H   0  0  0  0  0  0  0  0  0  0  0  0
   -0.6061   -3.0344    1.8654 H   0  0  0  0  0  0  0  0  0  0  0  0
    2.4159   -3.0496   -2.4578 H   0  0  0  0  0  0  0  0  0  0  0  0
    4.0207   -2.3550   -2.1265 H   0  0  0  0  0  0  0  0  0  0  0  0
    2.7448   -1.2437   -2.6755 H   0  0  0  0  0  0  0  0  0  0  0  0
   -5.0516    1.6515    0.8041 H   0  0  0  0  0  0  0  0  0  0  0  0
   -3.7019    2.9002    0.9866 H   0  0  0  0  0  0  0  0  0  0  0  0
   -3.6872    0.1363   -0.3560 H   0  0  0  0  0  0  0  0  0  0  0  0
   -1.5736    1.5009    1.4115 H   0  0  0  0  0  0  0  0  0  0  0  0
   -0.4504   -0.4510    1.3021 H   0  0  0  0  0  0  0  0  0  0  0  0
   -1.3076   -1.4604   -1.2195 H   0  0  0  0  0  0  0  0  0  0  0  0
   -0.7709    1.0864   -2.2587 H   0  0  0  0  0  0  0  0  0  0  0  0
   -1.5619    2.3464   -0.3956 H   0  0  0  0  0  0  0  0  0  0  0  0
    0.7890    0.4343   -0.3110 H   0  0  0  0  0  0  0  0  0  0  0  0
    0.7296   -0.1941   -1.9825 H   0  0  0  0  0  0  0  0  0  0  0  0
   -2.8142    4.1490   -1.0226 H   0  0  0  0  0  0  0  0  0  0  0  0
   -2.5970   -0.8773   -2.4497 H   0  0  0  0  0  0  0  0  0  0  0  0
    6.2992   -0.2824    0.5805 H   0  0  0  0  0  0  0  0  0  0  0  0
    4.6620    1.7478    2.0190 H   0  0  0  0  0  0  0  0  0  0  0  0
  2  3  1  0
  3  4  1  0
  4  5  1  0
  5  6  1  0
  3  9  1  0
 10 11  1  0
  7 12  1  0
 11 12  1  0
 12 13  1  0
 13 14  1  0
 14 15  1  0
  1 16  1  0
 11 16  1  0
 15 16  1  0
  2 17  1  0
 14 17  1  0
  1 18  1  0
  1 19  1  0
 10 19  1  0
  8 20  1  0
 13 20  1  0
 15 21  1  0
  6 22  1  0
  6 23  1  0
 25 26  1  0
 26 27  1  0
 27 28  1  0
 28 29  1  0
 26 32  1  0
 33 34  1  0
 30 35  1  0
 34 35  1  0
 35 36  1  0
 36 37  1  0
 37 38  1  0
 24 39  1  0
 34 39  1  0
 38 39  1  0
 25 40  1  0
 37 40  1  0
 24 41  1  0
 24 42  1  0
 33 42  1  0
 31 43  1  0
 36 43  1  0
 38 44  1  0
 29 45  1  0
 29 46  1  0
  1 47  1  0
  2 48  1  0
  2 49  1  0
  3 50  1  0
  4 51  1  0
  4 52  1  0
  5 53  1  0
  5 54  1  0
  6 55  1  0
  7 56  1  0
  7 57  1  0
  7 58  1  0
  8 59  1  0
  8 60  1  0
  8 61  1  0
  9 62  1  0
  9 63  1  0
  9 64  1  0
 10 65  1  0
 10 66  1  0
 11 67  1  0
 12 68  1  0
 13 69  1  0
 14 70  1  6
 15 71  1  0
 16 72  1  0
 17 73  1  0
 17 74  1  0
 18 75  1  0
 21 76  1  0
 22 77  1  0
 23 78  1  0
 24 79  1  6
 25 80  1  0
 25 81  1  0
 26 82  1  0
 27 83  1  0
 27 84  1  0
 28 85  1  0
 28 86  1  0
 29 87  1  0
 30 88  1  0
 30 89  1  0
 30 90  1  0
 31 91  1  0
 31 92  1  0
 31 93  1  0
 32 94  1  0
 32 95  1  0
 32 96  1  0
 33 97  1  0
 33 98  1  0
 34 99  1  0
 35100  1  1
 36101  1  1
 37102  1  6
 38103  1  6
 39104  1  0
 40105  1  0
 40106  1  0
 41107  1  0
 44108  1  0
 45109  1  0
 46110  1  0
M  END
>  <PDBID>  (1) 
1JR1

>  <PDB ID>  (1) 
1JR1

>  <Generic Name>  (1) 
Mycophenolic acid

>  <Brand Name>  (1) 
Apo-mycophenolic Acid#Mycophenolic Acid#Myfortic#Melbex

>  <DrugBank ID>  (1) 
DB01024

>  <ATC Codes>  (1) 
L04AA06

>  <Ligand ID>  (1) 
MOA

>  <Target Name>  (1) 
Inosine-5'-monophosphate dehydrogenase 2

>  <UniProt ID>  (1) 
P12268

>  <PDB ID.1>  (1) 
1JR1

>  <Seq. Identity>  (1) 
99%

$$$$
