PDB_DB00196_07
     RDKit          3D

 48 50  0  0  0  0  0  0  0  0999 V2000
    0.2414    0.0519   -1.6131 O   0  0  0  0  0  0  0  0  0  0  0  0
    0.2206    0.0923   -0.1954 C   0  0  0  0  0  0  0  0  0  0  0  0
   -0.1477    1.4240    0.2877 C   0  0  0  0  0  0  0  0  0  0  0  0
   -0.6636   -1.0636    0.1774 C   0  0  0  0  0  0  0  0  0  0  0  0
    1.6331   -0.2208    0.2747 C   0  0  0  0  0  0  0  0  0  0  0  0
   -1.3770    2.0246   -0.0054 N   0  0  0  0  0  0  0  0  0  0  0  0
   -2.5803    1.6298    0.5866 C   0  0  0  0  0  0  0  0  0  0  0  0
   -1.3617    3.4250    0.0255 N   0  0  0  0  0  0  0  0  0  0  0  0
   -3.1680    2.8529    1.2072 N   0  0  0  0  0  0  0  0  0  0  0  0
   -2.0505    3.7590    1.2733 C   0  0  0  0  0  0  0  0  0  0  0  0
   -2.0135   -0.9937   -0.3366 N   0  0  0  0  0  0  0  0  0  0  0  0
   -2.7168   -2.1677    0.1274 C   0  0  0  0  0  0  0  0  0  0  0  0
   -2.0351   -0.9978   -1.7187 N   0  0  0  0  0  0  0  0  0  0  0  0
   -3.2678   -2.8105   -1.0524 N   0  0  0  0  0  0  0  0  0  0  0  0
   -2.4331   -2.3243   -2.1585 C   0  0  0  0  0  0  0  0  0  0  0  0
    2.6678    0.7180   -0.2917 C   0  0  0  0  0  0  0  0  0  0  0  0
    2.0965   -1.6114    0.1330 C   0  0  0  0  0  0  0  0  0  0  0  0
    3.9502    0.6235    0.5538 C   0  0  0  0  0  0  0  0  0  0  0  0
    4.4509   -0.7986    0.2796 C   0  0  0  0  0  0  0  0  0  0  0  0
    5.6537   -0.9922    0.9485 F   0  0  0  0  0  0  0  0  0  0  0  0
    3.4566   -1.7367    0.8492 C   0  0  0  0  0  0  0  0  0  0  0  0
    1.3316   -2.5607    0.8195 F   0  0  0  0  0  0  0  0  0  0  0  0
    0.7357    0.8306   -1.9526 H   0  0  0  0  0  0  0  0  0  0  0  0
    0.6894    2.1884    0.1016 H   0  0  0  0  0  0  0  0  0  0  0  0
   -0.0601    1.3572    1.4458 H   0  0  0  0  0  0  0  0  0  0  0  0
   -0.7152   -1.1553    1.2617 H   0  0  0  0  0  0  0  0  0  0  0  0
   -0.2669   -1.9987   -0.3441 H   0  0  0  0  0  0  0  0  0  0  0  0
    1.5961    0.0660    1.3888 H   0  0  0  0  0  0  0  0  0  0  0  0
   -3.3139    1.3164   -0.2181 H   0  0  0  0  0  0  0  0  0  0  0  0
   -2.5283    0.9302    1.4323 H   0  0  0  0  0  0  0  0  0  0  0  0
   -2.0340    3.7749   -0.7226 H   0  0  0  0  0  0  0  0  0  0  0  0
   -3.8755    3.2672    0.5469 H   0  0  0  0  0  0  0  0  0  0  0  0
   -1.3750    3.5637    2.1166 H   0  0  0  0  0  0  0  0  0  0  0  0
   -2.3480    4.8227    1.2847 H   0  0  0  0  0  0  0  0  0  0  0  0
   -2.0724   -2.8977    0.6352 H   0  0  0  0  0  0  0  0  0  0  0  0
   -3.5106   -1.8983    0.8592 H   0  0  0  0  0  0  0  0  0  0  0  0
   -2.6952   -0.3094   -2.1311 H   0  0  0  0  0  0  0  0  0  0  0  0
   -3.1354   -3.8453   -1.0242 H   0  0  0  0  0  0  0  0  0  0  0  0
   -1.5544   -2.9930   -2.2969 H   0  0  0  0  0  0  0  0  0  0  0  0
   -3.0508   -2.3261   -3.0561 H   0  0  0  0  0  0  0  0  0  0  0  0
    3.0148    0.3227   -1.3036 H   0  0  0  0  0  0  0  0  0  0  0  0
    2.4287    1.7650   -0.3303 H   0  0  0  0  0  0  0  0  0  0  0  0
    2.1566   -1.8969   -0.9228 H   0  0  0  0  0  0  0  0  0  0  0  0
    3.7193    0.6872    1.6211 H   0  0  0  0  0  0  0  0  0  0  0  0
    4.6722    1.3750    0.1840 H   0  0  0  0  0  0  0  0  0  0  0  0
    4.6007   -0.9378   -0.7983 H   0  0  0  0  0  0  0  0  0  0  0  0
    3.7890   -2.7996    0.7785 H   0  0  0  0  0  0  0  0  0  0  0  0
    3.2459   -1.5321    1.9119 H   0  0  0  0  0  0  0  0  0  0  0  0
  2  1  1  0
  2  3  1  0
  2  4  1  0
  2  5  1  0
  3  6  1  0
  6  7  1  0
  6  8  1  0
  7  9  1  0
  8 10  1  0
  9 10  1  0
  4 11  1  0
 11 12  1  0
 11 13  1  0
 12 14  1  0
 13 15  1  0
 15 14  1  0
  5 16  1  0
  5 17  1  0
 16 18  1  0
 18 19  1  0
 19 20  1  0
 17 21  1  0
 19 21  1  0
 17 22  1  0
  1 23  1  0
  3 24  1  0
  3 25  1  0
  4 26  1  0
  4 27  1  0
  5 28  1  0
  7 29  1  0
  7 30  1  0
  8 31  1  0
  9 32  1  0
 10 33  1  0
 10 34  1  0
 12 35  1  0
 12 36  1  0
 13 37  1  0
 14 38  1  0
 15 39  1  0
 15 40  1  0
 16 41  1  0
 16 42  1  0
 17 43  1  0
 18 44  1  0
 18 45  1  0
 19 46  1  0
 21 47  1  0
 21 48  1  0
M  END
>  <PDBID>  (1) 
5ESM

>  <PDB ID>  (1) 
5ESM

>  <Generic Name>  (1) 
Fluconazole

>  <Brand Name>  (1) 
Act Fluconazole#Apo-fluconazole#Apo-fluconazole-150#Canesoral#Canesoral Combi-pak#Clotrimaderm-fluconazole Combi-pack#Clotrimazole-fluconazole Combi-pack#Co Fluconazole-150#Diflucan#Diflucan Inj 2mg/ml#Diflucan One#Diflucan Pws 50mg/5ml#Diflucan Tab 100mg#Diflucan Tab 50mg#Dom-fluconazole#Fluconazole#Fluconazole 150#Fluconazole In Sodium Chloride Injection USP#Fluconazole Injection#Fluconazole Injection Sdz#Fluconazole Omega#Fluconazole-150#Jamp-fluconazole#Mar-fluconazole-150#Monicure#Monicure Combo#Mylan-fluconazole#Novo-fluconazole#Novo-fluconazole-150#Nu-fluconazole-150#PHL-fluconazole#PMS-fluconazole#PMS-fluconazole-150#Priva-fluconazole#Pro-fluconazole#Riva-fluconazole#Taro-fluconazole#Teva-fluconazole#Elazor#Flucazol#Flucostat#Flunizol#Pritenzol#Trican#Triflucan

>  <DrugBank ID>  (1) 
DB00196

>  <ATC Codes>  (1) 
D01AC15#J02AC01#J01RA07

>  <Ligand ID>  (1) 
TPF

>  <Target Name>  (1) 
Lanosterol 14-alpha demethylase

>  <UniProt ID>  (1) 
P10613

>  <PDB ID.1>  (1) 
5ESM

>  <Seq. Identity>  (1) 
65%

$$$$
