PDB_DB00320_07
     RDKit          3D

100107  0  0  0  0  0  0  0  0999 V2000
    3.0513   -0.3796   -0.3548 C   0  0  0  0  0  0  0  0  0  0  0  0
    4.4509    0.0002   -0.7573 C   0  0  2  0  0  0  0  0  0  0  0  0
    5.4703   -0.5499    0.1899 C   0  0  2  0  0  0  0  0  0  0  0  0
    6.7273    0.1840   -0.0396 C   0  0  2  0  0  0  0  0  0  0  0  0
    5.7901   -2.0168   -0.0513 C   0  0  0  0  0  0  0  0  0  0  0  0
    7.2027   -2.2463   -0.4934 C   0  0  0  0  0  0  0  0  0  0  0  0
    8.2601   -1.6142    0.3593 C   0  0  0  0  0  0  0  0  0  0  0  0
    7.8928   -0.1995    0.7991 C   0  0  0  0  0  0  0  0  0  0  0  0
    8.8655    0.7929    0.4052 N   0  0  0  0  0  0  0  0  0  0  0  0
    8.1132    2.0126    0.0559 C   0  0  0  0  0  0  0  0  0  0  0  0
    6.6629    1.6758    0.1541 C   0  0  0  0  0  0  0  0  0  0  0  0
    5.8095    2.1412   -1.0025 C   0  0  0  0  0  0  0  0  0  0  0  0
    4.4958    1.4585   -0.9696 C   0  0  1  0  0  0  0  0  0  0  0  0
    3.7247    1.7072   -2.1884 N   0  0  0  0  0  0  0  0  0  0  0  0
    4.2653    1.0583   -3.3412 C   0  0  0  0  0  0  0  0  0  0  0  0
    2.3316    1.3972   -2.0121 C   0  0  0  0  0  0  0  0  0  0  0  0
    1.9752    0.3646   -1.0305 C   0  0  2  0  0  0  0  0  0  0  0  0
    0.9916    0.9973   -0.0246 C   0  0  0  0  0  0  0  0  0  0  0  0
    0.0478    1.6610   -0.7916 O   0  0  0  0  0  0  0  0  0  0  0  0
    0.3776    0.0390    0.8117 N   0  0  0  0  0  0  0  0  0  0  0  0
   -0.8983    0.3049    1.3538 C   0  0  2  0  0  0  0  0  0  0  0  0
   -0.9242    1.5528    2.2402 C   0  0  0  0  0  0  0  0  0  0  0  0
   -1.1713   -0.7425    2.2533 O   0  0  0  0  0  0  0  0  0  0  0  0
   -1.9651    0.2994    0.3249 C   0  0  0  0  0  0  0  0  0  0  0  0
   -2.6999    1.4920    0.5039 O   0  0  0  0  0  0  0  0  0  0  0  0
   -2.7922   -0.8612    0.6671 N   0  0  0  0  0  0  0  0  0  0  0  0
   -2.3858   -1.2632    1.9589 C   0  0  1  0  0  0  0  0  0  0  0  0
   -2.2622   -2.6732    1.9641 O   0  0  0  0  0  0  0  0  0  0  0  0
   -3.5008   -0.9425    2.9188 C   0  0  2  0  0  0  0  0  0  0  0  0
   -3.2345   -1.3946    4.3323 C   0  0  0  0  0  0  0  0  0  0  0  0
   -4.6718   -1.5626    4.8421 C   0  0  0  0  0  0  0  0  0  0  0  0
   -5.5075   -1.8771    3.6072 C   0  0  0  0  0  0  0  0  0  0  0  0
   -4.5784   -1.8469    2.5286 N   0  0  0  0  0  0  0  0  0  0  0  0
   -5.1242   -1.2990    1.2833 C   0  0  0  0  0  0  0  0  0  0  0  0
   -5.4967   -2.3910    0.5353 O   0  0  0  0  0  0  0  0  0  0  0  0
   -4.1908   -0.4106    0.5620 C   0  0  2  0  0  0  0  0  0  0  0  0
   -4.4499   -0.3448   -0.9046 C   0  0  0  0  0  0  0  0  0  0  0  0
   -5.7299    0.1093   -1.4460 C   0  0  0  0  0  0  0  0  0  0  0  0
   -6.9909   -0.6276   -1.1673 C   0  0  0  0  0  0  0  0  0  0  0  0
   -8.0643    0.0151   -2.0848 C   0  0  0  0  0  0  0  0  0  0  0  0
   -7.6905    1.4158   -2.4775 C   0  0  0  0  0  0  0  0  0  0  0  0
   -6.4562    1.4392   -3.3673 C   0  0  0  0  0  0  0  0  0  0  0  0
   -5.6559    0.2135   -2.9960 C   0  0  0  0  0  0  0  0  0  0  0  0
    2.9805   -0.1816    0.7559 H   0  0  0  0  0  0  0  0  0  0  0  0
    2.9775   -1.4947   -0.4413 H   0  0  0  0  0  0  0  0  0  0  0  0
    4.6332   -0.5066   -1.7487 H   0  0  0  0  0  0  0  0  0  0  0  0
    5.1532   -0.3756    1.2583 H   0  0  0  0  0  0  0  0  0  0  0  0
    7.0383    0.0315   -1.1148 H   0  0  0  0  0  0  0  0  0  0  0  0
    5.6619   -2.5470    0.9273 H   0  0  0  0  0  0  0  0  0  0  0  0
    5.1222   -2.3820   -0.8356 H   0  0  0  0  0  0  0  0  0  0  0  0
    7.3731   -3.3396   -0.4848 H   0  0  0  0  0  0  0  0  0  0  0  0
    7.3202   -1.9475   -1.5731 H   0  0  0  0  0  0  0  0  0  0  0  0
    8.5974   -2.2425    1.1997 H   0  0  0  0  0  0  0  0  0  0  0  0
    9.1676   -1.4833   -0.3009 H   0  0  0  0  0  0  0  0  0  0  0  0
    7.6941   -0.2148    1.8768 H   0  0  0  0  0  0  0  0  0  0  0  0
    9.4412    1.0032    1.2696 H   0  0  0  0  0  0  0  0  0  0  0  0
    8.4502    2.3693   -0.9221 H   0  0  0  0  0  0  0  0  0  0  0  0
    8.3270    2.8097    0.8227 H   0  0  0  0  0  0  0  0  0  0  0  0
    6.1880    1.9586    1.1115 H   0  0  0  0  0  0  0  0  0  0  0  0
    5.6440    3.2275   -0.9172 H   0  0  0  0  0  0  0  0  0  0  0  0
    6.3959    1.9723   -1.9255 H   0  0  0  0  0  0  0  0  0  0  0  0
    3.8964    1.9417   -0.1507 H   0  0  0  0  0  0  0  0  0  0  0  0
    5.2861    0.6926   -3.2529 H   0  0  0  0  0  0  0  0  0  0  0  0
    3.6218    0.1602   -3.5793 H   0  0  0  0  0  0  0  0  0  0  0  0
    4.2057    1.7278   -4.2350 H   0  0  0  0  0  0  0  0  0  0  0  0
    1.8492    2.3969   -1.7880 H   0  0  0  0  0  0  0  0  0  0  0  0
    1.9379    1.1637   -3.0476 H   0  0  0  0  0  0  0  0  0  0  0  0
    1.3312   -0.4045   -1.5587 H   0  0  0  0  0  0  0  0  0  0  0  0
    1.6073    1.7133    0.5772 H   0  0  0  0  0  0  0  0  0  0  0  0
    0.0934    1.3881   -1.7290 H   0  0  0  0  0  0  0  0  0  0  0  0
    0.6123   -0.9473    0.6568 H   0  0  0  0  0  0  0  0  0  0  0  0
    0.0492    1.7302    2.7177 H   0  0  0  0  0  0  0  0  0  0  0  0
   -1.6702    1.4206    3.0542 H   0  0  0  0  0  0  0  0  0  0  0  0
   -1.2868    2.4359    1.6490 H   0  0  0  0  0  0  0  0  0  0  0  0
   -1.6498    0.1356   -0.7067 H   0  0  0  0  0  0  0  0  0  0  0  0
   -2.5783    2.0345   -0.3049 H   0  0  0  0  0  0  0  0  0  0  0  0
   -2.7936   -3.0519    1.2176 H   0  0  0  0  0  0  0  0  0  0  0  0
   -3.7798    0.1086    2.8767 H   0  0  0  0  0  0  0  0  0  0  0  0
   -2.8137   -0.5330    4.8847 H   0  0  0  0  0  0  0  0  0  0  0  0
   -2.6645   -2.3166    4.4126 H   0  0  0  0  0  0  0  0  0  0  0  0
   -4.6863   -2.3519    5.5897 H   0  0  0  0  0  0  0  0  0  0  0  0
   -5.0611   -0.6341    5.2674 H   0  0  0  0  0  0  0  0  0  0  0  0
   -5.8219   -2.9517    3.7421 H   0  0  0  0  0  0  0  0  0  0  0  0
   -6.3815   -1.2320    3.5086 H   0  0  0  0  0  0  0  0  0  0  0  0
   -6.0378   -0.6863    1.5571 H   0  0  0  0  0  0  0  0  0  0  0  0
   -6.3334   -2.8134    0.8660 H   0  0  0  0  0  0  0  0  0  0  0  0
   -4.3084    0.6338    0.9526 H   0  0  0  0  0  0  0  0  0  0  0  0
   -4.2718   -1.3912   -1.3729 H   0  0  0  0  0  0  0  0  0  0  0  0
   -3.6040    0.2273   -1.4311 H   0  0  0  0  0  0  0  0  0  0  0  0
   -5.8922    1.1779   -1.1004 H   0  0  0  0  0  0  0  0  0  0  0  0
   -6.9383   -1.6944   -1.5505 H   0  0  0  0  0  0  0  0  0  0  0  0
   -7.4081   -0.5601   -0.1705 H   0  0  0  0  0  0  0  0  0  0  0  0
   -9.0233    0.0774   -1.5426 H   0  0  0  0  0  0  0  0  0  0  0  0
   -8.1940   -0.5707   -3.0107 H   0  0  0  0  0  0  0  0  0  0  0  0
   -7.6153    2.0915   -1.6097 H   0  0  0  0  0  0  0  0  0  0  0  0
   -8.5369    1.7842   -3.1211 H   0  0  0  0  0  0  0  0  0  0  0  0
   -5.8862    2.3633   -3.1697 H   0  0  0  0  0  0  0  0  0  0  0  0
   -6.7379    1.4341   -4.4467 H   0  0  0  0  0  0  0  0  0  0  0  0
   -6.1326   -0.6912   -3.4338 H   0  0  0  0  0  0  0  0  0  0  0  0
   -4.6133    0.2452   -3.3262 H   0  0  0  0  0  0  0  0  0  0  0  0
  1  2  1  0
  2  3  1  0
  3  4  1  0
  3  5  1  0
  5  6  1  0
  6  7  1  0
  4  8  1  0
  7  8  1  0
  8  9  1  0
  9 10  1  0
  4 11  1  0
 10 11  1  0
 11 12  1  0
  2 13  1  0
 12 13  1  0
 13 14  1  0
 14 15  1  0
 14 16  1  0
  1 17  1  0
 16 17  1  0
 17 18  1  0
 18 19  1  0
 18 20  1  0
 21 20  1  6
 21 22  1  0
 21 23  1  0
 21 24  1  0
 24 25  1  0
 24 26  1  0
 23 27  1  0
 26 27  1  0
 27 28  1  6
 27 29  1  0
 29 30  1  0
 30 31  1  0
 31 32  1  0
 29 33  1  0
 32 33  1  0
 33 34  1  0
 34 35  1  0
 26 36  1  0
 34 36  1  0
 36 37  1  0
 37 38  1  0
 38 39  1  0
 39 40  1  0
 40 41  1  0
 41 42  1  0
 38 43  1  0
 42 43  1  0
  1 44  1  0
  1 45  1  0
  2 46  1  6
  3 47  1  1
  4 48  1  6
  5 49  1  0
  5 50  1  0
  6 51  1  0
  6 52  1  0
  7 53  1  0
  7 54  1  0
  8 55  1  0
  9 56  1  0
 10 57  1  0
 10 58  1  0
 11 59  1  0
 12 60  1  0
 12 61  1  0
 13 62  1  1
 15 63  1  0
 15 64  1  0
 15 65  1  0
 16 66  1  0
 16 67  1  0
 17 68  1  6
 18 69  1  0
 19 70  1  0
 20 71  1  0
 22 72  1  0
 22 73  1  0
 22 74  1  0
 24 75  1  0
 25 76  1  0
 28 77  1  0
 29 78  1  1
 30 79  1  0
 30 80  1  0
 31 81  1  0
 31 82  1  0
 32 83  1  0
 32 84  1  0
 34 85  1  0
 35 86  1  0
 36 87  1  1
 37 88  1  0
 37 89  1  0
 38 90  1  0
 39 91  1  0
 39 92  1  0
 40 93  1  0
 40 94  1  0
 41 95  1  0
 41 96  1  0
 42 97  1  0
 42 98  1  0
 43 99  1  0
 43100  1  0
M  END
>  <PDBID>  (1) 
4IAQ

>  <PDB ID>  (1) 
4IAQ

>  <Generic Name>  (1) 
Dihydroergotamine

>  <Brand Name>  (1) 
D.H.E. 45#Dihydroergotamine (dhe), 1mg/ml#Dihydroergotamine Mesylate#Dihydroergotamine Mesylate Injection USP#Migranal#Migranal Nasal Spray 4mg/ml#PMS-dihydroergotamine#Dihydergot#Ergont#Ergotonin#Ikaran#Orstanorm#Verladyn

>  <DrugBank ID>  (1) 
DB00320

>  <ATC Codes>  (1) 
N02CA01#N02CA51

>  <Ligand ID>  (1) 
2GM

>  <Target Name>  (1) 
5-hydroxytryptamine receptor 1D

>  <UniProt ID>  (1) 
P28221

>  <PDB ID.1>  (1) 
4IAQ

>  <Seq. Identity>  (1) 
55%

$$$$
