PDB_DB01268_00
     RDKit          3D

 72 74  0  0  0  0  0  0  0  0999 V2000
    0.8429    2.9786   -0.4130 C   0  0  0  0  0  0  0  0  0  0  0  0
   -7.3443   -0.8521   -0.0264 C   0  0  0  0  0  0  0  0  0  0  0  0
   -6.9399   -0.2513    1.3128 C   0  0  0  0  0  0  0  0  0  0  0  0
   -5.1129   -2.0258   -0.0681 C   0  0  0  0  0  0  0  0  0  0  0  0
   -0.3761   -0.4839   -0.9519 C   0  0  0  0  0  0  0  0  0  0  0  0
   -6.5858   -2.1452   -0.1634 C   0  0  0  0  0  0  0  0  0  0  0  0
   -4.5826   -0.9894    0.8624 C   0  0  0  0  0  0  0  0  0  0  0  0
   -3.4264   -0.2819    0.1151 C   0  0  0  0  0  0  0  0  0  0  0  0
   -3.7831    1.2082    0.2859 C   0  0  0  0  0  0  0  0  0  0  0  0
    1.9184    0.1925   -0.4514 C   0  0  0  0  0  0  0  0  0  0  0  0
   -1.2559   -0.4724   -2.1413 C   0  0  0  0  0  0  0  0  0  0  0  0
   -2.1814   -0.6182    0.8410 C   0  0  0  0  0  0  0  0  0  0  0  0
   -0.0227    1.7884   -0.6945 C   0  0  0  0  0  0  0  0  0  0  0  0
   -5.4939    0.1152    1.1879 C   0  0  0  0  0  0  0  0  0  0  0  0
   -0.8896   -0.1001    0.3639 C   0  0  0  0  0  0  0  0  0  0  0  0
    0.6996    0.5892   -1.2172 C   0  0  0  0  0  0  0  0  0  0  0  0
   -0.8349    1.3571    0.3936 N   0  0  0  0  0  0  0  0  0  0  0  0
   -5.2382    1.1435    0.2171 N   0  0  0  0  0  0  0  0  0  0  0  0
    3.0027    1.1512   -0.6242 N   0  0  0  0  0  0  0  0  0  0  0  0
   -3.3814    1.9758   -0.7872 O   0  0  0  0  0  0  0  0  0  0  0  0
    2.3660   -1.0323   -0.9565 O   0  0  0  0  0  0  0  0  0  0  0  0
   -7.1194   -3.0533    0.7248 F   0  0  0  0  0  0  0  0  0  0  0  0
    3.8165    1.1398    0.5503 C   0  0  0  0  0  0  0  0  0  0  0  0
    4.5988   -0.1080    0.7632 C   0  0  0  0  0  0  0  0  0  0  0  0
    5.5717   -0.4668   -0.1542 N   0  0  0  0  0  0  0  0  0  0  0  0
    6.1821   -1.7135    0.0733 C   0  0  0  0  0  0  0  0  0  0  0  0
    6.2809    0.4287   -0.9340 C   0  0  0  0  0  0  0  0  0  0  0  0
    7.1662    1.3182   -0.0481 C   0  0  0  0  0  0  0  0  0  0  0  0
    7.0255   -1.7438    1.3149 C   0  0  0  0  0  0  0  0  0  0  0  0
    1.4899    2.8913    0.4547 H   0  0  0  0  0  0  0  0  0  0  0  0
    0.1231    3.8281   -0.1952 H   0  0  0  0  0  0  0  0  0  0  0  0
    1.3996    3.2814   -1.3070 H   0  0  0  0  0  0  0  0  0  0  0  0
   -7.2298   -0.1613   -0.8598 H   0  0  0  0  0  0  0  0  0  0  0  0
   -8.4212   -1.1146    0.0505 H   0  0  0  0  0  0  0  0  0  0  0  0
   -7.0411   -1.0095    2.0818 H   0  0  0  0  0  0  0  0  0  0  0  0
   -7.5203    0.6734    1.4770 H   0  0  0  0  0  0  0  0  0  0  0  0
   -4.7362   -3.0215    0.3018 H   0  0  0  0  0  0  0  0  0  0  0  0
   -4.6617   -1.9543   -1.1035 H   0  0  0  0  0  0  0  0  0  0  0  0
    0.1710   -1.4750   -0.9439 H   0  0  0  0  0  0  0  0  0  0  0  0
   -6.8366   -2.5359   -1.1932 H   0  0  0  0  0  0  0  0  0  0  0  0
   -4.2029   -1.4495    1.8028 H   0  0  0  0  0  0  0  0  0  0  0  0
   -3.4862   -0.4878   -0.9458 H   0  0  0  0  0  0  0  0  0  0  0  0
   -3.4368    1.5863    1.2578 H   0  0  0  0  0  0  0  0  0  0  0  0
    1.7684    0.0413    0.6230 H   0  0  0  0  0  0  0  0  0  0  0  0
   -1.7974    0.4661   -2.3079 H   0  0  0  0  0  0  0  0  0  0  0  0
   -1.8457   -1.3993   -2.3075 H   0  0  0  0  0  0  0  0  0  0  0  0
   -0.5324   -0.4982   -3.0406 H   0  0  0  0  0  0  0  0  0  0  0  0
   -2.0698   -1.7272    1.0127 H   0  0  0  0  0  0  0  0  0  0  0  0
   -2.3232   -0.2294    1.8990 H   0  0  0  0  0  0  0  0  0  0  0  0
   -0.7334    2.0987   -1.5186 H   0  0  0  0  0  0  0  0  0  0  0  0
   -5.1893    0.5417    2.1900 H   0  0  0  0  0  0  0  0  0  0  0  0
   -0.1064   -0.4531    1.1235 H   0  0  0  0  0  0  0  0  0  0  0  0
    0.9253    0.6228   -2.2978 H   0  0  0  0  0  0  0  0  0  0  0  0
   -0.3909    1.6355    1.2913 H   0  0  0  0  0  0  0  0  0  0  0  0
   -5.4339    0.7781   -0.7505 H   0  0  0  0  0  0  0  0  0  0  0  0
    3.5209    0.8581   -1.4430 H   0  0  0  0  0  0  0  0  0  0  0  0
   -3.6922    2.8972   -0.6221 H   0  0  0  0  0  0  0  0  0  0  0  0
    2.1117   -1.7913   -0.3995 H   0  0  0  0  0  0  0  0  0  0  0  0
    4.4503    2.0629    0.5970 H   0  0  0  0  0  0  0  0  0  0  0  0
    3.1072    1.2895    1.4272 H   0  0  0  0  0  0  0  0  0  0  0  0
    5.1084   -0.0120    1.7825 H   0  0  0  0  0  0  0  0  0  0  0  0
    3.9133   -0.9913    0.9489 H   0  0  0  0  0  0  0  0  0  0  0  0
    6.7874   -2.0776   -0.7889 H   0  0  0  0  0  0  0  0  0  0  0  0
    5.3700   -2.4999    0.1787 H   0  0  0  0  0  0  0  0  0  0  0  0
    5.7486    1.0434   -1.6847 H   0  0  0  0  0  0  0  0  0  0  0  0
    7.0544   -0.1249   -1.5767 H   0  0  0  0  0  0  0  0  0  0  0  0
    6.8939    1.2377    1.0232 H   0  0  0  0  0  0  0  0  0  0  0  0
    7.0266    2.3998   -0.3599 H   0  0  0  0  0  0  0  0  0  0  0  0
    8.2407    1.1065   -0.1495 H   0  0  0  0  0  0  0  0  0  0  0  0
    7.7482   -0.9349    1.3367 H   0  0  0  0  0  0  0  0  0  0  0  0
    6.3244   -1.6813    2.1978 H   0  0  0  0  0  0  0  0  0  0  0  0
    7.5018   -2.7585    1.3631 H   0  0  0  0  0  0  0  0  0  0  0  0
  2  3  1  0
  2  6  1  0
  4  6  1  0
  4  7  1  0
  7  8  1  0
  8  9  1  0
  5 11  1  0
  8 12  1  0
  1 13  1  0
  3 14  1  0
  7 14  1  0
  5 15  1  0
 12 15  1  0
  5 16  1  0
 10 16  1  0
 13 16  1  0
 13 17  1  0
 15 17  1  0
  9 18  1  0
 14 18  1  0
 10 19  1  0
  9 20  1  0
 10 21  1  0
  6 22  1  0
 19 23  1  0
 23 24  1  0
 24 25  1  0
 25 26  1  0
 25 27  1  0
 27 28  1  0
 26 29  1  0
  1 30  1  0
  1 31  1  0
  1 32  1  0
  2 33  1  0
  2 34  1  0
  3 35  1  0
  3 36  1  0
  4 37  1  0
  4 38  1  0
  5 39  1  0
  6 40  1  0
  7 41  1  0
  8 42  1  0
  9 43  1  0
 10 44  1  0
 11 45  1  0
 11 46  1  0
 11 47  1  0
 12 48  1  0
 12 49  1  0
 13 50  1  0
 14 51  1  0
 15 52  1  0
 16 53  1  0
 17 54  1  0
 18 55  1  0
 19 56  1  0
 20 57  1  0
 21 58  1  0
 23 59  1  0
 23 60  1  0
 24 61  1  0
 24 62  1  0
 26 63  1  0
 26 64  1  0
 27 65  1  0
 27 66  1  0
 28 67  1  0
 28 68  1  0
 28 69  1  0
 29 70  1  0
 29 71  1  0
 29 72  1  0
M  END
>  <PDBID>  (1) 
4AGD

>  <PDB ID>  (1) 
4AGD

>  <Generic Name>  (1) 
Sunitinib

>  <Brand Name>  (1) 
Sutent

>  <DrugBank ID>  (1) 
DB01268

>  <ATC Codes>  (1) 
L01XE04

>  <Ligand ID>  (1) 
B49

>  <Target Name>  (1) 
Vascular endothelial growth factor receptor 3

>  <UniProt ID>  (1) 
P35916

>  <PDB ID.1>  (1) 
4AGD

>  <Seq. Identity>  (1) 
66%

$$$$
