PDB_DB01264_00
     RDKit          3D

 91 94  0  0  0  0  0  0  0  0999 V2000
   -5.2143   -4.6674    1.2742 N   0  0  0  0  0  0  0  0  0  0  0  0
   -5.4009   -4.2042   -0.0873 C   0  0  0  0  0  0  0  0  0  0  0  0
   -4.0655   -4.2404   -0.8472 C   0  0  0  0  0  0  0  0  0  0  0  0
   -3.1137   -3.3985   -0.0854 C   0  0  0  0  0  0  0  0  0  0  0  0
   -3.4753   -1.9315    0.0188 C   0  0  0  0  0  0  0  0  0  0  0  0
   -4.8956   -1.7959    0.4324 C   0  0  0  0  0  0  0  0  0  0  0  0
   -5.8565   -2.7806   -0.1590 C   0  0  0  0  0  0  0  0  0  0  0  0
   -2.4299   -1.1779    1.0202 S   0  0  0  0  0  0  0  0  0  0  0  0
   -0.8552   -1.7225   -0.1269 O   0  0  0  0  0  0  0  0  0  0  0  0
   -1.8636   -2.1370    2.2393 O   0  0  0  0  0  0  0  0  0  0  0  0
   -2.0756    0.2965    1.0436 N   0  0  0  0  0  0  0  0  0  0  0  0
   -3.1034    1.2124    1.2794 C   0  0  0  0  0  0  0  0  0  0  0  0
   -3.4299    2.3089    0.3567 C   0  0  0  0  0  0  0  0  0  0  0  0
   -4.6314    3.0661    1.0012 C   0  0  0  0  0  0  0  0  0  0  0  0
   -4.0032    1.8110   -0.9708 C   0  0  0  0  0  0  0  0  0  0  0  0
   -0.7104    0.5813    1.2244 C   0  0  0  0  0  0  0  0  0  0  0  0
    0.0535    1.5318    0.3989 C   0  0  1  0  0  0  0  0  0  0  0  0
   -0.3508    2.8305    0.4477 O   0  0  0  0  0  0  0  0  0  0  0  0
    1.5147    1.4941    0.8971 C   0  0  1  0  0  0  0  0  0  0  0  0
    1.9270    0.0722    0.9162 N   0  0  0  0  0  0  0  0  0  0  0  0
    3.3405   -0.0804    0.9010 C   0  0  0  0  0  0  0  0  0  0  0  0
    3.9659    0.4876    2.0423 O   0  0  0  0  0  0  0  0  0  0  0  0
    3.7156   -1.4470    0.9915 O   0  0  0  0  0  0  0  0  0  0  0  0
    4.5826   -1.7670   -0.0515 C   0  0  1  0  0  0  0  0  0  0  0  0
    5.9074   -2.2340    0.4831 C   0  0  0  0  0  0  0  0  0  0  0  0
    6.1771   -3.4525   -0.0576 O   0  0  0  0  0  0  0  0  0  0  0  0
    5.2585   -3.8143   -0.9836 C   0  0  1  0  0  0  0  0  0  0  0  0
    4.7426   -5.0703   -0.6564 O   0  0  0  0  0  0  0  0  0  0  0  0
    3.6354   -4.8945    0.1325 C   0  0  0  0  0  0  0  0  0  0  0  0
    2.9701   -3.6719   -0.4512 C   0  0  0  0  0  0  0  0  0  0  0  0
    4.1168   -2.8528   -0.9414 C   0  0  1  0  0  0  0  0  0  0  0  0
    2.4582    2.2475    0.1015 C   0  0  0  0  0  0  0  0  0  0  0  0
    3.7593    3.8955   -1.1078 C   0  0  0  0  0  0  0  0  0  0  0  0
    3.2425    4.0598   -2.5239 C   0  0  0  0  0  0  0  0  0  0  0  0
    2.6783    5.4809   -2.6459 C   0  0  0  0  0  0  0  0  0  0  0  0
    2.0641    5.7946   -1.3129 C   0  0  0  0  0  0  0  0  0  0  0  0
    1.4401    4.4796   -0.7497 C   0  0  0  0  0  0  0  0  0  0  0  0
    2.5086    3.6752   -0.1776 C   0  0  0  0  0  0  0  0  0  0  0  0
   -5.1423   -3.8143    1.9076 H   0  0  0  0  0  0  0  0  0  0  0  0
   -6.1054   -5.1469    1.5597 H   0  0  0  0  0  0  0  0  0  0  0  0
   -6.0937   -4.8187   -0.6738 H   0  0  0  0  0  0  0  0  0  0  0  0
   -3.7234   -5.2925   -0.7447 H   0  0  0  0  0  0  0  0  0  0  0  0
   -4.2462   -3.9297   -1.8771 H   0  0  0  0  0  0  0  0  0  0  0  0
   -3.0324   -3.8256    0.9461 H   0  0  0  0  0  0  0  0  0  0  0  0
   -2.0791   -3.5222   -0.5120 H   0  0  0  0  0  0  0  0  0  0  0  0
   -3.4168   -1.5230   -1.0381 H   0  0  0  0  0  0  0  0  0  0  0  0
   -5.3148   -0.7798    0.1443 H   0  0  0  0  0  0  0  0  0  0  0  0
   -4.9609   -1.7955    1.5625 H   0  0  0  0  0  0  0  0  0  0  0  0
   -5.9908   -2.5265   -1.2246 H   0  0  0  0  0  0  0  0  0  0  0  0
   -6.8362   -2.6268    0.3404 H   0  0  0  0  0  0  0  0  0  0  0  0
   -1.1955   -1.1654   -0.8683 H   0  0  0  0  0  0  0  0  0  0  0  0
   -2.5098   -2.2741    2.9478 H   0  0  0  0  0  0  0  0  0  0  0  0
   -4.0643    0.6508    1.5537 H   0  0  0  0  0  0  0  0  0  0  0  0
   -2.9196    1.7410    2.2985 H   0  0  0  0  0  0  0  0  0  0  0  0
   -2.7291    3.0765    0.1146 H   0  0  0  0  0  0  0  0  0  0  0  0
   -5.2496    3.5092    0.1916 H   0  0  0  0  0  0  0  0  0  0  0  0
   -5.2279    2.3029    1.5060 H   0  0  0  0  0  0  0  0  0  0  0  0
   -4.2144    3.8063    1.6990 H   0  0  0  0  0  0  0  0  0  0  0  0
   -3.3473    1.1004   -1.4831 H   0  0  0  0  0  0  0  0  0  0  0  0
   -5.0398    1.4073   -0.7892 H   0  0  0  0  0  0  0  0  0  0  0  0
   -4.1340    2.7045   -1.6089 H   0  0  0  0  0  0  0  0  0  0  0  0
   -0.4588    0.7697    2.3209 H   0  0  0  0  0  0  0  0  0  0  0  0
   -0.1896   -0.4433    1.0733 H   0  0  0  0  0  0  0  0  0  0  0  0
    0.0506    1.2146   -0.6873 H   0  0  0  0  0  0  0  0  0  0  0  0
   -0.5184    3.1399    1.3922 H   0  0  0  0  0  0  0  0  0  0  0  0
    1.4827    1.7829    1.9916 H   0  0  0  0  0  0  0  0  0  0  0  0
    1.5294   -0.3226    1.8424 H   0  0  0  0  0  0  0  0  0  0  0  0
    3.8319    0.3104    0.0182 H   0  0  0  0  0  0  0  0  0  0  0  0
    3.2966    0.4745    2.7726 H   0  0  0  0  0  0  0  0  0  0  0  0
    4.7191   -0.8457   -0.6857 H   0  0  0  0  0  0  0  0  0  0  0  0
    5.8943   -2.3014    1.6070 H   0  0  0  0  0  0  0  0  0  0  0  0
    6.6816   -1.4925    0.1608 H   0  0  0  0  0  0  0  0  0  0  0  0
    5.7294   -3.8520   -2.0127 H   0  0  0  0  0  0  0  0  0  0  0  0
    3.9281   -4.7598    1.1913 H   0  0  0  0  0  0  0  0  0  0  0  0
    2.9823   -5.8017    0.0107 H   0  0  0  0  0  0  0  0  0  0  0  0
    2.3661   -3.1864    0.3419 H   0  0  0  0  0  0  0  0  0  0  0  0
    2.2869   -3.9764   -1.2914 H   0  0  0  0  0  0  0  0  0  0  0  0
    3.8862   -2.4358   -1.9654 H   0  0  0  0  0  0  0  0  0  0  0  0
    2.6168    1.6981   -0.8952 H   0  0  0  0  0  0  0  0  0  0  0  0
    3.5397    2.0557    0.5497 H   0  0  0  0  0  0  0  0  0  0  0  0
    4.4088    3.0153   -1.0088 H   0  0  0  0  0  0  0  0  0  0  0  0
    4.2868    4.8108   -0.8311 H   0  0  0  0  0  0  0  0  0  0  0  0
    4.0717    3.8860   -3.2281 H   0  0  0  0  0  0  0  0  0  0  0  0
    2.4532    3.2994   -2.7712 H   0  0  0  0  0  0  0  0  0  0  0  0
    1.9543    5.5819   -3.4665 H   0  0  0  0  0  0  0  0  0  0  0  0
    3.5520    6.1629   -2.8625 H   0  0  0  0  0  0  0  0  0  0  0  0
    1.2529    6.5473   -1.4224 H   0  0  0  0  0  0  0  0  0  0  0  0
    2.8483    6.1293   -0.6189 H   0  0  0  0  0  0  0  0  0  0  0  0
    0.8566    4.1010   -1.5813 H   0  0  0  0  0  0  0  0  0  0  0  0
    0.7854    4.9502    0.0755 H   0  0  0  0  0  0  0  0  0  0  0  0
    2.8640    4.2445    0.7620 H   0  0  0  0  0  0  0  0  0  0  0  0
  1  2  1  0
  2  3  1  0
  3  4  1  0
  4  5  1  0
  5  6  1  0
  2  7  1  0
  6  7  1  0
  5  8  1  0
  8  9  1  0
  8 10  1  0
  8 11  1  0
 11 12  1  0
 12 13  1  0
 13 14  1  0
 13 15  1  0
 11 16  1  0
 16 17  1  0
 17 18  1  0
 17 19  1  0
 19 20  1  0
 20 21  1  0
 21 22  1  0
 21 23  1  0
 23 24  1  0
 24 25  1  0
 25 26  1  0
 26 27  1  0
 27 28  1  0
 28 29  1  0
 29 30  1  0
 24 31  1  0
 27 31  1  0
 30 31  1  0
 19 32  1  0
 33 34  1  0
 34 35  1  0
 35 36  1  0
 36 37  1  0
 32 38  1  0
 33 38  1  0
 37 38  1  0
  1 39  1  0
  1 40  1  0
  2 41  1  0
  3 42  1  0
  3 43  1  0
  4 44  1  0
  4 45  1  0
  5 46  1  0
  6 47  1  0
  6 48  1  0
  7 49  1  0
  7 50  1  0
  9 51  1  0
 10 52  1  0
 12 53  1  0
 12 54  1  0
 13 55  1  0
 14 56  1  0
 14 57  1  0
 14 58  1  0
 15 59  1  0
 15 60  1  0
 15 61  1  0
 16 62  1  0
 16 63  1  0
 17 64  1  6
 18 65  1  0
 19 66  1  1
 20 67  1  0
 21 68  1  0
 22 69  1  0
 24 70  1  6
 25 71  1  0
 25 72  1  0
 27 73  1  6
 29 74  1  0
 29 75  1  0
 30 76  1  0
 30 77  1  0
 31 78  1  6
 32 79  1  0
 32 80  1  0
 33 81  1  0
 33 82  1  0
 34 83  1  0
 34 84  1  0
 35 85  1  0
 35 86  1  0
 36 87  1  0
 36 88  1  0
 37 89  1  0
 37 90  1  0
 38 91  1  0
M  END
>  <PDBID>  (1) 
4HLA

>  <PDB ID>  (1) 
4HLA

>  <Generic Name>  (1) 
Darunavir

>  <Brand Name>  (1) 
Pat-darunavir#Prezcobix#Prezista

>  <DrugBank ID>  (1) 
DB01264

>  <ATC Codes>  (1) 
J05AE10#J05AR14

>  <Ligand ID>  (1) 
17

>  <Target Name>  (1) 
Pol polyprotein

>  <UniProt ID>  (1) 
Q72874

>  <PDB ID.1>  (1) 
4HLA

>  <Seq. Identity>  (1) 
99%

$$$$
