PDB_DB00951_00
     RDKit          3D

 25 25  0  0  0  0  0  0  0  0999 V2000
   -1.4007   -0.2890    0.3658 C   0  0  2  0  0  0  0  0  0  0  0  0
    0.0324   -0.3010   -0.0805 C   0  0  0  0  0  0  0  0  0  0  0  0
    2.7694    0.3516    0.1721 N   0  0  0  0  0  0  0  0  0  0  0  0
   -1.7800   -1.5843    0.6991 O   0  0  0  0  0  0  0  0  0  0  0  0
    0.5050    1.0828   -0.4577 C   0  0  0  0  0  0  0  0  0  0  0  0
   -2.2899    0.2488   -0.6396 N   0  0  0  0  0  0  0  0  0  0  0  0
    1.9649    0.9895   -0.8249 C   0  0  0  0  0  0  0  0  0  0  0  0
   -3.5929    0.1962   -0.0801 N   0  0  0  0  0  0  0  0  0  0  0  0
    2.2815   -0.9247    0.6044 C   0  0  0  0  0  0  0  0  0  0  0  0
    0.8715   -0.7336    1.1261 C   0  0  0  0  0  0  0  0  0  0  0  0
   -1.4587    0.3901    1.2507 H   0  0  0  0  0  0  0  0  0  0  0  0
    0.2280   -1.0038   -0.9079 H   0  0  0  0  0  0  0  0  0  0  0  0
    3.1169    0.9651    0.9195 H   0  0  0  0  0  0  0  0  0  0  0  0
   -2.4148   -1.6305    1.4451 H   0  0  0  0  0  0  0  0  0  0  0  0
    0.3050    1.7873    0.3645 H   0  0  0  0  0  0  0  0  0  0  0  0
   -0.0435    1.3817   -1.3665 H   0  0  0  0  0  0  0  0  0  0  0  0
   -2.0680    1.2712   -0.7761 H   0  0  0  0  0  0  0  0  0  0  0  0
    2.3798    1.9916   -1.0154 H   0  0  0  0  0  0  0  0  0  0  0  0
    2.0181    0.3662   -1.7576 H   0  0  0  0  0  0  0  0  0  0  0  0
   -3.8439   -0.8336    0.0011 H   0  0  0  0  0  0  0  0  0  0  0  0
   -4.2620    0.6890   -0.7219 H   0  0  0  0  0  0  0  0  0  0  0  0
    2.3388   -1.6308   -0.2353 H   0  0  0  0  0  0  0  0  0  0  0  0
    2.9146   -1.2614    1.4469 H   0  0  0  0  0  0  0  0  0  0  0  0
    0.9329    0.1267    1.8502 H   0  0  0  0  0  0  0  0  0  0  0  0
    0.4958   -1.6453    1.5906 H   0  0  0  0  0  0  0  0  0  0  0  0
  1  2  1  0
  1  4  1  0
  2  5  1  0
  1  6  1  0
  3  7  1  0
  5  7  1  0
  6  8  1  0
  3  9  1  0
  2 10  1  0
  9 10  1  0
  1 11  1  1
  2 12  1  0
  3 13  1  0
  4 14  1  0
  5 15  1  0
  5 16  1  0
  6 17  1  0
  7 18  1  0
  7 19  1  0
  8 20  1  0
  8 21  1  0
  9 22  1  0
  9 23  1  0
 10 24  1  0
 10 25  1  0
M  END
>  <PDBID>  (1) 
5KSG

>  <PDB ID>  (1) 
5KSG

>  <Generic Name>  (1) 
Isoniazid

>  <Brand Name>  (1) 
Dom-isoniazid 300mg Tablets#Isonarif#Isoniazid#Isoniazid Syrup 50mg/5ml#Isoniazid Tab 100mg#Isoniazid Tab 300mg#Isoniazid Tab 50mg#Isoniazide 100mg Tablets#Isotamine B 300#Isotamine Powder#Isotamine Syr Pediatric 50mg/5ml#Isotamine-100#Isotamine-300#Pdp-isoniazid#Rifamate#Rifater#Nicozid#Nidrazid#Nydrazid#Rimicid#Rimifon#Servizid#Tibinide

>  <DrugBank ID>  (1) 
DB00951

>  <ATC Codes>  (1) 
J04AM04#J04AM02#J04AM06#J04AM03#J04AM05#J04AM01#J04AC51#J04AC01

>  <Ligand ID>  (1) 
NIZ

>  <Target Name>  (1) 
Catalase-peroxidase

>  <UniProt ID>  (1) 
Q08129

>  <PDB ID.1>  (1) 
5KSG

>  <Seq. Identity>  (1) 
66%

$$$$
