PDB_DB01261_03
     RDKit          3D

110114  0  0  0  0  0  0  0  0999 V2000
    5.9972    0.6333    1.3091 C   0  0  0  0  0  0  0  0  0  0  0  0
    4.4991    0.4164    1.2554 C   0  0  0  0  0  0  0  0  0  0  0  0
    4.0898    0.5594   -0.1814 C   0  0  0  0  0  0  0  0  0  0  0  0
    4.6241   -0.6056   -0.9400 C   0  0  0  0  0  0  0  0  0  0  0  0
    6.1480   -0.4623   -0.9588 C   0  0  0  0  0  0  0  0  0  0  0  0
    6.6609    0.5704   -0.0197 C   0  0  0  0  0  0  0  0  0  0  0  0
    6.7676   -1.6877   -0.7347 F   0  0  0  0  0  0  0  0  0  0  0  0
    4.3070   -0.8976    1.7100 F   0  0  0  0  0  0  0  0  0  0  0  0
    2.6504    0.8583   -0.3756 C   0  0  0  0  0  0  0  0  0  0  0  0
    1.6797   -0.1352    0.1450 C   0  0  2  0  0  0  0  0  0  0  0  0
    0.2780    0.4018   -0.1785 C   0  0  0  0  0  0  0  0  0  0  0  0
   -0.7342   -0.5720    0.3325 C   0  0  1  0  0  0  0  0  0  0  0  0
   -2.0747   -0.2411    0.1234 N   0  0  0  0  0  0  0  0  0  0  0  0
    1.7240   -0.4498    1.5084 N   0  0  0  0  0  0  0  0  0  0  0  0
   -0.4950   -1.8401   -0.2395 O   0  0  0  0  0  0  0  0  0  0  0  0
   -2.6228    0.9165    0.7033 C   0  0  0  0  0  0  0  0  0  0  0  0
   -4.0930    0.7078    1.0457 C   0  0  0  0  0  0  0  0  0  0  0  0
   -4.7501    0.2440   -0.1563 N   0  0  0  0  0  0  0  0  0  0  0  0
   -4.2033   -1.0991   -0.4240 C   0  0  0  0  0  0  0  0  0  0  0  0
   -2.7928   -0.8750   -0.9228 C   0  0  0  0  0  0  0  0  0  0  0  0
   -6.1323   -0.0714   -0.0027 C   0  0  0  0  0  0  0  0  0  0  0  0
   -6.3621   -1.0361   -1.0862 N   0  0  0  0  0  0  0  0  0  0  0  0
   -5.1089   -1.5580   -1.4253 N   0  0  0  0  0  0  0  0  0  0  0  0
   -7.0692    1.1085   -0.1433 C   0  0  0  0  0  0  0  0  0  0  0  0
   -6.7399    2.0299    0.8287 F   0  0  0  0  0  0  0  0  0  0  0  0
   -8.3369    0.6266    0.2162 F   0  0  0  0  0  0  0  0  0  0  0  0
   -7.0815    1.6220   -1.4047 F   0  0  0  0  0  0  0  0  0  0  0  0
    8.0145    0.2802    0.2115 F   0  0  0  0  0  0  0  0  0  0  0  0
    4.1356    1.8418    2.0285 C   0  0  0  0  0  0  0  0  0  0  0  0
    2.9272    1.5745    1.1037 C   0  0  0  0  0  0  0  0  0  0  0  0
    3.4062    0.7122    0.0260 C   0  0  0  0  0  0  0  0  0  0  0  0
    3.7022   -0.6557    0.6563 C   0  0  0  0  0  0  0  0  0  0  0  0
    4.8878   -0.5486    1.5755 C   0  0  0  0  0  0  0  0  0  0  0  0
    5.2275    0.8572    1.8891 C   0  0  0  0  0  0  0  0  0  0  0  0
    4.6605   -1.3009    2.7272 F   0  0  0  0  0  0  0  0  0  0  0  0
    2.0251    0.9958    1.9754 F   0  0  0  0  0  0  0  0  0  0  0  0
    2.8078    0.6071   -1.2786 C   0  0  0  0  0  0  0  0  0  0  0  0
    1.4397    0.1905   -1.5735 C   0  0  2  0  0  0  0  0  0  0  0  0
    0.3205    1.0046   -1.0170 C   0  0  0  0  0  0  0  0  0  0  0  0
   -1.0465    0.4356   -1.4257 C   0  0  0  0  0  0  0  0  0  0  0  0
   -1.2450   -0.9181   -0.9634 N   0  0  0  0  0  0  0  0  0  0  0  0
    1.2021   -1.2444   -1.4695 N   0  0  0  0  0  0  0  0  0  0  0  0
   -1.1651    0.4835   -2.8348 O   0  0  0  0  0  0  0  0  0  0  0  0
   -1.2493   -1.0079    0.4394 C   0  0  0  0  0  0  0  0  0  0  0  0
   -2.5186   -0.6057    1.1266 C   0  0  0  0  0  0  0  0  0  0  0  0
   -3.5421   -0.3925    0.1621 N   0  0  0  0  0  0  0  0  0  0  0  0
   -3.5740   -1.5847   -0.6812 C   0  0  0  0  0  0  0  0  0  0  0  0
   -2.4039   -1.4391   -1.6301 C   0  0  0  0  0  0  0  0  0  0  0  0
   -4.8763   -0.3871    0.6891 C   0  0  0  0  0  0  0  0  0  0  0  0
   -5.6765   -0.6957   -0.4847 N   0  0  0  0  0  0  0  0  0  0  0  0
   -4.8379   -1.4136   -1.3472 N   0  0  0  0  0  0  0  0  0  0  0  0
   -5.2499    0.9575    1.2823 C   0  0  0  0  0  0  0  0  0  0  0  0
   -4.3646    1.2268    2.2988 F   0  0  0  0  0  0  0  0  0  0  0  0
   -6.5079    0.9430    1.8150 F   0  0  0  0  0  0  0  0  0  0  0  0
   -5.1094    1.9570    0.3428 F   0  0  0  0  0  0  0  0  0  0  0  0
    6.2896    1.3399    1.1062 F   0  0  0  0  0  0  0  0  0  0  0  0
    6.1544    1.6504    1.7409 H   0  0  0  0  0  0  0  0  0  0  0  0
    6.4906   -0.0700    2.0360 H   0  0  0  0  0  0  0  0  0  0  0  0
    3.9324    1.1451    1.8535 H   0  0  0  0  0  0  0  0  0  0  0  0
    4.6530    1.4636   -0.5637 H   0  0  0  0  0  0  0  0  0  0  0  0
    4.2879   -0.6787   -1.9759 H   0  0  0  0  0  0  0  0  0  0  0  0
    4.4435   -1.5587   -0.3628 H   0  0  0  0  0  0  0  0  0  0  0  0
    6.4864   -0.1567   -1.9932 H   0  0  0  0  0  0  0  0  0  0  0  0
    6.6831    1.6022   -0.4722 H   0  0  0  0  0  0  0  0  0  0  0  0
    2.4405    1.8348    0.1402 H   0  0  0  0  0  0  0  0  0  0  0  0
    2.4143    1.0484   -1.4429 H   0  0  0  0  0  0  0  0  0  0  0  0
    1.7673   -1.0693   -0.4607 H   0  0  0  0  0  0  0  0  0  0  0  0
    0.1403    0.5462   -1.2494 H   0  0  0  0  0  0  0  0  0  0  0  0
    0.0992    1.3730    0.3270 H   0  0  0  0  0  0  0  0  0  0  0  0
   -0.5523   -0.6675    1.4424 H   0  0  0  0  0  0  0  0  0  0  0  0
    1.3965    0.2426    2.1839 H   0  0  0  0  0  0  0  0  0  0  0  0
    1.6550   -1.4362    1.7841 H   0  0  0  0  0  0  0  0  0  0  0  0
   -0.3062   -1.6687   -1.1957 H   0  0  0  0  0  0  0  0  0  0  0  0
   -2.1177    1.1130    1.6765 H   0  0  0  0  0  0  0  0  0  0  0  0
   -2.5706    1.8030    0.0267 H   0  0  0  0  0  0  0  0  0  0  0  0
   -4.1895   -0.0556    1.8389 H   0  0  0  0  0  0  0  0  0  0  0  0
   -4.5626    1.6494    1.3847 H   0  0  0  0  0  0  0  0  0  0  0  0
   -4.2294   -1.6546    0.5235 H   0  0  0  0  0  0  0  0  0  0  0  0
   -2.8560   -0.2977   -1.8689 H   0  0  0  0  0  0  0  0  0  0  0  0
   -2.3530   -1.8879   -1.0858 H   0  0  0  0  0  0  0  0  0  0  0  0
   -6.3056   -0.6200    0.9345 H   0  0  0  0  0  0  0  0  0  0  0  0
   -6.7064   -0.4910   -1.9044 H   0  0  0  0  0  0  0  0  0  0  0  0
   -5.1384   -2.6027   -1.4109 H   0  0  0  0  0  0  0  0  0  0  0  0
    3.8276    1.9172    3.0900 H   0  0  0  0  0  0  0  0  0  0  0  0
    4.5598    2.8484    1.7908 H   0  0  0  0  0  0  0  0  0  0  0  0
    2.5440    2.5750    0.8430 H   0  0  0  0  0  0  0  0  0  0  0  0
    4.4804    1.0861   -0.1798 H   0  0  0  0  0  0  0  0  0  0  0  0
    3.8939   -1.4052   -0.1266 H   0  0  0  0  0  0  0  0  0  0  0  0
    2.8415   -0.9594    1.3129 H   0  0  0  0  0  0  0  0  0  0  0  0
    5.8024   -1.0165    1.0800 H   0  0  0  0  0  0  0  0  0  0  0  0
    5.7231    0.8141    2.9235 H   0  0  0  0  0  0  0  0  0  0  0  0
    2.9607    1.5903   -1.8532 H   0  0  0  0  0  0  0  0  0  0  0  0
    3.4831   -0.0795   -1.9004 H   0  0  0  0  0  0  0  0  0  0  0  0
    1.3401    0.3290   -2.7103 H   0  0  0  0  0  0  0  0  0  0  0  0
    0.2871    1.1720    0.0459 H   0  0  0  0  0  0  0  0  0  0  0  0
    0.3562    1.9924   -1.5779 H   0  0  0  0  0  0  0  0  0  0  0  0
   -1.8618    1.0850   -1.0448 H   0  0  0  0  0  0  0  0  0  0  0  0
    1.4331   -1.5269   -0.4970 H   0  0  0  0  0  0  0  0  0  0  0  0
    1.7768   -1.7824   -2.1461 H   0  0  0  0  0  0  0  0  0  0  0  0
   -1.7689    1.1873   -3.1358 H   0  0  0  0  0  0  0  0  0  0  0  0
   -1.0984   -2.0991    0.7055 H   0  0  0  0  0  0  0  0  0  0  0  0
   -0.3987   -0.4980    0.9209 H   0  0  0  0  0  0  0  0  0  0  0  0
   -2.8745   -1.3462    1.8707 H   0  0  0  0  0  0  0  0  0  0  0  0
   -2.3452    0.3437    1.6733 H   0  0  0  0  0  0  0  0  0  0  0  0
   -3.5060   -2.4558   -0.0327 H   0  0  0  0  0  0  0  0  0  0  0  0
   -2.7491   -0.8621   -2.4924 H   0  0  0  0  0  0  0  0  0  0  0  0
   -2.1459   -2.4621   -1.9864 H   0  0  0  0  0  0  0  0  0  0  0  0
   -5.0248   -1.2043    1.4046 H   0  0  0  0  0  0  0  0  0  0  0  0
   -5.9410    0.1933   -0.9603 H   0  0  0  0  0  0  0  0  0  0  0  0
   -5.2604   -2.3695   -1.4539 H   0  0  0  0  0  0  0  0  0  0  0  0
  1  2  1  0
  2  3  1  0
  3  4  1  0
  4  5  1  0
  1  6  1  0
  5  6  1  0
  5  7  1  0
  2  8  1  0
  3  9  1  0
  9 10  1  0
 10 11  1  0
 11 12  1  0
 12 13  1  0
 10 14  1  0
 12 15  1  0
 13 16  1  0
 16 17  1  0
 17 18  1  0
 18 19  1  0
 13 20  1  0
 19 20  1  0
 18 21  1  0
 21 22  1  0
 19 23  1  0
 22 23  1  0
 21 24  1  0
 24 25  1  0
 24 26  1  0
 24 27  1  0
  6 28  1  0
 29 30  1  0
 30 31  1  0
 31 32  1  0
 32 33  1  0
 29 34  1  0
 33 34  1  0
 33 35  1  0
 30 36  1  0
 31 37  1  0
 37 38  1  0
 38 39  1  0
 39 40  1  0
 40 41  1  0
 38 42  1  0
 40 43  1  0
 41 44  1  0
 44 45  1  0
 45 46  1  0
 46 47  1  0
 41 48  1  0
 47 48  1  0
 46 49  1  0
 49 50  1  0
 47 51  1  0
 50 51  1  0
 49 52  1  0
 52 53  1  0
 52 54  1  0
 52 55  1  0
 34 56  1  0
  1 57  1  0
  1 58  1  0
  2 59  1  0
  3 60  1  0
  4 61  1  0
  4 62  1  0
  5 63  1  0
  6 64  1  0
  9 65  1  0
  9 66  1  0
 10 67  1  6
 11 68  1  0
 11 69  1  0
 12 70  1  1
 14 71  1  0
 14 72  1  0
 15 73  1  0
 16 74  1  0
 16 75  1  0
 17 76  1  0
 17 77  1  0
 19 78  1  0
 20 79  1  0
 20 80  1  0
 21 81  1  0
 22 82  1  0
 23 83  1  0
 29 84  1  0
 29 85  1  0
 30 86  1  0
 31 87  1  0
 32 88  1  0
 32 89  1  0
 33 90  1  0
 34 91  1  0
 37 92  1  0
 37 93  1  0
 38 94  1  6
 39 95  1  0
 39 96  1  0
 40 97  1  0
 42 98  1  0
 42 99  1  0
 43100  1  0
 44101  1  0
 44102  1  0
 45103  1  0
 45104  1  0
 47105  1  0
 48106  1  0
 48107  1  0
 49108  1  0
 50109  1  0
 51110  1  0
M  END
>  <PDBID>  (1) 
1X70

>  <PDB ID>  (1) 
1X70

>  <Generic Name>  (1) 
Sitagliptin

>  <Brand Name>  (1) 
Janumet#Janumet XR#Januvia#Xelevia

>  <DrugBank ID>  (1) 
DB01261

>  <ATC Codes>  (1) 
A10BD12#A10BH51#A10BH01#A10BD07

>  <Ligand ID>  (1) 
715

>  <Target Name>  (1) 
Dipeptidyl peptidase 4

>  <UniProt ID>  (1) 
P27487

>  <PDB ID.1>  (1) 
1X70

>  <Seq. Identity>  (1) 
100%

$$$$
