PDB_DB04839_08
     RDKit          3D

 68 72  0  0  0  0  0  0  0  0999 V2000
    4.5879   -1.4615    0.2827 C   0  0  0  0  0  0  0  0  0  0  0  0
   -0.8565   -0.6648   -0.8525 C   0  0  1  0  0  0  0  0  0  0  0  0
    3.0671   -1.3392    0.4195 C   0  0  2  0  0  0  0  0  0  0  0  0
    2.3778   -2.4234   -0.3220 C   0  0  0  0  0  0  0  0  0  0  0  0
    0.6781    1.5059    0.1587 C   0  0  0  0  0  0  0  0  0  0  0  0
    1.0883   -2.1185   -0.9493 C   0  0  0  0  0  0  0  0  0  0  0  0
    0.6125   -0.7262   -0.9580 C   0  0  2  0  0  0  0  0  0  0  0  0
    1.1790    0.1118    0.1690 C   0  0  1  0  0  0  0  0  0  0  0  0
    2.6990    0.0398   -0.0127 C   0  0  2  0  0  0  0  0  0  0  0  0
   -0.8381    1.4453    0.4191 C   0  0  0  0  0  0  0  0  0  0  0  0
   -1.4366    0.7498   -0.7377 C   0  0  1  0  0  0  0  0  0  0  0  0
    5.2019   -0.5498    1.2928 C   0  0  0  0  0  0  0  0  0  0  0  0
    3.0737    0.2268   -1.4667 C   0  0  0  0  0  0  0  0  0  0  0  0
    3.3699    1.0996    0.7821 C   0  0  1  0  0  0  0  0  0  0  0  0
    3.4908    1.0454    2.2519 C   0  0  0  0  0  0  0  0  0  0  0  0
    4.6905    0.8330    1.3035 C   0  0  1  0  0  0  0  0  0  0  0  0
    5.0038   -1.1016    2.5737 O   0  0  0  0  0  0  0  0  0  0  0  0
    3.5538   -3.0576   -1.5353 Cl  0  0  0  0  0  0  0  0  0  0  0  0
   -1.2716    1.5099   -2.0219 C   0  0  0  0  0  0  0  0  0  0  0  0
   -1.6051   -1.1189   -2.0797 C   0  0  0  0  0  0  0  0  0  0  0  0
   -3.0062   -0.6585   -1.7588 C   0  0  0  0  0  0  0  0  0  0  0  0
   -2.8914    0.3064   -0.5546 C   0  0  2  0  0  0  0  0  0  0  0  0
   -3.8610    1.4376   -0.7267 C   0  0  0  0  0  0  0  0  0  0  0  0
   -3.7163    2.4063    0.4360 C   0  0  0  0  0  0  0  0  0  0  0  0
   -5.1764    1.0325   -0.7344 O   0  0  0  0  0  0  0  0  0  0  0  0
   -2.9696   -0.3600    0.6190 O   0  0  0  0  0  0  0  0  0  0  0  0
   -4.1198   -0.9333    1.0278 C   0  0  0  0  0  0  0  0  0  0  0  0
   -4.5774   -0.3732    2.3899 C   0  0  0  0  0  0  0  0  0  0  0  0
   -3.8550   -2.3034    1.3137 O   0  0  0  0  0  0  0  0  0  0  0  0
    4.8441   -2.5033    0.5547 H   0  0  0  0  0  0  0  0  0  0  0  0
    4.9233   -1.2995   -0.7458 H   0  0  0  0  0  0  0  0  0  0  0  0
   -1.2450   -1.2413    0.0062 H   0  0  0  0  0  0  0  0  0  0  0  0
    2.8763   -1.4028    1.5237 H   0  0  0  0  0  0  0  0  0  0  0  0
    2.2665   -3.2859    0.4042 H   0  0  0  0  0  0  0  0  0  0  0  0
    1.1911    2.0938    0.9172 H   0  0  0  0  0  0  0  0  0  0  0  0
    0.8088    1.9463   -0.8716 H   0  0  0  0  0  0  0  0  0  0  0  0
    1.1179   -2.4737   -2.0241 H   0  0  0  0  0  0  0  0  0  0  0  0
    0.2760   -2.7666   -0.5002 H   0  0  0  0  0  0  0  0  0  0  0  0
    0.9233   -0.1994   -1.9071 H   0  0  0  0  0  0  0  0  0  0  0  0
    0.9021   -0.3656    1.1331 H   0  0  0  0  0  0  0  0  0  0  0  0
   -1.1236    2.5238    0.4477 H   0  0  0  0  0  0  0  0  0  0  0  0
   -1.0256    0.9183    1.3560 H   0  0  0  0  0  0  0  0  0  0  0  0
    6.3085   -0.5693    1.1389 H   0  0  0  0  0  0  0  0  0  0  0  0
    2.9025   -0.6561   -2.0864 H   0  0  0  0  0  0  0  0  0  0  0  0
    4.1764    0.4642   -1.4723 H   0  0  0  0  0  0  0  0  0  0  0  0
    2.5907    1.1551   -1.8649 H   0  0  0  0  0  0  0  0  0  0  0  0
    3.1924    2.1390    0.3728 H   0  0  0  0  0  0  0  0  0  0  0  0
    3.1338    0.2003    2.8379 H   0  0  0  0  0  0  0  0  0  0  0  0
    3.4975    2.0070    2.8385 H   0  0  0  0  0  0  0  0  0  0  0  0
    5.4547    1.6472    1.3213 H   0  0  0  0  0  0  0  0  0  0  0  0
    5.4558   -0.4772    3.2025 H   0  0  0  0  0  0  0  0  0  0  0  0
   -1.2317    2.6045   -1.7506 H   0  0  0  0  0  0  0  0  0  0  0  0
   -0.3093    1.3063   -2.5334 H   0  0  0  0  0  0  0  0  0  0  0  0
   -2.0674    1.3128   -2.7596 H   0  0  0  0  0  0  0  0  0  0  0  0
   -1.2760   -0.5572   -2.9839 H   0  0  0  0  0  0  0  0  0  0  0  0
   -1.5447   -2.2138   -2.2333 H   0  0  0  0  0  0  0  0  0  0  0  0
   -3.5871   -1.5537   -1.4777 H   0  0  0  0  0  0  0  0  0  0  0  0
   -3.5057   -0.1128   -2.5557 H   0  0  0  0  0  0  0  0  0  0  0  0
   -3.6279    2.0014   -1.6416 H   0  0  0  0  0  0  0  0  0  0  0  0
   -4.7408    2.6972    0.8375 H   0  0  0  0  0  0  0  0  0  0  0  0
   -3.2254    1.9443    1.3140 H   0  0  0  0  0  0  0  0  0  0  0  0
   -3.2871    3.3809    0.1264 H   0  0  0  0  0  0  0  0  0  0  0  0
   -5.6757    1.2876   -1.5441 H   0  0  0  0  0  0  0  0  0  0  0  0
   -4.9991   -0.8802    0.3943 H   0  0  0  0  0  0  0  0  0  0  0  0
   -5.3589   -1.0490    2.8257 H   0  0  0  0  0  0  0  0  0  0  0  0
   -5.0618    0.6065    2.2691 H   0  0  0  0  0  0  0  0  0  0  0  0
   -3.7390   -0.3743    3.1115 H   0  0  0  0  0  0  0  0  0  0  0  0
   -4.7034   -2.8150    1.2899 H   0  0  0  0  0  0  0  0  0  0  0  0
  1  3  1  0
  3  4  1  0
  4  6  1  0
  2  7  1  0
  6  7  1  0
  5  8  1  0
  7  8  1  0
  3  9  1  0
  8  9  1  0
  5 10  1  0
  2 11  1  0
 10 11  1  0
  1 12  1  0
  9 13  1  6
  9 14  1  0
 14 15  1  0
 12 16  1  0
 14 16  1  0
 15 16  1  0
 12 17  1  0
  4 18  1  0
 11 19  1  6
  2 20  1  0
 20 21  1  0
 11 22  1  0
 21 22  1  0
 22 23  1  0
 23 24  1  0
 23 25  1  0
 22 26  1  1
 26 27  1  0
 27 28  1  0
 27 29  1  0
  1 30  1  0
  1 31  1  0
  2 32  1  1
  3 33  1  1
  4 34  1  0
  5 35  1  0
  5 36  1  0
  6 37  1  0
  6 38  1  0
  7 39  1  6
  8 40  1  1
 10 41  1  0
 10 42  1  0
 12 43  1  0
 13 44  1  0
 13 45  1  0
 13 46  1  0
 14 47  1  1
 15 48  1  0
 15 49  1  0
 16 50  1  1
 17 51  1  0
 19 52  1  0
 19 53  1  0
 19 54  1  0
 20 55  1  0
 20 56  1  0
 21 57  1  0
 21 58  1  0
 23 59  1  0
 24 60  1  0
 24 61  1  0
 24 62  1  0
 25 63  1  0
 27 64  1  0
 28 65  1  0
 28 66  1  0
 28 67  1  0
 29 68  1  0
M  END
>  <PDBID>  (1) 
2OZ7

>  <PDB ID>  (1) 
2OZ7

>  <Generic Name>  (1) 
Cyproterone acetate

>  <Brand Name>  (1) 
Alti-cpa#Androcur#Androcur Depot#ClÃ©o -35#Cyestra-35#Cyproterone#Diane-35#Med-cyproterone#Mylan-cyproterone#Novo-cyproterone#Novo-cyproterone/ethinyl Estradiol#Ran-cyproterone/ethinyl Estradiol#Riva-cyproterone#Riva-cyproterone 50 mg#Cyprostat

>  <DrugBank ID>  (1) 
DB04839

>  <ATC Codes>  (1) 
G03HB01#G03HA01

>  <Ligand ID>  (1) 
CA4

>  <Target Name>  (1) 
Androgen receptor

>  <UniProt ID>  (1) 
P10275

>  <PDB ID.1>  (1) 
2OZ7

>  <Seq. Identity>  (1) 
100%

$$$$
