PDB_DB08954_09
     RDKit          3D

126130  0  0  0  0  0  0  0  0999 V2000
   -6.8249   -0.0133    0.2901 C   0  0  0  0  0  0  0  0  0  0  0  0
    0.6618   -0.3504    1.5573 N   0  0  0  0  0  0  0  0  0  0  0  0
    3.3656   -1.1615    1.1047 O   0  0  0  0  0  0  0  0  0  0  0  0
    5.4976   -1.3688   -0.9440 C   0  0  0  0  0  0  0  0  0  0  0  0
    6.7024    0.1762   -2.3140 O   0  0  0  0  0  0  0  0  0  0  0  0
    5.7020    0.9554   -0.2603 C   0  0  0  0  0  0  0  0  0  0  0  0
   -4.0438   -0.2551   -0.7179 C   0  0  0  0  0  0  0  0  0  0  0  0
   -4.6312   -1.2164    0.2626 C   0  0  0  0  0  0  0  0  0  0  0  0
   -6.1272   -1.3163    0.0598 C   0  0  0  0  0  0  0  0  0  0  0  0
   -3.1875    0.8118   -0.0735 C   0  0  0  0  0  0  0  0  0  0  0  0
   -2.0376    0.2327    0.6769 C   0  0  0  0  0  0  0  0  0  0  0  0
   -1.0860   -0.5851   -0.1753 C   0  0  0  0  0  0  0  0  0  0  0  0
   -6.1862    1.0502   -0.5429 C   0  0  0  0  0  0  0  0  0  0  0  0
   -5.1597    0.4399   -1.4596 C   0  0  0  0  0  0  0  0  0  0  0  0
   -0.1433   -1.2615    0.8076 C   0  0  0  0  0  0  0  0  0  0  0  0
   -0.2348    0.5363    2.2700 C   0  0  0  0  0  0  0  0  0  0  0  0
   -1.1937    1.2860    1.3638 C   0  0  0  0  0  0  0  0  0  0  0  0
    1.6409    0.3889    0.7838 C   0  0  2  0  0  0  0  0  0  0  0  0
    2.6585   -0.4893    0.1131 C   0  0  1  0  0  0  0  0  0  0  0  0
    3.4545    0.0862   -0.9761 C   0  0  0  0  0  0  0  0  0  0  0  0
    4.2022   -1.0727   -1.6415 C   0  0  0  0  0  0  0  0  0  0  0  0
    6.3705   -0.1518   -1.0265 C   0  0  0  0  0  0  0  0  0  0  0  0
    4.3131    1.2543   -0.7554 C   0  0  0  0  0  0  0  0  0  0  0  0
    2.4419    1.1715    1.8405 C   0  0  0  0  0  0  0  0  0  0  0  0
   -6.8249   -0.0133    0.2901 C   0  0  0  0  0  0  0  0  0  0  0  0
    0.6618   -0.3504    1.5573 N   0  0  0  0  0  0  0  0  0  0  0  0
    3.3656   -1.1615    1.1047 O   0  0  0  0  0  0  0  0  0  0  0  0
    5.4976   -1.3688   -0.9440 C   0  0  0  0  0  0  0  0  0  0  0  0
    6.7024    0.1762   -2.3140 O   0  0  0  0  0  0  0  0  0  0  0  0
    5.7020    0.9554   -0.2603 C   0  0  0  0  0  0  0  0  0  0  0  0
   -4.0438   -0.2551   -0.7179 C   0  0  0  0  0  0  0  0  0  0  0  0
   -4.6312   -1.2164    0.2626 C   0  0  0  0  0  0  0  0  0  0  0  0
   -6.1272   -1.3163    0.0598 C   0  0  0  0  0  0  0  0  0  0  0  0
   -3.1875    0.8118   -0.0735 C   0  0  0  0  0  0  0  0  0  0  0  0
   -2.0376    0.2327    0.6769 C   0  0  0  0  0  0  0  0  0  0  0  0
   -1.0860   -0.5851   -0.1753 C   0  0  0  0  0  0  0  0  0  0  0  0
   -6.1862    1.0502   -0.5429 C   0  0  0  0  0  0  0  0  0  0  0  0
   -5.1597    0.4399   -1.4596 C   0  0  0  0  0  0  0  0  0  0  0  0
   -0.1433   -1.2615    0.8076 C   0  0  0  0  0  0  0  0  0  0  0  0
   -0.2348    0.5363    2.2700 C   0  0  0  0  0  0  0  0  0  0  0  0
   -1.1937    1.2860    1.3638 C   0  0  0  0  0  0  0  0  0  0  0  0
    1.6409    0.3889    0.7838 C   0  0  2  0  0  0  0  0  0  0  0  0
    2.6585   -0.4893    0.1131 C   0  0  1  0  0  0  0  0  0  0  0  0
    3.4545    0.0862   -0.9761 C   0  0  0  0  0  0  0  0  0  0  0  0
    4.2022   -1.0727   -1.6415 C   0  0  0  0  0  0  0  0  0  0  0  0
    6.3705   -0.1518   -1.0265 C   0  0  0  0  0  0  0  0  0  0  0  0
    4.3131    1.2543   -0.7554 C   0  0  0  0  0  0  0  0  0  0  0  0
    2.4419    1.1715    1.8405 C   0  0  0  0  0  0  0  0  0  0  0  0
   -6.8463    0.2452    1.3836 H   0  0  0  0  0  0  0  0  0  0  0  0
   -7.8987   -0.1639    0.0150 H   0  0  0  0  0  0  0  0  0  0  0  0
    2.7030   -1.7235    1.6128 H   0  0  0  0  0  0  0  0  0  0  0  0
    5.4078   -1.6648    0.1021 H   0  0  0  0  0  0  0  0  0  0  0  0
    5.9590   -2.2216   -1.4827 H   0  0  0  0  0  0  0  0  0  0  0  0
    7.6839    0.2718   -2.3788 H   0  0  0  0  0  0  0  0  0  0  0  0
    6.3273    1.8669   -0.3547 H   0  0  0  0  0  0  0  0  0  0  0  0
    5.6700    0.6781    0.7900 H   0  0  0  0  0  0  0  0  0  0  0  0
   -3.4533   -0.8446   -1.4522 H   0  0  0  0  0  0  0  0  0  0  0  0
   -4.4418   -0.8925    1.3190 H   0  0  0  0  0  0  0  0  0  0  0  0
   -4.2443   -2.2665    0.1084 H   0  0  0  0  0  0  0  0  0  0  0  0
   -6.4728   -2.1046    0.7919 H   0  0  0  0  0  0  0  0  0  0  0  0
   -6.3441   -1.7066   -0.9438 H   0  0  0  0  0  0  0  0  0  0  0  0
   -2.7645    1.4143   -0.9278 H   0  0  0  0  0  0  0  0  0  0  0  0
   -3.7658    1.5064    0.5472 H   0  0  0  0  0  0  0  0  0  0  0  0
   -2.3607   -0.4515    1.4951 H   0  0  0  0  0  0  0  0  0  0  0  0
   -0.5738   -0.0015   -0.9428 H   0  0  0  0  0  0  0  0  0  0  0  0
   -1.6564   -1.3831   -0.6639 H   0  0  0  0  0  0  0  0  0  0  0  0
   -5.7357    1.7894    0.1555 H   0  0  0  0  0  0  0  0  0  0  0  0
   -6.9603    1.5370   -1.1756 H   0  0  0  0  0  0  0  0  0  0  0  0
   -4.7135    1.2965   -2.0381 H   0  0  0  0  0  0  0  0  0  0  0  0
   -5.6677   -0.2279   -2.1687 H   0  0  0  0  0  0  0  0  0  0  0  0
   -0.8382   -1.7316    1.5680 H   0  0  0  0  0  0  0  0  0  0  0  0
    0.3457   -2.0922    0.3188 H   0  0  0  0  0  0  0  0  0  0  0  0
    0.2216    1.2766    2.9100 H   0  0  0  0  0  0  0  0  0  0  0  0
   -0.8620   -0.1124    2.9157 H   0  0  0  0  0  0  0  0  0  0  0  0
   -1.8174    1.9156    2.0501 H   0  0  0  0  0  0  0  0  0  0  0  0
   -0.6300    1.9174    0.6731 H   0  0  0  0  0  0  0  0  0  0  0  0
    1.0914    1.0349    0.1032 H   0  0  0  0  0  0  0  0  0  0  0  0
    2.0306   -1.3274   -0.3537 H   0  0  0  0  0  0  0  0  0  0  0  0
    2.7097    0.3886   -1.7817 H   0  0  0  0  0  0  0  0  0  0  0  0
    3.5478   -1.9644   -1.6318 H   0  0  0  0  0  0  0  0  0  0  0  0
    4.4637   -0.7507   -2.6790 H   0  0  0  0  0  0  0  0  0  0  0  0
    7.3024   -0.4037   -0.4593 H   0  0  0  0  0  0  0  0  0  0  0  0
    3.8973    2.0521   -0.1280 H   0  0  0  0  0  0  0  0  0  0  0  0
    4.4943    1.7818   -1.7521 H   0  0  0  0  0  0  0  0  0  0  0  0
    2.1323    0.7967    2.8590 H   0  0  0  0  0  0  0  0  0  0  0  0
    2.3711    2.2462    1.7247 H   0  0  0  0  0  0  0  0  0  0  0  0
    3.5331    0.8722    1.8288 H   0  0  0  0  0  0  0  0  0  0  0  0
   -6.8463    0.2452    1.3836 H   0  0  0  0  0  0  0  0  0  0  0  0
   -7.8987   -0.1639    0.0150 H   0  0  0  0  0  0  0  0  0  0  0  0
    2.7030   -1.7235    1.6128 H   0  0  0  0  0  0  0  0  0  0  0  0
    5.4078   -1.6648    0.1021 H   0  0  0  0  0  0  0  0  0  0  0  0
    5.9590   -2.2216   -1.4827 H   0  0  0  0  0  0  0  0  0  0  0  0
    7.6839    0.2718   -2.3788 H   0  0  0  0  0  0  0  0  0  0  0  0
    6.3273    1.8669   -0.3547 H   0  0  0  0  0  0  0  0  0  0  0  0
    5.6700    0.6781    0.7900 H   0  0  0  0  0  0  0  0  0  0  0  0
   -3.4533   -0.8446   -1.4522 H   0  0  0  0  0  0  0  0  0  0  0  0
   -4.4418   -0.8925    1.3190 H   0  0  0  0  0  0  0  0  0  0  0  0
   -4.2443   -2.2665    0.1084 H   0  0  0  0  0  0  0  0  0  0  0  0
   -6.4728   -2.1046    0.7919 H   0  0  0  0  0  0  0  0  0  0  0  0
   -6.3441   -1.7066   -0.9438 H   0  0  0  0  0  0  0  0  0  0  0  0
   -2.7645    1.4143   -0.9278 H   0  0  0  0  0  0  0  0  0  0  0  0
   -3.7658    1.5064    0.5472 H   0  0  0  0  0  0  0  0  0  0  0  0
   -2.3607   -0.4515    1.4951 H   0  0  0  0  0  0  0  0  0  0  0  0
   -0.5738   -0.0015   -0.9428 H   0  0  0  0  0  0  0  0  0  0  0  0
   -1.6564   -1.3831   -0.6639 H   0  0  0  0  0  0  0  0  0  0  0  0
   -5.7357    1.7894    0.1555 H   0  0  0  0  0  0  0  0  0  0  0  0
   -6.9603    1.5370   -1.1756 H   0  0  0  0  0  0  0  0  0  0  0  0
   -4.7135    1.2965   -2.0381 H   0  0  0  0  0  0  0  0  0  0  0  0
   -5.6677   -0.2279   -2.1687 H   0  0  0  0  0  0  0  0  0  0  0  0
   -0.8382   -1.7316    1.5680 H   0  0  0  0  0  0  0  0  0  0  0  0
    0.3457   -2.0922    0.3188 H   0  0  0  0  0  0  0  0  0  0  0  0
    0.2216    1.2766    2.9100 H   0  0  0  0  0  0  0  0  0  0  0  0
   -0.8620   -0.1124    2.9157 H   0  0  0  0  0  0  0  0  0  0  0  0
   -1.8174    1.9156    2.0501 H   0  0  0  0  0  0  0  0  0  0  0  0
   -0.6300    1.9174    0.6731 H   0  0  0  0  0  0  0  0  0  0  0  0
    1.0914    1.0349    0.1032 H   0  0  0  0  0  0  0  0  0  0  0  0
    2.0306   -1.3274   -0.3537 H   0  0  0  0  0  0  0  0  0  0  0  0
    2.7097    0.3886   -1.7817 H   0  0  0  0  0  0  0  0  0  0  0  0
    3.5478   -1.9644   -1.6318 H   0  0  0  0  0  0  0  0  0  0  0  0
    4.4637   -0.7507   -2.6790 H   0  0  0  0  0  0  0  0  0  0  0  0
    7.3024   -0.4037   -0.4593 H   0  0  0  0  0  0  0  0  0  0  0  0
    3.8973    2.0521   -0.1280 H   0  0  0  0  0  0  0  0  0  0  0  0
    4.4943    1.7818   -1.7521 H   0  0  0  0  0  0  0  0  0  0  0  0
    2.1323    0.7967    2.8590 H   0  0  0  0  0  0  0  0  0  0  0  0
    2.3711    2.2462    1.7247 H   0  0  0  0  0  0  0  0  0  0  0  0
    3.5331    0.8722    1.8288 H   0  0  0  0  0  0  0  0  0  0  0  0
  7  8  1  0
  1  9  1  0
  8  9  1  0
  7 10  1  0
 10 11  1  0
 11 12  1  0
  1 13  1  0
  7 14  1  0
 13 14  1  0
  2 15  1  0
 12 15  1  0
  2 16  1  0
 11 17  1  0
 16 17  1  0
  2 18  1  0
  3 19  1  0
 18 19  1  0
 19 20  1  0
  4 21  1  0
 20 21  1  0
  4 22  1  0
  5 22  1  0
  6 22  1  0
  6 23  1  0
 20 23  1  0
 18 24  1  0
 31 32  1  0
 25 33  1  0
 32 33  1  0
 31 34  1  0
 34 35  1  0
 35 36  1  0
 25 37  1  0
 31 38  1  0
 37 38  1  0
 26 39  1  0
 36 39  1  0
 26 40  1  0
 35 41  1  0
 40 41  1  0
 26 42  1  0
 27 43  1  0
 42 43  1  0
 43 44  1  0
 28 45  1  0
 44 45  1  0
 28 46  1  0
 29 46  1  0
 30 46  1  0
 30 47  1  0
 44 47  1  0
 42 48  1  0
  1 49  1  0
  1 50  1  0
  3 51  1  0
  4 52  1  0
  4 53  1  0
  5 54  1  0
  6 55  1  0
  6 56  1  0
  7 57  1  0
  8 58  1  0
  8 59  1  0
  9 60  1  0
  9 61  1  0
 10 62  1  0
 10 63  1  0
 11 64  1  0
 12 65  1  0
 12 66  1  0
 13 67  1  0
 13 68  1  0
 14 69  1  0
 14 70  1  0
 15 71  1  0
 15 72  1  0
 16 73  1  0
 16 74  1  0
 17 75  1  0
 17 76  1  0
 18 77  1  6
 19 78  1  6
 20 79  1  0
 21 80  1  0
 21 81  1  0
 22 82  1  0
 23 83  1  0
 23 84  1  0
 24 85  1  0
 24 86  1  0
 24 87  1  0
 25 88  1  0
 25 89  1  0
 27 90  1  0
 28 91  1  0
 28 92  1  0
 29 93  1  0
 30 94  1  0
 30 95  1  0
 31 96  1  0
 32 97  1  0
 32 98  1  0
 33 99  1  0
 33100  1  0
 34101  1  0
 34102  1  0
 35103  1  0
 36104  1  0
 36105  1  0
 37106  1  0
 37107  1  0
 38108  1  0
 38109  1  0
 39110  1  0
 39111  1  0
 40112  1  0
 40113  1  0
 41114  1  0
 41115  1  0
 42116  1  6
 43117  1  6
 44118  1  0
 45119  1  0
 45120  1  0
 46121  1  0
 47122  1  0
 47123  1  0
 48124  1  0
 48125  1  0
 48126  1  0
M  END
>  <PDBID>  (1) 
4PE5

>  <PDB ID>  (1) 
4PE5

>  <Generic Name>  (1) 
Ifenprodil

>  <Brand Name>  (1) 
Cerocral#Furezanil#Iburonol#Linbulane#Technis#Vadilex#Vasculodil#Youajyl

>  <DrugBank ID>  (1) 
DB08954

>  <ATC Codes>  (1) 
C04AX28

>  <Ligand ID>  (1) 
QEL

>  <Target Name>  (1) 
Glutamate receptor ionotropic, NMDA 1

>  <UniProt ID>  (1) 
Q05586

>  <PDB ID.1>  (1) 
4PE5

>  <Seq. Identity>  (1) 
98%

$$$$
