PDB_DB08873_01
     RDKit          3D

 91 93  0  0  0  0  0  0  0  0999 V2000
   -4.2848    0.6148    0.0425 C   0  0  0  0  0  0  0  0  0  0  0  0
   -5.3454   -0.1027    0.5210 O   0  0  0  0  0  0  0  0  0  0  0  0
   -4.4206    2.0023    0.4283 N   0  0  0  0  0  0  0  0  0  0  0  0
   -5.5499    2.6639   -0.1492 C   0  0  0  0  0  0  0  0  0  0  0  0
   -5.4812    2.7389   -1.6591 C   0  0  0  0  0  0  0  0  0  0  0  0
   -6.8594    1.9854    0.1814 C   0  0  0  0  0  0  0  0  0  0  0  0
   -5.6731    4.1025    0.3514 C   0  0  0  0  0  0  0  0  0  0  0  0
   -2.9956    0.0909    0.0886 N   0  0  0  0  0  0  0  0  0  0  0  0
   -2.2365   -0.1794    1.2262 C   0  0  1  0  0  0  0  0  0  0  0  0
   -2.6737   -1.1739    2.2283 C   0  0  0  0  0  0  0  0  0  0  0  0
   -3.9625   -0.8234    2.9243 C   0  0  0  0  0  0  0  0  0  0  0  0
   -1.6551   -1.4648    3.3092 C   0  0  0  0  0  0  0  0  0  0  0  0
   -2.9461   -2.5431    1.5654 C   0  0  0  0  0  0  0  0  0  0  0  0
   -0.7804   -0.2738    0.8080 C   0  0  1  0  0  0  0  0  0  0  0  0
    0.0391   -0.4691    1.9539 O   0  0  0  0  0  0  0  0  0  0  0  0
   -0.4498   -1.2927   -0.1268 N   0  0  0  0  0  0  0  0  0  0  0  0
   -1.0035   -1.2613   -1.4198 C   0  0  0  0  0  0  0  0  0  0  0  0
    0.9691   -1.4863   -0.2725 C   0  0  1  0  0  0  0  0  0  0  0  0
    1.0820   -2.4053   -1.4569 C   0  0  2  0  0  0  0  0  0  0  0  0
   -0.2707   -2.3564   -2.1650 C   0  0  1  0  0  0  0  0  0  0  0  0
    0.1628   -3.5626   -1.4739 C   0  0  0  0  0  0  0  0  0  0  0  0
    0.7234   -4.7319   -2.3236 C   0  0  0  0  0  0  0  0  0  0  0  0
   -0.4973   -4.0682   -0.2342 C   0  0  0  0  0  0  0  0  0  0  0  0
    1.7683   -0.2371   -0.4551 C   0  0  0  0  0  0  0  0  0  0  0  0
    1.3801    0.5016   -1.5624 O   0  0  0  0  0  0  0  0  0  0  0  0
    3.1729   -0.6527   -0.5978 N   0  0  0  0  0  0  0  0  0  0  0  0
    3.9948    0.4205   -1.0611 C   0  0  1  0  0  0  0  0  0  0  0  0
    4.0853    1.5393   -0.0995 C   0  0  0  0  0  0  0  0  0  0  0  0
    4.8817    2.7035   -0.5583 C   0  0  0  0  0  0  0  0  0  0  0  0
    4.9020    3.7988    0.5310 C   0  0  0  0  0  0  0  0  0  0  0  0
    6.3527    2.7315   -0.5119 C   0  0  0  0  0  0  0  0  0  0  0  0
    6.2918    4.2014   -0.0136 C   0  0  0  0  0  0  0  0  0  0  0  0
    5.2406   -0.9825   -2.5528 O   0  0  0  0  0  0  0  0  0  0  0  0
    5.3586   -0.1096   -1.4235 C   0  0  0  0  0  0  0  0  0  0  0  0
    5.3707   -2.1698   -0.1367 O   0  0  0  0  0  0  0  0  0  0  0  0
    6.1505   -0.2805    0.9304 N   0  0  0  0  0  0  0  0  0  0  0  0
    5.9829   -0.9539   -0.3123 C   0  0  0  0  0  0  0  0  0  0  0  0
   -4.5216    0.6573   -1.1103 H   0  0  0  0  0  0  0  0  0  0  0  0
   -5.5765   -0.8584   -0.0748 H   0  0  0  0  0  0  0  0  0  0  0  0
   -4.5339    2.0445    1.4553 H   0  0  0  0  0  0  0  0  0  0  0  0
   -6.1906    3.5611   -1.9511 H   0  0  0  0  0  0  0  0  0  0  0  0
   -5.8667    1.8318   -2.1614 H   0  0  0  0  0  0  0  0  0  0  0  0
   -4.4954    3.0715   -2.0201 H   0  0  0  0  0  0  0  0  0  0  0  0
   -6.9786    1.1611   -0.5488 H   0  0  0  0  0  0  0  0  0  0  0  0
   -6.7949    1.5880    1.1977 H   0  0  0  0  0  0  0  0  0  0  0  0
   -7.6872    2.7233    0.0594 H   0  0  0  0  0  0  0  0  0  0  0  0
   -5.5996    4.1439    1.4580 H   0  0  0  0  0  0  0  0  0  0  0  0
   -6.6594    4.4674   -0.0011 H   0  0  0  0  0  0  0  0  0  0  0  0
   -4.9178    4.7540   -0.1386 H   0  0  0  0  0  0  0  0  0  0  0  0
   -2.3811    0.6645   -0.6280 H   0  0  0  0  0  0  0  0  0  0  0  0
   -2.2295    0.8308    1.8177 H   0  0  0  0  0  0  0  0  0  0  0  0
   -3.8017   -1.0563    4.0493 H   0  0  0  0  0  0  0  0  0  0  0  0
   -4.7414   -1.5328    2.6338 H   0  0  0  0  0  0  0  0  0  0  0  0
   -4.2409    0.2355    2.8820 H   0  0  0  0  0  0  0  0  0  0  0  0
   -1.2718   -0.5992    3.8363 H   0  0  0  0  0  0  0  0  0  0  0  0
   -0.9139   -2.2318    3.0059 H   0  0  0  0  0  0  0  0  0  0  0  0
   -2.2548   -2.0258    4.1050 H   0  0  0  0  0  0  0  0  0  0  0  0
   -2.2438   -3.2884    1.9685 H   0  0  0  0  0  0  0  0  0  0  0  0
   -2.8125   -2.4794    0.4854 H   0  0  0  0  0  0  0  0  0  0  0  0
   -3.9604   -2.9051    1.8405 H   0  0  0  0  0  0  0  0  0  0  0  0
   -0.4902    0.7217    0.4147 H   0  0  0  0  0  0  0  0  0  0  0  0
    0.2787    0.4283    2.3501 H   0  0  0  0  0  0  0  0  0  0  0  0
   -0.8138   -0.2763   -1.9406 H   0  0  0  0  0  0  0  0  0  0  0  0
   -2.0638   -1.4757   -1.5389 H   0  0  0  0  0  0  0  0  0  0  0  0
    1.3764   -2.0290    0.6221 H   0  0  0  0  0  0  0  0  0  0  0  0
    1.9841   -2.3545   -2.1004 H   0  0  0  0  0  0  0  0  0  0  0  0
   -0.2576   -2.3041   -3.2798 H   0  0  0  0  0  0  0  0  0  0  0  0
   -0.0146   -5.5528   -2.3252 H   0  0  0  0  0  0  0  0  0  0  0  0
    0.9993   -4.3727   -3.3174 H   0  0  0  0  0  0  0  0  0  0  0  0
    1.6011   -5.0961   -1.7521 H   0  0  0  0  0  0  0  0  0  0  0  0
   -1.5823   -4.2604   -0.4130 H   0  0  0  0  0  0  0  0  0  0  0  0
   -0.1092   -5.1017    0.0499 H   0  0  0  0  0  0  0  0  0  0  0  0
   -0.2917   -3.4738    0.6793 H   0  0  0  0  0  0  0  0  0  0  0  0
    1.6967    0.3912    0.4361 H   0  0  0  0  0  0  0  0  0  0  0  0
    1.5617    0.0916   -2.4185 H   0  0  0  0  0  0  0  0  0  0  0  0
    3.4949   -0.9928    0.3629 H   0  0  0  0  0  0  0  0  0  0  0  0
    3.5058    0.7721   -2.0300 H   0  0  0  0  0  0  0  0  0  0  0  0
    3.0243    1.9326    0.0412 H   0  0  0  0  0  0  0  0  0  0  0  0
    4.3886    1.2278    0.9133 H   0  0  0  0  0  0  0  0  0  0  0  0
    4.5056    3.1944   -1.4981 H   0  0  0  0  0  0  0  0  0  0  0  0
    4.9753    3.3813    1.5513 H   0  0  0  0  0  0  0  0  0  0  0  0
    4.1480    4.5755    0.4212 H   0  0  0  0  0  0  0  0  0  0  0  0
    6.9194    2.1814    0.2274 H   0  0  0  0  0  0  0  0  0  0  0  0
    6.8294    2.7938   -1.5349 H   0  0  0  0  0  0  0  0  0  0  0  0
    6.2637    4.9429   -0.8092 H   0  0  0  0  0  0  0  0  0  0  0  0
    6.9781    4.4312    0.8005 H   0  0  0  0  0  0  0  0  0  0  0  0
    5.2676   -0.3743   -3.3280 H   0  0  0  0  0  0  0  0  0  0  0  0
    5.6803   -2.5958    0.6931 H   0  0  0  0  0  0  0  0  0  0  0  0
    5.8142   -0.8203    1.7780 H   0  0  0  0  0  0  0  0  0  0  0  0
    7.1600   -0.0660    1.1301 H   0  0  0  0  0  0  0  0  0  0  0  0
    7.0202   -1.1917   -0.7325 H   0  0  0  0  0  0  0  0  0  0  0  0
  1  2  1  0
  1  3  1  0
  4  3  1  0
  4  5  1  0
  4  6  1  0
  4  7  1  0
  1  8  1  0
  8  9  1  0
  9 10  1  0
 10 11  1  0
 10 12  1  0
 10 13  1  0
  9 14  1  0
 14 15  1  0
 14 16  1  0
 16 17  1  0
 16 18  1  0
 18 19  1  0
 17 20  1  0
 19 20  1  0
 19 21  1  0
 20 21  1  0
 21 22  1  0
 21 23  1  0
 18 24  1  0
 24 25  1  0
 24 26  1  0
 26 27  1  0
 27 28  1  0
 28 29  1  0
 29 30  1  0
 29 31  1  0
 30 32  1  0
 31 32  1  0
 27 34  1  0
 34 33  1  0
 34 37  1  0
 35 37  1  0
 36 37  1  0
  1 38  1  0
  2 39  1  0
  3 40  1  0
  5 41  1  0
  5 42  1  0
  5 43  1  0
  6 44  1  0
  6 45  1  0
  6 46  1  0
  7 47  1  0
  7 48  1  0
  7 49  1  0
  8 50  1  0
  9 51  1  1
 11 52  1  0
 11 53  1  0
 11 54  1  0
 12 55  1  0
 12 56  1  0
 12 57  1  0
 13 58  1  0
 13 59  1  0
 13 60  1  0
 14 61  1  6
 15 62  1  0
 17 63  1  0
 17 64  1  0
 18 65  1  1
 19 66  1  6
 20 67  1  6
 22 68  1  0
 22 69  1  0
 22 70  1  0
 23 71  1  0
 23 72  1  0
 23 73  1  0
 24 74  1  0
 25 75  1  0
 26 76  1  0
 27 77  1  6
 28 78  1  0
 28 79  1  0
 29 80  1  0
 30 81  1  0
 30 82  1  0
 31 83  1  0
 31 84  1  0
 32 85  1  0
 32 86  1  0
 33 87  1  0
 35 88  1  0
 36 89  1  0
 36 90  1  0
 37 91  1  0
M  END
>  <PDBID>  (1) 
2OC8

>  <PDB ID>  (1) 
2OC8

>  <Generic Name>  (1) 
Boceprevir

>  <Brand Name>  (1) 
Victrelis#Victrelis Triple

>  <DrugBank ID>  (1) 
DB08873

>  <ATC Codes>  (1) 
J05AE12

>  <Ligand ID>  (1) 
HU5

>  <Target Name>  (1) 
Genome polyprotein

>  <UniProt ID>  (1) 
B0B3C9

>  <PDB ID.1>  (1) 
2OC8

>  <Seq. Identity>  (1) 
69%

$$$$
