PDB_DB00176_04
     RDKit          3D

 51 51  0  0  0  0  0  0  0  0999 V2000
    5.9555    0.0648    0.0848 C   0  0  0  0  0  0  0  0  0  0  0  0
    5.1433    0.6341   -0.8528 O   0  0  0  0  0  0  0  0  0  0  0  0
    3.8295    0.8504   -0.4778 C   0  0  0  0  0  0  0  0  0  0  0  0
    3.1936   -0.4397   -0.1273 C   0  0  0  0  0  0  0  0  0  0  0  0
    1.7440   -0.3278    0.2864 C   0  0  0  0  0  0  0  0  0  0  0  0
    0.8761    0.2468   -0.7660 C   0  0  0  0  0  0  0  0  0  0  0  0
   -0.5455    0.4076   -0.4812 C   0  0  0  0  0  0  0  0  0  0  0  0
   -0.7466    1.2918    0.6755 N   0  0  0  0  0  0  0  0  0  0  0  0
   -0.2123    2.5056    0.4071 O   0  0  0  0  0  0  0  0  0  0  0  0
   -0.7338    3.4658    1.2870 C   0  0  0  0  0  0  0  0  0  0  0  0
   -0.1467    4.8346    1.0015 C   0  0  0  0  0  0  0  0  0  0  0  0
   -0.4558    5.2512   -0.3638 N   0  0  0  0  0  0  0  0  0  0  0  0
   -1.4485   -0.7379   -0.3558 C   0  0  0  0  0  0  0  0  0  0  0  0
   -1.5500   -1.6155   -1.5805 C   0  0  0  0  0  0  0  0  0  0  0  0
   -2.8815   -2.3566   -1.4470 C   0  0  0  0  0  0  0  0  0  0  0  0
   -2.8606   -3.1816   -0.1981 C   0  0  0  0  0  0  0  0  0  0  0  0
   -2.6967   -2.2960    1.0237 C   0  0  0  0  0  0  0  0  0  0  0  0
   -1.3213   -1.6224    0.8375 C   0  0  0  0  0  0  0  0  0  0  0  0
   -4.0172   -4.1208   -0.0903 C   0  0  0  0  0  0  0  0  0  0  0  0
   -5.2107   -3.4130   -0.0923 F   0  0  0  0  0  0  0  0  0  0  0  0
   -3.9412   -5.0152   -1.1373 F   0  0  0  0  0  0  0  0  0  0  0  0
   -3.9300   -4.8417    1.0790 F   0  0  0  0  0  0  0  0  0  0  0  0
    6.0499    0.6368    1.0308 H   0  0  0  0  0  0  0  0  0  0  0  0
    5.6800   -0.9858    0.2539 H   0  0  0  0  0  0  0  0  0  0  0  0
    6.9880    0.0273   -0.3844 H   0  0  0  0  0  0  0  0  0  0  0  0
    3.8387    1.5394    0.3959 H   0  0  0  0  0  0  0  0  0  0  0  0
    3.3398    1.3375   -1.3653 H   0  0  0  0  0  0  0  0  0  0  0  0
    3.3571   -1.1614   -0.9524 H   0  0  0  0  0  0  0  0  0  0  0  0
    3.7534   -0.8645    0.7572 H   0  0  0  0  0  0  0  0  0  0  0  0
    1.4222   -1.3668    0.5011 H   0  0  0  0  0  0  0  0  0  0  0  0
    1.7162    0.3238    1.1801 H   0  0  0  0  0  0  0  0  0  0  0  0
    1.2869    1.2764   -1.0015 H   0  0  0  0  0  0  0  0  0  0  0  0
    1.0505   -0.3136   -1.7286 H   0  0  0  0  0  0  0  0  0  0  0  0
   -0.9698    1.0341   -1.3323 H   0  0  0  0  0  0  0  0  0  0  0  0
   -0.3299    0.8359    1.5087 H   0  0  0  0  0  0  0  0  0  0  0  0
   -0.3972    3.1739    2.3026 H   0  0  0  0  0  0  0  0  0  0  0  0
   -1.8161    3.4550    1.1866 H   0  0  0  0  0  0  0  0  0  0  0  0
   -0.6125    5.5684    1.6897 H   0  0  0  0  0  0  0  0  0  0  0  0
    0.9385    4.8588    1.2112 H   0  0  0  0  0  0  0  0  0  0  0  0
   -1.3452    4.8023   -0.6892 H   0  0  0  0  0  0  0  0  0  0  0  0
   -0.6271    6.2800   -0.3592 H   0  0  0  0  0  0  0  0  0  0  0  0
   -2.4898   -0.2806   -0.2721 H   0  0  0  0  0  0  0  0  0  0  0  0
   -0.7507   -2.3466   -1.6700 H   0  0  0  0  0  0  0  0  0  0  0  0
   -1.5955   -1.0221   -2.5073 H   0  0  0  0  0  0  0  0  0  0  0  0
   -3.6485   -1.5410   -1.3265 H   0  0  0  0  0  0  0  0  0  0  0  0
   -3.1483   -2.9163   -2.3384 H   0  0  0  0  0  0  0  0  0  0  0  0
   -1.9305   -3.8110   -0.2415 H   0  0  0  0  0  0  0  0  0  0  0  0
   -3.4667   -1.5294    1.1138 H   0  0  0  0  0  0  0  0  0  0  0  0
   -2.6385   -2.9829    1.9056 H   0  0  0  0  0  0  0  0  0  0  0  0
   -1.0420   -1.0987    1.7710 H   0  0  0  0  0  0  0  0  0  0  0  0
   -0.6568   -2.5136    0.6482 H   0  0  0  0  0  0  0  0  0  0  0  0
  1  2  1  0
  2  3  1  0
  3  4  1  0
  4  5  1  0
  5  6  1  0
  6  7  1  0
  7  8  1  0
  8  9  1  0
  9 10  1  0
 10 11  1  0
 11 12  1  0
  7 13  1  0
 13 14  1  0
 14 15  1  0
 15 16  1  0
 16 17  1  0
 13 18  1  0
 17 18  1  0
 16 19  1  0
 19 20  1  0
 19 21  1  0
 19 22  1  0
  1 23  1  0
  1 24  1  0
  1 25  1  0
  3 26  1  0
  3 27  1  0
  4 28  1  0
  4 29  1  0
  5 30  1  0
  5 31  1  0
  6 32  1  0
  6 33  1  0
  7 34  1  0
  8 35  1  0
 10 36  1  0
 10 37  1  0
 11 38  1  0
 11 39  1  0
 12 40  1  0
 12 41  1  0
 13 42  1  0
 14 43  1  0
 14 44  1  0
 15 45  1  0
 15 46  1  0
 16 47  1  0
 17 48  1  0
 17 49  1  0
 18 50  1  0
 18 51  1  0
M  END
>  <PDBID>  (1) 
6AWP

>  <PDB ID>  (1) 
6AWP

>  <Generic Name>  (1) 
Fluvoxamine

>  <Brand Name>  (1) 
Act Fluvoxamine#Apo-fluvoxamine Tablets#Ava-fluvoxamine#Bci Fluvoxamine Tablets#Dom-fluvoxamine#Fluvoxamine Maleate#Fluvoxamine Maleate Extended-release#Fluvoxamine Tablets#Fluvoxamine-100#Fluvoxamine-50#Gen-fluvoxamine 100mg#Gen-fluvoxamine 50mg#Luvox#Luvox CR#Novo-fluvoxamine#Nu-fluvoxamine 100 Mg Tab#Nu-fluvoxamine 50 Mg Tab#PHL-fluvoxamine#PMS-fluvoxamine#Ratio-fluvoxamine#Riva-fluvox#Riva-fluvox 100mg Tablets#Riva-fluvox 50mg Tablets#Sandoz Fluvoxamine#Dumirox#Faverin#Fevarin#Floxyfral#Maveral

>  <DrugBank ID>  (1) 
DB00176

>  <ATC Codes>  (1) 
N06AB08

>  <Ligand ID>  (1) 
FVX

>  <Target Name>  (1) 
Sodium-dependent serotonin transporter

>  <UniProt ID>  (1) 
P31645

>  <PDB ID.1>  (1) 
6AWP

>  <Seq. Identity>  (1) 
99%

$$$$
