PDB_DB01092_08
     RDKit          3D

178188  0  0  0  0  0  0  0  0999 V2000
    1.0278   -0.5084    1.1047 C   0  0  2  0  0  0  0  0  0  0  0  0
    2.5035   -0.5388    1.1679 C   0  0  0  0  0  0  0  0  0  0  0  0
    3.1953   -0.5879   -0.1595 C   0  0  1  0  0  0  0  0  0  0  0  0
    2.5252    0.2199   -1.2192 C   0  0  0  0  0  0  0  0  0  0  0  0
    1.0433    0.2286   -1.2110 C   0  0  1  0  0  0  0  0  0  0  0  0
    0.4579   -0.9846   -1.9009 C   0  0  0  0  0  0  0  0  0  0  0  0
   -0.9531   -0.6264   -2.2887 C   0  0  0  0  0  0  0  0  0  0  0  0
   -1.6459    0.2403   -1.2824 C   0  0  2  0  0  0  0  0  0  0  0  0
   -1.0720    0.2482    0.0726 C   0  0  1  0  0  0  0  0  0  0  0  0
    0.4160    0.4663    0.1385 C   0  0  1  0  0  0  0  0  0  0  0  0
   -1.8870    1.1588    0.9366 C   0  0  1  0  0  0  0  0  0  0  0  0
   -3.1256    1.7090    0.3228 C   0  0  0  0  0  0  0  0  0  0  0  0
   -3.9800    0.6495   -0.3933 C   0  0  1  0  0  0  0  0  0  0  0  0
   -3.0810   -0.2408   -1.2412 C   0  0  2  0  0  0  0  0  0  0  0  0
   -3.2482   -1.6376   -0.7480 C   0  0  0  0  0  0  0  0  0  0  0  0
   -4.1620   -1.6146    0.4285 C   0  0  0  0  0  0  0  0  0  0  0  0
   -4.7021   -0.1830    0.5470 C   0  0  2  0  0  0  0  0  0  0  0  0
   -4.7846    1.4842   -1.3700 C   0  0  0  0  0  0  0  0  0  0  0  0
    0.8115    1.8819    0.5169 C   0  0  0  0  0  0  0  0  0  0  0  0
   -6.1700   -0.2951    0.5483 C   0  0  1  0  0  0  0  0  0  0  0  0
   -6.9600    0.9484    0.7645 C   0  0  0  0  0  0  0  0  0  0  0  0
   -6.8019   -1.0037   -0.5989 C   0  0  0  0  0  0  0  0  0  0  0  0
   -7.9293   -0.0698   -0.9771 C   0  0  0  0  0  0  0  0  0  0  0  0
    5.4042   -1.2254   -0.4622 C   0  0  2  0  0  0  0  0  0  0  0  0
    6.3314   -0.8295   -1.5818 C   0  0  1  0  0  0  0  0  0  0  0  0
    7.1339    0.3834   -1.1751 C   0  0  1  0  0  0  0  0  0  0  0  0
    7.7592    0.1491    0.1685 C   0  0  2  0  0  0  0  0  0  0  0  0
    6.6750   -0.3093    1.1334 C   0  0  2  0  0  0  0  0  0  0  0  0
    7.1624   -0.3855    2.5475 C   0  0  0  0  0  0  0  0  0  0  0  0
    0.5744   -0.2676    2.4244 O   0  0  0  0  0  0  0  0  0  0  0  0
    4.5162   -0.2359   -0.1054 O   0  0  0  0  0  0  0  0  0  0  0  0
    0.6338    1.3248   -2.0119 O   0  0  0  0  0  0  0  0  0  0  0  0
   -2.2099    0.5991    2.1752 O   0  0  0  0  0  0  0  0  0  0  0  0
   -3.4781   -0.1806   -2.6061 O   0  0  0  0  0  0  0  0  0  0  0  0
    0.2687    2.8264   -0.3530 O   0  0  0  0  0  0  0  0  0  0  0  0
   -7.6548    1.1637   -0.4487 O   0  0  0  0  0  0  0  0  0  0  0  0
   -9.1479   -0.5021   -0.4988 O   0  0  0  0  0  0  0  0  0  0  0  0
    7.2216   -1.9052   -1.7704 O   0  0  0  0  0  0  0  0  0  0  0  0
    8.1298    0.5473   -2.1511 O   0  0  0  0  0  0  0  0  0  0  0  0
    8.3434    1.3270    0.6036 O   0  0  0  0  0  0  0  0  0  0  0  0
    6.1924   -1.5110    0.6593 O   0  0  0  0  0  0  0  0  0  0  0  0
    0.9817   -0.3582    1.2407 C   0  0  2  0  0  0  0  0  0  0  0  0
    2.4516   -0.1592    1.2865 C   0  0  0  0  0  0  0  0  0  0  0  0
    3.1465   -0.5543    0.0361 C   0  0  1  0  0  0  0  0  0  0  0  0
    2.4291   -0.2703   -1.2302 C   0  0  0  0  0  0  0  0  0  0  0  0
    0.9596   -0.1886   -1.1762 C   0  0  1  0  0  0  0  0  0  0  0  0
    0.2845   -1.5108   -1.4605 C   0  0  0  0  0  0  0  0  0  0  0  0
   -1.1429   -1.2488   -1.8123 C   0  0  0  0  0  0  0  0  0  0  0  0
   -1.7439   -0.0556   -1.1336 C   0  0  2  0  0  0  0  0  0  0  0  0
   -1.0779    0.3370    0.1505 C   0  0  1  0  0  0  0  0  0  0  0  0
    0.4009    0.4336    0.0929 C   0  0  1  0  0  0  0  0  0  0  0  0
   -1.7538    1.6148    0.6292 C   0  0  1  0  0  0  0  0  0  0  0  0
   -3.2085    1.3376    0.9412 C   0  0  0  0  0  0  0  0  0  0  0  0
   -3.9560    0.6774   -0.1769 C   0  0  1  0  0  0  0  0  0  0  0  0
   -3.1985   -0.3791   -0.8934 C   0  0  2  0  0  0  0  0  0  0  0  0
   -3.4190   -1.6281   -0.1032 C   0  0  0  0  0  0  0  0  0  0  0  0
   -4.3657   -1.2619    1.0147 C   0  0  0  0  0  0  0  0  0  0  0  0
   -5.1114   -0.0525    0.4057 C   0  0  2  0  0  0  0  0  0  0  0  0
   -4.3081    1.7848   -1.1481 C   0  0  0  0  0  0  0  0  0  0  0  0
    0.9737    1.8204    0.1446 C   0  0  0  0  0  0  0  0  0  0  0  0
   -6.1123   -0.6584   -0.4578 C   0  0  0  0  0  0  0  0  0  0  0  0
   -7.1834   -1.2400    0.4514 C   0  0  0  0  0  0  0  0  0  0  0  0
   -6.9530    0.0877   -1.3786 C   0  0  0  0  0  0  0  0  0  0  0  0
   -8.0059    0.6611   -0.4556 C   0  0  0  0  0  0  0  0  0  0  0  0
    5.4413   -0.9002   -0.0915 C   0  0  2  0  0  0  0  0  0  0  0  0
    6.3168   -0.7425   -1.3303 C   0  0  1  0  0  0  0  0  0  0  0  0
    7.7318   -1.0654   -0.9490 C   0  0  1  0  0  0  0  0  0  0  0  0
    8.2460    0.0946   -0.0872 C   0  0  2  0  0  0  0  0  0  0  0  0
    7.0517    0.5040    0.7793 C   0  0  2  0  0  0  0  0  0  0  0  0
    7.5747    1.0014    2.1013 C   0  0  0  0  0  0  0  0  0  0  0  0
    0.4173    0.0452    2.4534 O   0  0  0  0  0  0  0  0  0  0  0  0
    4.4167   -0.0040   -0.0749 O   0  0  0  0  0  0  0  0  0  0  0  0
    0.5431    0.6746   -2.2209 O   0  0  0  0  0  0  0  0  0  0  0  0
   -1.2046    2.0351    1.8652 O   0  0  0  0  0  0  0  0  0  0  0  0
   -3.8211   -0.5573   -2.1519 O   0  0  0  0  0  0  0  0  0  0  0  0
    0.4902    2.6357   -0.8822 O   0  0  0  0  0  0  0  0  0  0  0  0
   -8.1705   -0.2623    0.5373 O   0  0  0  0  0  0  0  0  0  0  0  0
   -9.2012    0.8346   -1.1494 O   0  0  0  0  0  0  0  0  0  0  0  0
    5.8705   -1.6710   -2.2617 O   0  0  0  0  0  0  0  0  0  0  0  0
    7.8072   -2.2240   -0.2147 O   0  0  0  0  0  0  0  0  0  0  0  0
    8.6208    1.1579   -0.8855 O   0  0  0  0  0  0  0  0  0  0  0  0
    6.2624   -0.6166    1.0262 O   0  0  0  0  0  0  0  0  0  0  0  0
    0.5989   -1.5222    0.8537 H   0  0  0  0  0  0  0  0  0  0  0  0
    2.8014   -1.4528    1.7268 H   0  0  0  0  0  0  0  0  0  0  0  0
    2.8454    0.3171    1.8091 H   0  0  0  0  0  0  0  0  0  0  0  0
    3.1583   -1.6639   -0.5017 H   0  0  0  0  0  0  0  0  0  0  0  0
    2.9868    1.2505   -1.2693 H   0  0  0  0  0  0  0  0  0  0  0  0
    2.8342   -0.2309   -2.2106 H   0  0  0  0  0  0  0  0  0  0  0  0
    1.0766   -1.1573   -2.8063 H   0  0  0  0  0  0  0  0  0  0  0  0
    0.5306   -1.8988   -1.2883 H   0  0  0  0  0  0  0  0  0  0  0  0
   -1.5120   -1.5637   -2.4823 H   0  0  0  0  0  0  0  0  0  0  0  0
   -0.9331   -0.0694   -3.2485 H   0  0  0  0  0  0  0  0  0  0  0  0
   -1.7027    1.3066   -1.6434 H   0  0  0  0  0  0  0  0  0  0  0  0
   -1.2654   -0.7804    0.5081 H   0  0  0  0  0  0  0  0  0  0  0  0
   -1.2576    2.0381    1.1899 H   0  0  0  0  0  0  0  0  0  0  0  0
   -2.8876    2.5640   -0.3426 H   0  0  0  0  0  0  0  0  0  0  0  0
   -3.7650    2.1091    1.1362 H   0  0  0  0  0  0  0  0  0  0  0  0
   -3.6799   -2.2675   -1.5842 H   0  0  0  0  0  0  0  0  0  0  0  0
   -2.2749   -2.1750   -0.5463 H   0  0  0  0  0  0  0  0  0  0  0  0
   -4.9878   -2.3544    0.2284 H   0  0  0  0  0  0  0  0  0  0  0  0
   -3.7042   -1.9776    1.3665 H   0  0  0  0  0  0  0  0  0  0  0  0
   -4.4215    0.1331    1.6012 H   0  0  0  0  0  0  0  0  0  0  0  0
   -3.9861    1.9287   -2.0494 H   0  0  0  0  0  0  0  0  0  0  0  0
   -5.2363    2.3822   -0.9027 H   0  0  0  0  0  0  0  0  0  0  0  0
   -5.4258    0.9251   -2.0369 H   0  0  0  0  0  0  0  0  0  0  0  0
    1.9257    1.9529    0.3168 H   0  0  0  0  0  0  0  0  0  0  0  0
    0.7178    2.1150    1.5757 H   0  0  0  0  0  0  0  0  0  0  0  0
   -6.3949   -0.9435    1.4596 H   0  0  0  0  0  0  0  0  0  0  0  0
   -7.7964    0.8127    1.5173 H   0  0  0  0  0  0  0  0  0  0  0  0
   -6.4083    1.8170    1.1029 H   0  0  0  0  0  0  0  0  0  0  0  0
   -7.3092   -1.9736   -0.3108 H   0  0  0  0  0  0  0  0  0  0  0  0
   -6.1393   -1.2709   -1.4223 H   0  0  0  0  0  0  0  0  0  0  0  0
   -7.9849   -0.0628   -2.0786 H   0  0  0  0  0  0  0  0  0  0  0  0
    4.9255   -2.1788   -0.7479 H   0  0  0  0  0  0  0  0  0  0  0  0
    5.7453   -0.6648   -2.4882 H   0  0  0  0  0  0  0  0  0  0  0  0
    6.4335    1.2409   -1.1432 H   0  0  0  0  0  0  0  0  0  0  0  0
    8.4848   -0.6850    0.0844 H   0  0  0  0  0  0  0  0  0  0  0  0
    5.8831    0.4949    1.1002 H   0  0  0  0  0  0  0  0  0  0  0  0
    7.8096    0.4963    2.7270 H   0  0  0  0  0  0  0  0  0  0  0  0
    7.7360   -1.3043    2.7587 H   0  0  0  0  0  0  0  0  0  0  0  0
    6.2820   -0.2700    3.2145 H   0  0  0  0  0  0  0  0  0  0  0  0
    0.6290   -1.0567    2.9842 H   0  0  0  0  0  0  0  0  0  0  0  0
    1.3952    1.9295   -2.1911 H   0  0  0  0  0  0  0  0  0  0  0  0
   -2.1565   -0.3651    2.2130 H   0  0  0  0  0  0  0  0  0  0  0  0
   -4.1376   -0.8928   -2.7365 H   0  0  0  0  0  0  0  0  0  0  0  0
    0.2238    3.7010    0.0786 H   0  0  0  0  0  0  0  0  0  0  0  0
   -9.6917    0.1977   -0.1058 H   0  0  0  0  0  0  0  0  0  0  0  0
    7.5070   -2.2934   -0.9043 H   0  0  0  0  0  0  0  0  0  0  0  0
    8.3960   -0.3587   -2.5053 H   0  0  0  0  0  0  0  0  0  0  0  0
    8.7983    1.8090   -0.1122 H   0  0  0  0  0  0  0  0  0  0  0  0
    0.7769   -1.4434    1.1508 H   0  0  0  0  0  0  0  0  0  0  0  0
    2.8348   -0.8263    2.1166 H   0  0  0  0  0  0  0  0  0  0  0  0
    2.6621    0.8656    1.6446 H   0  0  0  0  0  0  0  0  0  0  0  0
    3.3104   -1.6728    0.0864 H   0  0  0  0  0  0  0  0  0  0  0  0
    2.8443    0.6716   -1.7000 H   0  0  0  0  0  0  0  0  0  0  0  0
    2.6953   -1.0649   -1.9916 H   0  0  0  0  0  0  0  0  0  0  0  0
    0.7903   -1.9144   -2.3871 H   0  0  0  0  0  0  0  0  0  0  0  0
    0.4327   -2.2625   -0.6869 H   0  0  0  0  0  0  0  0  0  0  0  0
   -1.7126   -2.1956   -1.6016 H   0  0  0  0  0  0  0  0  0  0  0  0
   -1.2464   -1.0968   -2.9118 H   0  0  0  0  0  0  0  0  0  0  0  0
   -1.7463    0.8357   -1.8186 H   0  0  0  0  0  0  0  0  0  0  0  0
   -1.4059   -0.4378    0.9093 H   0  0  0  0  0  0  0  0  0  0  0  0
   -1.7221    2.4102   -0.1114 H   0  0  0  0  0  0  0  0  0  0  0  0
   -3.2515    0.8576    1.9080 H   0  0  0  0  0  0  0  0  0  0  0  0
   -3.6668    2.3607    1.1029 H   0  0  0  0  0  0  0  0  0  0  0  0
   -2.4930   -2.0615    0.3290 H   0  0  0  0  0  0  0  0  0  0  0  0
   -3.8725   -2.4346   -0.7164 H   0  0  0  0  0  0  0  0  0  0  0  0
   -5.0403   -2.1265    1.1733 H   0  0  0  0  0  0  0  0  0  0  0  0
   -3.9005   -1.0533    1.9640 H   0  0  0  0  0  0  0  0  0  0  0  0
   -5.5090    0.5175    1.2651 H   0  0  0  0  0  0  0  0  0  0  0  0
   -3.4854    2.5666   -1.1171 H   0  0  0  0  0  0  0  0  0  0  0  0
   -4.2618    1.4369   -2.2146 H   0  0  0  0  0  0  0  0  0  0  0  0
   -5.2117    2.3363   -0.8842 H   0  0  0  0  0  0  0  0  0  0  0  0
    0.9830    2.2935    1.1331 H   0  0  0  0  0  0  0  0  0  0  0  0
    2.0713    1.6957   -0.1154 H   0  0  0  0  0  0  0  0  0  0  0  0
   -5.6982   -1.5635   -1.0103 H   0  0  0  0  0  0  0  0  0  0  0  0
   -6.8254   -1.3507    1.5156 H   0  0  0  0  0  0  0  0  0  0  0  0
   -7.5758   -2.2002    0.0635 H   0  0  0  0  0  0  0  0  0  0  0  0
   -7.5198   -0.6803   -1.9958 H   0  0  0  0  0  0  0  0  0  0  0  0
   -6.5492    0.7716   -2.0921 H   0  0  0  0  0  0  0  0  0  0  0  0
   -7.6935    1.6604   -0.0932 H   0  0  0  0  0  0  0  0  0  0  0  0
    5.1805   -1.9497   -0.0179 H   0  0  0  0  0  0  0  0  0  0  0  0
    6.2121    0.3007   -1.6916 H   0  0  0  0  0  0  0  0  0  0  0  0
    8.3748   -1.1820   -1.8452 H   0  0  0  0  0  0  0  0  0  0  0  0
    9.0802   -0.2381    0.5467 H   0  0  0  0  0  0  0  0  0  0  0  0
    6.4987    1.3015    0.2715 H   0  0  0  0  0  0  0  0  0  0  0  0
    7.5992    2.1076    2.0666 H   0  0  0  0  0  0  0  0  0  0  0  0
    8.5524    0.5859    2.3704 H   0  0  0  0  0  0  0  0  0  0  0  0
    6.8655    0.7467    2.9318 H   0  0  0  0  0  0  0  0  0  0  0  0
   -0.2659   -0.6022    2.7688 H   0  0  0  0  0  0  0  0  0  0  0  0
    1.2940    0.9777   -2.7685 H   0  0  0  0  0  0  0  0  0  0  0  0
   -1.8724    2.4421    2.4425 H   0  0  0  0  0  0  0  0  0  0  0  0
   -3.2022   -0.4688   -2.8924 H   0  0  0  0  0  0  0  0  0  0  0  0
    0.5579    3.5796   -0.5940 H   0  0  0  0  0  0  0  0  0  0  0  0
   -9.6234   -0.0225   -1.3905 H   0  0  0  0  0  0  0  0  0  0  0  0
    6.1675   -1.3957   -3.1747 H   0  0  0  0  0  0  0  0  0  0  0  0
    7.2182   -2.9220   -0.5783 H   0  0  0  0  0  0  0  0  0  0  0  0
    7.8690    1.7162   -1.1900 H   0  0  0  0  0  0  0  0  0  0  0  0
  1  2  1  0
  2  3  1  0
  3  4  1  0
  4  5  1  0
  5  6  1  0
  6  7  1  0
  7  8  1  0
  8  9  1  0
  1 10  1  0
  5 10  1  0
  9 10  1  0
  9 11  1  0
 11 12  1  0
 12 13  1  0
  8 14  1  0
 13 14  1  0
 14 15  1  0
 15 16  1  0
 13 17  1  0
 16 17  1  0
 13 18  1  6
 10 19  1  1
 17 20  1  0
 20 21  1  0
 20 22  1  0
 22 23  1  0
 24 25  1  0
 25 26  1  0
 26 27  1  0
 27 28  1  0
 28 29  1  0
  1 30  1  0
  3 31  1  0
 24 31  1  0
  5 32  1  6
 11 33  1  0
 14 34  1  6
 19 35  1  0
 21 36  1  0
 23 36  1  0
 23 37  1  0
 25 38  1  0
 26 39  1  0
 27 40  1  0
 24 41  1  0
 28 41  1  0
 42 43  1  0
 43 44  1  0
 44 45  1  0
 45 46  1  0
 46 47  1  0
 47 48  1  0
 48 49  1  0
 49 50  1  0
 42 51  1  0
 46 51  1  0
 50 51  1  0
 50 52  1  0
 52 53  1  0
 53 54  1  0
 49 55  1  0
 54 55  1  0
 55 56  1  0
 56 57  1  0
 54 58  1  0
 57 58  1  0
 54 59  1  6
 51 60  1  1
 58 61  1  0
 61 62  1  0
 61 63  1  0
 63 64  1  0
 65 66  1  0
 66 67  1  0
 67 68  1  0
 68 69  1  0
 69 70  1  0
 42 71  1  0
 44 72  1  0
 65 72  1  0
 46 73  1  6
 52 74  1  0
 55 75  1  6
 60 76  1  0
 62 77  1  0
 64 77  1  0
 64 78  1  0
 66 79  1  0
 67 80  1  0
 68 81  1  0
 65 82  1  0
 69 82  1  0
  1 83  1  6
  2 84  1  0
  2 85  1  0
  3 86  1  6
  4 87  1  0
  4 88  1  0
  6 89  1  0
  6 90  1  0
  7 91  1  0
  7 92  1  0
  8 93  1  6
  9 94  1  1
 11 95  1  1
 12 96  1  0
 12 97  1  0
 15 98  1  0
 15 99  1  0
 16100  1  0
 16101  1  0
 17102  1  1
 18103  1  0
 18104  1  0
 18105  1  0
 19106  1  0
 19107  1  0
 20108  1  1
 21109  1  0
 21110  1  0
 22111  1  0
 22112  1  0
 23113  1  0
 24114  1  6
 25115  1  6
 26116  1  1
 27117  1  6
 28118  1  1
 29119  1  0
 29120  1  0
 29121  1  0
 30122  1  0
 32123  1  0
 33124  1  0
 34125  1  0
 35126  1  0
 37127  1  0
 38128  1  0
 39129  1  0
 40130  1  0
 42131  1  6
 43132  1  0
 43133  1  0
 44134  1  1
 45135  1  0
 45136  1  0
 47137  1  0
 47138  1  0
 48139  1  0
 48140  1  0
 49141  1  6
 50142  1  1
 52143  1  6
 53144  1  0
 53145  1  0
 56146  1  0
 56147  1  0
 57148  1  0
 57149  1  0
 58150  1  1
 59151  1  0
 59152  1  0
 59153  1  0
 60154  1  0
 60155  1  0
 61156  1  0
 62157  1  0
 62158  1  0
 63159  1  0
 63160  1  0
 64161  1  0
 65162  1  1
 66163  1  6
 67164  1  6
 68165  1  1
 69166  1  6
 70167  1  0
 70168  1  0
 70169  1  0
 71170  1  0
 73171  1  0
 74172  1  0
 75173  1  0
 76174  1  0
 78175  1  0
 79176  1  0
 80177  1  0
 81178  1  0
M  END
>  <PDBID>  (1) 
3N23

>  <PDB ID>  (1) 
3N23

>  <Generic Name>  (1) 
Ouabain

>  <Brand Name>  (1) 
Strodival

>  <DrugBank ID>  (1) 
DB01092

>  <ATC Codes>  (1) 
C01AC01

>  <Ligand ID>  (1) 
OBN

>  <Target Name>  (1) 
Sodium/potassium-transporting ATPase subunit alpha-1

>  <UniProt ID>  (1) 
P05023

>  <PDB ID.1>  (1) 
3N23

>  <Seq. Identity>  (1) 
95%

$$$$
