PDB_DB01222_00
     RDKit          3D

 73 77  0  0  0  0  0  0  0  0999 V2000
    5.2564   -3.4635    1.9432 C   0  0  0  0  0  0  0  0  0  0  0  0
    5.0627   -1.9808    1.7289 C   0  0  0  0  0  0  0  0  0  0  0  0
    4.1530   -1.7036    0.5508 C   0  0  0  0  0  0  0  0  0  0  0  0
    2.6281    1.4526    0.9698 C   0  0  1  0  0  0  0  0  0  0  0  0
    1.2472    1.4079    1.6254 C   0  0  0  0  0  0  0  0  0  0  0  0
    0.5371    0.4664    0.7221 C   0  0  1  0  0  0  0  0  0  0  0  0
   -0.9570    0.4488    0.8534 C   0  0  2  0  0  0  0  0  0  0  0  0
   -1.3525   -0.3213    2.1278 C   0  0  0  0  0  0  0  0  0  0  0  0
   -2.8014   -0.0970    2.3271 C   0  0  0  0  0  0  0  0  0  0  0  0
   -3.6736   -0.4460    1.1649 C   0  0  0  0  0  0  0  0  0  0  0  0
   -5.1365   -1.2989   -0.9900 C   0  0  0  0  0  0  0  0  0  0  0  0
   -3.6969   -0.9549   -1.2736 C   0  0  0  0  0  0  0  0  0  0  0  0
   -3.1059   -0.0667   -0.1760 C   0  0  2  0  0  0  0  0  0  0  0  0
    0.4445   -0.0043   -1.6401 C   0  0  0  0  0  0  0  0  0  0  0  0
    3.0246    2.2577   -1.3035 C   0  0  0  0  0  0  0  0  0  0  0  0
    3.2028    1.9568   -2.7691 C   0  0  0  0  0  0  0  0  0  0  0  0
    0.3142    2.3641   -0.8992 C   0  0  0  0  0  0  0  0  0  0  0  0
    3.9627   -0.2148    0.3409 C   0  0  2  0  0  0  0  0  0  0  0  0
    3.4014    0.4008    1.4380 O   0  0  0  0  0  0  0  0  0  0  0  0
   -4.0621   -1.9092    1.1143 C   0  0  0  0  0  0  0  0  0  0  0  0
   -5.3478   -1.9911    0.3164 C   0  0  0  0  0  0  0  0  0  0  0  0
   -5.7978   -3.3010    0.1762 O   0  0  0  0  0  0  0  0  0  0  0  0
   -1.6218   -0.2806   -0.2584 C   0  0  1  0  0  0  0  0  0  0  0  0
   -1.0598   -0.0647   -1.6078 C   0  0  1  0  0  0  0  0  0  0  0  0
    0.9058    1.0276   -0.6481 C   0  0  1  0  0  0  0  0  0  0  0  0
    2.3856    1.1457   -0.5201 C   0  0  2  0  0  0  0  0  0  0  0  0
    3.0624   -0.0340   -0.6933 O   0  0  0  0  0  0  0  0  0  0  0  0
    4.3442    2.3617   -0.7782 O   0  0  0  0  0  0  0  0  0  0  0  0
    3.8738    0.7802   -3.0181 O   0  0  0  0  0  0  0  0  0  0  0  0
   -1.5296    1.0129   -2.3175 O   0  0  0  0  0  0  0  0  0  0  0  0
   -3.5452    1.3451   -0.4948 C   0  0  0  0  0  0  0  0  0  0  0  0
    6.2003   -3.6615    2.4981 H   0  0  0  0  0  0  0  0  0  0  0  0
    5.3504   -4.0100    0.9731 H   0  0  0  0  0  0  0  0  0  0  0  0
    4.4369   -3.9124    2.5544 H   0  0  0  0  0  0  0  0  0  0  0  0
    4.6169   -1.5331    2.6412 H   0  0  0  0  0  0  0  0  0  0  0  0
    6.0368   -1.5056    1.5417 H   0  0  0  0  0  0  0  0  0  0  0  0
    3.1542   -2.1572    0.6920 H   0  0  0  0  0  0  0  0  0  0  0  0
    4.6214   -2.1414   -0.3473 H   0  0  0  0  0  0  0  0  0  0  0  0
    3.0969    2.4357    1.1082 H   0  0  0  0  0  0  0  0  0  0  0  0
    1.3655    1.0230    2.6616 H   0  0  0  0  0  0  0  0  0  0  0  0
    0.7876    2.4139    1.6590 H   0  0  0  0  0  0  0  0  0  0  0  0
    1.0032   -0.5283    0.8040 H   0  0  0  0  0  0  0  0  0  0  0  0
   -1.3131    1.4810    1.0351 H   0  0  0  0  0  0  0  0  0  0  0  0
   -1.1727   -1.3901    1.8944 H   0  0  0  0  0  0  0  0  0  0  0  0
   -0.7998    0.0412    2.9928 H   0  0  0  0  0  0  0  0  0  0  0  0
   -3.1446   -0.6972    3.2025 H   0  0  0  0  0  0  0  0  0  0  0  0
   -2.9518    0.9699    2.6315 H   0  0  0  0  0  0  0  0  0  0  0  0
   -4.6196    0.1203    1.3022 H   0  0  0  0  0  0  0  0  0  0  0  0
   -5.7860   -0.4140   -1.1313 H   0  0  0  0  0  0  0  0  0  0  0  0
   -5.4406   -2.0192   -1.7947 H   0  0  0  0  0  0  0  0  0  0  0  0
   -3.0797   -1.8458   -1.4621 H   0  0  0  0  0  0  0  0  0  0  0  0
   -3.6841   -0.3569   -2.2078 H   0  0  0  0  0  0  0  0  0  0  0  0
    0.7178    0.3351   -2.6548 H   0  0  0  0  0  0  0  0  0  0  0  0
    0.9243   -0.9757   -1.4461 H   0  0  0  0  0  0  0  0  0  0  0  0
    2.5781    3.2386   -1.1991 H   0  0  0  0  0  0  0  0  0  0  0  0
    3.8213    2.7793   -3.2463 H   0  0  0  0  0  0  0  0  0  0  0  0
    2.2639    1.9656   -3.3449 H   0  0  0  0  0  0  0  0  0  0  0  0
    0.4119    2.6098   -1.9760 H   0  0  0  0  0  0  0  0  0  0  0  0
   -0.7613    2.4585   -0.6668 H   0  0  0  0  0  0  0  0  0  0  0  0
    0.8036    3.1370   -0.2416 H   0  0  0  0  0  0  0  0  0  0  0  0
    4.9377    0.2741    0.0612 H   0  0  0  0  0  0  0  0  0  0  0  0
   -3.2572   -2.5225    0.6615 H   0  0  0  0  0  0  0  0  0  0  0  0
   -4.3026   -2.2905    2.1434 H   0  0  0  0  0  0  0  0  0  0  0  0
   -6.0956   -1.3712    0.8936 H   0  0  0  0  0  0  0  0  0  0  0  0
   -6.7944   -3.2724    0.3300 H   0  0  0  0  0  0  0  0  0  0  0  0
   -1.4843   -1.3880   -0.0365 H   0  0  0  0  0  0  0  0  0  0  0  0
   -1.3290   -0.9691   -2.2354 H   0  0  0  0  0  0  0  0  0  0  0  0
    4.4455    3.1801   -0.2439 H   0  0  0  0  0  0  0  0  0  0  0  0
    3.1694    0.0752   -3.1699 H   0  0  0  0  0  0  0  0  0  0  0  0
   -1.5937    0.8487   -3.2903 H   0  0  0  0  0  0  0  0  0  0  0  0
   -2.9933    2.1178    0.0761 H   0  0  0  0  0  0  0  0  0  0  0  0
   -4.6071    1.4503   -0.1035 H   0  0  0  0  0  0  0  0  0  0  0  0
   -3.6515    1.5552   -1.5707 H   0  0  0  0  0  0  0  0  0  0  0  0
  1  2  1  0
  2  3  1  0
  4  5  1  0
  5  6  1  0
  6  7  1  0
  7  8  1  0
  8  9  1  0
  9 10  1  0
 11 12  1  0
 10 13  1  0
 12 13  1  0
 15 16  1  0
  3 18  1  0
  4 19  1  0
 18 19  1  0
 10 20  1  0
 11 21  1  0
 20 21  1  0
 21 22  1  0
  7 23  1  0
 13 23  1  0
 14 24  1  0
 23 24  1  0
  6 25  1  0
 14 25  1  0
 25 17  1  6
  4 26  1  0
 26 15  1  6
 25 26  1  0
 18 27  1  0
 26 27  1  0
 15 28  1  0
 16 29  1  0
 24 30  1  0
 13 31  1  6
  1 32  1  0
  1 33  1  0
  1 34  1  0
  2 35  1  0
  2 36  1  0
  3 37  1  0
  3 38  1  0
  4 39  1  6
  5 40  1  0
  5 41  1  0
  6 42  1  6
  7 43  1  1
  8 44  1  0
  8 45  1  0
  9 46  1  0
  9 47  1  0
 10 48  1  0
 11 49  1  0
 11 50  1  0
 12 51  1  0
 12 52  1  0
 14 53  1  0
 14 54  1  0
 15 55  1  0
 16 56  1  0
 16 57  1  0
 17 58  1  0
 17 59  1  0
 17 60  1  0
 18 61  1  6
 20 62  1  0
 20 63  1  0
 21 64  1  0
 22 65  1  0
 23 66  1  1
 24 67  1  6
 28 68  1  0
 29 69  1  0
 30 70  1  0
 31 71  1  0
 31 72  1  0
 31 73  1  0
M  END
>  <PDBID>  (1) 
5NFP

>  <PDB ID>  (1) 
5NFP

>  <Generic Name>  (1) 
Budesonide

>  <Brand Name>  (1) 
Budesonide#Budesonide (enteric Coated)#Budesonide Inhalation#Budesonide Nasal#Childrens Rhinocort Allergy#Cortiment#Entocort#Entocort EC#Entocort Enema#Mylan-budesonide AQ#Pulmicort Flexhaler#Pulmicort Nebuamp 0.125 mg/ml#Pulmicort Nebuamp 0.25 mg/ml#Pulmicort Nebuamp 0.5 mg/ml#Pulmicort Respules#Pulmicort Turbuhaler 100 Mcg/dose#Pulmicort Turbuhaler 200 Mcg/dose#Pulmicort Turbuhaler 400 Mcg/dose#Rhinocort Allergy#Rhinocort Aqua#Rhinocort Aqua 100mcg#Rhinocort Turbuhaler 100 Mcg/dose#Symbicort#Symbicort 100 Turbuhaler#Symbicort 200 Turbuhaler#Symbicort Forte Turbuhaler#Uceris#Bidien#Budeson#Budicort#ENTOCORT#Noex#Pulmicort#Rhinocort#Rhinosol#Spirocort

>  <DrugBank ID>  (1) 
DB01222

>  <ATC Codes>  (1) 
R03AK07#A07EA06#R03BA02#D07AC09#R03AK12#R01AD05

>  <Ligand ID>  (1) 
8W5

>  <Target Name>  (1) 
Glucocorticoid receptor

>  <UniProt ID>  (1) 
P04150

>  <PDB ID.1>  (1) 
5NFP

>  <Seq. Identity>  (1) 
98%

$$$$
