PDB_DB01606_00
     RDKit          3D

 42 44  0  0  0  0  0  0  0  0999 V2000
   -1.2654   -1.5187   -1.2629 S   0  0  0  0  0  0  0  0  0  0  0  0
    0.2349   -0.3626   -0.2890 C   0  0  1  0  0  0  0  0  0  0  0  0
   -0.8799    0.4591    0.1821 C   0  0  2  0  0  0  0  0  0  0  0  0
   -2.1568   -1.5056    0.1638 C   0  0  2  0  0  0  0  0  0  0  0  0
   -3.4370   -0.7557    0.2527 C   0  0  0  0  0  0  0  0  0  0  0  0
   -2.8545   -0.1564    1.5445 C   0  0  2  0  0  0  0  0  0  0  0  0
   -0.6061    1.6774    0.9765 C   0  0  0  0  0  0  0  0  0  0  0  0
   -1.5676   -0.4900    1.0632 N   0  0  0  0  0  0  0  0  0  0  0  0
    0.6093   -1.5242    0.5767 C   0  0  0  0  0  0  0  0  0  0  0  0
    1.0266   -0.1183   -1.4581 C   0  0  0  0  0  0  0  0  0  0  0  0
    3.7024    0.7730    0.4093 C   0  0  0  0  0  0  0  0  0  0  0  0
    3.3055   -0.1363   -0.7207 C   0  0  0  0  0  0  0  0  0  0  0  0
    2.2432    0.5875   -1.4219 N   0  0  0  0  0  0  0  0  0  0  0  0
    2.3389    1.8660   -1.0561 N   0  0  0  0  0  0  0  0  0  0  0  0
    3.1214    2.0418    0.0621 N   0  0  0  0  0  0  0  0  0  0  0  0
   -1.8677   -0.1509   -2.4630 O   0  0  0  0  0  0  0  0  0  0  0  0
   -0.5198   -2.6804   -2.0672 O   0  0  0  0  0  0  0  0  0  0  0  0
   -3.1593   -0.9792    2.6604 O   0  0  0  0  0  0  0  0  0  0  0  0
    0.2198    1.5344    2.0565 O   0  0  0  0  0  0  0  0  0  0  0  0
   -0.2155    2.7574    0.2029 O   0  0  0  0  0  0  0  0  0  0  0  0
   -1.6053    0.7174   -0.6292 H   0  0  0  0  0  0  0  0  0  0  0  0
   -2.2023   -2.4873    0.6632 H   0  0  0  0  0  0  0  0  0  0  0  0
   -3.6085   -0.0087   -0.5266 H   0  0  0  0  0  0  0  0  0  0  0  0
   -4.3395   -1.3411    0.5007 H   0  0  0  0  0  0  0  0  0  0  0  0
   -3.1243    0.8896    1.7001 H   0  0  0  0  0  0  0  0  0  0  0  0
   -1.5932    2.0485    1.4363 H   0  0  0  0  0  0  0  0  0  0  0  0
   -0.3010   -1.9078    1.0742 H   0  0  0  0  0  0  0  0  0  0  0  0
    0.9464   -2.3470   -0.1005 H   0  0  0  0  0  0  0  0  0  0  0  0
    1.3153   -1.2418    1.3487 H   0  0  0  0  0  0  0  0  0  0  0  0
    1.2604   -1.0635   -2.0690 H   0  0  0  0  0  0  0  0  0  0  0  0
    0.3667    0.4328   -2.2155 H   0  0  0  0  0  0  0  0  0  0  0  0
    3.2561    0.4037    1.3796 H   0  0  0  0  0  0  0  0  0  0  0  0
    4.8113    0.8670    0.5347 H   0  0  0  0  0  0  0  0  0  0  0  0
    4.1971   -0.2669   -1.3944 H   0  0  0  0  0  0  0  0  0  0  0  0
    2.9953   -1.1390   -0.4232 H   0  0  0  0  0  0  0  0  0  0  0  0
    2.5724    2.4979   -1.8539 H   0  0  0  0  0  0  0  0  0  0  0  0
    2.5317    2.4456    0.8218 H   0  0  0  0  0  0  0  0  0  0  0  0
   -2.4197   -0.7365   -3.0209 H   0  0  0  0  0  0  0  0  0  0  0  0
   -0.6076   -3.6070   -1.7641 H   0  0  0  0  0  0  0  0  0  0  0  0
   -2.4200   -0.9121    3.3259 H   0  0  0  0  0  0  0  0  0  0  0  0
    0.5218    2.4579    2.3328 H   0  0  0  0  0  0  0  0  0  0  0  0
   -0.8256    2.9799   -0.5324 H   0  0  0  0  0  0  0  0  0  0  0  0
  1  2  1  0
  2  3  1  0
  1  4  1  0
  4  5  1  0
  5  6  1  0
  3  7  1  0
  3  8  1  0
  4  8  1  0
  6  8  1  0
  2  9  1  1
  2 10  1  0
 11 12  1  0
 10 13  1  0
 12 13  1  0
 13 14  1  0
 11 15  1  0
 14 15  1  0
  1 16  1  0
  1 17  1  0
  6 18  1  0
  7 19  1  0
  7 20  1  0
  3 21  1  6
  4 22  1  1
  5 23  1  0
  5 24  1  0
  6 25  1  1
  7 26  1  0
  9 27  1  0
  9 28  1  0
  9 29  1  0
 10 30  1  0
 10 31  1  0
 11 32  1  0
 11 33  1  0
 12 34  1  0
 12 35  1  0
 14 36  1  0
 15 37  1  0
 16 38  1  0
 17 39  1  0
 18 40  1  0
 19 41  1  0
 20 42  1  0
M  END
>  <PDBID>  (1) 
1VM1

>  <PDB ID>  (1) 
1VM1

>  <Generic Name>  (1) 
Tazobactam

>  <Brand Name>  (1) 
Jamp-pip/taz#Mylan-piperacillin and Tazobactam for Injection#Piperacillin / Tazobactam Powder for Injection#Piperacillin Sodium/tazobactam Sodium Powder for Injection#Piperacillin and Tazobactam#Piperacillin and Tazobactam for Injection#Piperacillin, Tazobactam#Piperacillin/tazobactam for Injection#Tazocin#Tazocin Pws IV 2g Piperacillin-.25g Tazobac.#Tazocin Pws IV 3g Piperacillin-.375g Tazobac#Tazocin Pws IV 4g Piperacillin-.5g Tazobac.#Vpi-piperacillin and Tazobactam for Injection#Zerbaxa#Zosyn#Zosyn In Galaxy Containers#Zosyn Pharmacy Bulk Package

>  <DrugBank ID>  (1) 
DB01606

>  <ATC Codes>  (1) 
J01CG02

>  <Ligand ID>  (1) 
TAZ

>  <Target Name>  (1) 
Beta-lactamase TEM

>  <UniProt ID>  (1) 
P62594

>  <PDB ID.1>  (1) 
1VM1

>  <Seq. Identity>  (1) 
66%

$$$$
