PDB_DB00181_04
     RDKit          3D

 34 34  0  0  0  0  0  0  0  0999 V2000
    2.8385    0.5840    2.2854 Cl  0  0  0  0  0  0  0  0  0  0  0  0
    3.0262   -0.2059    0.6822 C   0  0  0  0  0  0  0  0  0  0  0  0
    2.6934    0.7989   -0.3966 C   0  0  0  0  0  0  0  0  0  0  0  0
    1.2838    1.3532   -0.1303 C   0  0  0  0  0  0  0  0  0  0  0  0
    2.0087   -1.3451    0.6209 C   0  0  0  0  0  0  0  0  0  0  0  0
    0.6556   -0.6953    0.9030 C   0  0  0  0  0  0  0  0  0  0  0  0
    0.3469    0.1331   -0.3204 C   0  0  0  0  0  0  0  0  0  0  0  0
   -1.0527    0.5762   -0.4565 C   0  0  2  0  0  0  0  0  0  0  0  0
   -1.6182    1.3054    0.7531 C   0  0  0  0  0  0  0  0  0  0  0  0
   -0.8819    2.5124    1.0733 N   0  0  0  0  0  0  0  0  0  0  0  0
   -2.0132   -0.2545   -1.2019 C   0  0  0  0  0  0  0  0  0  0  0  0
   -2.2790   -1.6421   -0.7694 C   0  0  0  0  0  0  0  0  0  0  0  0
   -3.2637   -2.1450   -1.6761 O   0  0  0  0  0  0  0  0  0  0  0  0
   -1.2056   -2.5132   -0.9566 O   0  0  0  0  0  0  0  0  0  0  0  0
    4.0507   -0.5628    0.6082 H   0  0  0  0  0  0  0  0  0  0  0  0
    3.3956    1.6478   -0.2697 H   0  0  0  0  0  0  0  0  0  0  0  0
    2.7444    0.3160   -1.3796 H   0  0  0  0  0  0  0  0  0  0  0  0
    1.0828    2.1465   -0.8424 H   0  0  0  0  0  0  0  0  0  0  0  0
    1.3183    1.6654    0.9313 H   0  0  0  0  0  0  0  0  0  0  0  0
    2.2415   -2.1354    1.3385 H   0  0  0  0  0  0  0  0  0  0  0  0
    2.0324   -1.7116   -0.4359 H   0  0  0  0  0  0  0  0  0  0  0  0
    0.8797    0.0024    1.7722 H   0  0  0  0  0  0  0  0  0  0  0  0
   -0.0396   -1.4668    1.1692 H   0  0  0  0  0  0  0  0  0  0  0  0
    0.7363   -0.3974   -1.1996 H   0  0  0  0  0  0  0  0  0  0  0  0
   -0.9228    1.5017   -1.1848 H   0  0  0  0  0  0  0  0  0  0  0  0
   -2.6570    1.5922    0.5831 H   0  0  0  0  0  0  0  0  0  0  0  0
   -1.5990    0.6665    1.6588 H   0  0  0  0  0  0  0  0  0  0  0  0
   -1.4775    3.3837    0.9425 H   0  0  0  0  0  0  0  0  0  0  0  0
   -0.5914    2.5436    2.0896 H   0  0  0  0  0  0  0  0  0  0  0  0
   -1.7749   -0.2600   -2.3029 H   0  0  0  0  0  0  0  0  0  0  0  0
   -3.0366    0.2455   -1.2035 H   0  0  0  0  0  0  0  0  0  0  0  0
   -2.6825   -1.7933    0.2284 H   0  0  0  0  0  0  0  0  0  0  0  0
   -2.8277   -2.5155   -2.4799 H   0  0  0  0  0  0  0  0  0  0  0  0
   -1.4112   -3.3305   -0.4337 H   0  0  0  0  0  0  0  0  0  0  0  0
  1  2  1  0
  2  3  1  0
  3  4  1  0
  2  5  1  0
  5  6  1  0
  4  7  1  0
  6  7  1  0
  7  8  1  0
  8  9  1  0
  9 10  1  0
  8 11  1  0
 11 12  1  0
 12 13  1  0
 12 14  1  0
  2 15  1  0
  3 16  1  0
  3 17  1  0
  4 18  1  0
  4 19  1  0
  5 20  1  0
  5 21  1  0
  6 22  1  0
  6 23  1  0
  7 24  1  0
  8 25  1  6
  9 26  1  0
  9 27  1  0
 10 28  1  0
 10 29  1  0
 11 30  1  0
 11 31  1  0
 12 32  1  0
 13 33  1  0
 14 34  1  0
M  END
>  <PDBID>  (1) 
4MS4

>  <PDB ID>  (1) 
4MS4

>  <Generic Name>  (1) 
Baclofen

>  <Brand Name>  (1) 
Apo-baclofen Tablets - 10mg#Apo-baclofen Tablets - 20mg#Ava-baclofen#Baclofen#Baclofen Injection#Baclofen Tablets - 10mg#Baclofen Tablets - 20mg#Baclofen Tablets 10mg#Baclofen Tablets 20mg#Baclofen-10 - Tab#Baclofen-20 - Tab#Co Baclofen Tablets 10mg#Co Baclofen Tablets 20mg#Dom-baclofen-tab 10mg#Dom-baclofen-tab 20mg#Equipto - Baclofen External Cream Compounding Kit#Ftp-baclofen#Gablofen#Gapeam Budibac#Lioresal#Lioresal D.S. Tab 20mg#Lioresal Intrathecal 0.05mg/ml#Lioresal Intrathecal 0.5mg/ml#Lioresal Intrathecal 2mg/ml#Lioresal Tab 10mg#Med Baclofen Tab 10mg#Med Baclofen Tab 20mg#Mylan-baclofen#Novo-baclofen#PHL-baclofen#PMS-baclofen#PMS-baclofen Tab 20mg#Penta-baclofen Tablets#Ratio-baclofen#Riva-baclofen#Sandoz Baclofen#Val-baclofen Intrathecal#Baclon#Kemstro#Lioresal Intrathecal#Nu-Baclofen

>  <DrugBank ID>  (1) 
DB00181

>  <ATC Codes>  (1) 
M03BX01

>  <Ligand ID>  (1) 
2C0

>  <Target Name>  (1) 
Gamma-aminobutyric acid type B receptor subunit 1

>  <UniProt ID>  (1) 
Q9UBS5

>  <PDB ID.1>  (1) 
4MS4

>  <Seq. Identity>  (1) 
34%

$$$$
