PDB_DB00668_07
     RDKit          3D

 32 32  0  0  0  0  0  0  0  0999 V2000
   -0.0972    0.1829    0.5958 C   0  0  0  0  0  0  0  0  0  0  0  0
   -0.9642   -0.9939    0.9208 C   0  0  0  0  0  0  0  0  0  0  0  0
   -2.1710   -1.1961    0.1141 C   0  0  0  0  0  0  0  0  0  0  0  0
   -2.6973   -0.0758   -0.6794 C   0  0  0  0  0  0  0  0  0  0  0  0
   -1.7133    0.9329   -1.1506 C   0  0  0  0  0  0  0  0  0  0  0  0
   -0.8438    1.3357    0.0054 C   0  0  0  0  0  0  0  0  0  0  0  0
   -3.2159   -1.6078    0.9840 O   0  0  0  0  0  0  0  0  0  0  0  0
   -3.6931    0.6134    0.0524 O   0  0  0  0  0  0  0  0  0  0  0  0
    0.7992   -0.8544   -1.4119 O   0  0  0  0  0  0  0  0  0  0  0  0
    4.0077   -0.4787    0.0756 C   0  0  0  0  0  0  0  0  0  0  0  0
    3.3350    0.4155   -0.8474 N   0  0  0  0  0  0  0  0  0  0  0  0
    2.0736    0.8813   -0.2963 C   0  0  0  0  0  0  0  0  0  0  0  0
    1.1057   -0.2574   -0.2129 C   0  0  1  0  0  0  0  0  0  0  0  0
    0.3537    0.5750    1.5602 H   0  0  0  0  0  0  0  0  0  0  0  0
   -0.3046   -1.9088    0.8313 H   0  0  0  0  0  0  0  0  0  0  0  0
   -1.2001   -0.9665    2.0260 H   0  0  0  0  0  0  0  0  0  0  0  0
   -2.0541   -2.0840   -0.5782 H   0  0  0  0  0  0  0  0  0  0  0  0
   -3.2424   -0.4549   -1.5902 H   0  0  0  0  0  0  0  0  0  0  0  0
   -2.2977    1.8579   -1.4297 H   0  0  0  0  0  0  0  0  0  0  0  0
   -1.1799    0.6324   -2.0479 H   0  0  0  0  0  0  0  0  0  0  0  0
   -0.1539    2.1315   -0.2701 H   0  0  0  0  0  0  0  0  0  0  0  0
   -1.5309    1.7144    0.8025 H   0  0  0  0  0  0  0  0  0  0  0  0
   -3.0809   -1.0288    1.7931 H   0  0  0  0  0  0  0  0  0  0  0  0
   -4.3318   -0.0818    0.3289 H   0  0  0  0  0  0  0  0  0  0  0  0
    1.0388   -0.2694   -2.1797 H   0  0  0  0  0  0  0  0  0  0  0  0
    3.8419   -1.5252   -0.2602 H   0  0  0  0  0  0  0  0  0  0  0  0
    3.6493   -0.3541    1.1156 H   0  0  0  0  0  0  0  0  0  0  0  0
    5.0956   -0.2689    0.0325 H   0  0  0  0  0  0  0  0  0  0  0  0
    3.9590    1.2459   -1.0313 H   0  0  0  0  0  0  0  0  0  0  0  0
    1.6735    1.6401   -0.9856 H   0  0  0  0  0  0  0  0  0  0  0  0
    2.2296    1.2865    0.7066 H   0  0  0  0  0  0  0  0  0  0  0  0
    1.6094   -1.0388    0.4297 H   0  0  0  0  0  0  0  0  0  0  0  0
  1  2  1  0
  2  3  1  0
  3  4  1  0
  4  5  1  0
  1  6  1  0
  5  6  1  0
  3  7  1  0
  4  8  1  0
 10 11  1  0
 11 12  1  0
  1 13  1  0
  9 13  1  0
 12 13  1  0
  1 14  1  0
  2 15  1  0
  2 16  1  0
  3 17  1  0
  4 18  1  0
  5 19  1  0
  5 20  1  0
  6 21  1  0
  6 22  1  0
  7 23  1  0
  8 24  1  0
  9 25  1  0
 10 26  1  0
 10 27  1  0
 10 28  1  0
 11 29  1  0
 12 30  1  0
 12 31  1  0
 13 32  1  1
M  END
>  <PDBID>  (1) 
4LDO

>  <PDB ID>  (1) 
4LDO

>  <Generic Name>  (1) 
Epinephrine

>  <Brand Name>  (1) 
2% Lidocaine and Epinephrine 1:100,000 Injection USP#4% Astracaine Dental With Epinephrine 1:200,000 (0.005mg/ml)#4% Astracaine Dental With Epinephrine Forte 1:100,000 (0.01mg/ml)#4% Citanest Forte Dental With Epinephrine 1:200,000#Adrenaclick#Adrenaclick 0.15mg Auto-injector#Adrenaclick 0.30mg Auto-injector#Adrenalin#Adrenalin Chloride Sol 1:1000#Adrenalin Chloride Sol 1:1000 Amp#Adyphren Amp II Kit#Adyphren Amp Kit#Adyphren II Kit#Allerject#Ana-kit#Ana-kit (2mg/tab Orl, 1mg/ml Liq Sc Im)#Anakit Insect Sting Treatment Kit#Anapen#Anapen Junior#Articadent#Articaine#Articaine HCl and Epinephrine#Articaine Hydrochloride and Epinephrine#Auvi-Q#Bronkaid Mistometer Aem 0.5%#Bupivacaine HCl 0.5% and Epinephrine 1:200,000 Injection#Bupivacaine Hydrochloride and Epinephrine#Citanest Forte#Dentsply 2% Lidocaine With Epinephrine 1:100,000#Dentsply 2% Lidocaine With Epinephrine 1:50,000#Dentsply 4% Prilocaine and Epinephrine Injection 1:200,000#Dysne Inhal#E-pilo 1 Ophthalmic Solution#E-pilo 2 Ophthalmic Solution#E-pilo 4 Ophthalmic Solution#E-pilo 6 Ophthalmic Solution#E-pilo-1 Oph Soln#E-pilo-2 Oph Soln#E-pilo-4 Oph Soln#E-pilo-6 Oph Soln#Ephinephrine#Epi E-Z Pen  -  Liquid - 0.3mg/0.3ml#Epinephrine#Epinephrine 1:1000 Inj 1mg/ml USP#Epinephrine Inj 0.1mg/ml USP#Epinephrine Inj 1mg/ml USP#Epinephrine Injection#Epinephrine Injection USP#Epinephrine Injection USP 1 mg/ml#Epipen#Epipen Jr#Episnap Epinephrine Convenience Kit#Gingi Pak Cord No 1#Karticaine#Karticaine Forte#Lidocaine#Lidocaine 2% and Epinephrine 1:100 000#Lidocaine 2% and Epinephrine 1:100,000#Lidocaine 2% and Epinephrine 1:100,000 Injection#Lidocaine 2% and Epinephrine 1:50 000#Lidocaine 2% and Epinephrine 1:50,000#Lidocaine HCl#Lidocaine Hydrochloride 0.5% and Epinephrine 1:200000 Injection USP#Lidocaine Hydrochloride 1% and Epinephrine 1:100 000 Injection USP#Lidocaine Hydrochloride 1.5% and Epinephrine 1:200000 Injection USP#Lidocaine Hydrochloride 1.5% and Epinephrine 1:200000 Injection USP Test Dose#Lidocaine Hydrochloride 2% and Epinephrine 1:100 000 Injection USP#Lidocaine Hydrochloride 2% and Epinephrine 1:200000 Injection USP#Lidocaine Hydrochloride and Epinephrine#Lidocaine Hydrochloride and Epinephrine Bitartrate#Lidocaine and Epinephrine Inj.usp 2% 1:100000#Lignospan Forte#Lignospan Speciale Inj#Lignospan Standard#Marcaine#Marcaine 0.5% and Epinephrine 1:200,000 Liq#Marcaine E 0.25% Liq Prt#Marcaine E 2.5 mg/ml#Marcaine E 5.0 mg/ml#Marcaine E Liq Prt 0.50%#Marcaine With Epinephrine#Numbing Hemorrhoidal Label#Numquick Analgesic#Numquick Topical Analgesic#Octocaine 100#Octocaine 100 Needleject Inj#Octocaine 50#Octocaine HCl 2% Epinephrine 1:100000#Octocaine HCl 2% Epinephrine 1:50000#Orabloc#Orabloc 1:100,000#Orabloc 1:200,000#Posicaine N#Posicaine Sp#Prilocaine HCl 4% Epineph 1:200000inj#Prilocaine Hydrochloride With Epinephrine#Prime Asthma Relief#Scandonest 2% Special Inj#Sensorcaine#Sensorcaine 0.25% With Epinephrine#Sensorcaine 0.5% With Epinephrine#Sensorcaine Forte#Sensorcaine Mpf#Septanest N#Septanest Sp#Septocaine and Epinephrine#Taro-epinephrine Auto-injector#Twinject 0.15mg Auto-injector#Twinject 0.3mg Auto-injector#Ultracaine D-S Forte Injection#Ultracaine D-S Injection#Ultracaine DS Forte Inj#Ultracaine DS Inj#Vivacaine#Xylocaine#Xylocaine 0.5% W Epinephrine 1:100000#Xylocaine 0.5% W Epinephrine 1:200000#Xylocaine 1% W Epinephrine 1:100000#Xylocaine 1% W Epinephrine 1:200000#Xylocaine 1.5% W Epinephrine 1:200000#Xylocaine 1.5% W Epinephrine 1:200000 Test Dose#Xylocaine 2% W Epinephrine 1:100000#Xylocaine 2% W Epinephrine 1:200000#Xylocaine Dental Lidocaine HCl 2% and Epinephrine 1:100,000#Xylocaine Dental Lidocaine Hydrochloride 2% and Epinephrine 1:50,000#Xylocaine Mpf#Xylocaine Mpf 1.5% With Epinephrine#Zorcaine#Epi EZ Pen JR#Medihaler-Epi#Twinject

>  <DrugBank ID>  (1) 
DB00668

>  <ATC Codes>  (1) 
R03AK01#R01AA14#S01EA51#C01CA24#R03AA01#S01EA01#A01AD01#B02BC09

>  <Ligand ID>  (1) 
ALE

>  <Target Name>  (1) 
Beta-1 adrenergic receptor

>  <UniProt ID>  (1) 
P08588

>  <PDB ID.1>  (1) 
4LDO

>  <Seq. Identity>  (1) 
54%

$$$$
