PDB_DB00715_02
     RDKit          3D

 56 59  0  0  0  0  0  0  0  0999 V2000
   -5.4107    2.7315    0.9052 F   0  0  0  0  0  0  0  0  0  0  0  0
   -4.6246    0.4668    1.1015 C   0  0  0  0  0  0  0  0  0  0  0  0
   -3.0593    2.3399    0.5804 C   0  0  0  0  0  0  0  0  0  0  0  0
    2.7109    1.6446   -1.4818 C   0  0  0  0  0  0  0  0  0  0  0  0
   -4.1417   -0.0144   -0.2542 C   0  0  0  0  0  0  0  0  0  0  0  0
   -2.1604    1.1002    0.6445 C   0  0  0  0  0  0  0  0  0  0  0  0
    3.6634    2.2813   -0.4946 C   0  0  0  0  0  0  0  0  0  0  0  0
    3.0042   -0.6026   -0.3902 C   0  0  0  0  0  0  0  0  0  0  0  0
   -1.5068   -3.2145    0.9649 C   0  0  0  0  0  0  0  0  0  0  0  0
   -2.2280   -1.8783    0.9130 C   0  0  0  0  0  0  0  0  0  0  0  0
    0.0287   -2.5270   -0.6687 C   0  0  0  0  0  0  0  0  0  0  0  0
    6.0137    0.3341    1.1948 C   0  0  0  0  0  0  0  0  0  0  0  0
   -0.0363   -0.2810   -1.7221 C   0  0  0  0  0  0  0  0  0  0  0  0
   -0.1007   -3.1005    0.6587 N   0  0  0  0  0  0  0  0  0  0  0  0
    1.3076   -0.1892   -1.9355 O   0  0  0  0  0  0  0  0  0  0  0  0
    5.3522    1.5523    1.0768 O   0  0  0  0  0  0  0  0  0  0  0  0
    5.1308   -0.6558    0.7619 O   0  0  0  0  0  0  0  0  0  0  0  0
   -4.3455    1.9425    1.2938 C   0  0  0  0  0  0  0  0  0  0  0  0
    2.0456    0.4089   -0.9282 C   0  0  0  0  0  0  0  0  0  0  0  0
   -2.6557    0.1511   -0.4157 C   0  0  0  0  0  0  0  0  0  0  0  0
    4.1040    1.3175    0.5707 C   0  0  0  0  0  0  0  0  0  0  0  0
    4.3470   -0.0132   -0.1610 C   0  0  0  0  0  0  0  0  0  0  0  0
   -0.4641   -1.0790   -0.5401 C   0  0  1  0  0  0  0  0  0  0  0  0
   -1.9579   -1.1645   -0.4139 C   0  0  1  0  0  0  0  0  0  0  0  0
   -4.1824   -0.1043    1.9160 H   0  0  0  0  0  0  0  0  0  0  0  0
   -5.7264    0.3415    1.1089 H   0  0  0  0  0  0  0  0  0  0  0  0
   -2.5875    3.1873    1.0851 H   0  0  0  0  0  0  0  0  0  0  0  0
   -3.2522    2.5899   -0.4906 H   0  0  0  0  0  0  0  0  0  0  0  0
    3.1808    1.4526   -2.4686 H   0  0  0  0  0  0  0  0  0  0  0  0
    1.9052    2.3885   -1.6598 H   0  0  0  0  0  0  0  0  0  0  0  0
   -4.7230    0.5266   -1.0545 H   0  0  0  0  0  0  0  0  0  0  0  0
   -4.4548   -1.0702   -0.3573 H   0  0  0  0  0  0  0  0  0  0  0  0
   -2.2924    0.7040    1.6748 H   0  0  0  0  0  0  0  0  0  0  0  0
   -1.1127    1.3756    0.5365 H   0  0  0  0  0  0  0  0  0  0  0  0
    4.5522    2.6207   -1.0614 H   0  0  0  0  0  0  0  0  0  0  0  0
    3.2311    3.1698    0.0072 H   0  0  0  0  0  0  0  0  0  0  0  0
    3.1411   -1.4745   -1.0829 H   0  0  0  0  0  0  0  0  0  0  0  0
    2.6476   -1.0520    0.5762 H   0  0  0  0  0  0  0  0  0  0  0  0
   -2.0253   -3.9227    0.2788 H   0  0  0  0  0  0  0  0  0  0  0  0
   -1.6402   -3.5943    1.9998 H   0  0  0  0  0  0  0  0  0  0  0  0
   -3.2960   -2.1064    0.9446 H   0  0  0  0  0  0  0  0  0  0  0  0
   -1.8540   -1.2846    1.7514 H   0  0  0  0  0  0  0  0  0  0  0  0
   -0.7428   -3.0420   -1.3122 H   0  0  0  0  0  0  0  0  0  0  0  0
    1.0293   -2.6001   -1.0912 H   0  0  0  0  0  0  0  0  0  0  0  0
    6.3518    0.1148    2.2177 H   0  0  0  0  0  0  0  0  0  0  0  0
    6.9209    0.2986    0.5340 H   0  0  0  0  0  0  0  0  0  0  0  0
   -0.5086    0.7218   -1.6912 H   0  0  0  0  0  0  0  0  0  0  0  0
   -0.4701   -0.7763   -2.6321 H   0  0  0  0  0  0  0  0  0  0  0  0
    0.3101   -2.4448    1.3671 H   0  0  0  0  0  0  0  0  0  0  0  0
   -4.2040    2.1137    2.3845 H   0  0  0  0  0  0  0  0  0  0  0  0
    1.3813    0.7200   -0.0949 H   0  0  0  0  0  0  0  0  0  0  0  0
   -2.5075    0.6694   -1.3945 H   0  0  0  0  0  0  0  0  0  0  0  0
    3.3306    1.1946    1.3425 H   0  0  0  0  0  0  0  0  0  0  0  0
    4.9108    0.1916   -1.0923 H   0  0  0  0  0  0  0  0  0  0  0  0
    0.0092   -0.6784    0.3696 H   0  0  0  0  0  0  0  0  0  0  0  0
   -2.3384   -1.7811   -1.2318 H   0  0  0  0  0  0  0  0  0  0  0  0
  2  5  1  0
  3  6  1  0
  4  7  1  0
  9 10  1  0
  9 14  1  0
 11 14  1  0
 13 15  1  0
 12 16  1  0
 12 17  1  0
  1 18  1  0
  2 18  1  0
  3 18  1  0
  4 19  1  0
  8 19  1  0
 15 19  1  0
  5 20  1  0
  6 20  1  0
  7 21  1  0
 16 21  1  0
  8 22  1  0
 17 22  1  0
 21 22  1  0
 11 23  1  0
 13 23  1  0
 10 24  1  0
 20 24  1  0
 23 24  1  0
  2 25  1  0
  2 26  1  0
  3 27  1  0
  3 28  1  0
  4 29  1  0
  4 30  1  0
  5 31  1  0
  5 32  1  0
  6 33  1  0
  6 34  1  0
  7 35  1  0
  7 36  1  0
  8 37  1  0
  8 38  1  0
  9 39  1  0
  9 40  1  0
 10 41  1  0
 10 42  1  0
 11 43  1  0
 11 44  1  0
 12 45  1  0
 12 46  1  0
 13 47  1  0
 13 48  1  0
 14 49  1  0
 18 50  1  0
 19 51  1  0
 20 52  1  0
 21 53  1  0
 22 54  1  0
 23 55  1  1
 24 56  1  6
M  END
>  <PDBID>  (1) 
5I6X

>  <PDB ID>  (1) 
5I6X

>  <Generic Name>  (1) 
Paroxetine

>  <Brand Name>  (1) 
Act Paroxetine#Apo-paroxetine#Auro-paroxetine#Bio-paroxetine#Brisdelle#Dom-paroxetine#Ipg-paroxetine#Jamp-paroxetine#Mar-paroxetine#Mint-paroxetine#Mylan-paroxetine#Ntp-paroxetine#Nu-paroxetine#PMS-paroxetine#Paroxetine#Paroxetine Hydrochloride#Paroxetine Hydrochloride Anhydrous#Paroxetine-10#Paroxetine-20#Paroxetine-30#Paxil#Paxil CR#Paxil Tab 10mg#Paxil Tab 20mg#Paxil Tab 30mg#Paxilcr CR#Pexeva#Priva-paroxetine#Q-paroxetine#Ratio-paroxetine#Riva-paroxetine#Sandoz Paroxetine#Sandoz Paroxetine Tablets#Teva-paroxetine#Aropax#PAXILCR#Sereupin#Seroxat#Seroxat CR

>  <DrugBank ID>  (1) 
DB00715

>  <ATC Codes>  (1) 
N06AB05

>  <Ligand ID>  (1) 
8PR

>  <Target Name>  (1) 
Sodium-dependent serotonin transporter

>  <UniProt ID>  (1) 
P31645

>  <PDB ID.1>  (1) 
5I6X

>  <Seq. Identity>  (1) 
99%

$$$$
