PDB_DB00540_07
     RDKit          3D

 55 57  0  0  0  0  0  0  0  0999 V2000
    5.8169    0.2883    1.5470 C   0  0  0  0  0  0  0  0  0  0  0  0
    4.8252   -0.1369    0.6129 N   0  0  0  0  0  0  0  0  0  0  0  0
    3.5651    0.5386    0.9005 C   0  0  0  0  0  0  0  0  0  0  0  0
    2.5115    0.0596   -0.1253 C   0  0  0  0  0  0  0  0  0  0  0  0
    1.2653    0.7731    0.2144 C   0  0  0  0  0  0  0  0  0  0  0  0
    0.0515    0.5253   -0.6097 C   0  0  0  0  0  0  0  0  0  0  0  0
   -1.0769    1.3877   -0.0503 C   0  0  0  0  0  0  0  0  0  0  0  0
   -1.0337    2.7820   -0.6466 C   0  0  0  0  0  0  0  0  0  0  0  0
   -2.1958    3.0460   -1.5888 C   0  0  0  0  0  0  0  0  0  0  0  0
   -3.4846    3.0624   -0.7999 C   0  0  0  0  0  0  0  0  0  0  0  0
   -0.3669   -0.8756   -0.8145 C   0  0  0  0  0  0  0  0  0  0  0  0
    0.4731   -1.7162   -1.7240 C   0  0  0  0  0  0  0  0  0  0  0  0
    0.8094   -3.0868   -1.1689 C   0  0  0  0  0  0  0  0  0  0  0  0
   -0.5461   -3.7473   -0.9194 C   0  0  0  0  0  0  0  0  0  0  0  0
   -1.1843   -3.0036    0.2009 C   0  0  0  0  0  0  0  0  0  0  0  0
   -0.6787   -1.6274    0.4468 C   0  0  0  0  0  0  0  0  0  0  0  0
   -1.7490   -0.9390    1.2747 C   0  0  0  0  0  0  0  0  0  0  0  0
   -2.8505   -0.3635    0.4650 C   0  0  0  0  0  0  0  0  0  0  0  0
   -2.4466    0.8700   -0.2317 C   0  0  0  0  0  0  0  0  0  0  0  0
   -3.3712    2.0144    0.2578 C   0  0  0  0  0  0  0  0  0  0  0  0
    5.6719   -0.1945    2.5381 H   0  0  0  0  0  0  0  0  0  0  0  0
    5.8709    1.3827    1.5940 H   0  0  0  0  0  0  0  0  0  0  0  0
    6.8128   -0.0631    1.1704 H   0  0  0  0  0  0  0  0  0  0  0  0
    4.7221   -1.1694    0.6074 H   0  0  0  0  0  0  0  0  0  0  0  0
    3.7386    1.6209    0.8096 H   0  0  0  0  0  0  0  0  0  0  0  0
    3.2734    0.2427    1.9251 H   0  0  0  0  0  0  0  0  0  0  0  0
    2.4887   -1.0421   -0.0195 H   0  0  0  0  0  0  0  0  0  0  0  0
    2.9352    0.2687   -1.1244 H   0  0  0  0  0  0  0  0  0  0  0  0
    1.5018    1.8814    0.2047 H   0  0  0  0  0  0  0  0  0  0  0  0
    1.0876    0.5880    1.3164 H   0  0  0  0  0  0  0  0  0  0  0  0
    0.2749    1.0023   -1.6150 H   0  0  0  0  0  0  0  0  0  0  0  0
   -0.8122    1.5519    1.0362 H   0  0  0  0  0  0  0  0  0  0  0  0
   -1.0805    3.5807    0.1224 H   0  0  0  0  0  0  0  0  0  0  0  0
   -0.1216    2.9603   -1.2401 H   0  0  0  0  0  0  0  0  0  0  0  0
   -2.2135    2.3735   -2.4535 H   0  0  0  0  0  0  0  0  0  0  0  0
   -2.0375    4.0700   -1.9846 H   0  0  0  0  0  0  0  0  0  0  0  0
   -4.3485    2.8141   -1.4398 H   0  0  0  0  0  0  0  0  0  0  0  0
   -3.5775    4.0690   -0.3436 H   0  0  0  0  0  0  0  0  0  0  0  0
   -1.3706   -0.8099   -1.3523 H   0  0  0  0  0  0  0  0  0  0  0  0
   -0.0696   -1.9819   -2.6939 H   0  0  0  0  0  0  0  0  0  0  0  0
    1.3879   -1.2337   -2.1094 H   0  0  0  0  0  0  0  0  0  0  0  0
    1.3221   -3.1003   -0.2172 H   0  0  0  0  0  0  0  0  0  0  0  0
    1.3381   -3.6349   -1.9562 H   0  0  0  0  0  0  0  0  0  0  0  0
   -0.4588   -4.8326   -0.7675 H   0  0  0  0  0  0  0  0  0  0  0  0
   -1.1455   -3.5792   -1.8393 H   0  0  0  0  0  0  0  0  0  0  0  0
   -2.3104   -2.9781    0.1142 H   0  0  0  0  0  0  0  0  0  0  0  0
   -1.0015   -3.6005    1.1408 H   0  0  0  0  0  0  0  0  0  0  0  0
    0.2341   -1.6640    1.0678 H   0  0  0  0  0  0  0  0  0  0  0  0
   -2.2307   -1.6819    1.9820 H   0  0  0  0  0  0  0  0  0  0  0  0
   -1.3477   -0.1552    1.9396 H   0  0  0  0  0  0  0  0  0  0  0  0
   -3.6719   -0.1206    1.2076 H   0  0  0  0  0  0  0  0  0  0  0  0
   -3.3642   -1.1106   -0.1891 H   0  0  0  0  0  0  0  0  0  0  0  0
   -2.6145    0.7257   -1.3248 H   0  0  0  0  0  0  0  0  0  0  0  0
   -4.3392    1.5408    0.5149 H   0  0  0  0  0  0  0  0  0  0  0  0
   -2.8780    2.4288    1.1571 H   0  0  0  0  0  0  0  0  0  0  0  0
  1  2  1  0
  2  3  1  0
  3  4  1  0
  4  5  1  0
  5  6  1  0
  6  7  1  0
  7  8  1  0
  8  9  1  0
  9 10  1  0
  6 11  1  0
 11 12  1  0
 12 13  1  0
 13 14  1  0
 14 15  1  0
 11 16  1  0
 15 16  1  0
 16 17  1  0
 17 18  1  0
  7 19  1  0
 18 19  1  0
 10 20  1  0
 19 20  1  0
  1 21  1  0
  1 22  1  0
  1 23  1  0
  2 24  1  0
  3 25  1  0
  3 26  1  0
  4 27  1  0
  4 28  1  0
  5 29  1  0
  5 30  1  0
  6 31  1  0
  7 32  1  0
  8 33  1  0
  8 34  1  0
  9 35  1  0
  9 36  1  0
 10 37  1  0
 10 38  1  0
 11 39  1  0
 12 40  1  0
 12 41  1  0
 13 42  1  0
 13 43  1  0
 14 44  1  0
 14 45  1  0
 15 46  1  0
 15 47  1  0
 16 48  1  0
 17 49  1  0
 17 50  1  0
 18 51  1  0
 18 52  1  0
 19 53  1  0
 20 54  1  0
 20 55  1  0
M  END
>  <PDBID>  (1) 
4M48

>  <PDB ID>  (1) 
4M48

>  <Generic Name>  (1) 
Nortriptyline

>  <Brand Name>  (1) 
Apo-nortriptyline - Cap 10mg#Apo-nortriptyline - Cap 25mg#Ava-nortriptyline#Aventyl#Dom-nortriptyline 10mg Capsules#Dom-nortriptyline 25mg Capsules#Gen-nortriptyline Capsules 10mg#Gen-nortriptyline Capsules 25mg#Nortriptyline#Nortriptyline Hydrochloride#Nortriptyline-10#Nortriptyline-25#Norventyl#Nu-nortriptyline - Cap 10mg#Nu-nortriptyline - Cap 25mg#PMS-nortriptyline#Pamelor#Ratio-nortriptyline#Teva-nortriptyline#Allegron#Noritren#Norpress#Nortrilen#Sensoval

>  <DrugBank ID>  (1) 
DB00540

>  <ATC Codes>  (1) 
N06AA10

>  <Ligand ID>  (1) 
21B

>  <Target Name>  (1) 
Sodium-dependent noradrenaline transporter

>  <UniProt ID>  (1) 
P23975

>  <PDB ID.1>  (1) 
4M48

>  <Seq. Identity>  (1) 
57%

$$$$
