PDB_DB00190_03
     RDKit          3D

 74 74  0  0  0  0  0  0  0  0999 V2000
   -2.2209   -0.1611   -1.5774 N   0  0  0  0  0  0  0  0  0  0  0  0
   -3.3739   -0.8672   -1.8476 N   0  0  0  0  0  0  0  0  0  0  0  0
   -1.9801   -0.0346   -0.1503 C   0  0  2  0  0  0  0  0  0  0  0  0
   -0.7616    0.7111    0.1746 C   0  0  0  0  0  0  0  0  0  0  0  0
   -2.0358   -1.3870    0.5030 C   0  0  0  0  0  0  0  0  0  0  0  0
    0.5491    0.2513   -0.2976 C   0  0  0  0  0  0  0  0  0  0  0  0
    1.0385   -1.0781    0.1318 C   0  0  0  0  0  0  0  0  0  0  0  0
    2.4867   -1.0941    0.5551 C   0  0  0  0  0  0  0  0  0  0  0  0
    1.6201    1.2743    0.1202 C   0  0  0  0  0  0  0  0  0  0  0  0
    2.8059    0.9663   -0.7627 C   0  0  0  0  0  0  0  0  0  0  0  0
    3.4275   -0.3075   -0.2686 C   0  0  0  0  0  0  0  0  0  0  0  0
    4.5451    0.1092    0.5049 O   0  0  0  0  0  0  0  0  0  0  0  0
    2.6218   -0.8688    1.9457 O   0  0  0  0  0  0  0  0  0  0  0  0
   -3.1463    0.7597    0.4901 C   0  0  0  0  0  0  0  0  0  0  0  0
   -4.3435    0.1045    0.2878 O   0  0  0  0  0  0  0  0  0  0  0  0
   -3.1314    2.0600    0.0446 O   0  0  0  0  0  0  0  0  0  0  0  0
   -2.2209   -0.1611   -1.5774 N   0  0  0  0  0  0  0  0  0  0  0  0
   -3.3739   -0.8672   -1.8476 N   0  0  0  0  0  0  0  0  0  0  0  0
   -1.9801   -0.0346   -0.1503 C   0  0  2  0  0  0  0  0  0  0  0  0
   -0.7616    0.7111    0.1746 C   0  0  0  0  0  0  0  0  0  0  0  0
   -2.0358   -1.3870    0.5030 C   0  0  0  0  0  0  0  0  0  0  0  0
    0.5491    0.2513   -0.2976 C   0  0  0  0  0  0  0  0  0  0  0  0
    1.0385   -1.0781    0.1318 C   0  0  0  0  0  0  0  0  0  0  0  0
    2.4867   -1.0941    0.5551 C   0  0  0  0  0  0  0  0  0  0  0  0
    1.6201    1.2743    0.1202 C   0  0  0  0  0  0  0  0  0  0  0  0
    2.8059    0.9663   -0.7627 C   0  0  0  0  0  0  0  0  0  0  0  0
    3.4275   -0.3075   -0.2686 C   0  0  0  0  0  0  0  0  0  0  0  0
    4.5451    0.1092    0.5049 O   0  0  0  0  0  0  0  0  0  0  0  0
    2.6218   -0.8688    1.9457 O   0  0  0  0  0  0  0  0  0  0  0  0
   -3.1463    0.7597    0.4901 C   0  0  0  0  0  0  0  0  0  0  0  0
   -4.3435    0.1045    0.2878 O   0  0  0  0  0  0  0  0  0  0  0  0
   -3.1314    2.0600    0.0446 O   0  0  0  0  0  0  0  0  0  0  0  0
   -1.4249   -0.7217   -1.9560 H   0  0  0  0  0  0  0  0  0  0  0  0
   -4.1863   -0.2878   -2.1168 H   0  0  0  0  0  0  0  0  0  0  0  0
   -0.8978    1.7803   -0.1807 H   0  0  0  0  0  0  0  0  0  0  0  0
   -0.7125    0.8285    1.2886 H   0  0  0  0  0  0  0  0  0  0  0  0
   -3.1078   -1.7605    0.4093 H   0  0  0  0  0  0  0  0  0  0  0  0
   -1.4491   -2.1270   -0.0502 H   0  0  0  0  0  0  0  0  0  0  0  0
   -1.8176   -1.3314    1.5898 H   0  0  0  0  0  0  0  0  0  0  0  0
    0.6332    0.2572   -1.4344 H   0  0  0  0  0  0  0  0  0  0  0  0
    0.8619   -1.8857   -0.5855 H   0  0  0  0  0  0  0  0  0  0  0  0
    0.4780   -1.3516    1.0762 H   0  0  0  0  0  0  0  0  0  0  0  0
    2.8151   -2.1770    0.4507 H   0  0  0  0  0  0  0  0  0  0  0  0
    1.2378    2.3074   -0.0836 H   0  0  0  0  0  0  0  0  0  0  0  0
    1.8535    1.1772    1.1888 H   0  0  0  0  0  0  0  0  0  0  0  0
    2.4680    0.7502   -1.8197 H   0  0  0  0  0  0  0  0  0  0  0  0
    3.5287    1.8058   -0.8010 H   0  0  0  0  0  0  0  0  0  0  0  0
    3.8945   -0.8930   -1.0990 H   0  0  0  0  0  0  0  0  0  0  0  0
    4.9463    0.8758    0.0355 H   0  0  0  0  0  0  0  0  0  0  0  0
    3.4862   -0.4209    2.1505 H   0  0  0  0  0  0  0  0  0  0  0  0
   -2.9627    0.7757    1.5869 H   0  0  0  0  0  0  0  0  0  0  0  0
   -4.7644   -0.2144    1.1047 H   0  0  0  0  0  0  0  0  0  0  0  0
   -2.9813    2.1751   -0.9141 H   0  0  0  0  0  0  0  0  0  0  0  0
   -1.4249   -0.7217   -1.9560 H   0  0  0  0  0  0  0  0  0  0  0  0
   -4.1863   -0.2878   -2.1168 H   0  0  0  0  0  0  0  0  0  0  0  0
   -0.8978    1.7803   -0.1807 H   0  0  0  0  0  0  0  0  0  0  0  0
   -0.7125    0.8285    1.2886 H   0  0  0  0  0  0  0  0  0  0  0  0
   -3.1078   -1.7605    0.4093 H   0  0  0  0  0  0  0  0  0  0  0  0
   -1.4491   -2.1270   -0.0502 H   0  0  0  0  0  0  0  0  0  0  0  0
   -1.8176   -1.3314    1.5898 H   0  0  0  0  0  0  0  0  0  0  0  0
    0.6332    0.2572   -1.4344 H   0  0  0  0  0  0  0  0  0  0  0  0
    0.8619   -1.8857   -0.5855 H   0  0  0  0  0  0  0  0  0  0  0  0
    0.4780   -1.3516    1.0762 H   0  0  0  0  0  0  0  0  0  0  0  0
    2.8151   -2.1770    0.4507 H   0  0  0  0  0  0  0  0  0  0  0  0
    1.2378    2.3074   -0.0836 H   0  0  0  0  0  0  0  0  0  0  0  0
    1.8535    1.1772    1.1888 H   0  0  0  0  0  0  0  0  0  0  0  0
    2.4680    0.7502   -1.8197 H   0  0  0  0  0  0  0  0  0  0  0  0
    3.5287    1.8058   -0.8010 H   0  0  0  0  0  0  0  0  0  0  0  0
    3.8945   -0.8930   -1.0990 H   0  0  0  0  0  0  0  0  0  0  0  0
    4.9463    0.8758    0.0355 H   0  0  0  0  0  0  0  0  0  0  0  0
    3.4862   -0.4209    2.1505 H   0  0  0  0  0  0  0  0  0  0  0  0
   -2.9627    0.7757    1.5869 H   0  0  0  0  0  0  0  0  0  0  0  0
   -4.7644   -0.2144    1.1047 H   0  0  0  0  0  0  0  0  0  0  0  0
   -2.9813    2.1751   -0.9141 H   0  0  0  0  0  0  0  0  0  0  0  0
  1  2  1  0
  3  1  1  6
  3  4  1  0
  3  5  1  0
  4  6  1  0
  6  7  1  0
  7  8  1  0
  6  9  1  0
  9 10  1  0
  8 11  1  0
 10 11  1  0
 11 12  1  0
  8 13  1  0
  3 14  1  0
 14 15  1  0
 14 16  1  0
 17 18  1  0
 19 17  1  6
 19 20  1  0
 19 21  1  0
 20 22  1  0
 22 23  1  0
 23 24  1  0
 22 25  1  0
 25 26  1  0
 24 27  1  0
 26 27  1  0
 27 28  1  0
 24 29  1  0
 19 30  1  0
 30 31  1  0
 30 32  1  0
  1 33  1  0
  2 34  1  0
  4 35  1  0
  4 36  1  0
  5 37  1  0
  5 38  1  0
  5 39  1  0
  6 40  1  0
  7 41  1  0
  7 42  1  0
  8 43  1  0
  9 44  1  0
  9 45  1  0
 10 46  1  0
 10 47  1  0
 11 48  1  0
 12 49  1  0
 13 50  1  0
 14 51  1  0
 15 52  1  0
 16 53  1  0
 17 54  1  0
 18 55  1  0
 20 56  1  0
 20 57  1  0
 21 58  1  0
 21 59  1  0
 21 60  1  0
 22 61  1  0
 23 62  1  0
 23 63  1  0
 24 64  1  0
 25 65  1  0
 25 66  1  0
 26 67  1  0
 26 68  1  0
 27 69  1  0
 28 70  1  0
 29 71  1  0
 30 72  1  0
 31 73  1  0
 32 74  1  0
M  END
>  <PDBID>  (1) 
1JS3

>  <PDB ID>  (1) 
1JS3

>  <Generic Name>  (1) 
Carbidopa

>  <Brand Name>  (1) 
Apo-levocarb - Tab 10mg/100mg#Apo-levocarb - Tab 25mg/250mg#Apo-levocarb CR#Apo-levocarb-tab 25mg/100mg#Carbidopa#Carbidopa Tablets, 25 mg#Carbidopa and Levodopa#Carbidopa, Levodopa and Entacapone#Carbidopa, Levodopa, and Entacapone#Dom-levo-carbidopa#Duodopa#Duopa#Lodosyn#Mint-levocarb#Nu-levocarb - Tab 10mg/100mg#Nu-levocarb - Tab 25 Mg/100 mg#Nu-levocarb - Tablets 25 Mg/250 mg#PMS-levocarb CR#Parcopa#Pro-lecarb-100/10 - Tab#Pro-lecarb-100/25 - Tab#Pro-levocarb - 100/25#Ratio-levodopa/carbidopa#Rytary#Sinemet#Sinemet 100/10#Sinemet 100/25#Sinemet 250/25#Sinemet CR#Sinemet CR 100/25#Sinemet CR 200/50#Stalevo#Teva-levocarbidopa

>  <DrugBank ID>  (1) 
DB00190

>  <ATC Codes>  (1) 
nan

>  <Ligand ID>  (1) 
142

>  <Target Name>  (1) 
Aromatic-L-amino-acid decarboxylase

>  <UniProt ID>  (1) 
P20711

>  <PDB ID.1>  (1) 
1JS3

>  <Seq. Identity>  (1) 
90%

$$$$
