PDB_DB00503_08
     RDKit          3D

124127  0  0  0  0  0  0  0  0999 V2000
   -7.6924   -0.2864    3.1709 C   0  0  0  0  0  0  0  0  0  0  0  0
   -6.8005   -1.0046    4.2005 C   0  0  0  0  0  0  0  0  0  0  0  0
   -5.8296    0.4193    4.7329 S   0  0  0  0  0  0  0  0  0  0  0  0
   -6.9856    1.7291    4.1418 C   0  0  0  0  0  0  0  0  0  0  0  0
   -8.1457    0.9221    3.8355 N   0  0  0  0  0  0  0  0  0  0  0  0
   -6.0667   -2.1491    3.6419 C   0  0  0  0  0  0  0  0  0  0  0  0
   -5.2049   -2.0078    2.6279 O   0  0  0  0  0  0  0  0  0  0  0  0
   -4.0610   -1.2610    2.7879 C   0  0  0  0  0  0  0  0  0  0  0  0
   -2.9019   -2.0363    2.6529 O   0  0  0  0  0  0  0  0  0  0  0  0
   -4.0333   -0.1071    1.9213 N   0  0  0  0  0  0  0  0  0  0  0  0
   -4.0001   -0.4487    0.5220 C   0  0  2  0  0  0  0  0  0  0  0  0
   -3.1948    0.5122   -0.2702 C   0  0  2  0  0  0  0  0  0  0  0  0
   -1.7270    0.4814    0.0412 C   0  0  0  0  0  0  0  0  0  0  0  0
   -0.9276    1.4599   -0.7610 C   0  0  2  0  0  0  0  0  0  0  0  0
   -5.3444   -0.6476   -0.0668 C   0  0  0  0  0  0  0  0  0  0  0  0
   -5.3663   -1.0089   -1.5074 C   0  0  0  0  0  0  0  0  0  0  0  0
   -6.8521   -1.2026   -1.8834 C   0  0  0  0  0  0  0  0  0  0  0  0
   -7.4338   -2.3879   -1.1948 C   0  0  0  0  0  0  0  0  0  0  0  0
   -6.6035   -3.6280   -1.2511 C   0  0  0  0  0  0  0  0  0  0  0  0
   -5.1317   -3.4192   -1.1248 C   0  0  0  0  0  0  0  0  0  0  0  0
   -4.6259   -2.2375   -1.8952 C   0  0  0  0  0  0  0  0  0  0  0  0
   -3.6977    1.7906   -0.0989 O   0  0  0  0  0  0  0  0  0  0  0  0
   -1.0223    1.2719   -2.2310 C   0  0  0  0  0  0  0  0  0  0  0  0
   -0.2293    2.2767   -3.0351 C   0  0  0  0  0  0  0  0  0  0  0  0
   -0.4397    1.9335   -4.5166 C   0  0  0  0  0  0  0  0  0  0  0  0
   -0.7105    3.1309   -5.3645 C   0  0  0  0  0  0  0  0  0  0  0  0
    0.1392    4.3362   -5.0200 C   0  0  0  0  0  0  0  0  0  0  0  0
    0.1048    4.6366   -3.5514 C   0  0  0  0  0  0  0  0  0  0  0  0
   -0.8562    3.6737   -2.8789 C   0  0  0  0  0  0  0  0  0  0  0  0
    0.4800    1.4345   -0.2919 N   0  0  0  0  0  0  0  0  0  0  0  0
    3.0203   -1.0953   -0.3488 N   0  0  0  0  0  0  0  0  0  0  0  0
    2.6279    0.2725   -0.1980 C   0  0  2  0  0  0  0  0  0  0  0  0
    1.0920    0.1911   -0.4773 C   0  0  1  0  0  0  0  0  0  0  0  0
    0.7201   -0.7335    0.5604 O   0  0  0  0  0  0  0  0  0  0  0  0
    3.3417    1.1914   -1.1177 C   0  0  0  0  0  0  0  0  0  0  0  0
    3.0076    2.6245   -0.9328 C   0  0  0  0  0  0  0  0  0  0  0  0
    3.2134    0.7651   -2.5769 C   0  0  0  0  0  0  0  0  0  0  0  0
    4.3349   -1.4443   -0.2321 C   0  0  1  0  0  0  0  0  0  0  0  0
    5.0729   -1.3921    0.9755 N   0  0  0  0  0  0  0  0  0  0  0  0
    5.5557   -0.1318    1.4364 C   0  0  0  0  0  0  0  0  0  0  0  0
    4.5065   -2.7815   -0.7455 O   0  0  0  0  0  0  0  0  0  0  0  0
    6.4909   -0.4136    2.6065 C   0  0  0  0  0  0  0  0  0  0  0  0
    7.0817    0.8313    3.2015 C   0  0  0  0  0  0  0  0  0  0  0  0
    8.5503    1.0417    2.1061 S   0  0  0  0  0  0  0  0  0  0  0  0
    8.4049   -0.5689    1.2543 C   0  0  0  0  0  0  0  0  0  0  0  0
    7.5814   -1.2768    2.2115 N   0  0  0  0  0  0  0  0  0  0  0  0
    9.7408   -1.2719    1.1399 C   0  0  0  0  0  0  0  0  0  0  0  0
   10.3204   -1.5294    2.5128 C   0  0  0  0  0  0  0  0  0  0  0  0
   10.6920   -0.5654    0.2144 C   0  0  0  0  0  0  0  0  0  0  0  0
    4.4005   -2.1315    2.0489 C   0  0  0  0  0  0  0  0  0  0  0  0
   -7.0995    0.0520    2.2901 H   0  0  0  0  0  0  0  0  0  0  0  0
   -8.5799   -0.8635    2.9147 H   0  0  0  0  0  0  0  0  0  0  0  0
   -7.5161   -1.3257    5.0046 H   0  0  0  0  0  0  0  0  0  0  0  0
   -6.5824    2.2701    3.2879 H   0  0  0  0  0  0  0  0  0  0  0  0
   -7.2309    2.3683    5.0261 H   0  0  0  0  0  0  0  0  0  0  0  0
   -8.6293    0.6576    4.7208 H   0  0  0  0  0  0  0  0  0  0  0  0
   -5.5325   -2.6653    4.5031 H   0  0  0  0  0  0  0  0  0  0  0  0
   -6.8265   -2.9404    3.3231 H   0  0  0  0  0  0  0  0  0  0  0  0
   -4.0226   -0.8986    3.8256 H   0  0  0  0  0  0  0  0  0  0  0  0
   -3.0635   -2.9951    2.8213 H   0  0  0  0  0  0  0  0  0  0  0  0
   -3.2544    0.4876    2.1719 H   0  0  0  0  0  0  0  0  0  0  0  0
   -3.3947   -1.4238    0.4990 H   0  0  0  0  0  0  0  0  0  0  0  0
   -3.3347    0.1864   -1.3558 H   0  0  0  0  0  0  0  0  0  0  0  0
   -1.3861   -0.5442   -0.2339 H   0  0  0  0  0  0  0  0  0  0  0  0
   -1.5825    0.5965    1.1214 H   0  0  0  0  0  0  0  0  0  0  0  0
   -1.2811    2.4729   -0.5136 H   0  0  0  0  0  0  0  0  0  0  0  0
   -5.8789    0.3505    0.0106 H   0  0  0  0  0  0  0  0  0  0  0  0
   -6.0017   -1.3292    0.5142 H   0  0  0  0  0  0  0  0  0  0  0  0
   -5.0683   -0.1530   -2.1629 H   0  0  0  0  0  0  0  0  0  0  0  0
   -7.3923   -0.2924   -1.5734 H   0  0  0  0  0  0  0  0  0  0  0  0
   -6.9665   -1.2664   -2.9910 H   0  0  0  0  0  0  0  0  0  0  0  0
   -7.7509   -2.1265   -0.1646 H   0  0  0  0  0  0  0  0  0  0  0  0
   -8.3966   -2.6250   -1.7379 H   0  0  0  0  0  0  0  0  0  0  0  0
   -6.9150   -4.2658   -0.3731 H   0  0  0  0  0  0  0  0  0  0  0  0
   -6.8365   -4.2549   -2.1462 H   0  0  0  0  0  0  0  0  0  0  0  0
   -4.7931   -3.3443   -0.0664 H   0  0  0  0  0  0  0  0  0  0  0  0
   -4.6190   -4.3281   -1.5417 H   0  0  0  0  0  0  0  0  0  0  0  0
   -4.7932   -2.3908   -2.9890 H   0  0  0  0  0  0  0  0  0  0  0  0
   -3.5505   -2.1397   -1.6753 H   0  0  0  0  0  0  0  0  0  0  0  0
   -3.1018    2.3656    0.4532 H   0  0  0  0  0  0  0  0  0  0  0  0
   -2.0521    1.3383   -2.6296 H   0  0  0  0  0  0  0  0  0  0  0  0
   -0.6594    0.2548   -2.5478 H   0  0  0  0  0  0  0  0  0  0  0  0
    0.8259    2.3184   -2.8033 H   0  0  0  0  0  0  0  0  0  0  0  0
   -1.2730    1.2139   -4.6325 H   0  0  0  0  0  0  0  0  0  0  0  0
    0.4683    1.3918   -4.9008 H   0  0  0  0  0  0  0  0  0  0  0  0
   -0.4029    2.8612   -6.4177 H   0  0  0  0  0  0  0  0  0  0  0  0
   -1.7535    3.4378   -5.4442 H   0  0  0  0  0  0  0  0  0  0  0  0
   -0.3232    5.2052   -5.5711 H   0  0  0  0  0  0  0  0  0  0  0  0
    1.1451    4.2039   -5.4393 H   0  0  0  0  0  0  0  0  0  0  0  0
    1.1166    4.4038   -3.1438 H   0  0  0  0  0  0  0  0  0  0  0  0
   -0.1621    5.6999   -3.3479 H   0  0  0  0  0  0  0  0  0  0  0  0
   -0.9871    3.9699   -1.8402 H   0  0  0  0  0  0  0  0  0  0  0  0
   -1.8046    3.7109   -3.4390 H   0  0  0  0  0  0  0  0  0  0  0  0
    0.4351    1.6687    0.7420 H   0  0  0  0  0  0  0  0  0  0  0  0
    2.4344   -1.6627   -0.9916 H   0  0  0  0  0  0  0  0  0  0  0  0
    2.7017    0.5821    0.8387 H   0  0  0  0  0  0  0  0  0  0  0  0
    0.9035   -0.3483   -1.4013 H   0  0  0  0  0  0  0  0  0  0  0  0
    0.8736   -0.2886    1.4424 H   0  0  0  0  0  0  0  0  0  0  0  0
    4.4382    1.0668   -0.9000 H   0  0  0  0  0  0  0  0  0  0  0  0
    3.9462    3.1508   -0.5582 H   0  0  0  0  0  0  0  0  0  0  0  0
    2.1674    2.8771   -0.2968 H   0  0  0  0  0  0  0  0  0  0  0  0
    2.8779    3.0698   -1.9638 H   0  0  0  0  0  0  0  0  0  0  0  0
    4.0465    0.1073   -2.8644 H   0  0  0  0  0  0  0  0  0  0  0  0
    2.2670    0.2610   -2.7624 H   0  0  0  0  0  0  0  0  0  0  0  0
    3.3432    1.6879   -3.2016 H   0  0  0  0  0  0  0  0  0  0  0  0
    5.0118   -0.8694   -0.9826 H   0  0  0  0  0  0  0  0  0  0  0  0
    4.7701    0.5228    1.8563 H   0  0  0  0  0  0  0  0  0  0  0  0
    6.1044    0.3653    0.6140 H   0  0  0  0  0  0  0  0  0  0  0  0
    5.1513   -3.2701   -0.1986 H   0  0  0  0  0  0  0  0  0  0  0  0
    5.9134   -0.9337    3.3758 H   0  0  0  0  0  0  0  0  0  0  0  0
    6.4689    1.7380    3.0547 H   0  0  0  0  0  0  0  0  0  0  0  0
    7.4109    0.6923    4.2478 H   0  0  0  0  0  0  0  0  0  0  0  0
    7.9475   -0.3877    0.2852 H   0  0  0  0  0  0  0  0  0  0  0  0
    7.1877   -2.1426    1.8357 H   0  0  0  0  0  0  0  0  0  0  0  0
    9.5213   -2.2690    0.6935 H   0  0  0  0  0  0  0  0  0  0  0  0
   10.0500   -0.6530    3.1352 H   0  0  0  0  0  0  0  0  0  0  0  0
   11.4150   -1.6948    2.4855 H   0  0  0  0  0  0  0  0  0  0  0  0
    9.8081   -2.3972    2.9717 H   0  0  0  0  0  0  0  0  0  0  0  0
   11.1534   -1.2903   -0.5069 H   0  0  0  0  0  0  0  0  0  0  0  0
   11.5356   -0.1396    0.7993 H   0  0  0  0  0  0  0  0  0  0  0  0
   10.1615    0.1780   -0.3953 H   0  0  0  0  0  0  0  0  0  0  0  0
    3.5201   -2.6518    1.5933 H   0  0  0  0  0  0  0  0  0  0  0  0
    5.0430   -2.9333    2.4428 H   0  0  0  0  0  0  0  0  0  0  0  0
    4.0392   -1.4381    2.8308 H   0  0  0  0  0  0  0  0  0  0  0  0
  1  2  1  0
  2  3  1  0
  3  4  1  0
  1  5  1  0
  4  5  1  0
  2  6  1  0
  6  7  1  0
  7  8  1  0
  8  9  1  0
  8 10  1  0
 10 11  1  0
 11 12  1  0
 12 13  1  0
 13 14  1  0
 11 15  1  0
 15 16  1  0
 16 17  1  0
 17 18  1  0
 18 19  1  0
 19 20  1  0
 16 21  1  0
 20 21  1  0
 12 22  1  0
 14 23  1  0
 23 24  1  0
 24 25  1  0
 25 26  1  0
 26 27  1  0
 27 28  1  0
 24 29  1  0
 28 29  1  0
 14 30  1  0
 31 32  1  0
 30 33  1  0
 32 33  1  0
 33 34  1  0
 32 35  1  0
 35 36  1  0
 35 37  1  0
 31 38  1  0
 38 39  1  0
 39 40  1  0
 38 41  1  0
 40 42  1  0
 42 43  1  0
 43 44  1  0
 44 45  1  0
 42 46  1  0
 45 46  1  0
 45 47  1  0
 47 48  1  0
 47 49  1  0
 39 50  1  0
  1 51  1  0
  1 52  1  0
  2 53  1  0
  4 54  1  0
  4 55  1  0
  5 56  1  0
  6 57  1  0
  6 58  1  0
  8 59  1  0
  9 60  1  0
 10 61  1  0
 11 62  1  1
 12 63  1  6
 13 64  1  0
 13 65  1  0
 14 66  1  6
 15 67  1  0
 15 68  1  0
 16 69  1  0
 17 70  1  0
 17 71  1  0
 18 72  1  0
 18 73  1  0
 19 74  1  0
 19 75  1  0
 20 76  1  0
 20 77  1  0
 21 78  1  0
 21 79  1  0
 22 80  1  0
 23 81  1  0
 23 82  1  0
 24 83  1  0
 25 84  1  0
 25 85  1  0
 26 86  1  0
 26 87  1  0
 27 88  1  0
 27 89  1  0
 28 90  1  0
 28 91  1  0
 29 92  1  0
 29 93  1  0
 30 94  1  0
 31 95  1  0
 32 96  1  1
 33 97  1  6
 34 98  1  0
 35 99  1  0
 36100  1  0
 36101  1  0
 36102  1  0
 37103  1  0
 37104  1  0
 37105  1  0
 38106  1  6
 40107  1  0
 40108  1  0
 41109  1  0
 42110  1  0
 43111  1  0
 43112  1  0
 45113  1  0
 46114  1  0
 47115  1  0
 48116  1  0
 48117  1  0
 48118  1  0
 49119  1  0
 49120  1  0
 49121  1  0
 50122  1  0
 50123  1  0
 50124  1  0
M  END
>  <PDBID>  (1) 
1HXW

>  <PDB ID>  (1) 
1HXW

>  <Generic Name>  (1) 
Ritonavir

>  <Brand Name>  (1) 
Holkira Pak#Kaletra#Lopinavir-ritonavir#Norvir#Norvir Sec#Technivie#Viekira Pak#Viekira XR#Busvir#Empetus#Normune

>  <DrugBank ID>  (1) 
DB00503

>  <ATC Codes>  (1) 
J05AX67#J05AR10#J05AE03#J05AX66

>  <Ligand ID>  (1) 
RIT

>  <Target Name>  (1) 
Pol polyprotein

>  <UniProt ID>  (1) 
Q72874

>  <PDB ID.1>  (1) 
1HXW

>  <Seq. Identity>  (1) 
98%

$$$$
