PDB_DB05990_07
     RDKit          3D

 76 79  0  0  0  0  0  0  0  0999 V2000
   -3.7619   -1.0600    0.5458 C   0  0  0  0  0  0  0  0  0  0  0  0
   -4.8948   -0.6404    1.4665 C   0  0  0  0  0  0  0  0  0  0  0  0
   -4.3625   -0.2030    2.7963 C   0  0  1  0  0  0  0  0  0  0  0  0
   -4.1899   -1.3612    3.5751 O   0  0  0  0  0  0  0  0  0  0  0  0
   -3.0000    0.4859    2.6193 C   0  0  0  0  0  0  0  0  0  0  0  0
   -3.0100    1.2048    1.2769 C   0  0  1  0  0  0  0  0  0  0  0  0
   -2.0528    2.3291    1.1707 C   0  0  2  0  0  0  0  0  0  0  0  0
   -0.7615    2.0802    0.4929 C   0  0  1  0  0  0  0  0  0  0  0  0
    0.2145    1.8772    1.4979 O   0  0  0  0  0  0  0  0  0  0  0  0
   -0.6889    0.9300   -0.4559 C   0  0  2  0  0  0  0  0  0  0  0  0
   -1.4540   -0.2589    0.1111 C   0  0  1  0  0  0  0  0  0  0  0  0
   -2.8914    0.1598    0.2156 C   0  0  1  0  0  0  0  0  0  0  0  0
   -1.2832   -1.4682   -0.7782 C   0  0  0  0  0  0  0  0  0  0  0  0
    0.2162   -1.8485   -0.7257 C   0  0  0  0  0  0  0  0  0  0  0  0
    0.9496   -0.7744   -1.4067 C   0  0  1  0  0  0  0  0  0  0  0  0
    0.7022    0.5135   -0.6511 C   0  0  1  0  0  0  0  0  0  0  0  0
    1.5242    1.4350   -1.5353 C   0  0  0  0  0  0  0  0  0  0  0  0
    2.8224    0.6129   -1.6521 C   0  0  0  0  0  0  0  0  0  0  0  0
    2.4705   -0.7989   -1.3333 C   0  0  2  0  0  0  0  0  0  0  0  0
    0.4859   -0.6905   -2.8401 C   0  0  0  0  0  0  0  0  0  0  0  0
   -3.3990    0.6929   -1.1111 C   0  0  0  0  0  0  0  0  0  0  0  0
    3.1460   -1.8332   -2.1006 C   0  0  2  0  0  0  0  0  0  0  0  0
    2.7314   -3.2213   -1.5795 C   0  0  0  0  0  0  0  0  0  0  0  0
    4.5723   -1.8416   -2.4000 C   0  0  0  0  0  0  0  0  0  0  0  0
    5.6080   -1.8851   -1.3674 C   0  0  0  0  0  0  0  0  0  0  0  0
    5.7252   -0.7180   -0.4371 C   0  0  0  0  0  0  0  0  0  0  0  0
   -3.0861    3.6278    3.0558 C   0  0  0  0  0  0  0  0  0  0  0  0
   -1.8157    3.0455    2.4963 C   0  0  0  0  0  0  0  0  0  0  0  0
    6.0171    0.4691   -1.1206 O   0  0  0  0  0  0  0  0  0  0  0  0
    6.8516   -0.8963    0.4200 O   0  0  0  0  0  0  0  0  0  0  0  0
   -3.1876   -1.8359    1.0883 H   0  0  0  0  0  0  0  0  0  0  0  0
   -4.2129   -1.4455   -0.3799 H   0  0  0  0  0  0  0  0  0  0  0  0
   -5.5239    0.1515    1.0541 H   0  0  0  0  0  0  0  0  0  0  0  0
   -5.5544   -1.5446    1.5503 H   0  0  0  0  0  0  0  0  0  0  0  0
   -5.0532    0.4719    3.3036 H   0  0  0  0  0  0  0  0  0  0  0  0
   -4.7551   -1.3236    4.3854 H   0  0  0  0  0  0  0  0  0  0  0  0
   -2.9194    1.1695    3.4775 H   0  0  0  0  0  0  0  0  0  0  0  0
   -2.2640   -0.3421    2.6560 H   0  0  0  0  0  0  0  0  0  0  0  0
   -4.0820    1.5810    1.1950 H   0  0  0  0  0  0  0  0  0  0  0  0
   -2.5762    3.1209    0.5452 H   0  0  0  0  0  0  0  0  0  0  0  0
   -0.4046    3.0099   -0.0417 H   0  0  0  0  0  0  0  0  0  0  0  0
    0.5844    2.7662    1.7942 H   0  0  0  0  0  0  0  0  0  0  0  0
   -1.1766    1.2318   -1.4067 H   0  0  0  0  0  0  0  0  0  0  0  0
   -1.0045   -0.4902    1.0748 H   0  0  0  0  0  0  0  0  0  0  0  0
   -1.8042   -2.3063   -0.3195 H   0  0  0  0  0  0  0  0  0  0  0  0
   -1.5874   -1.2626   -1.8039 H   0  0  0  0  0  0  0  0  0  0  0  0
    0.4755   -1.9577    0.3264 H   0  0  0  0  0  0  0  0  0  0  0  0
    0.1829   -2.8345   -1.2913 H   0  0  0  0  0  0  0  0  0  0  0  0
    1.2151    0.4140    0.3285 H   0  0  0  0  0  0  0  0  0  0  0  0
    0.9992    1.5171   -2.4958 H   0  0  0  0  0  0  0  0  0  0  0  0
    1.6878    2.4252   -1.1189 H   0  0  0  0  0  0  0  0  0  0  0  0
    3.4605    1.0468   -0.8283 H   0  0  0  0  0  0  0  0  0  0  0  0
    3.2129    0.7977   -2.6497 H   0  0  0  0  0  0  0  0  0  0  0  0
    2.6668   -0.9486   -0.2200 H   0  0  0  0  0  0  0  0  0  0  0  0
   -0.4109   -0.0861   -2.9858 H   0  0  0  0  0  0  0  0  0  0  0  0
    0.2446   -1.7216   -3.1726 H   0  0  0  0  0  0  0  0  0  0  0  0
    1.2692   -0.3125   -3.5252 H   0  0  0  0  0  0  0  0  0  0  0  0
   -3.1378    0.0527   -1.9617 H   0  0  0  0  0  0  0  0  0  0  0  0
   -3.1398    1.7637   -1.2549 H   0  0  0  0  0  0  0  0  0  0  0  0
   -4.5277    0.6806   -1.0614 H   0  0  0  0  0  0  0  0  0  0  0  0
    2.6071   -1.8268   -3.1329 H   0  0  0  0  0  0  0  0  0  0  0  0
    3.6913   -3.8350   -1.4272 H   0  0  0  0  0  0  0  0  0  0  0  0
    2.0463   -3.7515   -2.2301 H   0  0  0  0  0  0  0  0  0  0  0  0
    2.3246   -3.1832   -0.5574 H   0  0  0  0  0  0  0  0  0  0  0  0
    4.7843   -2.7417   -3.0820 H   0  0  0  0  0  0  0  0  0  0  0  0
    4.8837   -0.9964   -3.1092 H   0  0  0  0  0  0  0  0  0  0  0  0
    5.5764   -2.8027   -0.7185 H   0  0  0  0  0  0  0  0  0  0  0  0
    6.6486   -1.9840   -1.8334 H   0  0  0  0  0  0  0  0  0  0  0  0
    4.8951   -0.5343    0.2288 H   0  0  0  0  0  0  0  0  0  0  0  0
   -3.1408    4.7298    2.9344 H   0  0  0  0  0  0  0  0  0  0  0  0
   -3.9625    3.1292    2.5739 H   0  0  0  0  0  0  0  0  0  0  0  0
   -3.2031    3.4505    4.1533 H   0  0  0  0  0  0  0  0  0  0  0  0
   -1.1466    3.9267    2.2639 H   0  0  0  0  0  0  0  0  0  0  0  0
   -1.3461    2.4315    3.2589 H   0  0  0  0  0  0  0  0  0  0  0  0
    6.4116    0.2902   -2.0038 H   0  0  0  0  0  0  0  0  0  0  0  0
    6.8675   -0.0554    0.9697 H   0  0  0  0  0  0  0  0  0  0  0  0
  1  2  1  0
  2  3  1  0
  3  4  1  0
  3  5  1  0
  5  6  1  0
  6  7  1  0
  7  8  1  0
  8  9  1  0
  8 10  1  0
 10 11  1  0
  1 12  1  0
  6 12  1  0
 11 12  1  0
 11 13  1  0
 13 14  1  0
 14 15  1  0
 10 16  1  0
 15 16  1  0
 16 17  1  0
 17 18  1  0
 15 19  1  0
 18 19  1  0
 15 20  1  6
 12 21  1  6
 19 22  1  0
 22 23  1  0
 22 24  1  0
 24 25  1  0
 25 26  1  0
  7 28  1  0
 27 28  1  0
 26 29  1  0
 26 30  1  0
  1 31  1  0
  1 32  1  0
  2 33  1  0
  2 34  1  0
  3 35  1  1
  4 36  1  0
  5 37  1  0
  5 38  1  0
  6 39  1  6
  7 40  1  6
  8 41  1  6
  9 42  1  0
 10 43  1  6
 11 44  1  1
 13 45  1  0
 13 46  1  0
 14 47  1  0
 14 48  1  0
 16 49  1  1
 17 50  1  0
 17 51  1  0
 18 52  1  0
 18 53  1  0
 19 54  1  1
 20 55  1  0
 20 56  1  0
 20 57  1  0
 21 58  1  0
 21 59  1  0
 21 60  1  0
 22 61  1  6
 23 62  1  0
 23 63  1  0
 23 64  1  0
 24 65  1  0
 24 66  1  0
 25 67  1  0
 25 68  1  0
 26 69  1  0
 27 70  1  0
 27 71  1  0
 27 72  1  0
 28 73  1  0
 28 74  1  0
 29 75  1  0
 30 76  1  0
M  END
>  <PDBID>  (1) 
1OT7

>  <PDB ID>  (1) 
1OT7

>  <Generic Name>  (1) 
Obeticholic acid

>  <Brand Name>  (1) 
Ocaliva

>  <DrugBank ID>  (1) 
DB05990

>  <ATC Codes>  (1) 
A05AA04

>  <Ligand ID>  (1) 
CHC

>  <Target Name>  (1) 
Bile acid receptor

>  <UniProt ID>  (1) 
Q96RI1

>  <PDB ID.1>  (1) 
1OT7

>  <Seq. Identity>  (1) 
95%

$$$$
