PDB_DB06626_09
     RDKit          3D

 70 73  0  0  0  0  0  0  0  0999 V2000
   -4.8187   -1.4504    0.0236 O   0  0  0  0  0  0  0  0  0  0  0  0
   -5.3306   -0.3693   -0.6899 C   0  0  0  0  0  0  0  0  0  0  0  0
   -5.7201   -0.8791   -1.9931 N   0  0  0  0  0  0  0  0  0  0  0  0
   -6.7035   -1.9219   -1.7686 C   0  0  0  0  0  0  0  0  0  0  0  0
   -4.3060    0.7390   -0.8276 C   0  0  0  0  0  0  0  0  0  0  0  0
   -4.8416    1.9102   -1.5932 C   0  0  0  0  0  0  0  0  0  0  0  0
   -5.8178    2.7341   -0.7984 C   0  0  0  0  0  0  0  0  0  0  0  0
   -5.3212    3.0879    0.5713 C   0  0  0  0  0  0  0  0  0  0  0  0
   -3.7877    1.2056    0.4907 C   0  0  0  0  0  0  0  0  0  0  0  0
   -4.9008    1.7975    1.2869 C   0  0  0  0  0  0  0  0  0  0  0  0
   -2.9212   -0.1170    1.3499 S   0  0  0  0  0  0  0  0  0  0  0  0
   -1.3978   -0.5901    0.4815 C   0  0  0  0  0  0  0  0  0  0  0  0
   -0.7762   -1.7008    1.2872 C   0  0  0  0  0  0  0  0  0  0  0  0
    0.6834   -1.9087    1.0835 C   0  0  0  0  0  0  0  0  0  0  0  0
   -0.5115    0.6572    0.4732 C   0  0  0  0  0  0  0  0  0  0  0  0
    0.4942    0.4545    1.5472 C   0  0  0  0  0  0  0  0  0  0  0  0
    1.4352    1.4978    1.7688 N   0  0  0  0  0  0  0  0  0  0  0  0
    2.4142    0.8215    2.5299 N   0  0  0  0  0  0  0  0  0  0  0  0
    2.6017   -0.4770    1.8955 C   0  0  0  0  0  0  0  0  0  0  0  0
    1.4261   -0.6397    0.9970 C   0  0  0  0  0  0  0  0  0  0  0  0
    3.8392   -0.3244    1.0245 C   0  0  0  0  0  0  0  0  0  0  0  0
    4.1813   -1.5774    0.2908 C   0  0  0  0  0  0  0  0  0  0  0  0
    5.4126   -1.3467   -0.5378 C   0  0  0  0  0  0  0  0  0  0  0  0
    6.4942   -0.9756    0.3473 N   0  0  0  0  0  0  0  0  0  0  0  0
    7.7093   -0.6374   -0.3626 C   0  0  0  0  0  0  0  0  0  0  0  0
    7.4334    0.4921   -1.3401 C   0  0  0  0  0  0  0  0  0  0  0  0
    6.4625   -0.0655   -2.3842 C   0  0  0  0  0  0  0  0  0  0  0  0
    5.1696   -0.3443   -1.6147 C   0  0  0  0  0  0  0  0  0  0  0  0
   -5.1519   -1.3265    0.9660 H   0  0  0  0  0  0  0  0  0  0  0  0
   -6.2499    0.0366   -0.2287 H   0  0  0  0  0  0  0  0  0  0  0  0
   -4.8571   -1.3157   -2.4037 H   0  0  0  0  0  0  0  0  0  0  0  0
   -6.3909   -2.5191   -0.8922 H   0  0  0  0  0  0  0  0  0  0  0  0
   -7.7009   -1.4870   -1.5699 H   0  0  0  0  0  0  0  0  0  0  0  0
   -6.7583   -2.6293   -2.6230 H   0  0  0  0  0  0  0  0  0  0  0  0
   -3.4518    0.3152   -1.4070 H   0  0  0  0  0  0  0  0  0  0  0  0
   -3.9889    2.5662   -1.8664 H   0  0  0  0  0  0  0  0  0  0  0  0
   -5.3476    1.6210   -2.5350 H   0  0  0  0  0  0  0  0  0  0  0  0
   -6.8014    2.2245   -0.7983 H   0  0  0  0  0  0  0  0  0  0  0  0
   -5.9724    3.6881   -1.3520 H   0  0  0  0  0  0  0  0  0  0  0  0
   -4.4579    3.7705    0.4587 H   0  0  0  0  0  0  0  0  0  0  0  0
   -6.1486    3.5086    1.1587 H   0  0  0  0  0  0  0  0  0  0  0  0
   -3.0475    2.0081    0.2877 H   0  0  0  0  0  0  0  0  0  0  0  0
   -4.5990    2.1176    2.3056 H   0  0  0  0  0  0  0  0  0  0  0  0
   -5.7941    1.1847    1.3899 H   0  0  0  0  0  0  0  0  0  0  0  0
   -1.5939   -0.9680   -0.5299 H   0  0  0  0  0  0  0  0  0  0  0  0
   -1.0473   -1.6375    2.3771 H   0  0  0  0  0  0  0  0  0  0  0  0
   -1.2905   -2.6474    0.9465 H   0  0  0  0  0  0  0  0  0  0  0  0
    0.8881   -2.6076    0.2233 H   0  0  0  0  0  0  0  0  0  0  0  0
    1.0666   -2.4739    1.9823 H   0  0  0  0  0  0  0  0  0  0  0  0
   -1.0697    1.5850    0.5175 H   0  0  0  0  0  0  0  0  0  0  0  0
    0.0201    0.6323   -0.5214 H   0  0  0  0  0  0  0  0  0  0  0  0
    0.0534    0.0724    2.4903 H   0  0  0  0  0  0  0  0  0  0  0  0
    0.9966    2.1821    2.4529 H   0  0  0  0  0  0  0  0  0  0  0  0
    3.2648    1.4166    2.4904 H   0  0  0  0  0  0  0  0  0  0  0  0
    2.7185   -1.2845    2.6415 H   0  0  0  0  0  0  0  0  0  0  0  0
    1.6574   -0.4346   -0.0837 H   0  0  0  0  0  0  0  0  0  0  0  0
    3.6256    0.5431    0.3660 H   0  0  0  0  0  0  0  0  0  0  0  0
    4.6654    0.0221    1.7000 H   0  0  0  0  0  0  0  0  0  0  0  0
    3.2967   -1.8195   -0.3585 H   0  0  0  0  0  0  0  0  0  0  0  0
    4.3828   -2.3705    1.0231 H   0  0  0  0  0  0  0  0  0  0  0  0
    5.6552   -2.3131   -1.0364 H   0  0  0  0  0  0  0  0  0  0  0  0
    6.6352   -1.6260    1.1219 H   0  0  0  0  0  0  0  0  0  0  0  0
    8.0334   -1.5415   -0.9178 H   0  0  0  0  0  0  0  0  0  0  0  0
    8.4401   -0.3087    0.4051 H   0  0  0  0  0  0  0  0  0  0  0  0
    8.3966    0.7935   -1.8119 H   0  0  0  0  0  0  0  0  0  0  0  0
    6.9771    1.3408   -0.7999 H   0  0  0  0  0  0  0  0  0  0  0  0
    6.2289    0.7355   -3.1019 H   0  0  0  0  0  0  0  0  0  0  0  0
    6.8837   -0.9716   -2.8237 H   0  0  0  0  0  0  0  0  0  0  0  0
    4.4102   -0.7965   -2.3132 H   0  0  0  0  0  0  0  0  0  0  0  0
    4.8215    0.6417   -1.2724 H   0  0  0  0  0  0  0  0  0  0  0  0
  1  2  1  0
  2  3  1  0
  3  4  1  0
  2  5  1  0
  5  6  1  0
  6  7  1  0
  7  8  1  0
  5  9  1  0
  8 10  1  0
  9 10  1  0
  9 11  1  0
 11 12  1  0
 12 13  1  0
 13 14  1  0
 12 15  1  0
 15 16  1  0
 16 17  1  0
 17 18  1  0
 18 19  1  0
 14 20  1  0
 16 20  1  0
 19 20  1  0
 19 21  1  0
 21 22  1  0
 22 23  1  0
 23 24  1  0
 24 25  1  0
 25 26  1  0
 26 27  1  0
 23 28  1  0
 27 28  1  0
  1 29  1  0
  2 30  1  0
  3 31  1  0
  4 32  1  0
  4 33  1  0
  4 34  1  0
  5 35  1  0
  6 36  1  0
  6 37  1  0
  7 38  1  0
  7 39  1  0
  8 40  1  0
  8 41  1  0
  9 42  1  0
 10 43  1  0
 10 44  1  0
 12 45  1  0
 13 46  1  0
 13 47  1  0
 14 48  1  0
 14 49  1  0
 15 50  1  0
 15 51  1  0
 16 52  1  0
 17 53  1  0
 18 54  1  0
 19 55  1  0
 20 56  1  0
 21 57  1  0
 21 58  1  0
 22 59  1  0
 22 60  1  0
 23 61  1  0
 24 62  1  0
 25 63  1  0
 25 64  1  0
 26 65  1  0
 26 66  1  0
 27 67  1  0
 27 68  1  0
 28 69  1  0
 28 70  1  0
M  END
>  <PDBID>  (1) 
4AG8

>  <PDB ID>  (1) 
4AG8

>  <Generic Name>  (1) 
Axitinib

>  <Brand Name>  (1) 
Inlyta

>  <DrugBank ID>  (1) 
DB06626

>  <ATC Codes>  (1) 
L01XE17

>  <Ligand ID>  (1) 
AXI

>  <Target Name>  (1) 
Vascular endothelial growth factor receptor 3

>  <UniProt ID>  (1) 
P35916

>  <PDB ID.1>  (1) 
4AG8

>  <Seq. Identity>  (1) 
67%

$$$$
