PDB_DB00255_02
     RDKit          3D

108110  0  0  0  0  0  0  0  0999 V2000
    0.3058   -2.9205   -1.4857 C   0  0  0  0  0  0  0  0  0  0  0  0
   -0.7274   -1.8687   -1.2209 C   0  0  0  0  0  0  0  0  0  0  0  0
   -0.5792   -1.1418    0.0868 C   0  0  0  0  0  0  0  0  0  0  0  0
   -1.6847   -0.1309    0.2432 C   0  0  0  0  0  0  0  0  0  0  0  0
   -3.0590   -0.8571    0.2702 C   0  0  0  0  0  0  0  0  0  0  0  0
   -4.1449    0.1903    0.4620 C   0  0  0  0  0  0  0  0  0  0  0  0
   -3.5853    1.5693    0.5586 C   0  0  0  0  0  0  0  0  0  0  0  0
   -4.6863    2.4547    0.4696 O   0  0  0  0  0  0  0  0  0  0  0  0
   -2.6389    1.9665   -0.5223 C   0  0  0  0  0  0  0  0  0  0  0  0
   -1.8782    0.7501   -1.0031 C   0  0  0  0  0  0  0  0  0  0  0  0
    0.7313   -0.8618    0.6198 C   0  0  0  0  0  0  0  0  0  0  0  0
    1.7957   -0.0704    0.0360 C   0  0  0  0  0  0  0  0  0  0  0  0
    1.6010    1.3665   -0.2622 C   0  0  0  0  0  0  0  0  0  0  0  0
    2.9393    2.0884   -0.0373 C   0  0  0  0  0  0  0  0  0  0  0  0
    4.1013    1.1534   -0.2462 C   0  0  0  0  0  0  0  0  0  0  0  0
    5.1694    1.9387   -0.7055 O   0  0  0  0  0  0  0  0  0  0  0  0
    3.8427    0.1201   -1.3019 C   0  0  0  0  0  0  0  0  0  0  0  0
    2.5663   -0.6599   -1.1297 C   0  0  0  0  0  0  0  0  0  0  0  0
    0.5391   -0.3182    2.0634 C   0  0  0  0  0  0  0  0  0  0  0  0
   -0.1609   -1.2914    2.9506 C   0  0  0  0  0  0  0  0  0  0  0  0
    0.3058   -2.9205   -1.4857 C   0  0  0  0  0  0  0  0  0  0  0  0
   -0.7274   -1.8687   -1.2209 C   0  0  0  0  0  0  0  0  0  0  0  0
   -0.5792   -1.1418    0.0868 C   0  0  0  0  0  0  0  0  0  0  0  0
   -1.6847   -0.1309    0.2432 C   0  0  0  0  0  0  0  0  0  0  0  0
   -3.0590   -0.8571    0.2702 C   0  0  0  0  0  0  0  0  0  0  0  0
   -4.1449    0.1903    0.4620 C   0  0  0  0  0  0  0  0  0  0  0  0
   -3.5853    1.5693    0.5586 C   0  0  0  0  0  0  0  0  0  0  0  0
   -4.6863    2.4547    0.4696 O   0  0  0  0  0  0  0  0  0  0  0  0
   -2.6389    1.9665   -0.5223 C   0  0  0  0  0  0  0  0  0  0  0  0
   -1.8782    0.7501   -1.0031 C   0  0  0  0  0  0  0  0  0  0  0  0
    0.7313   -0.8618    0.6198 C   0  0  0  0  0  0  0  0  0  0  0  0
    1.7957   -0.0704    0.0360 C   0  0  0  0  0  0  0  0  0  0  0  0
    1.6010    1.3665   -0.2622 C   0  0  0  0  0  0  0  0  0  0  0  0
    2.9393    2.0884   -0.0373 C   0  0  0  0  0  0  0  0  0  0  0  0
    4.1013    1.1534   -0.2462 C   0  0  0  0  0  0  0  0  0  0  0  0
    5.1694    1.9387   -0.7055 O   0  0  0  0  0  0  0  0  0  0  0  0
    3.8427    0.1201   -1.3019 C   0  0  0  0  0  0  0  0  0  0  0  0
    2.5663   -0.6599   -1.1297 C   0  0  0  0  0  0  0  0  0  0  0  0
    0.5391   -0.3182    2.0634 C   0  0  0  0  0  0  0  0  0  0  0  0
   -0.1609   -1.2914    2.9506 C   0  0  0  0  0  0  0  0  0  0  0  0
    0.9380   -2.6609   -2.3666 H   0  0  0  0  0  0  0  0  0  0  0  0
   -0.1849   -3.9268   -1.6629 H   0  0  0  0  0  0  0  0  0  0  0  0
    0.9696   -3.0964   -0.6335 H   0  0  0  0  0  0  0  0  0  0  0  0
   -1.7119   -2.4288   -1.1934 H   0  0  0  0  0  0  0  0  0  0  0  0
   -0.8505   -1.1687   -2.0803 H   0  0  0  0  0  0  0  0  0  0  0  0
   -0.9657   -1.9726    0.8177 H   0  0  0  0  0  0  0  0  0  0  0  0
   -1.6641    0.4511    1.1469 H   0  0  0  0  0  0  0  0  0  0  0  0
   -3.0816   -1.6773    0.9727 H   0  0  0  0  0  0  0  0  0  0  0  0
   -3.2167   -1.2399   -0.7530 H   0  0  0  0  0  0  0  0  0  0  0  0
   -4.9616    0.1015   -0.2820 H   0  0  0  0  0  0  0  0  0  0  0  0
   -4.6156   -0.0460    1.4493 H   0  0  0  0  0  0  0  0  0  0  0  0
   -3.1740    1.7365    1.5949 H   0  0  0  0  0  0  0  0  0  0  0  0
   -5.4577    2.1260    0.9643 H   0  0  0  0  0  0  0  0  0  0  0  0
   -3.1212    2.5157   -1.3554 H   0  0  0  0  0  0  0  0  0  0  0  0
   -1.8777    2.6491   -0.0579 H   0  0  0  0  0  0  0  0  0  0  0  0
   -2.5280    0.2448   -1.7594 H   0  0  0  0  0  0  0  0  0  0  0  0
   -0.9003    0.9908   -1.4163 H   0  0  0  0  0  0  0  0  0  0  0  0
    1.2223   -1.8729    0.8518 H   0  0  0  0  0  0  0  0  0  0  0  0
    2.6069   -0.0860    0.8521 H   0  0  0  0  0  0  0  0  0  0  0  0
    1.4357    1.4816   -1.3661 H   0  0  0  0  0  0  0  0  0  0  0  0
    0.8673    1.8944    0.3406 H   0  0  0  0  0  0  0  0  0  0  0  0
    3.0394    2.9490   -0.7221 H   0  0  0  0  0  0  0  0  0  0  0  0
    3.0147    2.4866    0.9946 H   0  0  0  0  0  0  0  0  0  0  0  0
    4.4763    0.7108    0.7151 H   0  0  0  0  0  0  0  0  0  0  0  0
    5.1072    2.8304   -0.2419 H   0  0  0  0  0  0  0  0  0  0  0  0
    4.7590   -0.5421   -1.3106 H   0  0  0  0  0  0  0  0  0  0  0  0
    3.8995    0.6356   -2.3067 H   0  0  0  0  0  0  0  0  0  0  0  0
    1.9974   -0.5397   -2.0887 H   0  0  0  0  0  0  0  0  0  0  0  0
    2.8781   -1.7108   -0.9439 H   0  0  0  0  0  0  0  0  0  0  0  0
    0.0596    0.6485    2.0840 H   0  0  0  0  0  0  0  0  0  0  0  0
    1.5562   -0.1684    2.5200 H   0  0  0  0  0  0  0  0  0  0  0  0
    0.2400   -1.2699    3.9987 H   0  0  0  0  0  0  0  0  0  0  0  0
    0.0600   -2.3336    2.5928 H   0  0  0  0  0  0  0  0  0  0  0  0
   -1.2629   -1.1888    2.9371 H   0  0  0  0  0  0  0  0  0  0  0  0
    0.9380   -2.6609   -2.3666 H   0  0  0  0  0  0  0  0  0  0  0  0
   -0.1849   -3.9268   -1.6629 H   0  0  0  0  0  0  0  0  0  0  0  0
    0.9696   -3.0964   -0.6335 H   0  0  0  0  0  0  0  0  0  0  0  0
   -1.7119   -2.4288   -1.1934 H   0  0  0  0  0  0  0  0  0  0  0  0
   -0.8505   -1.1687   -2.0803 H   0  0  0  0  0  0  0  0  0  0  0  0
   -0.9657   -1.9726    0.8177 H   0  0  0  0  0  0  0  0  0  0  0  0
   -1.6641    0.4511    1.1469 H   0  0  0  0  0  0  0  0  0  0  0  0
   -3.0816   -1.6773    0.9727 H   0  0  0  0  0  0  0  0  0  0  0  0
   -3.2167   -1.2399   -0.7530 H   0  0  0  0  0  0  0  0  0  0  0  0
   -4.9616    0.1015   -0.2820 H   0  0  0  0  0  0  0  0  0  0  0  0
   -4.6156   -0.0460    1.4493 H   0  0  0  0  0  0  0  0  0  0  0  0
   -3.1740    1.7365    1.5949 H   0  0  0  0  0  0  0  0  0  0  0  0
   -5.4577    2.1260    0.9643 H   0  0  0  0  0  0  0  0  0  0  0  0
   -3.1212    2.5157   -1.3554 H   0  0  0  0  0  0  0  0  0  0  0  0
   -1.8777    2.6491   -0.0579 H   0  0  0  0  0  0  0  0  0  0  0  0
   -2.5280    0.2448   -1.7594 H   0  0  0  0  0  0  0  0  0  0  0  0
   -0.9003    0.9908   -1.4163 H   0  0  0  0  0  0  0  0  0  0  0  0
    1.2223   -1.8729    0.8518 H   0  0  0  0  0  0  0  0  0  0  0  0
    2.6069   -0.0860    0.8521 H   0  0  0  0  0  0  0  0  0  0  0  0
    1.4357    1.4816   -1.3661 H   0  0  0  0  0  0  0  0  0  0  0  0
    0.8673    1.8944    0.3406 H   0  0  0  0  0  0  0  0  0  0  0  0
    3.0394    2.9490   -0.7221 H   0  0  0  0  0  0  0  0  0  0  0  0
    3.0147    2.4866    0.9946 H   0  0  0  0  0  0  0  0  0  0  0  0
    4.4763    0.7108    0.7151 H   0  0  0  0  0  0  0  0  0  0  0  0
    5.1072    2.8304   -0.2419 H   0  0  0  0  0  0  0  0  0  0  0  0
    4.7590   -0.5421   -1.3106 H   0  0  0  0  0  0  0  0  0  0  0  0
    3.8995    0.6356   -2.3067 H   0  0  0  0  0  0  0  0  0  0  0  0
    1.9974   -0.5397   -2.0887 H   0  0  0  0  0  0  0  0  0  0  0  0
    2.8781   -1.7108   -0.9439 H   0  0  0  0  0  0  0  0  0  0  0  0
    0.0596    0.6485    2.0840 H   0  0  0  0  0  0  0  0  0  0  0  0
    1.5562   -0.1684    2.5200 H   0  0  0  0  0  0  0  0  0  0  0  0
    0.2400   -1.2699    3.9987 H   0  0  0  0  0  0  0  0  0  0  0  0
    0.0600   -2.3336    2.5928 H   0  0  0  0  0  0  0  0  0  0  0  0
   -1.2629   -1.1888    2.9371 H   0  0  0  0  0  0  0  0  0  0  0  0
  1  2  1  0
  2  3  1  0
  3  4  1  0
  4  5  1  0
  5  6  1  0
  6  7  1  0
  7  8  1  0
  7  9  1  0
  4 10  1  0
  9 10  1  0
  3 11  1  0
 11 12  1  0
 12 13  1  0
 13 14  1  0
 14 15  1  0
 15 16  1  0
 15 17  1  0
 12 18  1  0
 17 18  1  0
 11 19  1  0
 19 20  1  0
 21 22  1  0
 22 23  1  0
 23 24  1  0
 24 25  1  0
 25 26  1  0
 26 27  1  0
 27 28  1  0
 27 29  1  0
 24 30  1  0
 29 30  1  0
 23 31  1  0
 31 32  1  0
 32 33  1  0
 33 34  1  0
 34 35  1  0
 35 36  1  0
 35 37  1  0
 32 38  1  0
 37 38  1  0
 31 39  1  0
 39 40  1  0
  1 41  1  0
  1 42  1  0
  1 43  1  0
  2 44  1  0
  2 45  1  0
  3 46  1  0
  4 47  1  0
  5 48  1  0
  5 49  1  0
  6 50  1  0
  6 51  1  0
  7 52  1  0
  8 53  1  0
  9 54  1  0
  9 55  1  0
 10 56  1  0
 10 57  1  0
 11 58  1  0
 12 59  1  0
 13 60  1  0
 13 61  1  0
 14 62  1  0
 14 63  1  0
 15 64  1  0
 16 65  1  0
 17 66  1  0
 17 67  1  0
 18 68  1  0
 18 69  1  0
 19 70  1  0
 19 71  1  0
 20 72  1  0
 20 73  1  0
 20 74  1  0
 21 75  1  0
 21 76  1  0
 21 77  1  0
 22 78  1  0
 22 79  1  0
 23 80  1  0
 24 81  1  0
 25 82  1  0
 25 83  1  0
 26 84  1  0
 26 85  1  0
 27 86  1  0
 28 87  1  0
 29 88  1  0
 29 89  1  0
 30 90  1  0
 30 91  1  0
 31 92  1  0
 32 93  1  0
 33 94  1  0
 33 95  1  0
 34 96  1  0
 34 97  1  0
 35 98  1  0
 36 99  1  0
 37100  1  0
 37101  1  0
 38102  1  0
 38103  1  0
 39104  1  0
 39105  1  0
 40106  1  0
 40107  1  0
 40108  1  0
M  END
>  <PDBID>  (1) 
4ZN7

>  <PDB ID>  (1) 
4ZN7

>  <Generic Name>  (1) 
Diethylstilbestrol

>  <Brand Name>  (1) 
Honvol Ampoules 250mg#Honvol Tablets 100mg#Stilbestrol 0.5mg Tablet#Stilbestrol 1.0mg Tablet#Stilbestrol Tab 1mg#Stilbestrol Tablets 0.1 mg#Stilbestrol Tablets 0.5 mg#Stilbestrol Tablets 1.0 mg#Stilboestrol Tab 0.1mg#Stilboestrol Tab 0.5mg#Distilbene#Stilbestrol#Stilbetin

>  <DrugBank ID>  (1) 
DB00255

>  <ATC Codes>  (1) 
L02AA01#G03CC05#L02AA04#G03CB02

>  <Ligand ID>  (1) 
DES

>  <Target Name>  (1) 
Estrogen receptor

>  <UniProt ID>  (1) 
P03372

>  <PDB ID.1>  (1) 
4ZN7

>  <Seq. Identity>  (1) 
93%

$$$$
