PDB_DB01011_08
     RDKit          3D

 45 46  0  0  0  0  0  0  0  0999 V2000
    3.5063    1.5233    0.8257 N   0  0  0  0  0  0  0  0  0  0  0  0
    2.6261    1.7526   -0.3003 C   0  0  0  0  0  0  0  0  0  0  0  0
    1.8719    0.4641   -0.6873 C   0  0  0  0  0  0  0  0  0  0  0  0
    2.7593   -0.6560   -0.2579 C   0  0  0  0  0  0  0  0  0  0  0  0
    4.1874   -0.2236   -0.6531 C   0  0  0  0  0  0  0  0  0  0  0  0
    4.6467    0.7048    0.4638 C   0  0  0  0  0  0  0  0  0  0  0  0
    0.5349    0.5388   -0.0479 C   0  0  0  0  0  0  0  0  0  0  0  0
    0.6254    0.6161    1.3067 O   0  0  0  0  0  0  0  0  0  0  0  0
   -0.7547   -0.3507   -1.9960 C   0  0  0  0  0  0  0  0  0  0  0  0
   -0.4818   -0.4694   -0.5384 C   0  0  0  0  0  0  0  0  0  0  0  0
    0.0025   -1.8836   -0.2596 C   0  0  0  0  0  0  0  0  0  0  0  0
   -1.7565   -0.2473    0.2305 C   0  0  0  0  0  0  0  0  0  0  0  0
   -2.2935    1.1732    0.0656 C   0  0  0  0  0  0  0  0  0  0  0  0
   -3.5286    1.2803    0.8197 N   0  0  0  0  0  0  0  0  0  0  0  0
   -4.5854    0.4430    0.3515 C   0  0  0  0  0  0  0  0  0  0  0  0
   -4.1009   -1.0004    0.5573 C   0  0  0  0  0  0  0  0  0  0  0  0
   -2.8791   -1.1130   -0.3666 C   0  0  0  0  0  0  0  0  0  0  0  0
    3.0307    1.2303    1.6834 H   0  0  0  0  0  0  0  0  0  0  0  0
    1.9016    2.5360    0.0209 H   0  0  0  0  0  0  0  0  0  0  0  0
    3.1986    2.1548   -1.1356 H   0  0  0  0  0  0  0  0  0  0  0  0
    1.8492    0.4724   -1.7926 H   0  0  0  0  0  0  0  0  0  0  0  0
    2.8201   -0.8269    0.8241 H   0  0  0  0  0  0  0  0  0  0  0  0
    2.6107   -1.6065   -0.8073 H   0  0  0  0  0  0  0  0  0  0  0  0
    4.8407   -1.0961   -0.7655 H   0  0  0  0  0  0  0  0  0  0  0  0
    4.1290    0.3903   -1.5661 H   0  0  0  0  0  0  0  0  0  0  0  0
    5.5343    1.2836    0.2011 H   0  0  0  0  0  0  0  0  0  0  0  0
    4.9143    0.0670    1.3500 H   0  0  0  0  0  0  0  0  0  0  0  0
    0.1005    1.5370   -0.3859 H   0  0  0  0  0  0  0  0  0  0  0  0
    0.8587   -0.2028    1.7818 H   0  0  0  0  0  0  0  0  0  0  0  0
    0.1294   -0.6244   -2.6299 H   0  0  0  0  0  0  0  0  0  0  0  0
   -1.5046   -1.1516   -2.2542 H   0  0  0  0  0  0  0  0  0  0  0  0
   -1.1252    0.6522   -2.2287 H   0  0  0  0  0  0  0  0  0  0  0  0
   -0.8601   -2.4654    0.1018 H   0  0  0  0  0  0  0  0  0  0  0  0
    0.7252   -1.8992    0.5943 H   0  0  0  0  0  0  0  0  0  0  0  0
    0.3776   -2.3953   -1.1614 H   0  0  0  0  0  0  0  0  0  0  0  0
   -1.6849   -0.4714    1.2956 H   0  0  0  0  0  0  0  0  0  0  0  0
   -2.4981    1.4388   -0.9674 H   0  0  0  0  0  0  0  0  0  0  0  0
   -1.6265    1.9388    0.5122 H   0  0  0  0  0  0  0  0  0  0  0  0
   -3.3059    0.9829    1.8120 H   0  0  0  0  0  0  0  0  0  0  0  0
   -4.7674    0.5637   -0.7370 H   0  0  0  0  0  0  0  0  0  0  0  0
   -5.4669    0.6141    0.9664 H   0  0  0  0  0  0  0  0  0  0  0  0
   -3.8136   -1.1404    1.6091 H   0  0  0  0  0  0  0  0  0  0  0  0
   -4.8447   -1.7329    0.2215 H   0  0  0  0  0  0  0  0  0  0  0  0
   -2.6646   -2.1576   -0.4526 H   0  0  0  0  0  0  0  0  0  0  0  0
   -3.2379   -0.6434   -1.3305 H   0  0  0  0  0  0  0  0  0  0  0  0
  1  2  1  0
  2  3  1  0
  3  4  1  0
  4  5  1  0
  1  6  1  0
  5  6  1  0
  3  7  1  0
  7  8  1  0
 10  7  1  0
  9 10  1  0
 10 11  1  0
 10 12  1  0
 12 13  1  0
 13 14  1  0
 14 15  1  0
 15 16  1  0
 12 17  1  0
 16 17  1  0
  1 18  1  0
  2 19  1  0
  2 20  1  0
  3 21  1  0
  4 22  1  0
  4 23  1  0
  5 24  1  0
  5 25  1  0
  6 26  1  0
  6 27  1  0
  7 28  1  0
  8 29  1  0
  9 30  1  0
  9 31  1  0
  9 32  1  0
 11 33  1  0
 11 34  1  0
 11 35  1  0
 12 36  1  0
 13 37  1  0
 13 38  1  0
 14 39  1  0
 15 40  1  0
 15 41  1  0
 16 42  1  0
 16 43  1  0
 17 44  1  0
 17 45  1  0
M  END
>  <PDBID>  (1) 
1W0G

>  <PDB ID>  (1) 
1W0G

>  <Generic Name>  (1) 
Metyrapone

>  <Brand Name>  (1) 
Metopirone#Metopiron

>  <DrugBank ID>  (1) 
DB01011

>  <ATC Codes>  (1) 
V04CD01

>  <Ligand ID>  (1) 
MYT

>  <Target Name>  (1) 
Cytochrome P450 11B1, mitochondrial

>  <UniProt ID>  (1) 
P15538

>  <PDB ID.1>  (1) 
1W0G

>  <Seq. Identity>  (1) 
32%

$$$$
