PDB_DB11730_05
     RDKit          3D

 78 82  0  0  0  0  0  0  0  0999 V2000
    0.1796    1.0867    0.0510 C   0  0  2  0  0  0  0  0  0  0  0  0
   -0.7396   -0.4825    1.6201 C   0  0  0  0  0  0  0  0  0  0  0  0
   -2.0968    0.0359    1.1514 C   0  0  0  0  0  0  0  0  0  0  0  0
   -1.9366    0.2534   -0.3311 C   0  0  0  0  0  0  0  0  0  0  0  0
    4.3171   -0.9502   -1.1455 C   0  0  0  0  0  0  0  0  0  0  0  0
    2.8956   -0.9267   -1.2014 N   0  0  0  0  0  0  0  0  0  0  0  0
   -3.2046   -0.9563    1.2000 C   0  0  0  0  0  0  0  0  0  0  0  0
    4.1717   -0.1589    1.2101 C   0  0  0  0  0  0  0  0  0  0  0  0
    4.8784    0.0082   -0.1008 C   0  0  0  0  0  0  0  0  0  0  0  0
   -3.7922   -0.8560   -0.2061 C   0  0  0  0  0  0  0  0  0  0  0  0
    2.3571    0.2376   -0.4829 C   0  0  0  0  0  0  0  0  0  0  0  0
   -5.2492   -1.1171   -0.2844 C   0  0  2  0  0  0  0  0  0  0  0  0
   -4.5789    3.6508    0.1002 C   0  0  0  0  0  0  0  0  0  0  0  0
   -4.8659    3.4960   -1.3808 C   0  0  0  0  0  0  0  0  0  0  0  0
   -4.4034    2.1776    0.6081 C   0  0  0  0  0  0  0  0  0  0  0  0
   -4.9571    1.9754   -1.6343 C   0  0  0  0  0  0  0  0  0  0  0  0
    6.7920   -1.4425    0.2705 C   0  0  0  0  0  0  0  0  0  0  0  0
    7.0996    0.9316    0.2125 C   0  0  0  0  0  0  0  0  0  0  0  0
    8.2218   -1.2598    0.7236 C   0  0  0  0  0  0  0  0  0  0  0  0
    8.4472    0.7474   -0.4993 C   0  0  0  0  0  0  0  0  0  0  0  0
   -3.8935    1.5514   -0.5900 C   0  0  0  0  0  0  0  0  0  0  0  0
   -6.3952   -3.2112   -0.6694 C   0  0  0  0  0  0  0  0  0  0  0  0
   -5.7319   -2.6039    1.5837 C   0  0  0  0  0  0  0  0  0  0  0  0
    2.6826    0.0189    0.9768 C   0  0  0  0  0  0  0  0  0  0  0  0
    0.1272    0.7145    1.4485 N   0  0  0  0  0  0  0  0  0  0  0  0
   -1.1187    1.4090   -0.5070 N   0  0  0  0  0  0  0  0  0  0  0  0
   -3.2963    0.3552   -0.7870 N   0  0  0  0  0  0  0  0  0  0  0  0
    6.2807   -0.1785   -0.0944 N   0  0  0  0  0  0  0  0  0  0  0  0
    0.9074    0.1355   -0.7067 N   0  0  0  0  0  0  0  0  0  0  0  0
   -5.5725   -2.4216    0.1864 N   0  0  0  0  0  0  0  0  0  0  0  0
    8.9949   -0.5547   -0.2760 N   0  0  0  0  0  0  0  0  0  0  0  0
   -5.5691   -1.1517   -1.6740 O   0  0  0  0  0  0  0  0  0  0  0  0
   -0.7029   -0.7621    2.6613 H   0  0  0  0  0  0  0  0  0  0  0  0
    4.7605   -0.7954   -2.1439 H   0  0  0  0  0  0  0  0  0  0  0  0
   -3.9522   -0.7880    1.9886 H   0  0  0  0  0  0  0  0  0  0  0  0
    4.3458   -1.1979    1.5933 H   0  0  0  0  0  0  0  0  0  0  0  0
   -3.6253    4.1935    0.3035 H   0  0  0  0  0  0  0  0  0  0  0  0
   -5.4253    4.1438    0.5720 H   0  0  0  0  0  0  0  0  0  0  0  0
   -5.7470    4.0376   -1.7119 H   0  0  0  0  0  0  0  0  0  0  0  0
   -3.9705    3.8232   -1.9585 H   0  0  0  0  0  0  0  0  0  0  0  0
   -3.8276    2.3046    1.5033 H   0  0  0  0  0  0  0  0  0  0  0  0
   -5.4942    1.9214    0.8355 H   0  0  0  0  0  0  0  0  0  0  0  0
   -5.9608    1.6722   -1.3465 H   0  0  0  0  0  0  0  0  0  0  0  0
   -4.6628    1.7434   -2.6613 H   0  0  0  0  0  0  0  0  0  0  0  0
    6.7736   -2.1724   -0.6038 H   0  0  0  0  0  0  0  0  0  0  0  0
    6.2541   -1.9595    1.0923 H   0  0  0  0  0  0  0  0  0  0  0  0
    6.6227    1.8736   -0.1395 H   0  0  0  0  0  0  0  0  0  0  0  0
    7.3037    1.0613    1.2952 H   0  0  0  0  0  0  0  0  0  0  0  0
    8.2807   -0.6874    1.6652 H   0  0  0  0  0  0  0  0  0  0  0  0
    8.7206   -2.2468    0.8761 H   0  0  0  0  0  0  0  0  0  0  0  0
    8.2607    0.9003   -1.6026 H   0  0  0  0  0  0  0  0  0  0  0  0
    9.1304    1.5527   -0.2038 H   0  0  0  0  0  0  0  0  0  0  0  0
   -3.0487    2.3422   -0.9237 H   0  0  0  0  0  0  0  0  0  0  0  0
   -6.2794   -4.2869   -0.3646 H   0  0  0  0  0  0  0  0  0  0  0  0
   -7.4934   -3.0032   -0.5047 H   0  0  0  0  0  0  0  0  0  0  0  0
   -6.0893   -3.1342   -1.7071 H   0  0  0  0  0  0  0  0  0  0  0  0
   -4.7890   -3.0167    2.0477 H   0  0  0  0  0  0  0  0  0  0  0  0
   -6.1284   -1.7577    2.1621 H   0  0  0  0  0  0  0  0  0  0  0  0
   -6.4768   -3.4544    1.7182 H   0  0  0  0  0  0  0  0  0  0  0  0
    2.1424   -0.8386    1.3848 H   0  0  0  0  0  0  0  0  0  0  0  0
    0.8017    0.3912   -1.7363 H   0  0  0  0  0  0  0  0  0  0  0  0
    9.0038   -1.1167   -1.1656 H   0  0  0  0  0  0  0  0  0  0  0  0
    0.7621    2.0556    0.0375 H   0  0  0  0  0  0  0  0  0  0  0  0
   -0.4093   -1.2462    0.8974 H   0  0  0  0  0  0  0  0  0  0  0  0
   -2.2318    0.9530    1.7236 H   0  0  0  0  0  0  0  0  0  0  0  0
   -1.4429   -0.6717   -0.7739 H   0  0  0  0  0  0  0  0  0  0  0  0
    4.6447   -1.9650   -0.7973 H   0  0  0  0  0  0  0  0  0  0  0  0
    2.4652   -1.7674   -0.7357 H   0  0  0  0  0  0  0  0  0  0  0  0
   -2.7486   -1.9577    1.3932 H   0  0  0  0  0  0  0  0  0  0  0  0
    4.5596    0.6047    1.9215 H   0  0  0  0  0  0  0  0  0  0  0  0
    4.6739    1.0476   -0.4701 H   0  0  0  0  0  0  0  0  0  0  0  0
   -3.2766   -1.6694   -0.7628 H   0  0  0  0  0  0  0  0  0  0  0  0
    2.7209    1.1837   -0.8710 H   0  0  0  0  0  0  0  0  0  0  0  0
   -5.8939   -0.4036    0.2311 H   0  0  0  0  0  0  0  0  0  0  0  0
    2.4266    0.9926    1.5239 H   0  0  0  0  0  0  0  0  0  0  0  0
   -0.1441    1.4695    2.0812 H   0  0  0  0  0  0  0  0  0  0  0  0
   -0.9737    1.6838   -1.4894 H   0  0  0  0  0  0  0  0  0  0  0  0
   -4.8109   -1.5658   -2.1238 H   0  0  0  0  0  0  0  0  0  0  0  0
  2  3  1  0
  3  4  1  0
  5  6  1  0
  3  7  1  0
  5  9  1  0
  8  9  1  0
  7 10  1  0
  6 11  1  0
 10 12  1  0
 13 14  1  0
 13 15  1  0
 14 16  1  0
 17 19  1  0
 18 20  1  0
 15 21  1  0
 16 21  1  0
  8 24  1  0
 11 24  1  0
  1 25  1  0
  2 25  1  0
  1 26  1  0
  4 26  1  0
  4 27  1  0
 10 27  1  0
 21 27  1  0
  9 28  1  0
 17 28  1  0
 18 28  1  0
  1 29  1  0
 11 29  1  0
 12 30  1  0
 22 30  1  0
 23 30  1  0
 19 31  1  0
 20 31  1  0
 12 32  1  0
  2 33  1  0
  5 34  1  0
  7 35  1  0
  8 36  1  0
 13 37  1  0
 13 38  1  0
 14 39  1  0
 14 40  1  0
 15 41  1  0
 15 42  1  0
 16 43  1  0
 16 44  1  0
 17 45  1  0
 17 46  1  0
 18 47  1  0
 18 48  1  0
 19 49  1  0
 19 50  1  0
 20 51  1  0
 20 52  1  0
 21 53  1  0
 22 54  1  0
 22 55  1  0
 22 56  1  0
 23 57  1  0
 23 58  1  0
 23 59  1  0
 24 60  1  0
 29 61  1  0
 31 62  1  0
  1 63  1  1
  2 64  1  0
  3 65  1  0
  4 66  1  0
  5 67  1  0
  6 68  1  0
  7 69  1  0
  8 70  1  0
  9 71  1  0
 10 72  1  0
 11 73  1  0
 12 74  1  1
 24 75  1  0
 25 76  1  0
 26 77  1  0
 32 78  1  0
M  END
>  <PDBID>  (1) 
5L2T

>  <PDB ID>  (1) 
5L2T

>  <Generic Name>  (1) 
Ribociclib

>  <Brand Name>  (1) 
Kisqali

>  <DrugBank ID>  (1) 
DB11730

>  <ATC Codes>  (1) 
nan

>  <Ligand ID>  (1) 
6ZZ

>  <Target Name>  (1) 
Cyclin-dependent kinase 6

>  <UniProt ID>  (1) 
Q00534

>  <PDB ID.1>  (1) 
5L2T

>  <Seq. Identity>  (1) 
100%

$$$$
