PDB_DB00513_07
     RDKit          3D

 25 24  0  0  0  0  0  0  0  0999 V2000
   -3.0474    0.1950    0.7229 C   0  0  0  0  0  0  0  0  0  0  0  0
   -3.8364    0.5809   -0.3618 O   0  0  0  0  0  0  0  0  0  0  0  0
   -3.1737   -1.1891    0.8595 O   0  0  0  0  0  0  0  0  0  0  0  0
   -1.5958    0.5364    0.4981 C   0  0  0  0  0  0  0  0  0  0  0  0
   -1.0934   -0.1758   -0.7339 C   0  0  0  0  0  0  0  0  0  0  0  0
    0.3602    0.1290   -1.0125 C   0  0  0  0  0  0  0  0  0  0  0  0
    1.2456   -0.2958    0.1376 C   0  0  0  0  0  0  0  0  0  0  0  0
    2.6716    0.0451   -0.2294 C   0  0  0  0  0  0  0  0  0  0  0  0
    3.6142   -0.3108    0.7864 N   0  0  0  0  0  0  0  0  0  0  0  0
   -1.4201    1.6115    0.4648 H   0  0  0  0  0  0  0  0  0  0  0  0
   -1.0467    0.1084    1.3889 H   0  0  0  0  0  0  0  0  0  0  0  0
   -1.1668   -1.2698   -0.5839 H   0  0  0  0  0  0  0  0  0  0  0  0
   -1.7372    0.0689   -1.5949 H   0  0  0  0  0  0  0  0  0  0  0  0
    0.5163    1.1936   -1.2837 H   0  0  0  0  0  0  0  0  0  0  0  0
    0.6408   -0.4588   -1.9175 H   0  0  0  0  0  0  0  0  0  0  0  0
    0.9424    0.3410    1.0202 H   0  0  0  0  0  0  0  0  0  0  0  0
    1.0797   -1.3512    0.3454 H   0  0  0  0  0  0  0  0  0  0  0  0
    2.8955   -0.4564   -1.1778 H   0  0  0  0  0  0  0  0  0  0  0  0
    2.7112    1.1483   -0.3611 H   0  0  0  0  0  0  0  0  0  0  0  0
    4.0006    0.5395    1.2962 H   0  0  0  0  0  0  0  0  0  0  0  0
    3.2584   -0.9977    1.4863 H   0  0  0  0  0  0  0  0  0  0  0  0
    4.4475   -0.7311    0.3150 H   0  0  0  0  0  0  0  0  0  0  0  0
   -3.4222    0.7058    1.6353 H   0  0  0  0  0  0  0  0  0  0  0  0
   -3.5219    1.4418   -0.7378 H   0  0  0  0  0  0  0  0  0  0  0  0
   -3.3225   -1.4087    1.8164 H   0  0  0  0  0  0  0  0  0  0  0  0
  1  2  1  0
  1  3  1  0
  1  4  1  0
  4  5  1  0
  5  6  1  0
  6  7  1  0
  7  8  1  0
  8  9  1  0
  4 10  1  0
  4 11  1  0
  5 12  1  0
  5 13  1  0
  6 14  1  0
  6 15  1  0
  7 16  1  0
  7 17  1  0
  8 18  1  0
  8 19  1  0
  9 20  1  0
  9 21  1  0
 22  9  1  0
  1 23  1  0
  2 24  1  0
  3 25  1  0
M  CHG  1   9   1
M  END
>  <PDBID>  (1) 
1HPK

>  <PDB ID>  (1) 
1HPK

>  <Generic Name>  (1) 
Aminocaproic Acid

>  <Brand Name>  (1) 
Amicar#Aminocaproic Acid#Exoden White Tooth#Acepramin#Amocap#Caproamin#Caprocat#Caprolisin#E-Capro#Epsicaprom#Hemocid#Inselon#Ipron#Ipsilon#Kai Nai Yin#Minocap#Plaslloid#Resplamin

>  <DrugBank ID>  (1) 
DB00513

>  <ATC Codes>  (1) 
B02AA01

>  <Ligand ID>  (1) 
ACA

>  <Target Name>  (1) 
Plasminogen

>  <UniProt ID>  (1) 
P00747

>  <PDB ID.1>  (1) 
1HPK

>  <Seq. Identity>  (1) 
100%

$$$$
