PDB_DB08881_08
     RDKit          3D

 75 78  0  0  0  0  0  0  0  0999 V2000
   -6.7397    2.7287    0.8553 C   0  0  0  0  0  0  0  0  0  0  0  0
   -0.4424   -2.9534   -0.0177 C   0  0  0  0  0  0  0  0  0  0  0  0
    0.2809   -0.6469    0.5080 C   0  0  0  0  0  0  0  0  0  0  0  0
    2.7025   -0.0523    0.5075 C   0  0  0  0  0  0  0  0  0  0  0  0
    4.0156   -0.5252   -0.0776 C   0  0  0  0  0  0  0  0  0  0  0  0
    4.0654   -0.2625   -1.5488 C   0  0  0  0  0  0  0  0  0  0  0  0
    1.5854   -0.5876   -1.6255 C   0  0  0  0  0  0  0  0  0  0  0  0
   -4.3460   -0.5622    0.2865 C   0  0  0  0  0  0  0  0  0  0  0  0
   -4.7885   -1.9278   -0.1759 C   0  0  0  0  0  0  0  0  0  0  0  0
   -3.7246   -2.8675   -0.3127 N   0  0  0  0  0  0  0  0  0  0  0  0
   -2.9072   -0.3009   -0.0916 C   0  0  0  0  0  0  0  0  0  0  0  0
   -1.6409   -3.6522    0.3963 N   0  0  0  0  0  0  0  0  0  0  0  0
   -0.7655   -1.5074   -0.1561 C   0  0  0  0  0  0  0  0  0  0  0  0
   -2.0532   -1.3304    0.6163 C   0  0  0  0  0  0  0  0  0  0  0  0
   -2.6623   -2.6888    0.6486 C   0  0  0  0  0  0  0  0  0  0  0  0
   -5.1893    0.5302   -0.3639 C   0  0  0  0  0  0  0  0  0  0  0  0
    1.6051   -0.9056   -0.1449 C   0  0  0  0  0  0  0  0  0  0  0  0
    2.7403    0.2458   -2.0830 C   0  0  0  0  0  0  0  0  0  0  0  0
    1.5807   -1.8046   -2.3122 F   0  0  0  0  0  0  0  0  0  0  0  0
    2.4825    1.2825    0.3626 F   0  0  0  0  0  0  0  0  0  0  0  0
    5.1501    0.0028    0.6563 N   0  0  0  0  0  0  0  0  0  0  0  0
    6.5655   -0.2351    0.3623 S   0  0  0  0  0  0  0  0  0  0  0  0
    7.3529   -1.0509   -0.4918 O   0  0  0  0  0  0  0  0  0  0  0  0
    7.0873   -1.2446    2.1050 O   0  0  0  0  0  0  0  0  0  0  0  0
    7.5553    1.1598    1.0040 C   0  0  0  0  0  0  0  0  0  0  0  0
    7.0645    2.3946    0.2789 C   0  0  0  0  0  0  0  0  0  0  0  0
    5.6191    2.6704    0.5169 C   0  0  0  0  0  0  0  0  0  0  0  0
   -6.6419    0.3795   -0.0207 C   0  0  0  0  0  0  0  0  0  0  0  0
   -7.0939    1.2934    1.0866 C   0  0  0  0  0  0  0  0  0  0  0  0
   -5.7236    2.9015   -0.2527 C   0  0  0  0  0  0  0  0  0  0  0  0
   -4.6231    1.8635   -0.0012 C   0  0  0  0  0  0  0  0  0  0  0  0
   -6.0120    3.3659    2.3461 Cl  0  0  0  0  0  0  0  0  0  0  0  0
   -0.0734    0.7015    0.4749 O   0  0  0  0  0  0  0  0  0  0  0  0
   -7.6174    3.3489    0.5771 H   0  0  0  0  0  0  0  0  0  0  0  0
    0.3987   -3.1777    0.6742 H   0  0  0  0  0  0  0  0  0  0  0  0
   -0.1635   -3.3721   -1.0090 H   0  0  0  0  0  0  0  0  0  0  0  0
    0.3908   -0.9105    1.5878 H   0  0  0  0  0  0  0  0  0  0  0  0
    2.7157   -0.2647    1.6064 H   0  0  0  0  0  0  0  0  0  0  0  0
    4.0373   -1.6401    0.1039 H   0  0  0  0  0  0  0  0  0  0  0  0
    4.2699   -1.2270   -2.0998 H   0  0  0  0  0  0  0  0  0  0  0  0
    4.8470    0.4331   -1.8800 H   0  0  0  0  0  0  0  0  0  0  0  0
    0.6575   -0.0314   -1.8979 H   0  0  0  0  0  0  0  0  0  0  0  0
   -4.4212   -0.4356    1.3814 H   0  0  0  0  0  0  0  0  0  0  0  0
   -5.2798   -1.7950   -1.1622 H   0  0  0  0  0  0  0  0  0  0  0  0
   -5.5565   -2.3562    0.5262 H   0  0  0  0  0  0  0  0  0  0  0  0
   -3.3972   -3.0217   -1.2742 H   0  0  0  0  0  0  0  0  0  0  0  0
   -2.6187    0.6893    0.3434 H   0  0  0  0  0  0  0  0  0  0  0  0
   -2.7281   -0.3536   -1.1746 H   0  0  0  0  0  0  0  0  0  0  0  0
   -1.4677   -4.3103    1.1885 H   0  0  0  0  0  0  0  0  0  0  0  0
   -0.8748   -1.1781   -1.2070 H   0  0  0  0  0  0  0  0  0  0  0  0
   -1.8324   -0.9796    1.6455 H   0  0  0  0  0  0  0  0  0  0  0  0
   -3.0764   -2.8931    1.6723 H   0  0  0  0  0  0  0  0  0  0  0  0
   -5.0974    0.3899   -1.4715 H   0  0  0  0  0  0  0  0  0  0  0  0
    1.8957   -1.9538    0.0643 H   0  0  0  0  0  0  0  0  0  0  0  0
    2.6002    1.3316   -1.9247 H   0  0  0  0  0  0  0  0  0  0  0  0
    2.8031    0.1202   -3.2021 H   0  0  0  0  0  0  0  0  0  0  0  0
    4.7939    0.0749    1.6608 H   0  0  0  0  0  0  0  0  0  0  0  0
    7.8664   -0.9801   -1.3166 H   0  0  0  0  0  0  0  0  0  0  0  0
    6.5797   -2.0241    1.7204 H   0  0  0  0  0  0  0  0  0  0  0  0
    7.3831    1.2455    2.0962 H   0  0  0  0  0  0  0  0  0  0  0  0
    8.5941    0.9867    0.7209 H   0  0  0  0  0  0  0  0  0  0  0  0
    7.7085    3.2442    0.5838 H   0  0  0  0  0  0  0  0  0  0  0  0
    7.2122    2.2787   -0.8135 H   0  0  0  0  0  0  0  0  0  0  0  0
    5.2866    2.4105    1.5427 H   0  0  0  0  0  0  0  0  0  0  0  0
    5.0230    2.1871   -0.2615 H   0  0  0  0  0  0  0  0  0  0  0  0
    5.4907    3.7871    0.4032 H   0  0  0  0  0  0  0  0  0  0  0  0
   -7.3088    0.5870   -0.9010 H   0  0  0  0  0  0  0  0  0  0  0  0
   -6.9080   -0.6607    0.2985 H   0  0  0  0  0  0  0  0  0  0  0  0
   -8.2214    1.2371    1.0950 H   0  0  0  0  0  0  0  0  0  0  0  0
   -6.7489    0.8993    2.0645 H   0  0  0  0  0  0  0  0  0  0  0  0
   -6.1633    2.7039   -1.2417 H   0  0  0  0  0  0  0  0  0  0  0  0
   -5.3112    3.9349   -0.1919 H   0  0  0  0  0  0  0  0  0  0  0  0
   -4.3367    1.9353    1.0542 H   0  0  0  0  0  0  0  0  0  0  0  0
   -3.7299    2.1078   -0.6130 H   0  0  0  0  0  0  0  0  0  0  0  0
    0.2795    1.2183    1.2304 H   0  0  0  0  0  0  0  0  0  0  0  0
  4  5  1  0
  5  6  1  0
  8  9  1  0
  9 10  1  0
  8 11  1  0
  2 12  1  0
  2 13  1  0
  3 13  1  0
 11 14  1  0
 13 14  1  0
 10 15  1  0
 12 15  1  0
 14 15  1  0
  8 16  1  0
  3 17  1  0
  4 17  1  0
  7 17  1  0
  6 18  1  0
  7 18  1  0
  7 19  1  0
  4 20  1  0
  5 21  1  0
 21 22  1  0
 22 23  1  0
 22 24  1  0
 22 25  1  0
 25 26  1  0
 26 27  1  0
 16 28  1  0
  1 29  1  0
 28 29  1  0
  1 30  1  0
 16 31  1  0
 30 31  1  0
  1 32  1  0
  3 33  1  0
  1 34  1  0
  2 35  1  0
  2 36  1  0
  3 37  1  0
  4 38  1  0
  5 39  1  0
  6 40  1  0
  6 41  1  0
  7 42  1  0
  8 43  1  0
  9 44  1  0
  9 45  1  0
 10 46  1  0
 11 47  1  0
 11 48  1  0
 12 49  1  0
 13 50  1  0
 14 51  1  0
 15 52  1  0
 16 53  1  0
 17 54  1  0
 18 55  1  0
 18 56  1  0
 21 57  1  0
 23 58  1  0
 24 59  1  0
 25 60  1  0
 25 61  1  0
 26 62  1  0
 26 63  1  0
 27 64  1  0
 27 65  1  0
 27 66  1  0
 28 67  1  0
 28 68  1  0
 29 69  1  0
 29 70  1  0
 30 71  1  0
 30 72  1  0
 31 73  1  0
 31 74  1  0
 33 75  1  0
M  END
>  <PDBID>  (1) 
3OG7

>  <PDB ID>  (1) 
3OG7

>  <Generic Name>  (1) 
Vemurafenib

>  <Brand Name>  (1) 
Zelboraf

>  <DrugBank ID>  (1) 
DB08881

>  <ATC Codes>  (1) 
L01XE15

>  <Ligand ID>  (1) 
32

>  <Target Name>  (1) 
Serine/threonine-protein kinase B-raf

>  <UniProt ID>  (1) 
P15056

>  <PDB ID.1>  (1) 
3OG7

>  <Seq. Identity>  (1) 
94%

$$$$
