PDB_DB00642_09
     RDKit          3D

288296  0  0  0  0  0  0  0  0999 V2000
    0.5256   -0.4997   -1.4532 C   0  0  0  0  0  0  0  0  0  0  0  0
   -0.8560   -0.1538   -1.9533 C   0  0  0  0  0  0  0  0  0  0  0  0
   -1.8895   -0.2184   -0.8354 C   0  0  0  0  0  0  0  0  0  0  0  0
   -1.9176   -1.6601   -0.4202 C   0  0  0  0  0  0  0  0  0  0  0  0
   -0.6100   -1.8797    0.3204 C   0  0  0  0  0  0  0  0  0  0  0  0
    0.5669   -1.7127   -0.5981 C   0  0  0  0  0  0  0  0  0  0  0  0
    1.1045    0.7322   -0.8109 C   0  0  0  0  0  0  0  0  0  0  0  0
    2.4806    0.5957   -0.2588 C   0  0  0  0  0  0  0  0  0  0  0  0
    3.5086    0.2213   -1.2808 C   0  0  0  0  0  0  0  0  0  0  0  0
    3.5544    1.2924   -2.3677 C   0  0  0  0  0  0  0  0  0  0  0  0
    4.8794    1.8811   -2.3368 N   0  0  0  0  0  0  0  0  0  0  0  0
    5.2481    1.7237   -0.9443 C   0  0  0  0  0  0  0  0  0  0  0  0
    4.9033    0.2375   -0.7755 C   0  0  0  0  0  0  0  0  0  0  0  0
    5.1120   -0.0597    0.6619 C   0  0  0  0  0  0  0  0  0  0  0  0
    4.3970    0.7658    1.5336 O   0  0  0  0  0  0  0  0  0  0  0  0
    6.4891    0.1101    0.9696 N   0  0  0  0  0  0  0  0  0  0  0  0
    7.2548    0.9700    0.1806 C   0  0  0  0  0  0  0  0  0  0  0  0
    6.6278    1.8854   -0.6789 N   0  0  0  0  0  0  0  0  0  0  0  0
    8.1882    0.1560   -0.6173 N   0  0  0  0  0  0  0  0  0  0  0  0
   -3.0805   -2.1725    0.3007 C   0  0  0  0  0  0  0  0  0  0  0  0
   -2.8135   -3.5589    0.5560 O   0  0  0  0  0  0  0  0  0  0  0  0
   -3.5257   -1.6308    1.5044 N   0  0  0  0  0  0  0  0  0  0  0  0
   -4.0338   -0.3073    1.5636 C   0  0  1  0  0  0  0  0  0  0  0  0
   -5.2855   -0.1384    0.7054 C   0  0  0  0  0  0  0  0  0  0  0  0
   -5.7967    1.2639    0.7669 C   0  0  0  0  0  0  0  0  0  0  0  0
   -7.0326    1.4385   -0.1011 C   0  0  0  0  0  0  0  0  0  0  0  0
   -6.6908    1.1291   -1.4194 O   0  0  0  0  0  0  0  0  0  0  0  0
   -8.0608    0.6237    0.3040 O   0  0  0  0  0  0  0  0  0  0  0  0
   -4.4823   -0.0181    3.0079 C   0  0  0  0  0  0  0  0  0  0  0  0
   -3.3236   -0.1874    3.8025 O   0  0  0  0  0  0  0  0  0  0  0  0
   -5.4918   -0.8492    3.4228 O   0  0  0  0  0  0  0  0  0  0  0  0
    0.5256   -0.4997   -1.4532 C   0  0  0  0  0  0  0  0  0  0  0  0
   -0.8560   -0.1538   -1.9533 C   0  0  0  0  0  0  0  0  0  0  0  0
   -1.8895   -0.2184   -0.8354 C   0  0  0  0  0  0  0  0  0  0  0  0
   -1.9176   -1.6601   -0.4202 C   0  0  0  0  0  0  0  0  0  0  0  0
   -0.6100   -1.8797    0.3204 C   0  0  0  0  0  0  0  0  0  0  0  0
    0.5669   -1.7127   -0.5981 C   0  0  0  0  0  0  0  0  0  0  0  0
    1.1045    0.7322   -0.8109 C   0  0  0  0  0  0  0  0  0  0  0  0
    2.4806    0.5957   -0.2588 C   0  0  0  0  0  0  0  0  0  0  0  0
    3.5086    0.2213   -1.2808 C   0  0  0  0  0  0  0  0  0  0  0  0
    3.5544    1.2924   -2.3677 C   0  0  0  0  0  0  0  0  0  0  0  0
    4.8794    1.8811   -2.3368 N   0  0  0  0  0  0  0  0  0  0  0  0
    5.2481    1.7237   -0.9443 C   0  0  0  0  0  0  0  0  0  0  0  0
    4.9033    0.2375   -0.7755 C   0  0  0  0  0  0  0  0  0  0  0  0
    5.1120   -0.0597    0.6619 C   0  0  0  0  0  0  0  0  0  0  0  0
    4.3970    0.7658    1.5336 O   0  0  0  0  0  0  0  0  0  0  0  0
    6.4891    0.1101    0.9696 N   0  0  0  0  0  0  0  0  0  0  0  0
    7.2548    0.9700    0.1806 C   0  0  0  0  0  0  0  0  0  0  0  0
    6.6278    1.8854   -0.6789 N   0  0  0  0  0  0  0  0  0  0  0  0
    8.1882    0.1560   -0.6173 N   0  0  0  0  0  0  0  0  0  0  0  0
   -3.0805   -2.1725    0.3007 C   0  0  0  0  0  0  0  0  0  0  0  0
   -2.8135   -3.5589    0.5560 O   0  0  0  0  0  0  0  0  0  0  0  0
   -3.5257   -1.6308    1.5044 N   0  0  0  0  0  0  0  0  0  0  0  0
   -4.0338   -0.3073    1.5636 C   0  0  1  0  0  0  0  0  0  0  0  0
   -5.2855   -0.1384    0.7054 C   0  0  0  0  0  0  0  0  0  0  0  0
   -5.7967    1.2639    0.7669 C   0  0  0  0  0  0  0  0  0  0  0  0
   -7.0326    1.4385   -0.1011 C   0  0  0  0  0  0  0  0  0  0  0  0
   -6.6908    1.1291   -1.4194 O   0  0  0  0  0  0  0  0  0  0  0  0
   -8.0608    0.6237    0.3040 O   0  0  0  0  0  0  0  0  0  0  0  0
   -4.4823   -0.0181    3.0079 C   0  0  0  0  0  0  0  0  0  0  0  0
   -3.3236   -0.1874    3.8025 O   0  0  0  0  0  0  0  0  0  0  0  0
   -5.4918   -0.8492    3.4228 O   0  0  0  0  0  0  0  0  0  0  0  0
    0.5256   -0.4997   -1.4532 C   0  0  0  0  0  0  0  0  0  0  0  0
   -0.8560   -0.1538   -1.9533 C   0  0  0  0  0  0  0  0  0  0  0  0
   -1.8895   -0.2184   -0.8354 C   0  0  0  0  0  0  0  0  0  0  0  0
   -1.9176   -1.6601   -0.4202 C   0  0  0  0  0  0  0  0  0  0  0  0
   -0.6100   -1.8797    0.3204 C   0  0  0  0  0  0  0  0  0  0  0  0
    0.5669   -1.7127   -0.5981 C   0  0  0  0  0  0  0  0  0  0  0  0
    1.1045    0.7322   -0.8109 C   0  0  0  0  0  0  0  0  0  0  0  0
    2.4806    0.5957   -0.2588 C   0  0  0  0  0  0  0  0  0  0  0  0
    3.5086    0.2213   -1.2808 C   0  0  0  0  0  0  0  0  0  0  0  0
    3.5544    1.2924   -2.3677 C   0  0  0  0  0  0  0  0  0  0  0  0
    4.8794    1.8811   -2.3368 N   0  0  0  0  0  0  0  0  0  0  0  0
    5.2481    1.7237   -0.9443 C   0  0  0  0  0  0  0  0  0  0  0  0
    4.9033    0.2375   -0.7755 C   0  0  0  0  0  0  0  0  0  0  0  0
    5.1120   -0.0597    0.6619 C   0  0  0  0  0  0  0  0  0  0  0  0
    4.3970    0.7658    1.5336 O   0  0  0  0  0  0  0  0  0  0  0  0
    6.4891    0.1101    0.9696 N   0  0  0  0  0  0  0  0  0  0  0  0
    7.2548    0.9700    0.1806 C   0  0  0  0  0  0  0  0  0  0  0  0
    6.6278    1.8854   -0.6789 N   0  0  0  0  0  0  0  0  0  0  0  0
    8.1882    0.1560   -0.6173 N   0  0  0  0  0  0  0  0  0  0  0  0
   -3.0805   -2.1725    0.3007 C   0  0  0  0  0  0  0  0  0  0  0  0
   -2.8135   -3.5589    0.5560 O   0  0  0  0  0  0  0  0  0  0  0  0
   -3.5257   -1.6308    1.5044 N   0  0  0  0  0  0  0  0  0  0  0  0
   -4.0338   -0.3073    1.5636 C   0  0  1  0  0  0  0  0  0  0  0  0
   -5.2855   -0.1384    0.7054 C   0  0  0  0  0  0  0  0  0  0  0  0
   -5.7967    1.2639    0.7669 C   0  0  0  0  0  0  0  0  0  0  0  0
   -7.0326    1.4385   -0.1011 C   0  0  0  0  0  0  0  0  0  0  0  0
   -6.6908    1.1291   -1.4194 O   0  0  0  0  0  0  0  0  0  0  0  0
   -8.0608    0.6237    0.3040 O   0  0  0  0  0  0  0  0  0  0  0  0
   -4.4823   -0.0181    3.0079 C   0  0  0  0  0  0  0  0  0  0  0  0
   -3.3236   -0.1874    3.8025 O   0  0  0  0  0  0  0  0  0  0  0  0
   -5.4918   -0.8492    3.4228 O   0  0  0  0  0  0  0  0  0  0  0  0
    0.5256   -0.4997   -1.4532 C   0  0  0  0  0  0  0  0  0  0  0  0
   -0.8560   -0.1538   -1.9533 C   0  0  0  0  0  0  0  0  0  0  0  0
   -1.8895   -0.2184   -0.8354 C   0  0  0  0  0  0  0  0  0  0  0  0
   -1.9176   -1.6601   -0.4202 C   0  0  0  0  0  0  0  0  0  0  0  0
   -0.6100   -1.8797    0.3204 C   0  0  0  0  0  0  0  0  0  0  0  0
    0.5669   -1.7127   -0.5981 C   0  0  0  0  0  0  0  0  0  0  0  0
    1.1045    0.7322   -0.8109 C   0  0  0  0  0  0  0  0  0  0  0  0
    2.4806    0.5957   -0.2588 C   0  0  0  0  0  0  0  0  0  0  0  0
    3.5086    0.2213   -1.2808 C   0  0  0  0  0  0  0  0  0  0  0  0
    3.5544    1.2924   -2.3677 C   0  0  0  0  0  0  0  0  0  0  0  0
    4.8794    1.8811   -2.3368 N   0  0  0  0  0  0  0  0  0  0  0  0
    5.2481    1.7237   -0.9443 C   0  0  0  0  0  0  0  0  0  0  0  0
    4.9033    0.2375   -0.7755 C   0  0  0  0  0  0  0  0  0  0  0  0
    5.1120   -0.0597    0.6619 C   0  0  0  0  0  0  0  0  0  0  0  0
    4.3970    0.7658    1.5336 O   0  0  0  0  0  0  0  0  0  0  0  0
    6.4891    0.1101    0.9696 N   0  0  0  0  0  0  0  0  0  0  0  0
    7.2548    0.9700    0.1806 C   0  0  0  0  0  0  0  0  0  0  0  0
    6.6278    1.8854   -0.6789 N   0  0  0  0  0  0  0  0  0  0  0  0
    8.1882    0.1560   -0.6173 N   0  0  0  0  0  0  0  0  0  0  0  0
   -3.0805   -2.1725    0.3007 C   0  0  0  0  0  0  0  0  0  0  0  0
   -2.8135   -3.5589    0.5560 O   0  0  0  0  0  0  0  0  0  0  0  0
   -3.5257   -1.6308    1.5044 N   0  0  0  0  0  0  0  0  0  0  0  0
   -4.0338   -0.3073    1.5636 C   0  0  1  0  0  0  0  0  0  0  0  0
   -5.2855   -0.1384    0.7054 C   0  0  0  0  0  0  0  0  0  0  0  0
   -5.7967    1.2639    0.7669 C   0  0  0  0  0  0  0  0  0  0  0  0
   -7.0326    1.4385   -0.1011 C   0  0  0  0  0  0  0  0  0  0  0  0
   -6.6908    1.1291   -1.4194 O   0  0  0  0  0  0  0  0  0  0  0  0
   -8.0608    0.6237    0.3040 O   0  0  0  0  0  0  0  0  0  0  0  0
   -4.4823   -0.0181    3.0079 C   0  0  0  0  0  0  0  0  0  0  0  0
   -3.3236   -0.1874    3.8025 O   0  0  0  0  0  0  0  0  0  0  0  0
   -5.4918   -0.8492    3.4228 O   0  0  0  0  0  0  0  0  0  0  0  0
    1.1410   -0.7071   -2.3614 H   0  0  0  0  0  0  0  0  0  0  0  0
   -1.2065   -0.8253   -2.7569 H   0  0  0  0  0  0  0  0  0  0  0  0
   -0.8546    0.8817   -2.3293 H   0  0  0  0  0  0  0  0  0  0  0  0
   -1.4910    0.4442   -0.0320 H   0  0  0  0  0  0  0  0  0  0  0  0
   -2.8378    0.1465   -1.2528 H   0  0  0  0  0  0  0  0  0  0  0  0
   -1.8449   -2.2447   -1.3928 H   0  0  0  0  0  0  0  0  0  0  0  0
   -0.5804   -1.1939    1.1903 H   0  0  0  0  0  0  0  0  0  0  0  0
   -0.6343   -2.9109    0.7194 H   0  0  0  0  0  0  0  0  0  0  0  0
    1.4821   -1.7291   -0.0005 H   0  0  0  0  0  0  0  0  0  0  0  0
    0.5960   -2.6475   -1.2317 H   0  0  0  0  0  0  0  0  0  0  0  0
    0.4134    0.9901    0.0513 H   0  0  0  0  0  0  0  0  0  0  0  0
    0.9875    1.6076   -1.4904 H   0  0  0  0  0  0  0  0  0  0  0  0
    2.7306    1.6322    0.1436 H   0  0  0  0  0  0  0  0  0  0  0  0
    2.4933   -0.1418    0.5476 H   0  0  0  0  0  0  0  0  0  0  0  0
    3.2718   -0.7803   -1.6790 H   0  0  0  0  0  0  0  0  0  0  0  0
    2.8508    2.1230   -2.1168 H   0  0  0  0  0  0  0  0  0  0  0  0
    3.3295    0.8519   -3.3612 H   0  0  0  0  0  0  0  0  0  0  0  0
    5.5032    1.2607   -2.8968 H   0  0  0  0  0  0  0  0  0  0  0  0
    4.5678    2.3595   -0.3379 H   0  0  0  0  0  0  0  0  0  0  0  0
    5.6004   -0.3386   -1.3806 H   0  0  0  0  0  0  0  0  0  0  0  0
    4.7798   -1.1058    0.8889 H   0  0  0  0  0  0  0  0  0  0  0  0
    4.0566    0.2760    2.3123 H   0  0  0  0  0  0  0  0  0  0  0  0
    6.9203   -0.7983    1.2340 H   0  0  0  0  0  0  0  0  0  0  0  0
    7.9393    1.5589    0.8654 H   0  0  0  0  0  0  0  0  0  0  0  0
    6.8341    2.9041   -0.4392 H   0  0  0  0  0  0  0  0  0  0  0  0
    8.2621    0.5252   -1.5898 H   0  0  0  0  0  0  0  0  0  0  0  0
    7.9191   -0.8483   -0.5843 H   0  0  0  0  0  0  0  0  0  0  0  0
   -3.9800   -2.2647   -0.4145 H   0  0  0  0  0  0  0  0  0  0  0  0
   -3.6673   -4.0166    0.7607 H   0  0  0  0  0  0  0  0  0  0  0  0
   -3.0882   -1.9411    2.3744 H   0  0  0  0  0  0  0  0  0  0  0  0
   -3.3222    0.4359    1.2572 H   0  0  0  0  0  0  0  0  0  0  0  0
   -6.0755   -0.7923    1.1894 H   0  0  0  0  0  0  0  0  0  0  0  0
   -5.1674   -0.5292   -0.3093 H   0  0  0  0  0  0  0  0  0  0  0  0
   -6.1348    1.5072    1.8009 H   0  0  0  0  0  0  0  0  0  0  0  0
   -5.0100    1.9901    0.4896 H   0  0  0  0  0  0  0  0  0  0  0  0
   -7.3662    2.4971   -0.0851 H   0  0  0  0  0  0  0  0  0  0  0  0
   -7.3719    0.6171   -1.9052 H   0  0  0  0  0  0  0  0  0  0  0  0
   -8.2006    0.6766    1.2762 H   0  0  0  0  0  0  0  0  0  0  0  0
   -4.7682    1.0310    3.1551 H   0  0  0  0  0  0  0  0  0  0  0  0
   -2.7162    0.6005    3.6851 H   0  0  0  0  0  0  0  0  0  0  0  0
   -5.3103   -1.0815    4.3725 H   0  0  0  0  0  0  0  0  0  0  0  0
    1.1410   -0.7071   -2.3614 H   0  0  0  0  0  0  0  0  0  0  0  0
   -1.2065   -0.8253   -2.7569 H   0  0  0  0  0  0  0  0  0  0  0  0
   -0.8546    0.8817   -2.3293 H   0  0  0  0  0  0  0  0  0  0  0  0
   -1.4910    0.4442   -0.0320 H   0  0  0  0  0  0  0  0  0  0  0  0
   -2.8378    0.1465   -1.2528 H   0  0  0  0  0  0  0  0  0  0  0  0
   -1.8449   -2.2447   -1.3928 H   0  0  0  0  0  0  0  0  0  0  0  0
   -0.5804   -1.1939    1.1903 H   0  0  0  0  0  0  0  0  0  0  0  0
   -0.6343   -2.9109    0.7194 H   0  0  0  0  0  0  0  0  0  0  0  0
    1.4821   -1.7291   -0.0005 H   0  0  0  0  0  0  0  0  0  0  0  0
    0.5960   -2.6475   -1.2317 H   0  0  0  0  0  0  0  0  0  0  0  0
    0.4134    0.9901    0.0513 H   0  0  0  0  0  0  0  0  0  0  0  0
    0.9875    1.6076   -1.4904 H   0  0  0  0  0  0  0  0  0  0  0  0
    2.7306    1.6322    0.1436 H   0  0  0  0  0  0  0  0  0  0  0  0
    2.4933   -0.1418    0.5476 H   0  0  0  0  0  0  0  0  0  0  0  0
    3.2718   -0.7803   -1.6790 H   0  0  0  0  0  0  0  0  0  0  0  0
    2.8508    2.1230   -2.1168 H   0  0  0  0  0  0  0  0  0  0  0  0
    3.3295    0.8519   -3.3612 H   0  0  0  0  0  0  0  0  0  0  0  0
    5.5032    1.2607   -2.8968 H   0  0  0  0  0  0  0  0  0  0  0  0
    4.5678    2.3595   -0.3379 H   0  0  0  0  0  0  0  0  0  0  0  0
    5.6004   -0.3386   -1.3806 H   0  0  0  0  0  0  0  0  0  0  0  0
    4.7798   -1.1058    0.8889 H   0  0  0  0  0  0  0  0  0  0  0  0
    4.0566    0.2760    2.3123 H   0  0  0  0  0  0  0  0  0  0  0  0
    6.9203   -0.7983    1.2340 H   0  0  0  0  0  0  0  0  0  0  0  0
    7.9393    1.5589    0.8654 H   0  0  0  0  0  0  0  0  0  0  0  0
    6.8341    2.9041   -0.4392 H   0  0  0  0  0  0  0  0  0  0  0  0
    8.2621    0.5252   -1.5898 H   0  0  0  0  0  0  0  0  0  0  0  0
    7.9191   -0.8483   -0.5843 H   0  0  0  0  0  0  0  0  0  0  0  0
   -3.9800   -2.2647   -0.4145 H   0  0  0  0  0  0  0  0  0  0  0  0
   -3.6673   -4.0166    0.7607 H   0  0  0  0  0  0  0  0  0  0  0  0
   -3.0882   -1.9411    2.3744 H   0  0  0  0  0  0  0  0  0  0  0  0
   -3.3222    0.4359    1.2572 H   0  0  0  0  0  0  0  0  0  0  0  0
   -6.0755   -0.7923    1.1894 H   0  0  0  0  0  0  0  0  0  0  0  0
   -5.1674   -0.5292   -0.3093 H   0  0  0  0  0  0  0  0  0  0  0  0
   -6.1348    1.5072    1.8009 H   0  0  0  0  0  0  0  0  0  0  0  0
   -5.0100    1.9901    0.4896 H   0  0  0  0  0  0  0  0  0  0  0  0
   -7.3662    2.4971   -0.0851 H   0  0  0  0  0  0  0  0  0  0  0  0
   -7.3719    0.6171   -1.9052 H   0  0  0  0  0  0  0  0  0  0  0  0
   -8.2006    0.6766    1.2762 H   0  0  0  0  0  0  0  0  0  0  0  0
   -4.7682    1.0310    3.1551 H   0  0  0  0  0  0  0  0  0  0  0  0
   -2.7162    0.6005    3.6851 H   0  0  0  0  0  0  0  0  0  0  0  0
   -5.3103   -1.0815    4.3725 H   0  0  0  0  0  0  0  0  0  0  0  0
    1.1410   -0.7071   -2.3614 H   0  0  0  0  0  0  0  0  0  0  0  0
   -1.2065   -0.8253   -2.7569 H   0  0  0  0  0  0  0  0  0  0  0  0
   -0.8546    0.8817   -2.3293 H   0  0  0  0  0  0  0  0  0  0  0  0
   -1.4910    0.4442   -0.0320 H   0  0  0  0  0  0  0  0  0  0  0  0
   -2.8378    0.1465   -1.2528 H   0  0  0  0  0  0  0  0  0  0  0  0
   -1.8449   -2.2447   -1.3928 H   0  0  0  0  0  0  0  0  0  0  0  0
   -0.5804   -1.1939    1.1903 H   0  0  0  0  0  0  0  0  0  0  0  0
   -0.6343   -2.9109    0.7194 H   0  0  0  0  0  0  0  0  0  0  0  0
    1.4821   -1.7291   -0.0005 H   0  0  0  0  0  0  0  0  0  0  0  0
    0.5960   -2.6475   -1.2317 H   0  0  0  0  0  0  0  0  0  0  0  0
    0.4134    0.9901    0.0513 H   0  0  0  0  0  0  0  0  0  0  0  0
    0.9875    1.6076   -1.4904 H   0  0  0  0  0  0  0  0  0  0  0  0
    2.7306    1.6322    0.1436 H   0  0  0  0  0  0  0  0  0  0  0  0
    2.4933   -0.1418    0.5476 H   0  0  0  0  0  0  0  0  0  0  0  0
    3.2718   -0.7803   -1.6790 H   0  0  0  0  0  0  0  0  0  0  0  0
    2.8508    2.1230   -2.1168 H   0  0  0  0  0  0  0  0  0  0  0  0
    3.3295    0.8519   -3.3612 H   0  0  0  0  0  0  0  0  0  0  0  0
    5.5032    1.2607   -2.8968 H   0  0  0  0  0  0  0  0  0  0  0  0
    4.5678    2.3595   -0.3379 H   0  0  0  0  0  0  0  0  0  0  0  0
    5.6004   -0.3386   -1.3806 H   0  0  0  0  0  0  0  0  0  0  0  0
    4.7798   -1.1058    0.8889 H   0  0  0  0  0  0  0  0  0  0  0  0
    4.0566    0.2760    2.3123 H   0  0  0  0  0  0  0  0  0  0  0  0
    6.9203   -0.7983    1.2340 H   0  0  0  0  0  0  0  0  0  0  0  0
    7.9393    1.5589    0.8654 H   0  0  0  0  0  0  0  0  0  0  0  0
    6.8341    2.9041   -0.4392 H   0  0  0  0  0  0  0  0  0  0  0  0
    8.2621    0.5252   -1.5898 H   0  0  0  0  0  0  0  0  0  0  0  0
    7.9191   -0.8483   -0.5843 H   0  0  0  0  0  0  0  0  0  0  0  0
   -3.9800   -2.2647   -0.4145 H   0  0  0  0  0  0  0  0  0  0  0  0
   -3.6673   -4.0166    0.7607 H   0  0  0  0  0  0  0  0  0  0  0  0
   -3.0882   -1.9411    2.3744 H   0  0  0  0  0  0  0  0  0  0  0  0
   -3.3222    0.4359    1.2572 H   0  0  0  0  0  0  0  0  0  0  0  0
   -6.0755   -0.7923    1.1894 H   0  0  0  0  0  0  0  0  0  0  0  0
   -5.1674   -0.5292   -0.3093 H   0  0  0  0  0  0  0  0  0  0  0  0
   -6.1348    1.5072    1.8009 H   0  0  0  0  0  0  0  0  0  0  0  0
   -5.0100    1.9901    0.4896 H   0  0  0  0  0  0  0  0  0  0  0  0
   -7.3662    2.4971   -0.0851 H   0  0  0  0  0  0  0  0  0  0  0  0
   -7.3719    0.6171   -1.9052 H   0  0  0  0  0  0  0  0  0  0  0  0
   -8.2006    0.6766    1.2762 H   0  0  0  0  0  0  0  0  0  0  0  0
   -4.7682    1.0310    3.1551 H   0  0  0  0  0  0  0  0  0  0  0  0
   -2.7162    0.6005    3.6851 H   0  0  0  0  0  0  0  0  0  0  0  0
   -5.3103   -1.0815    4.3725 H   0  0  0  0  0  0  0  0  0  0  0  0
    1.1410   -0.7071   -2.3614 H   0  0  0  0  0  0  0  0  0  0  0  0
   -1.2065   -0.8253   -2.7569 H   0  0  0  0  0  0  0  0  0  0  0  0
   -0.8546    0.8817   -2.3293 H   0  0  0  0  0  0  0  0  0  0  0  0
   -1.4910    0.4442   -0.0320 H   0  0  0  0  0  0  0  0  0  0  0  0
   -2.8378    0.1465   -1.2528 H   0  0  0  0  0  0  0  0  0  0  0  0
   -1.8449   -2.2447   -1.3928 H   0  0  0  0  0  0  0  0  0  0  0  0
   -0.5804   -1.1939    1.1903 H   0  0  0  0  0  0  0  0  0  0  0  0
   -0.6343   -2.9109    0.7194 H   0  0  0  0  0  0  0  0  0  0  0  0
    1.4821   -1.7291   -0.0005 H   0  0  0  0  0  0  0  0  0  0  0  0
    0.5960   -2.6475   -1.2317 H   0  0  0  0  0  0  0  0  0  0  0  0
    0.4134    0.9901    0.0513 H   0  0  0  0  0  0  0  0  0  0  0  0
    0.9875    1.6076   -1.4904 H   0  0  0  0  0  0  0  0  0  0  0  0
    2.7306    1.6322    0.1436 H   0  0  0  0  0  0  0  0  0  0  0  0
    2.4933   -0.1418    0.5476 H   0  0  0  0  0  0  0  0  0  0  0  0
    3.2718   -0.7803   -1.6790 H   0  0  0  0  0  0  0  0  0  0  0  0
    2.8508    2.1230   -2.1168 H   0  0  0  0  0  0  0  0  0  0  0  0
    3.3295    0.8519   -3.3612 H   0  0  0  0  0  0  0  0  0  0  0  0
    5.5032    1.2607   -2.8968 H   0  0  0  0  0  0  0  0  0  0  0  0
    4.5678    2.3595   -0.3379 H   0  0  0  0  0  0  0  0  0  0  0  0
    5.6004   -0.3386   -1.3806 H   0  0  0  0  0  0  0  0  0  0  0  0
    4.7798   -1.1058    0.8889 H   0  0  0  0  0  0  0  0  0  0  0  0
    4.0566    0.2760    2.3123 H   0  0  0  0  0  0  0  0  0  0  0  0
    6.9203   -0.7983    1.2340 H   0  0  0  0  0  0  0  0  0  0  0  0
    7.9393    1.5589    0.8654 H   0  0  0  0  0  0  0  0  0  0  0  0
    6.8341    2.9041   -0.4392 H   0  0  0  0  0  0  0  0  0  0  0  0
    8.2621    0.5252   -1.5898 H   0  0  0  0  0  0  0  0  0  0  0  0
    7.9191   -0.8483   -0.5843 H   0  0  0  0  0  0  0  0  0  0  0  0
   -3.9800   -2.2647   -0.4145 H   0  0  0  0  0  0  0  0  0  0  0  0
   -3.6673   -4.0166    0.7607 H   0  0  0  0  0  0  0  0  0  0  0  0
   -3.0882   -1.9411    2.3744 H   0  0  0  0  0  0  0  0  0  0  0  0
   -3.3222    0.4359    1.2572 H   0  0  0  0  0  0  0  0  0  0  0  0
   -6.0755   -0.7923    1.1894 H   0  0  0  0  0  0  0  0  0  0  0  0
   -5.1674   -0.5292   -0.3093 H   0  0  0  0  0  0  0  0  0  0  0  0
   -6.1348    1.5072    1.8009 H   0  0  0  0  0  0  0  0  0  0  0  0
   -5.0100    1.9901    0.4896 H   0  0  0  0  0  0  0  0  0  0  0  0
   -7.3662    2.4971   -0.0851 H   0  0  0  0  0  0  0  0  0  0  0  0
   -7.3719    0.6171   -1.9052 H   0  0  0  0  0  0  0  0  0  0  0  0
   -8.2006    0.6766    1.2762 H   0  0  0  0  0  0  0  0  0  0  0  0
   -4.7682    1.0310    3.1551 H   0  0  0  0  0  0  0  0  0  0  0  0
   -2.7162    0.6005    3.6851 H   0  0  0  0  0  0  0  0  0  0  0  0
   -5.3103   -1.0815    4.3725 H   0  0  0  0  0  0  0  0  0  0  0  0
  1  2  1  0
  2  3  1  0
  3  4  1  0
  4  5  1  0
  1  6  1  0
  5  6  1  0
  1  7  1  0
  7  8  1  0
  8  9  1  0
  9 10  1  0
 10 11  1  0
 11 12  1  0
  9 13  1  0
 12 13  1  0
 13 14  1  0
 14 15  1  0
 14 16  1  0
 16 17  1  0
 12 18  1  0
 17 18  1  0
 17 19  1  0
  4 20  1  0
 20 21  1  0
 20 22  1  0
 22 23  1  0
 23 24  1  0
 24 25  1  0
 25 26  1  0
 26 27  1  0
 26 28  1  0
 23 29  1  0
 29 30  1  0
 29 31  1  0
 32 33  1  0
 33 34  1  0
 34 35  1  0
 35 36  1  0
 32 37  1  0
 36 37  1  0
 32 38  1  0
 38 39  1  0
 39 40  1  0
 40 41  1  0
 41 42  1  0
 42 43  1  0
 40 44  1  0
 43 44  1  0
 44 45  1  0
 45 46  1  0
 45 47  1  0
 47 48  1  0
 43 49  1  0
 48 49  1  0
 48 50  1  0
 35 51  1  0
 51 52  1  0
 51 53  1  0
 53 54  1  0
 54 55  1  0
 55 56  1  0
 56 57  1  0
 57 58  1  0
 57 59  1  0
 54 60  1  0
 60 61  1  0
 60 62  1  0
 63 64  1  0
 64 65  1  0
 65 66  1  0
 66 67  1  0
 63 68  1  0
 67 68  1  0
 63 69  1  0
 69 70  1  0
 70 71  1  0
 71 72  1  0
 72 73  1  0
 73 74  1  0
 71 75  1  0
 74 75  1  0
 75 76  1  0
 76 77  1  0
 76 78  1  0
 78 79  1  0
 74 80  1  0
 79 80  1  0
 79 81  1  0
 66 82  1  0
 82 83  1  0
 82 84  1  0
 84 85  1  0
 85 86  1  0
 86 87  1  0
 87 88  1  0
 88 89  1  0
 88 90  1  0
 85 91  1  0
 91 92  1  0
 91 93  1  0
 94 95  1  0
 95 96  1  0
 96 97  1  0
 97 98  1  0
 94 99  1  0
 98 99  1  0
 94100  1  0
100101  1  0
101102  1  0
102103  1  0
103104  1  0
104105  1  0
102106  1  0
105106  1  0
106107  1  0
107108  1  0
107109  1  0
109110  1  0
105111  1  0
110111  1  0
110112  1  0
 97113  1  0
113114  1  0
113115  1  0
115116  1  0
116117  1  0
117118  1  0
118119  1  0
119120  1  0
119121  1  0
116122  1  0
122123  1  0
122124  1  0
  1125  1  0
  2126  1  0
  2127  1  0
  3128  1  0
  3129  1  0
  4130  1  0
  5131  1  0
  5132  1  0
  6133  1  0
  6134  1  0
  7135  1  0
  7136  1  0
  8137  1  0
  8138  1  0
  9139  1  0
 10140  1  0
 10141  1  0
 11142  1  0
 12143  1  0
 13144  1  0
 14145  1  0
 15146  1  0
 16147  1  0
 17148  1  0
 18149  1  0
 19150  1  0
 19151  1  0
 20152  1  0
 21153  1  0
 22154  1  0
 23155  1  6
 24156  1  0
 24157  1  0
 25158  1  0
 25159  1  0
 26160  1  0
 27161  1  0
 28162  1  0
 29163  1  0
 30164  1  0
 31165  1  0
 32166  1  0
 33167  1  0
 33168  1  0
 34169  1  0
 34170  1  0
 35171  1  0
 36172  1  0
 36173  1  0
 37174  1  0
 37175  1  0
 38176  1  0
 38177  1  0
 39178  1  0
 39179  1  0
 40180  1  0
 41181  1  0
 41182  1  0
 42183  1  0
 43184  1  0
 44185  1  0
 45186  1  0
 46187  1  0
 47188  1  0
 48189  1  0
 49190  1  0
 50191  1  0
 50192  1  0
 51193  1  0
 52194  1  0
 53195  1  0
 54196  1  6
 55197  1  0
 55198  1  0
 56199  1  0
 56200  1  0
 57201  1  0
 58202  1  0
 59203  1  0
 60204  1  0
 61205  1  0
 62206  1  0
 63207  1  0
 64208  1  0
 64209  1  0
 65210  1  0
 65211  1  0
 66212  1  0
 67213  1  0
 67214  1  0
 68215  1  0
 68216  1  0
 69217  1  0
 69218  1  0
 70219  1  0
 70220  1  0
 71221  1  0
 72222  1  0
 72223  1  0
 73224  1  0
 74225  1  0
 75226  1  0
 76227  1  0
 77228  1  0
 78229  1  0
 79230  1  0
 80231  1  0
 81232  1  0
 81233  1  0
 82234  1  0
 83235  1  0
 84236  1  0
 85237  1  6
 86238  1  0
 86239  1  0
 87240  1  0
 87241  1  0
 88242  1  0
 89243  1  0
 90244  1  0
 91245  1  0
 92246  1  0
 93247  1  0
 94248  1  0
 95249  1  0
 95250  1  0
 96251  1  0
 96252  1  0
 97253  1  0
 98254  1  0
 98255  1  0
 99256  1  0
 99257  1  0
100258  1  0
100259  1  0
101260  1  0
101261  1  0
102262  1  0
103263  1  0
103264  1  0
104265  1  0
105266  1  0
106267  1  0
107268  1  0
108269  1  0
109270  1  0
110271  1  0
111272  1  0
112273  1  0
112274  1  0
113275  1  0
114276  1  0
115277  1  0
116278  1  6
117279  1  0
117280  1  0
118281  1  0
118282  1  0
119283  1  0
120284  1  0
121285  1  0
122286  1  0
123287  1  0
124288  1  0
M  END
>  <PDBID>  (1) 
1JU6

>  <PDB ID>  (1) 
1JU6

>  <Generic Name>  (1) 
Pemetrexed

>  <Brand Name>  (1) 
Act Pemetrexed#Alimta#Pemetrexed#Pemetrexed Disodium for Injection#Taro-pemetrexed

>  <DrugBank ID>  (1) 
DB00642

>  <ATC Codes>  (1) 
L01BA04

>  <Ligand ID>  (1) 
LYA

>  <Target Name>  (1) 
Thymidylate synthase

>  <UniProt ID>  (1) 
P04818

>  <PDB ID.1>  (1) 
1JU6

>  <Seq. Identity>  (1) 
100%

$$$$
