PDB_DB01137_01
     RDKit          3D

116122  0  0  0  0  0  0  0  0999 V2000
   -4.5714    1.4922   -0.5401 C   0  0  0  0  0  0  0  0  0  0  0  0
    0.2416    2.4981   -0.1287 F   0  0  0  0  0  0  0  0  0  0  0  0
    4.9114   -0.3738    0.2840 N   0  0  0  0  0  0  0  0  0  0  0  0
   -5.3336    0.6269    0.2551 O   0  0  0  0  0  0  0  0  0  0  0  0
    2.8804   -0.5745   -1.0904 C   0  0  0  0  0  0  0  0  0  0  0  0
    2.2715    0.5105   -0.4448 N   0  0  0  0  0  0  0  0  0  0  0  0
   -0.0425   -1.2111   -1.1783 O   0  0  0  0  0  0  0  0  0  0  0  0
    3.2435    1.3019    0.2688 C   0  0  0  0  0  0  0  0  0  0  0  0
   -2.3306   -1.0708    0.1882 N   0  0  0  0  0  0  0  0  0  0  0  0
   -3.7528    1.6594    1.8250 O   0  0  0  0  0  0  0  0  0  0  0  0
   -1.9685   -2.3552   -0.3148 C   0  0  2  0  0  0  0  0  0  0  0  0
   -4.8327    2.7909   -0.0536 O   0  0  0  0  0  0  0  0  0  0  0  0
    1.1032    0.3419    0.3132 C   0  0  0  0  0  0  0  0  0  0  0  0
   -1.1446   -0.4436    0.7193 C   0  0  0  0  0  0  0  0  0  0  0  0
   -0.1337   -0.1166   -0.3811 C   0  0  0  0  0  0  0  0  0  0  0  0
    3.9695   -1.2686   -0.2903 C   0  0  0  0  0  0  0  0  0  0  0  0
    4.6699    0.9549   -0.1801 C   0  0  0  0  0  0  0  0  0  0  0  0
   -0.4828   -2.3941   -0.6232 C   0  0  0  0  0  0  0  0  0  0  0  0
   -1.5412    0.7298    1.5388 C   0  0  0  0  0  0  0  0  0  0  0  0
    0.7024    1.7045    0.9040 C   0  0  0  0  0  0  0  0  0  0  0  0
   -2.8466   -0.2079   -0.8483 C   0  0  0  0  0  0  0  0  0  0  0  0
   -0.3479    1.5524    1.9608 C   0  0  0  0  0  0  0  0  0  0  0  0
   -2.7980   -2.8507   -1.4535 C   0  0  0  0  0  0  0  0  0  0  0  0
   -2.6450    1.5589    0.9537 C   0  0  0  0  0  0  0  0  0  0  0  0
    6.2689   -0.7922    0.2491 C   0  0  0  0  0  0  0  0  0  0  0  0
   -3.0742    1.1922   -0.4082 C   0  0  0  0  0  0  0  0  0  0  0  0
    3.4154   -0.1720   -2.0048 H   0  0  0  0  0  0  0  0  0  0  0  0
    2.2465   -1.3723   -1.4781 H   0  0  0  0  0  0  0  0  0  0  0  0
    3.1353    2.3865    0.0812 H   0  0  0  0  0  0  0  0  0  0  0  0
    3.2169    1.0313    1.3454 H   0  0  0  0  0  0  0  0  0  0  0  0
   -2.1090   -3.0896    0.5314 H   0  0  0  0  0  0  0  0  0  0  0  0
    3.5170   -1.9617    0.4715 H   0  0  0  0  0  0  0  0  0  0  0  0
    4.4985   -1.9341   -1.0034 H   0  0  0  0  0  0  0  0  0  0  0  0
    5.3323    1.6712    0.3747 H   0  0  0  0  0  0  0  0  0  0  0  0
    4.8151    1.1049   -1.2564 H   0  0  0  0  0  0  0  0  0  0  0  0
    0.1182   -2.7073    0.2652 H   0  0  0  0  0  0  0  0  0  0  0  0
   -0.3260   -3.2008   -1.3788 H   0  0  0  0  0  0  0  0  0  0  0  0
   -3.7818   -0.7005   -1.2319 H   0  0  0  0  0  0  0  0  0  0  0  0
   -0.7331    2.5719    2.1880 H   0  0  0  0  0  0  0  0  0  0  0  0
   -2.5616   -2.3022   -2.3663 H   0  0  0  0  0  0  0  0  0  0  0  0
   -3.8575   -2.8077   -1.1448 H   0  0  0  0  0  0  0  0  0  0  0  0
   -2.5652   -3.9507   -1.5729 H   0  0  0  0  0  0  0  0  0  0  0  0
    6.7925   -0.5589   -0.6975 H   0  0  0  0  0  0  0  0  0  0  0  0
    6.8196   -0.2300    1.0490 H   0  0  0  0  0  0  0  0  0  0  0  0
    6.3225   -1.8574    0.5289 H   0  0  0  0  0  0  0  0  0  0  0  0
   -4.5714    1.4922   -0.5401 C   0  0  0  0  0  0  0  0  0  0  0  0
    0.2416    2.4981   -0.1287 F   0  0  0  0  0  0  0  0  0  0  0  0
    4.9114   -0.3738    0.2840 N   0  0  0  0  0  0  0  0  0  0  0  0
   -5.3336    0.6269    0.2551 O   0  0  0  0  0  0  0  0  0  0  0  0
    2.8804   -0.5745   -1.0904 C   0  0  0  0  0  0  0  0  0  0  0  0
    2.2715    0.5105   -0.4448 N   0  0  0  0  0  0  0  0  0  0  0  0
   -0.0425   -1.2111   -1.1783 O   0  0  0  0  0  0  0  0  0  0  0  0
    3.2435    1.3019    0.2688 C   0  0  0  0  0  0  0  0  0  0  0  0
   -2.3306   -1.0708    0.1882 N   0  0  0  0  0  0  0  0  0  0  0  0
   -3.7528    1.6594    1.8250 O   0  0  0  0  0  0  0  0  0  0  0  0
   -1.9685   -2.3552   -0.3148 C   0  0  2  0  0  0  0  0  0  0  0  0
   -4.8327    2.7909   -0.0536 O   0  0  0  0  0  0  0  0  0  0  0  0
    1.1032    0.3419    0.3132 C   0  0  0  0  0  0  0  0  0  0  0  0
   -1.1446   -0.4436    0.7193 C   0  0  0  0  0  0  0  0  0  0  0  0
   -0.1337   -0.1166   -0.3811 C   0  0  0  0  0  0  0  0  0  0  0  0
    3.9695   -1.2686   -0.2903 C   0  0  0  0  0  0  0  0  0  0  0  0
    4.6699    0.9549   -0.1801 C   0  0  0  0  0  0  0  0  0  0  0  0
   -0.4828   -2.3941   -0.6232 C   0  0  0  0  0  0  0  0  0  0  0  0
   -1.5412    0.7298    1.5388 C   0  0  0  0  0  0  0  0  0  0  0  0
    0.7024    1.7045    0.9040 C   0  0  0  0  0  0  0  0  0  0  0  0
   -2.8466   -0.2079   -0.8483 C   0  0  0  0  0  0  0  0  0  0  0  0
   -0.3479    1.5524    1.9608 C   0  0  0  0  0  0  0  0  0  0  0  0
   -2.7980   -2.8507   -1.4535 C   0  0  0  0  0  0  0  0  0  0  0  0
   -2.6450    1.5589    0.9537 C   0  0  0  0  0  0  0  0  0  0  0  0
    6.2689   -0.7922    0.2491 C   0  0  0  0  0  0  0  0  0  0  0  0
   -3.0742    1.1922   -0.4082 C   0  0  0  0  0  0  0  0  0  0  0  0
    3.4154   -0.1720   -2.0048 H   0  0  0  0  0  0  0  0  0  0  0  0
    2.2465   -1.3723   -1.4781 H   0  0  0  0  0  0  0  0  0  0  0  0
    3.1353    2.3865    0.0812 H   0  0  0  0  0  0  0  0  0  0  0  0
    3.2169    1.0313    1.3454 H   0  0  0  0  0  0  0  0  0  0  0  0
   -2.1090   -3.0896    0.5314 H   0  0  0  0  0  0  0  0  0  0  0  0
    3.5170   -1.9617    0.4715 H   0  0  0  0  0  0  0  0  0  0  0  0
    4.4985   -1.9341   -1.0034 H   0  0  0  0  0  0  0  0  0  0  0  0
    5.3323    1.6712    0.3747 H   0  0  0  0  0  0  0  0  0  0  0  0
    4.8151    1.1049   -1.2564 H   0  0  0  0  0  0  0  0  0  0  0  0
    0.1182   -2.7073    0.2652 H   0  0  0  0  0  0  0  0  0  0  0  0
   -0.3260   -3.2008   -1.3788 H   0  0  0  0  0  0  0  0  0  0  0  0
   -3.7818   -0.7005   -1.2319 H   0  0  0  0  0  0  0  0  0  0  0  0
   -0.7331    2.5719    2.1880 H   0  0  0  0  0  0  0  0  0  0  0  0
   -2.5616   -2.3022   -2.3663 H   0  0  0  0  0  0  0  0  0  0  0  0
   -3.8575   -2.8077   -1.1448 H   0  0  0  0  0  0  0  0  0  0  0  0
   -2.5652   -3.9507   -1.5729 H   0  0  0  0  0  0  0  0  0  0  0  0
    6.7925   -0.5589   -0.6975 H   0  0  0  0  0  0  0  0  0  0  0  0
    6.8196   -0.2300    1.0490 H   0  0  0  0  0  0  0  0  0  0  0  0
    6.3225   -1.8574    0.5289 H   0  0  0  0  0  0  0  0  0  0  0  0
   -4.9085    1.4691   -1.5879 H   0  0  0  0  0  0  0  0  0  0  0  0
   -5.8392   -0.0221   -0.2980 H   0  0  0  0  0  0  0  0  0  0  0  0
   -3.8897    0.7812    2.2282 H   0  0  0  0  0  0  0  0  0  0  0  0
   -4.9021    3.4574   -0.7584 H   0  0  0  0  0  0  0  0  0  0  0  0
    1.2363   -0.3276    1.2059 H   0  0  0  0  0  0  0  0  0  0  0  0
   -0.6376   -1.1830    1.3939 H   0  0  0  0  0  0  0  0  0  0  0  0
   -0.4930    0.7308   -1.0053 H   0  0  0  0  0  0  0  0  0  0  0  0
   -1.9502    0.3040    2.5075 H   0  0  0  0  0  0  0  0  0  0  0  0
    1.5592    2.2178    1.3592 H   0  0  0  0  0  0  0  0  0  0  0  0
   -2.1280   -0.2726   -1.6990 H   0  0  0  0  0  0  0  0  0  0  0  0
    0.0871    1.1813    2.9141 H   0  0  0  0  0  0  0  0  0  0  0  0
   -2.2489    2.6182    0.9140 H   0  0  0  0  0  0  0  0  0  0  0  0
   -2.5969    1.8694   -1.1781 H   0  0  0  0  0  0  0  0  0  0  0  0
   -4.9085    1.4691   -1.5879 H   0  0  0  0  0  0  0  0  0  0  0  0
   -5.8392   -0.0221   -0.2980 H   0  0  0  0  0  0  0  0  0  0  0  0
   -3.8897    0.7812    2.2282 H   0  0  0  0  0  0  0  0  0  0  0  0
   -4.9021    3.4574   -0.7584 H   0  0  0  0  0  0  0  0  0  0  0  0
    1.2363   -0.3276    1.2059 H   0  0  0  0  0  0  0  0  0  0  0  0
   -0.6376   -1.1830    1.3939 H   0  0  0  0  0  0  0  0  0  0  0  0
   -0.4930    0.7308   -1.0053 H   0  0  0  0  0  0  0  0  0  0  0  0
   -1.9502    0.3040    2.5075 H   0  0  0  0  0  0  0  0  0  0  0  0
    1.5592    2.2178    1.3592 H   0  0  0  0  0  0  0  0  0  0  0  0
   -2.1280   -0.2726   -1.6990 H   0  0  0  0  0  0  0  0  0  0  0  0
    0.0871    1.1813    2.9141 H   0  0  0  0  0  0  0  0  0  0  0  0
   -2.2489    2.6182    0.9140 H   0  0  0  0  0  0  0  0  0  0  0  0
   -2.5969    1.8694   -1.1781 H   0  0  0  0  0  0  0  0  0  0  0  0
  1  4  1  0
  5  6  1  0
  6  8  1  0
  9 11  1  0
  1 12  1  0
  6 13  1  0
  9 14  1  0
  7 15  1  0
 13 15  1  0
 14 15  1  0
  3 16  1  0
  5 16  1  0
  3 17  1  0
  8 17  1  0
  7 18  1  0
 11 18  1  0
 14 19  1  0
  2 20  1  0
 13 20  1  0
  9 21  1  0
 19 22  1  0
 20 22  1  0
 11 23  1  0
 19 24  1  0
 24 10  1  0
  3 25  1  0
  1 26  1  0
 21 26  1  0
 24 26  1  0
  5 27  1  0
  5 28  1  0
  8 29  1  0
  8 30  1  0
 11 31  1  1
 16 32  1  0
 16 33  1  0
 17 34  1  0
 17 35  1  0
 18 36  1  0
 18 37  1  0
 21 38  1  0
 22 39  1  0
 23 40  1  0
 23 41  1  0
 23 42  1  0
 25 43  1  0
 25 44  1  0
 25 45  1  0
 46 49  1  0
 50 51  1  0
 51 53  1  0
 54 56  1  0
 46 57  1  0
 51 58  1  0
 54 59  1  0
 52 60  1  0
 58 60  1  0
 59 60  1  0
 48 61  1  0
 50 61  1  0
 48 62  1  0
 53 62  1  0
 52 63  1  0
 56 63  1  0
 59 64  1  0
 47 65  1  0
 58 65  1  0
 54 66  1  0
 64 67  1  0
 65 67  1  0
 56 68  1  0
 64 69  1  0
 69 55  1  0
 48 70  1  0
 46 71  1  0
 66 71  1  0
 69 71  1  0
 50 72  1  0
 50 73  1  0
 53 74  1  0
 53 75  1  0
 56 76  1  1
 61 77  1  0
 61 78  1  0
 62 79  1  0
 62 80  1  0
 63 81  1  0
 63 82  1  0
 66 83  1  0
 67 84  1  0
 68 85  1  0
 68 86  1  0
 68 87  1  0
 70 88  1  0
 70 89  1  0
 70 90  1  0
  1 91  1  0
  4 92  1  0
 10 93  1  0
 12 94  1  0
 13 95  1  0
 14 96  1  0
 15 97  1  0
 19 98  1  0
 20 99  1  0
 21100  1  0
 22101  1  0
 24102  1  0
 26103  1  0
 46104  1  0
 49105  1  0
 55106  1  0
 57107  1  0
 58108  1  0
 59109  1  0
 60110  1  0
 64111  1  0
 65112  1  0
 66113  1  0
 67114  1  0
 69115  1  0
 71116  1  0
M  END
>  <PDBID>  (1) 
4Z2D

>  <PDB ID>  (1) 
4Z2D

>  <Generic Name>  (1) 
Levofloxacin

>  <Brand Name>  (1) 
Act Levofloxacin#Apo-levofloxacin#Auro-levofloxacin#Ava-levofloxacin#Dom-levofloxacin#Iquix#Levaquin#Levaquin 25mg/ml#Levaquin 500mg#Levaquin 5mg/ml#Levaquin 750mg#Levofloxacin#Levofloxacin In 5% Dextrose Injection#Levofloxacin Injection#Mylan-levofloxacin#Ntp-levofloxacin#PHL-levofloxacin#PMS-levofloxacin#Quinsair#Quixin#Sandoz Levofloxacin#Teva-levofloxacin#Cravit#Elequine#Floxel#Leroxacin#Levokacin#Levox#Levoxacin#Mosardal#Nofaxin#Reskuin#Tavanic

>  <DrugBank ID>  (1) 
DB01137

>  <ATC Codes>  (1) 
A02BD10#J01RA05#S01AE05#J01MA12

>  <Ligand ID>  (1) 
LFX

>  <Target Name>  (1) 
DNA gyrase subunit A

>  <UniProt ID>  (1) 
P43700

>  <PDB ID.1>  (1) 
4Z2D

>  <Seq. Identity>  (1) 
50%

$$$$
