PDB_DB06616_03
     RDKit          3D

170176  0  0  0  0  0  0  0  0999 V2000
    0.3886   -2.5802   -1.0730 C   0  0  0  0  0  0  0  0  0  0  0  0
   -6.8883   -0.3493    0.3999 O   0  0  0  0  0  0  0  0  0  0  0  0
    5.6901   -1.2874    1.2996 C   0  0  0  0  0  0  0  0  0  0  0  0
   -4.9211    0.8864    2.4933 N   0  0  0  0  0  0  0  0  0  0  0  0
   -8.5500   -1.7298   -1.8003 Cl  0  0  0  0  0  0  0  0  0  0  0  0
   -4.1553   -1.4185   -3.0529 Cl  0  0  0  0  0  0  0  0  0  0  0  0
   -4.5484    2.0913    1.7643 C   0  0  0  0  0  0  0  0  0  0  0  0
   -2.2468    1.9785    2.5299 C   0  0  0  0  0  0  0  0  0  0  0  0
   -6.4655   -0.1956   -2.4559 C   0  0  0  0  0  0  0  0  0  0  0  0
   -4.8196   -1.1574   -0.3380 C   0  0  0  0  0  0  0  0  0  0  0  0
    0.2522    0.6128    1.6264 C   0  0  0  0  0  0  0  0  0  0  0  0
   -0.6977    0.5982   -1.0799 C   0  0  0  0  0  0  0  0  0  0  0  0
    4.2405   -1.6124    1.3619 C   0  0  0  0  0  0  0  0  0  0  0  0
    3.3293   -0.5340    0.8705 C   0  0  0  0  0  0  0  0  0  0  0  0
    9.6023    1.0721   -0.6365 C   0  0  0  0  0  0  0  0  0  0  0  0
    5.9810    0.1872   -0.6287 C   0  0  0  0  0  0  0  0  0  0  0  0
    7.3075   -1.7727   -0.4569 C   0  0  0  0  0  0  0  0  0  0  0  0
    7.3203    0.8289   -1.0449 C   0  0  0  0  0  0  0  0  0  0  0  0
    8.6198   -1.0092   -0.2524 C   0  0  0  0  0  0  0  0  0  0  0  0
   -0.9954    2.5768    2.1108 N   0  0  0  0  0  0  0  0  0  0  0  0
   -3.3454    0.7553   -0.8243 N   0  0  0  0  0  0  0  0  0  0  0  0
   -0.1779   -1.6029   -0.2613 O   0  0  0  0  0  0  0  0  0  0  0  0
    1.9727   -0.9331    0.9916 O   0  0  0  0  0  0  0  0  0  0  0  0
   -6.3101   -1.4070   -0.3040 C   0  0  0  0  0  0  0  0  0  0  0  0
   -6.8066   -1.4798   -1.7206 C   0  0  0  0  0  0  0  0  0  0  0  0
   -4.9688    0.0226   -2.4283 C   0  0  0  0  0  0  0  0  0  0  0  0
   -3.1614    2.0917    1.2811 C   0  0  0  0  0  0  0  0  0  0  0  0
   -4.6079    0.2108   -0.9262 C   0  0  0  0  0  0  0  0  0  0  0  0
    0.3302   -0.3407   -0.6051 C   0  0  0  0  0  0  0  0  0  0  0  0
    1.1913    0.1212    0.5267 C   0  0  0  0  0  0  0  0  0  0  0  0
   -2.6746    1.0584    0.3560 C   0  0  0  0  0  0  0  0  0  0  0  0
   -0.3781    1.8793    1.0351 C   0  0  0  0  0  0  0  0  0  0  0  0
   -1.2776    1.5622   -0.1087 C   0  0  0  0  0  0  0  0  0  0  0  0
    6.2677   -0.9919    0.0704 N   0  0  0  0  0  0  0  0  0  0  0  0
    8.3910    0.4045   -0.1662 N   0  0  0  0  0  0  0  0  0  0  0  0
   -7.5719   -0.7911    1.5287 C   0  0  0  0  0  0  0  0  0  0  0  0
    0.3886   -2.5802   -1.0730 C   0  0  0  0  0  0  0  0  0  0  0  0
   -6.8883   -0.3493    0.3999 O   0  0  0  0  0  0  0  0  0  0  0  0
    5.6901   -1.2874    1.2996 C   0  0  0  0  0  0  0  0  0  0  0  0
   -4.9211    0.8864    2.4933 N   0  0  0  0  0  0  0  0  0  0  0  0
   -8.5500   -1.7298   -1.8003 Cl  0  0  0  0  0  0  0  0  0  0  0  0
   -4.1553   -1.4185   -3.0529 Cl  0  0  0  0  0  0  0  0  0  0  0  0
   -4.5484    2.0913    1.7643 C   0  0  0  0  0  0  0  0  0  0  0  0
   -2.2468    1.9785    2.5299 C   0  0  0  0  0  0  0  0  0  0  0  0
   -6.4655   -0.1956   -2.4559 C   0  0  0  0  0  0  0  0  0  0  0  0
   -4.8196   -1.1574   -0.3380 C   0  0  0  0  0  0  0  0  0  0  0  0
    0.2522    0.6128    1.6264 C   0  0  0  0  0  0  0  0  0  0  0  0
   -0.6977    0.5982   -1.0799 C   0  0  0  0  0  0  0  0  0  0  0  0
    4.2405   -1.6124    1.3619 C   0  0  0  0  0  0  0  0  0  0  0  0
    3.3293   -0.5340    0.8705 C   0  0  0  0  0  0  0  0  0  0  0  0
    9.6023    1.0721   -0.6365 C   0  0  0  0  0  0  0  0  0  0  0  0
    5.9810    0.1872   -0.6287 C   0  0  0  0  0  0  0  0  0  0  0  0
    7.3075   -1.7727   -0.4569 C   0  0  0  0  0  0  0  0  0  0  0  0
    7.3203    0.8289   -1.0449 C   0  0  0  0  0  0  0  0  0  0  0  0
    8.6198   -1.0092   -0.2524 C   0  0  0  0  0  0  0  0  0  0  0  0
   -0.9954    2.5768    2.1108 N   0  0  0  0  0  0  0  0  0  0  0  0
   -3.3454    0.7553   -0.8243 N   0  0  0  0  0  0  0  0  0  0  0  0
   -0.1779   -1.6029   -0.2613 O   0  0  0  0  0  0  0  0  0  0  0  0
    1.9727   -0.9331    0.9916 O   0  0  0  0  0  0  0  0  0  0  0  0
   -6.3101   -1.4070   -0.3040 C   0  0  0  0  0  0  0  0  0  0  0  0
   -6.8066   -1.4798   -1.7206 C   0  0  0  0  0  0  0  0  0  0  0  0
   -4.9688    0.0226   -2.4283 C   0  0  0  0  0  0  0  0  0  0  0  0
   -3.1614    2.0917    1.2811 C   0  0  0  0  0  0  0  0  0  0  0  0
   -4.6079    0.2108   -0.9262 C   0  0  0  0  0  0  0  0  0  0  0  0
    0.3302   -0.3407   -0.6051 C   0  0  0  0  0  0  0  0  0  0  0  0
    1.1913    0.1212    0.5267 C   0  0  0  0  0  0  0  0  0  0  0  0
   -2.6746    1.0584    0.3560 C   0  0  0  0  0  0  0  0  0  0  0  0
   -0.3781    1.8793    1.0351 C   0  0  0  0  0  0  0  0  0  0  0  0
   -1.2776    1.5622   -0.1087 C   0  0  0  0  0  0  0  0  0  0  0  0
    6.2677   -0.9919    0.0704 N   0  0  0  0  0  0  0  0  0  0  0  0
    8.3910    0.4045   -0.1662 N   0  0  0  0  0  0  0  0  0  0  0  0
   -7.5719   -0.7911    1.5287 C   0  0  0  0  0  0  0  0  0  0  0  0
    0.1771   -2.4110   -2.1481 H   0  0  0  0  0  0  0  0  0  0  0  0
    1.5139   -2.5179   -0.9946 H   0  0  0  0  0  0  0  0  0  0  0  0
    0.1249   -3.5964   -0.7770 H   0  0  0  0  0  0  0  0  0  0  0  0
    6.3069   -2.1154    1.7761 H   0  0  0  0  0  0  0  0  0  0  0  0
    5.8435   -0.4074    1.9889 H   0  0  0  0  0  0  0  0  0  0  0  0
   -5.7340    1.1396    3.0962 H   0  0  0  0  0  0  0  0  0  0  0  0
   -4.1163    0.4879    2.9793 H   0  0  0  0  0  0  0  0  0  0  0  0
   -4.5520    2.8822    2.6049 H   0  0  0  0  0  0  0  0  0  0  0  0
   -5.3096    2.4547    1.0895 H   0  0  0  0  0  0  0  0  0  0  0  0
   -2.1329    0.8996    2.7592 H   0  0  0  0  0  0  0  0  0  0  0  0
   -2.6516    2.5397    3.3684 H   0  0  0  0  0  0  0  0  0  0  0  0
   -6.8027   -0.2646   -3.5030 H   0  0  0  0  0  0  0  0  0  0  0  0
   -6.9716    0.6790   -1.9699 H   0  0  0  0  0  0  0  0  0  0  0  0
   -4.3060   -1.9145   -0.9808 H   0  0  0  0  0  0  0  0  0  0  0  0
   -4.4675   -1.2453    0.7135 H   0  0  0  0  0  0  0  0  0  0  0  0
    0.7942    0.9168    2.5243 H   0  0  0  0  0  0  0  0  0  0  0  0
   -0.5303   -0.1339    1.7937 H   0  0  0  0  0  0  0  0  0  0  0  0
   -0.3127    1.1477   -1.9874 H   0  0  0  0  0  0  0  0  0  0  0  0
   -1.5548   -0.0088   -1.4969 H   0  0  0  0  0  0  0  0  0  0  0  0
    3.9945   -2.6090    0.9037 H   0  0  0  0  0  0  0  0  0  0  0  0
    3.9937   -1.7640    2.4539 H   0  0  0  0  0  0  0  0  0  0  0  0
    3.5398    0.3992    1.4218 H   0  0  0  0  0  0  0  0  0  0  0  0
    3.4706   -0.3435   -0.2206 H   0  0  0  0  0  0  0  0  0  0  0  0
    9.4013    2.1113   -0.9406 H   0  0  0  0  0  0  0  0  0  0  0  0
    9.9826    0.4982   -1.5265 H   0  0  0  0  0  0  0  0  0  0  0  0
   10.3875    1.0039    0.1526 H   0  0  0  0  0  0  0  0  0  0  0  0
    5.3940    0.0211   -1.5579 H   0  0  0  0  0  0  0  0  0  0  0  0
    5.4329    0.9626   -0.0369 H   0  0  0  0  0  0  0  0  0  0  0  0
    7.2219   -1.8714   -1.5807 H   0  0  0  0  0  0  0  0  0  0  0  0
    7.4064   -2.7779   -0.0173 H   0  0  0  0  0  0  0  0  0  0  0  0
    7.5573    0.5955   -2.0935 H   0  0  0  0  0  0  0  0  0  0  0  0
    7.2488    1.9422   -0.9189 H   0  0  0  0  0  0  0  0  0  0  0  0
    9.3357   -1.2287   -1.0652 H   0  0  0  0  0  0  0  0  0  0  0  0
    9.0819   -1.3736    0.6983 H   0  0  0  0  0  0  0  0  0  0  0  0
   -1.2185    3.5612    1.8324 H   0  0  0  0  0  0  0  0  0  0  0  0
   -3.0746    1.4004   -1.5982 H   0  0  0  0  0  0  0  0  0  0  0  0
   -6.5349   -2.3719    0.1994 H   0  0  0  0  0  0  0  0  0  0  0  0
   -6.2994   -2.3006   -2.2300 H   0  0  0  0  0  0  0  0  0  0  0  0
   -4.7451    0.9292   -3.0059 H   0  0  0  0  0  0  0  0  0  0  0  0
   -2.9438    3.0936    0.8511 H   0  0  0  0  0  0  0  0  0  0  0  0
   -5.4071    0.8718   -0.5696 H   0  0  0  0  0  0  0  0  0  0  0  0
    1.0497   -0.5330   -1.4607 H   0  0  0  0  0  0  0  0  0  0  0  0
    1.7850    0.9882    0.1780 H   0  0  0  0  0  0  0  0  0  0  0  0
   -2.3556    0.1145    0.9364 H   0  0  0  0  0  0  0  0  0  0  0  0
    0.4639    2.4850    0.6533 H   0  0  0  0  0  0  0  0  0  0  0  0
   -1.5034    2.5053   -0.6416 H   0  0  0  0  0  0  0  0  0  0  0  0
   -6.9066   -1.3228    2.2371 H   0  0  0  0  0  0  0  0  0  0  0  0
   -8.4602   -1.3715    1.2258 H   0  0  0  0  0  0  0  0  0  0  0  0
   -7.9331    0.1071    2.0668 H   0  0  0  0  0  0  0  0  0  0  0  0
    0.1771   -2.4110   -2.1481 H   0  0  0  0  0  0  0  0  0  0  0  0
    1.5139   -2.5179   -0.9946 H   0  0  0  0  0  0  0  0  0  0  0  0
    0.1249   -3.5964   -0.7770 H   0  0  0  0  0  0  0  0  0  0  0  0
    6.3069   -2.1154    1.7761 H   0  0  0  0  0  0  0  0  0  0  0  0
    5.8435   -0.4074    1.9889 H   0  0  0  0  0  0  0  0  0  0  0  0
   -5.7340    1.1396    3.0962 H   0  0  0  0  0  0  0  0  0  0  0  0
   -4.1163    0.4879    2.9793 H   0  0  0  0  0  0  0  0  0  0  0  0
   -4.5520    2.8822    2.6049 H   0  0  0  0  0  0  0  0  0  0  0  0
   -5.3096    2.4547    1.0895 H   0  0  0  0  0  0  0  0  0  0  0  0
   -2.1329    0.8996    2.7592 H   0  0  0  0  0  0  0  0  0  0  0  0
   -2.6516    2.5397    3.3684 H   0  0  0  0  0  0  0  0  0  0  0  0
   -6.8027   -0.2646   -3.5030 H   0  0  0  0  0  0  0  0  0  0  0  0
   -6.9716    0.6790   -1.9699 H   0  0  0  0  0  0  0  0  0  0  0  0
   -4.3060   -1.9145   -0.9808 H   0  0  0  0  0  0  0  0  0  0  0  0
   -4.4675   -1.2453    0.7135 H   0  0  0  0  0  0  0  0  0  0  0  0
    0.7942    0.9168    2.5243 H   0  0  0  0  0  0  0  0  0  0  0  0
   -0.5303   -0.1339    1.7937 H   0  0  0  0  0  0  0  0  0  0  0  0
   -0.3127    1.1477   -1.9874 H   0  0  0  0  0  0  0  0  0  0  0  0
   -1.5548   -0.0088   -1.4969 H   0  0  0  0  0  0  0  0  0  0  0  0
    3.9945   -2.6090    0.9037 H   0  0  0  0  0  0  0  0  0  0  0  0
    3.9937   -1.7640    2.4539 H   0  0  0  0  0  0  0  0  0  0  0  0
    3.5398    0.3992    1.4218 H   0  0  0  0  0  0  0  0  0  0  0  0
    3.4706   -0.3435   -0.2206 H   0  0  0  0  0  0  0  0  0  0  0  0
    9.4013    2.1113   -0.9406 H   0  0  0  0  0  0  0  0  0  0  0  0
    9.9826    0.4982   -1.5265 H   0  0  0  0  0  0  0  0  0  0  0  0
   10.3875    1.0039    0.1526 H   0  0  0  0  0  0  0  0  0  0  0  0
    5.3940    0.0211   -1.5579 H   0  0  0  0  0  0  0  0  0  0  0  0
    5.4329    0.9626   -0.0369 H   0  0  0  0  0  0  0  0  0  0  0  0
    7.2219   -1.8714   -1.5807 H   0  0  0  0  0  0  0  0  0  0  0  0
    7.4064   -2.7779   -0.0173 H   0  0  0  0  0  0  0  0  0  0  0  0
    7.5573    0.5955   -2.0935 H   0  0  0  0  0  0  0  0  0  0  0  0
    7.2488    1.9422   -0.9189 H   0  0  0  0  0  0  0  0  0  0  0  0
    9.3357   -1.2287   -1.0652 H   0  0  0  0  0  0  0  0  0  0  0  0
    9.0819   -1.3736    0.6983 H   0  0  0  0  0  0  0  0  0  0  0  0
   -1.2185    3.5612    1.8324 H   0  0  0  0  0  0  0  0  0  0  0  0
   -3.0746    1.4004   -1.5982 H   0  0  0  0  0  0  0  0  0  0  0  0
   -6.5349   -2.3719    0.1994 H   0  0  0  0  0  0  0  0  0  0  0  0
   -6.2994   -2.3006   -2.2300 H   0  0  0  0  0  0  0  0  0  0  0  0
   -4.7451    0.9292   -3.0059 H   0  0  0  0  0  0  0  0  0  0  0  0
   -2.9438    3.0936    0.8511 H   0  0  0  0  0  0  0  0  0  0  0  0
   -5.4071    0.8718   -0.5696 H   0  0  0  0  0  0  0  0  0  0  0  0
    1.0497   -0.5330   -1.4607 H   0  0  0  0  0  0  0  0  0  0  0  0
    1.7850    0.9882    0.1780 H   0  0  0  0  0  0  0  0  0  0  0  0
   -2.3556    0.1145    0.9364 H   0  0  0  0  0  0  0  0  0  0  0  0
    0.4639    2.4850    0.6533 H   0  0  0  0  0  0  0  0  0  0  0  0
   -1.5034    2.5053   -0.6416 H   0  0  0  0  0  0  0  0  0  0  0  0
   -6.9066   -1.3228    2.2371 H   0  0  0  0  0  0  0  0  0  0  0  0
   -8.4602   -1.3715    1.2258 H   0  0  0  0  0  0  0  0  0  0  0  0
   -7.9331    0.1071    2.0668 H   0  0  0  0  0  0  0  0  0  0  0  0
  4  7  1  0
  3 13  1  0
 13 14  1  0
 16 18  1  0
 17 19  1  0
  8 20  1  0
  1 22  1  0
 14 23  1  0
  2 24  1  0
 10 24  1  0
  5 25  1  0
  9 25  1  0
 24 25  1  0
  6 26  1  0
  9 26  1  0
  7 27  1  0
  8 27  1  0
 10 28  1  0
 21 28  1  0
 26 28  1  0
 12 29  1  0
 22 29  1  0
 11 30  1  0
 23 30  1  0
 29 30  1  0
 21 31  1  0
 27 31  1  0
 11 32  1  0
 20 32  1  0
 12 33  1  0
 31 33  1  0
 32 33  1  0
  3 34  1  0
 16 34  1  0
 17 34  1  0
 15 35  1  0
 18 35  1  0
 19 35  1  0
  2 36  1  0
 40 43  1  0
 39 49  1  0
 49 50  1  0
 52 54  1  0
 53 55  1  0
 44 56  1  0
 37 58  1  0
 50 59  1  0
 38 60  1  0
 46 60  1  0
 41 61  1  0
 45 61  1  0
 60 61  1  0
 42 62  1  0
 45 62  1  0
 43 63  1  0
 44 63  1  0
 46 64  1  0
 57 64  1  0
 62 64  1  0
 48 65  1  0
 58 65  1  0
 47 66  1  0
 59 66  1  0
 65 66  1  0
 57 67  1  0
 63 67  1  0
 47 68  1  0
 56 68  1  0
 48 69  1  0
 67 69  1  0
 68 69  1  0
 39 70  1  0
 52 70  1  0
 53 70  1  0
 51 71  1  0
 54 71  1  0
 55 71  1  0
 38 72  1  0
  1 73  1  0
  1 74  1  0
  1 75  1  0
  3 76  1  0
  3 77  1  0
  4 78  1  0
  4 79  1  0
  7 80  1  0
  7 81  1  0
  8 82  1  0
  8 83  1  0
  9 84  1  0
  9 85  1  0
 10 86  1  0
 10 87  1  0
 11 88  1  0
 11 89  1  0
 12 90  1  0
 12 91  1  0
 13 92  1  0
 13 93  1  0
 14 94  1  0
 14 95  1  0
 15 96  1  0
 15 97  1  0
 15 98  1  0
 16 99  1  0
 16100  1  0
 17101  1  0
 17102  1  0
 18103  1  0
 18104  1  0
 19105  1  0
 19106  1  0
 20107  1  0
 21108  1  0
 24109  1  0
 25110  1  0
 26111  1  0
 27112  1  0
 28113  1  0
 29114  1  0
 30115  1  0
 31116  1  0
 32117  1  0
 33118  1  0
 36119  1  0
 36120  1  0
 36121  1  0
 37122  1  0
 37123  1  0
 37124  1  0
 39125  1  0
 39126  1  0
 40127  1  0
 40128  1  0
 43129  1  0
 43130  1  0
 44131  1  0
 44132  1  0
 45133  1  0
 45134  1  0
 46135  1  0
 46136  1  0
 47137  1  0
 47138  1  0
 48139  1  0
 48140  1  0
 49141  1  0
 49142  1  0
 50143  1  0
 50144  1  0
 51145  1  0
 51146  1  0
 51147  1  0
 52148  1  0
 52149  1  0
 53150  1  0
 53151  1  0
 54152  1  0
 54153  1  0
 55154  1  0
 55155  1  0
 56156  1  0
 57157  1  0
 60158  1  0
 61159  1  0
 62160  1  0
 63161  1  0
 64162  1  0
 65163  1  0
 66164  1  0
 67165  1  0
 68166  1  0
 69167  1  0
 72168  1  0
 72169  1  0
 72170  1  0
M  END
>  <PDBID>  (1) 
3UE4

>  <PDB ID>  (1) 
3UE4

>  <Generic Name>  (1) 
Bosutinib

>  <Brand Name>  (1) 
Bosulif

>  <DrugBank ID>  (1) 
DB06616

>  <ATC Codes>  (1) 
L01XE14

>  <Ligand ID>  (1) 
DB8

>  <Target Name>  (1) 
Tyrosine-protein kinase ABL1

>  <UniProt ID>  (1) 
P00519

>  <PDB ID.1>  (1) 
3UE4

>  <Seq. Identity>  (1) 
95%

$$$$
