PDB_DB13139_00
     RDKit          3D

 88 88  0  0  0  0  0  0  0  0999 V2000
    5.0300   -1.4187   -0.7462 O   0  0  0  0  0  0  0  0  0  0  0  0
    3.6399   -1.3436   -0.8548 C   0  0  0  0  0  0  0  0  0  0  0  0
    3.1567   -0.7336    0.4593 C   0  0  0  0  0  0  0  0  0  0  0  0
    3.7377    0.6298    0.6775 C   0  0  0  0  0  0  0  0  0  0  0  0
    3.7768    0.9333    2.0239 O   0  0  0  0  0  0  0  0  0  0  0  0
    3.0326    1.6985   -0.1123 C   0  0  0  0  0  0  0  0  0  0  0  0
    1.6676    1.3344   -0.5759 C   0  0  0  0  0  0  0  0  0  0  0  0
    1.6865   -0.8256    0.6518 C   0  0  0  0  0  0  0  0  0  0  0  0
    0.9250    0.4567    0.4158 C   0  0  0  0  0  0  0  0  0  0  0  0
   -0.4382    0.1113   -0.2157 C   0  0  1  0  0  0  0  0  0  0  0  0
   -0.1154   -0.5616   -1.3945 O   0  0  0  0  0  0  0  0  0  0  0  0
   -1.2943   -0.6851    0.7074 C   0  0  0  0  0  0  0  0  0  0  0  0
   -2.5392   -1.0921    0.1824 N   0  0  0  0  0  0  0  0  0  0  0  0
   -3.5341   -0.1236   -0.0749 C   0  0  0  0  0  0  0  0  0  0  0  0
   -4.8846   -0.8305    0.1695 C   0  0  0  0  0  0  0  0  0  0  0  0
   -3.5846    0.3352   -1.5187 C   0  0  0  0  0  0  0  0  0  0  0  0
   -3.5189    1.0293    0.8706 C   0  0  0  0  0  0  0  0  0  0  0  0
    5.0300   -1.4187   -0.7462 O   0  0  0  0  0  0  0  0  0  0  0  0
    3.6399   -1.3436   -0.8548 C   0  0  0  0  0  0  0  0  0  0  0  0
    3.1567   -0.7336    0.4593 C   0  0  0  0  0  0  0  0  0  0  0  0
    3.7377    0.6298    0.6775 C   0  0  0  0  0  0  0  0  0  0  0  0
    3.7768    0.9333    2.0239 O   0  0  0  0  0  0  0  0  0  0  0  0
    3.0326    1.6985   -0.1123 C   0  0  0  0  0  0  0  0  0  0  0  0
    1.6676    1.3344   -0.5759 C   0  0  0  0  0  0  0  0  0  0  0  0
    1.6865   -0.8256    0.6518 C   0  0  0  0  0  0  0  0  0  0  0  0
    0.9250    0.4567    0.4158 C   0  0  0  0  0  0  0  0  0  0  0  0
   -0.4382    0.1113   -0.2157 C   0  0  1  0  0  0  0  0  0  0  0  0
   -0.1154   -0.5616   -1.3945 O   0  0  0  0  0  0  0  0  0  0  0  0
   -1.2943   -0.6851    0.7074 C   0  0  0  0  0  0  0  0  0  0  0  0
   -2.5392   -1.0921    0.1824 N   0  0  0  0  0  0  0  0  0  0  0  0
   -3.5341   -0.1236   -0.0749 C   0  0  0  0  0  0  0  0  0  0  0  0
   -4.8846   -0.8305    0.1695 C   0  0  0  0  0  0  0  0  0  0  0  0
   -3.5846    0.3352   -1.5187 C   0  0  0  0  0  0  0  0  0  0  0  0
   -3.5189    1.0293    0.8706 C   0  0  0  0  0  0  0  0  0  0  0  0
    5.3823   -0.6726   -1.3233 H   0  0  0  0  0  0  0  0  0  0  0  0
    3.3204   -0.7654   -1.7326 H   0  0  0  0  0  0  0  0  0  0  0  0
    3.1910   -2.3532   -0.9470 H   0  0  0  0  0  0  0  0  0  0  0  0
    3.6217   -1.3954    1.2486 H   0  0  0  0  0  0  0  0  0  0  0  0
    4.8017    0.5860    0.3154 H   0  0  0  0  0  0  0  0  0  0  0  0
    3.7332    0.0813    2.5242 H   0  0  0  0  0  0  0  0  0  0  0  0
    2.9540    2.6007    0.5310 H   0  0  0  0  0  0  0  0  0  0  0  0
    3.6299    1.9965   -1.0028 H   0  0  0  0  0  0  0  0  0  0  0  0
    1.0634    2.2877   -0.6446 H   0  0  0  0  0  0  0  0  0  0  0  0
    1.6168    0.9179   -1.6031 H   0  0  0  0  0  0  0  0  0  0  0  0
    1.3171   -1.6376   -0.0414 H   0  0  0  0  0  0  0  0  0  0  0  0
    1.4103   -1.1779    1.6861 H   0  0  0  0  0  0  0  0  0  0  0  0
    0.8260    0.9986    1.3530 H   0  0  0  0  0  0  0  0  0  0  0  0
   -0.9287    1.0760   -0.4264 H   0  0  0  0  0  0  0  0  0  0  0  0
   -0.3737    0.0082   -2.1469 H   0  0  0  0  0  0  0  0  0  0  0  0
   -0.7107   -1.6355    0.9148 H   0  0  0  0  0  0  0  0  0  0  0  0
   -1.4372   -0.2107    1.6754 H   0  0  0  0  0  0  0  0  0  0  0  0
   -2.8976   -2.0040    0.5322 H   0  0  0  0  0  0  0  0  0  0  0  0
   -5.6599   -0.1946   -0.2739 H   0  0  0  0  0  0  0  0  0  0  0  0
   -5.0384   -0.9786    1.2734 H   0  0  0  0  0  0  0  0  0  0  0  0
   -4.8143   -1.7927   -0.3738 H   0  0  0  0  0  0  0  0  0  0  0  0
   -2.9554    1.2025   -1.7306 H   0  0  0  0  0  0  0  0  0  0  0  0
   -3.3751   -0.5393   -2.1767 H   0  0  0  0  0  0  0  0  0  0  0  0
   -4.6295    0.6419   -1.7224 H   0  0  0  0  0  0  0  0  0  0  0  0
   -4.5794    1.4303    0.9192 H   0  0  0  0  0  0  0  0  0  0  0  0
   -3.2785    0.7060    1.9039 H   0  0  0  0  0  0  0  0  0  0  0  0
   -2.9331    1.9099    0.5292 H   0  0  0  0  0  0  0  0  0  0  0  0
    5.3823   -0.6726   -1.3233 H   0  0  0  0  0  0  0  0  0  0  0  0
    3.3204   -0.7654   -1.7326 H   0  0  0  0  0  0  0  0  0  0  0  0
    3.1910   -2.3532   -0.9470 H   0  0  0  0  0  0  0  0  0  0  0  0
    3.6217   -1.3954    1.2486 H   0  0  0  0  0  0  0  0  0  0  0  0
    4.8017    0.5860    0.3154 H   0  0  0  0  0  0  0  0  0  0  0  0
    3.7332    0.0813    2.5242 H   0  0  0  0  0  0  0  0  0  0  0  0
    2.9540    2.6007    0.5310 H   0  0  0  0  0  0  0  0  0  0  0  0
    3.6299    1.9965   -1.0028 H   0  0  0  0  0  0  0  0  0  0  0  0
    1.0634    2.2877   -0.6446 H   0  0  0  0  0  0  0  0  0  0  0  0
    1.6168    0.9179   -1.6031 H   0  0  0  0  0  0  0  0  0  0  0  0
    1.3171   -1.6376   -0.0414 H   0  0  0  0  0  0  0  0  0  0  0  0
    1.4103   -1.1779    1.6861 H   0  0  0  0  0  0  0  0  0  0  0  0
    0.8260    0.9986    1.3530 H   0  0  0  0  0  0  0  0  0  0  0  0
   -0.9287    1.0760   -0.4264 H   0  0  0  0  0  0  0  0  0  0  0  0
   -0.3737    0.0082   -2.1469 H   0  0  0  0  0  0  0  0  0  0  0  0
   -0.7107   -1.6355    0.9148 H   0  0  0  0  0  0  0  0  0  0  0  0
   -1.4372   -0.2107    1.6754 H   0  0  0  0  0  0  0  0  0  0  0  0
   -2.8976   -2.0040    0.5322 H   0  0  0  0  0  0  0  0  0  0  0  0
   -5.6599   -0.1946   -0.2739 H   0  0  0  0  0  0  0  0  0  0  0  0
   -5.0384   -0.9786    1.2734 H   0  0  0  0  0  0  0  0  0  0  0  0
   -4.8143   -1.7927   -0.3738 H   0  0  0  0  0  0  0  0  0  0  0  0
   -2.9554    1.2025   -1.7306 H   0  0  0  0  0  0  0  0  0  0  0  0
   -3.3751   -0.5393   -2.1767 H   0  0  0  0  0  0  0  0  0  0  0  0
   -4.6295    0.6419   -1.7224 H   0  0  0  0  0  0  0  0  0  0  0  0
   -4.5794    1.4303    0.9192 H   0  0  0  0  0  0  0  0  0  0  0  0
   -3.2785    0.7060    1.9039 H   0  0  0  0  0  0  0  0  0  0  0  0
   -2.9331    1.9099    0.5292 H   0  0  0  0  0  0  0  0  0  0  0  0
  1  2  1  0
  2  3  1  0
  3  4  1  0
  4  5  1  0
  4  6  1  0
  6  7  1  0
  3  8  1  0
  7  9  1  0
  8  9  1  0
  9 10  1  0
 10 11  1  0
 10 12  1  0
 12 13  1  0
 14 13  1  0
 14 15  1  0
 14 16  1  0
 14 17  1  0
 18 19  1  0
 19 20  1  0
 20 21  1  0
 21 22  1  0
 21 23  1  0
 23 24  1  0
 20 25  1  0
 24 26  1  0
 25 26  1  0
 26 27  1  0
 27 28  1  0
 27 29  1  0
 29 30  1  0
 31 30  1  0
 31 32  1  0
 31 33  1  0
 31 34  1  0
  1 35  1  0
  2 36  1  0
  2 37  1  0
  3 38  1  0
  4 39  1  0
  5 40  1  0
  6 41  1  0
  6 42  1  0
  7 43  1  0
  7 44  1  0
  8 45  1  0
  8 46  1  0
  9 47  1  0
 10 48  1  6
 11 49  1  0
 12 50  1  0
 12 51  1  0
 13 52  1  0
 15 53  1  0
 15 54  1  0
 15 55  1  0
 16 56  1  0
 16 57  1  0
 16 58  1  0
 17 59  1  0
 17 60  1  0
 17 61  1  0
 18 62  1  0
 19 63  1  0
 19 64  1  0
 20 65  1  0
 21 66  1  0
 22 67  1  0
 23 68  1  0
 23 69  1  0
 24 70  1  0
 24 71  1  0
 25 72  1  0
 25 73  1  0
 26 74  1  0
 27 75  1  6
 28 76  1  0
 29 77  1  0
 29 78  1  0
 30 79  1  0
 32 80  1  0
 32 81  1  0
 32 82  1  0
 33 83  1  0
 33 84  1  0
 33 85  1  0
 34 86  1  0
 34 87  1  0
 34 88  1  0
M  END
>  <PDBID>  (1) 
2Y04

>  <PDB ID>  (1) 
2Y04

>  <Generic Name>  (1) 
Levosalbutamol

>  <Brand Name>  (1) 
Levalbuterol#Levalbuterol Hydrochloride#Xopenex

>  <DrugBank ID>  (1) 
DB13139

>  <ATC Codes>  (1) 
nan

>  <Ligand ID>  (1) 
68H

>  <Target Name>  (1) 
Beta-2 adrenergic receptor

>  <UniProt ID>  (1) 
P07550

>  <PDB ID.1>  (1) 
2Y04

>  <Seq. Identity>  (1) 
58%

$$$$
