PDB_DB08906_01
     RDKit          3D

160168  0  0  0  0  0  0  0  0999 V2000
   -2.1780   -0.7595    2.5577 C   0  0  0  0  0  0  0  0  0  0  0  0
   -1.8217   -1.7357    1.4847 C   0  0  2  0  0  0  0  0  0  0  0  0
   -0.3395   -2.0580    1.4888 C   0  0  0  0  0  0  0  0  0  0  0  0
    0.1614   -0.8743    0.7765 C   0  0  1  0  0  0  0  0  0  0  0  0
    1.5716   -0.8350    0.3470 C   0  0  2  0  0  0  0  0  0  0  0  0
    2.4779   -1.1991    1.5154 C   0  0  0  0  0  0  0  0  0  0  0  0
    3.8906   -1.1040    1.0295 C   0  0  2  0  0  0  0  0  0  0  0  0
    4.6731   -0.6280    2.0543 F   0  0  0  0  0  0  0  0  0  0  0  0
    4.0444   -0.3349   -0.2405 C   0  0  0  0  0  0  0  0  0  0  0  0
    5.4638   -0.0024   -0.5324 C   0  0  0  0  0  0  0  0  0  0  0  0
    6.0984    0.9915    0.3641 C   0  0  0  0  0  0  0  0  0  0  0  0
    7.2079    1.5354   -0.3078 O   0  0  0  0  0  0  0  0  0  0  0  0
    5.2222    2.1373    0.7632 C   0  0  0  0  0  0  0  0  0  0  0  0
    3.7795    1.8083    0.8683 C   0  0  0  0  0  0  0  0  0  0  0  0
    3.2348    0.9548   -0.2566 C   0  0  1  0  0  0  0  0  0  0  0  0
    3.5538    1.6459   -1.5515 C   0  0  0  0  0  0  0  0  0  0  0  0
    1.8139    0.6451   -0.0096 C   0  0  2  0  0  0  0  0  0  0  0  0
    1.3804    1.3183    1.1489 F   0  0  0  0  0  0  0  0  0  0  0  0
    0.8565    1.0710   -1.0787 C   0  0  1  0  0  0  0  0  0  0  0  0
    1.3465    0.9116   -2.3778 O   0  0  0  0  0  0  0  0  0  0  0  0
   -0.5565    0.6486   -0.8873 C   0  0  0  0  0  0  0  0  0  0  0  0
   -0.7675   -0.7790   -0.4368 C   0  0  1  0  0  0  0  0  0  0  0  0
   -0.2810   -1.6945   -1.5465 C   0  0  0  0  0  0  0  0  0  0  0  0
   -2.0826   -1.1478    0.0765 C   0  0  2  0  0  0  0  0  0  0  0  0
   -2.9452   -0.1132    0.2818 O   0  0  0  0  0  0  0  0  0  0  0  0
   -3.5643    0.5322   -0.7123 C   0  0  0  0  0  0  0  0  0  0  0  0
   -5.0023    0.1871   -0.6307 O   0  0  0  0  0  0  0  0  0  0  0  0
   -3.6690    2.0283   -0.6777 C   0  0  0  0  0  0  0  0  0  0  0  0
   -4.4114    2.5334    0.5361 C   0  0  0  0  0  0  0  0  0  0  0  0
   -5.5982    3.2904   -0.0143 C   0  0  0  0  0  0  0  0  0  0  0  0
   -5.6679    2.7416   -1.4208 C   0  0  0  0  0  0  0  0  0  0  0  0
   -4.3743    2.4864   -1.8018 O   0  0  0  0  0  0  0  0  0  0  0  0
   -2.7764   -2.3013   -0.6490 C   0  0  0  0  0  0  0  0  0  0  0  0
   -3.8562   -2.6535    0.2079 O   0  0  0  0  0  0  0  0  0  0  0  0
   -1.7914   -3.8192   -0.6383 S   0  0  0  0  0  0  0  0  0  0  0  0
   -2.6334   -5.1533   -1.5010 C   0  0  0  0  0  0  0  0  0  0  0  0
   -3.7837   -5.5224   -0.8169 F   0  0  0  0  0  0  0  0  0  0  0  0
   -2.1780   -0.7595    2.5577 C   0  0  0  0  0  0  0  0  0  0  0  0
   -1.8217   -1.7357    1.4847 C   0  0  2  0  0  0  0  0  0  0  0  0
   -0.3395   -2.0580    1.4888 C   0  0  0  0  0  0  0  0  0  0  0  0
    0.1614   -0.8743    0.7765 C   0  0  1  0  0  0  0  0  0  0  0  0
    1.5716   -0.8350    0.3470 C   0  0  2  0  0  0  0  0  0  0  0  0
    2.4779   -1.1991    1.5154 C   0  0  0  0  0  0  0  0  0  0  0  0
    3.8906   -1.1040    1.0295 C   0  0  2  0  0  0  0  0  0  0  0  0
    4.6731   -0.6280    2.0543 F   0  0  0  0  0  0  0  0  0  0  0  0
    4.0444   -0.3349   -0.2405 C   0  0  0  0  0  0  0  0  0  0  0  0
    5.4638   -0.0024   -0.5324 C   0  0  0  0  0  0  0  0  0  0  0  0
    6.0984    0.9915    0.3641 C   0  0  0  0  0  0  0  0  0  0  0  0
    7.2079    1.5354   -0.3078 O   0  0  0  0  0  0  0  0  0  0  0  0
    5.2222    2.1373    0.7632 C   0  0  0  0  0  0  0  0  0  0  0  0
    3.7795    1.8083    0.8683 C   0  0  0  0  0  0  0  0  0  0  0  0
    3.2348    0.9548   -0.2566 C   0  0  1  0  0  0  0  0  0  0  0  0
    3.5538    1.6459   -1.5515 C   0  0  0  0  0  0  0  0  0  0  0  0
    1.8139    0.6451   -0.0096 C   0  0  2  0  0  0  0  0  0  0  0  0
    1.3804    1.3183    1.1489 F   0  0  0  0  0  0  0  0  0  0  0  0
    0.8565    1.0710   -1.0787 C   0  0  1  0  0  0  0  0  0  0  0  0
    1.3465    0.9116   -2.3778 O   0  0  0  0  0  0  0  0  0  0  0  0
   -0.5565    0.6486   -0.8873 C   0  0  0  0  0  0  0  0  0  0  0  0
   -0.7675   -0.7790   -0.4368 C   0  0  1  0  0  0  0  0  0  0  0  0
   -0.2810   -1.6945   -1.5465 C   0  0  0  0  0  0  0  0  0  0  0  0
   -2.0826   -1.1478    0.0765 C   0  0  2  0  0  0  0  0  0  0  0  0
   -2.9452   -0.1132    0.2818 O   0  0  0  0  0  0  0  0  0  0  0  0
   -3.5643    0.5322   -0.7123 C   0  0  0  0  0  0  0  0  0  0  0  0
   -5.0023    0.1871   -0.6307 O   0  0  0  0  0  0  0  0  0  0  0  0
   -3.6690    2.0283   -0.6777 C   0  0  0  0  0  0  0  0  0  0  0  0
   -4.4114    2.5334    0.5361 C   0  0  0  0  0  0  0  0  0  0  0  0
   -5.5982    3.2904   -0.0143 C   0  0  0  0  0  0  0  0  0  0  0  0
   -5.6679    2.7416   -1.4208 C   0  0  0  0  0  0  0  0  0  0  0  0
   -4.3743    2.4864   -1.8018 O   0  0  0  0  0  0  0  0  0  0  0  0
   -2.7764   -2.3013   -0.6490 C   0  0  0  0  0  0  0  0  0  0  0  0
   -3.8562   -2.6535    0.2079 O   0  0  0  0  0  0  0  0  0  0  0  0
   -1.7914   -3.8192   -0.6383 S   0  0  0  0  0  0  0  0  0  0  0  0
   -2.6334   -5.1533   -1.5010 C   0  0  0  0  0  0  0  0  0  0  0  0
   -3.7837   -5.5224   -0.8169 F   0  0  0  0  0  0  0  0  0  0  0  0
   -3.2738   -0.9071    2.7879 H   0  0  0  0  0  0  0  0  0  0  0  0
   -1.9701    0.2901    2.3055 H   0  0  0  0  0  0  0  0  0  0  0  0
   -1.6568   -1.0822    3.4893 H   0  0  0  0  0  0  0  0  0  0  0  0
   -2.3599   -2.6714    1.6580 H   0  0  0  0  0  0  0  0  0  0  0  0
    0.0217   -2.0192    2.5553 H   0  0  0  0  0  0  0  0  0  0  0  0
   -0.0669   -2.9890    1.0076 H   0  0  0  0  0  0  0  0  0  0  0  0
   -0.0775    0.0522    1.3750 H   0  0  0  0  0  0  0  0  0  0  0  0
    1.8265   -1.4998   -0.4708 H   0  0  0  0  0  0  0  0  0  0  0  0
    2.2695   -0.5540    2.3998 H   0  0  0  0  0  0  0  0  0  0  0  0
    2.1867   -2.2268    1.8224 H   0  0  0  0  0  0  0  0  0  0  0  0
    4.2245   -2.1608    0.8127 H   0  0  0  0  0  0  0  0  0  0  0  0
    3.6857   -0.9758   -1.0987 H   0  0  0  0  0  0  0  0  0  0  0  0
    5.5917    0.2816   -1.6176 H   0  0  0  0  0  0  0  0  0  0  0  0
    6.0531   -0.9625   -0.4438 H   0  0  0  0  0  0  0  0  0  0  0  0
    6.5375    0.4702    1.2638 H   0  0  0  0  0  0  0  0  0  0  0  0
    7.0643    2.4720   -0.5742 H   0  0  0  0  0  0  0  0  0  0  0  0
    5.5614    2.4450    1.7976 H   0  0  0  0  0  0  0  0  0  0  0  0
    5.4272    3.0609    0.1445 H   0  0  0  0  0  0  0  0  0  0  0  0
    3.2082    2.7814    0.8211 H   0  0  0  0  0  0  0  0  0  0  0  0
    3.5626    1.3965    1.8703 H   0  0  0  0  0  0  0  0  0  0  0  0
    3.6738    0.9195   -2.3946 H   0  0  0  0  0  0  0  0  0  0  0  0
    2.9351    2.5077   -1.7846 H   0  0  0  0  0  0  0  0  0  0  0  0
    4.6003    2.0576   -1.4239 H   0  0  0  0  0  0  0  0  0  0  0  0
    0.8317    2.2116   -0.9775 H   0  0  0  0  0  0  0  0  0  0  0  0
    0.5974    1.1607   -2.9780 H   0  0  0  0  0  0  0  0  0  0  0  0
   -0.8985    1.2476    0.0158 H   0  0  0  0  0  0  0  0  0  0  0  0
   -1.1026    0.8534   -1.7981 H   0  0  0  0  0  0  0  0  0  0  0  0
    0.2840   -2.5611   -1.2012 H   0  0  0  0  0  0  0  0  0  0  0  0
   -1.1663   -1.9129   -2.1776 H   0  0  0  0  0  0  0  0  0  0  0  0
    0.4004   -1.1451   -2.2246 H   0  0  0  0  0  0  0  0  0  0  0  0
   -3.3083    0.2480   -1.7610 H   0  0  0  0  0  0  0  0  0  0  0  0
   -5.1664   -0.1792    0.2533 H   0  0  0  0  0  0  0  0  0  0  0  0
   -2.6756    2.4875   -0.7634 H   0  0  0  0  0  0  0  0  0  0  0  0
   -4.6979    1.7304    1.2389 H   0  0  0  0  0  0  0  0  0  0  0  0
   -3.7624    3.2819    1.0351 H   0  0  0  0  0  0  0  0  0  0  0  0
   -6.5308    3.0584    0.5074 H   0  0  0  0  0  0  0  0  0  0  0  0
   -5.4377    4.3868   -0.0356 H   0  0  0  0  0  0  0  0  0  0  0  0
   -6.3418    1.8834   -1.5093 H   0  0  0  0  0  0  0  0  0  0  0  0
   -6.0795    3.5789   -2.0580 H   0  0  0  0  0  0  0  0  0  0  0  0
   -3.0994   -2.0770   -1.6531 H   0  0  0  0  0  0  0  0  0  0  0  0
   -4.6837   -2.7625   -0.3087 H   0  0  0  0  0  0  0  0  0  0  0  0
   -1.9904   -6.0487   -1.5685 H   0  0  0  0  0  0  0  0  0  0  0  0
   -2.8733   -4.8802   -2.5656 H   0  0  0  0  0  0  0  0  0  0  0  0
   -3.2738   -0.9071    2.7879 H   0  0  0  0  0  0  0  0  0  0  0  0
   -1.9701    0.2901    2.3055 H   0  0  0  0  0  0  0  0  0  0  0  0
   -1.6568   -1.0822    3.4893 H   0  0  0  0  0  0  0  0  0  0  0  0
   -2.3599   -2.6714    1.6580 H   0  0  0  0  0  0  0  0  0  0  0  0
    0.0217   -2.0192    2.5553 H   0  0  0  0  0  0  0  0  0  0  0  0
   -0.0669   -2.9890    1.0076 H   0  0  0  0  0  0  0  0  0  0  0  0
   -0.0775    0.0522    1.3750 H   0  0  0  0  0  0  0  0  0  0  0  0
    1.8265   -1.4998   -0.4708 H   0  0  0  0  0  0  0  0  0  0  0  0
    2.2695   -0.5540    2.3998 H   0  0  0  0  0  0  0  0  0  0  0  0
    2.1867   -2.2268    1.8224 H   0  0  0  0  0  0  0  0  0  0  0  0
    4.2245   -2.1608    0.8127 H   0  0  0  0  0  0  0  0  0  0  0  0
    3.6857   -0.9758   -1.0987 H   0  0  0  0  0  0  0  0  0  0  0  0
    5.5917    0.2816   -1.6176 H   0  0  0  0  0  0  0  0  0  0  0  0
    6.0531   -0.9625   -0.4438 H   0  0  0  0  0  0  0  0  0  0  0  0
    6.5375    0.4702    1.2638 H   0  0  0  0  0  0  0  0  0  0  0  0
    7.0643    2.4720   -0.5742 H   0  0  0  0  0  0  0  0  0  0  0  0
    5.5614    2.4450    1.7976 H   0  0  0  0  0  0  0  0  0  0  0  0
    5.4272    3.0609    0.1445 H   0  0  0  0  0  0  0  0  0  0  0  0
    3.2082    2.7814    0.8211 H   0  0  0  0  0  0  0  0  0  0  0  0
    3.5626    1.3965    1.8703 H   0  0  0  0  0  0  0  0  0  0  0  0
    3.6738    0.9195   -2.3946 H   0  0  0  0  0  0  0  0  0  0  0  0
    2.9351    2.5077   -1.7846 H   0  0  0  0  0  0  0  0  0  0  0  0
    4.6003    2.0576   -1.4239 H   0  0  0  0  0  0  0  0  0  0  0  0
    0.8317    2.2116   -0.9775 H   0  0  0  0  0  0  0  0  0  0  0  0
    0.5974    1.1607   -2.9780 H   0  0  0  0  0  0  0  0  0  0  0  0
   -0.8985    1.2476    0.0158 H   0  0  0  0  0  0  0  0  0  0  0  0
   -1.1026    0.8534   -1.7981 H   0  0  0  0  0  0  0  0  0  0  0  0
    0.2840   -2.5611   -1.2012 H   0  0  0  0  0  0  0  0  0  0  0  0
   -1.1663   -1.9129   -2.1776 H   0  0  0  0  0  0  0  0  0  0  0  0
    0.4004   -1.1451   -2.2246 H   0  0  0  0  0  0  0  0  0  0  0  0
   -3.3083    0.2480   -1.7610 H   0  0  0  0  0  0  0  0  0  0  0  0
   -5.1664   -0.1792    0.2533 H   0  0  0  0  0  0  0  0  0  0  0  0
   -2.6756    2.4875   -0.7634 H   0  0  0  0  0  0  0  0  0  0  0  0
   -4.6979    1.7304    1.2389 H   0  0  0  0  0  0  0  0  0  0  0  0
   -3.7624    3.2819    1.0351 H   0  0  0  0  0  0  0  0  0  0  0  0
   -6.5308    3.0584    0.5074 H   0  0  0  0  0  0  0  0  0  0  0  0
   -5.4377    4.3868   -0.0356 H   0  0  0  0  0  0  0  0  0  0  0  0
   -6.3418    1.8834   -1.5093 H   0  0  0  0  0  0  0  0  0  0  0  0
   -6.0795    3.5789   -2.0580 H   0  0  0  0  0  0  0  0  0  0  0  0
   -3.0994   -2.0770   -1.6531 H   0  0  0  0  0  0  0  0  0  0  0  0
   -4.6837   -2.7625   -0.3087 H   0  0  0  0  0  0  0  0  0  0  0  0
   -1.9904   -6.0487   -1.5685 H   0  0  0  0  0  0  0  0  0  0  0  0
   -2.8733   -4.8802   -2.5656 H   0  0  0  0  0  0  0  0  0  0  0  0
  1  2  1  0
  2  3  1  0
  3  4  1  0
  4  5  1  0
  5  6  1  0
  6  7  1  0
  7  8  1  0
  7  9  1  0
  9 10  1  0
 10 11  1  0
 11 12  1  0
 11 13  1  0
 13 14  1  0
  9 15  1  0
 14 15  1  0
 15 16  1  6
  5 17  1  0
 15 17  1  0
 17 18  1  1
 17 19  1  0
 19 20  1  0
 19 21  1  0
  4 22  1  0
 21 22  1  0
 22 23  1  6
  2 24  1  0
 22 24  1  0
 24 25  1  1
 25 26  1  0
 26 27  1  0
 26 28  1  0
 28 29  1  0
 29 30  1  0
 30 31  1  0
 28 32  1  0
 31 32  1  0
 24 33  1  0
 33 34  1  0
 33 35  1  0
 35 36  1  0
 36 37  1  0
 38 39  1  0
 39 40  1  0
 40 41  1  0
 41 42  1  0
 42 43  1  0
 43 44  1  0
 44 45  1  0
 44 46  1  0
 46 47  1  0
 47 48  1  0
 48 49  1  0
 48 50  1  0
 50 51  1  0
 46 52  1  0
 51 52  1  0
 52 53  1  6
 42 54  1  0
 52 54  1  0
 54 55  1  1
 54 56  1  0
 56 57  1  0
 56 58  1  0
 41 59  1  0
 58 59  1  0
 59 60  1  6
 39 61  1  0
 59 61  1  0
 61 62  1  1
 62 63  1  0
 63 64  1  0
 63 65  1  0
 65 66  1  0
 66 67  1  0
 67 68  1  0
 65 69  1  0
 68 69  1  0
 61 70  1  0
 70 71  1  0
 70 72  1  0
 72 73  1  0
 73 74  1  0
  1 75  1  0
  1 76  1  0
  1 77  1  0
  2 78  1  1
  3 79  1  0
  3 80  1  0
  4 81  1  1
  5 82  1  6
  6 83  1  0
  6 84  1  0
  7 85  1  6
  9 86  1  0
 10 87  1  0
 10 88  1  0
 11 89  1  0
 12 90  1  0
 13 91  1  0
 13 92  1  0
 14 93  1  0
 14 94  1  0
 16 95  1  0
 16 96  1  0
 16 97  1  0
 19 98  1  1
 20 99  1  0
 21100  1  0
 21101  1  0
 23102  1  0
 23103  1  0
 23104  1  0
 26105  1  0
 27106  1  0
 28107  1  0
 29108  1  0
 29109  1  0
 30110  1  0
 30111  1  0
 31112  1  0
 31113  1  0
 33114  1  0
 34115  1  0
 36116  1  0
 36117  1  0
 38118  1  0
 38119  1  0
 38120  1  0
 39121  1  1
 40122  1  0
 40123  1  0
 41124  1  1
 42125  1  6
 43126  1  0
 43127  1  0
 44128  1  6
 46129  1  0
 47130  1  0
 47131  1  0
 48132  1  0
 49133  1  0
 50134  1  0
 50135  1  0
 51136  1  0
 51137  1  0
 53138  1  0
 53139  1  0
 53140  1  0
 56141  1  1
 57142  1  0
 58143  1  0
 58144  1  0
 60145  1  0
 60146  1  0
 60147  1  0
 63148  1  0
 64149  1  0
 65150  1  0
 66151  1  0
 66152  1  0
 67153  1  0
 67154  1  0
 68155  1  0
 68156  1  0
 70157  1  0
 71158  1  0
 73159  1  0
 73160  1  0
M  END
>  <PDBID>  (1) 
3CLD

>  <PDB ID>  (1) 
3CLD

>  <Generic Name>  (1) 
Fluticasone furoate

>  <Brand Name>  (1) 
Arnuity Ellipta#Avamys#Breo Ellipta#Flonase Sensimist Allergy Relief#Veramyst

>  <DrugBank ID>  (1) 
DB08906

>  <ATC Codes>  (1) 
R03AK10#R01AD12#R03BA09

>  <Ligand ID>  (1) 
GW6

>  <Target Name>  (1) 
Glucocorticoid receptor

>  <UniProt ID>  (1) 
P04150

>  <PDB ID.1>  (1) 
3CLD

>  <Seq. Identity>  (1) 
99%

$$$$
