PDB_DB01004_09
     RDKit          3D

 78 80  0  0  0  0  0  0  0  0999 V2000
   -3.8272    0.3311   -1.0761 N   0  0  0  0  0  0  0  0  0  0  0  0
   -3.0826    1.4065   -0.5115 C   0  0  0  0  0  0  0  0  0  0  0  0
   -1.1090    0.2143   -0.8328 C   0  0  0  0  0  0  0  0  0  0  0  0
   -0.1453   -1.4540    0.3403 C   0  0  0  0  0  0  0  0  0  0  0  0
    3.9906    1.5047    0.3444 C   0  0  0  0  0  0  0  0  0  0  0  0
    4.4587    1.4300    1.6491 O   0  0  0  0  0  0  0  0  0  0  0  0
    3.7229   -0.9029    0.4683 C   0  0  0  0  0  0  0  0  0  0  0  0
    4.7807   -1.1500   -0.4019 O   0  0  0  0  0  0  0  0  0  0  0  0
    2.9838    0.3680    0.1060 C   0  0  0  0  0  0  0  0  0  0  0  0
    1.9731    0.5418    0.9929 O   0  0  0  0  0  0  0  0  0  0  0  0
    0.7287    0.7762    0.4732 C   0  0  0  0  0  0  0  0  0  0  0  0
    0.1878   -0.2336   -0.3668 N   0  0  0  0  0  0  0  0  0  0  0  0
   -1.8421    0.9848    0.1476 N   0  0  0  0  0  0  0  0  0  0  0  0
   -3.8314    2.1505    0.4833 N   0  0  0  0  0  0  0  0  0  0  0  0
   -3.3030   -0.9168   -0.5943 C   0  0  0  0  0  0  0  0  0  0  0  0
   -3.2468   -0.8971    0.8105 O   0  0  0  0  0  0  0  0  0  0  0  0
   -1.8770   -1.0282   -1.1342 C   0  0  0  0  0  0  0  0  0  0  0  0
   -1.2183   -2.0739   -0.4257 N   0  0  0  0  0  0  0  0  0  0  0  0
   -3.8272    0.3311   -1.0761 N   0  0  0  0  0  0  0  0  0  0  0  0
   -3.0826    1.4065   -0.5115 C   0  0  0  0  0  0  0  0  0  0  0  0
   -1.1090    0.2143   -0.8328 C   0  0  0  0  0  0  0  0  0  0  0  0
   -0.1453   -1.4540    0.3403 C   0  0  0  0  0  0  0  0  0  0  0  0
    3.9906    1.5047    0.3444 C   0  0  0  0  0  0  0  0  0  0  0  0
    4.4587    1.4300    1.6491 O   0  0  0  0  0  0  0  0  0  0  0  0
    3.7229   -0.9029    0.4683 C   0  0  0  0  0  0  0  0  0  0  0  0
    4.7807   -1.1500   -0.4019 O   0  0  0  0  0  0  0  0  0  0  0  0
    2.9838    0.3680    0.1060 C   0  0  0  0  0  0  0  0  0  0  0  0
    1.9731    0.5418    0.9929 O   0  0  0  0  0  0  0  0  0  0  0  0
    0.7287    0.7762    0.4732 C   0  0  0  0  0  0  0  0  0  0  0  0
    0.1878   -0.2336   -0.3668 N   0  0  0  0  0  0  0  0  0  0  0  0
   -1.8421    0.9848    0.1476 N   0  0  0  0  0  0  0  0  0  0  0  0
   -3.8314    2.1505    0.4833 N   0  0  0  0  0  0  0  0  0  0  0  0
   -3.3030   -0.9168   -0.5943 C   0  0  0  0  0  0  0  0  0  0  0  0
   -3.2468   -0.8971    0.8105 O   0  0  0  0  0  0  0  0  0  0  0  0
   -1.8770   -1.0282   -1.1342 C   0  0  0  0  0  0  0  0  0  0  0  0
   -1.2183   -2.0739   -0.4257 N   0  0  0  0  0  0  0  0  0  0  0  0
   -4.8445    0.4643   -0.8909 H   0  0  0  0  0  0  0  0  0  0  0  0
   -2.7558    2.1018   -1.3255 H   0  0  0  0  0  0  0  0  0  0  0  0
   -0.9394    0.8404   -1.7421 H   0  0  0  0  0  0  0  0  0  0  0  0
   -0.5149   -1.2573    1.3648 H   0  0  0  0  0  0  0  0  0  0  0  0
    0.6617   -2.1806    0.3991 H   0  0  0  0  0  0  0  0  0  0  0  0
    4.8131    1.4186   -0.3937 H   0  0  0  0  0  0  0  0  0  0  0  0
    3.4498    2.4470    0.1344 H   0  0  0  0  0  0  0  0  0  0  0  0
    5.4365    1.5203    1.6836 H   0  0  0  0  0  0  0  0  0  0  0  0
    4.1136   -0.7362    1.5118 H   0  0  0  0  0  0  0  0  0  0  0  0
    3.0101   -1.7331    0.5159 H   0  0  0  0  0  0  0  0  0  0  0  0
    4.4755   -1.6426   -1.1873 H   0  0  0  0  0  0  0  0  0  0  0  0
    2.7034    0.4277   -0.9617 H   0  0  0  0  0  0  0  0  0  0  0  0
    0.7497    1.7387   -0.0748 H   0  0  0  0  0  0  0  0  0  0  0  0
    0.0427    0.8532    1.3684 H   0  0  0  0  0  0  0  0  0  0  0  0
   -1.3630    1.8992    0.3645 H   0  0  0  0  0  0  0  0  0  0  0  0
   -3.6110    1.8739    1.4564 H   0  0  0  0  0  0  0  0  0  0  0  0
   -4.8541    2.1665    0.3000 H   0  0  0  0  0  0  0  0  0  0  0  0
   -3.9172   -1.7700   -0.8892 H   0  0  0  0  0  0  0  0  0  0  0  0
   -3.1525   -1.8020    1.1757 H   0  0  0  0  0  0  0  0  0  0  0  0
   -1.9697   -1.2097   -2.2247 H   0  0  0  0  0  0  0  0  0  0  0  0
   -0.8776   -2.8130   -1.0571 H   0  0  0  0  0  0  0  0  0  0  0  0
   -4.8445    0.4643   -0.8909 H   0  0  0  0  0  0  0  0  0  0  0  0
   -2.7558    2.1018   -1.3255 H   0  0  0  0  0  0  0  0  0  0  0  0
   -0.9394    0.8404   -1.7421 H   0  0  0  0  0  0  0  0  0  0  0  0
   -0.5149   -1.2573    1.3648 H   0  0  0  0  0  0  0  0  0  0  0  0
    0.6617   -2.1806    0.3991 H   0  0  0  0  0  0  0  0  0  0  0  0
    4.8131    1.4186   -0.3937 H   0  0  0  0  0  0  0  0  0  0  0  0
    3.4498    2.4470    0.1344 H   0  0  0  0  0  0  0  0  0  0  0  0
    5.4365    1.5203    1.6836 H   0  0  0  0  0  0  0  0  0  0  0  0
    4.1136   -0.7362    1.5118 H   0  0  0  0  0  0  0  0  0  0  0  0
    3.0101   -1.7331    0.5159 H   0  0  0  0  0  0  0  0  0  0  0  0
    4.4755   -1.6426   -1.1873 H   0  0  0  0  0  0  0  0  0  0  0  0
    2.7034    0.4277   -0.9617 H   0  0  0  0  0  0  0  0  0  0  0  0
    0.7497    1.7387   -0.0748 H   0  0  0  0  0  0  0  0  0  0  0  0
    0.0427    0.8532    1.3684 H   0  0  0  0  0  0  0  0  0  0  0  0
   -1.3630    1.8992    0.3645 H   0  0  0  0  0  0  0  0  0  0  0  0
   -3.6110    1.8739    1.4564 H   0  0  0  0  0  0  0  0  0  0  0  0
   -4.8541    2.1665    0.3000 H   0  0  0  0  0  0  0  0  0  0  0  0
   -3.9172   -1.7700   -0.8892 H   0  0  0  0  0  0  0  0  0  0  0  0
   -3.1525   -1.8020    1.1757 H   0  0  0  0  0  0  0  0  0  0  0  0
   -1.9697   -1.2097   -2.2247 H   0  0  0  0  0  0  0  0  0  0  0  0
   -0.8776   -2.8130   -1.0571 H   0  0  0  0  0  0  0  0  0  0  0  0
  1  2  1  0
  5  6  1  0
  7  8  1  0
  5  9  1  0
  7  9  1  0
  9 10  1  0
 10 11  1  0
  3 12  1  0
  4 12  1  0
 11 12  1  0
  2 13  1  0
  3 13  1  0
  2 14  1  0
  1 15  1  0
 15 16  1  0
  3 17  1  0
 15 17  1  0
  4 18  1  0
 17 18  1  0
 19 20  1  0
 23 24  1  0
 25 26  1  0
 23 27  1  0
 25 27  1  0
 27 28  1  0
 28 29  1  0
 21 30  1  0
 22 30  1  0
 29 30  1  0
 20 31  1  0
 21 31  1  0
 20 32  1  0
 19 33  1  0
 33 34  1  0
 21 35  1  0
 33 35  1  0
 22 36  1  0
 35 36  1  0
  1 37  1  0
  2 38  1  0
  3 39  1  0
  4 40  1  0
  4 41  1  0
  5 42  1  0
  5 43  1  0
  6 44  1  0
  7 45  1  0
  7 46  1  0
  8 47  1  0
  9 48  1  0
 11 49  1  0
 11 50  1  0
 13 51  1  0
 14 52  1  0
 14 53  1  0
 15 54  1  0
 16 55  1  0
 17 56  1  0
 18 57  1  0
 19 58  1  0
 20 59  1  0
 21 60  1  0
 22 61  1  0
 22 62  1  0
 23 63  1  0
 23 64  1  0
 24 65  1  0
 25 66  1  0
 25 67  1  0
 26 68  1  0
 27 69  1  0
 29 70  1  0
 29 71  1  0
 31 72  1  0
 32 73  1  0
 32 74  1  0
 33 75  1  0
 34 76  1  0
 35 77  1  0
 36 78  1  0
M  END
>  <PDBID>  (1) 
1KI2

>  <PDB ID>  (1) 
1KI2

>  <Generic Name>  (1) 
Ganciclovir

>  <Brand Name>  (1) 
Cytovene - Cap 250mg#Cytovene - Pws 500mg/10m/-vial IV#Cytovene IV#Cytovene Inj 500mg/vial#Cytovene, 500 mg#Ganciclovir#Ganciclovir for Injection#Vitrasert, Intravitreal Implant#Zirgan#Cytovene#Vitrasert

>  <DrugBank ID>  (1) 
DB01004

>  <ATC Codes>  (1) 
J05AB06#S01AD09

>  <Ligand ID>  (1) 
GA2

>  <Target Name>  (1) 
Thymidine kinase

>  <UniProt ID>  (1) 
P03176

>  <PDB ID.1>  (1) 
1KI2

>  <Seq. Identity>  (1) 
100%

$$$$
