PDB_DB01204_04
     RDKit          3D

152156  0  0  0  0  0  0  0  0999 V2000
    6.8123    3.8197    2.8622 O   0  0  0  0  0  0  0  0  0  0  0  0
    6.9449    2.7861    1.9416 C   0  0  0  0  0  0  0  0  0  0  0  0
    5.7750    2.8117    0.9464 C   0  0  0  0  0  0  0  0  0  0  0  0
    5.9920    1.7159    0.0476 N   0  0  0  0  0  0  0  0  0  0  0  0
    4.9692    1.5372   -0.9485 C   0  0  0  0  0  0  0  0  0  0  0  0
    3.7100    1.1050   -0.2288 C   0  0  0  0  0  0  0  0  0  0  0  0
    2.5921    0.8435   -1.1117 N   0  0  0  0  0  0  0  0  0  0  0  0
    1.4885    0.4760   -0.2519 C   0  0  0  0  0  0  0  0  0  0  0  0
    0.9516    1.5443    0.6119 C   0  0  0  0  0  0  0  0  0  0  0  0
   -0.4932    1.9434    0.3969 C   0  0  0  0  0  0  0  0  0  0  0  0
    0.4427   -0.3715   -0.9184 C   0  0  0  0  0  0  0  0  0  0  0  0
    0.9874   -1.7042   -1.3657 C   0  0  0  0  0  0  0  0  0  0  0  0
    2.3946   -1.5488   -1.3519 O   0  0  0  0  0  0  0  0  0  0  0  0
    0.6557   -2.8686   -0.5023 C   0  0  0  0  0  0  0  0  0  0  0  0
    0.9339   -4.1290   -1.3000 C   0  0  0  0  0  0  0  0  0  0  0  0
    2.3175   -4.2219   -1.4899 O   0  0  0  0  0  0  0  0  0  0  0  0
    0.5073   -5.3713   -0.5586 C   0  0  0  0  0  0  0  0  0  0  0  0
   -0.9107   -5.3636   -0.0903 C   0  0  0  0  0  0  0  0  0  0  0  0
   -1.5533   -4.0826   -0.5582 C   0  0  0  0  0  0  0  0  0  0  0  0
   -2.8203   -3.9308    0.0494 O   0  0  0  0  0  0  0  0  0  0  0  0
   -0.7144   -2.9571    0.0370 C   0  0  0  0  0  0  0  0  0  0  0  0
   -1.5343   -1.6989   -0.1344 C   0  0  0  0  0  0  0  0  0  0  0  0
   -2.2563   -1.7147   -1.2951 O   0  0  0  0  0  0  0  0  0  0  0  0
   -0.6705   -0.5076    0.0735 C   0  0  0  0  0  0  0  0  0  0  0  0
   -1.4167    0.7747    0.1476 C   0  0  0  0  0  0  0  0  0  0  0  0
   -2.1241    1.0280   -1.0810 N   0  0  0  0  0  0  0  0  0  0  0  0
   -3.0626    2.1581   -0.9245 C   0  0  0  0  0  0  0  0  0  0  0  0
   -4.2289    1.6708   -0.1401 C   0  0  0  0  0  0  0  0  0  0  0  0
   -5.1632    2.7534    0.1105 N   0  0  0  0  0  0  0  0  0  0  0  0
   -6.3618    2.1392    0.6557 C   0  0  0  0  0  0  0  0  0  0  0  0
   -7.2545    3.1977    1.2965 C   0  0  0  0  0  0  0  0  0  0  0  0
   -6.4842    3.7574    2.3369 O   0  0  0  0  0  0  0  0  0  0  0  0
    6.8123    3.8197    2.8622 O   0  0  0  0  0  0  0  0  0  0  0  0
    6.9449    2.7861    1.9416 C   0  0  0  0  0  0  0  0  0  0  0  0
    5.7750    2.8117    0.9464 C   0  0  0  0  0  0  0  0  0  0  0  0
    5.9920    1.7159    0.0476 N   0  0  0  0  0  0  0  0  0  0  0  0
    4.9692    1.5372   -0.9485 C   0  0  0  0  0  0  0  0  0  0  0  0
    3.7100    1.1050   -0.2288 C   0  0  0  0  0  0  0  0  0  0  0  0
    2.5921    0.8435   -1.1117 N   0  0  0  0  0  0  0  0  0  0  0  0
    1.4885    0.4760   -0.2519 C   0  0  0  0  0  0  0  0  0  0  0  0
    0.9516    1.5443    0.6119 C   0  0  0  0  0  0  0  0  0  0  0  0
   -0.4932    1.9434    0.3969 C   0  0  0  0  0  0  0  0  0  0  0  0
    0.4427   -0.3715   -0.9184 C   0  0  0  0  0  0  0  0  0  0  0  0
    0.9874   -1.7042   -1.3657 C   0  0  0  0  0  0  0  0  0  0  0  0
    2.3946   -1.5488   -1.3519 O   0  0  0  0  0  0  0  0  0  0  0  0
    0.6557   -2.8686   -0.5023 C   0  0  0  0  0  0  0  0  0  0  0  0
    0.9339   -4.1290   -1.3000 C   0  0  0  0  0  0  0  0  0  0  0  0
    2.3175   -4.2219   -1.4899 O   0  0  0  0  0  0  0  0  0  0  0  0
    0.5073   -5.3713   -0.5586 C   0  0  0  0  0  0  0  0  0  0  0  0
   -0.9107   -5.3636   -0.0903 C   0  0  0  0  0  0  0  0  0  0  0  0
   -1.5533   -4.0826   -0.5582 C   0  0  0  0  0  0  0  0  0  0  0  0
   -2.8203   -3.9308    0.0494 O   0  0  0  0  0  0  0  0  0  0  0  0
   -0.7144   -2.9571    0.0370 C   0  0  0  0  0  0  0  0  0  0  0  0
   -1.5343   -1.6989   -0.1344 C   0  0  0  0  0  0  0  0  0  0  0  0
   -2.2563   -1.7147   -1.2951 O   0  0  0  0  0  0  0  0  0  0  0  0
   -0.6705   -0.5076    0.0735 C   0  0  0  0  0  0  0  0  0  0  0  0
   -1.4167    0.7747    0.1476 C   0  0  0  0  0  0  0  0  0  0  0  0
   -2.1241    1.0280   -1.0810 N   0  0  0  0  0  0  0  0  0  0  0  0
   -3.0626    2.1581   -0.9245 C   0  0  0  0  0  0  0  0  0  0  0  0
   -4.2289    1.6708   -0.1401 C   0  0  0  0  0  0  0  0  0  0  0  0
   -5.1632    2.7534    0.1105 N   0  0  0  0  0  0  0  0  0  0  0  0
   -6.3618    2.1392    0.6557 C   0  0  0  0  0  0  0  0  0  0  0  0
   -7.2545    3.1977    1.2965 C   0  0  0  0  0  0  0  0  0  0  0  0
   -6.4842    3.7574    2.3369 O   0  0  0  0  0  0  0  0  0  0  0  0
    5.9149    3.8055    3.2505 H   0  0  0  0  0  0  0  0  0  0  0  0
    7.8574    2.8672    1.3034 H   0  0  0  0  0  0  0  0  0  0  0  0
    6.9136    1.8317    2.4849 H   0  0  0  0  0  0  0  0  0  0  0  0
    4.8754    2.7532    1.5690 H   0  0  0  0  0  0  0  0  0  0  0  0
    5.7549    3.8090    0.4278 H   0  0  0  0  0  0  0  0  0  0  0  0
    6.9463    1.8459   -0.3607 H   0  0  0  0  0  0  0  0  0  0  0  0
    4.7720    2.4895   -1.4634 H   0  0  0  0  0  0  0  0  0  0  0  0
    5.3293    0.7992   -1.6884 H   0  0  0  0  0  0  0  0  0  0  0  0
    3.4440    1.9412    0.4435 H   0  0  0  0  0  0  0  0  0  0  0  0
    3.8870    0.1650    0.3493 H   0  0  0  0  0  0  0  0  0  0  0  0
    2.2847    1.7455   -1.5751 H   0  0  0  0  0  0  0  0  0  0  0  0
    1.9727   -0.2740    0.5015 H   0  0  0  0  0  0  0  0  0  0  0  0
    1.1544    1.4127    1.7169 H   0  0  0  0  0  0  0  0  0  0  0  0
    1.5324    2.4847    0.3447 H   0  0  0  0  0  0  0  0  0  0  0  0
   -0.5533    2.6868   -0.4370 H   0  0  0  0  0  0  0  0  0  0  0  0
   -0.8282    2.4579    1.3156 H   0  0  0  0  0  0  0  0  0  0  0  0
    0.0988    0.1495   -1.8219 H   0  0  0  0  0  0  0  0  0  0  0  0
    0.7271   -1.9239   -2.4180 H   0  0  0  0  0  0  0  0  0  0  0  0
    2.7171   -1.9143   -0.4701 H   0  0  0  0  0  0  0  0  0  0  0  0
    1.4228   -2.8746    0.3289 H   0  0  0  0  0  0  0  0  0  0  0  0
    0.4473   -4.0124   -2.2642 H   0  0  0  0  0  0  0  0  0  0  0  0
    2.4878   -4.6515   -2.3881 H   0  0  0  0  0  0  0  0  0  0  0  0
    0.5940   -6.2144   -1.3025 H   0  0  0  0  0  0  0  0  0  0  0  0
    1.2387   -5.6286    0.2397 H   0  0  0  0  0  0  0  0  0  0  0  0
   -0.8986   -5.3569    1.0196 H   0  0  0  0  0  0  0  0  0  0  0  0
   -1.5254   -6.2153   -0.4116 H   0  0  0  0  0  0  0  0  0  0  0  0
   -1.6006   -4.0017   -1.6451 H   0  0  0  0  0  0  0  0  0  0  0  0
   -3.3734   -4.6535   -0.3011 H   0  0  0  0  0  0  0  0  0  0  0  0
   -0.6449   -3.1810    1.1296 H   0  0  0  0  0  0  0  0  0  0  0  0
   -2.2797   -1.6982    0.7066 H   0  0  0  0  0  0  0  0  0  0  0  0
   -3.2340   -1.5476   -1.1542 H   0  0  0  0  0  0  0  0  0  0  0  0
   -0.1317   -0.7175    1.0687 H   0  0  0  0  0  0  0  0  0  0  0  0
   -2.1277    0.6868    1.0154 H   0  0  0  0  0  0  0  0  0  0  0  0
   -1.4364    1.3984   -1.7935 H   0  0  0  0  0  0  0  0  0  0  0  0
   -3.3917    2.4252   -1.9506 H   0  0  0  0  0  0  0  0  0  0  0  0
   -2.5508    3.0284   -0.4549 H   0  0  0  0  0  0  0  0  0  0  0  0
   -4.7060    0.7992   -0.5966 H   0  0  0  0  0  0  0  0  0  0  0  0
   -3.9225    1.3392    0.8959 H   0  0  0  0  0  0  0  0  0  0  0  0
   -4.7950    3.5086    0.6923 H   0  0  0  0  0  0  0  0  0  0  0  0
   -6.9130    1.6293   -0.1684 H   0  0  0  0  0  0  0  0  0  0  0  0
   -6.0903    1.4090    1.4270 H   0  0  0  0  0  0  0  0  0  0  0  0
   -7.3658    4.0343    0.5606 H   0  0  0  0  0  0  0  0  0  0  0  0
   -8.1783    2.7372    1.6045 H   0  0  0  0  0  0  0  0  0  0  0  0
   -6.2508    3.0340    3.0072 H   0  0  0  0  0  0  0  0  0  0  0  0
    5.9149    3.8055    3.2505 H   0  0  0  0  0  0  0  0  0  0  0  0
    7.8574    2.8672    1.3034 H   0  0  0  0  0  0  0  0  0  0  0  0
    6.9136    1.8317    2.4849 H   0  0  0  0  0  0  0  0  0  0  0  0
    4.8754    2.7532    1.5690 H   0  0  0  0  0  0  0  0  0  0  0  0
    5.7549    3.8090    0.4278 H   0  0  0  0  0  0  0  0  0  0  0  0
    6.9463    1.8459   -0.3607 H   0  0  0  0  0  0  0  0  0  0  0  0
    4.7720    2.4895   -1.4634 H   0  0  0  0  0  0  0  0  0  0  0  0
    5.3293    0.7992   -1.6884 H   0  0  0  0  0  0  0  0  0  0  0  0
    3.4440    1.9412    0.4435 H   0  0  0  0  0  0  0  0  0  0  0  0
    3.8870    0.1650    0.3493 H   0  0  0  0  0  0  0  0  0  0  0  0
    2.2847    1.7455   -1.5751 H   0  0  0  0  0  0  0  0  0  0  0  0
    1.9727   -0.2740    0.5015 H   0  0  0  0  0  0  0  0  0  0  0  0
    1.1544    1.4127    1.7169 H   0  0  0  0  0  0  0  0  0  0  0  0
    1.5324    2.4847    0.3447 H   0  0  0  0  0  0  0  0  0  0  0  0
   -0.5533    2.6868   -0.4370 H   0  0  0  0  0  0  0  0  0  0  0  0
   -0.8282    2.4579    1.3156 H   0  0  0  0  0  0  0  0  0  0  0  0
    0.0988    0.1495   -1.8219 H   0  0  0  0  0  0  0  0  0  0  0  0
    0.7271   -1.9239   -2.4180 H   0  0  0  0  0  0  0  0  0  0  0  0
    2.7171   -1.9143   -0.4701 H   0  0  0  0  0  0  0  0  0  0  0  0
    1.4228   -2.8746    0.3289 H   0  0  0  0  0  0  0  0  0  0  0  0
    0.4473   -4.0124   -2.2642 H   0  0  0  0  0  0  0  0  0  0  0  0
    2.4878   -4.6515   -2.3881 H   0  0  0  0  0  0  0  0  0  0  0  0
    0.5940   -6.2144   -1.3025 H   0  0  0  0  0  0  0  0  0  0  0  0
    1.2387   -5.6286    0.2397 H   0  0  0  0  0  0  0  0  0  0  0  0
   -0.8986   -5.3569    1.0196 H   0  0  0  0  0  0  0  0  0  0  0  0
   -1.5254   -6.2153   -0.4116 H   0  0  0  0  0  0  0  0  0  0  0  0
   -1.6006   -4.0017   -1.6451 H   0  0  0  0  0  0  0  0  0  0  0  0
   -3.3734   -4.6535   -0.3011 H   0  0  0  0  0  0  0  0  0  0  0  0
   -0.6449   -3.1810    1.1296 H   0  0  0  0  0  0  0  0  0  0  0  0
   -2.2797   -1.6982    0.7066 H   0  0  0  0  0  0  0  0  0  0  0  0
   -3.2340   -1.5476   -1.1542 H   0  0  0  0  0  0  0  0  0  0  0  0
   -0.1317   -0.7175    1.0687 H   0  0  0  0  0  0  0  0  0  0  0  0
   -2.1277    0.6868    1.0154 H   0  0  0  0  0  0  0  0  0  0  0  0
   -1.4364    1.3984   -1.7935 H   0  0  0  0  0  0  0  0  0  0  0  0
   -3.3917    2.4252   -1.9506 H   0  0  0  0  0  0  0  0  0  0  0  0
   -2.5508    3.0284   -0.4549 H   0  0  0  0  0  0  0  0  0  0  0  0
   -4.7060    0.7992   -0.5966 H   0  0  0  0  0  0  0  0  0  0  0  0
   -3.9225    1.3392    0.8959 H   0  0  0  0  0  0  0  0  0  0  0  0
   -4.7950    3.5086    0.6923 H   0  0  0  0  0  0  0  0  0  0  0  0
   -6.9130    1.6293   -0.1684 H   0  0  0  0  0  0  0  0  0  0  0  0
   -6.0903    1.4090    1.4270 H   0  0  0  0  0  0  0  0  0  0  0  0
   -7.3658    4.0343    0.5606 H   0  0  0  0  0  0  0  0  0  0  0  0
   -8.1783    2.7372    1.6045 H   0  0  0  0  0  0  0  0  0  0  0  0
   -6.2508    3.0340    3.0072 H   0  0  0  0  0  0  0  0  0  0  0  0
  1  2  1  0
  2  3  1  0
  3  4  1  0
  4  5  1  0
  5  6  1  0
  6  7  1  0
  7  8  1  0
  8  9  1  0
  9 10  1  0
  8 11  1  0
 11 12  1  0
 12 13  1  0
 12 14  1  0
 14 15  1  0
 15 16  1  0
 15 17  1  0
 17 18  1  0
 18 19  1  0
 19 20  1  0
 14 21  1  0
 19 21  1  0
 21 22  1  0
 22 23  1  0
 11 24  1  0
 22 24  1  0
 10 25  1  0
 24 25  1  0
 25 26  1  0
 26 27  1  0
 27 28  1  0
 28 29  1  0
 29 30  1  0
 30 31  1  0
 31 32  1  0
 33 34  1  0
 34 35  1  0
 35 36  1  0
 36 37  1  0
 37 38  1  0
 38 39  1  0
 39 40  1  0
 40 41  1  0
 41 42  1  0
 40 43  1  0
 43 44  1  0
 44 45  1  0
 44 46  1  0
 46 47  1  0
 47 48  1  0
 47 49  1  0
 49 50  1  0
 50 51  1  0
 51 52  1  0
 46 53  1  0
 51 53  1  0
 53 54  1  0
 54 55  1  0
 43 56  1  0
 54 56  1  0
 42 57  1  0
 56 57  1  0
 57 58  1  0
 58 59  1  0
 59 60  1  0
 60 61  1  0
 61 62  1  0
 62 63  1  0
 63 64  1  0
  1 65  1  0
  2 66  1  0
  2 67  1  0
  3 68  1  0
  3 69  1  0
  4 70  1  0
  5 71  1  0
  5 72  1  0
  6 73  1  0
  6 74  1  0
  7 75  1  0
  8 76  1  0
  9 77  1  0
  9 78  1  0
 10 79  1  0
 10 80  1  0
 11 81  1  0
 12 82  1  0
 13 83  1  0
 14 84  1  0
 15 85  1  0
 16 86  1  0
 17 87  1  0
 17 88  1  0
 18 89  1  0
 18 90  1  0
 19 91  1  0
 20 92  1  0
 21 93  1  0
 22 94  1  0
 23 95  1  0
 24 96  1  0
 25 97  1  0
 26 98  1  0
 27 99  1  0
 27100  1  0
 28101  1  0
 28102  1  0
 29103  1  0
 30104  1  0
 30105  1  0
 31106  1  0
 31107  1  0
 32108  1  0
 33109  1  0
 34110  1  0
 34111  1  0
 35112  1  0
 35113  1  0
 36114  1  0
 37115  1  0
 37116  1  0
 38117  1  0
 38118  1  0
 39119  1  0
 40120  1  0
 41121  1  0
 41122  1  0
 42123  1  0
 42124  1  0
 43125  1  0
 44126  1  0
 45127  1  0
 46128  1  0
 47129  1  0
 48130  1  0
 49131  1  0
 49132  1  0
 50133  1  0
 50134  1  0
 51135  1  0
 52136  1  0
 53137  1  0
 54138  1  0
 55139  1  0
 56140  1  0
 57141  1  0
 58142  1  0
 59143  1  0
 59144  1  0
 60145  1  0
 60146  1  0
 61147  1  0
 62148  1  0
 62149  1  0
 63150  1  0
 63151  1  0
 64152  1  0
M  END
>  <PDBID>  (1) 
4G0V

>  <PDB ID>  (1) 
4G0V

>  <Generic Name>  (1) 
Mitoxantrone

>  <Brand Name>  (1) 
Mitoxantrone#Mitoxantrone Hydrochloride#Mitoxantrone Injection#Mitoxantrone Injection USP#Novantrone#Novantrone Inj 2mg/ml

>  <DrugBank ID>  (1) 
DB01204

>  <ATC Codes>  (1) 
L01DB07

>  <Ligand ID>  (1) 
MIX

>  <Target Name>  (1) 
DNA topoisomerase 2-alpha

>  <UniProt ID>  (1) 
P11388

>  <PDB ID.1>  (1) 
4G0V

>  <Seq. Identity>  (1) 
78%

$$$$
