PDB_DB00412_03
     RDKit          3D

 60 62  0  0  0  0  0  0  0  0999 V2000
   -3.0375   -2.0928    1.7127 S   0  0  0  0  0  0  0  0  0  0  0  0
   -5.3722   -2.3327    0.4287 O   0  0  0  0  0  0  0  0  0  0  0  0
   -5.0321    0.1040    0.8829 O   0  0  0  0  0  0  0  0  0  0  0  0
    0.2181    0.6785   -3.0925 O   0  0  0  0  0  0  0  0  0  0  0  0
   -5.2942   -1.3909    2.5883 N   0  0  0  0  0  0  0  0  0  0  0  0
    2.4560    0.9988   -1.0774 N   0  0  0  0  0  0  0  0  0  0  0  0
    2.3049   -0.5232    0.7713 N   0  0  0  0  0  0  0  0  0  0  0  0
   -4.8464   -2.4450    1.6904 C   0  0  0  0  0  0  0  0  0  0  0  0
   -4.6462   -0.1582    2.1699 C   0  0  0  0  0  0  0  0  0  0  0  0
   -3.1618   -0.3794    2.3413 C   0  0  2  0  0  0  0  0  0  0  0  0
   -2.2696    0.5854    1.7151 C   0  0  0  0  0  0  0  0  0  0  0  0
   -2.3491    0.8380    0.2538 C   0  0  0  0  0  0  0  0  0  0  0  0
   -1.2902    1.8920   -0.0329 C   0  0  0  0  0  0  0  0  0  0  0  0
   -0.9495    2.0127   -1.4726 C   0  0  0  0  0  0  0  0  0  0  0  0
   -0.4300    0.6444   -1.9302 C   0  0  0  0  0  0  0  0  0  0  0  0
   -1.6902   -0.2155   -1.9475 C   0  0  0  0  0  0  0  0  0  0  0  0
   -2.0805   -0.4358   -0.4982 C   0  0  0  0  0  0  0  0  0  0  0  0
    1.4901    0.3010   -3.2746 C   0  0  0  0  0  0  0  0  0  0  0  0
    2.5191    1.0466   -2.5125 C   0  0  0  0  0  0  0  0  0  0  0  0
    3.4669    1.9835   -0.6454 C   0  0  0  0  0  0  0  0  0  0  0  0
    2.8228   -0.3126   -0.5477 C   0  0  0  0  0  0  0  0  0  0  0  0
    3.1926   -0.3853    1.8622 C   0  0  0  0  0  0  0  0  0  0  0  0
    4.5679   -0.9290    1.6734 C   0  0  0  0  0  0  0  0  0  0  0  0
    5.1587   -0.4790    0.3698 C   0  0  0  0  0  0  0  0  0  0  0  0
    4.2068   -0.7548   -0.7677 C   0  0  0  0  0  0  0  0  0  0  0  0
   -6.1747   -2.9371    0.3700 H   0  0  0  0  0  0  0  0  0  0  0  0
   -5.5856    0.9019    0.8182 H   0  0  0  0  0  0  0  0  0  0  0  0
   -6.3205   -1.2192    2.5266 H   0  0  0  0  0  0  0  0  0  0  0  0
    1.3813   -0.1202    0.9409 H   0  0  0  0  0  0  0  0  0  0  0  0
   -4.9750   -3.4231    2.1696 H   0  0  0  0  0  0  0  0  0  0  0  0
   -5.0332    0.6198    2.8608 H   0  0  0  0  0  0  0  0  0  0  0  0
   -2.9495   -0.3942    3.4413 H   0  0  0  0  0  0  0  0  0  0  0  0
   -1.2049    0.2672    1.9329 H   0  0  0  0  0  0  0  0  0  0  0  0
   -2.3492    1.5510    2.3010 H   0  0  0  0  0  0  0  0  0  0  0  0
   -3.2992    1.2768   -0.1061 H   0  0  0  0  0  0  0  0  0  0  0  0
   -0.3698    1.6627    0.5414 H   0  0  0  0  0  0  0  0  0  0  0  0
   -1.6691    2.8637    0.3719 H   0  0  0  0  0  0  0  0  0  0  0  0
   -1.8345    2.3144   -2.0385 H   0  0  0  0  0  0  0  0  0  0  0  0
   -0.0918    2.7037   -1.5677 H   0  0  0  0  0  0  0  0  0  0  0  0
    0.1763    0.2587   -1.1095 H   0  0  0  0  0  0  0  0  0  0  0  0
   -1.5303   -1.1880   -2.4082 H   0  0  0  0  0  0  0  0  0  0  0  0
   -2.4783    0.3751   -2.4572 H   0  0  0  0  0  0  0  0  0  0  0  0
   -3.0305   -1.0387   -0.5724 H   0  0  0  0  0  0  0  0  0  0  0  0
   -1.3463   -1.0976   -0.0100 H   0  0  0  0  0  0  0  0  0  0  0  0
    1.5619   -0.8097   -3.0670 H   0  0  0  0  0  0  0  0  0  0  0  0
    1.8150    0.3517   -4.3584 H   0  0  0  0  0  0  0  0  0  0  0  0
    3.5228    0.6865   -2.8333 H   0  0  0  0  0  0  0  0  0  0  0  0
    2.4256    2.1376   -2.8055 H   0  0  0  0  0  0  0  0  0  0  0  0
    3.5456    2.0801    0.4317 H   0  0  0  0  0  0  0  0  0  0  0  0
    4.4170    1.8689   -1.2021 H   0  0  0  0  0  0  0  0  0  0  0  0
    3.0527    2.9657   -1.0233 H   0  0  0  0  0  0  0  0  0  0  0  0
    2.1830   -1.0158   -1.1806 H   0  0  0  0  0  0  0  0  0  0  0  0
    2.7460   -0.9938    2.7094 H   0  0  0  0  0  0  0  0  0  0  0  0
    3.2233    0.6506    2.3141 H   0  0  0  0  0  0  0  0  0  0  0  0
    5.2198   -0.5194    2.4880 H   0  0  0  0  0  0  0  0  0  0  0  0
    4.6025   -2.0345    1.7856 H   0  0  0  0  0  0  0  0  0  0  0  0
    5.5282    0.5390    0.4417 H   0  0  0  0  0  0  0  0  0  0  0  0
    6.0611   -1.1329    0.1833 H   0  0  0  0  0  0  0  0  0  0  0  0
    4.2046   -1.8914   -0.8427 H   0  0  0  0  0  0  0  0  0  0  0  0
    4.6211   -0.4201   -1.7066 H   0  0  0  0  0  0  0  0  0  0  0  0
  1  8  1  0
  2  8  1  0
  5  8  1  0
  3  9  1  0
  5  9  1  0
  1 10  1  0
  9 10  1  0
 10 11  1  0
 11 12  1  0
 12 13  1  0
 13 14  1  0
  4 15  1  0
 14 15  1  0
 15 16  1  0
 12 17  1  0
 16 17  1  0
  4 18  1  0
  6 19  1  0
 18 19  1  0
  6 20  1  0
  6 21  1  0
  7 21  1  0
  7 22  1  0
 22 23  1  0
 23 24  1  0
 21 25  1  0
 24 25  1  0
  2 26  1  0
  3 27  1  0
  5 28  1  0
  7 29  1  0
  8 30  1  0
  9 31  1  0
 10 32  1  1
 11 33  1  0
 11 34  1  0
 12 35  1  0
 13 36  1  0
 13 37  1  0
 14 38  1  0
 14 39  1  0
 15 40  1  0
 16 41  1  0
 16 42  1  0
 17 43  1  0
 17 44  1  0
 18 45  1  0
 18 46  1  0
 19 47  1  0
 19 48  1  0
 20 49  1  0
 20 50  1  0
 20 51  1  0
 21 52  1  0
 22 53  1  0
 22 54  1  0
 23 55  1  0
 23 56  1  0
 24 57  1  0
 24 58  1  0
 25 59  1  0
 25 60  1  0
M  END
>  <PDBID>  (1) 
3DZY

>  <PDB ID>  (1) 
3DZY

>  <Generic Name>  (1) 
Rosiglitazone

>  <Brand Name>  (1) 
Apo-rosiglitazone#Avandamet#Avandaryl#Avandia#Avandia 2mg#Avandia 4mg#Avandia 8mg#Dom-rosiglitazone#Mylan-rosiglitazone#PHL-rosiglitazone#PMS-rosiglitazone#PMS-rosiglitazone-metformin#Teva-rosiglitazone#Blutab#DH-Rosidia#Diaben#Diaglinex#Gaudil#Gliximina#Naidi#Rogelin#Roglit#Romerol#Rosit#Rosix#Rossini#Sensulin#Sheng Ao#Sheng Min

>  <DrugBank ID>  (1) 
DB00412

>  <ATC Codes>  (1) 
A10BD03#A10BG02#A10BD04

>  <Ligand ID>  (1) 
BRL,RGZ

>  <Target Name>  (1) 
Peroxisome proliferator-activated receptor gamma

>  <UniProt ID>  (1) 
P37231

>  <PDB ID.1>  (1) 
3DZY

>  <Seq. Identity>  (1) 
97%

$$$$
