PDB_DB00140_04
     RDKit          3D

 61 63  0  0  0  0  0  0  0  0999 V2000
    0.2726    3.0048   -1.2206 N   0  0  0  0  0  0  0  0  0  0  0  0
    0.7654    4.0684   -0.3247 C   0  0  0  0  0  0  0  0  0  0  0  0
    1.4507    5.0513   -0.9941 O   0  0  0  0  0  0  0  0  0  0  0  0
   -0.3869    4.5768    0.3890 N   0  0  0  0  0  0  0  0  0  0  0  0
   -0.8410    3.5399    1.2869 C   0  0  0  0  0  0  0  0  0  0  0  0
    0.1675    3.2607    2.2031 O   0  0  0  0  0  0  0  0  0  0  0  0
   -1.1971    2.3263    0.4823 C   0  0  0  0  0  0  0  0  0  0  0  0
   -1.5160    1.1885    1.3287 N   0  0  0  0  0  0  0  0  0  0  0  0
   -2.1584    0.2366    0.4515 C   0  0  0  0  0  0  0  0  0  0  0  0
   -2.3774   -1.0382    1.2353 C   0  0  0  0  0  0  0  0  0  0  0  0
   -3.3372   -1.8763    0.4250 C   0  0  0  0  0  0  0  0  0  0  0  0
   -3.3912   -3.2358    1.0396 C   0  0  0  0  0  0  0  0  0  0  0  0
   -2.9367   -1.8584   -1.0249 C   0  0  0  0  0  0  0  0  0  0  0  0
   -3.1866   -3.1813   -1.7105 C   0  0  0  0  0  0  0  0  0  0  0  0
   -1.4799   -1.4475   -1.1116 C   0  0  0  0  0  0  0  0  0  0  0  0
   -1.4603    0.0426   -0.8430 C   0  0  0  0  0  0  0  0  0  0  0  0
   -0.1661    0.6244   -1.0008 N   0  0  0  0  0  0  0  0  0  0  0  0
   -0.0096    1.8906   -0.3574 C   0  0  0  0  0  0  0  0  0  0  0  0
    0.9210   -0.2702   -0.6806 C   0  0  0  0  0  0  0  0  0  0  0  0
    2.2893    0.3126   -1.0543 C   0  0  2  0  0  0  0  0  0  0  0  0
    2.2188    0.5156   -2.4722 O   0  0  0  0  0  0  0  0  0  0  0  0
    3.3861   -0.7037   -0.8310 C   0  0  2  0  0  0  0  0  0  0  0  0
    3.1183   -1.9510   -1.3494 O   0  0  0  0  0  0  0  0  0  0  0  0
    4.0608   -0.6851    0.4822 C   0  0  2  0  0  0  0  0  0  0  0  0
    5.3211   -1.3225    0.4265 O   0  0  0  0  0  0  0  0  0  0  0  0
    3.3324   -1.2138    1.6622 C   0  0  0  0  0  0  0  0  0  0  0  0
    3.0960   -2.6027    1.5859 O   0  0  0  0  0  0  0  0  0  0  0  0
    0.9910    2.8732   -1.9292 H   0  0  0  0  0  0  0  0  0  0  0  0
    1.4175    3.5860    0.4620 H   0  0  0  0  0  0  0  0  0  0  0  0
    1.8863    5.6120   -0.2763 H   0  0  0  0  0  0  0  0  0  0  0  0
   -1.1332    4.7669   -0.3154 H   0  0  0  0  0  0  0  0  0  0  0  0
   -1.7828    3.8490    1.8240 H   0  0  0  0  0  0  0  0  0  0  0  0
   -0.1699    3.1108    3.1237 H   0  0  0  0  0  0  0  0  0  0  0  0
   -2.0415    2.5254   -0.1738 H   0  0  0  0  0  0  0  0  0  0  0  0
   -0.7000    0.8103    1.8232 H   0  0  0  0  0  0  0  0  0  0  0  0
   -3.2030    0.6516    0.3005 H   0  0  0  0  0  0  0  0  0  0  0  0
   -1.4698   -1.5550    1.5403 H   0  0  0  0  0  0  0  0  0  0  0  0
   -2.9119   -0.7431    2.1659 H   0  0  0  0  0  0  0  0  0  0  0  0
   -4.3474   -1.3840    0.5239 H   0  0  0  0  0  0  0  0  0  0  0  0
   -4.2223   -3.2193    1.8068 H   0  0  0  0  0  0  0  0  0  0  0  0
   -3.5451   -4.0665    0.3506 H   0  0  0  0  0  0  0  0  0  0  0  0
   -2.4729   -3.4082    1.6722 H   0  0  0  0  0  0  0  0  0  0  0  0
   -3.5563   -1.1050   -1.5663 H   0  0  0  0  0  0  0  0  0  0  0  0
   -4.2347   -3.4665   -1.4664 H   0  0  0  0  0  0  0  0  0  0  0  0
   -2.4376   -3.9067   -1.3492 H   0  0  0  0  0  0  0  0  0  0  0  0
   -3.1637   -3.0679   -2.8167 H   0  0  0  0  0  0  0  0  0  0  0  0
   -1.1591   -1.6475   -2.1581 H   0  0  0  0  0  0  0  0  0  0  0  0
   -0.9471   -2.0372   -0.3665 H   0  0  0  0  0  0  0  0  0  0  0  0
   -2.1058    0.4915   -1.6506 H   0  0  0  0  0  0  0  0  0  0  0  0
    0.8511    1.7924    0.3724 H   0  0  0  0  0  0  0  0  0  0  0  0
    0.9109   -0.3820    0.4145 H   0  0  0  0  0  0  0  0  0  0  0  0
    0.8675   -1.2462   -1.1430 H   0  0  0  0  0  0  0  0  0  0  0  0
    2.5241    1.2112   -0.5113 H   0  0  0  0  0  0  0  0  0  0  0  0
    2.7808   -0.1430   -2.9472 H   0  0  0  0  0  0  0  0  0  0  0  0
    4.2554   -0.3483   -1.5601 H   0  0  0  0  0  0  0  0  0  0  0  0
    2.8505   -2.6382   -0.7234 H   0  0  0  0  0  0  0  0  0  0  0  0
    4.3124    0.3921    0.7115 H   0  0  0  0  0  0  0  0  0  0  0  0
    5.4930   -1.6505   -0.4818 H   0  0  0  0  0  0  0  0  0  0  0  0
    4.0918   -1.1551    2.5216 H   0  0  0  0  0  0  0  0  0  0  0  0
    2.4858   -0.6456    2.0283 H   0  0  0  0  0  0  0  0  0  0  0  0
    3.9299   -3.1095    1.7709 H   0  0  0  0  0  0  0  0  0  0  0  0
  1  2  1  0
  2  3  1  0
  2  4  1  0
  4  5  1  0
  5  6  1  0
  5  7  1  0
  7  8  1  0
  8  9  1  0
  9 10  1  0
 10 11  1  0
 11 12  1  0
 11 13  1  0
 13 14  1  0
 13 15  1  0
  9 16  1  0
 15 16  1  0
 16 17  1  0
  1 18  1  0
  7 18  1  0
 17 18  1  0
 17 19  1  0
 19 20  1  0
 20 21  1  0
 20 22  1  0
 22 23  1  0
 22 24  1  0
 24 25  1  0
 24 26  1  0
 26 27  1  0
  1 28  1  0
  2 29  1  0
  3 30  1  0
  4 31  1  0
  5 32  1  0
  6 33  1  0
  7 34  1  0
  8 35  1  0
  9 36  1  0
 10 37  1  0
 10 38  1  0
 11 39  1  0
 12 40  1  0
 12 41  1  0
 12 42  1  0
 13 43  1  0
 14 44  1  0
 14 45  1  0
 14 46  1  0
 15 47  1  0
 15 48  1  0
 16 49  1  0
 18 50  1  0
 19 51  1  0
 19 52  1  0
 20 53  1  1
 21 54  1  0
 22 55  1  6
 23 56  1  0
 24 57  1  1
 25 58  1  0
 26 59  1  0
 26 60  1  0
 27 61  1  0
M  END
>  <PDBID>  (1) 
1NB9

>  <PDB ID>  (1) 
1NB9

>  <Generic Name>  (1) 
Riboflavin

>  <Brand Name>  (1) 
Active Fe#Alertonic#Allbee With C 550 Cap#Allbee With Vitamin C Cap#Alsimine W Vitamins A D#Am Caps#Antlerviron#Appedrine#B 50 Capsules#B 6 Plus#B C Antistress Cap#B Complex 25mg Vitamin Supplement#B Complex 50 Vitamin Cap#B Complex 50+ Caplet#B Complex 500 Tab#B Complex Plus C 300mg Tab#B Complex Tablets#B Complex W C Forte Cap#B Complex W C and B12 Inj#B Complex W Vit C W Non-med Yeast&liver Tab#B Complex W Vitamin C Fortis Cap#B Complex With C 300mg#B Complex With C 300mg Tab#B Complex With C 550mg#B Compound 50mg Tab#B Plus C 300 mg#B Plus C 300mg Timed Release#B Stress C + Iron & Vite#B Totum 500#B Virol#B Vitamin Compound With B12 Thunas#B With C 500 Cap#B-100 Caps#B-100 Complex Tablets#B-100 Hi Potency B Vitamins Tab#B-100 Vitamin Supplement#B-2 100mg With C 20mg#B-2 Caps 100mg#B-50 Complex#B-50 Complex Tab#B-50 Hi Potency B Vitamins Tab#B-combo#B-complex#B-complex 100#B-complex 50#B-complex Tab#B-complex Tablets#B-complex With Vitamin C, Biotin, Folic Acid#B-complex-50 Tab#B-plex#B-plex 100#B-plus - Tab#B2 Tab 100mg#B50 B Complex Tab#B50 Complex#B6 Plus Tab#Bacmin#Balanced B 125 Srt#Balanced B-100 B-complex Vitamins Tab#Balanced B-100 Timed Release#Balanced B-50 B-complex Vitamins Tab#Balanced B-50 B-complex Vitamins, Timed Rele#Balanced B-50 Complex#Balanced B-complex Vit + Vit C&e Tab#Balanced B100#Balanced B50 Complex#Beautel Supplement De Vitamines Et Mineral#Beminal W C Fortis Inj#Beminal With C Fortis Cap#Beminal With C Fortis Pws#Bev 29 Tab#Bev B-150#Bio-fen#Biovim Tab#Biovita#Bugs Bunny Chew Multi Vit Plus Iron#Bugs Bunny and Friends Multiple Vitamins#C-B Complex#C-nate DHA#C.A.G. Tab#C.R.T. X Multivitamin & Mineral Powder Mix#Carbassist Tablets#Cc II#Cda-21 Vitamins With Non-medicinal Probiotic Complex#Cedevita Plus Vitamin Supplement#Cedevita Sugar-free Vitamin Supplement#Chela Potassium Plus#Chela-chromium 200#Chew.multiple Vits.with Extra C for Children#Chewable Multiple Vit Plus Iron for Children#Chewable Multiple Vitamins Plus Extra C#Chewable Multiple Vitamins Plus Iron Tab#Chewable Multiple Vitamins Tab#Chewable Multiple Vitamins for Children#Chewable Multivitamins#Chewable Multivitamins Plus Iron#Children Choice Multivit Chewable Tab#Children Choice Multivitamin W Iron Chew Tab#Children's Chewable Multi Vit W Iron#Children's Chewable Multi Vitamins#Children's Chewable Multi Vitamins With Iron Tablets#Children's Chewable Multi-vitamin#Children's Chewable Multi-vitamin Complete With Minerals#Children's Chewable Multiple Vit.plus Iron#Children's Chewable Multiple Vitamins (chewable Tablets)#Children's Chewable Multiple Vitamins - Tab#Children's Chewable Multiple Vitamins With Extra Vitamin C (chewable Tablets)#Children's Chewable Multiple Vitamins With Iron Tablets (chewable Tablets)#Children's Vitamins Chewable#Children's Vitamins W Iron Chewable#Childrens Chew Multi Vitamin Tab#Childrens Chewable Multiple Vitamins#Childrens Chewable Multiple Vitamins Plus Fe#Childrens Chewable Multiple Vitamins Tab#Childrens Chewable Multivitamins#Childrens Chewable Multivitamins W Iron#Childrens Chewable Vitamin Tab#Childrens Chewable Vitamins#Childrens Multiple Vit and Min Chew Tab#Citranatal DHA#Citranatal Rx#Coenzyme Q10 Isotonix Vitamin and Mineral Supplement#Complete Mega B#Complete Multivitamins and Minerals Tablets Timed Release#Complex 5 - Pwr#Complex-75#Complexe B 75mg#Complexe B Compose 75#Complexe B-75#Concept DHA#Concept Ob#Croq-vit Pour Enfants#D'pantothenic Acid-B1-B2 Tab#Daily Energy Brand B-complex#Derma-force#Dexatrim Tablets#Dia-vite#Diaplex#Dynam Ampoule Et Tablet#E & I Formulae#E.S.T. Complex#Efferlife Multivitamins and Minerals#Enviroflex - Tab#Escavite#Essential B Tablets#Everyday Multiple Vitamins#Everyday Multiple Vitamins With Iron#Extra P.N. Vitamin-mineral Drink Mix#Ez-flex#Feminique W Iron and Calcium Tab#Ferra Naka Plus Vitamins#Flinstones Multiple Plus Iron#Flintstones Multiple Vitamins#Flintstones Multiple Vitamins Plus Iron#Flintstones Multiple Vitamins Tab#Flintstones W Extra C Tab#Floradix Formula Liq#Floravit - Syr#Floriva#Floriva Plus#Folcaps Care One#Foltabs Prenatal#For Kids Only Chewable Multivit. Plus Iron#For Kids Only Chewable Multivitamins - Tab#Formula Adr-vitamin B2,b6 W Calpan Tab#Formula Cn#Formula D.S.#Formula Fm Vitamins & Minerals Tab#Formula Lf#Formula O#Formula O-care Vitamin and Mineral Supplement#Formula Pro-B#Fortamines 10 Capsules#Fortamines-10 Comprimes#Fortaplex Inj#Fortistress Tab#Forty Plus Vitamin Supplement#Garfield Chewable Multivits Plus Iron Tab#Gemvites Jr Tab Chewable#Geritol Liquid#Gestamine Comprimes#Gesticare DHA#Globucel - Methode#Glyco-aide Tab#Harvest Of Values All B Complex Tab#Healthy Mamabe Well Rounded Be Well Rounded#Hemarexin Amp#Hemarexin Liquid and Drinkable Ampoules#Hemarexin Tab#Hemenatal OB#Hi Potency B Complex W Chelated Minerals#Hi Potency B52 B Complex Tab#Hi Potency Balanced B-100 Complex - Tab#Hi Potency Stress B Tension With C#High Potency Vitamin B Complex + C Tab#Hill.vite#Homosistrol Capsules#Hypo Vites Tab#Iberet 500#Icaps#Icaps Time Release#Inatal Advance#Inatal Ultra#Infa Drops Multivitamins#Infant Multivitamin Drops#Infantol Drops#Insur-all Vitamin Supplement#Integra Plus#Iron 25mg With Vit B-cmplx, Vit C, Cu & Mo#Iron Polysaccharides Folic Acid DHA#Isotonix Advanced B-complex Vitamins With Potassium and Magnesium#Isotonix Calcium Plus Formula#Isotonix Vitamin B-folic Acid-mineral Supple#Itabs Plus#Kanga Sport Vitamins B & C Plus Minerals#Kanga-B Vitamin B Group + C#Kanga-V Multivitamins & Minerals#Kanga-kid Multi-vitamin & Mineral#Kenwood Liquid Supplement#Kid's Choice Children's Chewable Vitamins - Tab#Kids Stuff Tablets#Kids Stuff With Iron Tablets#Kimchi Vitamin Chewable Multivitamin#Kindervites#Leritone Junior#Lipo-B-C Tab#Liqui B Complex#Liqui B Complex Plus#Liqui Infant Vitamins#Liqui Vita#Liquid B Complex 50#Livron Plus Ampoule#Livron Plus Tab#Low Potency B Complex Tab#Lysamine Diet Supp Amp-tab#M.V.I. 12#M.V.I. Paediatric#M.V.I. Pediatric#Maltlevol 12 Liq#Maltlevol Liq#Maxi 10 Tab#Maxi 6 Liq#Mega 13 Multivitamin Formula#Megavites Tab#Meplex T 750#Methaver#Mini-B Tab#Mor-vites Tab#Multi - N.T.O.x Formula - Tab#Multi 12 Injection#Multi B#Multi Enfants Tab#Multi Nt-OX#Multi Rol#Multi Vitamin & Minerals#Multi Vitamin - Mineral#Multi Vitamin Drops With Fluoride#Multi Vitamin Drops With Fluoride With Iron#Multi Vitamin Drops With Fluoride and Iron#Multi Vitamin Plus Iron#Multi Vitamin With Fluoride#Multi Vitamin and Fluoride#Multi Vitamin, Iron and Fluoride#Multi Vitamin-mineral Formula#Multi Vitamines - Liq#Multi Vitamins & Minerals#Multi Vite Liq Adult#Multi Vite Liq Junior#Multi-11#Multi-12 Pediatric#Multi-12/k1 Pediatric#Multi-min Electro C Pow Plus B2#Multi-vit With Fluoride#Multi-vit With Fluoride and Iron#Multi-vitamin#Multi-vitamin Dietary Supplement#Multi-vitamin Drops With Fluoride and Iron#Multi-vitamin Fluoride#Multi-vitamin Fluoride Drops#Multi-vitamin Fluoride and Iron Drops#Multi-vitamin With Fluoride#Multi-vitamines Enfants Comprime#Multi-vitamins#Multi-vitamins With Minerals#Multiple Vitamin Plus Minerals Tab#Multiple Vitamin Tab#Multiple Vitamins#Multiple Vitamins Plus Iron Tab#Multiple Vitamins Plus Iron for Women#Multiple Vitamins Tab#Multiple Vitamins W Iron Tab#Multiple Vitamins W Minerals Tab#Multiple Vitamins With Iron#Multiple Vitamins With Minerals Tablets#Multiple Vitamins and Minerals Tab#Multisol#Multivit-liq#Multivitamin#Multivitamin With Fluoride#Multivitamines#Multivitamines Et Mineraux#Multivitamines Plus Fer Pour Enfants (chewable Tablets)#Multivitamines Pour Enfants (chewable Tablets)#Multivitamins#Multivitamins W Iron#Multivitamins for Children#Mvc#Mvc-fluoride#Myhephron Dialysis and Stress Supplement#Mynephrocaps Dialysis/stress Vitamin Supplement#Nata Komplete#Natafort#Natavite#Neo Bex Elixir#Neo Vites Tab#Neo-bex#Neo-bex Injectable#Neo-vites & Minerals Tab#Nephrocaps#Nutrifer Plus Tablets#Nutrilite Double X#Nutrol-B-complex#O-cal Fa Multivitamin#O-cal Prenatal Vitamin#Onccor#One A Day Advance Adults#One A Day Advance Adults 50+#One A Day Advance Fem#One A Day Tab#Orange Flavored Crystal Chews Tab#Orifer F#Original Bioscal Forte Multi-vitamin Supplement Capsules#Orti B#P.N.P. Vitamin Drink#P.R.O. Complex#PM Caps#PNF-First#Paramettes Chewable Multivitamins Plus Iron#Paramettes Chewable Multivits With Iron Tab#Paramettes Multivits Plus Iron Tab (teens)#Paramettes Syrup#Permathene-12  -  Caplet#Phosthenine Vitamines Et Fer (ampoules Buvable)#Photrexa#Photrexa Viscous#Phytofortis + Calcium A-D#Phytoplex B Liq#Phytopure#Pnv Ferrous Fumarate Docusate Folic Acid#Pnv Prenatal Plus Multivitamin#Pnv Prenatal Vitamin#Pnv Prenatal Vitamin Plus Vitamin A#Pnv-select#Poly-VI-sol Drops#Polymine Avec Zinc Et Cuivre#Prefera Ob Plus DHA#Preferaob#Preferaob Plus DHA#Pregvit#Pregvit Folic 4#Pregvit Folic 5#Prenatal 19#Prenatal Mega Antioxidant#Prenatal Plus#Prenatal Plus Iron#Prenatal Vitamins Plus#Prenatal Vitamins Plus Low Iron#Prenate Elite#Prenate Star#Preplus#Pretab#Prevital Tab#Purevit Dualfe Plus#Q.T. Vitamin and Mineral Drink Mix#Reaphirm Plant Source DHA#Reno Caps#Replavite#Revit Plus Cap#Revit Tab#Revitex Ampoules Et Comprimes#Revival 1 Tab#Riboflavin 5 Phosphate Cap 50mg#Riboflavin Inj 50mg/ml#Riboflavin Tab 10mg#Riboflavin Tab 5mg#Riboflavin-S Tab 25mg#Right Choice A.M. Multi Formula - Caplet#Se-natal 19#Se-natal 19 Chewable#Se-natal One#Se-tan Plus#Sibergin B - Cap#Somarexin and C 1000#Somavit Brand Vitamins and Minerals Complex#Sopalamine/3b Plus C#Spectrum 2 Cap#Stress B & C  Caplet#Stress B Capsules With Vitamin C#Stress B Complex With C, E & Iron#Stress B With 1000 Mg Vitamin C#Stress B&c Tab#Stress Complex 600 Avec Vit E Cuivre Zinc#Stress Ctr Srt#Stress Formula#Stress Formula + Iron#Stress Formula B-comp + 500mg Vit C Tab#Stress Formula Multi-B Comp + 500mg Vit C Cap#Stress Formula Multivitamin Tablets USP#Stress Formula Tab#Stress Formula Vit B With C Complex#Stress Forte Plus Lipotropic Factors#Stress Tab#Stress Tablets#Stress Vitamin B With C Complex Tablets#Stressmates#Strovite Forte Caplet#Strovite One Caplets#Sun-rype Vitaburst#Super B Compound W 500mg Vit C#Super Charged Energy#Super Daily No 2#Super Pantoplex#Super Stress Capsules#Super Stress Mega B Plus 1000mg Vit C Tab#Super Vitalex Ampoule Buvable#Super-pote Vitamin Supplement#Supplement De Multivitamines Infusion Arome Fruits Rouges#Supravite 10ml Ampoule#Supravite Bouteille 250ml#Supravite C 1000#Supravite Pour Enfants#Supravite Stress Avec Vit E#Supravite Stress Avec Vit E Cuivre Et Zinc#Supravite Stress Avec Vit E Et Fer#Surbex 500 Filmtab#Surbex-500 With Iron#Surbex-500 With Zinc#Swical-energy-2#T.R.I. B-plex Src#Tandem Ob#Tandem Plus#Tender Age Multi Vitamins#Time Release B 100 Compound  -  Tablet#Timed Release B Complex 100 Srt#Timed Release B-complex 100#Timed Release B-complex 50#Tini-cal Ampoules#Toni Com Liq#Tonicol Et A-D-C Ampoules/comprimes#Tonimol Cap Liq#Triadvance#Tricare Prenatal#Trinatal Gt#Twin Ultra Liquid Fruit Punch Flavor#Twin Ultra Liquid Grape Flavor#Twin Ultra Liquid Lemon-lime Flavor#Twin Ultra Liquid Orange Flavor#Ultimatecare One Nf#Ultra Enerforce#Ultra Hr#Usana Megavitamin Tablets - Tab#V-natal#VP-heme OB#Vasodyn Tab#Viamon Ampoules Et Comprimes#Vigo Multivitamins Drops/lozenge#Vimeral Tab#Virt-PN#Virt-bal DHA Plus#Virt-caps#Virt-vite Plus#Vit B Complex Ctr#Vit B Complex Plus Vit C 550mg#Vit B2 Ctr Srt 200mg#Vit-HA Multi Vitamin and Zinc Supplement#Vita B + C 500 Tab#Vita B Complex Tab#Vita Day Tab#Vita-B#Vita-B-75 Cap#Vita-flavine Cap 100mg#Vita-worth B-complex Tablets#Vitabanks Vitamin Tab#Vitachrom Gc#Vitaday Tab#Vitafant#Vitafer - Liq#Vitaflex Dietary Suplement#Vitafol Caplet#Vitafol Ob Caplet#Vitafol One#Vitafol Plus#Vitafol Ultra#Vitalife  -  Capsule#Vitamin B + C Cap#Vitamin B Complex#Vitamin B Complex + C 300mg Cap#Vitamin B Complex + C 600mg Tab#Vitamin B Complex 100 Tab#Vitamin B Complex 50#Vitamin B Complex Plus 300mg Vitamin C#Vitamin B Complex Plus C 300mg Timed Release#Vitamin B Complex Suppl#Vitamin B Complex Tab#Vitamin B Complex W C 300mg Tab#Vitamin B Complex W C Tab#Vitamin B Compound Tab#Vitamin B Compound W C Tab 500mg#Vitamin B Compound W Vit C 250mg Tab#Vitamin B Compound With Vitamin C Fortis Capsule Dtc#Vitamin B Cpd W Vit C Tab#Vitamin B Tablets#Vitamin B-2#Vitamin B-2 50 Mg Tablets#Vitamin B-2 Riboflavin 100mg Capsules#Vitamin B2 100 mg#Vitamin B2 100mg#Vitamin B2 Tab 100mg#Vitamin B2 Tab 4mg USP Chewable#Vitamin B2 Tablets 100mg#Vitamin and Mineral Supplement - Liq#Vitamine 110 Liq#Vitamine Du Groupe B Plus Fer - Liq#Vitamines Pour Bebes Et Enfants#Vitamins Chewable#Vitamins W Iron Chewable#Vitogen B Stress C Vit E Zinc & Cop#Vitogen B Stress C600#Vtb Vitamin and Mineral Supplement#Women's Formula#Zoo Chews#Bisulase

>  <DrugBank ID>  (1) 
DB00140

>  <ATC Codes>  (1) 
A11HA04

>  <Ligand ID>  (1) 
RBF

>  <Target Name>  (1) 
Riboflavin kinase

>  <UniProt ID>  (1) 
Q969G6

>  <PDB ID.1>  (1) 
1NB9

>  <Seq. Identity>  (1) 
99%

$$$$
