PDB_DB01201_03
     RDKit          3D

302312  0  0  0  0  0  0  0  0999 V2000
    2.1186    0.3849   -2.3300 C   0  0  0  0  0  0  0  0  0  0  0  0
    2.9599    0.7818   -1.1379 C   0  0  0  0  0  0  0  0  0  0  0  0
    3.3602   -0.4310   -0.3219 C   0  0  2  0  0  0  0  0  0  0  0  0
    2.1614   -1.2564    0.0853 C   0  0  0  0  0  0  0  0  0  0  0  0
    0.3811   -2.6119   -1.0900 C   0  0  0  0  0  0  0  0  0  0  0  0
   -1.0253   -1.9984   -1.0613 C   0  0  0  0  0  0  0  0  0  0  0  0
   -1.2667   -1.2718   -2.3605 C   0  0  0  0  0  0  0  0  0  0  0  0
    0.0083   -0.7697   -2.9837 C   0  0  0  0  0  0  0  0  0  0  0  0
    0.9372   -0.3868   -1.8349 C   0  0  0  0  0  0  0  0  0  0  0  0
    1.4601   -1.6507   -1.1695 C   0  0  1  0  0  0  0  0  0  0  0  0
    0.2835   -3.5544    0.0477 C   0  0  2  0  0  0  0  0  0  0  0  0
   -1.1500   -4.0600   -0.1721 C   0  0  2  0  0  0  0  0  0  0  0  0
   -1.0492   -5.3292   -0.9829 C   0  0  0  0  0  0  0  0  0  0  0  0
   -2.0924   -0.0225   -2.0291 C   0  0  0  0  0  0  0  0  0  0  0  0
    2.2415    3.0714   -0.7916 C   0  0  0  0  0  0  0  0  0  0  0  0
    1.3542    3.8313    0.2055 C   0  0  0  0  0  0  0  0  0  0  0  0
   -0.1074    3.3778    0.0823 C   0  0  0  0  0  0  0  0  0  0  0  0
   -0.9437    4.4925    0.6224 C   0  0  0  0  0  0  0  0  0  0  0  0
   -2.3373    4.1567    0.9710 C   0  0  0  0  0  0  0  0  0  0  0  0
   -3.1238    3.3696   -0.0225 C   0  0  1  0  0  0  0  0  0  0  0  0
   -4.5699    3.4110    0.4209 C   0  0  1  0  0  0  0  0  0  0  0  0
   -5.3155    2.1335    0.1823 C   0  0  2  0  0  0  0  0  0  0  0  0
   -4.6930    0.9234    0.7745 C   0  0  2  0  0  0  0  0  0  0  0  0
   -5.6284   -0.0502    1.4101 C   0  0  2  0  0  0  0  0  0  0  0  0
   -6.4195   -0.8665    0.3964 C   0  0  1  0  0  0  0  0  0  0  0  0
   -5.5771   -1.9846   -0.1775 C   0  0  1  0  0  0  0  0  0  0  0  0
   -5.3053   -3.0871    0.7926 C   0  0  2  0  0  0  0  0  0  0  0  0
   -3.8834   -3.1667    1.2548 C   0  0  0  0  0  0  0  0  0  0  0  0
   -3.1721   -4.4126    0.7117 C   0  0  0  0  0  0  0  0  0  0  0  0
    1.8019    3.4798    1.6024 C   0  0  0  0  0  0  0  0  0  0  0  0
   -2.9856    4.0316   -1.4004 C   0  0  0  0  0  0  0  0  0  0  0  0
   -5.6280    1.9875   -1.2916 C   0  0  0  0  0  0  0  0  0  0  0  0
   -6.5092    0.5353    2.4699 C   0  0  0  0  0  0  0  0  0  0  0  0
   -6.2937   -2.4791   -1.4367 C   0  0  0  0  0  0  0  0  0  0  0  0
   -8.7363   -0.8370    0.3185 C   0  0  0  0  0  0  0  0  0  0  0  0
   -9.6096   -1.9469   -0.2208 C   0  0  0  0  0  0  0  0  0  0  0  0
   -6.6511   -4.9730    0.7877 C   0  0  0  0  0  0  0  0  0  0  0  0
   10.2775    0.8048    0.5646 C   0  0  0  0  0  0  0  0  0  0  0  0
    8.1717    1.8859    0.1940 C   0  0  0  0  0  0  0  0  0  0  0  0
    7.0071    2.3052    1.0719 C   0  0  0  0  0  0  0  0  0  0  0  0
    6.9532    0.1145    2.0532 C   0  0  0  0  0  0  0  0  0  0  0  0
    8.4305    0.5019    2.0645 C   0  0  0  0  0  0  0  0  0  0  0  0
    4.1937    0.0403    0.8353 C   0  0  0  0  0  0  0  0  0  0  0  0
   10.6886    0.8595   -0.8738 C   0  0  0  0  0  0  0  0  0  0  0  0
   10.9011   -0.4634    1.1018 C   0  0  0  0  0  0  0  0  0  0  0  0
   12.0016    0.1168   -0.9827 C   0  0  0  0  0  0  0  0  0  0  0  0
   12.2337   -0.5244    0.3750 C   0  0  0  0  0  0  0  0  0  0  0  0
    2.3348    1.7232   -0.2762 N   0  0  0  0  0  0  0  0  0  0  0  0
    5.3951    0.7291    0.3805 N   0  0  0  0  0  0  0  0  0  0  0  0
    6.1781    1.1694    1.4295 N   0  0  0  0  0  0  0  0  0  0  0  0
    8.8500    0.7287    0.7157 N   0  0  0  0  0  0  0  0  0  0  0  0
    2.8752   -0.4415   -3.1416 O   0  0  0  0  0  0  0  0  0  0  0  0
    0.6333   -1.7135   -3.7718 O   0  0  0  0  0  0  0  0  0  0  0  0
   -1.8029   -3.1202   -0.9153 O   0  0  0  0  0  0  0  0  0  0  0  0
    0.3154   -3.0117    1.3018 O   0  0  0  0  0  0  0  0  0  0  0  0
   -1.8117   -4.2971    0.9988 O   0  0  0  0  0  0  0  0  0  0  0  0
   -5.6142   -4.2960    0.1479 O   0  0  0  0  0  0  0  0  0  0  0  0
   -7.6054   -1.3281    0.9594 O   0  0  0  0  0  0  0  0  0  0  0  0
   -9.5363   -0.0909    1.2054 O   0  0  0  0  0  0  0  0  0  0  0  0
   -3.6965    1.2222    1.7141 O   0  0  0  0  0  0  0  0  0  0  0  0
   -4.6810    3.7360    1.7713 O   0  0  0  0  0  0  0  0  0  0  0  0
    3.5052    3.6544   -0.6806 O   0  0  0  0  0  0  0  0  0  0  0  0
    1.3543   -0.6220    1.0084 O   0  0  0  0  0  0  0  0  0  0  0  0
    2.1932    0.5114   -2.4681 C   0  0  0  0  0  0  0  0  0  0  0  0
    2.8841    0.8358   -1.1602 C   0  0  0  0  0  0  0  0  0  0  0  0
    3.2901   -0.4177   -0.4320 C   0  0  2  0  0  0  0  0  0  0  0  0
    2.1373   -1.3804   -0.2503 C   0  0  0  0  0  0  0  0  0  0  0  0
    0.5676   -2.7031   -1.7220 C   0  0  0  0  0  0  0  0  0  0  0  0
   -0.8689   -2.1599   -1.7227 C   0  0  0  0  0  0  0  0  0  0  0  0
   -1.1147   -1.2692   -2.8978 C   0  0  0  0  0  0  0  0  0  0  0  0
    0.1801   -0.6577   -3.3911 C   0  0  0  0  0  0  0  0  0  0  0  0
    1.0338   -0.3746   -2.1740 C   0  0  0  0  0  0  0  0  0  0  0  0
    1.5885   -1.6783   -1.6080 C   0  0  0  0  0  0  0  0  0  0  0  0
    0.4581   -3.7692   -0.7105 C   0  0  2  0  0  0  0  0  0  0  0  0
   -0.9901   -4.2321   -0.9125 C   0  0  2  0  0  0  0  0  0  0  0  0
   -0.9382   -5.6368   -1.4371 C   0  0  0  0  0  0  0  0  0  0  0  0
   -1.9942   -0.1190   -2.4436 C   0  0  0  0  0  0  0  0  0  0  0  0
    2.0967    3.0717   -0.6792 C   0  0  0  0  0  0  0  0  0  0  0  0
    1.3935    3.8240    0.4330 C   0  0  0  0  0  0  0  0  0  0  0  0
    0.0416    3.1537    0.6809 C   0  0  0  0  0  0  0  0  0  0  0  0
   -0.7931    4.1688    1.4309 C   0  0  0  0  0  0  0  0  0  0  0  0
   -2.2199    3.8233    1.5853 C   0  0  0  0  0  0  0  0  0  0  0  0
   -2.8968    3.2126    0.3801 C   0  0  1  0  0  0  0  0  0  0  0  0
   -4.3555    3.1768    0.6734 C   0  0  1  0  0  0  0  0  0  0  0  0
   -5.1032    1.9598    0.1912 C   0  0  2  0  0  0  0  0  0  0  0  0
   -4.5873    0.6631    0.6821 C   0  0  2  0  0  0  0  0  0  0  0  0
   -5.5806   -0.3209    1.2260 C   0  0  2  0  0  0  0  0  0  0  0  0
   -6.3264   -1.1085    0.2171 C   0  0  1  0  0  0  0  0  0  0  0  0
   -6.2917   -2.5706    0.2816 C   0  0  1  0  0  0  0  0  0  0  0  0
   -5.1959   -3.2698    0.9736 C   0  0  2  0  0  0  0  0  0  0  0  0
   -3.8038   -2.9433    0.4883 C   0  0  0  0  0  0  0  0  0  0  0  0
   -3.0826   -4.1694   -0.0356 C   0  0  0  0  0  0  0  0  0  0  0  0
    2.2276    3.6426    1.6910 C   0  0  0  0  0  0  0  0  0  0  0  0
   -2.5769    4.1370   -0.8040 C   0  0  0  0  0  0  0  0  0  0  0  0
   -5.1880    2.0458   -1.3220 C   0  0  0  0  0  0  0  0  0  0  0  0
   -6.5151    0.2856    2.2726 C   0  0  0  0  0  0  0  0  0  0  0  0
   -7.5982   -3.0630    0.9273 C   0  0  0  0  0  0  0  0  0  0  0  0
   -8.1040   -0.0365   -0.8582 C   0  0  0  0  0  0  0  0  0  0  0  0
   -9.2944   -0.6817   -1.5283 C   0  0  0  0  0  0  0  0  0  0  0  0
   -5.4945   -5.2524    2.1643 C   0  0  0  0  0  0  0  0  0  0  0  0
    9.8522    0.8807    0.9035 C   0  0  0  0  0  0  0  0  0  0  0  0
    7.7774    2.0914    0.7327 C   0  0  0  0  0  0  0  0  0  0  0  0
    6.5858    2.3342    1.6161 C   0  0  0  0  0  0  0  0  0  0  0  0
    6.5408    0.0734    2.3733 C   0  0  0  0  0  0  0  0  0  0  0  0
    8.0261    0.4249    2.3411 C   0  0  0  0  0  0  0  0  0  0  0  0
    3.9489   -0.0313    0.8593 C   0  0  0  0  0  0  0  0  0  0  0  0
   10.3046    1.2345   -0.4803 C   0  0  0  0  0  0  0  0  0  0  0  0
   10.3881   -0.5183    1.1140 C   0  0  0  0  0  0  0  0  0  0  0  0
   11.5532    0.4368   -0.7730 C   0  0  0  0  0  0  0  0  0  0  0  0
   11.6763   -0.5647    0.3548 C   0  0  0  0  0  0  0  0  0  0  0  0
    2.1182    1.6797   -0.3016 N   0  0  0  0  0  0  0  0  0  0  0  0
    5.1217    0.7757    0.6233 N   0  0  0  0  0  0  0  0  0  0  0  0
    5.7625    1.1523    1.7927 N   0  0  0  0  0  0  0  0  0  0  0  0
    8.4058    0.8135    1.0084 N   0  0  0  0  0  0  0  0  0  0  0  0
    3.1050   -0.2036   -3.2384 O   0  0  0  0  0  0  0  0  0  0  0  0
    0.8384   -1.4851   -4.3012 O   0  0  0  0  0  0  0  0  0  0  0  0
   -1.5576   -3.3836   -1.8402 O   0  0  0  0  0  0  0  0  0  0  0  0
    0.5813   -3.3952    0.5993 O   0  0  0  0  0  0  0  0  0  0  0  0
   -1.7232   -4.1101    0.2585 O   0  0  0  0  0  0  0  0  0  0  0  0
   -5.3574   -4.6518    0.9417 O   0  0  0  0  0  0  0  0  0  0  0  0
   -7.6743   -0.6789    0.2604 O   0  0  0  0  0  0  0  0  0  0  0  0
   -8.5131    1.2461   -0.5086 O   0  0  0  0  0  0  0  0  0  0  0  0
   -3.6623    0.9124    1.6964 O   0  0  0  0  0  0  0  0  0  0  0  0
   -4.6343    3.4329    2.0225 O   0  0  0  0  0  0  0  0  0  0  0  0
    3.3481    3.5874   -0.9289 O   0  0  0  0  0  0  0  0  0  0  0  0
    1.1564   -0.8320    0.5391 O   0  0  0  0  0  0  0  0  0  0  0  0
    1.7696    1.2867   -2.8406 H   0  0  0  0  0  0  0  0  0  0  0  0
    3.8943    1.2274   -1.5289 H   0  0  0  0  0  0  0  0  0  0  0  0
    3.9914   -1.0666   -0.9765 H   0  0  0  0  0  0  0  0  0  0  0  0
    2.5989   -2.1746    0.5808 H   0  0  0  0  0  0  0  0  0  0  0  0
    0.3709   -3.2445   -2.0265 H   0  0  0  0  0  0  0  0  0  0  0  0
   -1.1011   -1.2935   -0.1962 H   0  0  0  0  0  0  0  0  0  0  0  0
   -1.8466   -1.9406   -3.0129 H   0  0  0  0  0  0  0  0  0  0  0  0
   -0.1965    0.1803   -3.5268 H   0  0  0  0  0  0  0  0  0  0  0  0
    0.3026    0.1588   -1.1119 H   0  0  0  0  0  0  0  0  0  0  0  0
    2.2602   -2.0343   -1.8695 H   0  0  0  0  0  0  0  0  0  0  0  0
    1.0049   -4.3996   -0.0483 H   0  0  0  0  0  0  0  0  0  0  0  0
   -1.8578   -6.0379   -0.7337 H   0  0  0  0  0  0  0  0  0  0  0  0
   -1.0683   -5.0980   -2.0775 H   0  0  0  0  0  0  0  0  0  0  0  0
   -0.0911   -5.8122   -0.7366 H   0  0  0  0  0  0  0  0  0  0  0  0
   -3.1526   -0.1861   -2.2977 H   0  0  0  0  0  0  0  0  0  0  0  0
   -1.9500    0.2495   -0.9571 H   0  0  0  0  0  0  0  0  0  0  0  0
   -1.7398    0.8584   -2.6102 H   0  0  0  0  0  0  0  0  0  0  0  0
    1.8173    3.1400   -1.7942 H   0  0  0  0  0  0  0  0  0  0  0  0
    1.4520    4.9111    0.0169 H   0  0  0  0  0  0  0  0  0  0  0  0
   -0.2716    2.4616    0.7209 H   0  0  0  0  0  0  0  0  0  0  0  0
   -0.3234    3.0728   -0.9413 H   0  0  0  0  0  0  0  0  0  0  0  0
   -0.4386    4.8179    1.5817 H   0  0  0  0  0  0  0  0  0  0  0  0
   -0.8290    5.3935   -0.0397 H   0  0  0  0  0  0  0  0  0  0  0  0
   -2.3433    3.6027    1.9538 H   0  0  0  0  0  0  0  0  0  0  0  0
   -2.8888    5.1305    1.1202 H   0  0  0  0  0  0  0  0  0  0  0  0
   -2.7343    2.3576   -0.1266 H   0  0  0  0  0  0  0  0  0  0  0  0
   -5.1045    4.2115   -0.1426 H   0  0  0  0  0  0  0  0  0  0  0  0
   -6.3168    2.2719    0.6870 H   0  0  0  0  0  0  0  0  0  0  0  0
   -4.1669    0.3792   -0.0491 H   0  0  0  0  0  0  0  0  0  0  0  0
   -4.9761   -0.8118    1.9351 H   0  0  0  0  0  0  0  0  0  0  0  0
   -6.7001   -0.2074   -0.4440 H   0  0  0  0  0  0  0  0  0  0  0  0
   -4.6170   -1.5570   -0.4963 H   0  0  0  0  0  0  0  0  0  0  0  0
   -5.9980   -3.0061    1.6627 H   0  0  0  0  0  0  0  0  0  0  0  0
   -3.2583   -2.3078    0.9319 H   0  0  0  0  0  0  0  0  0  0  0  0
   -3.8263   -3.2740    2.3705 H   0  0  0  0  0  0  0  0  0  0  0  0
   -3.6319   -5.3158    1.1179 H   0  0  0  0  0  0  0  0  0  0  0  0
   -3.3683   -4.3821   -0.3974 H   0  0  0  0  0  0  0  0  0  0  0  0
    1.6596    4.4061    2.2259 H   0  0  0  0  0  0  0  0  0  0  0  0
    2.8498    3.1769    1.6725 H   0  0  0  0  0  0  0  0  0  0  0  0
    1.1894    2.7014    2.0711 H   0  0  0  0  0  0  0  0  0  0  0  0
   -2.0591    4.6367   -1.4724 H   0  0  0  0  0  0  0  0  0  0  0  0
   -2.9161    3.2738   -2.2072 H   0  0  0  0  0  0  0  0  0  0  0  0
   -3.8184    4.7611   -1.5645 H   0  0  0  0  0  0  0  0  0  0  0  0
   -6.7194    1.9428   -1.5025 H   0  0  0  0  0  0  0  0  0  0  0  0
   -5.1276    1.0914   -1.7238 H   0  0  0  0  0  0  0  0  0  0  0  0
   -5.2540    2.8635   -1.8636 H   0  0  0  0  0  0  0  0  0  0  0  0
   -5.8890    0.9734    3.2633 H   0  0  0  0  0  0  0  0  0  0  0  0
   -7.0395   -0.3361    2.9553 H   0  0  0  0  0  0  0  0  0  0  0  0
   -7.2904    1.2033    2.1210 H   0  0  0  0  0  0  0  0  0  0  0  0
   -5.5669   -2.9930   -2.1184 H   0  0  0  0  0  0  0  0  0  0  0  0
   -6.7316   -1.5831   -1.9099 H   0  0  0  0  0  0  0  0  0  0  0  0
   -7.1034   -3.1821   -1.1835 H   0  0  0  0  0  0  0  0  0  0  0  0
   -8.4912   -0.1664   -0.5250 H   0  0  0  0  0  0  0  0  0  0  0  0
   -9.3033   -2.2212   -1.2333 H   0  0  0  0  0  0  0  0  0  0  0  0
   -9.6461   -2.8077    0.4810 H   0  0  0  0  0  0  0  0  0  0  0  0
  -10.6458   -1.5247   -0.3102 H   0  0  0  0  0  0  0  0  0  0  0  0
   -6.8194   -5.9026    0.2098 H   0  0  0  0  0  0  0  0  0  0  0  0
   -6.2678   -5.2996    1.7866 H   0  0  0  0  0  0  0  0  0  0  0  0
   -7.5665   -4.3558    0.8668 H   0  0  0  0  0  0  0  0  0  0  0  0
   10.6488    1.6935    1.1345 H   0  0  0  0  0  0  0  0  0  0  0  0
    8.8360    2.7685    0.0971 H   0  0  0  0  0  0  0  0  0  0  0  0
    7.7503    1.5879   -0.7973 H   0  0  0  0  0  0  0  0  0  0  0  0
    7.3601    2.8274    1.9821 H   0  0  0  0  0  0  0  0  0  0  0  0
    6.3930    2.9948    0.4669 H   0  0  0  0  0  0  0  0  0  0  0  0
    6.6642    0.0505    3.1387 H   0  0  0  0  0  0  0  0  0  0  0  0
    6.7993   -0.8686    1.5849 H   0  0  0  0  0  0  0  0  0  0  0  0
    8.5520    1.3554    2.7414 H   0  0  0  0  0  0  0  0  0  0  0  0
    9.0151   -0.3368    2.4920 H   0  0  0  0  0  0  0  0  0  0  0  0
    4.5189   -0.7938    1.4942 H   0  0  0  0  0  0  0  0  0  0  0  0
    3.6526    0.7512    1.4926 H   0  0  0  0  0  0  0  0  0  0  0  0
    9.9235    0.3111   -1.4802 H   0  0  0  0  0  0  0  0  0  0  0  0
   10.7911    1.8845   -1.2755 H   0  0  0  0  0  0  0  0  0  0  0  0
   11.0623   -0.3912    2.2006 H   0  0  0  0  0  0  0  0  0  0  0  0
   10.2615   -1.3250    0.8426 H   0  0  0  0  0  0  0  0  0  0  0  0
   11.9350   -0.6650   -1.7710 H   0  0  0  0  0  0  0  0  0  0  0  0
   12.8313    0.7973   -1.2438 H   0  0  0  0  0  0  0  0  0  0  0  0
   12.6092   -1.5476    0.2648 H   0  0  0  0  0  0  0  0  0  0  0  0
   12.9376    0.1375    0.9232 H   0  0  0  0  0  0  0  0  0  0  0  0
    1.3659    1.4755    0.0195 H   0  0  0  0  0  0  0  0  0  0  0  0
    5.9808    0.0923   -0.2042 H   0  0  0  0  0  0  0  0  0  0  0  0
    3.7947   -0.0881   -3.2380 H   0  0  0  0  0  0  0  0  0  0  0  0
    0.0818   -1.9515   -4.5410 H   0  0  0  0  0  0  0  0  0  0  0  0
    0.5475   -3.6701    1.9765 H   0  0  0  0  0  0  0  0  0  0  0  0
   -9.7395   -0.6605    1.9918 H   0  0  0  0  0  0  0  0  0  0  0  0
   -4.0706    1.6083    2.5375 H   0  0  0  0  0  0  0  0  0  0  0  0
   -4.8726    4.6983    1.9181 H   0  0  0  0  0  0  0  0  0  0  0  0
    4.0465    3.2151    0.0196 H   0  0  0  0  0  0  0  0  0  0  0  0
    1.6680   -0.6753    1.9242 H   0  0  0  0  0  0  0  0  0  0  0  0
    1.9541    1.4380   -2.9827 H   0  0  0  0  0  0  0  0  0  0  0  0
    3.8183    1.3727   -1.4241 H   0  0  0  0  0  0  0  0  0  0  0  0
    4.0553   -0.9675   -1.0367 H   0  0  0  0  0  0  0  0  0  0  0  0
    2.6034   -2.3021    0.2092 H   0  0  0  0  0  0  0  0  0  0  0  0
    0.6659   -3.2076   -2.7288 H   0  0  0  0  0  0  0  0  0  0  0  0
   -1.1156   -1.7270   -0.7495 H   0  0  0  0  0  0  0  0  0  0  0  0
   -1.6515   -1.8092   -3.7031 H   0  0  0  0  0  0  0  0  0  0  0  0
   -0.0443    0.2853   -3.8932 H   0  0  0  0  0  0  0  0  0  0  0  0
    0.3393    0.0131   -1.3993 H   0  0  0  0  0  0  0  0  0  0  0  0
    2.4670   -1.9371   -2.2623 H   0  0  0  0  0  0  0  0  0  0  0  0
    1.1790   -4.5817   -0.9517 H   0  0  0  0  0  0  0  0  0  0  0  0
   -1.3842   -6.3883   -0.7840 H   0  0  0  0  0  0  0  0  0  0  0  0
   -1.4488   -5.7080   -2.4395 H   0  0  0  0  0  0  0  0  0  0  0  0
    0.1133   -5.9762   -1.6368 H   0  0  0  0  0  0  0  0  0  0  0  0
   -1.7766    0.8113   -2.9904 H   0  0  0  0  0  0  0  0  0  0  0  0
   -1.8670    0.1076   -1.3634 H   0  0  0  0  0  0  0  0  0  0  0  0
   -3.0843   -0.3633   -2.5764 H   0  0  0  0  0  0  0  0  0  0  0  0
    1.4861    3.2429   -1.6043 H   0  0  0  0  0  0  0  0  0  0  0  0
    1.2582    4.8948    0.1709 H   0  0  0  0  0  0  0  0  0  0  0  0
    0.1661    2.2918    1.3939 H   0  0  0  0  0  0  0  0  0  0  0  0
   -0.4175    2.7726   -0.2290 H   0  0  0  0  0  0  0  0  0  0  0  0
   -0.3458    4.2012    2.4717 H   0  0  0  0  0  0  0  0  0  0  0  0
   -0.6036    5.2197    1.0607 H   0  0  0  0  0  0  0  0  0  0  0  0
   -2.3571    3.1935    2.4976 H   0  0  0  0  0  0  0  0  0  0  0  0
   -2.7815    4.7677    1.8068 H   0  0  0  0  0  0  0  0  0  0  0  0
   -2.4658    2.2302    0.1078 H   0  0  0  0  0  0  0  0  0  0  0  0
   -4.8152    4.0499    0.1209 H   0  0  0  0  0  0  0  0  0  0  0  0
   -6.1499    2.1149    0.5550 H   0  0  0  0  0  0  0  0  0  0  0  0
   -4.0498    0.1394   -0.1374 H   0  0  0  0  0  0  0  0  0  0  0  0
   -4.9528   -1.0265    1.8556 H   0  0  0  0  0  0  0  0  0  0  0  0
   -5.9639   -0.7673   -0.7825 H   0  0  0  0  0  0  0  0  0  0  0  0
   -6.3354   -2.9830   -0.7714 H   0  0  0  0  0  0  0  0  0  0  0  0
   -5.2293   -3.0187    2.0564 H   0  0  0  0  0  0  0  0  0  0  0  0
   -3.8708   -2.2404   -0.3613 H   0  0  0  0  0  0  0  0  0  0  0  0
   -3.1481   -2.5856    1.3108 H   0  0  0  0  0  0  0  0  0  0  0  0
   -3.4786   -5.0261    0.5575 H   0  0  0  0  0  0  0  0  0  0  0  0
   -3.2203   -4.3048   -1.1210 H   0  0  0  0  0  0  0  0  0  0  0  0
    2.0565    4.5339    2.3344 H   0  0  0  0  0  0  0  0  0  0  0  0
    3.3177    3.5367    1.4321 H   0  0  0  0  0  0  0  0  0  0  0  0
    1.9397    2.6908    2.1818 H   0  0  0  0  0  0  0  0  0  0  0  0
   -1.6868    4.7724   -0.5977 H   0  0  0  0  0  0  0  0  0  0  0  0
   -2.3082    3.5517   -1.7115 H   0  0  0  0  0  0  0  0  0  0  0  0
   -3.4091    4.8557   -0.9798 H   0  0  0  0  0  0  0  0  0  0  0  0
   -6.2344    2.2160   -1.6877 H   0  0  0  0  0  0  0  0  0  0  0  0
   -4.8638    1.1013   -1.8055 H   0  0  0  0  0  0  0  0  0  0  0  0
   -4.6186    2.9225   -1.7119 H   0  0  0  0  0  0  0  0  0  0  0  0
   -5.9894    0.6925    3.1329 H   0  0  0  0  0  0  0  0  0  0  0  0
   -7.1146   -0.5897    2.6549 H   0  0  0  0  0  0  0  0  0  0  0  0
   -7.2113    1.0172    1.8915 H   0  0  0  0  0  0  0  0  0  0  0  0
   -7.5262   -3.0091    2.0436 H   0  0  0  0  0  0  0  0  0  0  0  0
   -7.8595   -4.0806    0.5714 H   0  0  0  0  0  0  0  0  0  0  0  0
   -8.4464   -2.4148    0.6660 H   0  0  0  0  0  0  0  0  0  0  0  0
   -7.3230    0.0726   -1.6457 H   0  0  0  0  0  0  0  0  0  0  0  0
   -9.0541   -1.6277   -2.0316 H   0  0  0  0  0  0  0  0  0  0  0  0
  -10.0949   -0.7647   -0.7660 H   0  0  0  0  0  0  0  0  0  0  0  0
   -9.6440    0.0207   -2.3032 H   0  0  0  0  0  0  0  0  0  0  0  0
   -6.3329   -4.9502    2.7813 H   0  0  0  0  0  0  0  0  0  0  0  0
   -5.4878   -6.3610    2.1158 H   0  0  0  0  0  0  0  0  0  0  0  0
   -4.5679   -5.0237    2.7759 H   0  0  0  0  0  0  0  0  0  0  0  0
   10.3003    1.5386    1.6668 H   0  0  0  0  0  0  0  0  0  0  0  0
    8.4914    2.9323    0.8872 H   0  0  0  0  0  0  0  0  0  0  0  0
    7.4387    2.0727   -0.3228 H   0  0  0  0  0  0  0  0  0  0  0  0
    6.9262    2.6769    2.6142 H   0  0  0  0  0  0  0  0  0  0  0  0
    5.9868    3.1332    1.1591 H   0  0  0  0  0  0  0  0  0  0  0  0
    6.2829   -0.0201    3.4496 H   0  0  0  0  0  0  0  0  0  0  0  0
    6.3866   -0.8941    1.8830 H   0  0  0  0  0  0  0  0  0  0  0  0
    8.2649    1.1934    3.1011 H   0  0  0  0  0  0  0  0  0  0  0  0
    8.5822   -0.4874    2.6229 H   0  0  0  0  0  0  0  0  0  0  0  0
    4.1649   -0.9228    1.5022 H   0  0  0  0  0  0  0  0  0  0  0  0
    3.2633    0.6010    1.4950 H   0  0  0  0  0  0  0  0  0  0  0  0
    9.5050    1.0125   -1.2302 H   0  0  0  0  0  0  0  0  0  0  0  0
   10.5957    2.3227   -0.5285 H   0  0  0  0  0  0  0  0  0  0  0  0
   10.5675   -0.6952    2.2111 H   0  0  0  0  0  0  0  0  0  0  0  0
    9.6492   -1.2469    0.7371 H   0  0  0  0  0  0  0  0  0  0  0  0
   11.4905   -0.0663   -1.7677 H   0  0  0  0  0  0  0  0  0  0  0  0
   12.4721    1.0885   -0.7897 H   0  0  0  0  0  0  0  0  0  0  0  0
   11.8299   -1.5685   -0.1147 H   0  0  0  0  0  0  0  0  0  0  0  0
   12.5435   -0.3044    1.0264 H   0  0  0  0  0  0  0  0  0  0  0  0
    1.1475    1.3947   -0.1452 H   0  0  0  0  0  0  0  0  0  0  0  0
    5.7929    0.1915    0.0712 H   0  0  0  0  0  0  0  0  0  0  0  0
    2.8391   -0.0682   -4.1889 H   0  0  0  0  0  0  0  0  0  0  0  0
    0.2235   -1.5558   -5.0881 H   0  0  0  0  0  0  0  0  0  0  0  0
   -0.2619   -3.1400    1.0491 H   0  0  0  0  0  0  0  0  0  0  0  0
   -9.3320    1.2747    0.0090 H   0  0  0  0  0  0  0  0  0  0  0  0
   -4.1214    1.2106    2.5169 H   0  0  0  0  0  0  0  0  0  0  0  0
   -4.7582    4.3865    2.2013 H   0  0  0  0  0  0  0  0  0  0  0  0
    4.0566    3.1411   -0.4302 H   0  0  0  0  0  0  0  0  0  0  0  0
    1.4364   -0.5093    1.4095 H   0  0  0  0  0  0  0  0  0  0  0  0
  1  2  1  0
  2  3  1  0
  3  4  1  0
  5  6  1  0
  6  7  1  0
  7  8  1  0
  1  9  1  0
  8  9  1  0
  4 10  1  0
  5 10  1  0
  9 10  1  0
  5 11  1  0
 11 12  1  0
 12 13  1  6
  7 14  1  0
 15 16  1  0
 16 17  1  0
 17 18  1  0
 18 19  1  0
 19 20  1  0
 20 21  1  0
 21 22  1  0
 22 23  1  0
 23 24  1  0
 24 25  1  0
 25 26  1  0
 26 27  1  0
 27 28  1  0
 28 29  1  0
 16 30  1  0
 20 31  1  0
 22 32  1  0
 24 33  1  0
 26 34  1  0
 35 36  1  0
 39 40  1  0
 41 42  1  0
  3 43  1  0
 38 44  1  0
 38 45  1  0
 44 46  1  0
 45 47  1  0
 46 47  1  0
  2 48  1  0
 15 48  1  0
 43 49  1  0
 40 50  1  0
 41 50  1  0
 49 50  1  0
 38 51  1  0
 39 51  1  0
 42 51  1  0
  1 52  1  0
  8 53  1  0
  6 54  1  0
 12 54  1  0
 11 55  1  0
 12 56  1  0
 29 56  1  0
 27 57  1  0
 37 57  1  0
 25 58  1  0
 35 58  1  0
 35 59  1  0
 23 60  1  0
 21 61  1  0
 15 62  1  0
  4 63  1  0
 64 65  1  0
 65 66  1  0
 66 67  1  0
 68 69  1  0
 69 70  1  0
 70 71  1  0
 64 72  1  0
 71 72  1  0
 67 73  1  0
 68 73  1  0
 72 73  1  0
 68 74  1  0
 74 75  1  0
 75 76  1  6
 70 77  1  0
 78 79  1  0
 79 80  1  0
 80 81  1  0
 81 82  1  0
 82 83  1  0
 83 84  1  0
 84 85  1  0
 85 86  1  0
 86 87  1  0
 87 88  1  0
 88 89  1  0
 89 90  1  0
 90 91  1  0
 91 92  1  0
 79 93  1  0
 83 94  1  0
 85 95  1  0
 87 96  1  0
 89 97  1  0
 98 99  1  0
102103  1  0
104105  1  0
 66106  1  0
101107  1  0
101108  1  0
107109  1  0
108110  1  0
109110  1  0
 65111  1  0
 78111  1  0
106112  1  0
103113  1  0
104113  1  0
112113  1  0
101114  1  0
102114  1  0
105114  1  0
 64115  1  0
 71116  1  0
 69117  1  0
 75117  1  0
 74118  1  0
 75119  1  0
 92119  1  0
 90120  1  0
100120  1  0
 88121  1  0
 98121  1  0
 98122  1  0
 86123  1  0
 84124  1  0
 78125  1  0
 67126  1  0
  1127  1  0
  2128  1  0
  3129  1  6
  4130  1  0
  5131  1  0
  6132  1  0
  7133  1  0
  8134  1  0
  9135  1  0
 10136  1  6
 11137  1  1
 13138  1  0
 13139  1  0
 13140  1  0
 14141  1  0
 14142  1  0
 14143  1  0
 15144  1  0
 16145  1  0
 17146  1  0
 17147  1  0
 18148  1  0
 18149  1  0
 19150  1  0
 19151  1  0
 20152  1  6
 21153  1  6
 22154  1  1
 23155  1  6
 24156  1  1
 25157  1  6
 26158  1  6
 27159  1  1
 28160  1  0
 28161  1  0
 29162  1  0
 29163  1  0
 30164  1  0
 30165  1  0
 30166  1  0
 31167  1  0
 31168  1  0
 31169  1  0
 32170  1  0
 32171  1  0
 32172  1  0
 33173  1  0
 33174  1  0
 33175  1  0
 34176  1  0
 34177  1  0
 34178  1  0
 35179  1  0
 36180  1  0
 36181  1  0
 36182  1  0
 37183  1  0
 37184  1  0
 37185  1  0
 38186  1  0
 39187  1  0
 39188  1  0
 40189  1  0
 40190  1  0
 41191  1  0
 41192  1  0
 42193  1  0
 42194  1  0
 43195  1  0
 43196  1  0
 44197  1  0
 44198  1  0
 45199  1  0
 45200  1  0
 46201  1  0
 46202  1  0
 47203  1  0
 47204  1  0
 48205  1  0
 49206  1  0
 52207  1  0
 53208  1  0
 55209  1  0
 59210  1  0
 60211  1  0
 61212  1  0
 62213  1  0
 63214  1  0
 64215  1  0
 65216  1  0
 66217  1  6
 67218  1  0
 68219  1  0
 69220  1  0
 70221  1  0
 71222  1  0
 72223  1  0
 73224  1  0
 74225  1  6
 76226  1  0
 76227  1  0
 76228  1  0
 77229  1  0
 77230  1  0
 77231  1  0
 78232  1  0
 79233  1  0
 80234  1  0
 80235  1  0
 81236  1  0
 81237  1  0
 82238  1  0
 82239  1  0
 83240  1  6
 84241  1  6
 85242  1  1
 86243  1  6
 87244  1  1
 88245  1  6
 89246  1  6
 90247  1  1
 91248  1  0
 91249  1  0
 92250  1  0
 92251  1  0
 93252  1  0
 93253  1  0
 93254  1  0
 94255  1  0
 94256  1  0
 94257  1  0
 95258  1  0
 95259  1  0
 95260  1  0
 96261  1  0
 96262  1  0
 96263  1  0
 97264  1  0
 97265  1  0
 97266  1  0
 98267  1  0
 99268  1  0
 99269  1  0
 99270  1  0
100271  1  0
100272  1  0
100273  1  0
101274  1  0
102275  1  0
102276  1  0
103277  1  0
103278  1  0
104279  1  0
104280  1  0
105281  1  0
105282  1  0
106283  1  0
106284  1  0
107285  1  0
107286  1  0
108287  1  0
108288  1  0
109289  1  0
109290  1  0
110291  1  0
110292  1  0
111293  1  0
112294  1  0
115295  1  0
116296  1  0
118297  1  0
122298  1  0
123299  1  0
124300  1  0
125301  1  0
126302  1  0
M  END
>  <PDBID>  (1) 
2A69

>  <PDB ID>  (1) 
2A69

>  <Generic Name>  (1) 
Rifapentine

>  <Brand Name>  (1) 
Priftin

>  <DrugBank ID>  (1) 
DB01201

>  <ATC Codes>  (1) 
J04AB05

>  <Ligand ID>  (1) 
RPT

>  <Target Name>  (1) 
DNA-directed RNA polymerase subunit beta'

>  <UniProt ID>  (1) 
P0A674

>  <PDB ID.1>  (1) 
2A69

>  <Seq. Identity>  (1) 
50%

$$$$
