PDB_DB00814_01
     RDKit          3D

104109  0  0  0  0  0  0  0  0999 V2000
    6.1831    0.6395    1.6013 C   0  0  0  0  0  0  0  0  0  0  0  0
    4.6876    0.5163    1.8059 C   0  0  0  0  0  0  0  0  0  0  0  0
    3.8657    1.9497    1.0569 S   0  0  0  0  0  0  0  0  0  0  0  0
    4.2015   -0.5706    0.8745 C   0  0  0  0  0  0  0  0  0  0  0  0
    2.8015   -0.2657    0.5743 N   0  0  0  0  0  0  0  0  0  0  0  0
    2.7683    0.9988   -0.1153 C   0  0  0  0  0  0  0  0  0  0  0  0
    1.5201    1.6185   -0.1957 N   0  0  0  0  0  0  0  0  0  0  0  0
    0.5534    1.2330   -1.1367 C   0  0  1  0  0  0  0  0  0  0  0  0
    1.1072    1.4126   -2.4290 O   0  0  0  0  0  0  0  0  0  0  0  0
   -0.0482   -0.1523   -1.0279 C   0  0  1  0  0  0  0  0  0  0  0  0
   -0.4687   -0.4587    0.3336 C   0  0  2  0  0  0  0  0  0  0  0  0
   -0.0105   -1.7542    0.6917 O   0  0  0  0  0  0  0  0  0  0  0  0
   -1.8623   -0.2887    0.7830 C   0  0  1  0  0  0  0  0  0  0  0  0
   -2.1129    0.9974    1.5802 C   0  0  0  0  0  0  0  0  0  0  0  0
   -3.5740    1.3410    1.5261 C   0  0  0  0  0  0  0  0  0  0  0  0
   -4.4826    0.1344    1.5389 C   0  0  0  0  0  0  0  0  0  0  0  0
   -4.2089   -0.8062    0.3772 C   0  0  0  0  0  0  0  0  0  0  0  0
   -2.9277   -0.3751   -0.2440 C   0  0  2  0  0  0  0  0  0  0  0  0
   -2.3520   -1.3253   -1.5516 S   0  0  0  0  0  0  0  0  0  0  0  0
   -1.5978   -2.8643   -1.0823 O   0  0  0  0  0  0  0  0  0  0  0  0
   -3.4582   -1.6168   -2.8674 O   0  0  0  0  0  0  0  0  0  0  0  0
   -1.0646   -0.1915   -2.0608 N   0  0  0  0  0  0  0  0  0  0  0  0
   -0.5751   -0.7015   -3.3248 C   0  0  0  0  0  0  0  0  0  0  0  0
    6.2808   -0.5984   -0.2195 C   0  0  0  0  0  0  0  0  0  0  0  0
    5.0108    0.0012   -0.7398 C   0  0  0  0  0  0  0  0  0  0  0  0
    3.5570   -1.0803   -0.4016 S   0  0  0  0  0  0  0  0  0  0  0  0
    4.5760    1.1793    0.1508 C   0  0  0  0  0  0  0  0  0  0  0  0
    4.1405    0.5951    1.3997 N   0  0  0  0  0  0  0  0  0  0  0  0
    3.0479   -0.2975    1.1512 C   0  0  1  0  0  0  0  0  0  0  0  0
    1.8069    0.3975    1.0899 N   0  0  0  0  0  0  0  0  0  0  0  0
    0.6754   -0.4075    0.8489 C   0  0  1  0  0  0  0  0  0  0  0  0
    0.0786   -0.8601    2.0243 O   0  0  0  0  0  0  0  0  0  0  0  0
   -0.3676    0.2167   -0.1090 C   0  0  2  0  0  0  0  0  0  0  0  0
   -1.3858    0.8978    0.6678 C   0  0  2  0  0  0  0  0  0  0  0  0
   -1.1508    1.0571    2.0346 O   0  0  0  0  0  0  0  0  0  0  0  0
   -2.5220   -0.0599    0.5367 C   0  0  1  0  0  0  0  0  0  0  0  0
   -3.7634    0.6363    0.9529 C   0  0  0  0  0  0  0  0  0  0  0  0
   -5.0488   -0.0175    0.5765 C   0  0  0  0  0  0  0  0  0  0  0  0
   -4.7162   -1.1806   -0.3300 C   0  0  0  0  0  0  0  0  0  0  0  0
   -3.8140   -0.6922   -1.4136 C   0  0  0  0  0  0  0  0  0  0  0  0
   -2.5169   -0.1436   -1.0079 C   0  0  2  0  0  0  0  0  0  0  0  0
   -0.9514   -0.7831   -1.3226 S   0  0  0  0  0  0  0  0  0  0  0  0
    0.3434   -1.5220   -2.4916 O   0  0  0  0  0  0  0  0  0  0  0  0
   -1.3153   -2.4527   -0.9082 O   0  0  0  0  0  0  0  0  0  0  0  0
    0.3491    0.6402   -1.1295 N   0  0  0  0  0  0  0  0  0  0  0  0
    0.0399    1.8575   -1.6395 C   0  0  0  0  0  0  0  0  0  0  0  0
    6.3905    0.7537    0.5187 H   0  0  0  0  0  0  0  0  0  0  0  0
    6.7477   -0.2069    1.9923 H   0  0  0  0  0  0  0  0  0  0  0  0
    6.5436    1.5954    2.0680 H   0  0  0  0  0  0  0  0  0  0  0  0
    4.4132    0.3408    2.8492 H   0  0  0  0  0  0  0  0  0  0  0  0
    4.1869   -1.5651    1.3619 H   0  0  0  0  0  0  0  0  0  0  0  0
    4.8210   -0.6431   -0.0211 H   0  0  0  0  0  0  0  0  0  0  0  0
    2.5083   -1.0247   -0.0474 H   0  0  0  0  0  0  0  0  0  0  0  0
    3.3619    0.9833   -1.0565 H   0  0  0  0  0  0  0  0  0  0  0  0
    1.4454    2.5461    0.2306 H   0  0  0  0  0  0  0  0  0  0  0  0
   -0.2678    2.0083   -1.1056 H   0  0  0  0  0  0  0  0  0  0  0  0
    1.7161    2.1979   -2.3917 H   0  0  0  0  0  0  0  0  0  0  0  0
    0.7190   -0.8555   -1.4095 H   0  0  0  0  0  0  0  0  0  0  0  0
    0.1300    0.2096    1.0343 H   0  0  0  0  0  0  0  0  0  0  0  0
    0.0839   -1.8099    1.6751 H   0  0  0  0  0  0  0  0  0  0  0  0
   -2.0906   -1.0993    1.5415 H   0  0  0  0  0  0  0  0  0  0  0  0
   -1.4915    1.8225    1.2266 H   0  0  0  0  0  0  0  0  0  0  0  0
   -1.8545    0.8394    2.6627 H   0  0  0  0  0  0  0  0  0  0  0  0
   -3.8439    1.9224    2.4562 H   0  0  0  0  0  0  0  0  0  0  0  0
   -3.8294    2.0396    0.6897 H   0  0  0  0  0  0  0  0  0  0  0  0
   -5.5215    0.5423    1.3666 H   0  0  0  0  0  0  0  0  0  0  0  0
   -4.4866   -0.3568    2.5108 H   0  0  0  0  0  0  0  0  0  0  0  0
   -5.0559   -0.8559   -0.3359 H   0  0  0  0  0  0  0  0  0  0  0  0
   -4.0806   -1.8316    0.7903 H   0  0  0  0  0  0  0  0  0  0  0  0
   -3.0944    0.6725   -0.6369 H   0  0  0  0  0  0  0  0  0  0  0  0
   -2.2609   -3.2926   -0.4903 H   0  0  0  0  0  0  0  0  0  0  0  0
   -2.8576   -1.8992   -3.5948 H   0  0  0  0  0  0  0  0  0  0  0  0
    0.5364   -0.6551   -3.3428 H   0  0  0  0  0  0  0  0  0  0  0  0
   -0.9814   -0.0739   -4.1317 H   0  0  0  0  0  0  0  0  0  0  0  0
   -0.8321   -1.7746   -3.4102 H   0  0  0  0  0  0  0  0  0  0  0  0
    6.5978   -0.1921    0.7717 H   0  0  0  0  0  0  0  0  0  0  0  0
    7.1584   -0.3927   -0.8987 H   0  0  0  0  0  0  0  0  0  0  0  0
    6.2420   -1.7066   -0.1439 H   0  0  0  0  0  0  0  0  0  0  0  0
    5.0416    0.3188   -1.7767 H   0  0  0  0  0  0  0  0  0  0  0  0
    3.7860    1.7489   -0.3595 H   0  0  0  0  0  0  0  0  0  0  0  0
    5.4661    1.7715    0.3596 H   0  0  0  0  0  0  0  0  0  0  0  0
    3.7995    1.3678    1.9941 H   0  0  0  0  0  0  0  0  0  0  0  0
    3.0525   -1.1059    1.9169 H   0  0  0  0  0  0  0  0  0  0  0  0
    1.7170    1.1937    1.7186 H   0  0  0  0  0  0  0  0  0  0  0  0
    1.0555   -1.3604    0.3587 H   0  0  0  0  0  0  0  0  0  0  0  0
    0.5746   -0.4349    2.7712 H   0  0  0  0  0  0  0  0  0  0  0  0
   -1.7181    1.8669    0.2477 H   0  0  0  0  0  0  0  0  0  0  0  0
   -1.7478    0.4914    2.6031 H   0  0  0  0  0  0  0  0  0  0  0  0
   -2.3629   -1.0436    0.9828 H   0  0  0  0  0  0  0  0  0  0  0  0
   -3.7144    0.6926    2.0731 H   0  0  0  0  0  0  0  0  0  0  0  0
   -3.7397    1.6706    0.5231 H   0  0  0  0  0  0  0  0  0  0  0  0
   -5.7284    0.7029    0.0587 H   0  0  0  0  0  0  0  0  0  0  0  0
   -5.6108   -0.4191    1.4331 H   0  0  0  0  0  0  0  0  0  0  0  0
   -5.6703   -1.4952   -0.8099 H   0  0  0  0  0  0  0  0  0  0  0  0
   -4.3163   -2.0221    0.2490 H   0  0  0  0  0  0  0  0  0  0  0  0
   -4.4354   -0.0522   -2.1052 H   0  0  0  0  0  0  0  0  0  0  0  0
   -3.6031   -1.5992   -2.0563 H   0  0  0  0  0  0  0  0  0  0  0  0
   -2.6760    0.9704   -1.1632 H   0  0  0  0  0  0  0  0  0  0  0  0
   -1.3024   -0.4917   -3.1729 H   0  0  0  0  0  0  0  0  0  0  0  0
    1.0481   -1.9121   -2.0269 H   0  0  0  0  0  0  0  0  0  0  0  0
   -1.0213   -2.7712   -0.0984 H   0  0  0  0  0  0  0  0  0  0  0  0
    0.1062    2.6763   -0.8757 H   0  0  0  0  0  0  0  0  0  0  0  0
    0.6664    2.1690   -2.5022 H   0  0  0  0  0  0  0  0  0  0  0  0
   -1.0188    1.9748   -2.0315 H   0  0  0  0  0  0  0  0  0  0  0  0
  1  2  1  0
  2  3  1  0
  2  4  1  0
  4  5  1  0
  3  6  1  0
  5  6  1  0
  6  7  1  0
  7  8  1  0
  8  9  1  0
  8 10  1  0
 10 11  1  0
 11 12  1  0
 11 13  1  0
 13 14  1  0
 14 15  1  0
 15 16  1  0
 16 17  1  0
 13 18  1  0
 17 18  1  0
 18 19  1  0
 19 20  1  0
 19 21  1  0
 10 22  1  0
 19 22  1  0
 22 23  1  0
 24 25  1  0
 25 26  1  0
 25 27  1  0
 27 28  1  0
 26 29  1  0
 28 29  1  0
 29 30  1  0
 30 31  1  0
 31 32  1  0
 31 33  1  0
 33 34  1  0
 34 35  1  0
 34 36  1  0
 36 37  1  0
 37 38  1  0
 38 39  1  0
 39 40  1  0
 36 41  1  0
 40 41  1  0
 41 42  1  0
 42 33  1  0
 42 43  1  0
 42 44  1  0
 33 45  1  6
 42 45  1  0
 45 46  1  0
  1 47  1  0
  1 48  1  0
  1 49  1  0
  2 50  1  0
  4 51  1  0
  4 52  1  0
  5 53  1  0
  6 54  1  0
  7 55  1  0
  8 56  1  6
  9 57  1  0
 10 58  1  6
 11 59  1  1
 12 60  1  0
 13 61  1  1
 14 62  1  0
 14 63  1  0
 15 64  1  0
 15 65  1  0
 16 66  1  0
 16 67  1  0
 17 68  1  0
 17 69  1  0
 18 70  1  6
 20 71  1  0
 21 72  1  0
 23 73  1  0
 23 74  1  0
 23 75  1  0
 24 76  1  0
 24 77  1  0
 24 78  1  0
 25 79  1  0
 27 80  1  0
 27 81  1  0
 28 82  1  0
 29 83  1  1
 30 84  1  0
 31 85  1  6
 32 86  1  0
 34 87  1  6
 35 88  1  0
 36 89  1  1
 37 90  1  0
 37 91  1  0
 38 92  1  0
 38 93  1  0
 39 94  1  0
 39 95  1  0
 40 96  1  0
 40 97  1  0
 41 98  1  6
 42 99  1  0
 43100  1  0
 44101  1  0
 46102  1  0
 46103  1  0
 46104  1  0
M  END
>  <PDBID>  (1) 
4O1Z

>  <PDB ID>  (1) 
4O1Z

>  <Generic Name>  (1) 
Meloxicam

>  <Brand Name>  (1) 
Act Meloxicam#Apo-meloxicam#Auro-meloxicam#Ava-meloxicam#Comfort Pac With Meloxicam#Dom-meloxicam#Meloxicam#Mobic#Mobicox#Mylan-meloxicam#Nu-meloxicam#PHL-meloxicam#PMS-meloxicam#Ratio-meloxicam#Teva-meloxicam#Trepoxicam-7.5#Vivlodex#Achefree#Acticam#Aflamid#Afloxx#Aglan#Ainecox#Aldoron#Alentum#Algiflex#Aliviodol#Anaxicam#Anposel#Antrend#Aponip#Areloger#Aremil#Armex#Arrox#Arsitec#Artex#Arthrobic#Arthrox#Articam#Artipro#Artriclox#Artrifilm#Artriflam#Artrilom#Artrilox#Artrox#Aspicam#Atiflam#Atrozan#Auroxicam#Axius

>  <DrugBank ID>  (1) 
DB00814

>  <ATC Codes>  (1) 
M01AC56#M01AC06

>  <Ligand ID>  (1) 
MXM

>  <Target Name>  (1) 
Prostaglandin G/H synthase 2

>  <UniProt ID>  (1) 
P35354

>  <PDB ID.1>  (1) 
4O1Z

>  <Seq. Identity>  (1) 
61%

$$$$
