PDB_DB09034_07
     RDKit          3D

 75 79  0  0  0  0  0  0  0  0999 V2000
    3.2599    0.9617    0.2349 C   0  0  0  0  0  0  0  0  0  0  0  0
    2.5165   -0.0587    0.8706 N   0  0  0  0  0  0  0  0  0  0  0  0
    4.0505    0.3345   -0.7405 O   0  0  0  0  0  0  0  0  0  0  0  0
    9.3770    0.8436    1.2805 Cl  0  0  0  0  0  0  0  0  0  0  0  0
    4.2344    1.5943    1.1493 N   0  0  0  0  0  0  0  0  0  0  0  0
   -0.9748    0.4747   -2.0348 O   0  0  0  0  0  0  0  0  0  0  0  0
    5.4851    1.5840    0.4158 C   0  0  0  0  0  0  0  0  0  0  0  0
   -0.5983   -0.2086    0.1814 N   0  0  0  0  0  0  0  0  0  0  0  0
    6.7089    1.4499    1.2548 C   0  0  0  0  0  0  0  0  0  0  0  0
   -3.8458    1.0102    1.2058 N   0  0  0  0  0  0  0  0  0  0  0  0
    7.8904    1.1789    0.3545 C   0  0  0  0  0  0  0  0  0  0  0  0
   -4.2618    0.7716    2.5106 N   0  0  0  0  0  0  0  0  0  0  0  0
    7.6894    0.0134   -0.5812 C   0  0  0  0  0  0  0  0  0  0  0  0
   -4.8017    1.7873    0.5847 N   0  0  0  0  0  0  0  0  0  0  0  0
    6.3745    0.1349   -1.3257 C   0  0  0  0  0  0  0  0  0  0  0  0
    5.3080    0.2161   -0.2654 C   0  0  0  0  0  0  0  0  0  0  0  0
    1.3733    0.2924    1.6233 C   0  0  0  0  0  0  0  0  0  0  0  0
    0.2215    0.7713    0.7742 C   0  0  0  0  0  0  0  0  0  0  0  0
   -0.0415   -1.4553   -0.2001 C   0  0  1  0  0  0  0  0  0  0  0  0
    1.3372   -1.4269   -0.7769 C   0  0  0  0  0  0  0  0  0  0  0  0
    2.4389   -1.3187    0.2283 C   0  0  0  0  0  0  0  0  0  0  0  0
   -1.4867    0.4231   -0.7492 C   0  0  0  0  0  0  0  0  0  0  0  0
   -2.8922   -0.0899   -0.7871 C   0  0  0  0  0  0  0  0  0  0  0  0
   -3.5183   -0.2221    0.5605 C   0  0  0  0  0  0  0  0  0  0  0  0
   -4.6291   -1.2527    0.5760 C   0  0  0  0  0  0  0  0  0  0  0  0
   -5.3841   -1.3710   -0.7003 C   0  0  0  0  0  0  0  0  0  0  0  0
   -4.5801   -1.3854   -1.9504 C   0  0  0  0  0  0  0  0  0  0  0  0
   -3.0934   -1.3715   -1.5385 C   0  0  0  0  0  0  0  0  0  0  0  0
   -5.5952    1.2322    2.6856 C   0  0  0  0  0  0  0  0  0  0  0  0
   -6.0086    1.7798    1.3378 C   0  0  0  0  0  0  0  0  0  0  0  0
   -4.8609   -0.2719   -2.9046 C   0  0  0  0  0  0  0  0  0  0  0  0
   -0.2307   -2.5013    0.8702 C   0  0  0  0  0  0  0  0  0  0  0  0
    2.7102    1.7664   -0.2422 H   0  0  0  0  0  0  0  0  0  0  0  0
    3.9915    2.6121    1.3038 H   0  0  0  0  0  0  0  0  0  0  0  0
   -0.6850    1.3561   -2.3378 H   0  0  0  0  0  0  0  0  0  0  0  0
    5.5347    2.3987   -0.3279 H   0  0  0  0  0  0  0  0  0  0  0  0
    6.5776    0.5451    1.8992 H   0  0  0  0  0  0  0  0  0  0  0  0
    6.9685    2.3511    1.8395 H   0  0  0  0  0  0  0  0  0  0  0  0
    8.0171    2.0775   -0.3132 H   0  0  0  0  0  0  0  0  0  0  0  0
   -4.0869   -0.2110    2.8005 H   0  0  0  0  0  0  0  0  0  0  0  0
    7.5696   -0.9037    0.0663 H   0  0  0  0  0  0  0  0  0  0  0  0
    8.5500   -0.0473   -1.2481 H   0  0  0  0  0  0  0  0  0  0  0  0
   -4.9488    1.6541   -0.4123 H   0  0  0  0  0  0  0  0  0  0  0  0
    6.3423    1.0730   -1.8948 H   0  0  0  0  0  0  0  0  0  0  0  0
    6.2377   -0.7292   -1.9909 H   0  0  0  0  0  0  0  0  0  0  0  0
    5.4780   -0.5298    0.5131 H   0  0  0  0  0  0  0  0  0  0  0  0
    1.0242   -0.6043    2.1733 H   0  0  0  0  0  0  0  0  0  0  0  0
    1.6423    1.0372    2.4277 H   0  0  0  0  0  0  0  0  0  0  0  0
    0.5706    1.4527   -0.0402 H   0  0  0  0  0  0  0  0  0  0  0  0
   -0.4078    1.4280    1.4227 H   0  0  0  0  0  0  0  0  0  0  0  0
   -0.6637   -1.8410   -1.0664 H   0  0  0  0  0  0  0  0  0  0  0  0
    1.4222   -0.5595   -1.4427 H   0  0  0  0  0  0  0  0  0  0  0  0
    1.5134   -2.3357   -1.3878 H   0  0  0  0  0  0  0  0  0  0  0  0
    3.3906   -1.4469   -0.3743 H   0  0  0  0  0  0  0  0  0  0  0  0
    2.4962   -2.1058    0.9761 H   0  0  0  0  0  0  0  0  0  0  0  0
   -1.5884    1.5422   -0.4641 H   0  0  0  0  0  0  0  0  0  0  0  0
   -3.4609    0.6995   -1.3826 H   0  0  0  0  0  0  0  0  0  0  0  0
   -2.7160   -0.6801    1.2232 H   0  0  0  0  0  0  0  0  0  0  0  0
   -4.2399   -2.2674    0.8701 H   0  0  0  0  0  0  0  0  0  0  0  0
   -5.3354   -0.9491    1.3702 H   0  0  0  0  0  0  0  0  0  0  0  0
   -6.2186   -0.6129   -0.7928 H   0  0  0  0  0  0  0  0  0  0  0  0
   -5.9361   -2.3574   -0.6570 H   0  0  0  0  0  0  0  0  0  0  0  0
   -4.6730   -2.3433   -2.5375 H   0  0  0  0  0  0  0  0  0  0  0  0
   -2.4993   -1.4436   -2.4738 H   0  0  0  0  0  0  0  0  0  0  0  0
   -3.0031   -2.2890   -0.9047 H   0  0  0  0  0  0  0  0  0  0  0  0
   -6.3166    0.4648    3.0183 H   0  0  0  0  0  0  0  0  0  0  0  0
   -5.6795    2.0693    3.4298 H   0  0  0  0  0  0  0  0  0  0  0  0
   -6.3747    2.8402    1.4343 H   0  0  0  0  0  0  0  0  0  0  0  0
   -6.8338    1.2255    0.8769 H   0  0  0  0  0  0  0  0  0  0  0  0
   -3.9265    0.2042   -3.3058 H   0  0  0  0  0  0  0  0  0  0  0  0
   -5.5254    0.5065   -2.4521 H   0  0  0  0  0  0  0  0  0  0  0  0
   -5.3968   -0.6382   -3.8152 H   0  0  0  0  0  0  0  0  0  0  0  0
    0.6694   -2.8773    1.3405 H   0  0  0  0  0  0  0  0  0  0  0  0
   -0.8443   -2.0630    1.7077 H   0  0  0  0  0  0  0  0  0  0  0  0
   -0.8079   -3.3887    0.5364 H   0  0  0  0  0  0  0  0  0  0  0  0
  1  2  1  0
  1  3  1  0
  1  5  1  0
  5  7  1  0
  7  9  1  0
  4 11  1  0
  9 11  1  0
 10 12  1  0
 11 13  1  0
 10 14  1  0
 13 15  1  0
  3 16  1  0
  7 16  1  0
 15 16  1  0
  2 17  1  0
  8 18  1  0
 17 18  1  0
  8 19  1  0
 19 20  1  0
  2 21  1  0
 20 21  1  0
  6 22  1  0
  8 22  1  0
 22 23  1  0
 10 24  1  0
 23 24  1  0
 24 25  1  0
 25 26  1  0
 26 27  1  0
 23 28  1  0
 27 28  1  0
 12 29  1  0
 14 30  1  0
 29 30  1  0
 27 31  1  0
 19 32  1  0
  1 33  1  0
  5 34  1  0
  6 35  1  0
  7 36  1  0
  9 37  1  0
  9 38  1  0
 11 39  1  0
 12 40  1  0
 13 41  1  0
 13 42  1  0
 14 43  1  0
 15 44  1  0
 15 45  1  0
 16 46  1  0
 17 47  1  0
 17 48  1  0
 18 49  1  0
 18 50  1  0
 19 51  1  6
 20 52  1  0
 20 53  1  0
 21 54  1  0
 21 55  1  0
 22 56  1  0
 23 57  1  0
 24 58  1  0
 25 59  1  0
 25 60  1  0
 26 61  1  0
 26 62  1  0
 27 63  1  0
 28 64  1  0
 28 65  1  0
 29 66  1  0
 29 67  1  0
 30 68  1  0
 30 69  1  0
 31 70  1  0
 31 71  1  0
 31 72  1  0
 32 73  1  0
 32 74  1  0
 32 75  1  0
M  END
>  <PDBID>  (1) 
4ZJ8

>  <PDB ID>  (1) 
4ZJ8

>  <Generic Name>  (1) 
Suvorexant

>  <Brand Name>  (1) 
Belsomra

>  <DrugBank ID>  (1) 
DB09034

>  <ATC Codes>  (1) 
nan

>  <Ligand ID>  (1) 
SUV

>  <Target Name>  (1) 
Orexin receptor type 1

>  <UniProt ID>  (1) 
O43613

>  <PDB ID.1>  (1) 
4ZJ8

>  <Seq. Identity>  (1) 
85%

$$$$
