PDB_DB03849_01
     RDKit          3D

124128  0  0  0  0  0  0  0  0999 V2000
    6.3070    1.7437    0.4871 O   0  0  0  0  0  0  0  0  0  0  0  0
    5.5468    1.3612   -0.6406 C   0  0  0  0  0  0  0  0  0  0  0  0
    5.7772    2.3125   -1.6154 O   0  0  0  0  0  0  0  0  0  0  0  0
    4.0857    1.2827   -0.2501 C   0  0  0  0  0  0  0  0  0  0  0  0
    3.9177    0.2740    0.8349 C   0  0  0  0  0  0  0  0  0  0  0  0
    2.4786   -0.1038    1.0829 C   0  0  0  0  0  0  0  0  0  0  0  0
    3.2957    0.9805   -1.4965 C   0  0  0  0  0  0  0  0  0  0  0  0
    1.8946    0.5187   -1.1941 C   0  0  0  0  0  0  0  0  0  0  0  0
    1.8590   -0.6044   -0.1792 C   0  0  0  0  0  0  0  0  0  0  0  0
    2.6546   -1.7747   -0.7452 C   0  0  0  0  0  0  0  0  0  0  0  0
    2.0640   -2.2708   -1.9678 N   0  0  0  0  0  0  0  0  0  0  0  0
    0.4391   -1.0465   -0.0499 C   0  0  0  0  0  0  0  0  0  0  0  0
    0.2558   -2.1585    0.9296 C   0  0  0  0  0  0  0  0  0  0  0  0
   -1.1635   -2.5708    1.0960 C   0  0  0  0  0  0  0  0  0  0  0  0
   -2.1614   -1.7250    0.3847 C   0  0  0  0  0  0  0  0  0  0  0  0
   -2.2347   -1.9351   -0.9745 O   0  0  0  0  0  0  0  0  0  0  0  0
   -3.5241   -2.2865   -1.3254 C   0  0  0  0  0  0  0  0  0  0  0  0
   -1.8166   -0.2675    0.7143 C   0  0  0  0  0  0  0  0  0  0  0  0
   -0.4902    0.1217    0.1571 C   0  0  0  0  0  0  0  0  0  0  0  0
   -2.8753    0.4861    0.2883 O   0  0  0  0  0  0  0  0  0  0  0  0
   -3.5974    1.0962    1.2934 C   0  0  0  0  0  0  0  0  0  0  0  0
   -3.4454    2.5935    1.0795 C   0  0  0  0  0  0  0  0  0  0  0  0
   -4.6170    2.9996    0.2060 C   0  0  0  0  0  0  0  0  0  0  0  0
   -5.4901    1.7831    0.0524 C   0  0  0  0  0  0  0  0  0  0  0  0
   -5.0751    0.9134    1.1920 C   0  0  0  0  0  0  0  0  0  0  0  0
    6.3070    1.7437    0.4871 O   0  0  0  0  0  0  0  0  0  0  0  0
    5.5468    1.3612   -0.6406 C   0  0  0  0  0  0  0  0  0  0  0  0
    5.7772    2.3125   -1.6154 O   0  0  0  0  0  0  0  0  0  0  0  0
    4.0857    1.2827   -0.2501 C   0  0  0  0  0  0  0  0  0  0  0  0
    3.9177    0.2740    0.8349 C   0  0  0  0  0  0  0  0  0  0  0  0
    2.4786   -0.1038    1.0829 C   0  0  0  0  0  0  0  0  0  0  0  0
    3.2957    0.9805   -1.4965 C   0  0  0  0  0  0  0  0  0  0  0  0
    1.8946    0.5187   -1.1941 C   0  0  0  0  0  0  0  0  0  0  0  0
    1.8590   -0.6044   -0.1792 C   0  0  0  0  0  0  0  0  0  0  0  0
    2.6546   -1.7747   -0.7452 C   0  0  0  0  0  0  0  0  0  0  0  0
    2.0640   -2.2708   -1.9678 N   0  0  0  0  0  0  0  0  0  0  0  0
    0.4391   -1.0465   -0.0499 C   0  0  0  0  0  0  0  0  0  0  0  0
    0.2558   -2.1585    0.9296 C   0  0  0  0  0  0  0  0  0  0  0  0
   -1.1635   -2.5708    1.0960 C   0  0  0  0  0  0  0  0  0  0  0  0
   -2.1614   -1.7250    0.3847 C   0  0  0  0  0  0  0  0  0  0  0  0
   -2.2347   -1.9351   -0.9745 O   0  0  0  0  0  0  0  0  0  0  0  0
   -3.5241   -2.2865   -1.3254 C   0  0  0  0  0  0  0  0  0  0  0  0
   -1.8166   -0.2675    0.7143 C   0  0  0  0  0  0  0  0  0  0  0  0
   -0.4902    0.1217    0.1571 C   0  0  0  0  0  0  0  0  0  0  0  0
   -2.8753    0.4861    0.2883 O   0  0  0  0  0  0  0  0  0  0  0  0
   -3.5974    1.0962    1.2934 C   0  0  0  0  0  0  0  0  0  0  0  0
   -3.4454    2.5935    1.0795 C   0  0  0  0  0  0  0  0  0  0  0  0
   -4.6170    2.9996    0.2060 C   0  0  0  0  0  0  0  0  0  0  0  0
   -5.4901    1.7831    0.0524 C   0  0  0  0  0  0  0  0  0  0  0  0
   -5.0751    0.9134    1.1920 C   0  0  0  0  0  0  0  0  0  0  0  0
    6.3805    0.9540    1.0809 H   0  0  0  0  0  0  0  0  0  0  0  0
    5.9473    0.3574   -0.9227 H   0  0  0  0  0  0  0  0  0  0  0  0
    5.4029    2.0285   -2.4980 H   0  0  0  0  0  0  0  0  0  0  0  0
    3.8258    2.2877    0.1742 H   0  0  0  0  0  0  0  0  0  0  0  0
    4.2739    0.7607    1.7905 H   0  0  0  0  0  0  0  0  0  0  0  0
    4.5832   -0.5824    0.6776 H   0  0  0  0  0  0  0  0  0  0  0  0
    1.9601    0.8008    1.4208 H   0  0  0  0  0  0  0  0  0  0  0  0
    2.5029   -0.9046    1.8766 H   0  0  0  0  0  0  0  0  0  0  0  0
    3.8661    0.2809   -2.1226 H   0  0  0  0  0  0  0  0  0  0  0  0
    3.2098    1.9299   -2.0666 H   0  0  0  0  0  0  0  0  0  0  0  0
    1.3251    1.3894   -0.8361 H   0  0  0  0  0  0  0  0  0  0  0  0
    1.4705    0.1038   -2.1376 H   0  0  0  0  0  0  0  0  0  0  0  0
    2.7074   -2.6289   -0.0418 H   0  0  0  0  0  0  0  0  0  0  0  0
    3.7141   -1.4809   -0.9337 H   0  0  0  0  0  0  0  0  0  0  0  0
    2.3564   -1.7372   -2.8034 H   0  0  0  0  0  0  0  0  0  0  0  0
    2.3015   -3.3004   -2.0694 H   0  0  0  0  0  0  0  0  0  0  0  0
    0.1573   -1.4742   -1.0593 H   0  0  0  0  0  0  0  0  0  0  0  0
    0.7978   -3.0525    0.5045 H   0  0  0  0  0  0  0  0  0  0  0  0
    0.7078   -1.9623    1.9171 H   0  0  0  0  0  0  0  0  0  0  0  0
   -1.4476   -2.5638    2.1901 H   0  0  0  0  0  0  0  0  0  0  0  0
   -1.3597   -3.6392    0.7865 H   0  0  0  0  0  0  0  0  0  0  0  0
   -3.1634   -1.8906    0.8729 H   0  0  0  0  0  0  0  0  0  0  0  0
   -3.7823   -3.2173   -0.7813 H   0  0  0  0  0  0  0  0  0  0  0  0
   -4.2415   -1.4631   -1.1218 H   0  0  0  0  0  0  0  0  0  0  0  0
   -3.5187   -2.4698   -2.4332 H   0  0  0  0  0  0  0  0  0  0  0  0
   -1.7085   -0.2646    1.8393 H   0  0  0  0  0  0  0  0  0  0  0  0
   -0.6883    0.6035   -0.8451 H   0  0  0  0  0  0  0  0  0  0  0  0
    0.0114    0.8429    0.8414 H   0  0  0  0  0  0  0  0  0  0  0  0
   -3.2003    0.8769    2.3083 H   0  0  0  0  0  0  0  0  0  0  0  0
   -2.5155    2.8472    0.5294 H   0  0  0  0  0  0  0  0  0  0  0  0
   -3.5166    3.1486    2.0372 H   0  0  0  0  0  0  0  0  0  0  0  0
   -4.3024    3.4420   -0.7540 H   0  0  0  0  0  0  0  0  0  0  0  0
   -5.2433    3.7773    0.7247 H   0  0  0  0  0  0  0  0  0  0  0  0
   -5.3863    1.2910   -0.9364 H   0  0  0  0  0  0  0  0  0  0  0  0
   -6.5829    2.0265    0.1929 H   0  0  0  0  0  0  0  0  0  0  0  0
   -5.4024   -0.1377    1.1040 H   0  0  0  0  0  0  0  0  0  0  0  0
   -5.5271    1.2974    2.1344 H   0  0  0  0  0  0  0  0  0  0  0  0
    6.3805    0.9540    1.0809 H   0  0  0  0  0  0  0  0  0  0  0  0
    5.9473    0.3574   -0.9227 H   0  0  0  0  0  0  0  0  0  0  0  0
    5.4029    2.0285   -2.4980 H   0  0  0  0  0  0  0  0  0  0  0  0
    3.8258    2.2877    0.1742 H   0  0  0  0  0  0  0  0  0  0  0  0
    4.2739    0.7607    1.7905 H   0  0  0  0  0  0  0  0  0  0  0  0
    4.5832   -0.5824    0.6776 H   0  0  0  0  0  0  0  0  0  0  0  0
    1.9601    0.8008    1.4208 H   0  0  0  0  0  0  0  0  0  0  0  0
    2.5029   -0.9046    1.8766 H   0  0  0  0  0  0  0  0  0  0  0  0
    3.8661    0.2809   -2.1226 H   0  0  0  0  0  0  0  0  0  0  0  0
    3.2098    1.9299   -2.0666 H   0  0  0  0  0  0  0  0  0  0  0  0
    1.3251    1.3894   -0.8361 H   0  0  0  0  0  0  0  0  0  0  0  0
    1.4705    0.1038   -2.1376 H   0  0  0  0  0  0  0  0  0  0  0  0
    2.7074   -2.6289   -0.0418 H   0  0  0  0  0  0  0  0  0  0  0  0
    3.7141   -1.4809   -0.9337 H   0  0  0  0  0  0  0  0  0  0  0  0
    2.3564   -1.7372   -2.8034 H   0  0  0  0  0  0  0  0  0  0  0  0
    2.3015   -3.3004   -2.0694 H   0  0  0  0  0  0  0  0  0  0  0  0
    0.1573   -1.4742   -1.0593 H   0  0  0  0  0  0  0  0  0  0  0  0
    0.7978   -3.0525    0.5045 H   0  0  0  0  0  0  0  0  0  0  0  0
    0.7078   -1.9623    1.9171 H   0  0  0  0  0  0  0  0  0  0  0  0
   -1.4476   -2.5638    2.1901 H   0  0  0  0  0  0  0  0  0  0  0  0
   -1.3597   -3.6392    0.7865 H   0  0  0  0  0  0  0  0  0  0  0  0
   -3.1634   -1.8906    0.8729 H   0  0  0  0  0  0  0  0  0  0  0  0
   -3.7823   -3.2173   -0.7813 H   0  0  0  0  0  0  0  0  0  0  0  0
   -4.2415   -1.4631   -1.1218 H   0  0  0  0  0  0  0  0  0  0  0  0
   -3.5187   -2.4698   -2.4332 H   0  0  0  0  0  0  0  0  0  0  0  0
   -1.7085   -0.2646    1.8393 H   0  0  0  0  0  0  0  0  0  0  0  0
   -0.6883    0.6035   -0.8451 H   0  0  0  0  0  0  0  0  0  0  0  0
    0.0114    0.8429    0.8414 H   0  0  0  0  0  0  0  0  0  0  0  0
   -3.2003    0.8769    2.3083 H   0  0  0  0  0  0  0  0  0  0  0  0
   -2.5155    2.8472    0.5294 H   0  0  0  0  0  0  0  0  0  0  0  0
   -3.5166    3.1486    2.0372 H   0  0  0  0  0  0  0  0  0  0  0  0
   -4.3024    3.4420   -0.7540 H   0  0  0  0  0  0  0  0  0  0  0  0
   -5.2433    3.7773    0.7247 H   0  0  0  0  0  0  0  0  0  0  0  0
   -5.3863    1.2910   -0.9364 H   0  0  0  0  0  0  0  0  0  0  0  0
   -6.5829    2.0265    0.1929 H   0  0  0  0  0  0  0  0  0  0  0  0
   -5.4024   -0.1377    1.1040 H   0  0  0  0  0  0  0  0  0  0  0  0
   -5.5271    1.2974    2.1344 H   0  0  0  0  0  0  0  0  0  0  0  0
  1  2  1  0
  2  3  1  0
  2  4  1  0
  4  5  1  0
  5  6  1  0
  4  7  1  0
  7  8  1  0
  6  9  1  0
  8  9  1  0
  9 10  1  0
 10 11  1  0
  9 12  1  0
 12 13  1  0
 13 14  1  0
 14 15  1  0
 15 16  1  0
 16 17  1  0
 15 18  1  0
 12 19  1  0
 18 19  1  0
 18 20  1  0
 20 21  1  0
 21 22  1  0
 22 23  1  0
 23 24  1  0
 21 25  1  0
 24 25  1  0
 26 27  1  0
 27 28  1  0
 27 29  1  0
 29 30  1  0
 30 31  1  0
 29 32  1  0
 32 33  1  0
 31 34  1  0
 33 34  1  0
 34 35  1  0
 35 36  1  0
 34 37  1  0
 37 38  1  0
 38 39  1  0
 39 40  1  0
 40 41  1  0
 41 42  1  0
 40 43  1  0
 37 44  1  0
 43 44  1  0
 43 45  1  0
 45 46  1  0
 46 47  1  0
 47 48  1  0
 48 49  1  0
 46 50  1  0
 49 50  1  0
  1 51  1  0
  2 52  1  0
  3 53  1  0
  4 54  1  0
  5 55  1  0
  5 56  1  0
  6 57  1  0
  6 58  1  0
  7 59  1  0
  7 60  1  0
  8 61  1  0
  8 62  1  0
 10 63  1  0
 10 64  1  0
 11 65  1  0
 11 66  1  0
 12 67  1  0
 13 68  1  0
 13 69  1  0
 14 70  1  0
 14 71  1  0
 15 72  1  0
 17 73  1  0
 17 74  1  0
 17 75  1  0
 18 76  1  0
 19 77  1  0
 19 78  1  0
 21 79  1  0
 22 80  1  0
 22 81  1  0
 23 82  1  0
 23 83  1  0
 24 84  1  0
 24 85  1  0
 25 86  1  0
 25 87  1  0
 26 88  1  0
 27 89  1  0
 28 90  1  0
 29 91  1  0
 30 92  1  0
 30 93  1  0
 31 94  1  0
 31 95  1  0
 32 96  1  0
 32 97  1  0
 33 98  1  0
 33 99  1  0
 35100  1  0
 35101  1  0
 36102  1  0
 36103  1  0
 37104  1  0
 38105  1  0
 38106  1  0
 39107  1  0
 39108  1  0
 40109  1  0
 42110  1  0
 42111  1  0
 42112  1  0
 43113  1  0
 44114  1  0
 44115  1  0
 46116  1  0
 47117  1  0
 47118  1  0
 48119  1  0
 48120  1  0
 49121  1  0
 49122  1  0
 50123  1  0
 50124  1  0
M  END
>  <PDBID>  (1) 
1XLX

>  <PDB ID>  (1) 
1XLX

>  <Generic Name>  (1) 
Cilomilast

>  <Brand Name>  (1) 
nan

>  <DrugBank ID>  (1) 
DB03849

>  <ATC Codes>  (1) 
nan

>  <Ligand ID>  (1) 
CIO

>  <Target Name>  (1) 
cAMP-specific 3',5'-cyclic phosphodiesterase 4B

>  <UniProt ID>  (1) 
Q07343

>  <PDB ID.1>  (1) 
1XLX

>  <Seq. Identity>  (1) 
97%

$$$$
