PDB_DB01586_08
     RDKit          3D

140146  0  0  0  0  0  0  0  0999 V2000
   -3.7156   -0.6732    1.5821 C   0  0  0  0  0  0  0  0  0  0  0  0
   -3.1809   -0.4552    0.1916 C   0  0  1  0  0  0  0  0  0  0  0  0
   -0.9687   -1.0502    1.1861 C   0  0  0  0  0  0  0  0  0  0  0  0
    0.4611   -0.5467    1.3067 C   0  0  0  0  0  0  0  0  0  0  0  0
    1.0886   -0.6456   -0.0455 C   0  0  1  0  0  0  0  0  0  0  0  0
    0.3112    0.3589   -0.9116 C   0  0  1  0  0  0  0  0  0  0  0  0
    1.1352    0.4165   -2.1328 C   0  0  0  0  0  0  0  0  0  0  0  0
    2.5277    0.5373   -1.5475 C   0  0  0  0  0  0  0  0  0  0  0  0
    2.4538   -0.0206   -0.1381 C   0  0  2  0  0  0  0  0  0  0  0  0
    0.9924   -2.0366   -0.5554 C   0  0  0  0  0  0  0  0  0  0  0  0
   -3.3835   -1.7409   -0.5827 C   0  0  0  0  0  0  0  0  0  0  0  0
   -2.3223    0.8016   -3.0166 O   0  0  0  0  0  0  0  0  0  0  0  0
   -6.7568    1.0620    1.8218 O   0  0  0  0  0  0  0  0  0  0  0  0
   -5.2277   -0.7956    1.6050 C   0  0  0  0  0  0  0  0  0  0  0  0
    3.5974   -0.9157    0.0673 C   0  0  2  0  0  0  0  0  0  0  0  0
    3.6658   -1.6166    1.3923 C   0  0  0  0  0  0  0  0  0  0  0  0
    4.8814   -0.1434   -0.1557 C   0  0  0  0  0  0  0  0  0  0  0  0
    5.0487    1.0271    0.7749 C   0  0  0  0  0  0  0  0  0  0  0  0
    6.3651    1.7268    0.4745 C   0  0  0  0  0  0  0  0  0  0  0  0
   -5.9018    0.3817    0.9749 C   0  0  2  0  0  0  0  0  0  0  0  0
   -4.8553    1.3644    0.4813 C   0  0  0  0  0  0  0  0  0  0  0  0
    7.4454    0.8552    0.6483 O   0  0  0  0  0  0  0  0  0  0  0  0
    6.5319    2.8580    1.2687 O   0  0  0  0  0  0  0  0  0  0  0  0
   -3.8892    0.7030   -0.4779 C   0  0  1  0  0  0  0  0  0  0  0  0
   -2.9282    1.7496   -0.9700 C   0  0  0  0  0  0  0  0  0  0  0  0
   -1.7967    1.1772   -1.7716 C   0  0  1  0  0  0  0  0  0  0  0  0
   -1.1150    0.0117   -1.0780 C   0  0  2  0  0  0  0  0  0  0  0  0
   -1.7255   -0.0882    0.3034 C   0  0  1  0  0  0  0  0  0  0  0  0
   -3.7156   -0.6732    1.5821 C   0  0  0  0  0  0  0  0  0  0  0  0
   -3.1809   -0.4552    0.1916 C   0  0  1  0  0  0  0  0  0  0  0  0
   -0.9687   -1.0502    1.1861 C   0  0  0  0  0  0  0  0  0  0  0  0
    0.4611   -0.5467    1.3067 C   0  0  0  0  0  0  0  0  0  0  0  0
    1.0886   -0.6456   -0.0455 C   0  0  1  0  0  0  0  0  0  0  0  0
    0.3112    0.3589   -0.9116 C   0  0  1  0  0  0  0  0  0  0  0  0
    1.1352    0.4165   -2.1328 C   0  0  0  0  0  0  0  0  0  0  0  0
    2.5277    0.5373   -1.5475 C   0  0  0  0  0  0  0  0  0  0  0  0
    2.4538   -0.0206   -0.1381 C   0  0  2  0  0  0  0  0  0  0  0  0
    0.9924   -2.0366   -0.5554 C   0  0  0  0  0  0  0  0  0  0  0  0
   -3.3835   -1.7409   -0.5827 C   0  0  0  0  0  0  0  0  0  0  0  0
   -2.3223    0.8016   -3.0166 O   0  0  0  0  0  0  0  0  0  0  0  0
   -6.7568    1.0620    1.8218 O   0  0  0  0  0  0  0  0  0  0  0  0
   -5.2277   -0.7956    1.6050 C   0  0  0  0  0  0  0  0  0  0  0  0
    3.5974   -0.9157    0.0673 C   0  0  2  0  0  0  0  0  0  0  0  0
    3.6658   -1.6166    1.3923 C   0  0  0  0  0  0  0  0  0  0  0  0
    4.8814   -0.1434   -0.1557 C   0  0  0  0  0  0  0  0  0  0  0  0
    5.0487    1.0271    0.7749 C   0  0  0  0  0  0  0  0  0  0  0  0
    6.3651    1.7268    0.4745 C   0  0  0  0  0  0  0  0  0  0  0  0
   -5.9018    0.3817    0.9749 C   0  0  2  0  0  0  0  0  0  0  0  0
   -4.8553    1.3644    0.4813 C   0  0  0  0  0  0  0  0  0  0  0  0
    7.4454    0.8552    0.6483 O   0  0  0  0  0  0  0  0  0  0  0  0
    6.5319    2.8580    1.2687 O   0  0  0  0  0  0  0  0  0  0  0  0
   -3.8892    0.7030   -0.4779 C   0  0  1  0  0  0  0  0  0  0  0  0
   -2.9282    1.7496   -0.9700 C   0  0  0  0  0  0  0  0  0  0  0  0
   -1.7967    1.1772   -1.7716 C   0  0  1  0  0  0  0  0  0  0  0  0
   -1.1150    0.0117   -1.0780 C   0  0  2  0  0  0  0  0  0  0  0  0
   -1.7255   -0.0882    0.3034 C   0  0  1  0  0  0  0  0  0  0  0  0
   -3.4288    0.1351    2.2804 H   0  0  0  0  0  0  0  0  0  0  0  0
   -3.3183   -1.6515    1.9313 H   0  0  0  0  0  0  0  0  0  0  0  0
   -1.0382   -2.0895    0.8716 H   0  0  0  0  0  0  0  0  0  0  0  0
   -1.4107   -0.9663    2.2029 H   0  0  0  0  0  0  0  0  0  0  0  0
    0.3914    0.5011    1.6822 H   0  0  0  0  0  0  0  0  0  0  0  0
    0.9406   -1.1741    2.0806 H   0  0  0  0  0  0  0  0  0  0  0  0
    0.3843    1.3266   -0.3777 H   0  0  0  0  0  0  0  0  0  0  0  0
    0.9013    1.2703   -2.8005 H   0  0  0  0  0  0  0  0  0  0  0  0
    1.0257   -0.5235   -2.7311 H   0  0  0  0  0  0  0  0  0  0  0  0
    2.7648    1.6306   -1.5317 H   0  0  0  0  0  0  0  0  0  0  0  0
    3.2379   -0.0200   -2.1919 H   0  0  0  0  0  0  0  0  0  0  0  0
    2.4897    0.8306    0.5889 H   0  0  0  0  0  0  0  0  0  0  0  0
    1.0473   -2.7292    0.3360 H   0  0  0  0  0  0  0  0  0  0  0  0
    1.7439   -2.3052   -1.3280 H   0  0  0  0  0  0  0  0  0  0  0  0
    0.0050   -2.2769   -1.0182 H   0  0  0  0  0  0  0  0  0  0  0  0
   -3.7971   -1.4852   -1.5780 H   0  0  0  0  0  0  0  0  0  0  0  0
   -2.4235   -2.3233   -0.6674 H   0  0  0  0  0  0  0  0  0  0  0  0
   -4.0804   -2.4427   -0.0507 H   0  0  0  0  0  0  0  0  0  0  0  0
   -1.6694    0.3054   -3.5561 H   0  0  0  0  0  0  0  0  0  0  0  0
   -6.2997    1.4350    2.6050 H   0  0  0  0  0  0  0  0  0  0  0  0
   -5.5836   -1.7338    1.1324 H   0  0  0  0  0  0  0  0  0  0  0  0
   -5.5037   -0.8923    2.6899 H   0  0  0  0  0  0  0  0  0  0  0  0
    3.5931   -1.7129   -0.7178 H   0  0  0  0  0  0  0  0  0  0  0  0
    3.2216   -2.6332    1.3402 H   0  0  0  0  0  0  0  0  0  0  0  0
    4.7631   -1.8176    1.5853 H   0  0  0  0  0  0  0  0  0  0  0  0
    3.3282   -1.0187    2.2436 H   0  0  0  0  0  0  0  0  0  0  0  0
    4.9689    0.1852   -1.2082 H   0  0  0  0  0  0  0  0  0  0  0  0
    5.7774   -0.8178   -0.0084 H   0  0  0  0  0  0  0  0  0  0  0  0
    4.9589    0.7562    1.8357 H   0  0  0  0  0  0  0  0  0  0  0  0
    4.2669    1.7853    0.5639 H   0  0  0  0  0  0  0  0  0  0  0  0
    6.4052    2.0741   -0.5777 H   0  0  0  0  0  0  0  0  0  0  0  0
   -6.4999    0.0641    0.0787 H   0  0  0  0  0  0  0  0  0  0  0  0
   -5.3495    2.1847   -0.0935 H   0  0  0  0  0  0  0  0  0  0  0  0
   -4.2910    1.7852    1.3318 H   0  0  0  0  0  0  0  0  0  0  0  0
    7.2407    0.2329    1.4084 H   0  0  0  0  0  0  0  0  0  0  0  0
    7.1423    2.5910    2.0070 H   0  0  0  0  0  0  0  0  0  0  0  0
   -4.4597    0.3282   -1.3700 H   0  0  0  0  0  0  0  0  0  0  0  0
   -3.5171    2.4006   -1.6823 H   0  0  0  0  0  0  0  0  0  0  0  0
   -2.5949    2.4492   -0.1704 H   0  0  0  0  0  0  0  0  0  0  0  0
   -1.0916    2.0116   -1.9852 H   0  0  0  0  0  0  0  0  0  0  0  0
   -1.3126   -0.8773   -1.6935 H   0  0  0  0  0  0  0  0  0  0  0  0
   -1.6669    0.9056    0.7872 H   0  0  0  0  0  0  0  0  0  0  0  0
   -3.4288    0.1351    2.2804 H   0  0  0  0  0  0  0  0  0  0  0  0
   -3.3183   -1.6515    1.9313 H   0  0  0  0  0  0  0  0  0  0  0  0
   -1.0382   -2.0895    0.8716 H   0  0  0  0  0  0  0  0  0  0  0  0
   -1.4107   -0.9663    2.2029 H   0  0  0  0  0  0  0  0  0  0  0  0
    0.3914    0.5011    1.6822 H   0  0  0  0  0  0  0  0  0  0  0  0
    0.9406   -1.1741    2.0806 H   0  0  0  0  0  0  0  0  0  0  0  0
    0.3843    1.3266   -0.3777 H   0  0  0  0  0  0  0  0  0  0  0  0
    0.9013    1.2703   -2.8005 H   0  0  0  0  0  0  0  0  0  0  0  0
    1.0257   -0.5235   -2.7311 H   0  0  0  0  0  0  0  0  0  0  0  0
    2.7648    1.6306   -1.5317 H   0  0  0  0  0  0  0  0  0  0  0  0
    3.2379   -0.0200   -2.1919 H   0  0  0  0  0  0  0  0  0  0  0  0
    2.4897    0.8306    0.5889 H   0  0  0  0  0  0  0  0  0  0  0  0
    1.0473   -2.7292    0.3360 H   0  0  0  0  0  0  0  0  0  0  0  0
    1.7439   -2.3052   -1.3280 H   0  0  0  0  0  0  0  0  0  0  0  0
    0.0050   -2.2769   -1.0182 H   0  0  0  0  0  0  0  0  0  0  0  0
   -3.7971   -1.4852   -1.5780 H   0  0  0  0  0  0  0  0  0  0  0  0
   -2.4235   -2.3233   -0.6674 H   0  0  0  0  0  0  0  0  0  0  0  0
   -4.0804   -2.4427   -0.0507 H   0  0  0  0  0  0  0  0  0  0  0  0
   -1.6694    0.3054   -3.5561 H   0  0  0  0  0  0  0  0  0  0  0  0
   -6.2997    1.4350    2.6050 H   0  0  0  0  0  0  0  0  0  0  0  0
   -5.5836   -1.7338    1.1324 H   0  0  0  0  0  0  0  0  0  0  0  0
   -5.5037   -0.8923    2.6899 H   0  0  0  0  0  0  0  0  0  0  0  0
    3.5931   -1.7129   -0.7178 H   0  0  0  0  0  0  0  0  0  0  0  0
    3.2216   -2.6332    1.3402 H   0  0  0  0  0  0  0  0  0  0  0  0
    4.7631   -1.8176    1.5853 H   0  0  0  0  0  0  0  0  0  0  0  0
    3.3282   -1.0187    2.2436 H   0  0  0  0  0  0  0  0  0  0  0  0
    4.9689    0.1852   -1.2082 H   0  0  0  0  0  0  0  0  0  0  0  0
    5.7774   -0.8178   -0.0084 H   0  0  0  0  0  0  0  0  0  0  0  0
    4.9589    0.7562    1.8357 H   0  0  0  0  0  0  0  0  0  0  0  0
    4.2669    1.7853    0.5639 H   0  0  0  0  0  0  0  0  0  0  0  0
    6.4052    2.0741   -0.5777 H   0  0  0  0  0  0  0  0  0  0  0  0
   -6.4999    0.0641    0.0787 H   0  0  0  0  0  0  0  0  0  0  0  0
   -5.3495    2.1847   -0.0935 H   0  0  0  0  0  0  0  0  0  0  0  0
   -4.2910    1.7852    1.3318 H   0  0  0  0  0  0  0  0  0  0  0  0
    7.2407    0.2329    1.4084 H   0  0  0  0  0  0  0  0  0  0  0  0
    7.1423    2.5910    2.0070 H   0  0  0  0  0  0  0  0  0  0  0  0
   -4.4597    0.3282   -1.3700 H   0  0  0  0  0  0  0  0  0  0  0  0
   -3.5171    2.4006   -1.6823 H   0  0  0  0  0  0  0  0  0  0  0  0
   -2.5949    2.4492   -0.1704 H   0  0  0  0  0  0  0  0  0  0  0  0
   -1.0916    2.0116   -1.9852 H   0  0  0  0  0  0  0  0  0  0  0  0
   -1.3126   -0.8773   -1.6935 H   0  0  0  0  0  0  0  0  0  0  0  0
   -1.6669    0.9056    0.7872 H   0  0  0  0  0  0  0  0  0  0  0  0
  1  2  1  0
  3  4  1  0
  4  5  1  0
  5  6  1  0
  6  7  1  0
  7  8  1  0
  5  9  1  0
  8  9  1  0
  5 10  1  6
  2 11  1  6
  1 14  1  0
  9 15  1  0
 15 16  1  0
 15 17  1  0
 17 18  1  0
 18 19  1  0
 13 20  1  0
 14 20  1  0
 20 21  1  0
 19 22  1  0
 19 23  1  0
  2 24  1  0
 21 24  1  0
 24 25  1  0
 12 26  1  0
 25 26  1  0
  6 27  1  0
 26 27  1  0
  2 28  1  0
  3 28  1  0
 27 28  1  0
 29 30  1  0
 31 32  1  0
 32 33  1  0
 33 34  1  0
 34 35  1  0
 35 36  1  0
 33 37  1  0
 36 37  1  0
 33 38  1  6
 30 39  1  6
 29 42  1  0
 37 43  1  0
 43 44  1  0
 43 45  1  0
 45 46  1  0
 46 47  1  0
 41 48  1  0
 42 48  1  0
 48 49  1  0
 47 50  1  0
 47 51  1  0
 30 52  1  0
 49 52  1  0
 52 53  1  0
 40 54  1  0
 53 54  1  0
 34 55  1  0
 54 55  1  0
 30 56  1  0
 31 56  1  0
 55 56  1  0
  1 57  1  0
  1 58  1  0
  3 59  1  0
  3 60  1  0
  4 61  1  0
  4 62  1  0
  6 63  1  1
  7 64  1  0
  7 65  1  0
  8 66  1  0
  8 67  1  0
  9 68  1  1
 10 69  1  0
 10 70  1  0
 10 71  1  0
 11 72  1  0
 11 73  1  0
 11 74  1  0
 12 75  1  0
 13 76  1  0
 14 77  1  0
 14 78  1  0
 15 79  1  6
 16 80  1  0
 16 81  1  0
 16 82  1  0
 17 83  1  0
 17 84  1  0
 18 85  1  0
 18 86  1  0
 19 87  1  0
 20 88  1  6
 21 89  1  0
 21 90  1  0
 22 91  1  0
 23 92  1  0
 24 93  1  6
 25 94  1  0
 25 95  1  0
 26 96  1  6
 27 97  1  6
 28 98  1  1
 29 99  1  0
 29100  1  0
 31101  1  0
 31102  1  0
 32103  1  0
 32104  1  0
 34105  1  1
 35106  1  0
 35107  1  0
 36108  1  0
 36109  1  0
 37110  1  1
 38111  1  0
 38112  1  0
 38113  1  0
 39114  1  0
 39115  1  0
 39116  1  0
 40117  1  0
 41118  1  0
 42119  1  0
 42120  1  0
 43121  1  6
 44122  1  0
 44123  1  0
 44124  1  0
 45125  1  0
 45126  1  0
 46127  1  0
 46128  1  0
 47129  1  0
 48130  1  6
 49131  1  0
 49132  1  0
 50133  1  0
 51134  1  0
 52135  1  6
 53136  1  0
 53137  1  0
 54138  1  6
 55139  1  6
 56140  1  1
M  END
>  <PDBID>  (1) 
1IHI

>  <PDB ID>  (1) 
1IHI

>  <Generic Name>  (1) 
Ursodeoxycholic acid

>  <Brand Name>  (1) 
Actigall#Dom-ursodiol C#Mint-ursodiol#Novo-ursodiol#PHL-ursodiol C#PMS-ursodiol#PMS-ursodiol C#Pendo-ursodiol C#Urso#Urso 250#Urso DS#Urso Forte#Ursodiol#Ursodiol Tablets USP#Ursodiol Tablets, 250 mg#Ursodiol Tablets, 500 mg#Ursofalk#Cholit-ursan#Delursan#Destolit#Deursil#Litursol#Solutrat#Ursacol#Ursochol#Ursolvan

>  <DrugBank ID>  (1) 
DB01586

>  <ATC Codes>  (1) 
A05AA02

>  <Ligand ID>  (1) 
IU5,JN3

>  <Target Name>  (1) 
Aldo-keto reductase family 1 member C2

>  <UniProt ID>  (1) 
P52895

>  <PDB ID.1>  (1) 
1IHI

>  <Seq. Identity>  (1) 
100%

$$$$
