PDB_DB00481_01
     RDKit          3D

166174  0  0  0  0  0  0  0  0999 V2000
   -2.7960   -2.5147   -0.3995 C   0  0  0  0  0  0  0  0  0  0  0  0
   -2.6865   -4.0461   -0.3241 C   0  0  0  0  0  0  0  0  0  0  0  0
   -3.8571   -4.6027    0.4325 C   0  0  0  0  0  0  0  0  0  0  0  0
   -4.3419   -5.6993   -0.2925 O   0  0  0  0  0  0  0  0  0  0  0  0
   -4.9925   -3.6206    0.5592 C   0  0  0  0  0  0  0  0  0  0  0  0
   -4.5983   -2.3058    1.1409 C   0  0  0  0  0  0  0  0  0  0  0  0
   -5.1660   -1.0011    0.0083 S   0  0  0  0  0  0  0  0  0  0  0  0
   -3.6067    0.0341   -0.0060 C   0  0  1  0  0  0  0  0  0  0  0  0
   -4.1069    1.4466    0.1342 C   0  0  0  0  0  0  0  0  0  0  0  0
   -3.0816    2.5189    0.0106 C   0  0  0  0  0  0  0  0  0  0  0  0
   -3.7337    3.8513   -0.4150 C   0  0  0  0  0  0  0  0  0  0  0  0
   -4.2956    3.7770   -1.8026 C   0  0  0  0  0  0  0  0  0  0  0  0
   -5.4653    4.5243   -1.9433 O   0  0  0  0  0  0  0  0  0  0  0  0
   -4.6556    2.3390   -2.1251 C   0  0  0  0  0  0  0  0  0  0  0  0
   -5.2158    1.7258   -0.8658 C   0  0  0  0  0  0  0  0  0  0  0  0
   -3.0649   -2.0568    0.9935 C   0  0  0  0  0  0  0  0  0  0  0  0
   -2.9991   -0.5670    1.2126 C   0  0  0  0  0  0  0  0  0  0  0  0
   -1.8350    0.0101    1.8408 C   0  0  0  0  0  0  0  0  0  0  0  0
   -1.5316   -0.8286    2.9738 O   0  0  0  0  0  0  0  0  0  0  0  0
   -0.5889    0.3251    1.1242 C   0  0  0  0  0  0  0  0  0  0  0  0
    0.4224    0.9831    2.1046 C   0  0  0  0  0  0  0  0  0  0  0  0
    1.6529    1.3235    1.3033 C   0  0  0  0  0  0  0  0  0  0  0  0
    2.4124    0.0438    0.9681 C   0  0  0  0  0  0  0  0  0  0  0  0
    1.4880   -1.1167    1.3111 C   0  0  0  0  0  0  0  0  0  0  0  0
    0.1283   -0.9547    0.7241 C   0  0  0  0  0  0  0  0  0  0  0  0
    3.5201   -0.0949    1.7725 O   0  0  0  0  0  0  0  0  0  0  0  0
    4.7050   -0.2266    1.0854 C   0  0  0  0  0  0  0  0  0  0  0  0
    4.9955    0.9932    0.2847 C   0  0  0  0  0  0  0  0  0  0  0  0
    6.2433    0.8999   -0.4545 N   0  0  0  0  0  0  0  0  0  0  0  0
    6.1901   -0.0712   -1.5058 C   0  0  0  0  0  0  0  0  0  0  0  0
    7.2195    0.2993   -2.5518 C   0  0  0  0  0  0  0  0  0  0  0  0
    8.3233    1.1018   -1.9094 C   0  0  0  0  0  0  0  0  0  0  0  0
    8.6162    0.6226   -0.5070 C   0  0  0  0  0  0  0  0  0  0  0  0
    7.3967    0.7969    0.3828 C   0  0  0  0  0  0  0  0  0  0  0  0
   -2.5660   -2.1314   -1.1454 C   0  0  0  0  0  0  0  0  0  0  0  0
   -2.4261   -3.6401   -1.2032 C   0  0  0  0  0  0  0  0  0  0  0  0
   -3.5287   -4.2865   -0.4026 C   0  0  0  0  0  0  0  0  0  0  0  0
   -4.0099   -5.3859   -1.1465 O   0  0  0  0  0  0  0  0  0  0  0  0
   -4.7103   -3.3629   -0.2024 C   0  0  0  0  0  0  0  0  0  0  0  0
   -4.3538   -2.0630    0.4434 C   0  0  0  0  0  0  0  0  0  0  0  0
   -4.9533   -0.7287   -0.6877 S   0  0  0  0  0  0  0  0  0  0  0  0
   -3.4639    0.3573   -0.6056 C   0  0  1  0  0  0  0  0  0  0  0  0
   -3.9232    1.7496   -0.4732 C   0  0  0  0  0  0  0  0  0  0  0  0
   -4.7152    2.2041   -1.7078 C   0  0  0  0  0  0  0  0  0  0  0  0
   -5.3551    3.5409   -1.4355 C   0  0  0  0  0  0  0  0  0  0  0  0
   -6.4809    3.4309   -0.4272 C   0  0  0  0  0  0  0  0  0  0  0  0
   -6.4031    4.4382    0.5351 O   0  0  0  0  0  0  0  0  0  0  0  0
   -6.2780    2.1148    0.2889 C   0  0  0  0  0  0  0  0  0  0  0  0
   -4.8048    2.0589    0.7017 C   0  0  0  0  0  0  0  0  0  0  0  0
   -2.8258   -1.7601    0.2953 C   0  0  0  0  0  0  0  0  0  0  0  0
   -2.7977   -0.2852    0.5713 C   0  0  1  0  0  0  0  0  0  0  0  0
   -1.6404    0.3544    1.1413 C   0  0  2  0  0  0  0  0  0  0  0  0
   -2.0205    1.6626    1.5792 O   0  0  0  0  0  0  0  0  0  0  0  0
   -0.3430    0.4989    0.4847 C   0  0  0  0  0  0  0  0  0  0  0  0
    0.6130    1.3133    1.4006 C   0  0  0  0  0  0  0  0  0  0  0  0
    2.0125    1.2625    0.8468 C   0  0  0  0  0  0  0  0  0  0  0  0
    2.6288   -0.1171    1.0465 C   0  0  0  0  0  0  0  0  0  0  0  0
    1.4631   -1.0364    1.3356 C   0  0  0  0  0  0  0  0  0  0  0  0
    0.4134   -0.7815    0.2463 C   0  0  0  0  0  0  0  0  0  0  0  0
    3.5681   -0.1224    2.0432 O   0  0  0  0  0  0  0  0  0  0  0  0
    4.8398   -0.4256    1.6019 C   0  0  0  0  0  0  0  0  0  0  0  0
    5.3168    0.6207    0.6562 C   0  0  0  0  0  0  0  0  0  0  0  0
    6.6438    0.3942    0.1374 N   0  0  0  0  0  0  0  0  0  0  0  0
    6.7601   -0.7289   -0.7441 C   0  0  0  0  0  0  0  0  0  0  0  0
    7.8775   -0.3871   -1.7391 C   0  0  0  0  0  0  0  0  0  0  0  0
    8.9803    0.3532   -1.0258 C   0  0  0  0  0  0  0  0  0  0  0  0
    8.9911    0.0630    0.4737 C   0  0  0  0  0  0  0  0  0  0  0  0
    7.6790    0.4667    1.1206 C   0  0  0  0  0  0  0  0  0  0  0  0
   -3.6861   -2.3378   -1.0542 H   0  0  0  0  0  0  0  0  0  0  0  0
   -1.8958   -2.1620   -0.8822 H   0  0  0  0  0  0  0  0  0  0  0  0
   -2.5440   -4.4842   -1.3242 H   0  0  0  0  0  0  0  0  0  0  0  0
   -1.7673   -4.2400    0.2853 H   0  0  0  0  0  0  0  0  0  0  0  0
   -3.5848   -5.0170    1.4374 H   0  0  0  0  0  0  0  0  0  0  0  0
   -5.2821   -5.5729   -0.5963 H   0  0  0  0  0  0  0  0  0  0  0  0
   -5.7642   -4.0867    1.2131 H   0  0  0  0  0  0  0  0  0  0  0  0
   -5.4561   -3.5298   -0.4577 H   0  0  0  0  0  0  0  0  0  0  0  0
   -4.9151   -2.1225    2.1688 H   0  0  0  0  0  0  0  0  0  0  0  0
   -3.1411   -0.1933   -0.9583 H   0  0  0  0  0  0  0  0  0  0  0  0
   -4.5879    1.5400    1.1526 H   0  0  0  0  0  0  0  0  0  0  0  0
   -2.5848    2.7482    0.9621 H   0  0  0  0  0  0  0  0  0  0  0  0
   -2.3172    2.3090   -0.7690 H   0  0  0  0  0  0  0  0  0  0  0  0
   -2.8813    4.5720   -0.4386 H   0  0  0  0  0  0  0  0  0  0  0  0
   -4.4813    4.1898    0.3004 H   0  0  0  0  0  0  0  0  0  0  0  0
   -3.5765    4.1568   -2.5692 H   0  0  0  0  0  0  0  0  0  0  0  0
   -5.9602    4.5742   -1.0852 H   0  0  0  0  0  0  0  0  0  0  0  0
   -3.7270    1.8468   -2.4814 H   0  0  0  0  0  0  0  0  0  0  0  0
   -5.4613    2.2853   -2.8902 H   0  0  0  0  0  0  0  0  0  0  0  0
   -5.8967    2.4846   -0.3861 H   0  0  0  0  0  0  0  0  0  0  0  0
   -5.8394    0.8278   -1.0483 H   0  0  0  0  0  0  0  0  0  0  0  0
   -2.5436   -2.5803    1.7899 H   0  0  0  0  0  0  0  0  0  0  0  0
   -3.8504   -0.4174    2.0050 H   0  0  0  0  0  0  0  0  0  0  0  0
   -2.1470    0.9651    2.3775 H   0  0  0  0  0  0  0  0  0  0  0  0
   -2.2880   -0.7687    3.6282 H   0  0  0  0  0  0  0  0  0  0  0  0
   -0.6442    1.0343    0.3024 H   0  0  0  0  0  0  0  0  0  0  0  0
   -0.0154    1.9667    2.4361 H   0  0  0  0  0  0  0  0  0  0  0  0
    0.6504    0.3559    2.9544 H   0  0  0  0  0  0  0  0  0  0  0  0
    2.3305    2.0167    1.8541 H   0  0  0  0  0  0  0  0  0  0  0  0
    1.3566    1.7674    0.3071 H   0  0  0  0  0  0  0  0  0  0  0  0
    2.6763    0.0011   -0.0980 H   0  0  0  0  0  0  0  0  0  0  0  0
    1.4593   -1.3658    2.3711 H   0  0  0  0  0  0  0  0  0  0  0  0
    1.9470   -1.9994    0.7915 H   0  0  0  0  0  0  0  0  0  0  0  0
   -0.4700   -1.8197    1.0751 H   0  0  0  0  0  0  0  0  0  0  0  0
    0.1593   -1.0597   -0.3851 H   0  0  0  0  0  0  0  0  0  0  0  0
    5.5098   -0.3573    1.8715 H   0  0  0  0  0  0  0  0  0  0  0  0
    4.6952   -1.1601    0.4676 H   0  0  0  0  0  0  0  0  0  0  0  0
    5.0985    1.8656    0.9764 H   0  0  0  0  0  0  0  0  0  0  0  0
    4.2126    1.1632   -0.4718 H   0  0  0  0  0  0  0  0  0  0  0  0
    5.1694   -0.0639   -1.9458 H   0  0  0  0  0  0  0  0  0  0  0  0
    6.3628   -1.1128   -1.1537 H   0  0  0  0  0  0  0  0  0  0  0  0
    6.7350    0.8744   -3.3822 H   0  0  0  0  0  0  0  0  0  0  0  0
    7.7056   -0.6232   -2.9683 H   0  0  0  0  0  0  0  0  0  0  0  0
    9.2570    0.9815   -2.5145 H   0  0  0  0  0  0  0  0  0  0  0  0
    8.0521    2.1969   -1.8599 H   0  0  0  0  0  0  0  0  0  0  0  0
    8.8696   -0.4551   -0.5894 H   0  0  0  0  0  0  0  0  0  0  0  0
    9.4831    1.1921   -0.1130 H   0  0  0  0  0  0  0  0  0  0  0  0
    7.3614   -0.0545    1.1010 H   0  0  0  0  0  0  0  0  0  0  0  0
    7.5227    1.7589    0.9146 H   0  0  0  0  0  0  0  0  0  0  0  0
   -3.4868   -1.8798   -1.7505 H   0  0  0  0  0  0  0  0  0  0  0  0
   -1.7081   -1.6254   -1.6059 H   0  0  0  0  0  0  0  0  0  0  0  0
   -2.3906   -4.0120   -2.2470 H   0  0  0  0  0  0  0  0  0  0  0  0
   -1.4608   -3.9003   -0.7140 H   0  0  0  0  0  0  0  0  0  0  0  0
   -3.1974   -4.6614    0.5702 H   0  0  0  0  0  0  0  0  0  0  0  0
   -5.0002   -5.4286   -1.1349 H   0  0  0  0  0  0  0  0  0  0  0  0
   -5.4162   -3.8998    0.4611 H   0  0  0  0  0  0  0  0  0  0  0  0
   -5.2066   -3.2531   -1.1932 H   0  0  0  0  0  0  0  0  0  0  0  0
   -4.6901   -1.9164    1.4644 H   0  0  0  0  0  0  0  0  0  0  0  0
   -2.9412    0.1443   -1.5654 H   0  0  0  0  0  0  0  0  0  0  0  0
   -3.0349    2.4408   -0.3734 H   0  0  0  0  0  0  0  0  0  0  0  0
   -3.9284    2.3884   -2.4826 H   0  0  0  0  0  0  0  0  0  0  0  0
   -5.4444    1.4583   -2.0116 H   0  0  0  0  0  0  0  0  0  0  0  0
   -5.7700    3.9682   -2.3586 H   0  0  0  0  0  0  0  0  0  0  0  0
   -4.6058    4.2447   -0.9888 H   0  0  0  0  0  0  0  0  0  0  0  0
   -7.4773    3.4671   -0.9112 H   0  0  0  0  0  0  0  0  0  0  0  0
   -6.7288    4.1552    1.4237 H   0  0  0  0  0  0  0  0  0  0  0  0
   -6.5844    1.3053   -0.3662 H   0  0  0  0  0  0  0  0  0  0  0  0
   -6.9252    2.0417    1.1988 H   0  0  0  0  0  0  0  0  0  0  0  0
   -4.5964    3.0851    1.1111 H   0  0  0  0  0  0  0  0  0  0  0  0
   -4.7274    1.3636    1.5498 H   0  0  0  0  0  0  0  0  0  0  0  0
   -2.2820   -2.3034    1.0409 H   0  0  0  0  0  0  0  0  0  0  0  0
   -3.6146   -0.1958    1.3921 H   0  0  0  0  0  0  0  0  0  0  0  0
   -1.4402   -0.1599    2.1548 H   0  0  0  0  0  0  0  0  0  0  0  0
   -1.4444    1.9697    2.2965 H   0  0  0  0  0  0  0  0  0  0  0  0
   -0.3390    1.0586   -0.4687 H   0  0  0  0  0  0  0  0  0  0  0  0
    0.3100    2.3979    1.3485 H   0  0  0  0  0  0  0  0  0  0  0  0
    0.5586    1.0166    2.4360 H   0  0  0  0  0  0  0  0  0  0  0  0
    2.6380    1.9988    1.3450 H   0  0  0  0  0  0  0  0  0  0  0  0
    1.9762    1.5401   -0.2360 H   0  0  0  0  0  0  0  0  0  0  0  0
    3.0383   -0.4042    0.0593 H   0  0  0  0  0  0  0  0  0  0  0  0
    1.0341   -0.9204    2.3279 H   0  0  0  0  0  0  0  0  0  0  0  0
    1.7927   -2.1144    1.2320 H   0  0  0  0  0  0  0  0  0  0  0  0
   -0.2034   -1.6770    0.2104 H   0  0  0  0  0  0  0  0  0  0  0  0
    0.9833   -0.7434   -0.7200 H   0  0  0  0  0  0  0  0  0  0  0  0
    5.4803   -0.4755    2.5322 H   0  0  0  0  0  0  0  0  0  0  0  0
    4.9016   -1.4448    1.1548 H   0  0  0  0  0  0  0  0  0  0  0  0
    5.3953    1.5752    1.2655 H   0  0  0  0  0  0  0  0  0  0  0  0
    4.5949    0.7595   -0.1623 H   0  0  0  0  0  0  0  0  0  0  0  0
    5.8246   -0.9999   -1.2332 H   0  0  0  0  0  0  0  0  0  0  0  0
    7.1070   -1.6361   -0.1829 H   0  0  0  0  0  0  0  0  0  0  0  0
    8.2570   -1.2887   -2.2242 H   0  0  0  0  0  0  0  0  0  0  0  0
    7.4555    0.2908   -2.5267 H   0  0  0  0  0  0  0  0  0  0  0  0
    9.9779    0.0765   -1.4031 H   0  0  0  0  0  0  0  0  0  0  0  0
    8.8547    1.4516   -1.1140 H   0  0  0  0  0  0  0  0  0  0  0  0
    9.2545   -0.9896    0.6529 H   0  0  0  0  0  0  0  0  0  0  0  0
    9.8283    0.6968    0.8797 H   0  0  0  0  0  0  0  0  0  0  0  0
    7.4271   -0.1402    1.9983 H   0  0  0  0  0  0  0  0  0  0  0  0
    7.7668    1.5341    1.4503 H   0  0  0  0  0  0  0  0  0  0  0  0
  1  2  1  0
  2  3  1  0
  3  4  1  0
  3  5  1  0
  5  6  1  0
  6  7  1  0
  7  8  1  0
  8  9  1  0
  9 10  1  0
 10 11  1  0
 11 12  1  0
 12 13  1  0
 12 14  1  0
  9 15  1  0
 14 15  1  0
  1 16  1  0
  6 16  1  0
  8 17  1  0
 16 17  1  0
 17 18  1  0
 18 19  1  0
 18 20  1  0
 20 21  1  0
 21 22  1  0
 22 23  1  0
 23 24  1  0
 20 25  1  0
 24 25  1  0
 23 26  1  0
 26 27  1  0
 27 28  1  0
 28 29  1  0
 29 30  1  0
 30 31  1  0
 31 32  1  0
 32 33  1  0
 29 34  1  0
 33 34  1  0
 35 36  1  0
 36 37  1  0
 37 38  1  0
 37 39  1  0
 39 40  1  0
 40 41  1  0
 41 42  1  0
 42 43  1  0
 43 44  1  0
 44 45  1  0
 45 46  1  0
 46 47  1  0
 46 48  1  0
 43 49  1  0
 48 49  1  0
 35 50  1  0
 40 50  1  0
 42 51  1  0
 50 51  1  0
 51 52  1  0
 52 53  1  0
 52 54  1  0
 54 55  1  0
 55 56  1  0
 56 57  1  0
 57 58  1  0
 54 59  1  0
 58 59  1  0
 57 60  1  0
 60 61  1  0
 61 62  1  0
 62 63  1  0
 63 64  1  0
 64 65  1  0
 65 66  1  0
 66 67  1  0
 63 68  1  0
 67 68  1  0
  1 69  1  0
  1 70  1  0
  2 71  1  0
  2 72  1  0
  3 73  1  0
  4 74  1  0
  5 75  1  0
  5 76  1  0
  6 77  1  0
  8 78  1  6
  9 79  1  0
 10 80  1  0
 10 81  1  0
 11 82  1  0
 11 83  1  0
 12 84  1  0
 13 85  1  0
 14 86  1  0
 14 87  1  0
 15 88  1  0
 15 89  1  0
 16 90  1  0
 17 91  1  0
 18 92  1  0
 19 93  1  0
 20 94  1  0
 21 95  1  0
 21 96  1  0
 22 97  1  0
 22 98  1  0
 23 99  1  0
 24100  1  0
 24101  1  0
 25102  1  0
 25103  1  0
 27104  1  0
 27105  1  0
 28106  1  0
 28107  1  0
 30108  1  0
 30109  1  0
 31110  1  0
 31111  1  0
 32112  1  0
 32113  1  0
 33114  1  0
 33115  1  0
 34116  1  0
 34117  1  0
 35118  1  0
 35119  1  0
 36120  1  0
 36121  1  0
 37122  1  0
 38123  1  0
 39124  1  0
 39125  1  0
 40126  1  0
 42127  1  6
 43128  1  0
 44129  1  0
 44130  1  0
 45131  1  0
 45132  1  0
 46133  1  0
 47134  1  0
 48135  1  0
 48136  1  0
 49137  1  0
 49138  1  0
 50139  1  0
 51140  1  1
 52141  1  1
 53142  1  0
 54143  1  0
 55144  1  0
 55145  1  0
 56146  1  0
 56147  1  0
 57148  1  0
 58149  1  0
 58150  1  0
 59151  1  0
 59152  1  0
 61153  1  0
 61154  1  0
 62155  1  0
 62156  1  0
 64157  1  0
 64158  1  0
 65159  1  0
 65160  1  0
 66161  1  0
 66162  1  0
 67163  1  0
 67164  1  0
 68165  1  0
 68166  1  0
M  END
>  <PDBID>  (1) 
2QXS

>  <PDB ID>  (1) 
2QXS

>  <Generic Name>  (1) 
Raloxifene

>  <Brand Name>  (1) 
Act Raloxifene#Apo-raloxifene#Evista#Evista (60mg)#PMS-raloxifene#Raloxifene#Raloxifene Hydrochloride#Teva-raloxifene#Keoxifene

>  <DrugBank ID>  (1) 
DB00481

>  <ATC Codes>  (1) 
G03XC01

>  <Ligand ID>  (1) 
RAL

>  <Target Name>  (1) 
Estrogen receptor

>  <UniProt ID>  (1) 
P03372

>  <PDB ID.1>  (1) 
2QXS

>  <Seq. Identity>  (1) 
93%

$$$$
