PDB_DB01283_09
     RDKit          3D

 94 96  0  0  0  0  0  0  0  0999 V2000
   -2.4263    3.5205    0.7743 O   0  0  0  0  0  0  0  0  0  0  0  0
   -2.7708    2.3451    0.1118 C   0  0  0  0  0  0  0  0  0  0  0  0
   -3.0609    2.7374   -1.1982 O   0  0  0  0  0  0  0  0  0  0  0  0
   -1.5006    1.4855    0.1358 C   0  0  0  0  0  0  0  0  0  0  0  0
   -1.6562    0.1860   -0.5088 C   0  0  0  0  0  0  0  0  0  0  0  0
   -2.7428   -0.7006    0.0676 C   0  0  0  0  0  0  0  0  0  0  0  0
   -2.6002   -2.1289   -0.2816 C   0  0  0  0  0  0  0  0  0  0  0  0
   -2.2599   -2.9125    0.9983 C   0  0  0  0  0  0  0  0  0  0  0  0
   -1.6841   -2.5259   -1.3640 C   0  0  0  0  0  0  0  0  0  0  0  0
   -0.6835   -1.5497   -1.8547 C   0  0  0  0  0  0  0  0  0  0  0  0
   -0.3879   -0.5951   -0.6731 C   0  0  0  0  0  0  0  0  0  0  0  0
    0.8151    0.0140   -0.8803 N   0  0  0  0  0  0  0  0  0  0  0  0
    1.5612    0.7557    0.0270 C   0  0  0  0  0  0  0  0  0  0  0  0
    2.0678   -0.0536    1.2196 C   0  0  0  0  0  0  0  0  0  0  0  0
    0.8412   -0.3477    2.4405 Cl  0  0  0  0  0  0  0  0  0  0  0  0
    3.1735    0.7611    1.8522 C   0  0  0  0  0  0  0  0  0  0  0  0
    4.4493    0.5538    1.0572 C   0  0  0  0  0  0  0  0  0  0  0  0
    4.0352    0.4421   -0.3921 C   0  0  0  0  0  0  0  0  0  0  0  0
    2.8182    1.2418   -0.7131 C   0  0  0  0  0  0  0  0  0  0  0  0
    3.0260    2.5940   -0.5366 F   0  0  0  0  0  0  0  0  0  0  0  0
   -2.4263    3.5205    0.7743 O   0  0  0  0  0  0  0  0  0  0  0  0
   -2.7708    2.3451    0.1118 C   0  0  0  0  0  0  0  0  0  0  0  0
   -3.0609    2.7374   -1.1982 O   0  0  0  0  0  0  0  0  0  0  0  0
   -1.5006    1.4855    0.1358 C   0  0  0  0  0  0  0  0  0  0  0  0
   -1.6562    0.1860   -0.5088 C   0  0  0  0  0  0  0  0  0  0  0  0
   -2.7428   -0.7006    0.0676 C   0  0  0  0  0  0  0  0  0  0  0  0
   -2.6002   -2.1289   -0.2816 C   0  0  0  0  0  0  0  0  0  0  0  0
   -2.2599   -2.9125    0.9983 C   0  0  0  0  0  0  0  0  0  0  0  0
   -1.6841   -2.5259   -1.3640 C   0  0  0  0  0  0  0  0  0  0  0  0
   -0.6835   -1.5497   -1.8547 C   0  0  0  0  0  0  0  0  0  0  0  0
   -0.3879   -0.5951   -0.6731 C   0  0  0  0  0  0  0  0  0  0  0  0
    0.8151    0.0140   -0.8803 N   0  0  0  0  0  0  0  0  0  0  0  0
    1.5612    0.7557    0.0270 C   0  0  0  0  0  0  0  0  0  0  0  0
    2.0678   -0.0536    1.2196 C   0  0  0  0  0  0  0  0  0  0  0  0
    0.8412   -0.3477    2.4405 Cl  0  0  0  0  0  0  0  0  0  0  0  0
    3.1735    0.7611    1.8522 C   0  0  0  0  0  0  0  0  0  0  0  0
    4.4493    0.5538    1.0572 C   0  0  0  0  0  0  0  0  0  0  0  0
    4.0352    0.4421   -0.3921 C   0  0  0  0  0  0  0  0  0  0  0  0
    2.8182    1.2418   -0.7131 C   0  0  0  0  0  0  0  0  0  0  0  0
    3.0260    2.5940   -0.5366 F   0  0  0  0  0  0  0  0  0  0  0  0
   -2.6583    3.5137    1.7325 H   0  0  0  0  0  0  0  0  0  0  0  0
   -3.6009    1.8833    0.6448 H   0  0  0  0  0  0  0  0  0  0  0  0
   -2.2190    3.1888   -1.5042 H   0  0  0  0  0  0  0  0  0  0  0  0
   -1.1509    1.4844    1.1663 H   0  0  0  0  0  0  0  0  0  0  0  0
   -0.7872    2.1586   -0.4523 H   0  0  0  0  0  0  0  0  0  0  0  0
   -2.0099    0.3946   -1.5700 H   0  0  0  0  0  0  0  0  0  0  0  0
   -2.8329   -0.6108    1.1679 H   0  0  0  0  0  0  0  0  0  0  0  0
   -3.7430   -0.3412   -0.3268 H   0  0  0  0  0  0  0  0  0  0  0  0
   -3.6183   -2.5384   -0.5780 H   0  0  0  0  0  0  0  0  0  0  0  0
   -3.1159   -3.5171    1.3502 H   0  0  0  0  0  0  0  0  0  0  0  0
   -1.9933   -2.2412    1.8284 H   0  0  0  0  0  0  0  0  0  0  0  0
   -1.4625   -3.6382    0.7555 H   0  0  0  0  0  0  0  0  0  0  0  0
   -2.2241   -2.9277   -2.2779 H   0  0  0  0  0  0  0  0  0  0  0  0
   -1.0943   -3.4339   -1.0219 H   0  0  0  0  0  0  0  0  0  0  0  0
    0.2515   -2.0647   -2.1659 H   0  0  0  0  0  0  0  0  0  0  0  0
   -1.0084   -0.9109   -2.6984 H   0  0  0  0  0  0  0  0  0  0  0  0
   -0.3848   -1.2601    0.2770 H   0  0  0  0  0  0  0  0  0  0  0  0
    1.2953   -0.1376   -1.7967 H   0  0  0  0  0  0  0  0  0  0  0  0
    1.1274    1.6406    0.4634 H   0  0  0  0  0  0  0  0  0  0  0  0
    2.4890   -1.0286    0.9067 H   0  0  0  0  0  0  0  0  0  0  0  0
    3.2917    0.3484    2.8915 H   0  0  0  0  0  0  0  0  0  0  0  0
    2.8486    1.8229    1.8474 H   0  0  0  0  0  0  0  0  0  0  0  0
    5.1680    1.3448    1.2402 H   0  0  0  0  0  0  0  0  0  0  0  0
    4.8961   -0.4029    1.3977 H   0  0  0  0  0  0  0  0  0  0  0  0
    3.9768   -0.5875   -0.7515 H   0  0  0  0  0  0  0  0  0  0  0  0
    4.8780    0.9093   -0.9787 H   0  0  0  0  0  0  0  0  0  0  0  0
    2.6670    1.1283   -1.8290 H   0  0  0  0  0  0  0  0  0  0  0  0
   -2.6583    3.5137    1.7325 H   0  0  0  0  0  0  0  0  0  0  0  0
   -3.6009    1.8833    0.6448 H   0  0  0  0  0  0  0  0  0  0  0  0
   -2.2190    3.1888   -1.5042 H   0  0  0  0  0  0  0  0  0  0  0  0
   -1.1509    1.4844    1.1663 H   0  0  0  0  0  0  0  0  0  0  0  0
   -0.7872    2.1586   -0.4523 H   0  0  0  0  0  0  0  0  0  0  0  0
   -2.0099    0.3946   -1.5700 H   0  0  0  0  0  0  0  0  0  0  0  0
   -2.8329   -0.6108    1.1679 H   0  0  0  0  0  0  0  0  0  0  0  0
   -3.7430   -0.3412   -0.3268 H   0  0  0  0  0  0  0  0  0  0  0  0
   -3.6183   -2.5384   -0.5780 H   0  0  0  0  0  0  0  0  0  0  0  0
   -3.1159   -3.5171    1.3502 H   0  0  0  0  0  0  0  0  0  0  0  0
   -1.9933   -2.2412    1.8284 H   0  0  0  0  0  0  0  0  0  0  0  0
   -1.4625   -3.6382    0.7555 H   0  0  0  0  0  0  0  0  0  0  0  0
   -2.2241   -2.9277   -2.2779 H   0  0  0  0  0  0  0  0  0  0  0  0
   -1.0943   -3.4339   -1.0219 H   0  0  0  0  0  0  0  0  0  0  0  0
    0.2515   -2.0647   -2.1659 H   0  0  0  0  0  0  0  0  0  0  0  0
   -1.0084   -0.9109   -2.6984 H   0  0  0  0  0  0  0  0  0  0  0  0
   -0.3848   -1.2601    0.2770 H   0  0  0  0  0  0  0  0  0  0  0  0
    1.2953   -0.1376   -1.7967 H   0  0  0  0  0  0  0  0  0  0  0  0
    1.1274    1.6406    0.4634 H   0  0  0  0  0  0  0  0  0  0  0  0
    2.4890   -1.0286    0.9067 H   0  0  0  0  0  0  0  0  0  0  0  0
    3.2917    0.3484    2.8915 H   0  0  0  0  0  0  0  0  0  0  0  0
    2.8486    1.8229    1.8474 H   0  0  0  0  0  0  0  0  0  0  0  0
    5.1680    1.3448    1.2402 H   0  0  0  0  0  0  0  0  0  0  0  0
    4.8961   -0.4029    1.3977 H   0  0  0  0  0  0  0  0  0  0  0  0
    3.9768   -0.5875   -0.7515 H   0  0  0  0  0  0  0  0  0  0  0  0
    4.8780    0.9093   -0.9787 H   0  0  0  0  0  0  0  0  0  0  0  0
    2.6670    1.1283   -1.8290 H   0  0  0  0  0  0  0  0  0  0  0  0
  1  2  1  0
  2  3  1  0
  2  4  1  0
  4  5  1  0
  5  6  1  0
  6  7  1  0
  7  8  1  0
  7  9  1  0
  9 10  1  0
  5 11  1  0
 10 11  1  0
 11 12  1  0
 12 13  1  0
 13 14  1  0
 14 15  1  0
 14 16  1  0
 16 17  1  0
 17 18  1  0
 13 19  1  0
 18 19  1  0
 19 20  1  0
 21 22  1  0
 22 23  1  0
 22 24  1  0
 24 25  1  0
 25 26  1  0
 26 27  1  0
 27 28  1  0
 27 29  1  0
 29 30  1  0
 25 31  1  0
 30 31  1  0
 31 32  1  0
 32 33  1  0
 33 34  1  0
 34 35  1  0
 34 36  1  0
 36 37  1  0
 37 38  1  0
 33 39  1  0
 38 39  1  0
 39 40  1  0
  1 41  1  0
  2 42  1  0
  3 43  1  0
  4 44  1  0
  4 45  1  0
  5 46  1  0
  6 47  1  0
  6 48  1  0
  7 49  1  0
  8 50  1  0
  8 51  1  0
  8 52  1  0
  9 53  1  0
  9 54  1  0
 10 55  1  0
 10 56  1  0
 11 57  1  0
 12 58  1  0
 13 59  1  0
 14 60  1  0
 16 61  1  0
 16 62  1  0
 17 63  1  0
 17 64  1  0
 18 65  1  0
 18 66  1  0
 19 67  1  0
 21 68  1  0
 22 69  1  0
 23 70  1  0
 24 71  1  0
 24 72  1  0
 25 73  1  0
 26 74  1  0
 26 75  1  0
 27 76  1  0
 28 77  1  0
 28 78  1  0
 28 79  1  0
 29 80  1  0
 29 81  1  0
 30 82  1  0
 30 83  1  0
 31 84  1  0
 32 85  1  0
 33 86  1  0
 34 87  1  0
 36 88  1  0
 36 89  1  0
 37 90  1  0
 37 91  1  0
 38 92  1  0
 38 93  1  0
 39 94  1  0
M  END
>  <PDBID>  (1) 
4OTY

>  <PDB ID>  (1) 
4OTY

>  <Generic Name>  (1) 
Lumiracoxib

>  <Brand Name>  (1) 
Prexige

>  <DrugBank ID>  (1) 
DB01283

>  <ATC Codes>  (1) 
M01AH06

>  <Ligand ID>  (1) 
LUR

>  <Target Name>  (1) 
Prostaglandin G/H synthase 1

>  <UniProt ID>  (1) 
P23219

>  <PDB ID.1>  (1) 
4OTY

>  <Seq. Identity>  (1) 
62%

$$$$
