PDB_DB01137_06
     RDKit          3D

116122  0  0  0  0  0  0  0  0999 V2000
   -4.7409    1.6054   -0.0356 C   0  0  0  0  0  0  0  0  0  0  0  0
    1.9588    1.7093   -1.4892 F   0  0  0  0  0  0  0  0  0  0  0  0
    5.1576   -0.2248    0.7745 N   0  0  0  0  0  0  0  0  0  0  0  0
   -4.9885    2.5146   -1.0359 O   0  0  0  0  0  0  0  0  0  0  0  0
    2.8916    0.5433    0.9080 C   0  0  0  0  0  0  0  0  0  0  0  0
    2.5206   -0.3968   -0.0789 N   0  0  0  0  0  0  0  0  0  0  0  0
    0.2418   -2.1799    0.5392 O   0  0  0  0  0  0  0  0  0  0  0  0
    3.5389   -0.7707   -0.9951 C   0  0  0  0  0  0  0  0  0  0  0  0
   -2.1684   -0.9227    0.8361 N   0  0  0  0  0  0  0  0  0  0  0  0
   -2.7470    2.7167   -1.1187 O   0  0  0  0  0  0  0  0  0  0  0  0
   -2.1488   -2.3388    0.9073 C   0  0  2  0  0  0  0  0  0  0  0  0
   -4.2765    2.2387    1.1083 O   0  0  0  0  0  0  0  0  0  0  0  0
    1.2041   -0.3769   -0.5844 C   0  0  0  0  0  0  0  0  0  0  0  0
   -1.1467   -0.3911    0.0055 C   0  0  0  0  0  0  0  0  0  0  0  0
    0.2239   -0.7874    0.4965 C   0  0  0  0  0  0  0  0  0  0  0  0
    4.0677   -0.0367    1.6772 C   0  0  0  0  0  0  0  0  0  0  0  0
    4.8633   -1.0102   -0.3750 C   0  0  0  0  0  0  0  0  0  0  0  0
   -0.7479   -2.7565    1.2860 C   0  0  0  0  0  0  0  0  0  0  0  0
   -1.3378    1.1323    0.0402 C   0  0  0  0  0  0  0  0  0  0  0  0
    0.8188    0.9405   -1.2162 C   0  0  0  0  0  0  0  0  0  0  0  0
   -3.4493   -0.3127    0.7174 C   0  0  0  0  0  0  0  0  0  0  0  0
   -0.0674    1.7880   -0.3669 C   0  0  0  0  0  0  0  0  0  0  0  0
   -2.6470   -3.0168   -0.3422 C   0  0  0  0  0  0  0  0  0  0  0  0
   -2.4912    1.3788   -0.9011 C   0  0  0  0  0  0  0  0  0  0  0  0
    5.9681    0.9244    0.5386 C   0  0  0  0  0  0  0  0  0  0  0  0
   -3.6603    0.5891   -0.4319 C   0  0  0  0  0  0  0  0  0  0  0  0
    3.3124    1.4984    0.4603 H   0  0  0  0  0  0  0  0  0  0  0  0
    2.0764    0.7971    1.5876 H   0  0  0  0  0  0  0  0  0  0  0  0
    3.2129   -1.7502   -1.4584 H   0  0  0  0  0  0  0  0  0  0  0  0
    3.5499   -0.0578   -1.8470 H   0  0  0  0  0  0  0  0  0  0  0  0
   -2.8266   -2.6583    1.7338 H   0  0  0  0  0  0  0  0  0  0  0  0
    4.4062    0.6605    2.4703 H   0  0  0  0  0  0  0  0  0  0  0  0
    3.7840   -0.9847    2.1698 H   0  0  0  0  0  0  0  0  0  0  0  0
    5.0537   -2.0829   -0.1131 H   0  0  0  0  0  0  0  0  0  0  0  0
    5.6454   -0.7723   -1.1513 H   0  0  0  0  0  0  0  0  0  0  0  0
   -0.6936   -3.8561    1.1005 H   0  0  0  0  0  0  0  0  0  0  0  0
   -0.5946   -2.6411    2.3850 H   0  0  0  0  0  0  0  0  0  0  0  0
   -3.6169    0.2858    1.6608 H   0  0  0  0  0  0  0  0  0  0  0  0
   -0.3307    2.6892   -0.9820 H   0  0  0  0  0  0  0  0  0  0  0  0
   -2.6548   -4.1094   -0.1861 H   0  0  0  0  0  0  0  0  0  0  0  0
   -3.7068   -2.7060   -0.4725 H   0  0  0  0  0  0  0  0  0  0  0  0
   -2.1187   -2.7054   -1.2563 H   0  0  0  0  0  0  0  0  0  0  0  0
    6.0262    1.5256    1.4576 H   0  0  0  0  0  0  0  0  0  0  0  0
    5.6319    1.4859   -0.3512 H   0  0  0  0  0  0  0  0  0  0  0  0
    7.0333    0.6274    0.3103 H   0  0  0  0  0  0  0  0  0  0  0  0
   -4.7409    1.6054   -0.0356 C   0  0  0  0  0  0  0  0  0  0  0  0
    1.9588    1.7093   -1.4892 F   0  0  0  0  0  0  0  0  0  0  0  0
    5.1576   -0.2248    0.7745 N   0  0  0  0  0  0  0  0  0  0  0  0
   -4.9885    2.5146   -1.0359 O   0  0  0  0  0  0  0  0  0  0  0  0
    2.8916    0.5433    0.9080 C   0  0  0  0  0  0  0  0  0  0  0  0
    2.5206   -0.3968   -0.0789 N   0  0  0  0  0  0  0  0  0  0  0  0
    0.2418   -2.1799    0.5392 O   0  0  0  0  0  0  0  0  0  0  0  0
    3.5389   -0.7707   -0.9951 C   0  0  0  0  0  0  0  0  0  0  0  0
   -2.1684   -0.9227    0.8361 N   0  0  0  0  0  0  0  0  0  0  0  0
   -2.7470    2.7167   -1.1187 O   0  0  0  0  0  0  0  0  0  0  0  0
   -2.1488   -2.3388    0.9073 C   0  0  2  0  0  0  0  0  0  0  0  0
   -4.2765    2.2387    1.1083 O   0  0  0  0  0  0  0  0  0  0  0  0
    1.2041   -0.3769   -0.5844 C   0  0  0  0  0  0  0  0  0  0  0  0
   -1.1467   -0.3911    0.0055 C   0  0  0  0  0  0  0  0  0  0  0  0
    0.2239   -0.7874    0.4965 C   0  0  0  0  0  0  0  0  0  0  0  0
    4.0677   -0.0367    1.6772 C   0  0  0  0  0  0  0  0  0  0  0  0
    4.8633   -1.0102   -0.3750 C   0  0  0  0  0  0  0  0  0  0  0  0
   -0.7479   -2.7565    1.2860 C   0  0  0  0  0  0  0  0  0  0  0  0
   -1.3378    1.1323    0.0402 C   0  0  0  0  0  0  0  0  0  0  0  0
    0.8188    0.9405   -1.2162 C   0  0  0  0  0  0  0  0  0  0  0  0
   -3.4493   -0.3127    0.7174 C   0  0  0  0  0  0  0  0  0  0  0  0
   -0.0674    1.7880   -0.3669 C   0  0  0  0  0  0  0  0  0  0  0  0
   -2.6470   -3.0168   -0.3422 C   0  0  0  0  0  0  0  0  0  0  0  0
   -2.4912    1.3788   -0.9011 C   0  0  0  0  0  0  0  0  0  0  0  0
    5.9681    0.9244    0.5386 C   0  0  0  0  0  0  0  0  0  0  0  0
   -3.6603    0.5891   -0.4319 C   0  0  0  0  0  0  0  0  0  0  0  0
    3.3124    1.4984    0.4603 H   0  0  0  0  0  0  0  0  0  0  0  0
    2.0764    0.7971    1.5876 H   0  0  0  0  0  0  0  0  0  0  0  0
    3.2129   -1.7502   -1.4584 H   0  0  0  0  0  0  0  0  0  0  0  0
    3.5499   -0.0578   -1.8470 H   0  0  0  0  0  0  0  0  0  0  0  0
   -2.8266   -2.6583    1.7338 H   0  0  0  0  0  0  0  0  0  0  0  0
    4.4062    0.6605    2.4703 H   0  0  0  0  0  0  0  0  0  0  0  0
    3.7840   -0.9847    2.1698 H   0  0  0  0  0  0  0  0  0  0  0  0
    5.0537   -2.0829   -0.1131 H   0  0  0  0  0  0  0  0  0  0  0  0
    5.6454   -0.7723   -1.1513 H   0  0  0  0  0  0  0  0  0  0  0  0
   -0.6936   -3.8561    1.1005 H   0  0  0  0  0  0  0  0  0  0  0  0
   -0.5946   -2.6411    2.3850 H   0  0  0  0  0  0  0  0  0  0  0  0
   -3.6169    0.2858    1.6608 H   0  0  0  0  0  0  0  0  0  0  0  0
   -0.3307    2.6892   -0.9820 H   0  0  0  0  0  0  0  0  0  0  0  0
   -2.6548   -4.1094   -0.1861 H   0  0  0  0  0  0  0  0  0  0  0  0
   -3.7068   -2.7060   -0.4725 H   0  0  0  0  0  0  0  0  0  0  0  0
   -2.1187   -2.7054   -1.2563 H   0  0  0  0  0  0  0  0  0  0  0  0
    6.0262    1.5256    1.4576 H   0  0  0  0  0  0  0  0  0  0  0  0
    5.6319    1.4859   -0.3512 H   0  0  0  0  0  0  0  0  0  0  0  0
    7.0333    0.6274    0.3103 H   0  0  0  0  0  0  0  0  0  0  0  0
   -5.6663    1.0614    0.2458 H   0  0  0  0  0  0  0  0  0  0  0  0
   -5.8583    2.9211   -0.8890 H   0  0  0  0  0  0  0  0  0  0  0  0
   -2.4041    3.2951   -0.4076 H   0  0  0  0  0  0  0  0  0  0  0  0
   -4.9420    2.8922    1.4295 H   0  0  0  0  0  0  0  0  0  0  0  0
    1.1319   -1.1431   -1.3841 H   0  0  0  0  0  0  0  0  0  0  0  0
   -1.2491   -0.7389   -1.0577 H   0  0  0  0  0  0  0  0  0  0  0  0
    0.4083   -0.3271    1.4707 H   0  0  0  0  0  0  0  0  0  0  0  0
   -1.6743    1.4119    1.0555 H   0  0  0  0  0  0  0  0  0  0  0  0
    0.3214    0.7921   -2.1924 H   0  0  0  0  0  0  0  0  0  0  0  0
   -4.2257   -1.0983    0.7315 H   0  0  0  0  0  0  0  0  0  0  0  0
    0.4154    2.1934    0.5455 H   0  0  0  0  0  0  0  0  0  0  0  0
   -2.1750    0.9520   -1.8928 H   0  0  0  0  0  0  0  0  0  0  0  0
   -4.1094   -0.0166   -1.2637 H   0  0  0  0  0  0  0  0  0  0  0  0
   -5.6663    1.0614    0.2458 H   0  0  0  0  0  0  0  0  0  0  0  0
   -5.8583    2.9211   -0.8890 H   0  0  0  0  0  0  0  0  0  0  0  0
   -2.4041    3.2951   -0.4076 H   0  0  0  0  0  0  0  0  0  0  0  0
   -4.9420    2.8922    1.4295 H   0  0  0  0  0  0  0  0  0  0  0  0
    1.1319   -1.1431   -1.3841 H   0  0  0  0  0  0  0  0  0  0  0  0
   -1.2491   -0.7389   -1.0577 H   0  0  0  0  0  0  0  0  0  0  0  0
    0.4083   -0.3271    1.4707 H   0  0  0  0  0  0  0  0  0  0  0  0
   -1.6743    1.4119    1.0555 H   0  0  0  0  0  0  0  0  0  0  0  0
    0.3214    0.7921   -2.1924 H   0  0  0  0  0  0  0  0  0  0  0  0
   -4.2257   -1.0983    0.7315 H   0  0  0  0  0  0  0  0  0  0  0  0
    0.4154    2.1934    0.5455 H   0  0  0  0  0  0  0  0  0  0  0  0
   -2.1750    0.9520   -1.8928 H   0  0  0  0  0  0  0  0  0  0  0  0
   -4.1094   -0.0166   -1.2637 H   0  0  0  0  0  0  0  0  0  0  0  0
  1  4  1  0
  5  6  1  0
  6  8  1  0
  9 11  1  0
  1 12  1  0
  6 13  1  0
  9 14  1  0
  7 15  1  0
 13 15  1  0
 14 15  1  0
  3 16  1  0
  5 16  1  0
  3 17  1  0
  8 17  1  0
  7 18  1  0
 11 18  1  0
 14 19  1  0
  2 20  1  0
 13 20  1  0
  9 21  1  0
 19 22  1  0
 20 22  1  0
 11 23  1  0
 19 24  1  0
 24 10  1  0
  3 25  1  0
  1 26  1  0
 21 26  1  0
 24 26  1  0
  5 27  1  0
  5 28  1  0
  8 29  1  0
  8 30  1  0
 11 31  1  1
 16 32  1  0
 16 33  1  0
 17 34  1  0
 17 35  1  0
 18 36  1  0
 18 37  1  0
 21 38  1  0
 22 39  1  0
 23 40  1  0
 23 41  1  0
 23 42  1  0
 25 43  1  0
 25 44  1  0
 25 45  1  0
 46 49  1  0
 50 51  1  0
 51 53  1  0
 54 56  1  0
 46 57  1  0
 51 58  1  0
 54 59  1  0
 52 60  1  0
 58 60  1  0
 59 60  1  0
 48 61  1  0
 50 61  1  0
 48 62  1  0
 53 62  1  0
 52 63  1  0
 56 63  1  0
 59 64  1  0
 47 65  1  0
 58 65  1  0
 54 66  1  0
 64 67  1  0
 65 67  1  0
 56 68  1  0
 64 69  1  0
 69 55  1  0
 48 70  1  0
 46 71  1  0
 66 71  1  0
 69 71  1  0
 50 72  1  0
 50 73  1  0
 53 74  1  0
 53 75  1  0
 56 76  1  1
 61 77  1  0
 61 78  1  0
 62 79  1  0
 62 80  1  0
 63 81  1  0
 63 82  1  0
 66 83  1  0
 67 84  1  0
 68 85  1  0
 68 86  1  0
 68 87  1  0
 70 88  1  0
 70 89  1  0
 70 90  1  0
  1 91  1  0
  4 92  1  0
 10 93  1  0
 12 94  1  0
 13 95  1  0
 14 96  1  0
 15 97  1  0
 19 98  1  0
 20 99  1  0
 21100  1  0
 22101  1  0
 24102  1  0
 26103  1  0
 46104  1  0
 49105  1  0
 55106  1  0
 57107  1  0
 58108  1  0
 59109  1  0
 60110  1  0
 64111  1  0
 65112  1  0
 66113  1  0
 67114  1  0
 69115  1  0
 71116  1  0
M  END
>  <PDBID>  (1) 
4Z2D

>  <PDB ID>  (1) 
4Z2D

>  <Generic Name>  (1) 
Levofloxacin

>  <Brand Name>  (1) 
Act Levofloxacin#Apo-levofloxacin#Auro-levofloxacin#Ava-levofloxacin#Dom-levofloxacin#Iquix#Levaquin#Levaquin 25mg/ml#Levaquin 500mg#Levaquin 5mg/ml#Levaquin 750mg#Levofloxacin#Levofloxacin In 5% Dextrose Injection#Levofloxacin Injection#Mylan-levofloxacin#Ntp-levofloxacin#PHL-levofloxacin#PMS-levofloxacin#Quinsair#Quixin#Sandoz Levofloxacin#Teva-levofloxacin#Cravit#Elequine#Floxel#Leroxacin#Levokacin#Levox#Levoxacin#Mosardal#Nofaxin#Reskuin#Tavanic

>  <DrugBank ID>  (1) 
DB01137

>  <ATC Codes>  (1) 
A02BD10#J01RA05#S01AE05#J01MA12

>  <Ligand ID>  (1) 
LFX

>  <Target Name>  (1) 
DNA gyrase subunit A

>  <UniProt ID>  (1) 
P43700

>  <PDB ID.1>  (1) 
4Z2D

>  <Seq. Identity>  (1) 
50%

$$$$
