PDB_DB00480_09
     RDKit          3D

 88 92  0  0  0  0  0  0  0  0999 V2000
    1.4247    0.1072   -0.4670 C   0  0  1  0  0  0  0  0  0  0  0  0
    1.9495    1.0971    0.5663 C   0  0  0  0  0  0  0  0  0  0  0  0
    3.4117    0.8616    0.8363 C   0  0  0  0  0  0  0  0  0  0  0  0
    4.0945    0.7263   -0.4993 C   0  0  0  0  0  0  0  0  0  0  0  0
    3.6107   -0.4080   -1.2391 N   0  0  0  0  0  0  0  0  0  0  0  0
    2.4348   -1.0196   -0.6282 C   0  0  0  0  0  0  0  0  0  0  0  0
   -1.7936   -0.7791    0.7368 C   0  0  0  0  0  0  0  0  0  0  0  0
   -2.0451   -0.8954   -0.7425 C   0  0  0  0  0  0  0  0  0  0  0  0
   -0.7279   -0.5056   -1.4076 C   0  0  0  0  0  0  0  0  0  0  0  0
    0.1068   -0.2777   -0.2918 N   0  0  0  0  0  0  0  0  0  0  0  0
   -0.2997   -1.1290    0.7461 C   0  0  0  0  0  0  0  0  0  0  0  0
   -2.5569    1.5894    0.3392 C   0  0  0  0  0  0  0  0  0  0  0  0
   -3.7437    0.8999   -0.2748 C   0  0  0  0  0  0  0  0  0  0  0  0
   -3.2055   -0.1123   -1.2476 C   0  0  0  0  0  0  0  0  0  0  0  0
   -1.8873    0.6198    1.2647 C   0  0  0  0  0  0  0  0  0  0  0  0
    0.2446   -0.9029    1.9872 O   0  0  0  0  0  0  0  0  0  0  0  0
   -4.2535   -0.9890   -1.7657 N   0  0  0  0  0  0  0  0  0  0  0  0
    1.9361   -1.9146   -1.5874 O   0  0  0  0  0  0  0  0  0  0  0  0
    3.9025    1.9286   -1.1868 O   0  0  0  0  0  0  0  0  0  0  0  0
    1.4247    0.1072   -0.4670 C   0  0  1  0  0  0  0  0  0  0  0  0
    1.9495    1.0971    0.5663 C   0  0  0  0  0  0  0  0  0  0  0  0
    3.4117    0.8616    0.8363 C   0  0  0  0  0  0  0  0  0  0  0  0
    4.0945    0.7263   -0.4993 C   0  0  0  0  0  0  0  0  0  0  0  0
    3.6107   -0.4080   -1.2391 N   0  0  0  0  0  0  0  0  0  0  0  0
    2.4348   -1.0196   -0.6282 C   0  0  0  0  0  0  0  0  0  0  0  0
   -1.7936   -0.7791    0.7368 C   0  0  0  0  0  0  0  0  0  0  0  0
   -2.0451   -0.8954   -0.7425 C   0  0  0  0  0  0  0  0  0  0  0  0
   -0.7279   -0.5056   -1.4076 C   0  0  0  0  0  0  0  0  0  0  0  0
    0.1068   -0.2777   -0.2918 N   0  0  0  0  0  0  0  0  0  0  0  0
   -0.2997   -1.1290    0.7461 C   0  0  0  0  0  0  0  0  0  0  0  0
   -2.5569    1.5894    0.3392 C   0  0  0  0  0  0  0  0  0  0  0  0
   -3.7437    0.8999   -0.2748 C   0  0  0  0  0  0  0  0  0  0  0  0
   -3.2055   -0.1123   -1.2476 C   0  0  0  0  0  0  0  0  0  0  0  0
   -1.8873    0.6198    1.2647 C   0  0  0  0  0  0  0  0  0  0  0  0
    0.2446   -0.9029    1.9872 O   0  0  0  0  0  0  0  0  0  0  0  0
   -4.2535   -0.9890   -1.7657 N   0  0  0  0  0  0  0  0  0  0  0  0
    1.9361   -1.9146   -1.5874 O   0  0  0  0  0  0  0  0  0  0  0  0
    3.9025    1.9286   -1.1868 O   0  0  0  0  0  0  0  0  0  0  0  0
    1.4834    0.6654   -1.4389 H   0  0  0  0  0  0  0  0  0  0  0  0
    1.4118    1.0519    1.5195 H   0  0  0  0  0  0  0  0  0  0  0  0
    1.8583    2.1518    0.2078 H   0  0  0  0  0  0  0  0  0  0  0  0
    3.5082   -0.0557    1.4338 H   0  0  0  0  0  0  0  0  0  0  0  0
    3.8180    1.7544    1.3523 H   0  0  0  0  0  0  0  0  0  0  0  0
    5.1879    0.6555   -0.2962 H   0  0  0  0  0  0  0  0  0  0  0  0
    4.3859   -1.0897   -1.3127 H   0  0  0  0  0  0  0  0  0  0  0  0
    2.6583   -1.5323    0.3152 H   0  0  0  0  0  0  0  0  0  0  0  0
   -2.3459   -1.5224    1.3394 H   0  0  0  0  0  0  0  0  0  0  0  0
   -2.2384   -1.9784   -0.9473 H   0  0  0  0  0  0  0  0  0  0  0  0
   -0.8570    0.4280   -1.9739 H   0  0  0  0  0  0  0  0  0  0  0  0
   -0.3581   -1.3435   -2.0163 H   0  0  0  0  0  0  0  0  0  0  0  0
   -0.2551   -2.2201    0.5263 H   0  0  0  0  0  0  0  0  0  0  0  0
   -2.9158    2.4536    0.9261 H   0  0  0  0  0  0  0  0  0  0  0  0
   -1.9022    1.9887   -0.4507 H   0  0  0  0  0  0  0  0  0  0  0  0
   -4.4130    0.4796    0.4875 H   0  0  0  0  0  0  0  0  0  0  0  0
   -4.2846    1.6702   -0.8758 H   0  0  0  0  0  0  0  0  0  0  0  0
   -2.8496    0.4670   -2.1378 H   0  0  0  0  0  0  0  0  0  0  0  0
   -0.8954    1.0669    1.5244 H   0  0  0  0  0  0  0  0  0  0  0  0
   -2.4616    0.6269    2.2224 H   0  0  0  0  0  0  0  0  0  0  0  0
    0.4780   -1.7412    2.4603 H   0  0  0  0  0  0  0  0  0  0  0  0
   -4.9228   -1.2276   -1.0074 H   0  0  0  0  0  0  0  0  0  0  0  0
   -3.7444   -1.8459   -2.1098 H   0  0  0  0  0  0  0  0  0  0  0  0
    2.7254   -2.4467   -1.8858 H   0  0  0  0  0  0  0  0  0  0  0  0
    4.3262    2.6473   -0.6661 H   0  0  0  0  0  0  0  0  0  0  0  0
    1.4834    0.6654   -1.4389 H   0  0  0  0  0  0  0  0  0  0  0  0
    1.4118    1.0519    1.5195 H   0  0  0  0  0  0  0  0  0  0  0  0
    1.8583    2.1518    0.2078 H   0  0  0  0  0  0  0  0  0  0  0  0
    3.5082   -0.0557    1.4338 H   0  0  0  0  0  0  0  0  0  0  0  0
    3.8180    1.7544    1.3523 H   0  0  0  0  0  0  0  0  0  0  0  0
    5.1879    0.6555   -0.2962 H   0  0  0  0  0  0  0  0  0  0  0  0
    4.3859   -1.0897   -1.3127 H   0  0  0  0  0  0  0  0  0  0  0  0
    2.6583   -1.5323    0.3152 H   0  0  0  0  0  0  0  0  0  0  0  0
   -2.3459   -1.5224    1.3394 H   0  0  0  0  0  0  0  0  0  0  0  0
   -2.2384   -1.9784   -0.9473 H   0  0  0  0  0  0  0  0  0  0  0  0
   -0.8570    0.4280   -1.9739 H   0  0  0  0  0  0  0  0  0  0  0  0
   -0.3581   -1.3435   -2.0163 H   0  0  0  0  0  0  0  0  0  0  0  0
   -0.2551   -2.2201    0.5263 H   0  0  0  0  0  0  0  0  0  0  0  0
   -2.9158    2.4536    0.9261 H   0  0  0  0  0  0  0  0  0  0  0  0
   -1.9022    1.9887   -0.4507 H   0  0  0  0  0  0  0  0  0  0  0  0
   -4.4130    0.4796    0.4875 H   0  0  0  0  0  0  0  0  0  0  0  0
   -4.2846    1.6702   -0.8758 H   0  0  0  0  0  0  0  0  0  0  0  0
   -2.8496    0.4670   -2.1378 H   0  0  0  0  0  0  0  0  0  0  0  0
   -0.8954    1.0669    1.5244 H   0  0  0  0  0  0  0  0  0  0  0  0
   -2.4616    0.6269    2.2224 H   0  0  0  0  0  0  0  0  0  0  0  0
    0.4780   -1.7412    2.4603 H   0  0  0  0  0  0  0  0  0  0  0  0
   -4.9228   -1.2276   -1.0074 H   0  0  0  0  0  0  0  0  0  0  0  0
   -3.7444   -1.8459   -2.1098 H   0  0  0  0  0  0  0  0  0  0  0  0
    2.7254   -2.4467   -1.8858 H   0  0  0  0  0  0  0  0  0  0  0  0
    4.3262    2.6473   -0.6661 H   0  0  0  0  0  0  0  0  0  0  0  0
  1  2  1  0
  2  3  1  0
  3  4  1  0
  4  5  1  0
  1  6  1  0
  5  6  1  0
  7  8  1  0
  8  9  1  0
  1 10  1  0
  9 10  1  0
  7 11  1  0
 10 11  1  0
 12 13  1  0
  8 14  1  0
 13 14  1  0
  7 15  1  0
 12 15  1  0
 11 16  1  0
 14 17  1  0
  6 18  1  0
  4 19  1  0
 20 21  1  0
 21 22  1  0
 22 23  1  0
 23 24  1  0
 20 25  1  0
 24 25  1  0
 26 27  1  0
 27 28  1  0
 20 29  1  0
 28 29  1  0
 26 30  1  0
 29 30  1  0
 31 32  1  0
 27 33  1  0
 32 33  1  0
 26 34  1  0
 31 34  1  0
 30 35  1  0
 33 36  1  0
 25 37  1  0
 23 38  1  0
  1 39  1  6
  2 40  1  0
  2 41  1  0
  3 42  1  0
  3 43  1  0
  4 44  1  0
  5 45  1  0
  6 46  1  0
  7 47  1  0
  8 48  1  0
  9 49  1  0
  9 50  1  0
 11 51  1  0
 12 52  1  0
 12 53  1  0
 13 54  1  0
 13 55  1  0
 14 56  1  0
 15 57  1  0
 15 58  1  0
 16 59  1  0
 17 60  1  0
 17 61  1  0
 18 62  1  0
 19 63  1  0
 20 64  1  6
 21 65  1  0
 21 66  1  0
 22 67  1  0
 22 68  1  0
 23 69  1  0
 24 70  1  0
 25 71  1  0
 26 72  1  0
 27 73  1  0
 28 74  1  0
 28 75  1  0
 30 76  1  0
 31 77  1  0
 31 78  1  0
 32 79  1  0
 32 80  1  0
 33 81  1  0
 34 82  1  0
 34 83  1  0
 35 84  1  0
 36 85  1  0
 36 86  1  0
 37 87  1  0
 38 88  1  0
M  END
>  <PDBID>  (1) 
5FQD

>  <PDB ID>  (1) 
5FQD

>  <Generic Name>  (1) 
Lenalidomide

>  <Brand Name>  (1) 
Revlimid#Ladevina#Lenangio

>  <DrugBank ID>  (1) 
DB00480

>  <ATC Codes>  (1) 
L04AX04

>  <Ligand ID>  (1) 
LVY

>  <Target Name>  (1) 
Protein cereblon

>  <UniProt ID>  (1) 
Q96SW2

>  <PDB ID.1>  (1) 
5FQD

>  <Seq. Identity>  (1) 
100%

$$$$
