PDB_DB00205_03
     RDKit          3D

 84 86  0  0  0  0  0  0  0  0999 V2000
   -1.9600   -0.7939    1.8636 N   0  0  0  0  0  0  0  0  0  0  0  0
   -2.8553   -0.7272    0.7556 C   0  0  0  0  0  0  0  0  0  0  0  0
   -0.7578   -0.0226    1.6798 C   0  0  0  0  0  0  0  0  0  0  0  0
   -0.4113    0.0009    0.2002 C   0  0  0  0  0  0  0  0  0  0  0  0
   -1.4072    0.8749   -0.4103 C   0  0  0  0  0  0  0  0  0  0  0  0
   -2.7228    0.3114   -0.1780 N   0  0  0  0  0  0  0  0  0  0  0  0
    1.0176    0.1122    0.0468 C   0  0  0  0  0  0  0  0  0  0  0  0
    1.6802   -1.1868    0.5192 C   0  0  0  0  0  0  0  0  0  0  0  0
    3.0359   -0.9261    1.0814 C   0  0  0  0  0  0  0  0  0  0  0  0
    3.6702    0.1618    0.2028 C   0  0  0  0  0  0  0  0  0  0  0  0
    3.1218    0.0686   -1.1797 C   0  0  0  0  0  0  0  0  0  0  0  0
    1.6403    0.4629   -1.2410 C   0  0  0  0  0  0  0  0  0  0  0  0
    0.3000   -0.2822    2.5712 N   0  0  0  0  0  0  0  0  0  0  0  0
   -2.8693   -2.0459    0.0998 N   0  0  0  0  0  0  0  0  0  0  0  0
   -1.3326    1.2234   -1.8496 C   0  0  0  0  0  0  0  0  0  0  0  0
   -2.5356    2.1473   -2.1362 C   0  0  0  0  0  0  0  0  0  0  0  0
    5.4060   -0.2063    0.1306 Cl  0  0  0  0  0  0  0  0  0  0  0  0
   -1.9600   -0.7939    1.8636 N   0  0  0  0  0  0  0  0  0  0  0  0
   -2.8553   -0.7272    0.7556 C   0  0  0  0  0  0  0  0  0  0  0  0
   -0.7578   -0.0226    1.6798 C   0  0  0  0  0  0  0  0  0  0  0  0
   -0.4113    0.0009    0.2002 C   0  0  0  0  0  0  0  0  0  0  0  0
   -1.4072    0.8749   -0.4103 C   0  0  0  0  0  0  0  0  0  0  0  0
   -2.7228    0.3114   -0.1780 N   0  0  0  0  0  0  0  0  0  0  0  0
    1.0176    0.1122    0.0468 C   0  0  0  0  0  0  0  0  0  0  0  0
    1.6802   -1.1868    0.5192 C   0  0  0  0  0  0  0  0  0  0  0  0
    3.0359   -0.9261    1.0814 C   0  0  0  0  0  0  0  0  0  0  0  0
    3.6702    0.1618    0.2028 C   0  0  0  0  0  0  0  0  0  0  0  0
    3.1218    0.0686   -1.1797 C   0  0  0  0  0  0  0  0  0  0  0  0
    1.6403    0.4629   -1.2410 C   0  0  0  0  0  0  0  0  0  0  0  0
    0.3000   -0.2822    2.5712 N   0  0  0  0  0  0  0  0  0  0  0  0
   -2.8693   -2.0459    0.0998 N   0  0  0  0  0  0  0  0  0  0  0  0
   -1.3326    1.2234   -1.8496 C   0  0  0  0  0  0  0  0  0  0  0  0
   -2.5356    2.1473   -2.1362 C   0  0  0  0  0  0  0  0  0  0  0  0
    5.4060   -0.2063    0.1306 Cl  0  0  0  0  0  0  0  0  0  0  0  0
   -1.6883   -1.7812    2.0554 H   0  0  0  0  0  0  0  0  0  0  0  0
   -3.8952   -0.6509    1.2010 H   0  0  0  0  0  0  0  0  0  0  0  0
   -1.0893    1.0499    1.9059 H   0  0  0  0  0  0  0  0  0  0  0  0
   -0.7186   -1.0650   -0.1310 H   0  0  0  0  0  0  0  0  0  0  0  0
   -1.4274    1.8599    0.1562 H   0  0  0  0  0  0  0  0  0  0  0  0
   -3.0727   -0.0481   -1.0943 H   0  0  0  0  0  0  0  0  0  0  0  0
    1.4423    0.8756    0.7866 H   0  0  0  0  0  0  0  0  0  0  0  0
    1.8754   -1.7952   -0.4349 H   0  0  0  0  0  0  0  0  0  0  0  0
    1.0235   -1.8385    1.0908 H   0  0  0  0  0  0  0  0  0  0  0  0
    3.0023   -0.6001    2.1356 H   0  0  0  0  0  0  0  0  0  0  0  0
    3.6642   -1.8450    1.0621 H   0  0  0  0  0  0  0  0  0  0  0  0
    3.5638    1.1470    0.6693 H   0  0  0  0  0  0  0  0  0  0  0  0
    3.3052   -0.9472   -1.5737 H   0  0  0  0  0  0  0  0  0  0  0  0
    3.7371    0.7800   -1.8072 H   0  0  0  0  0  0  0  0  0  0  0  0
    1.2487   -0.0257   -2.1304 H   0  0  0  0  0  0  0  0  0  0  0  0
    1.6979    1.5736   -1.3198 H   0  0  0  0  0  0  0  0  0  0  0  0
    0.0824   -0.8050    3.4199 H   0  0  0  0  0  0  0  0  0  0  0  0
    0.8341    0.5918    2.7652 H   0  0  0  0  0  0  0  0  0  0  0  0
   -2.4056   -2.7658    0.6661 H   0  0  0  0  0  0  0  0  0  0  0  0
   -3.7970   -2.2838   -0.2712 H   0  0  0  0  0  0  0  0  0  0  0  0
   -0.4772    1.8541   -2.1590 H   0  0  0  0  0  0  0  0  0  0  0  0
   -1.4895    0.3480   -2.5005 H   0  0  0  0  0  0  0  0  0  0  0  0
   -2.6323    2.9023   -1.3279 H   0  0  0  0  0  0  0  0  0  0  0  0
   -3.4687    1.6033   -2.2153 H   0  0  0  0  0  0  0  0  0  0  0  0
   -2.3357    2.6938   -3.1047 H   0  0  0  0  0  0  0  0  0  0  0  0
   -1.6883   -1.7812    2.0554 H   0  0  0  0  0  0  0  0  0  0  0  0
   -3.8952   -0.6509    1.2010 H   0  0  0  0  0  0  0  0  0  0  0  0
   -1.0893    1.0499    1.9059 H   0  0  0  0  0  0  0  0  0  0  0  0
   -0.7186   -1.0650   -0.1310 H   0  0  0  0  0  0  0  0  0  0  0  0
   -1.4274    1.8599    0.1562 H   0  0  0  0  0  0  0  0  0  0  0  0
   -3.0727   -0.0481   -1.0943 H   0  0  0  0  0  0  0  0  0  0  0  0
    1.4423    0.8756    0.7866 H   0  0  0  0  0  0  0  0  0  0  0  0
    1.8754   -1.7952   -0.4349 H   0  0  0  0  0  0  0  0  0  0  0  0
    1.0235   -1.8385    1.0908 H   0  0  0  0  0  0  0  0  0  0  0  0
    3.0023   -0.6001    2.1356 H   0  0  0  0  0  0  0  0  0  0  0  0
    3.6642   -1.8450    1.0621 H   0  0  0  0  0  0  0  0  0  0  0  0
    3.5638    1.1470    0.6693 H   0  0  0  0  0  0  0  0  0  0  0  0
    3.3052   -0.9472   -1.5737 H   0  0  0  0  0  0  0  0  0  0  0  0
    3.7371    0.7800   -1.8072 H   0  0  0  0  0  0  0  0  0  0  0  0
    1.2487   -0.0257   -2.1304 H   0  0  0  0  0  0  0  0  0  0  0  0
    1.6979    1.5736   -1.3198 H   0  0  0  0  0  0  0  0  0  0  0  0
    0.0824   -0.8050    3.4199 H   0  0  0  0  0  0  0  0  0  0  0  0
    0.8341    0.5918    2.7652 H   0  0  0  0  0  0  0  0  0  0  0  0
   -2.4056   -2.7658    0.6661 H   0  0  0  0  0  0  0  0  0  0  0  0
   -3.7970   -2.2838   -0.2712 H   0  0  0  0  0  0  0  0  0  0  0  0
   -0.4772    1.8541   -2.1590 H   0  0  0  0  0  0  0  0  0  0  0  0
   -1.4895    0.3480   -2.5005 H   0  0  0  0  0  0  0  0  0  0  0  0
   -2.6323    2.9023   -1.3279 H   0  0  0  0  0  0  0  0  0  0  0  0
   -3.4687    1.6033   -2.2153 H   0  0  0  0  0  0  0  0  0  0  0  0
   -2.3357    2.6938   -3.1047 H   0  0  0  0  0  0  0  0  0  0  0  0
  1  2  1  0
  1  3  1  0
  3  4  1  0
  4  5  1  0
  2  6  1  0
  5  6  1  0
  4  7  1  0
  7  8  1  0
  8  9  1  0
  9 10  1  0
 10 11  1  0
  7 12  1  0
 11 12  1  0
  3 13  1  0
  2 14  1  0
  5 15  1  0
 15 16  1  0
 10 17  1  0
 18 19  1  0
 18 20  1  0
 20 21  1  0
 21 22  1  0
 19 23  1  0
 22 23  1  0
 21 24  1  0
 24 25  1  0
 25 26  1  0
 26 27  1  0
 27 28  1  0
 24 29  1  0
 28 29  1  0
 20 30  1  0
 19 31  1  0
 22 32  1  0
 32 33  1  0
 27 34  1  0
  1 35  1  0
  2 36  1  0
  3 37  1  0
  4 38  1  0
  5 39  1  0
  6 40  1  0
  7 41  1  0
  8 42  1  0
  8 43  1  0
  9 44  1  0
  9 45  1  0
 10 46  1  0
 11 47  1  0
 11 48  1  0
 12 49  1  0
 12 50  1  0
 13 51  1  0
 13 52  1  0
 14 53  1  0
 14 54  1  0
 15 55  1  0
 15 56  1  0
 16 57  1  0
 16 58  1  0
 16 59  1  0
 18 60  1  0
 19 61  1  0
 20 62  1  0
 21 63  1  0
 22 64  1  0
 23 65  1  0
 24 66  1  0
 25 67  1  0
 25 68  1  0
 26 69  1  0
 26 70  1  0
 27 71  1  0
 28 72  1  0
 28 73  1  0
 29 74  1  0
 29 75  1  0
 30 76  1  0
 30 77  1  0
 31 78  1  0
 31 79  1  0
 32 80  1  0
 32 81  1  0
 33 82  1  0
 33 83  1  0
 33 84  1  0
M  END
>  <PDBID>  (1) 
3QFX

>  <PDB ID>  (1) 
3QFX

>  <Generic Name>  (1) 
Pyrimethamine

>  <Brand Name>  (1) 
Daraprim#Fansidar Tablets#Pyrimethamine Leucovorin

>  <DrugBank ID>  (1) 
DB00205

>  <ATC Codes>  (1) 
P01BF04#P01BD01#P01BD51

>  <Ligand ID>  (1) 
CP6

>  <Target Name>  (1) 
Dihydrofolate reductase

>  <UniProt ID>  (1) 
P00374

>  <PDB ID.1>  (1) 
3QFX

>  <Seq. Identity>  (1) 
32%

$$$$
