PDB_DB00127_06
     RDKit          3D

 80 78  0  0  0  0  0  0  0  0999 V2000
    5.8550    0.8077    0.0824 N   0  0  0  0  0  0  0  0  0  0  0  0
    4.6993    1.1316    0.8675 C   0  0  0  0  0  0  0  0  0  0  0  0
    4.2120   -0.0112    1.7322 C   0  0  0  0  0  0  0  0  0  0  0  0
    3.8460   -1.2177    0.8922 C   0  0  0  0  0  0  0  0  0  0  0  0
    2.8275   -0.8502   -0.0184 N   0  0  0  0  0  0  0  0  0  0  0  0
    1.5399   -0.5586    0.4929 C   0  0  0  0  0  0  0  0  0  0  0  0
    0.6619   -0.1522   -0.6855 C   0  0  0  0  0  0  0  0  0  0  0  0
   -0.7598    0.1583   -0.2621 C   0  0  0  0  0  0  0  0  0  0  0  0
   -1.5006    0.5408   -1.5187 C   0  0  0  0  0  0  0  0  0  0  0  0
   -2.8963    0.8142   -1.3118 N   0  0  0  0  0  0  0  0  0  0  0  0
   -3.6064   -0.4083   -1.0028 C   0  0  0  0  0  0  0  0  0  0  0  0
   -5.0711   -0.1136   -0.8650 C   0  0  0  0  0  0  0  0  0  0  0  0
   -5.2515    0.8810    0.2749 C   0  0  0  0  0  0  0  0  0  0  0  0
   -4.7414    0.2802    1.5176 N   0  0  0  0  0  0  0  0  0  0  0  0
    5.8550    0.8077    0.0824 N   0  0  0  0  0  0  0  0  0  0  0  0
    4.6993    1.1316    0.8675 C   0  0  0  0  0  0  0  0  0  0  0  0
    4.2120   -0.0112    1.7322 C   0  0  0  0  0  0  0  0  0  0  0  0
    3.8460   -1.2177    0.8922 C   0  0  0  0  0  0  0  0  0  0  0  0
    2.8275   -0.8502   -0.0184 N   0  0  0  0  0  0  0  0  0  0  0  0
    1.5399   -0.5586    0.4929 C   0  0  0  0  0  0  0  0  0  0  0  0
    0.6619   -0.1522   -0.6855 C   0  0  0  0  0  0  0  0  0  0  0  0
   -0.7598    0.1583   -0.2621 C   0  0  0  0  0  0  0  0  0  0  0  0
   -1.5006    0.5408   -1.5187 C   0  0  0  0  0  0  0  0  0  0  0  0
   -2.8963    0.8142   -1.3118 N   0  0  0  0  0  0  0  0  0  0  0  0
   -3.6064   -0.4083   -1.0028 C   0  0  0  0  0  0  0  0  0  0  0  0
   -5.0711   -0.1136   -0.8650 C   0  0  0  0  0  0  0  0  0  0  0  0
   -5.2515    0.8810    0.2749 C   0  0  0  0  0  0  0  0  0  0  0  0
   -4.7414    0.2802    1.5176 N   0  0  0  0  0  0  0  0  0  0  0  0
    6.4527    0.0751    0.4579 H   0  0  0  0  0  0  0  0  0  0  0  0
    5.6869    0.7534   -0.9350 H   0  0  0  0  0  0  0  0  0  0  0  0
    4.9202    2.0312    1.4707 H   0  0  0  0  0  0  0  0  0  0  0  0
    3.8971    1.4304    0.1649 H   0  0  0  0  0  0  0  0  0  0  0  0
    3.3316    0.3194    2.3102 H   0  0  0  0  0  0  0  0  0  0  0  0
    4.9777   -0.2608    2.5013 H   0  0  0  0  0  0  0  0  0  0  0  0
    3.5597   -2.0363    1.6001 H   0  0  0  0  0  0  0  0  0  0  0  0
    4.7310   -1.5494    0.2985 H   0  0  0  0  0  0  0  0  0  0  0  0
    3.0668   -0.5679   -0.9559 H   0  0  0  0  0  0  0  0  0  0  0  0
    1.6178    0.2807    1.2053 H   0  0  0  0  0  0  0  0  0  0  0  0
    1.0588   -1.3943    1.0658 H   0  0  0  0  0  0  0  0  0  0  0  0
    1.1281    0.6773   -1.2140 H   0  0  0  0  0  0  0  0  0  0  0  0
    0.5974   -0.9926   -1.4337 H   0  0  0  0  0  0  0  0  0  0  0  0
   -0.6951    1.0477    0.4150 H   0  0  0  0  0  0  0  0  0  0  0  0
   -1.2217   -0.6538    0.2749 H   0  0  0  0  0  0  0  0  0  0  0  0
   -1.3296   -0.1759   -2.3479 H   0  0  0  0  0  0  0  0  0  0  0  0
   -1.0634    1.5154   -1.8988 H   0  0  0  0  0  0  0  0  0  0  0  0
   -3.3050    1.2074   -2.1849 H   0  0  0  0  0  0  0  0  0  0  0  0
   -3.3893   -1.1158   -1.8341 H   0  0  0  0  0  0  0  0  0  0  0  0
   -3.2019   -0.8057   -0.0348 H   0  0  0  0  0  0  0  0  0  0  0  0
   -5.3941    0.4243   -1.7972 H   0  0  0  0  0  0  0  0  0  0  0  0
   -5.7028   -1.0242   -0.7447 H   0  0  0  0  0  0  0  0  0  0  0  0
   -6.3147    1.1588    0.4355 H   0  0  0  0  0  0  0  0  0  0  0  0
   -4.6048    1.7516    0.0601 H   0  0  0  0  0  0  0  0  0  0  0  0
   -3.7117    0.4330    1.5102 H   0  0  0  0  0  0  0  0  0  0  0  0
   -4.9060   -0.7430    1.4155 H   0  0  0  0  0  0  0  0  0  0  0  0
    6.4527    0.0751    0.4579 H   0  0  0  0  0  0  0  0  0  0  0  0
    5.6869    0.7534   -0.9350 H   0  0  0  0  0  0  0  0  0  0  0  0
    4.9202    2.0312    1.4707 H   0  0  0  0  0  0  0  0  0  0  0  0
    3.8971    1.4304    0.1649 H   0  0  0  0  0  0  0  0  0  0  0  0
    3.3316    0.3194    2.3102 H   0  0  0  0  0  0  0  0  0  0  0  0
    4.9777   -0.2608    2.5013 H   0  0  0  0  0  0  0  0  0  0  0  0
    3.5597   -2.0363    1.6001 H   0  0  0  0  0  0  0  0  0  0  0  0
    4.7310   -1.5494    0.2985 H   0  0  0  0  0  0  0  0  0  0  0  0
    3.0668   -0.5679   -0.9559 H   0  0  0  0  0  0  0  0  0  0  0  0
    1.6178    0.2807    1.2053 H   0  0  0  0  0  0  0  0  0  0  0  0
    1.0588   -1.3943    1.0658 H   0  0  0  0  0  0  0  0  0  0  0  0
    1.1281    0.6773   -1.2140 H   0  0  0  0  0  0  0  0  0  0  0  0
    0.5974   -0.9926   -1.4337 H   0  0  0  0  0  0  0  0  0  0  0  0
   -0.6951    1.0477    0.4150 H   0  0  0  0  0  0  0  0  0  0  0  0
   -1.2217   -0.6538    0.2749 H   0  0  0  0  0  0  0  0  0  0  0  0
   -1.3296   -0.1759   -2.3479 H   0  0  0  0  0  0  0  0  0  0  0  0
   -1.0634    1.5154   -1.8988 H   0  0  0  0  0  0  0  0  0  0  0  0
   -3.3050    1.2074   -2.1849 H   0  0  0  0  0  0  0  0  0  0  0  0
   -3.3893   -1.1158   -1.8341 H   0  0  0  0  0  0  0  0  0  0  0  0
   -3.2019   -0.8057   -0.0348 H   0  0  0  0  0  0  0  0  0  0  0  0
   -5.3941    0.4243   -1.7972 H   0  0  0  0  0  0  0  0  0  0  0  0
   -5.7028   -1.0242   -0.7447 H   0  0  0  0  0  0  0  0  0  0  0  0
   -6.3147    1.1588    0.4355 H   0  0  0  0  0  0  0  0  0  0  0  0
   -4.6048    1.7516    0.0601 H   0  0  0  0  0  0  0  0  0  0  0  0
   -3.7117    0.4330    1.5102 H   0  0  0  0  0  0  0  0  0  0  0  0
   -4.9060   -0.7430    1.4155 H   0  0  0  0  0  0  0  0  0  0  0  0
  1  2  1  0
  2  3  1  0
  3  4  1  0
  4  5  1  0
  5  6  1  0
  6  7  1  0
  7  8  1  0
  8  9  1  0
  9 10  1  0
 10 11  1  0
 11 12  1  0
 12 13  1  0
 13 14  1  0
 15 16  1  0
 16 17  1  0
 17 18  1  0
 18 19  1  0
 19 20  1  0
 20 21  1  0
 21 22  1  0
 22 23  1  0
 23 24  1  0
 24 25  1  0
 25 26  1  0
 26 27  1  0
 27 28  1  0
  1 29  1  0
  1 30  1  0
  2 31  1  0
  2 32  1  0
  3 33  1  0
  3 34  1  0
  4 35  1  0
  4 36  1  0
  5 37  1  0
  6 38  1  0
  6 39  1  0
  7 40  1  0
  7 41  1  0
  8 42  1  0
  8 43  1  0
  9 44  1  0
  9 45  1  0
 10 46  1  0
 11 47  1  0
 11 48  1  0
 12 49  1  0
 12 50  1  0
 13 51  1  0
 13 52  1  0
 14 53  1  0
 14 54  1  0
 15 55  1  0
 15 56  1  0
 16 57  1  0
 16 58  1  0
 17 59  1  0
 17 60  1  0
 18 61  1  0
 18 62  1  0
 19 63  1  0
 20 64  1  0
 20 65  1  0
 21 66  1  0
 21 67  1  0
 22 68  1  0
 22 69  1  0
 23 70  1  0
 23 71  1  0
 24 72  1  0
 25 73  1  0
 25 74  1  0
 26 75  1  0
 26 76  1  0
 27 77  1  0
 27 78  1  0
 28 79  1  0
 28 80  1  0
M  END
>  <PDBID>  (1) 
3KU9

>  <PDB ID>  (1) 
3KU9

>  <Generic Name>  (1) 
Spermine

>  <Brand Name>  (1) 
nan

>  <DrugBank ID>  (1) 
DB00127

>  <ATC Codes>  (1) 
nan

>  <Ligand ID>  (1) 
SPM

>  <Target Name>  (1) 
Spermine oxidase

>  <UniProt ID>  (1) 
Q9NWM0

>  <PDB ID.1>  (1) 
3KU9

>  <Seq. Identity>  (1) 
31%

$$$$
