PDB_DB01144_02
     RDKit          3D

 32 32  0  0  0  0  0  0  0  0999 V2000
   -2.7045   -0.4681    0.1489 S   0  0  0  0  0  0  0  0  0  0  0  0
   -3.1449    0.6213   -0.8523 O   0  0  0  0  0  0  0  0  0  0  0  0
   -3.2976   -1.6198    0.3819 O   0  0  0  0  0  0  0  0  0  0  0  0
   -3.1260    0.6757    1.8007 N   0  0  0  0  0  0  0  0  0  0  0  0
    2.3159   -1.0673    0.1587 S   0  0  0  0  0  0  0  0  0  0  0  0
    3.9235   -0.0863   -0.1902 O   0  0  0  0  0  0  0  0  0  0  0  0
    2.1644   -0.7283    1.6921 O   0  0  0  0  0  0  0  0  0  0  0  0
    2.7473   -2.4518   -0.2192 N   0  0  0  0  0  0  0  0  0  0  0  0
   -0.9231   -0.2496    0.5098 C   0  0  0  0  0  0  0  0  0  0  0  0
   -0.1693   -0.6696   -0.7335 C   0  0  0  0  0  0  0  0  0  0  0  0
    1.2444   -0.1910   -0.7677 C   0  0  0  0  0  0  0  0  0  0  0  0
    1.3365    1.2923   -0.3541 C   0  0  0  0  0  0  0  0  0  0  0  0
   -0.0659    1.8821   -0.2912 C   0  0  0  0  0  0  0  0  0  0  0  0
   -0.7334    1.1546    0.8816 C   0  0  0  0  0  0  0  0  0  0  0  0
    2.3928    2.2099   -1.4232 Cl  0  0  0  0  0  0  0  0  0  0  0  0
    0.0837    3.5827    0.1215 Cl  0  0  0  0  0  0  0  0  0  0  0  0
   -3.1004    1.5926   -0.6494 H   0  0  0  0  0  0  0  0  0  0  0  0
   -3.2723   -2.5843    0.4054 H   0  0  0  0  0  0  0  0  0  0  0  0
   -2.9294   -0.1142    2.4232 H   0  0  0  0  0  0  0  0  0  0  0  0
   -4.1269    0.6639    1.5237 H   0  0  0  0  0  0  0  0  0  0  0  0
    3.6192    0.7306    0.2444 H   0  0  0  0  0  0  0  0  0  0  0  0
    3.0383   -0.6547    2.1774 H   0  0  0  0  0  0  0  0  0  0  0  0
    2.2028   -3.0262   -0.9092 H   0  0  0  0  0  0  0  0  0  0  0  0
    3.0010   -3.1182    0.5510 H   0  0  0  0  0  0  0  0  0  0  0  0
   -0.6757   -0.9921    1.3015 H   0  0  0  0  0  0  0  0  0  0  0  0
   -0.1565   -1.7782   -0.7635 H   0  0  0  0  0  0  0  0  0  0  0  0
   -0.7694   -0.3274   -1.5992 H   0  0  0  0  0  0  0  0  0  0  0  0
    1.5406   -0.1890   -1.8398 H   0  0  0  0  0  0  0  0  0  0  0  0
    1.7398    1.3787    0.6739 H   0  0  0  0  0  0  0  0  0  0  0  0
   -0.5543    1.6744   -1.2397 H   0  0  0  0  0  0  0  0  0  0  0  0
    0.0398    1.1814    1.7112 H   0  0  0  0  0  0  0  0  0  0  0  0
   -1.6403    1.6759    1.2043 H   0  0  0  0  0  0  0  0  0  0  0  0
  1  2  1  0
  1  3  1  0
  1  4  1  0
  5  6  1  0
  5  7  1  0
  5  8  1  0
  1  9  1  0
  9 10  1  0
  5 11  1  0
 10 11  1  0
 11 12  1  0
 12 13  1  0
  9 14  1  0
 13 14  1  0
 12 15  1  0
 13 16  1  0
  2 17  1  0
  3 18  1  0
  4 19  1  0
  4 20  1  0
  6 21  1  0
  7 22  1  0
  8 23  1  0
  8 24  1  0
  9 25  1  0
 10 26  1  0
 10 27  1  0
 11 28  1  0
 12 29  1  0
 13 30  1  0
 14 31  1  0
 14 32  1  0
M  END
>  <PDBID>  (1) 
2POU

>  <PDB ID>  (1) 
2POU

>  <Generic Name>  (1) 
Diclofenamide

>  <Brand Name>  (1) 
Daranide#Keveyis#Oratrol

>  <DrugBank ID>  (1) 
DB01144

>  <ATC Codes>  (1) 
S01EC02

>  <Ligand ID>  (1) 
I7A

>  <Target Name>  (1) 
Carbonic anhydrase 1

>  <UniProt ID>  (1) 
P00915

>  <PDB ID.1>  (1) 
2POU

>  <Seq. Identity>  (1) 
61%

$$$$
