PDB_DB06603_09
     RDKit          3D

134138  0  0  0  0  0  0  0  0999 V2000
    6.9735    1.3175    1.9718 O   0  0  0  0  0  0  0  0  0  0  0  0
    7.6033    0.4285    1.0941 C   0  0  0  0  0  0  0  0  0  0  0  0
    8.2895    1.2119    0.0719 N   0  0  0  0  0  0  0  0  0  0  0  0
    9.2065    2.0095    0.6679 O   0  0  0  0  0  0  0  0  0  0  0  0
    6.5702   -0.4774    0.5074 C   0  0  0  0  0  0  0  0  0  0  0  0
    5.5338    0.3184   -0.2469 C   0  0  0  0  0  0  0  0  0  0  0  0
    4.4898   -0.6173   -0.8365 C   0  0  0  0  0  0  0  0  0  0  0  0
    3.7837   -1.4076    0.2257 C   0  0  0  0  0  0  0  0  0  0  0  0
    2.3821   -1.8228   -0.1785 C   0  0  0  0  0  0  0  0  0  0  0  0
    3.4658    0.2003   -1.5872 C   0  0  0  0  0  0  0  0  0  0  0  0
    2.3707    0.5783   -0.5841 C   0  0  0  0  0  0  0  0  0  0  0  0
    1.4839   -0.6396   -0.3412 C   0  0  0  0  0  0  0  0  0  0  0  0
    0.7190   -0.4078    0.9425 C   0  0  0  0  0  0  0  0  0  0  0  0
   -0.1707    0.6990    0.8999 N   0  0  0  0  0  0  0  0  0  0  0  0
   -1.3089    0.5825    0.0475 C   0  0  0  0  0  0  0  0  0  0  0  0
   -2.3270   -0.4039    0.4547 C   0  0  0  0  0  0  0  0  0  0  0  0
   -3.5138   -0.5852   -0.3645 C   0  0  0  0  0  0  0  0  0  0  0  0
   -4.4929    0.4309   -0.6685 C   0  0  0  0  0  0  0  0  0  0  0  0
   -5.7744   -0.3585   -0.8636 C   0  0  0  0  0  0  0  0  0  0  0  0
   -5.4632   -1.7540   -0.6377 N   0  0  0  0  0  0  0  0  0  0  0  0
   -4.3005   -1.7873    0.1877 C   0  0  0  0  0  0  0  0  0  0  0  0
   -4.4996   -1.7745    1.6430 C   0  0  0  0  0  0  0  0  0  0  0  0
   -6.8702   -0.0038    0.0968 C   0  0  0  0  0  0  0  0  0  0  0  0
   -7.2391    1.4465    0.0844 C   0  0  0  0  0  0  0  0  0  0  0  0
   -6.0400    2.2561   -0.2271 C   0  0  0  0  0  0  0  0  0  0  0  0
   -4.7265    1.5875    0.2239 C   0  0  0  0  0  0  0  0  0  0  0  0
    6.9735    1.3175    1.9718 O   0  0  0  0  0  0  0  0  0  0  0  0
    7.6033    0.4285    1.0941 C   0  0  0  0  0  0  0  0  0  0  0  0
    8.2895    1.2119    0.0719 N   0  0  0  0  0  0  0  0  0  0  0  0
    9.2065    2.0095    0.6679 O   0  0  0  0  0  0  0  0  0  0  0  0
    6.5702   -0.4774    0.5074 C   0  0  0  0  0  0  0  0  0  0  0  0
    5.5338    0.3184   -0.2469 C   0  0  0  0  0  0  0  0  0  0  0  0
    4.4898   -0.6173   -0.8365 C   0  0  0  0  0  0  0  0  0  0  0  0
    3.7837   -1.4076    0.2257 C   0  0  0  0  0  0  0  0  0  0  0  0
    2.3821   -1.8228   -0.1785 C   0  0  0  0  0  0  0  0  0  0  0  0
    3.4658    0.2003   -1.5872 C   0  0  0  0  0  0  0  0  0  0  0  0
    2.3707    0.5783   -0.5841 C   0  0  0  0  0  0  0  0  0  0  0  0
    1.4839   -0.6396   -0.3412 C   0  0  0  0  0  0  0  0  0  0  0  0
    0.7190   -0.4078    0.9425 C   0  0  0  0  0  0  0  0  0  0  0  0
   -0.1707    0.6990    0.8999 N   0  0  0  0  0  0  0  0  0  0  0  0
   -1.3089    0.5825    0.0475 C   0  0  0  0  0  0  0  0  0  0  0  0
   -2.3270   -0.4039    0.4547 C   0  0  0  0  0  0  0  0  0  0  0  0
   -3.5138   -0.5852   -0.3645 C   0  0  0  0  0  0  0  0  0  0  0  0
   -4.4929    0.4309   -0.6685 C   0  0  0  0  0  0  0  0  0  0  0  0
   -5.7744   -0.3585   -0.8636 C   0  0  0  0  0  0  0  0  0  0  0  0
   -5.4632   -1.7540   -0.6377 N   0  0  0  0  0  0  0  0  0  0  0  0
   -4.3005   -1.7873    0.1877 C   0  0  0  0  0  0  0  0  0  0  0  0
   -4.4996   -1.7745    1.6430 C   0  0  0  0  0  0  0  0  0  0  0  0
   -6.8702   -0.0038    0.0968 C   0  0  0  0  0  0  0  0  0  0  0  0
   -7.2391    1.4465    0.0844 C   0  0  0  0  0  0  0  0  0  0  0  0
   -6.0400    2.2561   -0.2271 C   0  0  0  0  0  0  0  0  0  0  0  0
   -4.7265    1.5875    0.2239 C   0  0  0  0  0  0  0  0  0  0  0  0
    6.5217    2.0260    1.4409 H   0  0  0  0  0  0  0  0  0  0  0  0
    8.3139   -0.1852    1.6911 H   0  0  0  0  0  0  0  0  0  0  0  0
    8.8392    0.4883   -0.4890 H   0  0  0  0  0  0  0  0  0  0  0  0
    9.0261    2.9706    0.4359 H   0  0  0  0  0  0  0  0  0  0  0  0
    7.0436   -1.1888   -0.2105 H   0  0  0  0  0  0  0  0  0  0  0  0
    6.0543   -0.9997    1.3309 H   0  0  0  0  0  0  0  0  0  0  0  0
    5.0238    1.0347    0.4329 H   0  0  0  0  0  0  0  0  0  0  0  0
    5.9674    0.8989   -1.0858 H   0  0  0  0  0  0  0  0  0  0  0  0
    5.0224   -1.3264   -1.4961 H   0  0  0  0  0  0  0  0  0  0  0  0
    3.7415   -0.7864    1.1405 H   0  0  0  0  0  0  0  0  0  0  0  0
    4.3417   -2.3282    0.5103 H   0  0  0  0  0  0  0  0  0  0  0  0
    1.9913   -2.4456    0.6593 H   0  0  0  0  0  0  0  0  0  0  0  0
    2.4374   -2.4635   -1.0823 H   0  0  0  0  0  0  0  0  0  0  0  0
    3.0343   -0.4397   -2.4005 H   0  0  0  0  0  0  0  0  0  0  0  0
    3.8916    1.0890   -2.0606 H   0  0  0  0  0  0  0  0  0  0  0  0
    2.9016    0.8911    0.3387 H   0  0  0  0  0  0  0  0  0  0  0  0
    1.8142    1.4316   -0.9828 H   0  0  0  0  0  0  0  0  0  0  0  0
    0.8203   -0.7096   -1.2244 H   0  0  0  0  0  0  0  0  0  0  0  0
    0.2570   -1.3501    1.3255 H   0  0  0  0  0  0  0  0  0  0  0  0
    1.4937   -0.1587    1.7165 H   0  0  0  0  0  0  0  0  0  0  0  0
   -0.3131    1.2024    1.7786 H   0  0  0  0  0  0  0  0  0  0  0  0
   -0.9333    0.2936   -0.9699 H   0  0  0  0  0  0  0  0  0  0  0  0
   -1.7677    1.5917    0.0367 H   0  0  0  0  0  0  0  0  0  0  0  0
   -2.5402   -0.2130    1.5521 H   0  0  0  0  0  0  0  0  0  0  0  0
   -1.8072   -1.4121    0.5000 H   0  0  0  0  0  0  0  0  0  0  0  0
   -3.1603   -1.0123   -1.3659 H   0  0  0  0  0  0  0  0  0  0  0  0
   -4.2844    0.8857   -1.6882 H   0  0  0  0  0  0  0  0  0  0  0  0
   -6.1909   -0.2789   -1.8873 H   0  0  0  0  0  0  0  0  0  0  0  0
   -5.3090   -2.2563   -1.5489 H   0  0  0  0  0  0  0  0  0  0  0  0
   -3.7566   -2.7443   -0.0732 H   0  0  0  0  0  0  0  0  0  0  0  0
   -5.4442   -2.3538    1.8651 H   0  0  0  0  0  0  0  0  0  0  0  0
   -4.6004   -0.8250    2.1509 H   0  0  0  0  0  0  0  0  0  0  0  0
   -3.6985   -2.3895    2.1485 H   0  0  0  0  0  0  0  0  0  0  0  0
   -7.7739   -0.5652   -0.2680 H   0  0  0  0  0  0  0  0  0  0  0  0
   -6.7136   -0.3214    1.1255 H   0  0  0  0  0  0  0  0  0  0  0  0
   -8.0015    1.6425   -0.7232 H   0  0  0  0  0  0  0  0  0  0  0  0
   -7.6751    1.7996    1.0335 H   0  0  0  0  0  0  0  0  0  0  0  0
   -5.9119    2.4130   -1.3358 H   0  0  0  0  0  0  0  0  0  0  0  0
   -6.0715    3.2693    0.2102 H   0  0  0  0  0  0  0  0  0  0  0  0
   -4.7435    1.3983    1.2957 H   0  0  0  0  0  0  0  0  0  0  0  0
   -3.9847    2.4002   -0.0498 H   0  0  0  0  0  0  0  0  0  0  0  0
    6.5217    2.0260    1.4409 H   0  0  0  0  0  0  0  0  0  0  0  0
    8.3139   -0.1852    1.6911 H   0  0  0  0  0  0  0  0  0  0  0  0
    8.8392    0.4883   -0.4890 H   0  0  0  0  0  0  0  0  0  0  0  0
    9.0261    2.9706    0.4359 H   0  0  0  0  0  0  0  0  0  0  0  0
    7.0436   -1.1888   -0.2105 H   0  0  0  0  0  0  0  0  0  0  0  0
    6.0543   -0.9997    1.3309 H   0  0  0  0  0  0  0  0  0  0  0  0
    5.0238    1.0347    0.4329 H   0  0  0  0  0  0  0  0  0  0  0  0
    5.9674    0.8989   -1.0858 H   0  0  0  0  0  0  0  0  0  0  0  0
    5.0224   -1.3264   -1.4961 H   0  0  0  0  0  0  0  0  0  0  0  0
    3.7415   -0.7864    1.1405 H   0  0  0  0  0  0  0  0  0  0  0  0
    4.3417   -2.3282    0.5103 H   0  0  0  0  0  0  0  0  0  0  0  0
    1.9913   -2.4456    0.6593 H   0  0  0  0  0  0  0  0  0  0  0  0
    2.4374   -2.4635   -1.0823 H   0  0  0  0  0  0  0  0  0  0  0  0
    3.0343   -0.4397   -2.4005 H   0  0  0  0  0  0  0  0  0  0  0  0
    3.8916    1.0890   -2.0606 H   0  0  0  0  0  0  0  0  0  0  0  0
    2.9016    0.8911    0.3387 H   0  0  0  0  0  0  0  0  0  0  0  0
    1.8142    1.4316   -0.9828 H   0  0  0  0  0  0  0  0  0  0  0  0
    0.8203   -0.7096   -1.2244 H   0  0  0  0  0  0  0  0  0  0  0  0
    0.2570   -1.3501    1.3255 H   0  0  0  0  0  0  0  0  0  0  0  0
    1.4937   -0.1587    1.7165 H   0  0  0  0  0  0  0  0  0  0  0  0
   -0.3131    1.2024    1.7786 H   0  0  0  0  0  0  0  0  0  0  0  0
   -0.9333    0.2936   -0.9699 H   0  0  0  0  0  0  0  0  0  0  0  0
   -1.7677    1.5917    0.0367 H   0  0  0  0  0  0  0  0  0  0  0  0
   -2.5402   -0.2130    1.5521 H   0  0  0  0  0  0  0  0  0  0  0  0
   -1.8072   -1.4121    0.5000 H   0  0  0  0  0  0  0  0  0  0  0  0
   -3.1603   -1.0123   -1.3659 H   0  0  0  0  0  0  0  0  0  0  0  0
   -4.2844    0.8857   -1.6882 H   0  0  0  0  0  0  0  0  0  0  0  0
   -6.1909   -0.2789   -1.8873 H   0  0  0  0  0  0  0  0  0  0  0  0
   -5.3090   -2.2563   -1.5489 H   0  0  0  0  0  0  0  0  0  0  0  0
   -3.7566   -2.7443   -0.0732 H   0  0  0  0  0  0  0  0  0  0  0  0
   -5.4442   -2.3538    1.8651 H   0  0  0  0  0  0  0  0  0  0  0  0
   -4.6004   -0.8250    2.1509 H   0  0  0  0  0  0  0  0  0  0  0  0
   -3.6985   -2.3895    2.1485 H   0  0  0  0  0  0  0  0  0  0  0  0
   -7.7739   -0.5652   -0.2680 H   0  0  0  0  0  0  0  0  0  0  0  0
   -6.7136   -0.3214    1.1255 H   0  0  0  0  0  0  0  0  0  0  0  0
   -8.0015    1.6425   -0.7232 H   0  0  0  0  0  0  0  0  0  0  0  0
   -7.6751    1.7996    1.0335 H   0  0  0  0  0  0  0  0  0  0  0  0
   -5.9119    2.4130   -1.3358 H   0  0  0  0  0  0  0  0  0  0  0  0
   -6.0715    3.2693    0.2102 H   0  0  0  0  0  0  0  0  0  0  0  0
   -4.7435    1.3983    1.2957 H   0  0  0  0  0  0  0  0  0  0  0  0
   -3.9847    2.4002   -0.0498 H   0  0  0  0  0  0  0  0  0  0  0  0
  1  2  1  0
  2  3  1  0
  4  3  1  0
  2  5  1  0
  5  6  1  0
  6  7  1  0
  7  8  1  0
  8  9  1  0
  7 10  1  0
 10 11  1  0
  9 12  1  0
 11 12  1  0
 12 13  1  0
 13 14  1  0
 14 15  1  0
 15 16  1  0
 16 17  1  0
 17 18  1  0
 18 19  1  0
 19 20  1  0
 17 21  1  0
 20 21  1  0
 21 22  1  0
 19 23  1  0
 23 24  1  0
 24 25  1  0
 18 26  1  0
 25 26  1  0
 27 28  1  0
 28 29  1  0
 30 29  1  0
 28 31  1  0
 31 32  1  0
 32 33  1  0
 33 34  1  0
 34 35  1  0
 33 36  1  0
 36 37  1  0
 35 38  1  0
 37 38  1  0
 38 39  1  0
 39 40  1  0
 40 41  1  0
 41 42  1  0
 42 43  1  0
 43 44  1  0
 44 45  1  0
 45 46  1  0
 43 47  1  0
 46 47  1  0
 47 48  1  0
 45 49  1  0
 49 50  1  0
 50 51  1  0
 44 52  1  0
 51 52  1  0
  1 53  1  0
  2 54  1  0
  3 55  1  0
  4 56  1  0
  5 57  1  0
  5 58  1  0
  6 59  1  0
  6 60  1  0
  7 61  1  0
  8 62  1  0
  8 63  1  0
  9 64  1  0
  9 65  1  0
 10 66  1  0
 10 67  1  0
 11 68  1  0
 11 69  1  0
 12 70  1  0
 13 71  1  0
 13 72  1  0
 14 73  1  0
 15 74  1  0
 15 75  1  0
 16 76  1  0
 16 77  1  0
 17 78  1  0
 18 79  1  0
 19 80  1  0
 20 81  1  0
 21 82  1  0
 22 83  1  0
 22 84  1  0
 22 85  1  0
 23 86  1  0
 23 87  1  0
 24 88  1  0
 24 89  1  0
 25 90  1  0
 25 91  1  0
 26 92  1  0
 26 93  1  0
 27 94  1  0
 28 95  1  0
 29 96  1  0
 30 97  1  0
 31 98  1  0
 31 99  1  0
 32100  1  0
 32101  1  0
 33102  1  0
 34103  1  0
 34104  1  0
 35105  1  0
 35106  1  0
 36107  1  0
 36108  1  0
 37109  1  0
 37110  1  0
 38111  1  0
 39112  1  0
 39113  1  0
 40114  1  0
 41115  1  0
 41116  1  0
 42117  1  0
 42118  1  0
 43119  1  0
 44120  1  0
 45121  1  0
 46122  1  0
 47123  1  0
 48124  1  0
 48125  1  0
 48126  1  0
 49127  1  0
 49128  1  0
 50129  1  0
 50130  1  0
 51131  1  0
 51132  1  0
 52133  1  0
 52134  1  0
M  END
>  <PDBID>  (1) 
5EF8

>  <PDB ID>  (1) 
5EF8

>  <Generic Name>  (1) 
Panobinostat

>  <Brand Name>  (1) 
Farydak

>  <DrugBank ID>  (1) 
DB06603

>  <ATC Codes>  (1) 
L01XX42

>  <Ligand ID>  (1) 
LBH

>  <Target Name>  (1) 
Histone deacetylase 9

>  <UniProt ID>  (1) 
Q9UKV0

>  <PDB ID.1>  (1) 
5EF8

>  <Seq. Identity>  (1) 
46%

$$$$
