PDB_DB00218_05
     RDKit          3D

390414  0  0  0  0  0  0  0  0999 V2000
   -0.7067    1.6978    2.5017 F   0  0  0  0  0  0  0  0  0  0  0  0
    0.0795    1.1606   -1.7790 O   0  0  0  0  0  0  0  0  0  0  0  0
    3.5284    2.3716    0.0487 O   0  0  0  0  0  0  0  0  0  0  0  0
    6.1494    1.6850    0.1822 O   0  0  0  0  0  0  0  0  0  0  0  0
    6.4021   -0.5324   -0.0635 O   0  0  0  0  0  0  0  0  0  0  0  0
   -1.9255    0.2272    0.3571 N   0  0  0  0  0  0  0  0  0  0  0  0
   -5.0563    0.1377   -1.2363 N   0  0  0  0  0  0  0  0  0  0  0  0
    2.4563   -0.8883   -0.4140 N   0  0  0  0  0  0  0  0  0  0  0  0
   -4.1321    0.3568    1.0243 C   0  0  2  0  0  0  0  0  0  0  0  0
   -4.1079    0.8222   -0.4014 C   0  0  1  0  0  0  0  0  0  0  0  0
   -2.7159    0.6851    1.4554 C   0  0  0  0  0  0  0  0  0  0  0  0
   -2.6521    0.5378   -0.8026 C   0  0  0  0  0  0  0  0  0  0  0  0
   -4.4072   -1.0915    1.2221 C   0  0  0  0  0  0  0  0  0  0  0  0
    1.8337   -2.0634   -0.8264 C   0  0  0  0  0  0  0  0  0  0  0  0
   -5.5103   -1.6133    0.3257 C   0  0  0  0  0  0  0  0  0  0  0  0
    0.7648   -2.6636    0.0688 C   0  0  0  0  0  0  0  0  0  0  0  0
    2.0182   -3.4255   -0.3324 C   0  0  0  0  0  0  0  0  0  0  0  0
   -6.0938   -0.4742   -0.4498 C   0  0  0  0  0  0  0  0  0  0  0  0
   -0.5668    0.5317    0.4827 C   0  0  1  0  0  0  0  0  0  0  0  0
    1.7745    0.3157   -0.3144 C   0  0  1  0  0  0  0  0  0  0  0  0
    0.3003    0.3110   -0.7109 C   0  0  2  0  0  0  0  0  0  0  0  0
    2.0018    0.9219    1.0545 C   0  0  0  0  0  0  0  0  0  0  0  0
   -0.3109    1.8625    1.1648 C   0  0  0  0  0  0  0  0  0  0  0  0
    3.6486   -1.0336    0.3579 C   0  0  0  0  0  0  0  0  0  0  0  0
    1.1576    2.1676    1.2447 C   0  0  0  0  0  0  0  0  0  0  0  0
    4.3314    0.2073    0.7683 C   0  0  2  0  0  0  0  0  0  0  0  0
    3.4653    1.3911    1.0101 C   0  0  0  0  0  0  0  0  0  0  0  0
    5.4971    0.5319   -0.1789 C   0  0  0  0  0  0  0  0  0  0  0  0
   -0.1152    0.6201   -2.9985 C   0  0  0  0  0  0  0  0  0  0  0  0
   -0.8937    2.9395    0.0846 F   0  0  0  0  0  0  0  0  0  0  0  0
   -0.0025    0.7244   -1.8393 O   0  0  0  0  0  0  0  0  0  0  0  0
    3.5194    2.4984    0.1133 O   0  0  0  0  0  0  0  0  0  0  0  0
    6.0033    1.7308   -0.3380 O   0  0  0  0  0  0  0  0  0  0  0  0
    6.1614   -0.5201   -0.5459 O   0  0  0  0  0  0  0  0  0  0  0  0
   -1.9417    0.2192    0.3465 N   0  0  0  0  0  0  0  0  0  0  0  0
   -5.1383    0.9765   -1.0044 N   0  0  0  0  0  0  0  0  0  0  0  0
    2.5445   -0.8608   -0.3569 N   0  0  0  0  0  0  0  0  0  0  0  0
   -4.1258    0.0846    1.0588 C   0  0  2  0  0  0  0  0  0  0  0  0
   -4.0757    1.1239   -0.0730 C   0  0  1  0  0  0  0  0  0  0  0  0
   -2.7107    0.2285    1.5741 C   0  0  0  0  0  0  0  0  0  0  0  0
   -2.7003    0.7923   -0.6917 C   0  0  0  0  0  0  0  0  0  0  0  0
   -4.2693   -1.2984    0.4687 C   0  0  0  0  0  0  0  0  0  0  0  0
    1.8132   -2.0851   -0.3657 C   0  0  0  0  0  0  0  0  0  0  0  0
   -5.3319   -1.3698   -0.5951 C   0  0  0  0  0  0  0  0  0  0  0  0
    1.0122   -2.5313    0.8385 C   0  0  0  0  0  0  0  0  0  0  0  0
    2.2601   -3.2848    0.4195 C   0  0  0  0  0  0  0  0  0  0  0  0
   -6.0924   -0.0617   -0.6456 C   0  0  0  0  0  0  0  0  0  0  0  0
   -0.5916    0.5832    0.5147 C   0  0  1  0  0  0  0  0  0  0  0  0
    1.7528    0.2975   -0.2672 C   0  0  0  0  0  0  0  0  0  0  0  0
    0.2723    0.1290   -0.6142 C   0  0  2  0  0  0  0  0  0  0  0  0
    1.9715    0.9919    1.0366 C   0  0  2  0  0  0  0  0  0  0  0  0
   -0.3393    2.0175    0.9204 C   0  0  0  0  0  0  0  0  0  0  0  0
    3.6392   -0.9637    0.5320 C   0  0  0  0  0  0  0  0  0  0  0  0
    1.1147    2.2328    1.1811 C   0  0  0  0  0  0  0  0  0  0  0  0
    4.3699    0.3319    0.7797 C   0  0  2  0  0  0  0  0  0  0  0  0
    3.4300    1.4728    1.0306 C   0  0  0  0  0  0  0  0  0  0  0  0
    5.2601    0.5645   -0.4216 C   0  0  0  0  0  0  0  0  0  0  0  0
   -0.2592   -0.1291   -2.8732 C   0  0  0  0  0  0  0  0  0  0  0  0
   -0.7691    2.9393    2.0252 F   0  0  0  0  0  0  0  0  0  0  0  0
    0.8877    0.8379   -1.6370 O   0  0  0  0  0  0  0  0  0  0  0  0
    3.8490    0.6386    2.3817 O   0  0  0  0  0  0  0  0  0  0  0  0
    5.5354    1.8765    0.8071 O   0  0  0  0  0  0  0  0  0  0  0  0
    5.8989    0.4357   -0.8638 O   0  0  0  0  0  0  0  0  0  0  0  0
   -1.9365    1.1534    0.4020 N   0  0  0  0  0  0  0  0  0  0  0  0
   -5.3592    1.3568   -0.3795 N   0  0  0  0  0  0  0  0  0  0  0  0
    1.9799   -1.1321   -0.5553 N   0  0  0  0  0  0  0  0  0  0  0  0
   -3.7741   -0.0821    0.8205 C   0  0  2  0  0  0  0  0  0  0  0  0
   -4.2245    1.3531    0.5226 C   0  0  1  0  0  0  0  0  0  0  0  0
   -2.3385    0.1654    1.2503 C   0  0  0  0  0  0  0  0  0  0  0  0
   -2.9891    1.9163   -0.1425 C   0  0  0  0  0  0  0  0  0  0  0  0
   -3.7340   -0.8800   -0.4666 C   0  0  0  0  0  0  0  0  0  0  0  0
    1.7308   -2.5090   -0.7886 C   0  0  0  0  0  0  0  0  0  0  0  0
   -5.0797   -0.8845   -1.1605 C   0  0  0  0  0  0  0  0  0  0  0  0
    1.7554   -3.4499    0.4171 C   0  0  0  0  0  0  0  0  0  0  0  0
    2.7022   -3.5901   -0.7585 C   0  0  0  0  0  0  0  0  0  0  0  0
   -6.0073    0.0603   -0.4330 C   0  0  0  0  0  0  0  0  0  0  0  0
   -0.6180    1.4946    0.1184 C   0  0  2  0  0  0  0  0  0  0  0  0
    1.0526   -0.4406    0.2804 C   0  0  2  0  0  0  0  0  0  0  0  0
    0.1289    0.4007   -0.5293 C   0  0  0  0  0  0  0  0  0  0  0  0
    1.6355    0.1882    1.5026 C   0  0  2  0  0  0  0  0  0  0  0  0
    0.0832    2.1392    1.2885 C   0  0  0  0  0  0  0  0  0  0  0  0
    3.3368   -0.7990   -0.5022 C   0  0  0  0  0  0  0  0  0  0  0  0
    0.6781    1.1349    2.1945 C   0  0  0  0  0  0  0  0  0  0  0  0
    3.6682    0.5483    0.0562 C   0  0  0  0  0  0  0  0  0  0  0  0
    2.9590    0.8615    1.3126 C   0  0  0  0  0  0  0  0  0  0  0  0
    5.1613    0.6413    0.2861 C   0  0  0  0  0  0  0  0  0  0  0  0
    0.4678    0.3618   -2.8385 C   0  0  0  0  0  0  0  0  0  0  0  0
   -0.7829    1.7582    2.4902 F   0  0  0  0  0  0  0  0  0  0  0  0
    0.0564    1.1114   -1.7719 O   0  0  0  0  0  0  0  0  0  0  0  0
    3.5160    2.4004    0.2077 O   0  0  0  0  0  0  0  0  0  0  0  0
    6.1117    1.7557    0.2579 O   0  0  0  0  0  0  0  0  0  0  0  0
    6.4183   -0.4381   -0.0849 O   0  0  0  0  0  0  0  0  0  0  0  0
   -1.9511    0.2401    0.3650 N   0  0  0  0  0  0  0  0  0  0  0  0
   -5.0811    0.2309   -1.2237 N   0  0  0  0  0  0  0  0  0  0  0  0
    2.4567   -0.8664   -0.4507 N   0  0  0  0  0  0  0  0  0  0  0  0
   -4.1510    0.3051    1.0398 C   0  0  2  0  0  0  0  0  0  0  0  0
   -4.1283    0.8990   -0.3700 C   0  0  1  0  0  0  0  0  0  0  0  0
   -2.7463    0.6845    1.4697 C   0  0  0  0  0  0  0  0  0  0  0  0
   -2.6727    0.6176   -0.7870 C   0  0  0  0  0  0  0  0  0  0  0  0
   -4.2689   -1.1789    1.0088 C   0  0  0  0  0  0  0  0  0  0  0  0
    1.7866   -2.0412   -0.7963 C   0  0  0  0  0  0  0  0  0  0  0  0
   -5.4626   -1.6523    0.2043 C   0  0  0  0  0  0  0  0  0  0  0  0
    0.7990   -2.6515    0.2094 C   0  0  0  0  0  0  0  0  0  0  0  0
    2.0606   -3.3950   -0.2857 C   0  0  0  0  0  0  0  0  0  0  0  0
   -6.0915   -0.4557   -0.4775 C   0  0  0  0  0  0  0  0  0  0  0  0
   -0.5946    0.5450    0.5061 C   0  0  1  0  0  0  0  0  0  0  0  0
    1.7553    0.3176   -0.2826 C   0  0  1  0  0  0  0  0  0  0  0  0
    0.2846    0.2976   -0.6815 C   0  0  2  0  0  0  0  0  0  0  0  0
    1.9691    0.8716    1.1004 C   0  0  0  0  0  0  0  0  0  0  0  0
   -0.3218    1.8813    1.1681 C   0  0  2  0  0  0  0  0  0  0  0  0
    3.6719   -1.0273    0.2757 C   0  0  0  0  0  0  0  0  0  0  0  0
    1.1483    2.1320    1.3209 C   0  0  0  0  0  0  0  0  0  0  0  0
    4.3270    0.2041    0.7699 C   0  0  2  0  0  0  0  0  0  0  0  0
    3.4352    1.3384    1.0971 C   0  0  0  0  0  0  0  0  0  0  0  0
    5.4775    0.6099   -0.1683 C   0  0  0  0  0  0  0  0  0  0  0  0
   -0.1508    0.5425   -2.9785 C   0  0  0  0  0  0  0  0  0  0  0  0
   -0.8808    2.8944    0.4176 F   0  0  0  0  0  0  0  0  0  0  0  0
    0.2305    1.7218   -1.4223 O   0  0  0  0  0  0  0  0  0  0  0  0
    3.7074    2.3581    0.2673 O   0  0  0  0  0  0  0  0  0  0  0  0
    6.1996    1.5160    0.4499 O   0  0  0  0  0  0  0  0  0  0  0  0
    6.3482   -0.6564   -0.1086 O   0  0  0  0  0  0  0  0  0  0  0  0
   -1.8275    0.1196    0.5167 N   0  0  0  0  0  0  0  0  0  0  0  0
   -4.9124   -0.1251   -1.2791 N   0  0  0  0  0  0  0  0  0  0  0  0
    2.3740   -0.8681   -0.5057 N   0  0  0  0  0  0  0  0  0  0  0  0
   -4.0872    0.4058    0.9759 C   0  0  2  0  0  0  0  0  0  0  0  0
   -3.8758    0.4628   -0.5253 C   0  0  1  0  0  0  0  0  0  0  0  0
   -2.6866    0.7460    1.4715 C   0  0  0  0  0  0  0  0  0  0  0  0
   -2.5457   -0.3386   -0.5773 C   0  0  0  0  0  0  0  0  0  0  0  0
   -4.5238   -0.9531    1.4188 C   0  0  0  0  0  0  0  0  0  0  0  0
    1.7555   -2.0254   -0.9861 C   0  0  0  0  0  0  0  0  0  0  0  0
   -5.5484   -1.5860    0.5050 C   0  0  0  0  0  0  0  0  0  0  0  0
    0.6566   -2.6546   -0.1639 C   0  0  0  0  0  0  0  0  0  0  0  0
    1.9610   -3.3837   -0.4236 C   0  0  0  0  0  0  0  0  0  0  0  0
   -6.0434   -0.5645   -0.4993 C   0  0  0  0  0  0  0  0  0  0  0  0
   -0.5024    0.5303    0.4858 C   0  0  1  0  0  0  0  0  0  0  0  0
    1.7625    0.3553   -0.3739 C   0  0  0  0  0  0  0  0  0  0  0  0
    0.2901    0.4718   -0.7660 C   0  0  0  0  0  0  0  0  0  0  0  0
    2.0091    0.9264    0.9962 C   0  0  2  0  0  0  0  0  0  0  0  0
   -0.2577    1.8953    1.1246 C   0  0  0  0  0  0  0  0  0  0  0  0
    3.6095   -1.0803    0.0958 C   0  0  0  0  0  0  0  0  0  0  0  0
    1.1943    2.1843    1.2244 C   0  0  0  0  0  0  0  0  0  0  0  0
    4.2985    0.0511    0.7550 C   0  0  2  0  0  0  0  0  0  0  0  0
    3.4927    1.2472    1.0521 C   0  0  0  0  0  0  0  0  0  0  0  0
    5.4934    0.4492   -0.0954 C   0  0  0  0  0  0  0  0  0  0  0  0
   -0.1126    1.6731   -2.7370 C   0  0  0  0  0  0  0  0  0  0  0  0
    0.6729    2.3238    1.2696 F   0  0  0  0  0  0  0  0  0  0  0  0
   -0.3169    0.0723   -1.6029 O   0  0  0  0  0  0  0  0  0  0  0  0
    3.6339    0.3158    2.6556 O   0  0  0  0  0  0  0  0  0  0  0  0
    5.1814    2.0161    0.2205 O   0  0  0  0  0  0  0  0  0  0  0  0
    5.9523    0.3001    1.5671 O   0  0  0  0  0  0  0  0  0  0  0  0
   -1.9710    1.3866    0.3646 N   0  0  0  0  0  0  0  0  0  0  0  0
   -5.1408    0.3954   -1.0700 N   0  0  0  0  0  0  0  0  0  0  0  0
    2.1585   -0.7247   -1.0139 N   0  0  0  0  0  0  0  0  0  0  0  0
   -4.1695    0.8729    1.1494 C   0  0  2  0  0  0  0  0  0  0  0  0
   -4.1981    1.1439   -0.3106 C   0  0  1  0  0  0  0  0  0  0  0  0
   -2.8152    1.3939    1.5479 C   0  0  0  0  0  0  0  0  0  0  0  0
   -2.7474    0.8700   -0.7121 C   0  0  0  0  0  0  0  0  0  0  0  0
   -4.3053   -0.5754    1.5129 C   0  0  0  0  0  0  0  0  0  0  0  0
    2.5498   -2.0257   -1.3863 C   0  0  0  0  0  0  0  0  0  0  0  0
   -5.1074   -1.3740    0.5184 C   0  0  0  0  0  0  0  0  0  0  0  0
    1.6602   -3.0548   -1.9371 C   0  0  0  0  0  0  0  0  0  0  0  0
    2.5943   -2.2945   -2.8897 C   0  0  0  0  0  0  0  0  0  0  0  0
   -6.0153   -0.4142   -0.2087 C   0  0  0  0  0  0  0  0  0  0  0  0
   -0.8126    0.6332    0.6793 C   0  0  0  0  0  0  0  0  0  0  0  0
    1.2175   -0.5703    0.0257 C   0  0  2  0  0  0  0  0  0  0  0  0
    0.2246    0.5190   -0.4030 C   0  0  1  0  0  0  0  0  0  0  0  0
    1.7697   -0.3519    1.3844 C   0  0  0  0  0  0  0  0  0  0  0  0
   -0.0644    1.3016    1.8396 C   0  0  0  0  0  0  0  0  0  0  0  0
    3.2767    0.1914   -0.9740 C   0  0  0  0  0  0  0  0  0  0  0  0
    0.8282    0.2091    2.3873 C   0  0  0  0  0  0  0  0  0  0  0  0
    3.9654   -0.0352    0.3543 C   0  0  0  0  0  0  0  0  0  0  0  0
    3.0261    0.4916    1.4099 C   0  0  2  0  0  0  0  0  0  0  0  0
    5.3115    0.6452    0.4006 C   0  0  0  0  0  0  0  0  0  0  0  0
    0.0245    0.9256   -2.6631 C   0  0  0  0  0  0  0  0  0  0  0  0
    4.0610    2.1844   -0.7389 H   0  0  0  0  0  0  0  0  0  0  0  0
    6.5412    1.5667    1.0805 H   0  0  0  0  0  0  0  0  0  0  0  0
    6.5938   -0.7126    0.9127 H   0  0  0  0  0  0  0  0  0  0  0  0
   -5.4009    0.6746   -2.0456 H   0  0  0  0  0  0  0  0  0  0  0  0
   -4.8423    1.0142    1.5823 H   0  0  0  0  0  0  0  0  0  0  0  0
   -4.3338    1.9013   -0.4238 H   0  0  0  0  0  0  0  0  0  0  0  0
   -2.7195    1.8179    1.4894 H   0  0  0  0  0  0  0  0  0  0  0  0
   -2.4641    0.2290    2.4272 H   0  0  0  0  0  0  0  0  0  0  0  0
   -2.7584   -0.3140   -1.5220 H   0  0  0  0  0  0  0  0  0  0  0  0
   -2.2841    1.4556   -1.2601 H   0  0  0  0  0  0  0  0  0  0  0  0
   -3.4962   -1.6917    1.1054 H   0  0  0  0  0  0  0  0  0  0  0  0
   -4.7244   -1.2172    2.3008 H   0  0  0  0  0  0  0  0  0  0  0  0
    1.4764   -2.0145   -1.9112 H   0  0  0  0  0  0  0  0  0  0  0  0
   -5.0872   -2.3476   -0.3891 H   0  0  0  0  0  0  0  0  0  0  0  0
   -6.2903   -2.1383    0.9221 H   0  0  0  0  0  0  0  0  0  0  0  0
    0.6727   -2.3901    1.1185 H   0  0  0  0  0  0  0  0  0  0  0  0
   -0.2007   -2.9814   -0.3796 H   0  0  0  0  0  0  0  0  0  0  0  0
    2.6556   -3.7104    0.5026 H   0  0  0  0  0  0  0  0  0  0  0  0
    1.8161   -4.2779   -1.0211 H   0  0  0  0  0  0  0  0  0  0  0  0
   -6.9040   -0.8468   -1.1014 H   0  0  0  0  0  0  0  0  0  0  0  0
   -6.4812    0.3113    0.2522 H   0  0  0  0  0  0  0  0  0  0  0  0
   -0.1596   -0.2150    1.2606 H   0  0  0  0  0  0  0  0  0  0  0  0
    2.2602    1.0281   -1.0524 H   0  0  0  0  0  0  0  0  0  0  0  0
    0.1398   -0.7043   -1.0969 H   0  0  0  0  0  0  0  0  0  0  0  0
    1.9221    0.2203    1.8823 H   0  0  0  0  0  0  0  0  0  0  0  0
   -0.9159    2.6371    0.6793 H   0  0  0  0  0  0  0  0  0  0  0  0
    3.3718   -1.6712    1.2495 H   0  0  0  0  0  0  0  0  0  0  0  0
    4.3595   -1.6597   -0.2204 H   0  0  0  0  0  0  0  0  0  0  0  0
    1.4595    2.5962    2.2164 H   0  0  0  0  0  0  0  0  0  0  0  0
    1.4568    2.8784    0.4446 H   0  0  0  0  0  0  0  0  0  0  0  0
    4.8477   -0.0061    1.7542 H   0  0  0  0  0  0  0  0  0  0  0  0
    3.6560    1.8971    1.9983 H   0  0  0  0  0  0  0  0  0  0  0  0
    5.1388    0.5215   -1.2170 H   0  0  0  0  0  0  0  0  0  0  0  0
   -0.3132    1.3403   -3.8108 H   0  0  0  0  0  0  0  0  0  0  0  0
   -0.9411   -0.0957   -2.9799 H   0  0  0  0  0  0  0  0  0  0  0  0
    0.7801   -0.0364   -3.2871 H   0  0  0  0  0  0  0  0  0  0  0  0
    3.7819    2.2640   -0.7879 H   0  0  0  0  0  0  0  0  0  0  0  0
    6.0982    1.9618    0.6218 H   0  0  0  0  0  0  0  0  0  0  0  0
    6.2869   -0.9529    0.3435 H   0  0  0  0  0  0  0  0  0  0  0  0
   -4.8359    0.8484   -1.9943 H   0  0  0  0  0  0  0  0  0  0  0  0
   -4.8904    0.3428    1.7904 H   0  0  0  0  0  0  0  0  0  0  0  0
   -4.0767    2.1273    0.3898 H   0  0  0  0  0  0  0  0  0  0  0  0
   -2.6373    1.2176    2.0870 H   0  0  0  0  0  0  0  0  0  0  0  0
   -2.4466   -0.5904    2.2651 H   0  0  0  0  0  0  0  0  0  0  0  0
   -2.9634   -0.0159   -1.4375 H   0  0  0  0  0  0  0  0  0  0  0  0
   -2.3569    1.7114   -1.1526 H   0  0  0  0  0  0  0  0  0  0  0  0
   -3.3005   -1.5985    0.0212 H   0  0  0  0  0  0  0  0  0  0  0  0
   -4.4531   -2.0067    1.3119 H   0  0  0  0  0  0  0  0  0  0  0  0
    1.3550   -2.4117   -1.3565 H   0  0  0  0  0  0  0  0  0  0  0  0
   -4.9078   -1.5443   -1.6199 H   0  0  0  0  0  0  0  0  0  0  0  0
   -6.0315   -2.2186   -0.3666 H   0  0  0  0  0  0  0  0  0  0  0  0
    1.0677   -1.9358    1.7631 H   0  0  0  0  0  0  0  0  0  0  0  0
    0.0226   -3.0065    0.6446 H   0  0  0  0  0  0  0  0  0  0  0  0
    3.0837   -3.2455    1.1364 H   0  0  0  0  0  0  0  0  0  0  0  0
    2.0635   -4.2917    0.0301 H   0  0  0  0  0  0  0  0  0  0  0  0
   -6.8402   -0.1321   -1.4476 H   0  0  0  0  0  0  0  0  0  0  0  0
   -6.5934    0.1797    0.2988 H   0  0  0  0  0  0  0  0  0  0  0  0
   -0.2326   -0.0026    1.4221 H   0  0  0  0  0  0  0  0  0  0  0  0
    2.2032    1.0210   -1.0394 H   0  0  0  0  0  0  0  0  0  0  0  0
    0.1415   -0.9522   -0.7491 H   0  0  0  0  0  0  0  0  0  0  0  0
    1.8761    0.2894    1.8669 H   0  0  0  0  0  0  0  0  0  0  0  0
   -0.8533    2.1444    1.9167 H   0  0  0  0  0  0  0  0  0  0  0  0
    3.2192   -1.2695    1.5370 H   0  0  0  0  0  0  0  0  0  0  0  0
    4.3274   -1.7718    0.2353 H   0  0  0  0  0  0  0  0  0  0  0  0
    1.3350    2.6520    2.1838 H   0  0  0  0  0  0  0  0  0  0  0  0
    1.5294    2.9754    0.4441 H   0  0  0  0  0  0  0  0  0  0  0  0
    5.0332    0.2000    1.6563 H   0  0  0  0  0  0  0  0  0  0  0  0
    3.6504    1.9094    2.0259 H   0  0  0  0  0  0  0  0  0  0  0  0
    4.6811    0.5487   -1.3771 H   0  0  0  0  0  0  0  0  0  0  0  0
   -0.4938    0.3659   -3.8259 H   0  0  0  0  0  0  0  0  0  0  0  0
   -1.0996   -0.7871   -2.6100 H   0  0  0  0  0  0  0  0  0  0  0  0
    0.6050   -0.8595   -3.0121 H   0  0  0  0  0  0  0  0  0  0  0  0
    4.0299   -0.3386    2.4118 H   0  0  0  0  0  0  0  0  0  0  0  0
    5.1703    2.5718    0.1945 H   0  0  0  0  0  0  0  0  0  0  0  0
    5.8462   -0.5207   -1.1856 H   0  0  0  0  0  0  0  0  0  0  0  0
   -6.0171    2.1026   -0.0657 H   0  0  0  0  0  0  0  0  0  0  0  0
   -4.3722   -0.5519    1.5972 H   0  0  0  0  0  0  0  0  0  0  0  0
   -4.4500    1.8305    1.4981 H   0  0  0  0  0  0  0  0  0  0  0  0
   -2.4268    0.5648    2.3056 H   0  0  0  0  0  0  0  0  0  0  0  0
   -1.8512   -0.8192    1.2563 H   0  0  0  0  0  0  0  0  0  0  0  0
   -3.1049    1.7599   -1.2325 H   0  0  0  0  0  0  0  0  0  0  0  0
   -2.8792    2.9743    0.1514 H   0  0  0  0  0  0  0  0  0  0  0  0
   -3.0235   -0.4330   -1.1791 H   0  0  0  0  0  0  0  0  0  0  0  0
   -3.4449   -1.9105   -0.2716 H   0  0  0  0  0  0  0  0  0  0  0  0
    0.8062   -2.6855   -1.4117 H   0  0  0  0  0  0  0  0  0  0  0  0
   -5.0196   -0.5409   -2.2117 H   0  0  0  0  0  0  0  0  0  0  0  0
   -5.5459   -1.8936   -1.1443 H   0  0  0  0  0  0  0  0  0  0  0  0
    2.2155   -3.0908    1.3507 H   0  0  0  0  0  0  0  0  0  0  0  0
    0.9585   -4.1839    0.5605 H   0  0  0  0  0  0  0  0  0  0  0  0
    3.7661   -3.5015   -0.5493 H   0  0  0  0  0  0  0  0  0  0  0  0
    2.4801   -4.5079   -1.3792 H   0  0  0  0  0  0  0  0  0  0  0  0
   -6.9407    0.1864   -1.0183 H   0  0  0  0  0  0  0  0  0  0  0  0
   -6.2307   -0.3267    0.5755 H   0  0  0  0  0  0  0  0  0  0  0  0
   -0.6841    2.3303   -0.6506 H   0  0  0  0  0  0  0  0  0  0  0  0
    0.4163   -1.2744    0.6750 H   0  0  0  0  0  0  0  0  0  0  0  0
   -0.6470   -0.2585   -1.0267 H   0  0  0  0  0  0  0  0  0  0  0  0
    1.8403   -0.5774    2.3059 H   0  0  0  0  0  0  0  0  0  0  0  0
    0.9031    2.8348    0.9408 H   0  0  0  0  0  0  0  0  0  0  0  0
    3.7626   -0.8528   -1.5276 H   0  0  0  0  0  0  0  0  0  0  0  0
    3.8892   -1.5740    0.0804 H   0  0  0  0  0  0  0  0  0  0  0  0
   -0.0746    0.5758    2.7833 H   0  0  0  0  0  0  0  0  0  0  0  0
    1.3010    1.6833    2.9603 H   0  0  0  0  0  0  0  0  0  0  0  0
    3.4324    1.3320   -0.7176 H   0  0  0  0  0  0  0  0  0  0  0  0
    2.7877    1.9803    1.3364 H   0  0  0  0  0  0  0  0  0  0  0  0
    5.5099   -0.1203    1.0256 H   0  0  0  0  0  0  0  0  0  0  0  0
    1.0199    0.6718   -3.7134 H   0  0  0  0  0  0  0  0  0  0  0  0
   -0.6193    0.5788   -3.0549 H   0  0  0  0  0  0  0  0  0  0  0  0
    0.5156   -0.7516   -2.7973 H   0  0  0  0  0  0  0  0  0  0  0  0
    3.8986    2.1737   -0.6637 H   0  0  0  0  0  0  0  0  0  0  0  0
    6.8706    1.5814    0.8561 H   0  0  0  0  0  0  0  0  0  0  0  0
    6.5381   -0.6425    0.8899 H   0  0  0  0  0  0  0  0  0  0  0  0
   -5.4800    0.8183   -1.9592 H   0  0  0  0  0  0  0  0  0  0  0  0
   -4.9233    0.8118    1.6473 H   0  0  0  0  0  0  0  0  0  0  0  0
   -4.3662    1.9714   -0.3648 H   0  0  0  0  0  0  0  0  0  0  0  0
   -2.7910    1.8192    1.4954 H   0  0  0  0  0  0  0  0  0  0  0  0
   -2.4996    0.2577    2.4392 H   0  0  0  0  0  0  0  0  0  0  0  0
   -2.7977   -0.2609   -1.4985 H   0  0  0  0  0  0  0  0  0  0  0  0
   -2.3069    1.5195   -1.2767 H   0  0  0  0  0  0  0  0  0  0  0  0
   -3.3538   -1.6048    0.5574 H   0  0  0  0  0  0  0  0  0  0  0  0
   -4.3338   -1.5307    2.0619 H   0  0  0  0  0  0  0  0  0  0  0  0
    1.3835   -2.0413   -1.8582 H   0  0  0  0  0  0  0  0  0  0  0  0
   -5.1827   -2.3754   -0.5813 H   0  0  0  0  0  0  0  0  0  0  0  0
   -6.2198   -2.1401    0.8507 H   0  0  0  0  0  0  0  0  0  0  0  0
    0.7934   -2.3246    1.2479 H   0  0  0  0  0  0  0  0  0  0  0  0
   -0.1646   -3.0406   -0.1798 H   0  0  0  0  0  0  0  0  0  0  0  0
    2.7509   -3.6317    0.5209 H   0  0  0  0  0  0  0  0  0  0  0  0
    1.8864   -4.2643   -0.9630 H   0  0  0  0  0  0  0  0  0  0  0  0
   -6.9141   -0.7819   -1.1372 H   0  0  0  0  0  0  0  0  0  0  0  0
   -6.4856    0.2507    0.2820 H   0  0  0  0  0  0  0  0  0  0  0  0
   -0.1975   -0.1957    1.2957 H   0  0  0  0  0  0  0  0  0  0  0  0
    2.2179    1.0663   -1.0088 H   0  0  0  0  0  0  0  0  0  0  0  0
    0.1182   -0.7300   -1.0304 H   0  0  0  0  0  0  0  0  0  0  0  0
    1.8575    0.1581    1.9144 H   0  0  0  0  0  0  0  0  0  0  0  0
   -0.8836    2.7102    0.7109 H   0  0  0  0  0  0  0  0  0  0  0  0
    3.4533   -1.7389    1.1160 H   0  0  0  0  0  0  0  0  0  0  0  0
    4.3855   -1.5685   -0.3812 H   0  0  0  0  0  0  0  0  0  0  0  0
    1.4622    2.5703    2.2652 H   0  0  0  0  0  0  0  0  0  0  0  0
    1.4456    2.8386    0.4880 H   0  0  0  0  0  0  0  0  0  0  0  0
    4.8716   -0.0579    1.7303 H   0  0  0  0  0  0  0  0  0  0  0  0
    3.5964    1.7659    2.1228 H   0  0  0  0  0  0  0  0  0  0  0  0
    5.1133    0.6209   -1.1943 H   0  0  0  0  0  0  0  0  0  0  0  0
   -0.3544    1.2461   -3.8055 H   0  0  0  0  0  0  0  0  0  0  0  0
   -0.9845   -0.1657   -2.9416 H   0  0  0  0  0  0  0  0  0  0  0  0
    0.7257   -0.1215   -3.2975 H   0  0  0  0  0  0  0  0  0  0  0  0
    3.9612    2.2020   -0.6528 H   0  0  0  0  0  0  0  0  0  0  0  0
    5.7812    1.9194    1.2388 H   0  0  0  0  0  0  0  0  0  0  0  0
    6.4121   -1.0009    0.8068 H   0  0  0  0  0  0  0  0  0  0  0  0
   -4.5919   -0.9208   -1.8696 H   0  0  0  0  0  0  0  0  0  0  0  0
   -4.8109    1.2016    1.2426 H   0  0  0  0  0  0  0  0  0  0  0  0
   -3.6805    1.4895   -0.8222 H   0  0  0  0  0  0  0  0  0  0  0  0
   -2.6452    1.8576    1.4872 H   0  0  0  0  0  0  0  0  0  0  0  0
   -2.5927    0.2757    2.4650 H   0  0  0  0  0  0  0  0  0  0  0  0
   -2.8848   -1.3886   -0.3786 H   0  0  0  0  0  0  0  0  0  0  0  0
   -2.1799   -0.2373   -1.5843 H   0  0  0  0  0  0  0  0  0  0  0  0
   -3.6560   -1.6454    1.4844 H   0  0  0  0  0  0  0  0  0  0  0  0
   -5.0101   -0.8900    2.4261 H   0  0  0  0  0  0  0  0  0  0  0  0
    1.5957   -2.0759   -2.1246 H   0  0  0  0  0  0  0  0  0  0  0  0
   -5.1176   -2.4303   -0.0695 H   0  0  0  0  0  0  0  0  0  0  0  0
   -6.4329   -1.9828    1.0202 H   0  0  0  0  0  0  0  0  0  0  0  0
    0.4486   -2.3863    0.8689 H   0  0  0  0  0  0  0  0  0  0  0  0
   -0.2504   -3.0252   -0.6984 H   0  0  0  0  0  0  0  0  0  0  0  0
    2.6279   -3.6147    0.4153 H   0  0  0  0  0  0  0  0  0  0  0  0
    1.8239   -4.2861   -1.0814 H   0  0  0  0  0  0  0  0  0  0  0  0
   -6.7809   -1.0141   -1.1825 H   0  0  0  0  0  0  0  0  0  0  0  0
   -6.4590    0.3254    0.0209 H   0  0  0  0  0  0  0  0  0  0  0  0
    0.0390   -0.1686    1.2221 H   0  0  0  0  0  0  0  0  0  0  0  0
    2.2957    1.0648   -1.0967 H   0  0  0  0  0  0  0  0  0  0  0  0
   -0.0167   -0.3652   -1.3921 H   0  0  0  0  0  0  0  0  0  0  0  0
    1.8397    0.2467    1.8385 H   0  0  0  0  0  0  0  0  0  0  0  0
   -0.7547    1.8432    2.1390 H   0  0  0  0  0  0  0  0  0  0  0  0
    4.2857   -1.5851   -0.6604 H   0  0  0  0  0  0  0  0  0  0  0  0
    3.4929   -1.8845    0.8827 H   0  0  0  0  0  0  0  0  0  0  0  0
    1.4072    2.5008    2.2662 H   0  0  0  0  0  0  0  0  0  0  0  0
    1.5175    3.0288    0.5668 H   0  0  0  0  0  0  0  0  0  0  0  0
    4.7775   -0.2793    1.7297 H   0  0  0  0  0  0  0  0  0  0  0  0
    3.6420    1.6132    2.1136 H   0  0  0  0  0  0  0  0  0  0  0  0
    5.1534    0.6200   -1.1273 H   0  0  0  0  0  0  0  0  0  0  0  0
   -0.0712    2.7374   -3.1069 H   0  0  0  0  0  0  0  0  0  0  0  0
   -1.2179    1.4498   -2.8095 H   0  0  0  0  0  0  0  0  0  0  0  0
    0.4735    1.0321   -3.3885 H   0  0  0  0  0  0  0  0  0  0  0  0
    3.6959   -0.6177    2.9278 H   0  0  0  0  0  0  0  0  0  0  0  0
    6.0404    2.4157   -0.0289 H   0  0  0  0  0  0  0  0  0  0  0  0
    6.1791   -0.6605    1.5115 H   0  0  0  0  0  0  0  0  0  0  0  0
   -5.8085    1.0023   -1.6213 H   0  0  0  0  0  0  0  0  0  0  0  0
   -4.9427    1.4627    1.7178 H   0  0  0  0  0  0  0  0  0  0  0  0
   -4.4017    2.2285   -0.4691 H   0  0  0  0  0  0  0  0  0  0  0  0
   -2.9132    2.4399    1.8747 H   0  0  0  0  0  0  0  0  0  0  0  0
   -2.4406    0.7112    2.3440 H   0  0  0  0  0  0  0  0  0  0  0  0
   -2.6331   -0.2008   -0.9049 H   0  0  0  0  0  0  0  0  0  0  0  0
   -2.6322    1.4547   -1.6727 H   0  0  0  0  0  0  0  0  0  0  0  0
   -3.2954   -1.0181    1.6572 H   0  0  0  0  0  0  0  0  0  0  0  0
   -4.8152   -0.6498    2.5079 H   0  0  0  0  0  0  0  0  0  0  0  0
    3.4697   -2.4197   -0.8604 H   0  0  0  0  0  0  0  0  0  0  0  0
   -4.3869   -1.7640   -0.2477 H   0  0  0  0  0  0  0  0  0  0  0  0
   -5.6329   -2.2157    0.9795 H   0  0  0  0  0  0  0  0  0  0  0  0
    1.8889   -4.1214   -1.7349 H   0  0  0  0  0  0  0  0  0  0  0  0
    0.5910   -2.8816   -2.1526 H   0  0  0  0  0  0  0  0  0  0  0  0
    3.4333   -2.8912   -3.3000 H   0  0  0  0  0  0  0  0  0  0  0  0
    2.1509   -1.5690   -3.5775 H   0  0  0  0  0  0  0  0  0  0  0  0
   -6.7109   -0.9593   -0.8464 H   0  0  0  0  0  0  0  0  0  0  0  0
   -6.5464    0.2273    0.5251 H   0  0  0  0  0  0  0  0  0  0  0  0
   -1.0640   -0.4165    1.0011 H   0  0  0  0  0  0  0  0  0  0  0  0
    0.5867   -1.5058    0.0594 H   0  0  0  0  0  0  0  0  0  0  0  0
    0.7817    1.4590   -0.5993 H   0  0  0  0  0  0  0  0  0  0  0  0
    2.0894   -1.3651    1.7748 H   0  0  0  0  0  0  0  0  0  0  0  0
   -0.7019    1.7173    2.6045 H   0  0  0  0  0  0  0  0  0  0  0  0
    2.9458    1.2579   -0.9719 H   0  0  0  0  0  0  0  0  0  0  0  0
    3.9571   -0.0278   -1.8175 H   0  0  0  0  0  0  0  0  0  0  0  0
    0.1575   -0.5621    2.8269 H   0  0  0  0  0  0  0  0  0  0  0  0
    1.4038    0.6642    3.2296 H   0  0  0  0  0  0  0  0  0  0  0  0
    4.1204   -1.0992    0.5400 H   0  0  0  0  0  0  0  0  0  0  0  0
    2.8405    1.5595    1.2791 H   0  0  0  0  0  0  0  0  0  0  0  0
    5.9053    0.2168   -0.4493 H   0  0  0  0  0  0  0  0  0  0  0  0
   -0.4064    0.5701   -3.6009 H   0  0  0  0  0  0  0  0  0  0  0  0
   -0.4141    1.9152   -2.4315 H   0  0  0  0  0  0  0  0  0  0  0  0
    1.1254    1.0560   -2.7069 H   0  0  0  0  0  0  0  0  0  0  0  0
  7 10  1  0
  9 10  1  0
  6 11  1  0
  9 11  1  0
  6 12  1  0
 10 12  1  0
  9 13  1  0
  8 14  1  0
 13 15  1  0
 14 16  1  0
 14 17  1  0
 16 17  1  0
  7 18  1  0
 15 18  1  0
  6 19  1  0
  8 20  1  0
  2 21  1  0
 19 21  1  0
 20 21  1  0
 20 22  1  0
  1 23  1  0
 19 23  1  0
  8 24  1  0
 22 25  1  0
 23 25  1  0
 24 26  1  0
 22 27  1  0
 26 27  1  0
 27  3  1  0
  4 28  1  0
 26 28  1  0
 28  5  1  0
  2 29  1  0
 36 39  1  0
 38 39  1  0
 35 40  1  0
 38 40  1  0
 35 41  1  0
 39 41  1  0
 38 42  1  0
 37 43  1  0
 42 44  1  0
 43 45  1  0
 43 46  1  0
 45 46  1  0
 36 47  1  0
 44 47  1  0
 35 48  1  0
 37 49  1  0
 31 50  1  0
 48 50  1  0
 49 50  1  0
 49 51  1  0
 30 52  1  0
 48 52  1  0
 37 53  1  0
 51 54  1  0
 52 54  1  0
 53 55  1  0
 51 56  1  0
 55 56  1  0
 56 32  1  0
 33 57  1  0
 55 57  1  0
 57 34  1  0
 31 58  1  0
 65 68  1  0
 67 68  1  0
 64 69  1  0
 67 69  1  0
 64 70  1  0
 68 70  1  0
 67 71  1  0
 66 72  1  0
 71 73  1  0
 72 74  1  0
 72 75  1  0
 74 75  1  0
 65 76  1  0
 73 76  1  0
 64 77  1  0
 66 78  1  0
 60 79  1  0
 77 79  1  0
 78 79  1  0
 78 80  1  0
 59 81  1  0
 77 81  1  0
 66 82  1  0
 80 83  1  0
 81 83  1  0
 82 84  1  0
 80 85  1  0
 84 85  1  0
 85 61  1  0
 62 86  1  0
 84 86  1  0
 86 63  1  0
 60 87  1  0
 94 97  1  0
 96 97  1  0
 93 98  1  0
 96 98  1  0
 93 99  1  0
 97 99  1  0
 96100  1  0
 95101  1  0
100102  1  0
101103  1  0
101104  1  0
103104  1  0
 94105  1  0
102105  1  0
 93106  1  0
 95107  1  0
 89108  1  0
106108  1  0
107108  1  0
107109  1  0
 88110  1  0
106110  1  0
 95111  1  0
109112  1  0
110112  1  0
111113  1  0
109114  1  0
113114  1  0
114 90  1  0
 91115  1  0
113115  1  0
115 92  1  0
 89116  1  0
123126  1  0
125126  1  0
122127  1  0
125127  1  0
122128  1  0
126128  1  0
125129  1  0
124130  1  0
129131  1  0
130132  1  0
130133  1  0
132133  1  0
123134  1  0
131134  1  0
122135  1  0
124136  1  0
118137  1  0
135137  1  0
136137  1  0
136138  1  0
117139  1  0
135139  1  0
124140  1  0
138141  1  0
139141  1  0
140142  1  0
138143  1  0
142143  1  0
143119  1  0
120144  1  0
142144  1  0
144121  1  0
118145  1  0
152155  1  0
154155  1  0
151156  1  0
154156  1  0
151157  1  0
155157  1  0
154158  1  0
153159  1  0
158160  1  0
159161  1  0
159162  1  0
161162  1  0
152163  1  0
160163  1  0
151164  1  0
153165  1  0
147166  1  0
164166  1  0
165166  1  0
165167  1  0
146168  1  0
164168  1  0
153169  1  0
167170  1  0
168170  1  0
169171  1  0
167172  1  0
171172  1  0
172148  1  0
149173  1  0
171173  1  0
173150  1  0
147174  1  0
  3175  1  0
  4176  1  0
  5177  1  0
  7178  1  0
  9179  1  1
 10180  1  1
 11181  1  0
 11182  1  0
 12183  1  0
 12184  1  0
 13185  1  0
 13186  1  0
 14187  1  0
 15188  1  0
 15189  1  0
 16190  1  0
 16191  1  0
 17192  1  0
 17193  1  0
 18194  1  0
 18195  1  0
 19196  1  1
 20197  1  6
 21198  1  6
 22199  1  0
 23200  1  0
 24201  1  0
 24202  1  0
 25203  1  0
 25204  1  0
 26205  1  1
 27206  1  0
 28207  1  0
 29208  1  0
 29209  1  0
 29210  1  0
 32211  1  0
 33212  1  0
 34213  1  0
 36214  1  0
 38215  1  1
 39216  1  1
 40217  1  0
 40218  1  0
 41219  1  0
 41220  1  0
 42221  1  0
 42222  1  0
 43223  1  0
 44224  1  0
 44225  1  0
 45226  1  0
 45227  1  0
 46228  1  0
 46229  1  0
 47230  1  0
 47231  1  0
 48232  1  1
 49233  1  0
 50234  1  6
 51235  1  1
 52236  1  0
 53237  1  0
 53238  1  0
 54239  1  0
 54240  1  0
 55241  1  1
 56242  1  0
 57243  1  0
 58244  1  0
 58245  1  0
 58246  1  0
 61247  1  0
 62248  1  0
 63249  1  0
 65250  1  0
 67251  1  1
 68252  1  1
 69253  1  0
 69254  1  0
 70255  1  0
 70256  1  0
 71257  1  0
 71258  1  0
 72259  1  0
 73260  1  0
 73261  1  0
 74262  1  0
 74263  1  0
 75264  1  0
 75265  1  0
 76266  1  0
 76267  1  0
 77268  1  6
 78269  1  1
 79270  1  0
 80271  1  1
 81272  1  0
 82273  1  0
 82274  1  0
 83275  1  0
 83276  1  0
 84277  1  0
 85278  1  0
 86279  1  0
 87280  1  0
 87281  1  0
 87282  1  0
 90283  1  0
 91284  1  0
 92285  1  0
 94286  1  0
 96287  1  1
 97288  1  1
 98289  1  0
 98290  1  0
 99291  1  0
 99292  1  0
100293  1  0
100294  1  0
101295  1  0
102296  1  0
102297  1  0
103298  1  0
103299  1  0
104300  1  0
104301  1  0
105302  1  0
105303  1  0
106304  1  1
107305  1  6
108306  1  6
109307  1  0
110308  1  6
111309  1  0
111310  1  0
112311  1  0
112312  1  0
113313  1  1
114314  1  0
115315  1  0
116316  1  0
116317  1  0
116318  1  0
119319  1  0
120320  1  0
121321  1  0
123322  1  0
125323  1  1
126324  1  6
127325  1  0
127326  1  0
128327  1  0
128328  1  0
129329  1  0
129330  1  0
130331  1  0
131332  1  0
131333  1  0
132334  1  0
132335  1  0
133336  1  0
133337  1  0
134338  1  0
134339  1  0
135340  1  1
136341  1  0
137342  1  0
138343  1  1
139344  1  0
140345  1  0
140346  1  0
141347  1  0
141348  1  0
142349  1  1
143350  1  0
144351  1  0
145352  1  0
145353  1  0
145354  1  0
148355  1  0
149356  1  0
150357  1  0
152358  1  0
154359  1  1
155360  1  1
156361  1  0
156362  1  0
157363  1  0
157364  1  0
158365  1  0
158366  1  0
159367  1  0
160368  1  0
160369  1  0
161370  1  0
161371  1  0
162372  1  0
162373  1  0
163374  1  0
163375  1  0
164376  1  0
165377  1  1
166378  1  6
167379  1  0
168380  1  0
169381  1  0
169382  1  0
170383  1  0
170384  1  0
171385  1  0
172386  1  6
173387  1  0
174388  1  0
174389  1  0
174390  1  0
M  END
>  <PDBID>  (1) 
5CDQ

>  <PDB ID>  (1) 
5CDQ

>  <Generic Name>  (1) 
Moxifloxacin

>  <Brand Name>  (1) 
Act Moxifloxacin#Apo-moxifloxacin#Auro-moxifloxacin#Avelox#Avelox Abc Pack#Avelox I.V.#Bio-moxifloxacin#Dom-moxifloxacin#Ipg-moxifloxacin#Jamp-moxifloxacin#Jamp-moxifloxacin Tablets#Mar-moxifloxacin#Med-moxifloxacin#Moxeza#Moxifloxacin#Moxifloxacin Hydrochloride#Moxifloxacin Injection#Mylan-moxifloxacin#Mylan-moxifloxacin HCl Ophthalmic Solution#PHL-moxifloxacin#PMS-moxifloxacin#Priva-moxifloxacin#Riva-moxifloxacin#Sandoz Moxifloxacin#Teva-moxifloxacin#Torrent-moxifloxacin#Vigamox

>  <DrugBank ID>  (1) 
DB00218

>  <ATC Codes>  (1) 
J01MA14#S01AE07

>  <Ligand ID>  (1) 
MFX

>  <Target Name>  (1) 
DNA gyrase subunit A

>  <UniProt ID>  (1) 
P43700

>  <PDB ID.1>  (1) 
5CDQ

>  <Seq. Identity>  (1) 
53%

$$$$
