PDB_DB08865_04
     RDKit          3D

 68 71  0  0  0  0  0  0  0  0999 V2000
   -6.0303   -0.8707   -2.5002 Cl  0  0  0  0  0  0  0  0  0  0  0  0
   -5.4454   -0.2234   -0.9636 C   0  0  0  0  0  0  0  0  0  0  0  0
   -6.5921   -0.0108    0.0026 C   0  0  0  0  0  0  0  0  0  0  0  0
   -6.6179   -0.9960    1.1380 C   0  0  0  0  0  0  0  0  0  0  0  0
   -5.3328   -0.9756    1.9424 C   0  0  0  0  0  0  0  0  0  0  0  0
   -5.4325   -0.2983    3.1242 F   0  0  0  0  0  0  0  0  0  0  0  0
   -4.4029   -1.0467   -0.2953 C   0  0  0  0  0  0  0  0  0  0  0  0
   -4.1780   -0.4646    1.1051 C   0  0  0  0  0  0  0  0  0  0  0  0
   -4.3078    1.3085    1.0801 Cl  0  0  0  0  0  0  0  0  0  0  0  0
   -3.1201   -1.2269   -1.0330 C   0  0  1  0  0  0  0  0  0  0  0  0
   -3.4290   -1.9244   -2.3625 C   0  0  0  0  0  0  0  0  0  0  0  0
   -2.5089   -0.0225   -1.2431 O   0  0  0  0  0  0  0  0  0  0  0  0
   -1.1950    0.0584   -0.7756 C   0  0  0  0  0  0  0  0  0  0  0  0
   -0.9726    1.1318    0.2058 C   0  0  0  0  0  0  0  0  0  0  0  0
   -0.3434    0.2766   -2.0053 C   0  0  0  0  0  0  0  0  0  0  0  0
   -1.1010    0.0103   -3.2414 N   0  0  0  0  0  0  0  0  0  0  0  0
    0.0921    1.6747   -2.0932 N   0  0  0  0  0  0  0  0  0  0  0  0
    1.0795    1.8354   -1.0465 C   0  0  0  0  0  0  0  0  0  0  0  0
    0.4418    1.6184    0.2688 C   0  0  0  0  0  0  0  0  0  0  0  0
    1.2601    0.8932    1.2770 C   0  0  0  0  0  0  0  0  0  0  0  0
    1.4987   -0.5415    1.1341 C   0  0  0  0  0  0  0  0  0  0  0  0
    2.6630    1.4782    1.3432 C   0  0  0  0  0  0  0  0  0  0  0  0
    3.5400    0.3983    1.6384 N   0  0  0  0  0  0  0  0  0  0  0  0
    2.8742   -0.7873    1.5505 N   0  0  0  0  0  0  0  0  0  0  0  0
    4.8281    0.4777    1.0426 C   0  0  0  0  0  0  0  0  0  0  0  0
    4.8251    0.4661   -0.4677 C   0  0  0  0  0  0  0  0  0  0  0  0
    6.2218    0.3861   -1.0312 C   0  0  0  0  0  0  0  0  0  0  0  0
    7.2050    0.5317    0.0530 N   0  0  0  0  0  0  0  0  0  0  0  0
    7.0773   -0.5727    0.9907 C   0  0  0  0  0  0  0  0  0  0  0  0
    5.6844   -0.6778    1.5234 C   0  0  0  0  0  0  0  0  0  0  0  0
   -5.0284    0.8100   -1.1545 H   0  0  0  0  0  0  0  0  0  0  0  0
   -6.7012    1.0256    0.3422 H   0  0  0  0  0  0  0  0  0  0  0  0
   -7.5371   -0.2137   -0.5854 H   0  0  0  0  0  0  0  0  0  0  0  0
   -7.4286   -0.6663    1.8206 H   0  0  0  0  0  0  0  0  0  0  0  0
   -6.9052   -2.0151    0.8060 H   0  0  0  0  0  0  0  0  0  0  0  0
   -5.1032   -2.0428    2.1835 H   0  0  0  0  0  0  0  0  0  0  0  0
   -4.8441   -2.0619   -0.1121 H   0  0  0  0  0  0  0  0  0  0  0  0
   -3.2013   -0.7359    1.5105 H   0  0  0  0  0  0  0  0  0  0  0  0
   -2.4967   -1.9604   -0.4810 H   0  0  0  0  0  0  0  0  0  0  0  0
   -4.2650   -2.6368   -2.2694 H   0  0  0  0  0  0  0  0  0  0  0  0
   -3.6442   -1.2106   -3.1587 H   0  0  0  0  0  0  0  0  0  0  0  0
   -2.5425   -2.5370   -2.6464 H   0  0  0  0  0  0  0  0  0  0  0  0
   -1.0053   -0.9488   -0.3238 H   0  0  0  0  0  0  0  0  0  0  0  0
   -1.6054    2.0239   -0.1102 H   0  0  0  0  0  0  0  0  0  0  0  0
   -1.2399    0.8506    1.2558 H   0  0  0  0  0  0  0  0  0  0  0  0
    0.5625   -0.3401   -2.0333 H   0  0  0  0  0  0  0  0  0  0  0  0
   -1.6428    0.9038   -3.4364 H   0  0  0  0  0  0  0  0  0  0  0  0
   -0.4156   -0.0690   -4.0247 H   0  0  0  0  0  0  0  0  0  0  0  0
    0.5053    1.7945   -3.0423 H   0  0  0  0  0  0  0  0  0  0  0  0
    1.9113    1.1502   -1.2855 H   0  0  0  0  0  0  0  0  0  0  0  0
    1.5067    2.8619   -1.1768 H   0  0  0  0  0  0  0  0  0  0  0  0
    0.3414    2.6705    0.7141 H   0  0  0  0  0  0  0  0  0  0  0  0
    0.8015    1.1281    2.2859 H   0  0  0  0  0  0  0  0  0  0  0  0
    1.3051   -1.0000    0.1449 H   0  0  0  0  0  0  0  0  0  0  0  0
    0.8607   -1.0991    1.8569 H   0  0  0  0  0  0  0  0  0  0  0  0
    2.8968    2.0295    0.4056 H   0  0  0  0  0  0  0  0  0  0  0  0
    2.7734    2.2282    2.1533 H   0  0  0  0  0  0  0  0  0  0  0  0
    2.9270   -1.2799    2.4709 H   0  0  0  0  0  0  0  0  0  0  0  0
    5.3181    1.4143    1.3753 H   0  0  0  0  0  0  0  0  0  0  0  0
    4.3694    1.4119   -0.8398 H   0  0  0  0  0  0  0  0  0  0  0  0
    4.2168   -0.3440   -0.9056 H   0  0  0  0  0  0  0  0  0  0  0  0
    6.3608   -0.5609   -1.5807 H   0  0  0  0  0  0  0  0  0  0  0  0
    6.4043    1.2151   -1.7166 H   0  0  0  0  0  0  0  0  0  0  0  0
    8.1417    0.5077   -0.4092 H   0  0  0  0  0  0  0  0  0  0  0  0
    7.3071   -1.5025    0.4223 H   0  0  0  0  0  0  0  0  0  0  0  0
    7.8245   -0.4682    1.7862 H   0  0  0  0  0  0  0  0  0  0  0  0
    5.2399   -1.6388    1.2673 H   0  0  0  0  0  0  0  0  0  0  0  0
    5.7505   -0.6003    2.6406 H   0  0  0  0  0  0  0  0  0  0  0  0
  1  2  1  0
  2  3  1  0
  3  4  1  0
  4  5  1  0
  5  6  1  0
  2  7  1  0
  5  8  1  0
  7  8  1  0
  8  9  1  0
  7 10  1  0
 10 11  1  0
 10 12  1  0
 12 13  1  0
 13 14  1  0
 13 15  1  0
 15 16  1  0
 15 17  1  0
 17 18  1  0
 14 19  1  0
 18 19  1  0
 19 20  1  0
 20 21  1  0
 20 22  1  0
 22 23  1  0
 21 24  1  0
 23 24  1  0
 23 25  1  0
 25 26  1  0
 26 27  1  0
 27 28  1  0
 28 29  1  0
 25 30  1  0
 29 30  1  0
  2 31  1  0
  3 32  1  0
  3 33  1  0
  4 34  1  0
  4 35  1  0
  5 36  1  0
  7 37  1  0
  8 38  1  0
 10 39  1  1
 11 40  1  0
 11 41  1  0
 11 42  1  0
 13 43  1  0
 14 44  1  0
 14 45  1  0
 15 46  1  0
 16 47  1  0
 16 48  1  0
 17 49  1  0
 18 50  1  0
 18 51  1  0
 19 52  1  0
 20 53  1  0
 21 54  1  0
 21 55  1  0
 22 56  1  0
 22 57  1  0
 24 58  1  0
 25 59  1  0
 26 60  1  0
 26 61  1  0
 27 62  1  0
 27 63  1  0
 28 64  1  0
 29 65  1  0
 29 66  1  0
 30 67  1  0
 30 68  1  0
M  END
>  <PDBID>  (1) 
4ANQ

>  <PDB ID>  (1) 
4ANQ

>  <Generic Name>  (1) 
Crizotinib

>  <Brand Name>  (1) 
Xalkori

>  <DrugBank ID>  (1) 
DB08865

>  <ATC Codes>  (1) 
L01XE16

>  <Ligand ID>  (1) 
VGH

>  <Target Name>  (1) 
ALK tyrosine kinase receptor

>  <UniProt ID>  (1) 
Q9UM73

>  <PDB ID.1>  (1) 
4ANQ

>  <Seq. Identity>  (1) 
100%

$$$$
