PDB_DB06603_02
     RDKit          3D

134138  0  0  0  0  0  0  0  0999 V2000
    8.1339    1.0840   -1.0527 O   0  0  0  0  0  0  0  0  0  0  0  0
    7.4874    1.7369   -0.0215 C   0  0  0  0  0  0  0  0  0  0  0  0
    8.1093    1.5747    1.2537 N   0  0  0  0  0  0  0  0  0  0  0  0
    8.2241    0.3214    1.6937 O   0  0  0  0  0  0  0  0  0  0  0  0
    6.0145    1.4025   -0.0485 C   0  0  0  0  0  0  0  0  0  0  0  0
    5.7271   -0.0570    0.1020 C   0  0  0  0  0  0  0  0  0  0  0  0
    4.2643   -0.3578    0.0705 C   0  0  0  0  0  0  0  0  0  0  0  0
    3.5623    0.0419   -1.1974 C   0  0  0  0  0  0  0  0  0  0  0  0
    2.0561    0.0119   -0.9060 C   0  0  0  0  0  0  0  0  0  0  0  0
    3.9694   -1.8190    0.3296 C   0  0  0  0  0  0  0  0  0  0  0  0
    2.7185   -2.3039   -0.3315 C   0  0  0  0  0  0  0  0  0  0  0  0
    1.6061   -1.3077   -0.3709 C   0  0  0  0  0  0  0  0  0  0  0  0
    0.9103   -1.1904    0.9664 C   0  0  0  0  0  0  0  0  0  0  0  0
   -0.2561   -0.3677    0.9047 N   0  0  0  0  0  0  0  0  0  0  0  0
   -1.3481   -0.9212    0.1392 C   0  0  0  0  0  0  0  0  0  0  0  0
   -2.4744    0.0871    0.1922 C   0  0  0  0  0  0  0  0  0  0  0  0
   -3.6867   -0.3816   -0.5787 C   0  0  0  0  0  0  0  0  0  0  0  0
   -4.7917    0.6135   -0.5297 C   0  0  0  0  0  0  0  0  0  0  0  0
   -5.9424    0.0252    0.2292 C   0  0  0  0  0  0  0  0  0  0  0  0
   -5.4950   -1.2549    0.7145 N   0  0  0  0  0  0  0  0  0  0  0  0
   -4.3145   -1.6180   -0.0358 C   0  0  0  0  0  0  0  0  0  0  0  0
   -4.6505   -2.6078   -1.1318 C   0  0  0  0  0  0  0  0  0  0  0  0
   -6.3593    0.8558    1.4104 C   0  0  0  0  0  0  0  0  0  0  0  0
   -6.5370    2.3111    1.0937 C   0  0  0  0  0  0  0  0  0  0  0  0
   -5.6829    2.8120   -0.0233 C   0  0  0  0  0  0  0  0  0  0  0  0
   -4.4005    1.9673   -0.0187 C   0  0  0  0  0  0  0  0  0  0  0  0
    8.1339    1.0840   -1.0527 O   0  0  0  0  0  0  0  0  0  0  0  0
    7.4874    1.7369   -0.0215 C   0  0  0  0  0  0  0  0  0  0  0  0
    8.1093    1.5747    1.2537 N   0  0  0  0  0  0  0  0  0  0  0  0
    8.2241    0.3214    1.6937 O   0  0  0  0  0  0  0  0  0  0  0  0
    6.0145    1.4025   -0.0485 C   0  0  0  0  0  0  0  0  0  0  0  0
    5.7271   -0.0570    0.1020 C   0  0  0  0  0  0  0  0  0  0  0  0
    4.2643   -0.3578    0.0705 C   0  0  0  0  0  0  0  0  0  0  0  0
    3.5623    0.0419   -1.1974 C   0  0  0  0  0  0  0  0  0  0  0  0
    2.0561    0.0119   -0.9060 C   0  0  0  0  0  0  0  0  0  0  0  0
    3.9694   -1.8190    0.3296 C   0  0  0  0  0  0  0  0  0  0  0  0
    2.7185   -2.3039   -0.3315 C   0  0  0  0  0  0  0  0  0  0  0  0
    1.6061   -1.3077   -0.3709 C   0  0  0  0  0  0  0  0  0  0  0  0
    0.9103   -1.1904    0.9664 C   0  0  0  0  0  0  0  0  0  0  0  0
   -0.2561   -0.3677    0.9047 N   0  0  0  0  0  0  0  0  0  0  0  0
   -1.3481   -0.9212    0.1392 C   0  0  0  0  0  0  0  0  0  0  0  0
   -2.4744    0.0871    0.1922 C   0  0  0  0  0  0  0  0  0  0  0  0
   -3.6867   -0.3816   -0.5787 C   0  0  0  0  0  0  0  0  0  0  0  0
   -4.7917    0.6135   -0.5297 C   0  0  0  0  0  0  0  0  0  0  0  0
   -5.9424    0.0252    0.2292 C   0  0  0  0  0  0  0  0  0  0  0  0
   -5.4950   -1.2549    0.7145 N   0  0  0  0  0  0  0  0  0  0  0  0
   -4.3145   -1.6180   -0.0358 C   0  0  0  0  0  0  0  0  0  0  0  0
   -4.6505   -2.6078   -1.1318 C   0  0  0  0  0  0  0  0  0  0  0  0
   -6.3593    0.8558    1.4104 C   0  0  0  0  0  0  0  0  0  0  0  0
   -6.5370    2.3111    1.0937 C   0  0  0  0  0  0  0  0  0  0  0  0
   -5.6829    2.8120   -0.0233 C   0  0  0  0  0  0  0  0  0  0  0  0
   -4.4005    1.9673   -0.0187 C   0  0  0  0  0  0  0  0  0  0  0  0
    7.8732    1.4765   -1.9263 H   0  0  0  0  0  0  0  0  0  0  0  0
    7.5381    2.8368   -0.2601 H   0  0  0  0  0  0  0  0  0  0  0  0
    7.8419    2.2777    1.9544 H   0  0  0  0  0  0  0  0  0  0  0  0
    8.1866    0.2619    2.6889 H   0  0  0  0  0  0  0  0  0  0  0  0
    5.4594    2.0244    0.6996 H   0  0  0  0  0  0  0  0  0  0  0  0
    5.6508    1.7312   -1.0453 H   0  0  0  0  0  0  0  0  0  0  0  0
    6.2937   -0.6632   -0.6298 H   0  0  0  0  0  0  0  0  0  0  0  0
    6.0754   -0.3467    1.1372 H   0  0  0  0  0  0  0  0  0  0  0  0
    3.7736    0.2268    0.8964 H   0  0  0  0  0  0  0  0  0  0  0  0
    3.7895   -0.6399   -2.0527 H   0  0  0  0  0  0  0  0  0  0  0  0
    3.8126    1.0591   -1.4932 H   0  0  0  0  0  0  0  0  0  0  0  0
    1.8847    0.8217   -0.1470 H   0  0  0  0  0  0  0  0  0  0  0  0
    1.5645    0.2996   -1.8531 H   0  0  0  0  0  0  0  0  0  0  0  0
    4.8043   -2.4755   -0.0466 H   0  0  0  0  0  0  0  0  0  0  0  0
    3.9218   -1.9747    1.4246 H   0  0  0  0  0  0  0  0  0  0  0  0
    2.3509   -3.2222    0.1688 H   0  0  0  0  0  0  0  0  0  0  0  0
    2.9476   -2.5843   -1.3910 H   0  0  0  0  0  0  0  0  0  0  0  0
    0.8452   -1.7174   -1.0916 H   0  0  0  0  0  0  0  0  0  0  0  0
    1.5659   -0.8144    1.7583 H   0  0  0  0  0  0  0  0  0  0  0  0
    0.6287   -2.2323    1.2594 H   0  0  0  0  0  0  0  0  0  0  0  0
   -0.6044   -0.1848    1.8715 H   0  0  0  0  0  0  0  0  0  0  0  0
   -1.6193   -1.9297    0.4540 H   0  0  0  0  0  0  0  0  0  0  0  0
   -1.0192   -0.9248   -0.9374 H   0  0  0  0  0  0  0  0  0  0  0  0
   -2.1089    1.0252   -0.2327 H   0  0  0  0  0  0  0  0  0  0  0  0
   -2.7581    0.1756    1.2711 H   0  0  0  0  0  0  0  0  0  0  0  0
   -3.3395   -0.5972   -1.6218 H   0  0  0  0  0  0  0  0  0  0  0  0
   -5.1490    0.7668   -1.5886 H   0  0  0  0  0  0  0  0  0  0  0  0
   -6.8386   -0.1502   -0.4060 H   0  0  0  0  0  0  0  0  0  0  0  0
   -6.2046   -1.9958    0.6895 H   0  0  0  0  0  0  0  0  0  0  0  0
   -3.6268   -2.0998    0.6871 H   0  0  0  0  0  0  0  0  0  0  0  0
   -3.8182   -2.5455   -1.8794 H   0  0  0  0  0  0  0  0  0  0  0  0
   -4.6628   -3.6316   -0.6930 H   0  0  0  0  0  0  0  0  0  0  0  0
   -5.6157   -2.3519   -1.5898 H   0  0  0  0  0  0  0  0  0  0  0  0
   -7.3707    0.4708    1.7344 H   0  0  0  0  0  0  0  0  0  0  0  0
   -5.6764    0.6692    2.2377 H   0  0  0  0  0  0  0  0  0  0  0  0
   -7.6244    2.5633    0.9222 H   0  0  0  0  0  0  0  0  0  0  0  0
   -6.2585    2.8869    2.0115 H   0  0  0  0  0  0  0  0  0  0  0  0
   -5.4308    3.8748    0.1429 H   0  0  0  0  0  0  0  0  0  0  0  0
   -6.2188    2.6405   -0.9808 H   0  0  0  0  0  0  0  0  0  0  0  0
   -3.6350    2.3954   -0.6954 H   0  0  0  0  0  0  0  0  0  0  0  0
   -4.0728    1.9397    1.0447 H   0  0  0  0  0  0  0  0  0  0  0  0
    7.8732    1.4765   -1.9263 H   0  0  0  0  0  0  0  0  0  0  0  0
    7.5381    2.8368   -0.2601 H   0  0  0  0  0  0  0  0  0  0  0  0
    7.8419    2.2777    1.9544 H   0  0  0  0  0  0  0  0  0  0  0  0
    8.1866    0.2619    2.6889 H   0  0  0  0  0  0  0  0  0  0  0  0
    5.4594    2.0244    0.6996 H   0  0  0  0  0  0  0  0  0  0  0  0
    5.6508    1.7312   -1.0453 H   0  0  0  0  0  0  0  0  0  0  0  0
    6.2937   -0.6632   -0.6298 H   0  0  0  0  0  0  0  0  0  0  0  0
    6.0754   -0.3467    1.1372 H   0  0  0  0  0  0  0  0  0  0  0  0
    3.7736    0.2268    0.8964 H   0  0  0  0  0  0  0  0  0  0  0  0
    3.7895   -0.6399   -2.0527 H   0  0  0  0  0  0  0  0  0  0  0  0
    3.8126    1.0591   -1.4932 H   0  0  0  0  0  0  0  0  0  0  0  0
    1.8847    0.8217   -0.1470 H   0  0  0  0  0  0  0  0  0  0  0  0
    1.5645    0.2996   -1.8531 H   0  0  0  0  0  0  0  0  0  0  0  0
    4.8043   -2.4755   -0.0466 H   0  0  0  0  0  0  0  0  0  0  0  0
    3.9218   -1.9747    1.4246 H   0  0  0  0  0  0  0  0  0  0  0  0
    2.3509   -3.2222    0.1688 H   0  0  0  0  0  0  0  0  0  0  0  0
    2.9476   -2.5843   -1.3910 H   0  0  0  0  0  0  0  0  0  0  0  0
    0.8452   -1.7174   -1.0916 H   0  0  0  0  0  0  0  0  0  0  0  0
    1.5659   -0.8144    1.7583 H   0  0  0  0  0  0  0  0  0  0  0  0
    0.6287   -2.2323    1.2594 H   0  0  0  0  0  0  0  0  0  0  0  0
   -0.6044   -0.1848    1.8715 H   0  0  0  0  0  0  0  0  0  0  0  0
   -1.6193   -1.9297    0.4540 H   0  0  0  0  0  0  0  0  0  0  0  0
   -1.0192   -0.9248   -0.9374 H   0  0  0  0  0  0  0  0  0  0  0  0
   -2.1089    1.0252   -0.2327 H   0  0  0  0  0  0  0  0  0  0  0  0
   -2.7581    0.1756    1.2711 H   0  0  0  0  0  0  0  0  0  0  0  0
   -3.3395   -0.5972   -1.6218 H   0  0  0  0  0  0  0  0  0  0  0  0
   -5.1490    0.7668   -1.5886 H   0  0  0  0  0  0  0  0  0  0  0  0
   -6.8386   -0.1502   -0.4060 H   0  0  0  0  0  0  0  0  0  0  0  0
   -6.2046   -1.9958    0.6895 H   0  0  0  0  0  0  0  0  0  0  0  0
   -3.6268   -2.0998    0.6871 H   0  0  0  0  0  0  0  0  0  0  0  0
   -3.8182   -2.5455   -1.8794 H   0  0  0  0  0  0  0  0  0  0  0  0
   -4.6628   -3.6316   -0.6930 H   0  0  0  0  0  0  0  0  0  0  0  0
   -5.6157   -2.3519   -1.5898 H   0  0  0  0  0  0  0  0  0  0  0  0
   -7.3707    0.4708    1.7344 H   0  0  0  0  0  0  0  0  0  0  0  0
   -5.6764    0.6692    2.2377 H   0  0  0  0  0  0  0  0  0  0  0  0
   -7.6244    2.5633    0.9222 H   0  0  0  0  0  0  0  0  0  0  0  0
   -6.2585    2.8869    2.0115 H   0  0  0  0  0  0  0  0  0  0  0  0
   -5.4308    3.8748    0.1429 H   0  0  0  0  0  0  0  0  0  0  0  0
   -6.2188    2.6405   -0.9808 H   0  0  0  0  0  0  0  0  0  0  0  0
   -3.6350    2.3954   -0.6954 H   0  0  0  0  0  0  0  0  0  0  0  0
   -4.0728    1.9397    1.0447 H   0  0  0  0  0  0  0  0  0  0  0  0
  1  2  1  0
  2  3  1  0
  4  3  1  0
  2  5  1  0
  5  6  1  0
  6  7  1  0
  7  8  1  0
  8  9  1  0
  7 10  1  0
 10 11  1  0
  9 12  1  0
 11 12  1  0
 12 13  1  0
 13 14  1  0
 14 15  1  0
 15 16  1  0
 16 17  1  0
 17 18  1  0
 18 19  1  0
 19 20  1  0
 17 21  1  0
 20 21  1  0
 21 22  1  0
 19 23  1  0
 23 24  1  0
 24 25  1  0
 18 26  1  0
 25 26  1  0
 27 28  1  0
 28 29  1  0
 30 29  1  0
 28 31  1  0
 31 32  1  0
 32 33  1  0
 33 34  1  0
 34 35  1  0
 33 36  1  0
 36 37  1  0
 35 38  1  0
 37 38  1  0
 38 39  1  0
 39 40  1  0
 40 41  1  0
 41 42  1  0
 42 43  1  0
 43 44  1  0
 44 45  1  0
 45 46  1  0
 43 47  1  0
 46 47  1  0
 47 48  1  0
 45 49  1  0
 49 50  1  0
 50 51  1  0
 44 52  1  0
 51 52  1  0
  1 53  1  0
  2 54  1  0
  3 55  1  0
  4 56  1  0
  5 57  1  0
  5 58  1  0
  6 59  1  0
  6 60  1  0
  7 61  1  0
  8 62  1  0
  8 63  1  0
  9 64  1  0
  9 65  1  0
 10 66  1  0
 10 67  1  0
 11 68  1  0
 11 69  1  0
 12 70  1  0
 13 71  1  0
 13 72  1  0
 14 73  1  0
 15 74  1  0
 15 75  1  0
 16 76  1  0
 16 77  1  0
 17 78  1  0
 18 79  1  0
 19 80  1  0
 20 81  1  0
 21 82  1  0
 22 83  1  0
 22 84  1  0
 22 85  1  0
 23 86  1  0
 23 87  1  0
 24 88  1  0
 24 89  1  0
 25 90  1  0
 25 91  1  0
 26 92  1  0
 26 93  1  0
 27 94  1  0
 28 95  1  0
 29 96  1  0
 30 97  1  0
 31 98  1  0
 31 99  1  0
 32100  1  0
 32101  1  0
 33102  1  0
 34103  1  0
 34104  1  0
 35105  1  0
 35106  1  0
 36107  1  0
 36108  1  0
 37109  1  0
 37110  1  0
 38111  1  0
 39112  1  0
 39113  1  0
 40114  1  0
 41115  1  0
 41116  1  0
 42117  1  0
 42118  1  0
 43119  1  0
 44120  1  0
 45121  1  0
 46122  1  0
 47123  1  0
 48124  1  0
 48125  1  0
 48126  1  0
 49127  1  0
 49128  1  0
 50129  1  0
 50130  1  0
 51131  1  0
 51132  1  0
 52133  1  0
 52134  1  0
M  END
>  <PDBID>  (1) 
5EF8

>  <PDB ID>  (1) 
5EF8

>  <Generic Name>  (1) 
Panobinostat

>  <Brand Name>  (1) 
Farydak

>  <DrugBank ID>  (1) 
DB06603

>  <ATC Codes>  (1) 
L01XX42

>  <Ligand ID>  (1) 
LBH

>  <Target Name>  (1) 
Histone deacetylase 9

>  <UniProt ID>  (1) 
Q9UKV0

>  <PDB ID.1>  (1) 
5EF8

>  <Seq. Identity>  (1) 
46%

$$$$
