PDB_DB01144_03
     RDKit          3D

 32 32  0  0  0  0  0  0  0  0999 V2000
    2.6529   -0.1319    0.8030 S   0  0  0  0  0  0  0  0  0  0  0  0
    2.8815   -1.6496    1.3861 O   0  0  0  0  0  0  0  0  0  0  0  0
    3.0020    0.9556    1.5724 O   0  0  0  0  0  0  0  0  0  0  0  0
    4.0003   -0.2878   -0.5696 N   0  0  0  0  0  0  0  0  0  0  0  0
   -2.5601   -0.7181    0.8055 S   0  0  0  0  0  0  0  0  0  0  0  0
   -2.6646    0.1864    2.0233 O   0  0  0  0  0  0  0  0  0  0  0  0
   -2.1383   -2.3031    1.4162 O   0  0  0  0  0  0  0  0  0  0  0  0
   -3.8722   -0.9336   -0.0453 N   0  0  0  0  0  0  0  0  0  0  0  0
    1.2728   -0.1135   -0.2337 C   0  0  0  0  0  0  0  0  0  0  0  0
    0.0488   -0.5635    0.4937 C   0  0  0  0  0  0  0  0  0  0  0  0
   -1.2306   -0.3336   -0.2644 C   0  0  0  0  0  0  0  0  0  0  0  0
   -1.3404    1.0565   -0.8120 C   0  0  0  0  0  0  0  0  0  0  0  0
   -0.1094    1.3246   -1.6452 C   0  0  0  0  0  0  0  0  0  0  0  0
    1.1532    1.2814   -0.8096 C   0  0  0  0  0  0  0  0  0  0  0  0
   -2.7435    1.0938   -1.9218 Cl  0  0  0  0  0  0  0  0  0  0  0  0
   -0.2250    2.8005   -2.5951 Cl  0  0  0  0  0  0  0  0  0  0  0  0
    3.4840   -1.6007    2.1743 H   0  0  0  0  0  0  0  0  0  0  0  0
    3.6855    1.6213    1.7503 H   0  0  0  0  0  0  0  0  0  0  0  0
    3.5306   -1.0294   -1.1356 H   0  0  0  0  0  0  0  0  0  0  0  0
    3.8053    0.6244   -1.0153 H   0  0  0  0  0  0  0  0  0  0  0  0
   -3.3516    0.9093    2.0182 H   0  0  0  0  0  0  0  0  0  0  0  0
   -2.9801   -2.7023    1.7530 H   0  0  0  0  0  0  0  0  0  0  0  0
   -3.7192   -1.4151   -0.9791 H   0  0  0  0  0  0  0  0  0  0  0  0
   -4.5310   -0.1671   -0.2118 H   0  0  0  0  0  0  0  0  0  0  0  0
    1.3895   -0.8094   -1.1157 H   0  0  0  0  0  0  0  0  0  0  0  0
   -0.0255   -0.1305    1.5217 H   0  0  0  0  0  0  0  0  0  0  0  0
    0.1375   -1.6648    0.6464 H   0  0  0  0  0  0  0  0  0  0  0  0
   -1.2562   -1.0522   -1.1090 H   0  0  0  0  0  0  0  0  0  0  0  0
   -1.4371    1.8042   -0.0049 H   0  0  0  0  0  0  0  0  0  0  0  0
   -0.0324    0.4568   -2.3624 H   0  0  0  0  0  0  0  0  0  0  0  0
    1.9967    1.4311   -1.5003 H   0  0  0  0  0  0  0  0  0  0  0  0
    1.1766    2.0600   -0.0332 H   0  0  0  0  0  0  0  0  0  0  0  0
  1  2  1  0
  1  3  1  0
  1  4  1  0
  5  6  1  0
  5  7  1  0
  5  8  1  0
  1  9  1  0
  9 10  1  0
  5 11  1  0
 10 11  1  0
 11 12  1  0
 12 13  1  0
  9 14  1  0
 13 14  1  0
 12 15  1  0
 13 16  1  0
  2 17  1  0
  3 18  1  0
  4 19  1  0
  4 20  1  0
  6 21  1  0
  7 22  1  0
  8 23  1  0
  8 24  1  0
  9 25  1  0
 10 26  1  0
 10 27  1  0
 11 28  1  0
 12 29  1  0
 13 30  1  0
 14 31  1  0
 14 32  1  0
M  END
>  <PDBID>  (1) 
2POU

>  <PDB ID>  (1) 
2POU

>  <Generic Name>  (1) 
Diclofenamide

>  <Brand Name>  (1) 
Daranide#Keveyis#Oratrol

>  <DrugBank ID>  (1) 
DB01144

>  <ATC Codes>  (1) 
S01EC02

>  <Ligand ID>  (1) 
I7A

>  <Target Name>  (1) 
Carbonic anhydrase 1

>  <UniProt ID>  (1) 
P00915

>  <PDB ID.1>  (1) 
2POU

>  <Seq. Identity>  (1) 
61%

$$$$
