PDB_DB00685_06
     RDKit          3D

124132  0  0  0  0  0  0  0  0999 V2000
   -1.2395   -1.7977   -0.6896 C   0  0  0  0  0  0  0  0  0  0  0  0
   -1.9901   -2.4190   -1.8360 C   0  0  0  0  0  0  0  0  0  0  0  0
   -3.2704   -3.1063   -1.4472 C   0  0  0  0  0  0  0  0  0  0  0  0
   -3.0998   -3.9994   -0.4161 F   0  0  0  0  0  0  0  0  0  0  0  0
   -4.1304   -1.9715   -0.8568 C   0  0  0  0  0  0  0  0  0  0  0  0
   -3.4847   -1.6871    0.4702 C   0  0  0  0  0  0  0  0  0  0  0  0
   -4.2226   -0.8496    1.2723 F   0  0  0  0  0  0  0  0  0  0  0  0
   -2.0621   -1.2229    0.4036 C   0  0  0  0  0  0  0  0  0  0  0  0
   -1.8746    0.1814    0.5021 N   0  0  0  0  0  0  0  0  0  0  0  0
   -0.6087    0.6236    0.8809 C   0  0  0  0  0  0  0  0  0  0  0  0
    0.4600   -0.3125    0.7155 N   0  0  0  0  0  0  0  0  0  0  0  0
    1.7809    0.1402    1.0190 C   0  0  0  0  0  0  0  0  0  0  0  0
    2.6864   -0.9142    0.6235 N   0  0  0  0  0  0  0  0  0  0  0  0
    3.9979   -0.8485    1.1462 C   0  0  0  0  0  0  0  0  0  0  0  0
    4.9789   -0.8285   -0.0072 C   0  0  1  0  0  0  0  0  0  0  0  0
    5.1755   -2.0600   -0.8151 C   0  0  0  0  0  0  0  0  0  0  0  0
    6.3756   -2.1717   -1.5997 N   0  0  0  0  0  0  0  0  0  0  0  0
    4.1918   -1.0425   -1.2206 C   0  0  1  0  0  0  0  0  0  0  0  0
    2.7525   -1.1082   -0.7949 C   0  0  0  0  0  0  0  0  0  0  0  0
    2.1492    1.5043    0.5775 C   0  0  0  0  0  0  0  0  0  0  0  0
    1.0252    2.4453    1.0477 C   0  0  0  0  0  0  0  0  0  0  0  0
   -0.1887    1.9567    0.3256 C   0  0  0  0  0  0  0  0  0  0  0  0
   -1.3925    2.8799    0.5809 C   0  0  0  0  0  0  0  0  0  0  0  0
   -2.3982    2.4135   -0.4477 C   0  0  0  0  0  0  0  0  0  0  0  0
   -2.6478    0.9583   -0.3927 C   0  0  0  0  0  0  0  0  0  0  0  0
   -3.6590    3.2498   -0.2301 C   0  0  0  0  0  0  0  0  0  0  0  0
   -3.3377    4.5854   -0.4028 O   0  0  0  0  0  0  0  0  0  0  0  0
   -4.6563    2.8830   -1.1203 O   0  0  0  0  0  0  0  0  0  0  0  0
   -1.0721    4.2006    0.4153 O   0  0  0  0  0  0  0  0  0  0  0  0
    3.2742    1.9470    1.2075 F   0  0  0  0  0  0  0  0  0  0  0  0
   -0.6088   -0.9980   -1.1937 H   0  0  0  0  0  0  0  0  0  0  0  0
   -1.3312   -3.1384   -2.3473 H   0  0  0  0  0  0  0  0  0  0  0  0
   -4.0783   -1.1641   -1.5786 H   0  0  0  0  0  0  0  0  0  0  0  0
    4.1864   -0.0119    1.8127 H   0  0  0  0  0  0  0  0  0  0  0  0
    4.2018   -1.7942    1.7322 H   0  0  0  0  0  0  0  0  0  0  0  0
    5.8230   -0.1248    0.0441 H   0  0  0  0  0  0  0  0  0  0  0  0
    4.7642   -2.9882   -0.3535 H   0  0  0  0  0  0  0  0  0  0  0  0
    6.6172   -3.1921   -1.6688 H   0  0  0  0  0  0  0  0  0  0  0  0
    7.1621   -1.6386   -1.1686 H   0  0  0  0  0  0  0  0  0  0  0  0
    4.4405   -0.4395   -2.1355 H   0  0  0  0  0  0  0  0  0  0  0  0
    2.3476   -2.0912   -1.1031 H   0  0  0  0  0  0  0  0  0  0  0  0
    2.2083   -0.3372   -1.3740 H   0  0  0  0  0  0  0  0  0  0  0  0
    1.3039    3.4479    0.6915 H   0  0  0  0  0  0  0  0  0  0  0  0
   -3.7458    0.8296   -0.2829 H   0  0  0  0  0  0  0  0  0  0  0  0
   -1.4978   -1.8049   -0.7893 C   0  0  0  0  0  0  0  0  0  0  0  0
   -1.8982   -3.2697   -0.5232 C   0  0  0  0  0  0  0  0  0  0  0  0
   -3.3714   -3.3559   -0.8305 C   0  0  0  0  0  0  0  0  0  0  0  0
   -3.8977   -4.5880   -0.4484 F   0  0  0  0  0  0  0  0  0  0  0  0
   -4.0669   -2.2167   -0.1219 C   0  0  0  0  0  0  0  0  0  0  0  0
   -3.2068   -1.5896    0.9426 C   0  0  0  0  0  0  0  0  0  0  0  0
   -3.9647   -0.6358    1.5883 F   0  0  0  0  0  0  0  0  0  0  0  0
   -1.8992   -1.0768    0.4652 C   0  0  0  0  0  0  0  0  0  0  0  0
   -1.7283    0.3405    0.4584 N   0  0  0  0  0  0  0  0  0  0  0  0
   -0.3990    0.8415    0.4202 C   0  0  0  0  0  0  0  0  0  0  0  0
    0.6356   -0.0145   -0.0254 N   0  0  0  0  0  0  0  0  0  0  0  0
    1.9223    0.6268   -0.0795 C   0  0  0  0  0  0  0  0  0  0  0  0
    2.9365   -0.3316   -0.5165 N   0  0  0  0  0  0  0  0  0  0  0  0
    3.0325   -1.3771    0.4784 C   0  0  0  0  0  0  0  0  0  0  0  0
    4.4637   -1.8957    0.4354 C   0  0  1  0  0  0  0  0  0  0  0  0
    5.0541   -2.1896   -0.8705 C   0  0  0  0  0  0  0  0  0  0  0  0
    6.2694   -2.9684   -0.9965 N   0  0  0  0  0  0  0  0  0  0  0  0
    5.2476   -0.8519   -0.2686 C   0  0  1  0  0  0  0  0  0  0  0  0
    4.2413    0.2522   -0.5058 C   0  0  0  0  0  0  0  0  0  0  0  0
    1.8710    1.8123   -1.0145 C   0  0  0  0  0  0  0  0  0  0  0  0
    0.9665    2.8331   -0.3023 C   0  0  0  0  0  0  0  0  0  0  0  0
   -0.3772    2.1461   -0.2996 C   0  0  0  0  0  0  0  0  0  0  0  0
   -1.4512    3.0106    0.3466 C   0  0  0  0  0  0  0  0  0  0  0  0
   -2.7249    2.4801   -0.3156 C   0  0  0  0  0  0  0  0  0  0  0  0
   -2.6412    1.0073   -0.4393 C   0  0  0  0  0  0  0  0  0  0  0  0
   -3.9623    3.0393    0.2814 C   0  0  0  0  0  0  0  0  0  0  0  0
   -5.1052    2.5572   -0.3245 O   0  0  0  0  0  0  0  0  0  0  0  0
   -3.9058    4.4286    0.1786 O   0  0  0  0  0  0  0  0  0  0  0  0
   -1.2668    4.3566    0.1614 O   0  0  0  0  0  0  0  0  0  0  0  0
    3.0599    2.4251   -1.2189 F   0  0  0  0  0  0  0  0  0  0  0  0
   -2.1296   -1.4698   -1.6677 H   0  0  0  0  0  0  0  0  0  0  0  0
   -1.7987   -3.4897    0.5817 H   0  0  0  0  0  0  0  0  0  0  0  0
   -4.4445   -1.5428   -0.8873 H   0  0  0  0  0  0  0  0  0  0  0  0
    2.8237   -0.9947    1.4943 H   0  0  0  0  0  0  0  0  0  0  0  0
    2.3670   -2.1983    0.1789 H   0  0  0  0  0  0  0  0  0  0  0  0
    4.9170   -2.2620    1.3889 H   0  0  0  0  0  0  0  0  0  0  0  0
    4.3692   -2.2716   -1.7488 H   0  0  0  0  0  0  0  0  0  0  0  0
    6.3584   -3.6185   -0.1907 H   0  0  0  0  0  0  0  0  0  0  0  0
    7.1296   -2.3437   -1.0220 H   0  0  0  0  0  0  0  0  0  0  0  0
    6.2373   -0.5256    0.0563 H   0  0  0  0  0  0  0  0  0  0  0  0
    4.5283    0.6861   -1.5019 H   0  0  0  0  0  0  0  0  0  0  0  0
    4.4114    0.9983    0.3063 H   0  0  0  0  0  0  0  0  0  0  0  0
    0.9007    3.7175   -0.9392 H   0  0  0  0  0  0  0  0  0  0  0  0
   -3.6548    0.6064   -0.2525 H   0  0  0  0  0  0  0  0  0  0  0  0
   -0.4917   -2.5656   -0.3602 H   0  0  0  0  0  0  0  0  0  0  0  0
   -2.2736   -1.6517   -2.6093 H   0  0  0  0  0  0  0  0  0  0  0  0
   -3.7410   -3.5143   -2.3369 H   0  0  0  0  0  0  0  0  0  0  0  0
   -5.1456   -2.3487   -0.6512 H   0  0  0  0  0  0  0  0  0  0  0  0
   -3.4996   -2.6779    0.9881 H   0  0  0  0  0  0  0  0  0  0  0  0
   -1.6090   -1.6228    1.3709 H   0  0  0  0  0  0  0  0  0  0  0  0
   -0.6545    0.8043    2.0099 H   0  0  0  0  0  0  0  0  0  0  0  0
    0.3160   -1.1498    1.3647 H   0  0  0  0  0  0  0  0  0  0  0  0
    1.8480    0.1535    2.1519 H   0  0  0  0  0  0  0  0  0  0  0  0
    2.1811    1.6439   -0.5249 H   0  0  0  0  0  0  0  0  0  0  0  0
    0.9071    2.3919    2.1460 H   0  0  0  0  0  0  0  0  0  0  0  0
   -0.0131    1.9524   -0.7620 H   0  0  0  0  0  0  0  0  0  0  0  0
   -1.7199    2.6513    1.6183 H   0  0  0  0  0  0  0  0  0  0  0  0
   -1.9968    2.7632   -1.4359 H   0  0  0  0  0  0  0  0  0  0  0  0
   -2.4252    0.5544   -1.4280 H   0  0  0  0  0  0  0  0  0  0  0  0
   -3.9887    3.0760    0.7983 H   0  0  0  0  0  0  0  0  0  0  0  0
   -4.1014    5.1800   -0.3312 H   0  0  0  0  0  0  0  0  0  0  0  0
   -0.3960    4.3711   -0.2658 H   0  0  0  0  0  0  0  0  0  0  0  0
   -0.4455   -1.8165   -1.0361 H   0  0  0  0  0  0  0  0  0  0  0  0
   -1.2836   -3.9669   -1.0878 H   0  0  0  0  0  0  0  0  0  0  0  0
   -3.4893   -3.3177   -1.9351 H   0  0  0  0  0  0  0  0  0  0  0  0
   -4.9504   -2.6558    0.3897 H   0  0  0  0  0  0  0  0  0  0  0  0
   -3.0760   -2.4070    1.7231 H   0  0  0  0  0  0  0  0  0  0  0  0
   -1.1277   -1.4395    1.2346 H   0  0  0  0  0  0  0  0  0  0  0  0
   -0.1411    1.0989    1.5038 H   0  0  0  0  0  0  0  0  0  0  0  0
    0.7792   -0.8296    0.6646 H   0  0  0  0  0  0  0  0  0  0  0  0
    2.2717    0.9998    0.9108 H   0  0  0  0  0  0  0  0  0  0  0  0
    1.3257    1.4954   -1.9252 H   0  0  0  0  0  0  0  0  0  0  0  0
    1.3172    3.0036    0.7176 H   0  0  0  0  0  0  0  0  0  0  0  0
   -0.6249    1.9569   -1.3654 H   0  0  0  0  0  0  0  0  0  0  0  0
   -1.4717    2.7532    1.4281 H   0  0  0  0  0  0  0  0  0  0  0  0
   -2.6636    2.8884   -1.3736 H   0  0  0  0  0  0  0  0  0  0  0  0
   -2.3778    0.6561   -1.4809 H   0  0  0  0  0  0  0  0  0  0  0  0
   -3.9664    2.8300    1.3918 H   0  0  0  0  0  0  0  0  0  0  0  0
   -3.6068    4.7597   -0.6905 H   0  0  0  0  0  0  0  0  0  0  0  0
   -0.8196    4.7087    0.9971 H   0  0  0  0  0  0  0  0  0  0  0  0
  1  2  1  0
  2  3  1  0
  3  4  1  0
  3  5  1  0
  5  6  1  0
  6  7  1  0
  1  8  1  0
  6  8  1  0
  8  9  1  0
  9 10  1  0
 10 11  1  0
 11 12  1  0
 12 13  1  0
 13 14  1  0
 14 15  1  0
 15 16  1  0
 16 17  1  0
 15 18  1  0
 16 18  1  0
 13 19  1  0
 18 19  1  0
 12 20  1  0
 20 21  1  0
 10 22  1  0
 21 22  1  0
 22 23  1  0
 23 24  1  0
  9 25  1  0
 24 25  1  0
 24 26  1  0
 26 27  1  0
 26 28  1  0
 23 29  1  0
 20 30  1  0
  1 31  1  0
  2 32  1  0
  5 33  1  0
 14 34  1  0
 14 35  1  0
 15 36  1  6
 16 37  1  0
 17 38  1  0
 17 39  1  0
 18 40  1  6
 19 41  1  0
 19 42  1  0
 21 43  1  0
 25 44  1  0
 45 46  1  0
 46 47  1  0
 47 48  1  0
 47 49  1  0
 49 50  1  0
 50 51  1  0
 45 52  1  0
 50 52  1  0
 52 53  1  0
 53 54  1  0
 54 55  1  0
 55 56  1  0
 56 57  1  0
 57 58  1  0
 58 59  1  0
 59 60  1  0
 60 61  1  0
 59 62  1  0
 60 62  1  0
 57 63  1  0
 62 63  1  0
 56 64  1  0
 64 65  1  0
 54 66  1  0
 65 66  1  0
 66 67  1  0
 67 68  1  0
 53 69  1  0
 68 69  1  0
 68 70  1  0
 70 71  1  0
 70 72  1  0
 67 73  1  0
 64 74  1  0
 45 75  1  0
 46 76  1  0
 49 77  1  0
 58 78  1  0
 58 79  1  0
 59 80  1  1
 60 81  1  0
 61 82  1  0
 61 83  1  0
 62 84  1  1
 63 85  1  0
 63 86  1  0
 65 87  1  0
 69 88  1  0
  1 89  1  0
  2 90  1  0
  3 91  1  0
  5 92  1  0
  6 93  1  0
  8 94  1  0
 10 95  1  0
 11 96  1  0
 12 97  1  0
 20 98  1  0
 21 99  1  0
 22100  1  0
 23101  1  0
 24102  1  0
 25103  1  0
 26104  1  0
 27105  1  0
 29106  1  0
 45107  1  0
 46108  1  0
 47109  1  0
 49110  1  0
 50111  1  0
 52112  1  0
 54113  1  0
 55114  1  0
 56115  1  0
 64116  1  0
 65117  1  0
 66118  1  0
 67119  1  0
 68120  1  0
 69121  1  0
 70122  1  0
 72123  1  0
 73124  1  0
M  CHG  2  28  -1  71  -1
M  END
>  <PDBID>  (1) 
4Z2E

>  <PDB ID>  (1) 
4Z2E

>  <Generic Name>  (1) 
Trovafloxacin

>  <Brand Name>  (1) 
Trovan I.V.#Trovan Tablets 100mg#Trovan Tablets 200mg#Trovan

>  <DrugBank ID>  (1) 
DB00685

>  <ATC Codes>  (1) 
J01MA13

>  <Ligand ID>  (1) 
TR6

>  <Target Name>  (1) 
DNA gyrase subunit A

>  <UniProt ID>  (1) 
P43700

>  <PDB ID.1>  (1) 
4Z2E

>  <Seq. Identity>  (1) 
50%

$$$$
