PDB_DB00710_03
     RDKit          3D

 46 45  0  0  0  0  0  0  0  0999 V2000
   -2.7127   -1.0589   -1.0474 P   0  0  0  0  0  0  0  0  0  0  0  0
   -1.8216   -2.4129   -1.2511 O   0  0  0  0  0  0  0  0  0  0  0  0
   -3.9936   -0.6902   -2.1338 O   0  0  0  0  0  0  0  0  0  0  0  0
   -1.8073   -0.2708   -2.0002 O   0  0  0  0  0  0  0  0  0  0  0  0
   -2.5637   -0.0951    0.3795 C   0  0  0  0  0  0  0  0  0  0  0  0
   -3.7726    1.0913    0.7109 P   0  0  0  0  0  0  0  0  0  0  0  0
   -3.2093    1.6318    2.0454 O   0  0  0  0  0  0  0  0  0  0  0  0
   -5.1779    0.6882    1.5784 O   0  0  0  0  0  0  0  0  0  0  0  0
   -3.6523    2.6154    0.0698 O   0  0  0  0  0  0  0  0  0  0  0  0
   -2.4415   -0.9276    1.5424 O   0  0  0  0  0  0  0  0  0  0  0  0
   -1.1978    0.6356    0.4801 C   0  0  0  0  0  0  0  0  0  0  0  0
   -0.1267   -0.3919    0.4955 C   0  0  0  0  0  0  0  0  0  0  0  0
    1.2039    0.1143    0.5872 N   0  0  0  0  0  0  0  0  0  0  0  0
    1.6644    0.8256   -0.5592 C   0  0  0  0  0  0  0  0  0  0  0  0
    3.0875    1.2969   -0.3980 C   0  0  0  0  0  0  0  0  0  0  0  0
    4.0667    0.1740   -0.1862 C   0  0  0  0  0  0  0  0  0  0  0  0
    4.0864   -0.8113   -1.3455 C   0  0  0  0  0  0  0  0  0  0  0  0
    5.0956   -1.9221   -1.0760 C   0  0  0  0  0  0  0  0  0  0  0  0
    1.5152    0.7267    1.8440 C   0  0  0  0  0  0  0  0  0  0  0  0
   -3.6413   -1.8140   -0.5538 H   0  0  0  0  0  0  0  0  0  0  0  0
   -2.0466   -2.8149   -2.0961 H   0  0  0  0  0  0  0  0  0  0  0  0
   -3.9398   -1.3092   -2.8652 H   0  0  0  0  0  0  0  0  0  0  0  0
   -1.8984    0.6913   -2.0187 H   0  0  0  0  0  0  0  0  0  0  0  0
   -4.5295    0.8147   -0.2810 H   0  0  0  0  0  0  0  0  0  0  0  0
   -2.9405    0.9827    2.7069 H   0  0  0  0  0  0  0  0  0  0  0  0
   -4.9950   -0.1990    1.8975 H   0  0  0  0  0  0  0  0  0  0  0  0
   -4.4037    3.1345    0.3714 H   0  0  0  0  0  0  0  0  0  0  0  0
   -3.2100   -1.5682    1.5038 H   0  0  0  0  0  0  0  0  0  0  0  0
   -1.0856    1.3924   -0.3042 H   0  0  0  0  0  0  0  0  0  0  0  0
   -1.2808    1.2079    1.4395 H   0  0  0  0  0  0  0  0  0  0  0  0
   -0.1838   -0.9734   -0.4469 H   0  0  0  0  0  0  0  0  0  0  0  0
   -0.2785   -1.1120    1.3251 H   0  0  0  0  0  0  0  0  0  0  0  0
    1.6352    0.1434   -1.4316 H   0  0  0  0  0  0  0  0  0  0  0  0
    1.0135    1.6790   -0.8448 H   0  0  0  0  0  0  0  0  0  0  0  0
    3.3794    1.8055   -1.3524 H   0  0  0  0  0  0  0  0  0  0  0  0
    3.1964    2.0301    0.4270 H   0  0  0  0  0  0  0  0  0  0  0  0
    5.1015    0.5872   -0.1516 H   0  0  0  0  0  0  0  0  0  0  0  0
    3.9135   -0.3905    0.7441 H   0  0  0  0  0  0  0  0  0  0  0  0
    4.3585   -0.2722   -2.2508 H   0  0  0  0  0  0  0  0  0  0  0  0
    3.0669   -1.2752   -1.3754 H   0  0  0  0  0  0  0  0  0  0  0  0
    5.6857   -2.0641   -1.9827 H   0  0  0  0  0  0  0  0  0  0  0  0
    5.7095   -1.6025   -0.2165 H   0  0  0  0  0  0  0  0  0  0  0  0
    4.5601   -2.8523   -0.7785 H   0  0  0  0  0  0  0  0  0  0  0  0
    2.2690    0.1413    2.3798 H   0  0  0  0  0  0  0  0  0  0  0  0
    0.5767    0.6213    2.4694 H   0  0  0  0  0  0  0  0  0  0  0  0
    1.7250    1.7973    1.8155 H   0  0  0  0  0  0  0  0  0  0  0  0
  1  2  1  0
  1  3  1  0
  1  4  1  0
  1  5  1  0
  5  6  1  0
  6  7  1  0
  6  8  1  0
  6  9  1  0
  5 10  1  0
  5 11  1  0
 11 12  1  0
 12 13  1  0
 13 14  1  0
 14 15  1  0
 15 16  1  0
 16 17  1  0
 17 18  1  0
 13 19  1  0
  1 20  1  0
  2 21  1  0
  3 22  1  0
  4 23  1  0
  6 24  1  0
  7 25  1  0
  8 26  1  0
  9 27  1  0
 10 28  1  0
 11 29  1  0
 11 30  1  0
 12 31  1  0
 12 32  1  0
 14 33  1  0
 14 34  1  0
 15 35  1  0
 15 36  1  0
 16 37  1  0
 16 38  1  0
 17 39  1  0
 17 40  1  0
 18 41  1  0
 18 42  1  0
 18 43  1  0
 19 44  1  0
 19 45  1  0
 19 46  1  0
M  END
>  <PDBID>  (1) 
2F94

>  <PDB ID>  (1) 
2F94

>  <Generic Name>  (1) 
Ibandronate

>  <Brand Name>  (1) 
Bondronat#Boniva#Ibandronate Sodium#ADRONiL#Bonviva

>  <DrugBank ID>  (1) 
DB00710

>  <ATC Codes>  (1) 
M05BA06

>  <Ligand ID>  (1) 
BFQ

>  <Target Name>  (1) 
Farnesyl pyrophosphate synthase

>  <UniProt ID>  (1) 
P14324

>  <PDB ID.1>  (1) 
2F94

>  <Seq. Identity>  (1) 
100%

$$$$
