PDB_DB01137_05
     RDKit          3D

116122  0  0  0  0  0  0  0  0999 V2000
   -4.6670    1.6261   -0.4129 C   0  0  0  0  0  0  0  0  0  0  0  0
    0.4664    0.4856    2.9615 F   0  0  0  0  0  0  0  0  0  0  0  0
    4.8385    0.0852    0.2872 N   0  0  0  0  0  0  0  0  0  0  0  0
   -5.2801    1.2068   -1.5966 O   0  0  0  0  0  0  0  0  0  0  0  0
    2.9115   -1.0510   -0.6417 C   0  0  0  0  0  0  0  0  0  0  0  0
    2.2315    0.0789   -0.1321 N   0  0  0  0  0  0  0  0  0  0  0  0
    0.3886   -2.0547   -0.2587 O   0  0  0  0  0  0  0  0  0  0  0  0
    2.8221    1.3215   -0.3654 C   0  0  0  0  0  0  0  0  0  0  0  0
   -2.0781   -1.0730   -0.3434 N   0  0  0  0  0  0  0  0  0  0  0  0
   -2.6372    2.7916    1.1417 O   0  0  0  0  0  0  0  0  0  0  0  0
   -1.9622   -2.3882    0.2445 C   0  0  2  0  0  0  0  0  0  0  0  0
   -4.5487    3.0088   -0.4529 O   0  0  0  0  0  0  0  0  0  0  0  0
    1.3333   -0.1462    0.9158 C   0  0  0  0  0  0  0  0  0  0  0  0
   -1.0233   -0.2067    0.0496 C   0  0  0  0  0  0  0  0  0  0  0  0
    0.1343   -1.0163    0.5911 C   0  0  0  0  0  0  0  0  0  0  0  0
    4.4164   -0.9043   -0.6688 C   0  0  0  0  0  0  0  0  0  0  0  0
    4.3269    1.3640   -0.1694 C   0  0  0  0  0  0  0  0  0  0  0  0
   -0.6559   -2.9836   -0.1564 C   0  0  0  0  0  0  0  0  0  0  0  0
   -1.4263    0.7042    1.2199 C   0  0  0  0  0  0  0  0  0  0  0  0
    0.9073    1.0225    1.7311 C   0  0  0  0  0  0  0  0  0  0  0  0
   -3.3974   -0.5268   -0.3067 C   0  0  0  0  0  0  0  0  0  0  0  0
   -0.3083    1.7598    1.2131 C   0  0  0  0  0  0  0  0  0  0  0  0
   -3.1078   -3.2369   -0.2599 C   0  0  0  0  0  0  0  0  0  0  0  0
   -2.7135    1.4101    0.9979 C   0  0  0  0  0  0  0  0  0  0  0  0
    6.2856    0.2046    0.2837 C   0  0  0  0  0  0  0  0  0  0  0  0
   -3.2972    0.9827   -0.3142 C   0  0  0  0  0  0  0  0  0  0  0  0
    2.5786   -1.3365   -1.6523 H   0  0  0  0  0  0  0  0  0  0  0  0
    2.7157   -1.9443    0.0215 H   0  0  0  0  0  0  0  0  0  0  0  0
    2.6635    1.5656   -1.4628 H   0  0  0  0  0  0  0  0  0  0  0  0
    2.4120    2.1695    0.1691 H   0  0  0  0  0  0  0  0  0  0  0  0
   -2.0945   -2.3138    1.3563 H   0  0  0  0  0  0  0  0  0  0  0  0
    4.9280   -1.8603   -0.4001 H   0  0  0  0  0  0  0  0  0  0  0  0
    4.7783   -0.5879   -1.6608 H   0  0  0  0  0  0  0  0  0  0  0  0
    4.8805    1.6128   -1.1032 H   0  0  0  0  0  0  0  0  0  0  0  0
    4.6340    2.1215    0.5831 H   0  0  0  0  0  0  0  0  0  0  0  0
   -0.3724   -3.7362    0.6238 H   0  0  0  0  0  0  0  0  0  0  0  0
   -0.8090   -3.5484   -1.0922 H   0  0  0  0  0  0  0  0  0  0  0  0
   -4.0072   -0.8192   -1.1887 H   0  0  0  0  0  0  0  0  0  0  0  0
   -0.2255    2.0843    0.1804 H   0  0  0  0  0  0  0  0  0  0  0  0
   -3.0921   -3.4155   -1.3351 H   0  0  0  0  0  0  0  0  0  0  0  0
   -4.0898   -2.7596   -0.0208 H   0  0  0  0  0  0  0  0  0  0  0  0
   -3.1390   -4.2220    0.2832 H   0  0  0  0  0  0  0  0  0  0  0  0
    6.6331    0.6716   -0.6826 H   0  0  0  0  0  0  0  0  0  0  0  0
    6.8136   -0.7222    0.5003 H   0  0  0  0  0  0  0  0  0  0  0  0
    6.5888    0.9580    1.0646 H   0  0  0  0  0  0  0  0  0  0  0  0
   -4.6670    1.6261   -0.4129 C   0  0  0  0  0  0  0  0  0  0  0  0
    0.4664    0.4856    2.9615 F   0  0  0  0  0  0  0  0  0  0  0  0
    4.8385    0.0852    0.2872 N   0  0  0  0  0  0  0  0  0  0  0  0
   -5.2801    1.2068   -1.5966 O   0  0  0  0  0  0  0  0  0  0  0  0
    2.9115   -1.0510   -0.6417 C   0  0  0  0  0  0  0  0  0  0  0  0
    2.2315    0.0789   -0.1321 N   0  0  0  0  0  0  0  0  0  0  0  0
    0.3886   -2.0547   -0.2587 O   0  0  0  0  0  0  0  0  0  0  0  0
    2.8221    1.3215   -0.3654 C   0  0  0  0  0  0  0  0  0  0  0  0
   -2.0781   -1.0730   -0.3434 N   0  0  0  0  0  0  0  0  0  0  0  0
   -2.6372    2.7916    1.1417 O   0  0  0  0  0  0  0  0  0  0  0  0
   -1.9622   -2.3882    0.2445 C   0  0  2  0  0  0  0  0  0  0  0  0
   -4.5487    3.0088   -0.4529 O   0  0  0  0  0  0  0  0  0  0  0  0
    1.3333   -0.1462    0.9158 C   0  0  0  0  0  0  0  0  0  0  0  0
   -1.0233   -0.2067    0.0496 C   0  0  0  0  0  0  0  0  0  0  0  0
    0.1343   -1.0163    0.5911 C   0  0  0  0  0  0  0  0  0  0  0  0
    4.4164   -0.9043   -0.6688 C   0  0  0  0  0  0  0  0  0  0  0  0
    4.3269    1.3640   -0.1694 C   0  0  0  0  0  0  0  0  0  0  0  0
   -0.6559   -2.9836   -0.1564 C   0  0  0  0  0  0  0  0  0  0  0  0
   -1.4263    0.7042    1.2199 C   0  0  0  0  0  0  0  0  0  0  0  0
    0.9073    1.0225    1.7311 C   0  0  0  0  0  0  0  0  0  0  0  0
   -3.3974   -0.5268   -0.3067 C   0  0  0  0  0  0  0  0  0  0  0  0
   -0.3083    1.7598    1.2131 C   0  0  0  0  0  0  0  0  0  0  0  0
   -3.1078   -3.2369   -0.2599 C   0  0  0  0  0  0  0  0  0  0  0  0
   -2.7135    1.4101    0.9979 C   0  0  0  0  0  0  0  0  0  0  0  0
    6.2856    0.2046    0.2837 C   0  0  0  0  0  0  0  0  0  0  0  0
   -3.2972    0.9827   -0.3142 C   0  0  0  0  0  0  0  0  0  0  0  0
    2.5786   -1.3365   -1.6523 H   0  0  0  0  0  0  0  0  0  0  0  0
    2.7157   -1.9443    0.0215 H   0  0  0  0  0  0  0  0  0  0  0  0
    2.6635    1.5656   -1.4628 H   0  0  0  0  0  0  0  0  0  0  0  0
    2.4120    2.1695    0.1691 H   0  0  0  0  0  0  0  0  0  0  0  0
   -2.0945   -2.3138    1.3563 H   0  0  0  0  0  0  0  0  0  0  0  0
    4.9280   -1.8603   -0.4001 H   0  0  0  0  0  0  0  0  0  0  0  0
    4.7783   -0.5879   -1.6608 H   0  0  0  0  0  0  0  0  0  0  0  0
    4.8805    1.6128   -1.1032 H   0  0  0  0  0  0  0  0  0  0  0  0
    4.6340    2.1215    0.5831 H   0  0  0  0  0  0  0  0  0  0  0  0
   -0.3724   -3.7362    0.6238 H   0  0  0  0  0  0  0  0  0  0  0  0
   -0.8090   -3.5484   -1.0922 H   0  0  0  0  0  0  0  0  0  0  0  0
   -4.0072   -0.8192   -1.1887 H   0  0  0  0  0  0  0  0  0  0  0  0
   -0.2255    2.0843    0.1804 H   0  0  0  0  0  0  0  0  0  0  0  0
   -3.0921   -3.4155   -1.3351 H   0  0  0  0  0  0  0  0  0  0  0  0
   -4.0898   -2.7596   -0.0208 H   0  0  0  0  0  0  0  0  0  0  0  0
   -3.1390   -4.2220    0.2832 H   0  0  0  0  0  0  0  0  0  0  0  0
    6.6331    0.6716   -0.6826 H   0  0  0  0  0  0  0  0  0  0  0  0
    6.8136   -0.7222    0.5003 H   0  0  0  0  0  0  0  0  0  0  0  0
    6.5888    0.9580    1.0646 H   0  0  0  0  0  0  0  0  0  0  0  0
   -5.2971    1.3481    0.4498 H   0  0  0  0  0  0  0  0  0  0  0  0
   -4.9419    1.6925   -2.3693 H   0  0  0  0  0  0  0  0  0  0  0  0
   -2.1498    3.1604    0.3484 H   0  0  0  0  0  0  0  0  0  0  0  0
   -4.1837    3.3578   -1.2887 H   0  0  0  0  0  0  0  0  0  0  0  0
    1.9144   -0.8066    1.6491 H   0  0  0  0  0  0  0  0  0  0  0  0
   -0.6766    0.3783   -0.8149 H   0  0  0  0  0  0  0  0  0  0  0  0
   -0.2381   -1.4482    1.5610 H   0  0  0  0  0  0  0  0  0  0  0  0
   -1.3826    0.0929    2.1388 H   0  0  0  0  0  0  0  0  0  0  0  0
    1.7291    1.6937    2.0199 H   0  0  0  0  0  0  0  0  0  0  0  0
   -3.9445   -0.8095    0.6201 H   0  0  0  0  0  0  0  0  0  0  0  0
   -0.5206    2.5651    1.9299 H   0  0  0  0  0  0  0  0  0  0  0  0
   -3.4236    1.0455    1.7987 H   0  0  0  0  0  0  0  0  0  0  0  0
   -2.6408    1.3481   -1.1219 H   0  0  0  0  0  0  0  0  0  0  0  0
   -5.2971    1.3481    0.4498 H   0  0  0  0  0  0  0  0  0  0  0  0
   -4.9419    1.6925   -2.3693 H   0  0  0  0  0  0  0  0  0  0  0  0
   -2.1498    3.1604    0.3484 H   0  0  0  0  0  0  0  0  0  0  0  0
   -4.1837    3.3578   -1.2887 H   0  0  0  0  0  0  0  0  0  0  0  0
    1.9144   -0.8066    1.6491 H   0  0  0  0  0  0  0  0  0  0  0  0
   -0.6766    0.3783   -0.8149 H   0  0  0  0  0  0  0  0  0  0  0  0
   -0.2381   -1.4482    1.5610 H   0  0  0  0  0  0  0  0  0  0  0  0
   -1.3826    0.0929    2.1388 H   0  0  0  0  0  0  0  0  0  0  0  0
    1.7291    1.6937    2.0199 H   0  0  0  0  0  0  0  0  0  0  0  0
   -3.9445   -0.8095    0.6201 H   0  0  0  0  0  0  0  0  0  0  0  0
   -0.5206    2.5651    1.9299 H   0  0  0  0  0  0  0  0  0  0  0  0
   -3.4236    1.0455    1.7987 H   0  0  0  0  0  0  0  0  0  0  0  0
   -2.6408    1.3481   -1.1219 H   0  0  0  0  0  0  0  0  0  0  0  0
  1  4  1  0
  5  6  1  0
  6  8  1  0
  9 11  1  0
  1 12  1  0
  6 13  1  0
  9 14  1  0
  7 15  1  0
 13 15  1  0
 14 15  1  0
  3 16  1  0
  5 16  1  0
  3 17  1  0
  8 17  1  0
  7 18  1  0
 11 18  1  0
 14 19  1  0
  2 20  1  0
 13 20  1  0
  9 21  1  0
 19 22  1  0
 20 22  1  0
 11 23  1  0
 19 24  1  0
 24 10  1  0
  3 25  1  0
  1 26  1  0
 21 26  1  0
 24 26  1  0
  5 27  1  0
  5 28  1  0
  8 29  1  0
  8 30  1  0
 11 31  1  1
 16 32  1  0
 16 33  1  0
 17 34  1  0
 17 35  1  0
 18 36  1  0
 18 37  1  0
 21 38  1  0
 22 39  1  0
 23 40  1  0
 23 41  1  0
 23 42  1  0
 25 43  1  0
 25 44  1  0
 25 45  1  0
 46 49  1  0
 50 51  1  0
 51 53  1  0
 54 56  1  0
 46 57  1  0
 51 58  1  0
 54 59  1  0
 52 60  1  0
 58 60  1  0
 59 60  1  0
 48 61  1  0
 50 61  1  0
 48 62  1  0
 53 62  1  0
 52 63  1  0
 56 63  1  0
 59 64  1  0
 47 65  1  0
 58 65  1  0
 54 66  1  0
 64 67  1  0
 65 67  1  0
 56 68  1  0
 64 69  1  0
 69 55  1  0
 48 70  1  0
 46 71  1  0
 66 71  1  0
 69 71  1  0
 50 72  1  0
 50 73  1  0
 53 74  1  0
 53 75  1  0
 56 76  1  1
 61 77  1  0
 61 78  1  0
 62 79  1  0
 62 80  1  0
 63 81  1  0
 63 82  1  0
 66 83  1  0
 67 84  1  0
 68 85  1  0
 68 86  1  0
 68 87  1  0
 70 88  1  0
 70 89  1  0
 70 90  1  0
  1 91  1  0
  4 92  1  0
 10 93  1  0
 12 94  1  0
 13 95  1  0
 14 96  1  0
 15 97  1  0
 19 98  1  0
 20 99  1  0
 21100  1  0
 22101  1  0
 24102  1  0
 26103  1  0
 46104  1  0
 49105  1  0
 55106  1  0
 57107  1  0
 58108  1  0
 59109  1  0
 60110  1  0
 64111  1  0
 65112  1  0
 66113  1  0
 67114  1  0
 69115  1  0
 71116  1  0
M  END
>  <PDBID>  (1) 
4Z2D

>  <PDB ID>  (1) 
4Z2D

>  <Generic Name>  (1) 
Levofloxacin

>  <Brand Name>  (1) 
Act Levofloxacin#Apo-levofloxacin#Auro-levofloxacin#Ava-levofloxacin#Dom-levofloxacin#Iquix#Levaquin#Levaquin 25mg/ml#Levaquin 500mg#Levaquin 5mg/ml#Levaquin 750mg#Levofloxacin#Levofloxacin In 5% Dextrose Injection#Levofloxacin Injection#Mylan-levofloxacin#Ntp-levofloxacin#PHL-levofloxacin#PMS-levofloxacin#Quinsair#Quixin#Sandoz Levofloxacin#Teva-levofloxacin#Cravit#Elequine#Floxel#Leroxacin#Levokacin#Levox#Levoxacin#Mosardal#Nofaxin#Reskuin#Tavanic

>  <DrugBank ID>  (1) 
DB01137

>  <ATC Codes>  (1) 
A02BD10#J01RA05#S01AE05#J01MA12

>  <Ligand ID>  (1) 
LFX

>  <Target Name>  (1) 
DNA gyrase subunit A

>  <UniProt ID>  (1) 
P43700

>  <PDB ID.1>  (1) 
4Z2D

>  <Seq. Identity>  (1) 
50%

$$$$
