PDB_DB00302_00
     RDKit          3D

 56 56  0  0  0  0  0  0  0  0999 V2000
   -1.4198   -0.0930   -0.4289 C   0  0  0  0  0  0  0  0  0  0  0  0
   -0.5294    0.9844   -0.9164 C   0  0  0  0  0  0  0  0  0  0  0  0
    0.6721    1.0594    0.0343 C   0  0  0  0  0  0  0  0  0  0  0  0
    1.3228   -0.2974    0.0030 C   0  0  0  0  0  0  0  0  0  0  0  0
    0.4046   -1.3322    0.5981 C   0  0  0  0  0  0  0  0  0  0  0  0
   -0.9630   -0.7307    0.8614 C   0  0  0  0  0  0  0  0  0  0  0  0
    2.6358   -0.3299    0.7215 C   0  0  0  0  0  0  0  0  0  0  0  0
   -2.8577    0.3182   -0.2526 C   0  0  0  0  0  0  0  0  0  0  0  0
    3.6107    0.5719    0.1824 N   0  0  0  0  0  0  0  0  0  0  0  0
   -3.5806   -0.7821    0.2073 O   0  0  0  0  0  0  0  0  0  0  0  0
   -3.0279    1.4055    0.5645 O   0  0  0  0  0  0  0  0  0  0  0  0
   -1.4198   -0.0930   -0.4289 C   0  0  0  0  0  0  0  0  0  0  0  0
   -0.5294    0.9844   -0.9164 C   0  0  0  0  0  0  0  0  0  0  0  0
    0.6721    1.0594    0.0343 C   0  0  0  0  0  0  0  0  0  0  0  0
    1.3228   -0.2974    0.0030 C   0  0  0  0  0  0  0  0  0  0  0  0
    0.4046   -1.3322    0.5981 C   0  0  0  0  0  0  0  0  0  0  0  0
   -0.9630   -0.7307    0.8614 C   0  0  0  0  0  0  0  0  0  0  0  0
    2.6358   -0.3299    0.7215 C   0  0  0  0  0  0  0  0  0  0  0  0
   -2.8577    0.3182   -0.2526 C   0  0  0  0  0  0  0  0  0  0  0  0
    3.6107    0.5719    0.1824 N   0  0  0  0  0  0  0  0  0  0  0  0
   -3.5806   -0.7821    0.2073 O   0  0  0  0  0  0  0  0  0  0  0  0
   -3.0279    1.4055    0.5645 O   0  0  0  0  0  0  0  0  0  0  0  0
   -1.4219   -0.9159   -1.1972 H   0  0  0  0  0  0  0  0  0  0  0  0
   -0.0678    0.7391   -1.9184 H   0  0  0  0  0  0  0  0  0  0  0  0
   -1.0043    1.9641   -1.0421 H   0  0  0  0  0  0  0  0  0  0  0  0
    0.3711    1.3304    1.0554 H   0  0  0  0  0  0  0  0  0  0  0  0
    1.3420    1.8382   -0.3487 H   0  0  0  0  0  0  0  0  0  0  0  0
    1.5248   -0.5360   -1.0705 H   0  0  0  0  0  0  0  0  0  0  0  0
    0.2293   -2.1575   -0.1502 H   0  0  0  0  0  0  0  0  0  0  0  0
    0.7800   -1.7989    1.5080 H   0  0  0  0  0  0  0  0  0  0  0  0
   -1.6637   -1.5753    1.0565 H   0  0  0  0  0  0  0  0  0  0  0  0
   -0.9750   -0.0518    1.7189 H   0  0  0  0  0  0  0  0  0  0  0  0
    2.5251   -0.1139    1.7981 H   0  0  0  0  0  0  0  0  0  0  0  0
    3.0262   -1.3699    0.6528 H   0  0  0  0  0  0  0  0  0  0  0  0
   -3.3109    0.5748   -1.2531 H   0  0  0  0  0  0  0  0  0  0  0  0
    3.4912    0.6964   -0.8659 H   0  0  0  0  0  0  0  0  0  0  0  0
    4.5573    0.1463    0.3067 H   0  0  0  0  0  0  0  0  0  0  0  0
   -3.3953   -1.5624   -0.3571 H   0  0  0  0  0  0  0  0  0  0  0  0
   -2.2757    2.0185    0.6267 H   0  0  0  0  0  0  0  0  0  0  0  0
   -1.4219   -0.9159   -1.1972 H   0  0  0  0  0  0  0  0  0  0  0  0
   -0.0678    0.7391   -1.9184 H   0  0  0  0  0  0  0  0  0  0  0  0
   -1.0043    1.9641   -1.0421 H   0  0  0  0  0  0  0  0  0  0  0  0
    0.3711    1.3304    1.0554 H   0  0  0  0  0  0  0  0  0  0  0  0
    1.3420    1.8382   -0.3487 H   0  0  0  0  0  0  0  0  0  0  0  0
    1.5248   -0.5360   -1.0705 H   0  0  0  0  0  0  0  0  0  0  0  0
    0.2293   -2.1575   -0.1502 H   0  0  0  0  0  0  0  0  0  0  0  0
    0.7800   -1.7989    1.5080 H   0  0  0  0  0  0  0  0  0  0  0  0
   -1.6637   -1.5753    1.0565 H   0  0  0  0  0  0  0  0  0  0  0  0
   -0.9750   -0.0518    1.7189 H   0  0  0  0  0  0  0  0  0  0  0  0
    2.5251   -0.1139    1.7981 H   0  0  0  0  0  0  0  0  0  0  0  0
    3.0262   -1.3699    0.6528 H   0  0  0  0  0  0  0  0  0  0  0  0
   -3.3109    0.5748   -1.2531 H   0  0  0  0  0  0  0  0  0  0  0  0
    3.4912    0.6964   -0.8659 H   0  0  0  0  0  0  0  0  0  0  0  0
    4.5573    0.1463    0.3067 H   0  0  0  0  0  0  0  0  0  0  0  0
   -3.3953   -1.5624   -0.3571 H   0  0  0  0  0  0  0  0  0  0  0  0
   -2.2757    2.0185    0.6267 H   0  0  0  0  0  0  0  0  0  0  0  0
  1  2  1  0
  2  3  1  0
  3  4  1  0
  4  5  1  0
  1  6  1  0
  5  6  1  0
  4  7  1  0
  1  8  1  0
  7  9  1  0
  8 10  1  0
  8 11  1  0
 12 13  1  0
 13 14  1  0
 14 15  1  0
 15 16  1  0
 12 17  1  0
 16 17  1  0
 15 18  1  0
 12 19  1  0
 18 20  1  0
 19 21  1  0
 19 22  1  0
  1 23  1  0
  2 24  1  0
  2 25  1  0
  3 26  1  0
  3 27  1  0
  4 28  1  0
  5 29  1  0
  5 30  1  0
  6 31  1  0
  6 32  1  0
  7 33  1  0
  7 34  1  0
  8 35  1  0
  9 36  1  0
  9 37  1  0
 10 38  1  0
 11 39  1  0
 12 40  1  0
 13 41  1  0
 13 42  1  0
 14 43  1  0
 14 44  1  0
 15 45  1  0
 16 46  1  0
 16 47  1  0
 17 48  1  0
 17 49  1  0
 18 50  1  0
 18 51  1  0
 19 52  1  0
 20 53  1  0
 20 54  1  0
 21 55  1  0
 22 56  1  0
M  END
>  <PDBID>  (1) 
1CEB

>  <PDB ID>  (1) 
1CEB

>  <Generic Name>  (1) 
Tranexamic Acid

>  <Brand Name>  (1) 
Cyklokapron#Cyklokapron 100 mg/ml#Cyklokapron 500 mg#Erfa-tranexamic#Gd-tranexamic Acid#Lysteda#Pure Whitenol Serum#Tranexamic Acid#Tranexamic Acid Injection#Tranexamic Acid Injection BP#Tranexamic Acid Tablets#Tranexamic Acid Tranexamic Acid#Cyclo-F#Espercil#Femstrual#Rikavarin#Transamin#Transcam#Traxyl

>  <DrugBank ID>  (1) 
DB00302

>  <ATC Codes>  (1) 
B02AA02

>  <Ligand ID>  (1) 
AMH

>  <Target Name>  (1) 
Plasminogen

>  <UniProt ID>  (1) 
P00747

>  <PDB ID.1>  (1) 
1CEB

>  <Seq. Identity>  (1) 
100%

$$$$
