PDB_DB00563_04
     RDKit          3D

 77 79  0  0  0  0  0  0  0  0999 V2000
   -6.8451    1.2635    1.5769 N   0  0  0  0  0  0  0  0  0  0  0  0
   -7.9087    0.9353    0.6688 C   0  0  0  0  0  0  0  0  0  0  0  0
   -8.4448    2.0896   -0.0077 N   0  0  0  0  0  0  0  0  0  0  0  0
   -7.6321   -0.0925   -0.2677 N   0  0  0  0  0  0  0  0  0  0  0  0
   -6.4132   -0.0084   -0.9909 C   0  0  2  0  0  0  0  0  0  0  0  0
   -6.0603   -1.3570   -1.4004 N   0  0  0  0  0  0  0  0  0  0  0  0
   -5.2815    0.6593   -0.2174 C   0  0  0  0  0  0  0  0  0  0  0  0
   -4.0736    0.0010   -0.5253 N   0  0  0  0  0  0  0  0  0  0  0  0
   -3.3058   -0.5596    0.5206 C   0  0  0  0  0  0  0  0  0  0  0  0
   -4.0831   -1.0098    1.7413 C   0  0  0  0  0  0  0  0  0  0  0  0
   -5.4804   -0.7042    1.7036 N   0  0  0  0  0  0  0  0  0  0  0  0
   -5.5885    0.6827    1.2592 C   0  0  0  0  0  0  0  0  0  0  0  0
   -2.0786    0.2222    0.9170 C   0  0  0  0  0  0  0  0  0  0  0  0
   -1.1747    0.3601   -0.1685 N   0  0  0  0  0  0  0  0  0  0  0  0
   -1.6421    1.2276   -1.2196 C   0  0  0  0  0  0  0  0  0  0  0  0
    2.4778   -1.3397   -0.7567 C   0  0  0  0  0  0  0  0  0  0  0  0
    1.3625   -2.3063   -0.2710 C   0  0  0  0  0  0  0  0  0  0  0  0
    0.2613   -1.5458    0.4437 C   0  0  0  0  0  0  0  0  0  0  0  0
   -0.5582   -0.8268   -0.6324 C   0  0  0  0  0  0  0  0  0  0  0  0
    0.4047   -0.4819   -1.7743 C   0  0  0  0  0  0  0  0  0  0  0  0
    1.7959   -0.1146   -1.2089 C   0  0  0  0  0  0  0  0  0  0  0  0
    3.4956   -1.3112    0.3060 C   0  0  2  0  0  0  0  0  0  0  0  0
    2.9067   -0.7902    1.5133 O   0  0  0  0  0  0  0  0  0  0  0  0
    4.7987   -1.0422    0.1594 N   0  0  0  0  0  0  0  0  0  0  0  0
    5.6143    0.0373   -0.0941 C   0  0  2  0  0  0  0  0  0  0  0  0
    5.5051    0.8224   -1.3322 C   0  0  0  0  0  0  0  0  0  0  0  0
    4.3651    1.5616   -1.5156 O   0  0  0  0  0  0  0  0  0  0  0  0
    5.5181   -0.0671   -2.4675 O   0  0  0  0  0  0  0  0  0  0  0  0
    7.0591   -0.4494    0.1210 C   0  0  0  0  0  0  0  0  0  0  0  0
    8.1131    0.5477   -0.0602 C   0  0  0  0  0  0  0  0  0  0  0  0
    8.1471    1.7114    0.8722 C   0  0  0  0  0  0  0  0  0  0  0  0
    8.3245    1.2950    2.2092 O   0  0  0  0  0  0  0  0  0  0  0  0
    7.0009    2.4959    0.8027 O   0  0  0  0  0  0  0  0  0  0  0  0
   -6.7818    2.3038    1.6106 H   0  0  0  0  0  0  0  0  0  0  0  0
   -8.7531    0.5605    1.3230 H   0  0  0  0  0  0  0  0  0  0  0  0
   -9.1829    1.7866   -0.6474 H   0  0  0  0  0  0  0  0  0  0  0  0
   -7.7352    2.7311   -0.3840 H   0  0  0  0  0  0  0  0  0  0  0  0
   -8.0245   -1.0183   -0.0883 H   0  0  0  0  0  0  0  0  0  0  0  0
   -6.6188    0.5550   -1.9372 H   0  0  0  0  0  0  0  0  0  0  0  0
   -5.9949   -1.4513   -2.4437 H   0  0  0  0  0  0  0  0  0  0  0  0
   -6.7243   -2.0852   -1.0441 H   0  0  0  0  0  0  0  0  0  0  0  0
   -5.2342    1.7162   -0.5569 H   0  0  0  0  0  0  0  0  0  0  0  0
   -4.0811   -0.5515   -1.4141 H   0  0  0  0  0  0  0  0  0  0  0  0
   -2.9050   -1.5389    0.1031 H   0  0  0  0  0  0  0  0  0  0  0  0
   -3.9763   -2.0814    1.9748 H   0  0  0  0  0  0  0  0  0  0  0  0
   -3.6561   -0.4474    2.6011 H   0  0  0  0  0  0  0  0  0  0  0  0
   -5.9958   -1.3690    1.1224 H   0  0  0  0  0  0  0  0  0  0  0  0
   -4.7875    1.2449    1.7742 H   0  0  0  0  0  0  0  0  0  0  0  0
   -1.6352   -0.1628    1.8432 H   0  0  0  0  0  0  0  0  0  0  0  0
   -2.4222    1.2717    1.1761 H   0  0  0  0  0  0  0  0  0  0  0  0
   -2.5222    1.7796   -0.8385 H   0  0  0  0  0  0  0  0  0  0  0  0
   -0.9028    1.9825   -1.5473 H   0  0  0  0  0  0  0  0  0  0  0  0
   -2.0155    0.5767   -2.0381 H   0  0  0  0  0  0  0  0  0  0  0  0
    2.9225   -1.8432   -1.6594 H   0  0  0  0  0  0  0  0  0  0  0  0
    0.9417   -2.8238   -1.1433 H   0  0  0  0  0  0  0  0  0  0  0  0
    1.7778   -3.0431    0.4224 H   0  0  0  0  0  0  0  0  0  0  0  0
    0.6195   -0.8672    1.2053 H   0  0  0  0  0  0  0  0  0  0  0  0
   -0.4114   -2.2997    0.8932 H   0  0  0  0  0  0  0  0  0  0  0  0
   -1.2919   -1.5314   -1.0211 H   0  0  0  0  0  0  0  0  0  0  0  0
    0.5857   -1.3379   -2.4501 H   0  0  0  0  0  0  0  0  0  0  0  0
    0.0570    0.3666   -2.3794 H   0  0  0  0  0  0  0  0  0  0  0  0
    1.7297    0.7175   -0.5103 H   0  0  0  0  0  0  0  0  0  0  0  0
    2.2904    0.3035   -2.1497 H   0  0  0  0  0  0  0  0  0  0  0  0
    3.4798   -2.4696    0.6609 H   0  0  0  0  0  0  0  0  0  0  0  0
    3.6182   -0.8549    2.2191 H   0  0  0  0  0  0  0  0  0  0  0  0
    5.4213   -1.9661    0.2377 H   0  0  0  0  0  0  0  0  0  0  0  0
    5.4344    0.7955    0.7557 H   0  0  0  0  0  0  0  0  0  0  0  0
    6.3595    1.4922   -1.5631 H   0  0  0  0  0  0  0  0  0  0  0  0
    4.1281    1.9750   -0.6335 H   0  0  0  0  0  0  0  0  0  0  0  0
    6.4655   -0.2902   -2.6713 H   0  0  0  0  0  0  0  0  0  0  0  0
    7.2039   -1.2821   -0.5663 H   0  0  0  0  0  0  0  0  0  0  0  0
    7.0815   -0.8337    1.1572 H   0  0  0  0  0  0  0  0  0  0  0  0
    9.0946    0.0011    0.1212 H   0  0  0  0  0  0  0  0  0  0  0  0
    8.2460    0.8852   -1.1342 H   0  0  0  0  0  0  0  0  0  0  0  0
    9.0068    2.3870    0.6812 H   0  0  0  0  0  0  0  0  0  0  0  0
    7.4751    1.4438    2.7078 H   0  0  0  0  0  0  0  0  0  0  0  0
    7.1338    3.3669    0.3621 H   0  0  0  0  0  0  0  0  0  0  0  0
  1  2  1  0
  2  3  1  0
  2  4  1  0
  4  5  1  0
  5  6  1  0
  5  7  1  0
  7  8  1  0
  8  9  1  0
  9 10  1  0
 10 11  1  0
  1 12  1  0
  7 12  1  0
 11 12  1  0
  9 13  1  0
 13 14  1  0
 14 15  1  0
 16 17  1  0
 17 18  1  0
 14 19  1  0
 18 19  1  0
 19 20  1  0
 16 21  1  0
 20 21  1  0
 16 22  1  0
 22 23  1  0
 22 24  1  0
 24 25  1  0
 25 26  1  0
 26 27  1  0
 26 28  1  0
 25 29  1  0
 29 30  1  0
 30 31  1  0
 31 32  1  0
 31 33  1  0
  1 34  1  0
  2 35  1  0
  3 36  1  0
  3 37  1  0
  4 38  1  0
  5 39  1  6
  6 40  1  0
  6 41  1  0
  7 42  1  0
  8 43  1  0
  9 44  1  0
 10 45  1  0
 10 46  1  0
 11 47  1  0
 12 48  1  0
 13 49  1  0
 13 50  1  0
 15 51  1  0
 15 52  1  0
 15 53  1  0
 16 54  1  0
 17 55  1  0
 17 56  1  0
 18 57  1  0
 18 58  1  0
 19 59  1  0
 20 60  1  0
 20 61  1  0
 21 62  1  0
 21 63  1  0
 22 64  1  1
 23 65  1  0
 24 66  1  0
 25 67  1  1
 26 68  1  0
 27 69  1  0
 28 70  1  0
 29 71  1  0
 29 72  1  0
 30 73  1  0
 30 74  1  0
 31 75  1  0
 32 76  1  0
 33 77  1  0
M  END
>  <PDBID>  (1) 
1U72

>  <PDB ID>  (1) 
1U72

>  <Generic Name>  (1) 
Methotrexate

>  <Brand Name>  (1) 
Apo-methotrexate#Jamp-methotrexate#Methotrexate#Methotrexate Dbl Inj 10mg/ml#Methotrexate Dbl Inj 2.5mg/ml#Methotrexate Dbl Inj 25mg/ml#Methotrexate Injection BP#Methotrexate Injection USP#Methotrexate Injection, BP#Methotrexate Injection, USP#Methotrexate PF/sa Injection#Methotrexate Sod Inj 25mg/ml USP#Methotrexate Sodium#Methotrexate Sodium Inj 20mg#Methotrexate Sodium Inj 25.0mg/ml#Methotrexate Sodium Inj 25mg/ml#Methotrexate Sodium Inj 25mg/ml USP#Methotrexate Sodium Injection#Methotrexate Sodium Injection USP#Methotrexate Tab 2.5mg#Methotrexate Tab 2.5mg USP#Methotrexate Tablets, USP#Methotrexate-liq Im IV Iar Int Ivr 25mg/ml#Methotrexate-pws Im IV Iar Int Ivr 20mg/vial#Metoject#Metoject Subcutaneous#Otrexup#Rasuvo#Ratio-methotrexate Sodium#Rheumatrex Dose Pack#Rheumatrex Tab 2.5mg#Rheumatrex-tab 2.5mg#Trexall#Abitrexate#Alltrex#Artrait#Atrexel#Bendatrexat#Carditrex#Dermotrex#Ebetrex#Emtexate#Ledertrexate#Maxtrex#Meisusheng#Mexate#Rheumatrex#Trexan#Zexate

>  <DrugBank ID>  (1) 
DB00563

>  <ATC Codes>  (1) 
L01BA01#L04AX03

>  <Ligand ID>  (1) 
MTX

>  <Target Name>  (1) 
Dihydrofolate reductase

>  <UniProt ID>  (1) 
P00374

>  <PDB ID.1>  (1) 
1U72

>  <Seq. Identity>  (1) 
100%

$$$$
