PDB_DB06605_05
     RDKit          3D

 81 85  0  0  0  0  0  0  0  0999 V2000
   -5.7829    2.1531    0.2465 C   0  0  0  0  0  0  0  0  0  0  0  0
   -4.5666    2.0383    1.0933 C   0  0  0  0  0  0  0  0  0  0  0  0
   -3.3348    1.5982    0.2911 C   0  0  0  0  0  0  0  0  0  0  0  0
   -6.2144    3.4749    0.2364 O   0  0  0  0  0  0  0  0  0  0  0  0
   -3.1945   -1.3615   -1.8297 N   0  0  0  0  0  0  0  0  0  0  0  0
    1.9995   -0.1929    0.2473 C   0  0  0  0  0  0  0  0  0  0  0  0
   -0.4496   -0.2679    0.2548 C   0  0  0  0  0  0  0  0  0  0  0  0
   -2.5980   -2.6337   -1.4671 C   0  0  2  0  0  0  0  0  0  0  0  0
   -3.6838   -3.5338   -0.9570 C   0  0  0  0  0  0  0  0  0  0  0  0
   -1.5779   -2.2939   -0.3998 C   0  0  0  0  0  0  0  0  0  0  0  0
   -1.3764   -0.8050   -0.7623 C   0  0  0  0  0  0  0  0  0  0  0  0
    3.6190    0.6530    1.9652 C   0  0  0  0  0  0  0  0  0  0  0  0
   -7.5167    3.6409    0.6604 C   0  0  0  0  0  0  0  0  0  0  0  0
    4.3318    1.1308    0.7363 C   0  0  0  0  0  0  0  0  0  0  0  0
    6.0619   -0.5507    0.5827 C   0  0  0  0  0  0  0  0  0  0  0  0
    5.5091    0.7603   -1.2526 C   0  0  0  0  0  0  0  0  0  0  0  0
    6.5428    1.8225   -0.9709 C   0  0  0  0  0  0  0  0  0  0  0  0
    2.1854    1.0626   -0.5716 C   0  0  0  0  0  0  0  0  0  0  0  0
    0.8197   -2.3040    0.1674 C   0  0  0  0  0  0  0  0  0  0  0  0
   -3.5741    0.2338   -0.2721 C   0  0  0  0  0  0  0  0  0  0  0  0
   -4.8276    0.3050   -1.1051 C   0  0  0  0  0  0  0  0  0  0  0  0
   -5.4969    1.6459   -1.1196 C   0  0  0  0  0  0  0  0  0  0  0  0
   -2.6233   -0.3804   -1.0046 N   0  0  0  0  0  0  0  0  0  0  0  0
    0.8128   -0.8870    0.0014 N   0  0  0  0  0  0  0  0  0  0  0  0
    2.2955   -0.0213    1.6979 C   0  0  0  0  0  0  0  0  0  0  0  0
    4.9909    0.1665   -0.0354 N   0  0  0  0  0  0  0  0  0  0  0  0
    3.3098    1.9112   -0.0603 C   0  0  0  0  0  0  0  0  0  0  0  0
   -0.8823   -0.7469    1.5157 O   0  0  0  0  0  0  0  0  0  0  0  0
    7.5720    1.2915    0.0215 C   0  0  0  0  0  0  0  0  0  0  0  0
    5.8673   -1.9092    0.3246 O   0  0  0  0  0  0  0  0  0  0  0  0
    7.4336   -0.1975    0.0513 C   0  0  0  0  0  0  0  0  0  0  0  0
   -4.3444   -3.0522    0.1453 O   0  0  0  0  0  0  0  0  0  0  0  0
   -4.6199   -3.8092   -2.0482 N   0  0  0  0  0  0  0  0  0  0  0  0
   -0.2772   -2.9834   -0.5822 C   0  0  0  0  0  0  0  0  0  0  0  0
   -6.6675    1.5613    0.6296 H   0  0  0  0  0  0  0  0  0  0  0  0
   -4.3816    2.9812    1.6224 H   0  0  0  0  0  0  0  0  0  0  0  0
   -4.7889    1.2794    1.8948 H   0  0  0  0  0  0  0  0  0  0  0  0
   -3.1904    2.3680   -0.4909 H   0  0  0  0  0  0  0  0  0  0  0  0
   -2.5008    1.6281    1.0265 H   0  0  0  0  0  0  0  0  0  0  0  0
   -2.8997   -1.0993   -2.8118 H   0  0  0  0  0  0  0  0  0  0  0  0
    2.8262   -0.8775   -0.1307 H   0  0  0  0  0  0  0  0  0  0  0  0
   -0.3347    0.8275    0.2679 H   0  0  0  0  0  0  0  0  0  0  0  0
   -2.1418   -3.0806   -2.3649 H   0  0  0  0  0  0  0  0  0  0  0  0
   -3.2244   -4.5000   -0.6823 H   0  0  0  0  0  0  0  0  0  0  0  0
   -1.9751   -2.3499    0.6110 H   0  0  0  0  0  0  0  0  0  0  0  0
   -0.8024   -0.8649   -1.7416 H   0  0  0  0  0  0  0  0  0  0  0  0
    4.2695    0.0709    2.6549 H   0  0  0  0  0  0  0  0  0  0  0  0
    3.3673    1.5823    2.5476 H   0  0  0  0  0  0  0  0  0  0  0  0
   -7.7359    4.7312    0.6084 H   0  0  0  0  0  0  0  0  0  0  0  0
   -8.1715    3.1095   -0.0618 H   0  0  0  0  0  0  0  0  0  0  0  0
   -7.7375    3.3042    1.6690 H   0  0  0  0  0  0  0  0  0  0  0  0
    5.0830    1.8978    1.0858 H   0  0  0  0  0  0  0  0  0  0  0  0
    6.1075   -0.4505    1.6790 H   0  0  0  0  0  0  0  0  0  0  0  0
    4.7424    1.2012   -1.9083 H   0  0  0  0  0  0  0  0  0  0  0  0
    5.9944   -0.0322   -1.9019 H   0  0  0  0  0  0  0  0  0  0  0  0
    7.1032    1.9804   -1.9311 H   0  0  0  0  0  0  0  0  0  0  0  0
    6.1335    2.7842   -0.6719 H   0  0  0  0  0  0  0  0  0  0  0  0
    1.2844    1.6959   -0.6136 H   0  0  0  0  0  0  0  0  0  0  0  0
    2.4164    0.7766   -1.6150 H   0  0  0  0  0  0  0  0  0  0  0  0
    0.7885   -2.5594    1.2479 H   0  0  0  0  0  0  0  0  0  0  0  0
    1.7954   -2.6898   -0.2181 H   0  0  0  0  0  0  0  0  0  0  0  0
   -3.8311   -0.4009    0.6297 H   0  0  0  0  0  0  0  0  0  0  0  0
   -5.5145   -0.5023   -0.7502 H   0  0  0  0  0  0  0  0  0  0  0  0
   -4.5593   -0.0158   -2.1490 H   0  0  0  0  0  0  0  0  0  0  0  0
   -6.4593    1.4823   -1.6945 H   0  0  0  0  0  0  0  0  0  0  0  0
   -4.8405    2.3491   -1.6699 H   0  0  0  0  0  0  0  0  0  0  0  0
    2.3974   -1.0648    2.1261 H   0  0  0  0  0  0  0  0  0  0  0  0
    1.4569    0.4176    2.2843 H   0  0  0  0  0  0  0  0  0  0  0  0
    3.7189    2.5531   -0.8372 H   0  0  0  0  0  0  0  0  0  0  0  0
    2.8595    2.6311    0.6958 H   0  0  0  0  0  0  0  0  0  0  0  0
   -0.9714    0.0248    2.1299 H   0  0  0  0  0  0  0  0  0  0  0  0
    8.6122    1.5511   -0.3170 H   0  0  0  0  0  0  0  0  0  0  0  0
    7.4672    1.7131    1.0228 H   0  0  0  0  0  0  0  0  0  0  0  0
    6.7469   -2.3673    0.2250 H   0  0  0  0  0  0  0  0  0  0  0  0
    7.6606   -0.6610   -0.9262 H   0  0  0  0  0  0  0  0  0  0  0  0
    8.1857   -0.6311    0.7562 H   0  0  0  0  0  0  0  0  0  0  0  0
   -3.8898   -3.1866    0.9957 H   0  0  0  0  0  0  0  0  0  0  0  0
   -4.9242   -4.7984   -2.0410 H   0  0  0  0  0  0  0  0  0  0  0  0
   -5.4372   -3.1585   -1.9274 H   0  0  0  0  0  0  0  0  0  0  0  0
   -0.0613   -3.1550   -1.6513 H   0  0  0  0  0  0  0  0  0  0  0  0
   -0.3857   -4.0144   -0.1314 H   0  0  0  0  0  0  0  0  0  0  0  0
  1  2  1  0
  2  3  1  0
  1  4  1  0
  5  8  1  0
  8  9  1  0
  8 10  1  0
  7 11  1  0
 10 11  1  0
  4 13  1  0
 12 14  1  0
 16 17  1  0
  6 18  1  0
  3 20  1  0
 20 21  1  0
  1 22  1  0
 21 22  1  0
  5 23  1  0
 11 23  1  0
 20 23  1  0
  6 24  1  0
  7 24  1  0
 19 24  1  0
  6 25  1  0
 12 25  1  0
 14 26  1  0
 15 26  1  0
 16 26  1  0
 14 27  1  0
 18 27  1  0
  7 28  1  0
 17 29  1  0
 15 30  1  0
 15 31  1  0
 29 31  1  0
  9 32  1  0
  9 33  1  0
 10 34  1  0
 19 34  1  0
  1 35  1  0
  2 36  1  0
  2 37  1  0
  3 38  1  0
  3 39  1  0
  5 40  1  0
  6 41  1  0
  7 42  1  0
  8 43  1  6
  9 44  1  0
 10 45  1  0
 11 46  1  0
 12 47  1  0
 12 48  1  0
 13 49  1  0
 13 50  1  0
 13 51  1  0
 14 52  1  0
 15 53  1  0
 16 54  1  0
 16 55  1  0
 17 56  1  0
 17 57  1  0
 18 58  1  0
 18 59  1  0
 19 60  1  0
 19 61  1  0
 20 62  1  0
 21 63  1  0
 21 64  1  0
 22 65  1  0
 22 66  1  0
 25 67  1  0
 25 68  1  0
 27 69  1  0
 27 70  1  0
 28 71  1  0
 29 72  1  0
 29 73  1  0
 30 74  1  0
 31 75  1  0
 31 76  1  0
 32 77  1  0
 33 78  1  0
 33 79  1  0
 34 80  1  0
 34 81  1  0
M  END
>  <PDBID>  (1) 
2P16

>  <PDB ID>  (1) 
2P16

>  <Generic Name>  (1) 
Apixaban

>  <Brand Name>  (1) 
Eliquis

>  <DrugBank ID>  (1) 
DB06605

>  <ATC Codes>  (1) 
B01AF02

>  <Ligand ID>  (1) 
GG2

>  <Target Name>  (1) 
Coagulation factor X

>  <UniProt ID>  (1) 
P00742

>  <PDB ID.1>  (1) 
2P16

>  <Seq. Identity>  (1) 
100%

$$$$
