PDB_DB00196_00
     RDKit          3D

 48 50  0  0  0  0  0  0  0  0999 V2000
   -0.5429   -0.0971   -1.8033 O   0  0  0  0  0  0  0  0  0  0  0  0
    0.0026    0.0854   -0.5185 C   0  0  0  0  0  0  0  0  0  0  0  0
   -0.8999   -0.5602    0.4971 C   0  0  0  0  0  0  0  0  0  0  0  0
    0.1464    1.5387   -0.2538 C   0  0  0  0  0  0  0  0  0  0  0  0
    1.3333   -0.6374   -0.4588 C   0  0  0  0  0  0  0  0  0  0  0  0
   -0.9748   -2.0156    0.2308 N   0  0  0  0  0  0  0  0  0  0  0  0
   -1.8519   -2.5640    1.2480 C   0  0  0  0  0  0  0  0  0  0  0  0
   -1.6783   -2.1104   -0.9750 N   0  0  0  0  0  0  0  0  0  0  0  0
   -3.1947   -2.3921    0.7686 N   0  0  0  0  0  0  0  0  0  0  0  0
   -3.0818   -2.0088   -0.6224 C   0  0  0  0  0  0  0  0  0  0  0  0
   -1.0993    2.2642   -0.3070 N   0  0  0  0  0  0  0  0  0  0  0  0
   -0.7763    3.7029   -0.1444 C   0  0  0  0  0  0  0  0  0  0  0  0
   -1.8720    2.1056    0.8748 N   0  0  0  0  0  0  0  0  0  0  0  0
   -2.0371    4.3133    0.2363 N   0  0  0  0  0  0  0  0  0  0  0  0
   -2.7506    3.2569    0.9025 C   0  0  0  0  0  0  0  0  0  0  0  0
    2.0233   -0.5067    0.8683 C   0  0  0  0  0  0  0  0  0  0  0  0
    2.3067   -0.1528   -1.5081 C   0  0  0  0  0  0  0  0  0  0  0  0
    3.0558   -1.6499    0.8763 C   0  0  0  0  0  0  0  0  0  0  0  0
    4.0829   -1.2960   -0.1461 C   0  0  0  0  0  0  0  0  0  0  0  0
    4.8316   -0.2577    0.3471 F   0  0  0  0  0  0  0  0  0  0  0  0
    3.5302   -1.0082   -1.5086 C   0  0  0  0  0  0  0  0  0  0  0  0
    1.6809   -0.3028   -2.7353 F   0  0  0  0  0  0  0  0  0  0  0  0
   -1.2997    0.5389   -1.8535 H   0  0  0  0  0  0  0  0  0  0  0  0
   -1.9394   -0.1421    0.4296 H   0  0  0  0  0  0  0  0  0  0  0  0
   -0.5674   -0.3995    1.5230 H   0  0  0  0  0  0  0  0  0  0  0  0
    0.5209    1.6674    0.8046 H   0  0  0  0  0  0  0  0  0  0  0  0
    0.9098    2.0279   -0.8957 H   0  0  0  0  0  0  0  0  0  0  0  0
    1.1516   -1.7214   -0.6829 H   0  0  0  0  0  0  0  0  0  0  0  0
   -1.7528   -1.9387    2.1722 H   0  0  0  0  0  0  0  0  0  0  0  0
   -1.6247   -3.6050    1.5065 H   0  0  0  0  0  0  0  0  0  0  0  0
   -1.4665   -2.9776   -1.4861 H   0  0  0  0  0  0  0  0  0  0  0  0
   -3.7894   -3.2204    0.9319 H   0  0  0  0  0  0  0  0  0  0  0  0
   -3.4417   -0.9661   -0.7128 H   0  0  0  0  0  0  0  0  0  0  0  0
   -3.6657   -2.7120   -1.2432 H   0  0  0  0  0  0  0  0  0  0  0  0
   -0.4317    4.1314   -1.0820 H   0  0  0  0  0  0  0  0  0  0  0  0
   -0.0607    3.7390    0.6805 H   0  0  0  0  0  0  0  0  0  0  0  0
   -1.2565    2.1720    1.7152 H   0  0  0  0  0  0  0  0  0  0  0  0
   -1.8914    5.1338    0.8362 H   0  0  0  0  0  0  0  0  0  0  0  0
   -3.7028    3.0612    0.3637 H   0  0  0  0  0  0  0  0  0  0  0  0
   -3.0049    3.5407    1.9335 H   0  0  0  0  0  0  0  0  0  0  0  0
    1.3933   -0.5328    1.7480 H   0  0  0  0  0  0  0  0  0  0  0  0
    2.6753    0.4164    0.8405 H   0  0  0  0  0  0  0  0  0  0  0  0
    2.5456    0.9285   -1.4096 H   0  0  0  0  0  0  0  0  0  0  0  0
    3.5328   -1.7600    1.8494 H   0  0  0  0  0  0  0  0  0  0  0  0
    2.4594   -2.5562    0.6018 H   0  0  0  0  0  0  0  0  0  0  0  0
    4.7528   -2.1934   -0.2645 H   0  0  0  0  0  0  0  0  0  0  0  0
    4.3263   -0.4182   -2.0522 H   0  0  0  0  0  0  0  0  0  0  0  0
    3.3934   -1.9210   -2.1230 H   0  0  0  0  0  0  0  0  0  0  0  0
  2  1  1  0
  2  3  1  0
  2  4  1  0
  2  5  1  0
  3  6  1  0
  6  7  1  0
  6  8  1  0
  7  9  1  0
  8 10  1  0
  9 10  1  0
  4 11  1  0
 11 12  1  0
 11 13  1  0
 12 14  1  0
 13 15  1  0
 15 14  1  0
  5 16  1  0
  5 17  1  0
 16 18  1  0
 18 19  1  0
 19 20  1  0
 17 21  1  0
 19 21  1  0
 17 22  1  0
  1 23  1  0
  3 24  1  0
  3 25  1  0
  4 26  1  0
  4 27  1  0
  5 28  1  0
  7 29  1  0
  7 30  1  0
  8 31  1  0
  9 32  1  0
 10 33  1  0
 10 34  1  0
 12 35  1  0
 12 36  1  0
 13 37  1  0
 14 38  1  0
 15 39  1  0
 15 40  1  0
 16 41  1  0
 16 42  1  0
 17 43  1  0
 18 44  1  0
 18 45  1  0
 19 46  1  0
 21 47  1  0
 21 48  1  0
M  END
>  <PDBID>  (1) 
5ESM

>  <PDB ID>  (1) 
5ESM

>  <Generic Name>  (1) 
Fluconazole

>  <Brand Name>  (1) 
Act Fluconazole#Apo-fluconazole#Apo-fluconazole-150#Canesoral#Canesoral Combi-pak#Clotrimaderm-fluconazole Combi-pack#Clotrimazole-fluconazole Combi-pack#Co Fluconazole-150#Diflucan#Diflucan Inj 2mg/ml#Diflucan One#Diflucan Pws 50mg/5ml#Diflucan Tab 100mg#Diflucan Tab 50mg#Dom-fluconazole#Fluconazole#Fluconazole 150#Fluconazole In Sodium Chloride Injection USP#Fluconazole Injection#Fluconazole Injection Sdz#Fluconazole Omega#Fluconazole-150#Jamp-fluconazole#Mar-fluconazole-150#Monicure#Monicure Combo#Mylan-fluconazole#Novo-fluconazole#Novo-fluconazole-150#Nu-fluconazole-150#PHL-fluconazole#PMS-fluconazole#PMS-fluconazole-150#Priva-fluconazole#Pro-fluconazole#Riva-fluconazole#Taro-fluconazole#Teva-fluconazole#Elazor#Flucazol#Flucostat#Flunizol#Pritenzol#Trican#Triflucan

>  <DrugBank ID>  (1) 
DB00196

>  <ATC Codes>  (1) 
D01AC15#J02AC01#J01RA07

>  <Ligand ID>  (1) 
TPF

>  <Target Name>  (1) 
Lanosterol 14-alpha demethylase

>  <UniProt ID>  (1) 
P10613

>  <PDB ID.1>  (1) 
5ESM

>  <Seq. Identity>  (1) 
65%

$$$$
