PDB_DB04552_05
     RDKit          3D

 43 44  0  0  0  0  0  0  0  0999 V2000
   -5.2998   -1.3567    0.7041 F   0  0  0  0  0  0  0  0  0  0  0  0
   -3.9387   -1.3537    0.8863 C   0  0  0  0  0  0  0  0  0  0  0  0
   -3.4676   -2.6365    0.6795 F   0  0  0  0  0  0  0  0  0  0  0  0
   -3.6520   -0.9446    2.1666 F   0  0  0  0  0  0  0  0  0  0  0  0
   -3.2547   -0.4210   -0.0990 C   0  0  2  0  0  0  0  0  0  0  0  0
   -1.7906   -0.4796    0.1686 C   0  0  0  0  0  0  0  0  0  0  0  0
   -1.0169    0.7347   -0.1613 C   0  0  0  0  0  0  0  0  0  0  0  0
   -1.8330    1.6675   -1.0445 C   0  0  0  0  0  0  0  0  0  0  0  0
   -3.0049    2.0839   -0.1479 C   0  0  0  0  0  0  0  0  0  0  0  0
   -3.9140    0.8874   -0.0759 C   0  0  0  0  0  0  0  0  0  0  0  0
    0.2509    0.5207   -0.7634 N   0  0  0  0  0  0  0  0  0  0  0  0
    1.2428   -0.1592   -0.0048 C   0  0  0  0  0  0  0  0  0  0  0  0
    0.8841   -1.5419    0.1645 N   0  0  0  0  0  0  0  0  0  0  0  0
    2.5815   -0.0706   -0.7319 C   0  0  0  0  0  0  0  0  0  0  0  0
    2.9981    1.3638   -0.8314 C   0  0  0  0  0  0  0  0  0  0  0  0
    4.2014    1.5299   -1.4772 O   0  0  0  0  0  0  0  0  0  0  0  0
    2.9993    2.0238    0.3989 O   0  0  0  0  0  0  0  0  0  0  0  0
    3.5573   -0.9660   -0.0377 C   0  0  0  0  0  0  0  0  0  0  0  0
    3.0261   -1.4341    1.3036 C   0  0  0  0  0  0  0  0  0  0  0  0
    1.7600   -2.2159    1.1140 C   0  0  0  0  0  0  0  0  0  0  0  0
   -3.4543   -0.8934   -1.1072 H   0  0  0  0  0  0  0  0  0  0  0  0
   -1.3687   -1.3301   -0.4367 H   0  0  0  0  0  0  0  0  0  0  0  0
   -1.5684   -0.7599    1.2269 H   0  0  0  0  0  0  0  0  0  0  0  0
   -0.8607    1.3343    0.7900 H   0  0  0  0  0  0  0  0  0  0  0  0
   -2.2795    1.1145   -1.9102 H   0  0  0  0  0  0  0  0  0  0  0  0
   -1.2425    2.5317   -1.3646 H   0  0  0  0  0  0  0  0  0  0  0  0
   -3.5040    2.9409   -0.6211 H   0  0  0  0  0  0  0  0  0  0  0  0
   -2.6557    2.3217    0.8854 H   0  0  0  0  0  0  0  0  0  0  0  0
   -4.5624    1.0380    0.8196 H   0  0  0  0  0  0  0  0  0  0  0  0
   -4.6327    1.0046   -0.9429 H   0  0  0  0  0  0  0  0  0  0  0  0
    0.2760    0.4044   -1.7781 H   0  0  0  0  0  0  0  0  0  0  0  0
    1.3308    0.2901    1.0062 H   0  0  0  0  0  0  0  0  0  0  0  0
    0.8728   -2.0630   -0.7536 H   0  0  0  0  0  0  0  0  0  0  0  0
    2.3743   -0.4197   -1.7679 H   0  0  0  0  0  0  0  0  0  0  0  0
    2.2277    1.8781   -1.4523 H   0  0  0  0  0  0  0  0  0  0  0  0
    4.9632    1.1022   -1.0498 H   0  0  0  0  0  0  0  0  0  0  0  0
    3.4623    2.8927    0.2608 H   0  0  0  0  0  0  0  0  0  0  0  0
    4.5538   -0.5105    0.1143 H   0  0  0  0  0  0  0  0  0  0  0  0
    3.7228   -1.8615   -0.6864 H   0  0  0  0  0  0  0  0  0  0  0  0
    3.8242   -2.0982    1.7251 H   0  0  0  0  0  0  0  0  0  0  0  0
    2.9334   -0.5961    2.0052 H   0  0  0  0  0  0  0  0  0  0  0  0
    2.0087   -3.2381    0.7333 H   0  0  0  0  0  0  0  0  0  0  0  0
    1.2498   -2.3147    2.0928 H   0  0  0  0  0  0  0  0  0  0  0  0
  2  1  1  0
  2  3  1  0
  2  4  1  0
  2  5  1  0
  5  6  1  0
  6  7  1  0
  7  8  1  0
  8  9  1  0
  5 10  1  0
  9 10  1  0
  7 11  1  0
 11 12  1  0
 12 13  1  0
 12 14  1  0
 14 15  1  0
 15 16  1  0
 15 17  1  0
 14 18  1  0
 18 19  1  0
 13 20  1  0
 19 20  1  0
  5 21  1  6
  6 22  1  0
  6 23  1  0
  7 24  1  0
  8 25  1  0
  8 26  1  0
  9 27  1  0
  9 28  1  0
 10 29  1  0
 10 30  1  0
 11 31  1  0
 12 32  1  0
 13 33  1  0
 14 34  1  0
 15 35  1  0
 16 36  1  0
 17 37  1  0
 18 38  1  0
 18 39  1  0
 19 40  1  0
 19 41  1  0
 20 42  1  0
 20 43  1  0
M  END
>  <PDBID>  (1) 
1TD7

>  <PDB ID>  (1) 
1TD7

>  <Generic Name>  (1) 
Niflumic Acid

>  <Brand Name>  (1) 
Niflam#Niflugel#Nifluril

>  <DrugBank ID>  (1) 
DB04552

>  <ATC Codes>  (1) 
M02AA17#M01AX02

>  <Ligand ID>  (1) 
NFL

>  <Target Name>  (1) 
Phospholipase A2

>  <UniProt ID>  (1) 
P04054

>  <PDB ID.1>  (1) 
1TD7

>  <Seq. Identity>  (1) 
43%

$$$$
