PDB_DB01128_02
     RDKit          3D

 63 64  0  0  0  0  0  0  0  0999 V2000
   -3.6807    0.9751   -0.9668 C   0  0  0  0  0  0  0  0  0  0  0  0
   -4.8653    0.8402   -1.8954 C   0  0  0  0  0  0  0  0  0  0  0  0
   -6.0487    1.5653   -1.2999 C   0  0  0  0  0  0  0  0  0  0  0  0
   -7.1092    1.6986   -2.1468 F   0  0  0  0  0  0  0  0  0  0  0  0
   -6.3963    0.7628   -0.0424 C   0  0  0  0  0  0  0  0  0  0  0  0
   -5.3221    1.0340    0.9580 C   0  0  0  0  0  0  0  0  0  0  0  0
   -3.9558    0.6214    0.4395 C   0  0  0  0  0  0  0  0  0  0  0  0
   -3.6456   -1.0570    0.8464 S   0  0  0  0  0  0  0  0  0  0  0  0
   -4.6755   -1.9443   -0.2232 O   0  0  0  0  0  0  0  0  0  0  0  0
   -4.0632   -1.4301    2.2577 O   0  0  0  0  0  0  0  0  0  0  0  0
   -2.0946   -1.4338    0.3943 C   0  0  0  0  0  0  0  0  0  0  0  0
   -0.9565   -0.6645    1.0144 C   0  0  1  0  0  0  0  0  0  0  0  0
   -0.9720    0.6834    0.7644 O   0  0  0  0  0  0  0  0  0  0  0  0
   -0.9853   -0.8236    2.5394 C   0  0  0  0  0  0  0  0  0  0  0  0
    0.3439   -1.3335    0.4952 C   0  0  1  0  0  0  0  0  0  0  0  0
    0.3357   -1.2597   -0.8968 O   0  0  0  0  0  0  0  0  0  0  0  0
    1.4198   -0.7234    1.1545 N   0  0  0  0  0  0  0  0  0  0  0  0
    2.4088   -0.0682    0.3529 C   0  0  2  0  0  0  0  0  0  0  0  0
    3.1570   -1.0997   -0.4505 C   0  0  0  0  0  0  0  0  0  0  0  0
    3.3072    0.6975    1.3236 C   0  0  0  0  0  0  0  0  0  0  0  0
    4.7433    0.4611    0.9309 C   0  0  0  0  0  0  0  0  0  0  0  0
    4.8167    0.6962   -0.5648 C   0  0  0  0  0  0  0  0  0  0  0  0
    6.1844    1.1354   -1.0018 C   0  0  0  0  0  0  0  0  0  0  0  0
    6.4403    2.4002   -0.2782 N   0  0  0  0  0  0  0  0  0  0  0  0
    4.2454   -0.4575   -1.3018 C   0  0  0  0  0  0  0  0  0  0  0  0
    5.2532   -1.5576   -1.6031 C   0  0  0  0  0  0  0  0  0  0  0  0
    6.2894   -1.0753   -2.3773 F   0  0  0  0  0  0  0  0  0  0  0  0
    4.5640   -2.5130   -2.3235 F   0  0  0  0  0  0  0  0  0  0  0  0
    5.7877   -2.1206   -0.4679 F   0  0  0  0  0  0  0  0  0  0  0  0
   -2.8845    0.3150   -1.3885 H   0  0  0  0  0  0  0  0  0  0  0  0
   -3.3134    2.0183   -1.0631 H   0  0  0  0  0  0  0  0  0  0  0  0
   -4.5677    1.2354   -2.8826 H   0  0  0  0  0  0  0  0  0  0  0  0
   -5.1741   -0.2293   -1.9646 H   0  0  0  0  0  0  0  0  0  0  0  0
   -5.7061    2.5667   -0.9207 H   0  0  0  0  0  0  0  0  0  0  0  0
   -6.3449   -0.3169   -0.3585 H   0  0  0  0  0  0  0  0  0  0  0  0
   -7.3967    1.0175    0.3566 H   0  0  0  0  0  0  0  0  0  0  0  0
   -5.3279    2.0893    1.2421 H   0  0  0  0  0  0  0  0  0  0  0  0
   -5.4667    0.4432    1.9036 H   0  0  0  0  0  0  0  0  0  0  0  0
   -3.2400    1.2035    1.0954 H   0  0  0  0  0  0  0  0  0  0  0  0
   -4.3791   -2.8788   -0.1046 H   0  0  0  0  0  0  0  0  0  0  0  0
   -3.9877   -0.8555    3.0534 H   0  0  0  0  0  0  0  0  0  0  0  0
   -1.8696   -2.5208    0.6317 H   0  0  0  0  0  0  0  0  0  0  0  0
   -1.9127   -1.3737   -0.7226 H   0  0  0  0  0  0  0  0  0  0  0  0
   -0.8683    0.9165   -0.1927 H   0  0  0  0  0  0  0  0  0  0  0  0
   -1.3789   -1.8374    2.7758 H   0  0  0  0  0  0  0  0  0  0  0  0
   -1.6480   -0.0670    2.9875 H   0  0  0  0  0  0  0  0  0  0  0  0
    0.0383   -0.7243    2.9318 H   0  0  0  0  0  0  0  0  0  0  0  0
    0.3155   -2.4086    0.7672 H   0  0  0  0  0  0  0  0  0  0  0  0
    0.2729   -0.3621   -1.2617 H   0  0  0  0  0  0  0  0  0  0  0  0
    1.8248   -1.2648    1.9565 H   0  0  0  0  0  0  0  0  0  0  0  0
    1.8852    0.6388   -0.3357 H   0  0  0  0  0  0  0  0  0  0  0  0
    2.4701   -1.6790   -1.0758 H   0  0  0  0  0  0  0  0  0  0  0  0
    3.6352   -1.8066    0.3069 H   0  0  0  0  0  0  0  0  0  0  0  0
    3.1419    0.3760    2.3672 H   0  0  0  0  0  0  0  0  0  0  0  0
    3.1204    1.7909    1.2465 H   0  0  0  0  0  0  0  0  0  0  0  0
    5.0184   -0.5662    1.2182 H   0  0  0  0  0  0  0  0  0  0  0  0
    5.4352    1.1793    1.4194 H   0  0  0  0  0  0  0  0  0  0  0  0
    4.1389    1.5741   -0.7749 H   0  0  0  0  0  0  0  0  0  0  0  0
    6.1626    1.4040   -2.0718 H   0  0  0  0  0  0  0  0  0  0  0  0
    6.9920    0.4164   -0.8071 H   0  0  0  0  0  0  0  0  0  0  0  0
    7.1718    2.9210   -0.7914 H   0  0  0  0  0  0  0  0  0  0  0  0
    5.5384    2.9519   -0.3970 H   0  0  0  0  0  0  0  0  0  0  0  0
    3.7789   -0.1761   -2.2696 H   0  0  0  0  0  0  0  0  0  0  0  0
  1  2  1  0
  2  3  1  0
  3  4  1  0
  3  5  1  0
  5  6  1  0
  1  7  1  0
  6  7  1  0
  7  8  1  0
  8  9  1  0
  8 10  1  0
  8 11  1  0
 11 12  1  0
 12 13  1  1
 12 14  1  0
 12 15  1  0
 15 16  1  0
 15 17  1  0
 17 18  1  0
 18 19  1  0
 18 20  1  0
 20 21  1  0
 21 22  1  0
 22 23  1  0
 23 24  1  0
 19 25  1  0
 22 25  1  0
 25 26  1  0
 26 27  1  0
 26 28  1  0
 26 29  1  0
  1 30  1  0
  1 31  1  0
  2 32  1  0
  2 33  1  0
  3 34  1  0
  5 35  1  0
  5 36  1  0
  6 37  1  0
  6 38  1  0
  7 39  1  0
  9 40  1  0
 10 41  1  0
 11 42  1  0
 11 43  1  0
 13 44  1  0
 14 45  1  0
 14 46  1  0
 14 47  1  0
 15 48  1  6
 16 49  1  0
 17 50  1  0
 18 51  1  6
 19 52  1  0
 19 53  1  0
 20 54  1  0
 20 55  1  0
 21 56  1  0
 21 57  1  0
 22 58  1  0
 23 59  1  0
 23 60  1  0
 24 61  1  0
 24 62  1  0
 25 63  1  0
M  END
>  <PDBID>  (1) 
1Z95

>  <PDB ID>  (1) 
1Z95

>  <Generic Name>  (1) 
Bicalutamide

>  <Brand Name>  (1) 
Accel-bicalutamide Tablets USP#Ach-bicalutamide#Act Bicalutamide#Ag-bicalutamide#Apo-bicalutamide#Ava-bicalutamide#Bicalutamide#Bicalutamide Tablets#Casodex#Dom-bicalutamide#Jamp-bicalutamide#Med-bicalutamide#Mylan-bicalutamide#Ntp-bicalutamide#Nu-bicalutamide#PHL-bicalutamide#PMS-bicalutamide#Pro-bicalutamide - 50#Ran-bicalutamide#Ratio-bicalutamide#Sandoz Bicalutamide#Teva-bicalutamide#Van-bicalutamide

>  <DrugBank ID>  (1) 
DB01128

>  <ATC Codes>  (1) 
L02BB03

>  <Ligand ID>  (1) 
0U9,198

>  <Target Name>  (1) 
Androgen receptor

>  <UniProt ID>  (1) 
P10275

>  <PDB ID.1>  (1) 
1Z95

>  <Seq. Identity>  (1) 
100%

$$$$
