PDB_DB11363_02
     RDKit          3D

 90 95  0  0  0  0  0  0  0  0999 V2000
   -5.1267    0.1520   -1.2586 C   0  0  0  0  0  0  0  0  0  0  0  0
   -7.0803    0.7311    0.1296 C   0  0  0  0  0  0  0  0  0  0  0  0
   -6.6355    0.3913   -1.2651 C   0  0  0  0  0  0  0  0  0  0  0  0
   -3.4247   -1.3917   -0.2414 C   0  0  0  0  0  0  0  0  0  0  0  0
   -3.0423   -0.7884    1.0521 C   0  0  0  0  0  0  0  0  0  0  0  0
    1.4840   -0.1061   -0.6114 C   0  0  0  0  0  0  0  0  0  0  0  0
   -0.1785   -1.1203   -2.0791 C   0  0  0  0  0  0  0  0  0  0  0  0
   -1.1228   -1.2002   -0.9277 C   0  0  0  0  0  0  0  0  0  0  0  0
   -1.8940    0.1314    1.0623 C   0  0  0  0  0  0  0  0  0  0  0  0
   -1.2124    0.0164    2.4345 C   0  0  0  0  0  0  0  0  0  0  0  0
   -2.4059    1.5788    1.0077 C   0  0  0  0  0  0  0  0  0  0  0  0
    2.8605   -2.8062   -0.5078 C   0  0  0  0  0  0  0  0  0  0  0  0
    5.3126    0.4754    0.4811 C   0  0  0  0  0  0  0  0  0  0  0  0
    4.3574    1.5258    0.9556 C   0  0  0  0  0  0  0  0  0  0  0  0
   -9.1070    1.7930   -0.7787 N   0  0  0  0  0  0  0  0  0  0  0  0
   -8.5985    0.7948    0.1298 C   0  0  0  0  0  0  0  0  0  0  0  0
   -6.6522   -0.2382    1.1668 C   0  0  0  0  0  0  0  0  0  0  0  0
   -5.3098   -0.8226    1.0096 C   0  0  0  0  0  0  0  0  0  0  0  0
   -4.8753   -1.0536   -0.4153 C   0  0  0  0  0  0  0  0  0  0  0  0
   -4.2259   -0.0714    1.5564 N   0  0  0  0  0  0  0  0  0  0  0  0
   -0.8540   -0.0627    0.0333 C   0  0  0  0  0  0  0  0  0  0  0  0
   -2.5651   -0.9861   -1.4090 C   0  0  0  0  0  0  0  0  0  0  0  0
   -2.7836   -1.9029   -2.4471 O   0  0  0  0  0  0  0  0  0  0  0  0
    0.5379   -0.2825    0.5874 C   0  0  0  0  0  0  0  0  0  0  0  0
    1.2408   -1.2251   -1.5698 C   0  0  0  0  0  0  0  0  0  0  0  0
    1.4662   -2.5954   -0.9952 C   0  0  0  0  0  0  0  0  0  0  0  0
    2.8399    0.0580   -0.1901 N   0  0  0  0  0  0  0  0  0  0  0  0
    3.6413    0.5638   -1.2831 C   0  0  0  0  0  0  0  0  0  0  0  0
    5.0898    0.1615   -0.9716 C   0  0  0  0  0  0  0  0  0  0  0  0
    2.9210    0.9912    0.8949 C   0  0  0  0  0  0  0  0  0  0  0  0
    6.6687    0.8868    0.7652 N   0  0  0  0  0  0  0  0  0  0  0  0
    7.6357   -0.0961    0.3257 C   0  0  0  0  0  0  0  0  0  0  0  0
    8.9517    0.2391    0.9965 C   0  0  0  0  0  0  0  0  0  0  0  0
    9.2287    1.5867    0.8805 O   0  0  0  0  0  0  0  0  0  0  0  0
    8.4604    2.2268   -0.0694 C   0  0  0  0  0  0  0  0  0  0  0  0
    6.9770    2.2096    0.3055 C   0  0  0  0  0  0  0  0  0  0  0  0
   -4.6744    1.0782   -0.8736 H   0  0  0  0  0  0  0  0  0  0  0  0
   -4.7918    0.0155   -2.2865 H   0  0  0  0  0  0  0  0  0  0  0  0
   -6.6888    1.7475    0.3579 H   0  0  0  0  0  0  0  0  0  0  0  0
   -7.1052   -0.5185   -1.6749 H   0  0  0  0  0  0  0  0  0  0  0  0
   -6.8223    1.2829   -1.9130 H   0  0  0  0  0  0  0  0  0  0  0  0
   -3.3691   -2.5201   -0.1985 H   0  0  0  0  0  0  0  0  0  0  0  0
   -2.8853   -1.6141    1.8072 H   0  0  0  0  0  0  0  0  0  0  0  0
    1.1519    0.8321   -1.1015 H   0  0  0  0  0  0  0  0  0  0  0  0
   -0.2896   -0.1173   -2.5408 H   0  0  0  0  0  0  0  0  0  0  0  0
   -0.3845   -1.9279   -2.8107 H   0  0  0  0  0  0  0  0  0  0  0  0
   -1.1266   -2.1514   -0.3894 H   0  0  0  0  0  0  0  0  0  0  0  0
   -2.0738   -0.0325    3.1634 H   0  0  0  0  0  0  0  0  0  0  0  0
   -0.6645    0.9293    2.6844 H   0  0  0  0  0  0  0  0  0  0  0  0
   -0.6644   -0.9176    2.5476 H   0  0  0  0  0  0  0  0  0  0  0  0
   -2.5905    1.9086   -0.0225 H   0  0  0  0  0  0  0  0  0  0  0  0
   -3.3342    1.6718    1.6028 H   0  0  0  0  0  0  0  0  0  0  0  0
   -1.6606    2.2485    1.5293 H   0  0  0  0  0  0  0  0  0  0  0  0
    3.1224   -2.2313    0.3916 H   0  0  0  0  0  0  0  0  0  0  0  0
    2.9321   -3.8904   -0.1980 H   0  0  0  0  0  0  0  0  0  0  0  0
    3.5770   -2.7024   -1.3419 H   0  0  0  0  0  0  0  0  0  0  0  0
    5.1193   -0.4442    1.0548 H   0  0  0  0  0  0  0  0  0  0  0  0
    4.4528    2.4909    0.4195 H   0  0  0  0  0  0  0  0  0  0  0  0
    4.6186    1.7537    2.0253 H   0  0  0  0  0  0  0  0  0  0  0  0
   -8.9751    2.7678   -0.4508 H   0  0  0  0  0  0  0  0  0  0  0  0
   -8.8285    1.6184   -1.7514 H   0  0  0  0  0  0  0  0  0  0  0  0
   -9.0052    0.9436    1.1375 H   0  0  0  0  0  0  0  0  0  0  0  0
   -9.0021   -0.1912   -0.2296 H   0  0  0  0  0  0  0  0  0  0  0  0
   -7.3993   -1.0833    1.2094 H   0  0  0  0  0  0  0  0  0  0  0  0
   -6.7199    0.2640    2.1705 H   0  0  0  0  0  0  0  0  0  0  0  0
   -5.2858   -1.8374    1.5056 H   0  0  0  0  0  0  0  0  0  0  0  0
   -5.4644   -1.8941   -0.8441 H   0  0  0  0  0  0  0  0  0  0  0  0
   -4.1898   -0.0573    2.5869 H   0  0  0  0  0  0  0  0  0  0  0  0
   -0.7686    0.8580   -0.6175 H   0  0  0  0  0  0  0  0  0  0  0  0
   -2.7370    0.0263   -1.7696 H   0  0  0  0  0  0  0  0  0  0  0  0
   -2.7320   -2.8347   -2.1058 H   0  0  0  0  0  0  0  0  0  0  0  0
    0.8071    0.4823    1.3441 H   0  0  0  0  0  0  0  0  0  0  0  0
    0.6074   -1.2885    0.9963 H   0  0  0  0  0  0  0  0  0  0  0  0
    1.8882   -1.1399   -2.4570 H   0  0  0  0  0  0  0  0  0  0  0  0
    0.7604   -2.9051   -0.2264 H   0  0  0  0  0  0  0  0  0  0  0  0
    1.3176   -3.3188   -1.8506 H   0  0  0  0  0  0  0  0  0  0  0  0
    3.3393    0.2498   -2.2759 H   0  0  0  0  0  0  0  0  0  0  0  0
    3.6432    1.6913   -1.2732 H   0  0  0  0  0  0  0  0  0  0  0  0
    5.7820    0.6986   -1.6486 H   0  0  0  0  0  0  0  0  0  0  0  0
    5.1746   -0.9181   -1.2102 H   0  0  0  0  0  0  0  0  0  0  0  0
    2.7790    0.4514    1.8601 H   0  0  0  0  0  0  0  0  0  0  0  0
    2.2580    1.8553    0.7818 H   0  0  0  0  0  0  0  0  0  0  0  0
    7.7498   -0.1164   -0.7761 H   0  0  0  0  0  0  0  0  0  0  0  0
    7.2748   -1.0825    0.6772 H   0  0  0  0  0  0  0  0  0  0  0  0
    9.7769   -0.3984    0.6194 H   0  0  0  0  0  0  0  0  0  0  0  0
    8.8259   -0.0082    2.0757 H   0  0  0  0  0  0  0  0  0  0  0  0
    8.8346    3.2786   -0.1340 H   0  0  0  0  0  0  0  0  0  0  0  0
    8.6334    1.7402   -1.0517 H   0  0  0  0  0  0  0  0  0  0  0  0
    6.3840    2.5284   -0.5659 H   0  0  0  0  0  0  0  0  0  0  0  0
    6.8443    2.9650    1.0937 H   0  0  0  0  0  0  0  0  0  0  0  0
  1  3  1  0
  2  3  1  0
  4  5  1  0
  7  8  1  0
  5  9  1  0
  9 10  1  0
  9 11  1  0
 13 14  1  0
  2 16  1  0
 15 16  1  0
  2 17  1  0
 17 18  1  0
  1 19  1  0
  4 19  1  0
 18 19  1  0
  5 20  1  0
 18 20  1  0
  8 21  1  0
  9 21  1  0
  4 22  1  0
  8 22  1  0
 22 23  1  0
  6 24  1  0
 21 24  1  0
  6 25  1  0
  7 25  1  0
 12 26  1  0
 25 26  1  0
  6 27  1  0
 27 28  1  0
 13 29  1  0
 28 29  1  0
 14 30  1  0
 27 30  1  0
 13 31  1  0
 31 32  1  0
 32 33  1  0
 33 34  1  0
 34 35  1  0
 31 36  1  0
 35 36  1  0
  1 37  1  0
  1 38  1  0
  2 39  1  0
  3 40  1  0
  3 41  1  0
  4 42  1  0
  5 43  1  0
  6 44  1  0
  7 45  1  0
  7 46  1  0
  8 47  1  0
 10 48  1  0
 10 49  1  0
 10 50  1  0
 11 51  1  0
 11 52  1  0
 11 53  1  0
 12 54  1  0
 12 55  1  0
 12 56  1  0
 13 57  1  0
 14 58  1  0
 14 59  1  0
 15 60  1  0
 15 61  1  0
 16 62  1  0
 16 63  1  0
 17 64  1  0
 17 65  1  0
 18 66  1  0
 19 67  1  0
 20 68  1  0
 21 69  1  0
 22 70  1  0
 23 71  1  0
 24 72  1  0
 24 73  1  0
 25 74  1  0
 26 75  1  0
 26 76  1  0
 28 77  1  0
 28 78  1  0
 29 79  1  0
 29 80  1  0
 30 81  1  0
 30 82  1  0
 32 83  1  0
 32 84  1  0
 33 85  1  0
 33 86  1  0
 35 87  1  0
 35 88  1  0
 36 89  1  0
 36 90  1  0
M  END
>  <PDBID>  (1) 
3AOX

>  <PDB ID>  (1) 
3AOX

>  <Generic Name>  (1) 
Alectinib

>  <Brand Name>  (1) 
Alecensa#Alecensaro

>  <DrugBank ID>  (1) 
DB11363

>  <ATC Codes>  (1) 
nan

>  <Ligand ID>  (1) 
EMH

>  <Target Name>  (1) 
ALK tyrosine kinase receptor

>  <UniProt ID>  (1) 
Q9UM73

>  <PDB ID.1>  (1) 
3AOX

>  <Seq. Identity>  (1) 
100%

$$$$
