PDB_DB00491_05
     RDKit          3D

 31 31  0  0  0  0  0  0  0  0999 V2000
    3.9565   -1.1439    0.7805 O   0  0  0  0  0  0  0  0  0  0  0  0
   -0.3279    3.2386    0.6105 O   0  0  0  0  0  0  0  0  0  0  0  0
   -2.0430   -1.2391   -1.9695 O   0  0  0  0  0  0  0  0  0  0  0  0
   -1.7024   -0.4805    1.5156 O   0  0  0  0  0  0  0  0  0  0  0  0
   -1.7799    1.0574   -1.7297 O   0  0  0  0  0  0  0  0  0  0  0  0
    2.9414   -0.8812   -0.1384 C   0  0  0  0  0  0  0  0  0  0  0  0
    0.2816    2.0129    0.9615 C   0  0  0  0  0  0  0  0  0  0  0  0
    1.7073   -0.4943    0.6940 C   0  0  0  0  0  0  0  0  0  0  0  0
    0.0237   -1.2706   -0.7625 C   0  0  0  0  0  0  0  0  0  0  0  0
   -1.4630   -1.4195   -0.6954 C   0  0  1  0  0  0  0  0  0  0  0  0
   -1.9954   -0.2901    0.1701 C   0  0  2  0  0  0  0  0  0  0  0  0
   -1.4469    0.9873   -0.3882 C   0  0  1  0  0  0  0  0  0  0  0  0
    0.0749    1.0822   -0.1836 C   0  0  2  0  0  0  0  0  0  0  0  0
    0.5851   -0.1939   -0.0807 N   0  0  0  0  0  0  0  0  0  0  0  0
    3.6349   -1.4634    1.6375 H   0  0  0  0  0  0  0  0  0  0  0  0
    0.3433    3.9791    0.5766 H   0  0  0  0  0  0  0  0  0  0  0  0
   -2.9378   -1.6124   -1.9315 H   0  0  0  0  0  0  0  0  0  0  0  0
   -2.0454   -1.3853    1.7467 H   0  0  0  0  0  0  0  0  0  0  0  0
   -2.7623    1.2854   -1.7721 H   0  0  0  0  0  0  0  0  0  0  0  0
    2.7433   -1.7766   -0.7467 H   0  0  0  0  0  0  0  0  0  0  0  0
    3.2864   -0.0261   -0.7555 H   0  0  0  0  0  0  0  0  0  0  0  0
    1.2942    2.2305    1.2632 H   0  0  0  0  0  0  0  0  0  0  0  0
   -0.2912    1.6769    1.8733 H   0  0  0  0  0  0  0  0  0  0  0  0
    2.0660    0.2685    1.3929 H   0  0  0  0  0  0  0  0  0  0  0  0
    1.4903   -1.4040    1.3026 H   0  0  0  0  0  0  0  0  0  0  0  0
    0.3310   -1.3005   -1.8401 H   0  0  0  0  0  0  0  0  0  0  0  0
    0.4549   -2.2280   -0.3404 H   0  0  0  0  0  0  0  0  0  0  0  0
   -1.7980   -2.3743   -0.2720 H   0  0  0  0  0  0  0  0  0  0  0  0
   -3.0895   -0.2609    0.0620 H   0  0  0  0  0  0  0  0  0  0  0  0
   -1.9776    1.8253    0.1204 H   0  0  0  0  0  0  0  0  0  0  0  0
    0.4455    1.6008   -1.1009 H   0  0  0  0  0  0  0  0  0  0  0  0
  1  6  1  0
  2  7  1  0
  6  8  1  0
  3 10  1  0
  9 10  1  0
  4 11  1  0
 10 11  1  0
  5 12  1  0
 11 12  1  0
  7 13  1  0
 12 13  1  0
  8 14  1  0
  9 14  1  0
 13 14  1  0
  1 15  1  0
  2 16  1  0
  3 17  1  0
  4 18  1  0
  5 19  1  0
  6 20  1  0
  6 21  1  0
  7 22  1  0
  7 23  1  0
  8 24  1  0
  8 25  1  0
  9 26  1  0
  9 27  1  0
 10 28  1  1
 11 29  1  1
 12 30  1  1
 13 31  1  6
M  END
>  <PDBID>  (1) 
3L4W

>  <PDB ID>  (1) 
3L4W

>  <Generic Name>  (1) 
Miglitol

>  <Brand Name>  (1) 
Glyset#Miglitol#Diaban#Diamig#Diaset#Diastabol#Elitox#Euglitol#Glycet#Laiping#Migbose#Miglit#Mignar#Migtor#Misobit#Plumarol#Seibule

>  <DrugBank ID>  (1) 
DB00491

>  <ATC Codes>  (1) 
A10BF02

>  <Ligand ID>  (1) 
MIG

>  <Target Name>  (1) 
Maltase-glucoamylase, intestinal

>  <UniProt ID>  (1) 
O43451

>  <PDB ID.1>  (1) 
3L4W

>  <Seq. Identity>  (1) 
99%

$$$$
