PDB_DB05812_05
     RDKit          3D

268284  0  0  0  0  0  0  0  0999 V2000
   -3.5417   -1.6413    0.2113 C   0  0  0  0  0  0  0  0  0  0  0  0
   -5.0278   -1.5759    0.1450 C   0  0  0  0  0  0  0  0  0  0  0  0
   -5.5915   -0.2905    0.7092 C   0  0  2  0  0  0  0  0  0  0  0  0
   -6.8856   -0.1577    0.1572 O   0  0  0  0  0  0  0  0  0  0  0  0
   -4.8116    0.9129    0.3071 C   0  0  0  0  0  0  0  0  0  0  0  0
   -3.3252    0.7894    0.4928 C   0  0  0  0  0  0  0  0  0  0  0  0
   -3.0252    0.6595    1.9512 C   0  0  0  0  0  0  0  0  0  0  0  0
   -1.5788    0.3379    2.2448 C   0  0  0  0  0  0  0  0  0  0  0  0
   -0.8083    0.4832    0.9510 C   0  0  2  0  0  0  0  0  0  0  0  0
   -1.3568   -0.5629   -0.0193 C   0  0  1  0  0  0  0  0  0  0  0  0
   -2.8316   -0.4063   -0.2580 C   0  0  1  0  0  0  0  0  0  0  0  0
   -0.6297   -0.6406   -1.3086 C   0  0  0  0  0  0  0  0  0  0  0  0
    0.8751   -0.4938   -1.2075 C   0  0  0  0  0  0  0  0  0  0  0  0
    1.2658    0.5896   -0.2852 C   0  0  1  0  0  0  0  0  0  0  0  0
    0.6289    0.1902    1.0627 C   0  0  1  0  0  0  0  0  0  0  0  0
    1.4285    0.9690    2.0214 C   0  0  0  0  0  0  0  0  0  0  0  0
    2.8349    0.5282    1.5525 C   0  0  0  0  0  0  0  0  0  0  0  0
    2.6477    0.8555    0.0515 C   0  0  0  0  0  0  0  0  0  0  0  0
    0.5677    1.8646   -0.7995 C   0  0  0  0  0  0  0  0  0  0  0  0
   -3.1573   -0.2355   -1.7316 C   0  0  0  0  0  0  0  0  0  0  0  0
    3.7797    0.4058   -0.7759 C   0  0  0  0  0  0  0  0  0  0  0  0
    5.0924    0.9641   -0.1539 C   0  0  0  0  0  0  0  0  0  0  0  0
    6.2373    0.5596   -0.8856 N   0  0  0  0  0  0  0  0  0  0  0  0
    6.4581   -0.8727   -0.8425 C   0  0  0  0  0  0  0  0  0  0  0  0
    5.2821   -1.5187   -1.4754 C   0  0  0  0  0  0  0  0  0  0  0  0
    3.9367   -1.0399   -1.0559 C   0  0  0  0  0  0  0  0  0  0  0  0
   -3.5417   -1.6413    0.2113 C   0  0  0  0  0  0  0  0  0  0  0  0
   -5.0278   -1.5759    0.1450 C   0  0  0  0  0  0  0  0  0  0  0  0
   -5.5915   -0.2905    0.7092 C   0  0  2  0  0  0  0  0  0  0  0  0
   -6.8856   -0.1577    0.1572 O   0  0  0  0  0  0  0  0  0  0  0  0
   -4.8116    0.9129    0.3071 C   0  0  0  0  0  0  0  0  0  0  0  0
   -3.3252    0.7894    0.4928 C   0  0  0  0  0  0  0  0  0  0  0  0
   -3.0252    0.6595    1.9512 C   0  0  0  0  0  0  0  0  0  0  0  0
   -1.5788    0.3379    2.2448 C   0  0  0  0  0  0  0  0  0  0  0  0
   -0.8083    0.4832    0.9510 C   0  0  2  0  0  0  0  0  0  0  0  0
   -1.3568   -0.5629   -0.0193 C   0  0  1  0  0  0  0  0  0  0  0  0
   -2.8316   -0.4063   -0.2580 C   0  0  1  0  0  0  0  0  0  0  0  0
   -0.6297   -0.6406   -1.3086 C   0  0  0  0  0  0  0  0  0  0  0  0
    0.8751   -0.4938   -1.2075 C   0  0  0  0  0  0  0  0  0  0  0  0
    1.2658    0.5896   -0.2852 C   0  0  1  0  0  0  0  0  0  0  0  0
    0.6289    0.1902    1.0627 C   0  0  1  0  0  0  0  0  0  0  0  0
    1.4285    0.9690    2.0214 C   0  0  0  0  0  0  0  0  0  0  0  0
    2.8349    0.5282    1.5525 C   0  0  0  0  0  0  0  0  0  0  0  0
    2.6477    0.8555    0.0515 C   0  0  0  0  0  0  0  0  0  0  0  0
    0.5677    1.8646   -0.7995 C   0  0  0  0  0  0  0  0  0  0  0  0
   -3.1573   -0.2355   -1.7316 C   0  0  0  0  0  0  0  0  0  0  0  0
    3.7797    0.4058   -0.7759 C   0  0  0  0  0  0  0  0  0  0  0  0
    5.0924    0.9641   -0.1539 C   0  0  0  0  0  0  0  0  0  0  0  0
    6.2373    0.5596   -0.8856 N   0  0  0  0  0  0  0  0  0  0  0  0
    6.4581   -0.8727   -0.8425 C   0  0  0  0  0  0  0  0  0  0  0  0
    5.2821   -1.5187   -1.4754 C   0  0  0  0  0  0  0  0  0  0  0  0
    3.9367   -1.0399   -1.0559 C   0  0  0  0  0  0  0  0  0  0  0  0
   -3.7638   -1.1146   -0.5095 C   0  0  0  0  0  0  0  0  0  0  0  0
   -5.2133   -0.7620   -0.4635 C   0  0  0  0  0  0  0  0  0  0  0  0
   -5.5590    0.1449    0.6937 C   0  0  2  0  0  0  0  0  0  0  0  0
   -6.8193    0.7016    0.3985 O   0  0  0  0  0  0  0  0  0  0  0  0
   -4.6033    1.2788    0.8573 C   0  0  0  0  0  0  0  0  0  0  0  0
   -3.1551    0.8513    0.8878 C   0  0  0  0  0  0  0  0  0  0  0  0
   -2.9365   -0.0100    2.0876 C   0  0  0  0  0  0  0  0  0  0  0  0
   -1.5903   -0.6855    2.1149 C   0  0  0  0  0  0  0  0  0  0  0  0
   -0.7534   -0.0782    1.0149 C   0  0  2  0  0  0  0  0  0  0  0  0
   -1.4445   -0.3964   -0.3227 C   0  0  1  0  0  0  0  0  0  0  0  0
   -2.8481    0.0837   -0.3655 C   0  0  1  0  0  0  0  0  0  0  0  0
   -0.6789    0.1530   -1.4753 C   0  0  0  0  0  0  0  0  0  0  0  0
    0.8119   -0.1208   -1.4365 C   0  0  0  0  0  0  0  0  0  0  0  0
    1.3753    0.2242   -0.1020 C   0  0  1  0  0  0  0  0  0  0  0  0
    0.5938   -0.6641    0.8873 C   0  0  1  0  0  0  0  0  0  0  0  0
    1.4688   -0.6229    2.0795 C   0  0  0  0  0  0  0  0  0  0  0  0
    2.7929   -1.0206    1.4461 C   0  0  0  0  0  0  0  0  0  0  0  0
    2.7650   -0.1855    0.1839 C   0  0  1  0  0  0  0  0  0  0  0  0
    1.1178    1.6934    0.2351 C   0  0  0  0  0  0  0  0  0  0  0  0
   -3.1333    0.9965   -1.5398 C   0  0  0  0  0  0  0  0  0  0  0  0
    3.5880   -0.7180   -0.9193 C   0  0  1  0  0  0  0  0  0  0  0  0
    3.8542    0.2510   -2.0422 C   0  0  0  0  0  0  0  0  0  0  0  0
    5.2700    0.4919   -2.2369 N   0  0  0  0  0  0  0  0  0  0  0  0
    5.8374    0.9505   -1.0133 C   0  0  0  0  0  0  0  0  0  0  0  0
    5.8896   -0.2181   -0.0503 C   0  0  0  0  0  0  0  0  0  0  0  0
    4.9203   -1.2873   -0.5001 C   0  0  0  0  0  0  0  0  0  0  0  0
   -3.3012   -1.7636    0.3603 C   0  0  0  0  0  0  0  0  0  0  0  0
   -4.7638   -1.8920    0.5427 C   0  0  0  0  0  0  0  0  0  0  0  0
   -5.2417   -0.6783    1.3451 C   0  0  2  0  0  0  0  0  0  0  0  0
   -6.5279   -0.8387    1.8022 O   0  0  0  0  0  0  0  0  0  0  0  0
   -5.0789    0.5042    0.4125 C   0  0  0  0  0  0  0  0  0  0  0  0
   -3.6248    0.7226    0.1937 C   0  0  1  0  0  0  0  0  0  0  0  0
   -2.9920    1.3147    1.4321 C   0  0  0  0  0  0  0  0  0  0  0  0
   -1.7021    1.9729    0.9895 C   0  0  0  0  0  0  0  0  0  0  0  0
   -0.9205    1.1344    0.0152 C   0  0  2  0  0  0  0  0  0  0  0  0
   -1.4116   -0.3071    0.0344 C   0  0  1  0  0  0  0  0  0  0  0  0
   -2.8577   -0.4649   -0.2659 C   0  0  1  0  0  0  0  0  0  0  0  0
   -0.6142   -1.2137   -0.8158 C   0  0  0  0  0  0  0  0  0  0  0  0
    0.8995   -1.0252   -0.6977 C   0  0  0  0  0  0  0  0  0  0  0  0
    1.2509    0.4062   -0.7709 C   0  0  1  0  0  0  0  0  0  0  0  0
    0.5020    1.0193    0.4282 C   0  0  1  0  0  0  0  0  0  0  0  0
    1.2535    2.2399    0.7095 C   0  0  0  0  0  0  0  0  0  0  0  0
    2.6687    1.6267    0.7814 C   0  0  0  0  0  0  0  0  0  0  0  0
    2.6148    0.8491   -0.5499 C   0  0  0  0  0  0  0  0  0  0  0  0
    0.7056    0.9823   -2.0661 C   0  0  0  0  0  0  0  0  0  0  0  0
   -3.0989   -0.6097   -1.7674 C   0  0  0  0  0  0  0  0  0  0  0  0
    3.7699   -0.0648   -0.7093 C   0  0  0  0  0  0  0  0  0  0  0  0
    4.9878    0.8361   -0.4127 C   0  0  0  0  0  0  0  0  0  0  0  0
    6.2245    0.1295   -0.6328 N   0  0  0  0  0  0  0  0  0  0  0  0
    6.2979   -0.8162    0.4976 C   0  0  0  0  0  0  0  0  0  0  0  0
    5.2432   -1.8315    0.2407 C   0  0  0  0  0  0  0  0  0  0  0  0
    3.8358   -1.2761    0.1350 C   0  0  0  0  0  0  0  0  0  0  0  0
   -3.1904   -1.9787    1.2295 H   0  0  0  0  0  0  0  0  0  0  0  0
   -3.2150   -2.4761   -0.4709 H   0  0  0  0  0  0  0  0  0  0  0  0
   -5.4317   -2.4026    0.7822 H   0  0  0  0  0  0  0  0  0  0  0  0
   -5.4185   -1.7818   -0.8772 H   0  0  0  0  0  0  0  0  0  0  0  0
   -5.7372   -0.3391    1.8060 H   0  0  0  0  0  0  0  0  0  0  0  0
   -7.3784    0.4509    0.7625 H   0  0  0  0  0  0  0  0  0  0  0  0
   -5.0660    1.2652   -0.7288 H   0  0  0  0  0  0  0  0  0  0  0  0
   -5.1430    1.7598    0.9727 H   0  0  0  0  0  0  0  0  0  0  0  0
   -2.8958    1.7381    0.0543 H   0  0  0  0  0  0  0  0  0  0  0  0
   -3.6604   -0.1639    2.3492 H   0  0  0  0  0  0  0  0  0  0  0  0
   -3.3690    1.5796    2.4657 H   0  0  0  0  0  0  0  0  0  0  0  0
   -1.2029    1.1515    2.9242 H   0  0  0  0  0  0  0  0  0  0  0  0
   -1.4295   -0.6207    2.7384 H   0  0  0  0  0  0  0  0  0  0  0  0
   -0.9593    1.5105    0.6217 H   0  0  0  0  0  0  0  0  0  0  0  0
   -1.1564   -1.5381    0.5213 H   0  0  0  0  0  0  0  0  0  0  0  0
   -1.0375   -0.0132   -2.1266 H   0  0  0  0  0  0  0  0  0  0  0  0
   -0.7983   -1.6972   -1.6931 H   0  0  0  0  0  0  0  0  0  0  0  0
    1.2322   -1.4715   -0.8270 H   0  0  0  0  0  0  0  0  0  0  0  0
    1.1966   -0.2453   -2.2367 H   0  0  0  0  0  0  0  0  0  0  0  0
    0.8729   -0.8912    1.1807 H   0  0  0  0  0  0  0  0  0  0  0  0
    1.4050    2.0601    1.8595 H   0  0  0  0  0  0  0  0  0  0  0  0
    1.2947    0.7118    3.0865 H   0  0  0  0  0  0  0  0  0  0  0  0
    2.8628   -0.5438    1.7390 H   0  0  0  0  0  0  0  0  0  0  0  0
    3.6056    1.1406    2.0170 H   0  0  0  0  0  0  0  0  0  0  0  0
    2.7614    1.9994    0.0970 H   0  0  0  0  0  0  0  0  0  0  0  0
    0.5758    2.6628   -0.0444 H   0  0  0  0  0  0  0  0  0  0  0  0
   -0.3710    1.6723   -1.3018 H   0  0  0  0  0  0  0  0  0  0  0  0
    1.2730    2.2326   -1.6057 H   0  0  0  0  0  0  0  0  0  0  0  0
   -4.2827   -0.3131   -1.7929 H   0  0  0  0  0  0  0  0  0  0  0  0
   -2.9193    0.7722   -2.1084 H   0  0  0  0  0  0  0  0  0  0  0  0
   -2.7738   -1.0601   -2.3416 H   0  0  0  0  0  0  0  0  0  0  0  0
    3.7206    0.9331   -1.7579 H   0  0  0  0  0  0  0  0  0  0  0  0
    5.1477    0.5202    0.8661 H   0  0  0  0  0  0  0  0  0  0  0  0
    5.0614    2.0448   -0.0553 H   0  0  0  0  0  0  0  0  0  0  0  0
    6.3162    0.9225   -1.8382 H   0  0  0  0  0  0  0  0  0  0  0  0
    7.3709   -1.0625   -1.4438 H   0  0  0  0  0  0  0  0  0  0  0  0
    6.6842   -1.2064    0.1828 H   0  0  0  0  0  0  0  0  0  0  0  0
    5.4119   -2.6272   -1.3271 H   0  0  0  0  0  0  0  0  0  0  0  0
    5.4105   -1.3962   -2.5935 H   0  0  0  0  0  0  0  0  0  0  0  0
    3.2626   -1.2854   -1.9354 H   0  0  0  0  0  0  0  0  0  0  0  0
    3.5064   -1.6104   -0.2087 H   0  0  0  0  0  0  0  0  0  0  0  0
   -3.1904   -1.9787    1.2295 H   0  0  0  0  0  0  0  0  0  0  0  0
   -3.2150   -2.4761   -0.4709 H   0  0  0  0  0  0  0  0  0  0  0  0
   -5.4317   -2.4026    0.7822 H   0  0  0  0  0  0  0  0  0  0  0  0
   -5.4185   -1.7818   -0.8772 H   0  0  0  0  0  0  0  0  0  0  0  0
   -5.7372   -0.3391    1.8060 H   0  0  0  0  0  0  0  0  0  0  0  0
   -7.3784    0.4509    0.7625 H   0  0  0  0  0  0  0  0  0  0  0  0
   -5.0660    1.2652   -0.7288 H   0  0  0  0  0  0  0  0  0  0  0  0
   -5.1430    1.7598    0.9727 H   0  0  0  0  0  0  0  0  0  0  0  0
   -2.8958    1.7381    0.0543 H   0  0  0  0  0  0  0  0  0  0  0  0
   -3.6604   -0.1639    2.3492 H   0  0  0  0  0  0  0  0  0  0  0  0
   -3.3690    1.5796    2.4657 H   0  0  0  0  0  0  0  0  0  0  0  0
   -1.2029    1.1515    2.9242 H   0  0  0  0  0  0  0  0  0  0  0  0
   -1.4295   -0.6207    2.7384 H   0  0  0  0  0  0  0  0  0  0  0  0
   -0.9593    1.5105    0.6217 H   0  0  0  0  0  0  0  0  0  0  0  0
   -1.1564   -1.5381    0.5213 H   0  0  0  0  0  0  0  0  0  0  0  0
   -1.0375   -0.0132   -2.1266 H   0  0  0  0  0  0  0  0  0  0  0  0
   -0.7983   -1.6972   -1.6931 H   0  0  0  0  0  0  0  0  0  0  0  0
    1.2322   -1.4715   -0.8270 H   0  0  0  0  0  0  0  0  0  0  0  0
    1.1966   -0.2453   -2.2367 H   0  0  0  0  0  0  0  0  0  0  0  0
    0.8729   -0.8912    1.1807 H   0  0  0  0  0  0  0  0  0  0  0  0
    1.4050    2.0601    1.8595 H   0  0  0  0  0  0  0  0  0  0  0  0
    1.2947    0.7118    3.0865 H   0  0  0  0  0  0  0  0  0  0  0  0
    2.8628   -0.5438    1.7390 H   0  0  0  0  0  0  0  0  0  0  0  0
    3.6056    1.1406    2.0170 H   0  0  0  0  0  0  0  0  0  0  0  0
    2.7614    1.9994    0.0970 H   0  0  0  0  0  0  0  0  0  0  0  0
    0.5758    2.6628   -0.0444 H   0  0  0  0  0  0  0  0  0  0  0  0
   -0.3710    1.6723   -1.3018 H   0  0  0  0  0  0  0  0  0  0  0  0
    1.2730    2.2326   -1.6057 H   0  0  0  0  0  0  0  0  0  0  0  0
   -4.2827   -0.3131   -1.7929 H   0  0  0  0  0  0  0  0  0  0  0  0
   -2.9193    0.7722   -2.1084 H   0  0  0  0  0  0  0  0  0  0  0  0
   -2.7738   -1.0601   -2.3416 H   0  0  0  0  0  0  0  0  0  0  0  0
    3.7206    0.9331   -1.7579 H   0  0  0  0  0  0  0  0  0  0  0  0
    5.1477    0.5202    0.8661 H   0  0  0  0  0  0  0  0  0  0  0  0
    5.0614    2.0448   -0.0553 H   0  0  0  0  0  0  0  0  0  0  0  0
    6.3162    0.9225   -1.8382 H   0  0  0  0  0  0  0  0  0  0  0  0
    7.3709   -1.0625   -1.4438 H   0  0  0  0  0  0  0  0  0  0  0  0
    6.6842   -1.2064    0.1828 H   0  0  0  0  0  0  0  0  0  0  0  0
    5.4119   -2.6272   -1.3271 H   0  0  0  0  0  0  0  0  0  0  0  0
    5.4105   -1.3962   -2.5935 H   0  0  0  0  0  0  0  0  0  0  0  0
    3.2626   -1.2854   -1.9354 H   0  0  0  0  0  0  0  0  0  0  0  0
    3.5064   -1.6104   -0.2087 H   0  0  0  0  0  0  0  0  0  0  0  0
   -3.5167   -1.9120    0.2291 H   0  0  0  0  0  0  0  0  0  0  0  0
   -3.5548   -1.5639   -1.5137 H   0  0  0  0  0  0  0  0  0  0  0  0
   -5.7736   -1.7244   -0.2713 H   0  0  0  0  0  0  0  0  0  0  0  0
   -5.6144   -0.3935   -1.4300 H   0  0  0  0  0  0  0  0  0  0  0  0
   -5.6898   -0.4086    1.6376 H   0  0  0  0  0  0  0  0  0  0  0  0
   -7.0989    1.1798    1.2360 H   0  0  0  0  0  0  0  0  0  0  0  0
   -4.7678    2.1059    0.1264 H   0  0  0  0  0  0  0  0  0  0  0  0
   -4.8090    1.7416    1.8600 H   0  0  0  0  0  0  0  0  0  0  0  0
   -2.5514    1.7859    0.8850 H   0  0  0  0  0  0  0  0  0  0  0  0
   -3.7376   -0.7740    2.1091 H   0  0  0  0  0  0  0  0  0  0  0  0
   -3.1103    0.6288    2.9928 H   0  0  0  0  0  0  0  0  0  0  0  0
   -1.1139   -0.4411    3.0878 H   0  0  0  0  0  0  0  0  0  0  0  0
   -1.6543   -1.7807    2.0478 H   0  0  0  0  0  0  0  0  0  0  0  0
   -0.6989    0.9933    1.1975 H   0  0  0  0  0  0  0  0  0  0  0  0
   -1.3819   -1.5226   -0.3950 H   0  0  0  0  0  0  0  0  0  0  0  0
   -0.8992    1.2179   -1.6922 H   0  0  0  0  0  0  0  0  0  0  0  0
   -1.0476   -0.3960   -2.3948 H   0  0  0  0  0  0  0  0  0  0  0  0
    0.9135   -1.2186   -1.5827 H   0  0  0  0  0  0  0  0  0  0  0  0
    1.2317    0.4574   -2.2837 H   0  0  0  0  0  0  0  0  0  0  0  0
    0.6055   -1.6753    0.4630 H   0  0  0  0  0  0  0  0  0  0  0  0
    1.5652    0.3368    2.5846 H   0  0  0  0  0  0  0  0  0  0  0  0
    1.1737   -1.3617    2.8727 H   0  0  0  0  0  0  0  0  0  0  0  0
    2.7320   -2.1015    1.2456 H   0  0  0  0  0  0  0  0  0  0  0  0
    3.5787   -0.7402    2.1596 H   0  0  0  0  0  0  0  0  0  0  0  0
    3.3068    0.7633    0.5149 H   0  0  0  0  0  0  0  0  0  0  0  0
    1.1274    1.8770    1.3284 H   0  0  0  0  0  0  0  0  0  0  0  0
    0.2303    2.0953   -0.2418 H   0  0  0  0  0  0  0  0  0  0  0  0
    1.9888    2.2551   -0.1613 H   0  0  0  0  0  0  0  0  0  0  0  0
   -4.2508    1.1160   -1.5809 H   0  0  0  0  0  0  0  0  0  0  0  0
   -2.7451    2.0278   -1.3792 H   0  0  0  0  0  0  0  0  0  0  0  0
   -2.8453    0.5625   -2.5074 H   0  0  0  0  0  0  0  0  0  0  0  0
    3.0577   -1.5922   -1.4115 H   0  0  0  0  0  0  0  0  0  0  0  0
    3.4127   -0.0544   -3.0128 H   0  0  0  0  0  0  0  0  0  0  0  0
    3.4188    1.2294   -1.7710 H   0  0  0  0  0  0  0  0  0  0  0  0
    5.7714   -0.2474   -2.7301 H   0  0  0  0  0  0  0  0  0  0  0  0
    5.1934    1.7372   -0.5898 H   0  0  0  0  0  0  0  0  0  0  0  0
    6.8786    1.3375   -1.2156 H   0  0  0  0  0  0  0  0  0  0  0  0
    5.7694    0.0825    0.9901 H   0  0  0  0  0  0  0  0  0  0  0  0
    6.9110   -0.6582   -0.1463 H   0  0  0  0  0  0  0  0  0  0  0  0
    5.3597   -1.7457   -1.4126 H   0  0  0  0  0  0  0  0  0  0  0  0
    4.8487   -2.0783    0.2460 H   0  0  0  0  0  0  0  0  0  0  0  0
   -2.7941   -1.9256    1.3235 H   0  0  0  0  0  0  0  0  0  0  0  0
   -2.9567   -2.5863   -0.3226 H   0  0  0  0  0  0  0  0  0  0  0  0
   -4.9711   -2.7686    1.1750 H   0  0  0  0  0  0  0  0  0  0  0  0
   -5.3338   -1.8807   -0.4068 H   0  0  0  0  0  0  0  0  0  0  0  0
   -4.5268   -0.6042    2.2108 H   0  0  0  0  0  0  0  0  0  0  0  0
   -6.6259   -0.2687    2.6196 H   0  0  0  0  0  0  0  0  0  0  0  0
   -5.5850    0.2161   -0.5411 H   0  0  0  0  0  0  0  0  0  0  0  0
   -5.5081    1.4301    0.8407 H   0  0  0  0  0  0  0  0  0  0  0  0
   -3.5239    1.5135   -0.6054 H   0  0  0  0  0  0  0  0  0  0  0  0
   -2.7093    0.5340    2.1692 H   0  0  0  0  0  0  0  0  0  0  0  0
   -3.6933    2.0543    1.8346 H   0  0  0  0  0  0  0  0  0  0  0  0
   -2.0127    2.9522    0.5191 H   0  0  0  0  0  0  0  0  0  0  0  0
   -1.1209    2.2577    1.8839 H   0  0  0  0  0  0  0  0  0  0  0  0
   -1.0938    1.5511   -0.9895 H   0  0  0  0  0  0  0  0  0  0  0  0
   -1.2649   -0.6379    1.1064 H   0  0  0  0  0  0  0  0  0  0  0  0
   -0.9398   -1.2869   -1.8787 H   0  0  0  0  0  0  0  0  0  0  0  0
   -0.7913   -2.2651   -0.4270 H   0  0  0  0  0  0  0  0  0  0  0  0
    1.3158   -1.6515   -1.5062 H   0  0  0  0  0  0  0  0  0  0  0  0
    1.1306   -1.3846    0.3329 H   0  0  0  0  0  0  0  0  0  0  0  0
    0.5616    0.3294    1.2955 H   0  0  0  0  0  0  0  0  0  0  0  0
    1.2900    2.9520   -0.1352 H   0  0  0  0  0  0  0  0  0  0  0  0
    0.9894    2.7361    1.6539 H   0  0  0  0  0  0  0  0  0  0  0  0
    2.7206    0.9607    1.6416 H   0  0  0  0  0  0  0  0  0  0  0  0
    3.4164    2.4348    0.7573 H   0  0  0  0  0  0  0  0  0  0  0  0
    2.8317    1.6976   -1.2798 H   0  0  0  0  0  0  0  0  0  0  0  0
    0.5803    2.0816   -2.0224 H   0  0  0  0  0  0  0  0  0  0  0  0
   -0.1697    0.4933   -2.4644 H   0  0  0  0  0  0  0  0  0  0  0  0
    1.5308    0.8225   -2.8230 H   0  0  0  0  0  0  0  0  0  0  0  0
   -4.2096   -0.4553   -1.8897 H   0  0  0  0  0  0  0  0  0  0  0  0
   -2.5352    0.1263   -2.3525 H   0  0  0  0  0  0  0  0  0  0  0  0
   -2.9294   -1.6662   -2.1003 H   0  0  0  0  0  0  0  0  0  0  0  0
    3.8591   -0.3391   -1.7690 H   0  0  0  0  0  0  0  0  0  0  0  0
    4.9874    1.1688    0.6389 H   0  0  0  0  0  0  0  0  0  0  0  0
    4.9479    1.7175   -1.0774 H   0  0  0  0  0  0  0  0  0  0  0  0
    6.2529   -0.3477   -1.5395 H   0  0  0  0  0  0  0  0  0  0  0  0
    7.2697   -1.3048    0.4746 H   0  0  0  0  0  0  0  0  0  0  0  0
    6.0879   -0.2537    1.4199 H   0  0  0  0  0  0  0  0  0  0  0  0
    5.2738   -2.6978    0.9314 H   0  0  0  0  0  0  0  0  0  0  0  0
    5.4709   -2.2734   -0.7753 H   0  0  0  0  0  0  0  0  0  0  0  0
    3.2832   -2.1635   -0.2998 H   0  0  0  0  0  0  0  0  0  0  0  0
    3.3762   -1.1470    1.1456 H   0  0  0  0  0  0  0  0  0  0  0  0
  1  2  1  0
  2  3  1  0
  3  4  1  0
  3  5  1  0
  5  6  1  0
  6  7  1  0
  7  8  1  0
  8  9  1  0
  9 10  1  0
  1 11  1  0
  6 11  1  0
 10 11  1  0
 10 12  1  0
 12 13  1  0
 13 14  1  0
  9 15  1  0
 14 15  1  0
 15 16  1  0
 16 17  1  0
 14 18  1  0
 17 18  1  0
 14 19  1  6
 11 20  1  6
 18 21  1  0
 21 22  1  0
 22 23  1  0
 24 23  1  0
 24 25  1  0
 21 26  1  0
 25 26  1  0
 27 28  1  0
 28 29  1  0
 29 30  1  0
 29 31  1  0
 31 32  1  0
 32 33  1  0
 33 34  1  0
 34 35  1  0
 35 36  1  0
 27 37  1  0
 32 37  1  0
 36 37  1  0
 36 38  1  0
 38 39  1  0
 39 40  1  0
 35 41  1  0
 40 41  1  0
 41 42  1  0
 42 43  1  0
 40 44  1  0
 43 44  1  0
 40 45  1  6
 37 46  1  6
 44 47  1  0
 47 48  1  0
 48 49  1  0
 50 49  1  0
 50 51  1  0
 47 52  1  0
 51 52  1  0
 53 54  1  0
 54 55  1  0
 55 56  1  0
 55 57  1  0
 57 58  1  0
 58 59  1  0
 59 60  1  0
 60 61  1  0
 61 62  1  0
 53 63  1  0
 58 63  1  0
 62 63  1  0
 62 64  1  0
 64 65  1  0
 65 66  1  0
 61 67  1  0
 66 67  1  0
 67 68  1  0
 68 69  1  0
 66 70  1  0
 69 70  1  0
 66 71  1  1
 63 72  1  6
 70 73  1  0
 73 74  1  0
 74 75  1  0
 76 75  1  0
 76 77  1  0
 73 78  1  0
 77 78  1  0
 79 80  1  0
 80 81  1  0
 81 82  1  0
 81 83  1  0
 83 84  1  0
 84 85  1  0
 85 86  1  0
 86 87  1  0
 87 88  1  0
 79 89  1  0
 84 89  1  0
 88 89  1  0
 88 90  1  0
 90 91  1  0
 91 92  1  0
 87 93  1  0
 92 93  1  0
 93 94  1  0
 94 95  1  0
 92 96  1  0
 95 96  1  0
 92 97  1  6
 89 98  1  6
 96 99  1  0
 99100  1  0
100101  1  0
102101  1  0
102103  1  0
 99104  1  0
103104  1  0
  1105  1  0
  1106  1  0
  2107  1  0
  2108  1  0
  3109  1  1
  4110  1  0
  5111  1  0
  5112  1  0
  6113  1  0
  7114  1  0
  7115  1  0
  8116  1  0
  8117  1  0
  9118  1  6
 10119  1  1
 12120  1  0
 12121  1  0
 13122  1  0
 13123  1  0
 15124  1  1
 16125  1  0
 16126  1  0
 17127  1  0
 17128  1  0
 18129  1  0
 19130  1  0
 19131  1  0
 19132  1  0
 20133  1  0
 20134  1  0
 20135  1  0
 21136  1  0
 22137  1  0
 22138  1  0
 23139  1  0
 24140  1  0
 24141  1  0
 25142  1  0
 25143  1  0
 26144  1  0
 26145  1  0
 27146  1  0
 27147  1  0
 28148  1  0
 28149  1  0
 29150  1  1
 30151  1  0
 31152  1  0
 31153  1  0
 32154  1  0
 33155  1  0
 33156  1  0
 34157  1  0
 34158  1  0
 35159  1  6
 36160  1  1
 38161  1  0
 38162  1  0
 39163  1  0
 39164  1  0
 41165  1  1
 42166  1  0
 42167  1  0
 43168  1  0
 43169  1  0
 44170  1  0
 45171  1  0
 45172  1  0
 45173  1  0
 46174  1  0
 46175  1  0
 46176  1  0
 47177  1  0
 48178  1  0
 48179  1  0
 49180  1  0
 50181  1  0
 50182  1  0
 51183  1  0
 51184  1  0
 52185  1  0
 52186  1  0
 53187  1  0
 53188  1  0
 54189  1  0
 54190  1  0
 55191  1  1
 56192  1  0
 57193  1  0
 57194  1  0
 58195  1  0
 59196  1  0
 59197  1  0
 60198  1  0
 60199  1  0
 61200  1  1
 62201  1  6
 64202  1  0
 64203  1  0
 65204  1  0
 65205  1  0
 67206  1  6
 68207  1  0
 68208  1  0
 69209  1  0
 69210  1  0
 70211  1  1
 71212  1  0
 71213  1  0
 71214  1  0
 72215  1  0
 72216  1  0
 72217  1  0
 73218  1  6
 74219  1  0
 74220  1  0
 75221  1  0
 76222  1  0
 76223  1  0
 77224  1  0
 77225  1  0
 78226  1  0
 78227  1  0
 79228  1  0
 79229  1  0
 80230  1  0
 80231  1  0
 81232  1  1
 82233  1  0
 83234  1  0
 83235  1  0
 84236  1  6
 85237  1  0
 85238  1  0
 86239  1  0
 86240  1  0
 87241  1  6
 88242  1  1
 90243  1  0
 90244  1  0
 91245  1  0
 91246  1  0
 93247  1  1
 94248  1  0
 94249  1  0
 95250  1  0
 95251  1  0
 96252  1  0
 97253  1  0
 97254  1  0
 97255  1  0
 98256  1  0
 98257  1  0
 98258  1  0
 99259  1  0
100260  1  0
100261  1  0
101262  1  0
102263  1  0
102264  1  0
103265  1  0
103266  1  0
104267  1  0
104268  1  0
M  END
>  <PDBID>  (1) 
3RUK

>  <PDB ID>  (1) 
3RUK

>  <Generic Name>  (1) 
Abiraterone

>  <Brand Name>  (1) 
Zytiga

>  <DrugBank ID>  (1) 
DB05812

>  <ATC Codes>  (1) 
L02BX03

>  <Ligand ID>  (1) 
AER

>  <Target Name>  (1) 
Steroid 17-alpha-hydroxylase/17,20 lyase

>  <UniProt ID>  (1) 
P05093

>  <PDB ID.1>  (1) 
3RUK

>  <Seq. Identity>  (1) 
97%

$$$$
