PDB_DB09073_05
     RDKit          3D

 80 84  0  0  0  0  0  0  0  0999 V2000
   -5.8587   -0.6124   -2.5132 O   0  0  0  0  0  0  0  0  0  0  0  0
   -5.6100   -0.2125   -1.2093 C   0  0  0  0  0  0  0  0  0  0  0  0
   -6.8731    0.1219   -0.5030 C   0  0  0  0  0  0  0  0  0  0  0  0
   -4.7511   -1.2527   -0.5370 C   0  0  0  0  0  0  0  0  0  0  0  0
   -3.4575   -1.3182   -1.2827 C   0  0  2  0  0  0  0  0  0  0  0  0
   -3.5894   -2.2735   -2.4341 C   0  0  0  0  0  0  0  0  0  0  0  0
   -2.2982   -1.7605   -0.3965 C   0  0  1  0  0  0  0  0  0  0  0  0
   -1.0714   -1.7639   -1.2513 C   0  0  0  0  0  0  0  0  0  0  0  0
   -0.2447   -0.5938   -1.0994 N   0  0  0  0  0  0  0  0  0  0  0  0
    0.1314   -0.5239    0.2809 C   0  0  0  0  0  0  0  0  0  0  0  0
   -1.0349   -0.1684    1.0385 N   0  0  0  0  0  0  0  0  0  0  0  0
   -2.1740   -0.9858    0.8702 C   0  0  1  0  0  0  0  0  0  0  0  0
   -3.3538   -0.1815    1.0222 N   0  0  0  0  0  0  0  0  0  0  0  0
   -3.2663    1.0446    1.6298 C   0  0  0  0  0  0  0  0  0  0  0  0
   -4.3549    1.6008    2.4243 C   0  0  0  0  0  0  0  0  0  0  0  0
   -4.7628    2.9376    1.8167 C   0  0  0  0  0  0  0  0  0  0  0  0
   -4.0821    3.0436    0.4766 C   0  0  0  0  0  0  0  0  0  0  0  0
   -2.9202    2.1242    0.5939 C   0  0  0  0  0  0  0  0  0  0  0  0
   -4.5213   -0.9322    0.9251 C   0  0  0  0  0  0  0  0  0  0  0  0
   -4.2837   -2.1895    1.5510 O   0  0  0  0  0  0  0  0  0  0  0  0
    1.0726    0.5946    0.4177 N   0  0  0  0  0  0  0  0  0  0  0  0
    2.2165    0.2814   -0.4588 C   0  0  0  0  0  0  0  0  0  0  0  0
    3.0338    1.4398   -0.4994 N   0  0  0  0  0  0  0  0  0  0  0  0
    4.3989    1.1962   -0.9223 C   0  0  0  0  0  0  0  0  0  0  0  0
    4.9660    0.2044    0.0651 C   0  0  1  0  0  0  0  0  0  0  0  0
    4.3002   -1.1121   -0.2216 C   0  0  0  0  0  0  0  0  0  0  0  0
    2.8347   -0.9608    0.0621 C   0  0  0  0  0  0  0  0  0  0  0  0
    6.3649    0.0867    0.0629 N   0  0  0  0  0  0  0  0  0  0  0  0
    7.1075    1.2370    0.4111 C   0  0  0  0  0  0  0  0  0  0  0  0
    8.4179    1.2211   -0.3539 C   0  0  0  0  0  0  0  0  0  0  0  0
    9.1134   -0.0097   -0.0548 N   0  0  0  0  0  0  0  0  0  0  0  0
    8.3282   -1.1747   -0.3950 C   0  0  0  0  0  0  0  0  0  0  0  0
    6.9488   -0.7700   -0.9037 C   0  0  0  0  0  0  0  0  0  0  0  0
   -7.4828    0.7597   -1.1860 H   0  0  0  0  0  0  0  0  0  0  0  0
   -6.7007    0.7681    0.3996 H   0  0  0  0  0  0  0  0  0  0  0  0
   -7.4473   -0.7712   -0.2731 H   0  0  0  0  0  0  0  0  0  0  0  0
   -3.2963   -1.7517   -3.3955 H   0  0  0  0  0  0  0  0  0  0  0  0
   -4.6331   -2.6057   -2.6172 H   0  0  0  0  0  0  0  0  0  0  0  0
   -3.0021   -3.2166   -2.3115 H   0  0  0  0  0  0  0  0  0  0  0  0
   -1.3175   -1.8491   -2.3315 H   0  0  0  0  0  0  0  0  0  0  0  0
   -2.3542    1.0235    2.3139 H   0  0  0  0  0  0  0  0  0  0  0  0
   -4.0762    1.8547    3.4944 H   0  0  0  0  0  0  0  0  0  0  0  0
   -5.2829    1.0215    2.5369 H   0  0  0  0  0  0  0  0  0  0  0  0
   -5.8637    3.0208    1.6817 H   0  0  0  0  0  0  0  0  0  0  0  0
   -4.4366    3.8041    2.4210 H   0  0  0  0  0  0  0  0  0  0  0  0
   -3.7070    4.0970    0.3153 H   0  0  0  0  0  0  0  0  0  0  0  0
   -4.7552    2.8387   -0.3721 H   0  0  0  0  0  0  0  0  0  0  0  0
   -2.5911    1.6684   -0.3559 H   0  0  0  0  0  0  0  0  0  0  0  0
   -2.0487    2.7417    0.9424 H   0  0  0  0  0  0  0  0  0  0  0  0
    0.6166    1.4938    0.1569 H   0  0  0  0  0  0  0  0  0  0  0  0
    4.9153    2.1530   -0.9372 H   0  0  0  0  0  0  0  0  0  0  0  0
    4.3822   -1.3851   -1.3137 H   0  0  0  0  0  0  0  0  0  0  0  0
    2.3282   -1.8316   -0.4357 H   0  0  0  0  0  0  0  0  0  0  0  0
    6.6002    2.2027    0.2280 H   0  0  0  0  0  0  0  0  0  0  0  0
    7.3617    1.2211    1.4966 H   0  0  0  0  0  0  0  0  0  0  0  0
    9.0326    2.0512    0.0668 H   0  0  0  0  0  0  0  0  0  0  0  0
    8.2528    1.3803   -1.4297 H   0  0  0  0  0  0  0  0  0  0  0  0
    9.3868    0.0256    0.9495 H   0  0  0  0  0  0  0  0  0  0  0  0
    8.1685   -1.7316    0.5676 H   0  0  0  0  0  0  0  0  0  0  0  0
    8.8399   -1.8590   -1.0749 H   0  0  0  0  0  0  0  0  0  0  0  0
    6.3566   -1.7211   -0.9289 H   0  0  0  0  0  0  0  0  0  0  0  0
    7.0645   -0.3232   -1.9109 H   0  0  0  0  0  0  0  0  0  0  0  0
   -6.3192    0.0921   -3.0496 H   0  0  0  0  0  0  0  0  0  0  0  0
   -4.9548    0.7022   -1.3107 H   0  0  0  0  0  0  0  0  0  0  0  0
   -5.2643   -2.2594   -0.6048 H   0  0  0  0  0  0  0  0  0  0  0  0
   -3.1851   -0.2950   -1.6505 H   0  0  0  0  0  0  0  0  0  0  0  0
   -2.5161   -2.8378   -0.1772 H   0  0  0  0  0  0  0  0  0  0  0  0
   -0.4020   -2.6406   -1.0290 H   0  0  0  0  0  0  0  0  0  0  0  0
   -0.6928    0.2810   -1.4198 H   0  0  0  0  0  0  0  0  0  0  0  0
    0.6258   -1.4400    0.6037 H   0  0  0  0  0  0  0  0  0  0  0  0
   -0.7304   -0.1654    2.0496 H   0  0  0  0  0  0  0  0  0  0  0  0
   -2.1913   -1.7180    1.7303 H   0  0  0  0  0  0  0  0  0  0  0  0
   -5.4523   -0.5821    1.3310 H   0  0  0  0  0  0  0  0  0  0  0  0
   -5.1262   -2.6630    1.7107 H   0  0  0  0  0  0  0  0  0  0  0  0
    1.7496    0.1164   -1.4664 H   0  0  0  0  0  0  0  0  0  0  0  0
    3.1094    1.8176    0.4904 H   0  0  0  0  0  0  0  0  0  0  0  0
    4.3280    0.7137   -1.9295 H   0  0  0  0  0  0  0  0  0  0  0  0
    4.6061    0.5290    1.0759 H   0  0  0  0  0  0  0  0  0  0  0  0
    4.6972   -1.9560    0.3532 H   0  0  0  0  0  0  0  0  0  0  0  0
    2.6809   -1.1126    1.1518 H   0  0  0  0  0  0  0  0  0  0  0  0
  1  2  1  0
  2  3  1  0
  2  4  1  0
  4  5  1  0
  5  6  1  0
  5  7  1  0
  7  8  1  0
  8  9  1  0
  9 10  1  0
 10 11  1  0
  7 12  1  0
 11 12  1  0
 12 13  1  0
 13 14  1  0
 14 15  1  0
 15 16  1  0
 16 17  1  0
 14 18  1  0
 17 18  1  0
  4 19  1  0
 13 19  1  0
 19 20  1  0
 10 21  1  0
 21 22  1  0
 22 23  1  0
 23 24  1  0
 24 25  1  0
 25 26  1  0
 22 27  1  0
 26 27  1  0
 25 28  1  0
 28 29  1  0
 29 30  1  0
 30 31  1  0
 31 32  1  0
 28 33  1  0
 32 33  1  0
  3 34  1  0
  3 35  1  0
  3 36  1  0
  6 37  1  0
  6 38  1  0
  6 39  1  0
  8 40  1  0
 14 41  1  0
 15 42  1  0
 15 43  1  0
 16 44  1  0
 16 45  1  0
 17 46  1  0
 17 47  1  0
 18 48  1  0
 18 49  1  0
 21 50  1  0
 24 51  1  0
 26 52  1  0
 27 53  1  0
 29 54  1  0
 29 55  1  0
 30 56  1  0
 30 57  1  0
 31 58  1  0
 32 59  1  0
 32 60  1  0
 33 61  1  0
 33 62  1  0
  1 63  1  0
  2 64  1  0
  4 65  1  0
  5 66  1  6
  7 67  1  1
  8 68  1  0
  9 69  1  0
 10 70  1  0
 11 71  1  0
 12 72  1  1
 19 73  1  0
 20 74  1  0
 22 75  1  0
 23 76  1  0
 24 77  1  0
 25 78  1  1
 26 79  1  0
 27 80  1  0
M  END
>  <PDBID>  (1) 
5L2I

>  <PDB ID>  (1) 
5L2I

>  <Generic Name>  (1) 
Palbociclib

>  <Brand Name>  (1) 
Ibrance

>  <DrugBank ID>  (1) 
DB09073

>  <ATC Codes>  (1) 
L01XE33

>  <Ligand ID>  (1) 
LQQ

>  <Target Name>  (1) 
Cyclin-dependent kinase 6

>  <UniProt ID>  (1) 
Q00534

>  <PDB ID.1>  (1) 
5L2I

>  <Seq. Identity>  (1) 
100%

$$$$
