PDB_DB00390_03
     RDKit          3D

246260  0  0  0  0  0  0  0  0999 V2000
   -3.2674   -1.2244   -0.5082 C   0  0  0  0  0  0  0  0  0  0  0  0
   -1.8652   -0.8898   -0.7661 C   0  0  0  0  0  0  0  0  0  0  0  0
   -1.1083   -0.0578    0.1890 C   0  0  2  0  0  0  0  0  0  0  0  0
   -0.3228   -0.9088    0.9672 O   0  0  0  0  0  0  0  0  0  0  0  0
   -1.9109    0.8037    1.0949 C   0  0  0  0  0  0  0  0  0  0  0  0
   -3.3781    0.8284    0.7831 C   0  0  1  0  0  0  0  0  0  0  0  0
   -3.6116    1.7775   -0.3660 C   0  0  0  0  0  0  0  0  0  0  0  0
   -5.0313    1.6609   -0.8813 C   0  0  0  0  0  0  0  0  0  0  0  0
   -5.9129    0.9841    0.1487 C   0  0  2  0  0  0  0  0  0  0  0  0
   -5.4362   -0.4366    0.2593 C   0  0  1  0  0  0  0  0  0  0  0  0
   -3.9770   -0.5183    0.6106 C   0  0  1  0  0  0  0  0  0  0  0  0
   -6.3520   -1.1320    1.2281 C   0  0  0  0  0  0  0  0  0  0  0  0
   -7.7454   -1.1199    0.5895 C   0  0  1  0  0  0  0  0  0  0  0  0
   -8.5559   -1.9798    1.3190 O   0  0  0  0  0  0  0  0  0  0  0  0
   -8.3106    0.2870    0.5269 C   0  0  1  0  0  0  0  0  0  0  0  0
   -7.3231    1.0965   -0.3038 C   0  0  1  0  0  0  0  0  0  0  0  0
   -7.6912    2.4572   -0.1860 O   0  0  0  0  0  0  0  0  0  0  0  0
   -7.5863    0.6818   -1.7062 C   0  0  0  0  0  0  0  0  0  0  0  0
   -9.0428    0.2649   -1.7249 C   0  0  0  0  0  0  0  0  0  0  0  0
   -9.5381    0.2524   -0.3110 C   0  0  2  0  0  0  0  0  0  0  0  0
   -8.5096    0.8835    1.8718 C   0  0  0  0  0  0  0  0  0  0  0  0
   -3.7571   -1.2919    1.8965 C   0  0  0  0  0  0  0  0  0  0  0  0
    1.0192   -0.7773    0.7979 C   0  0  1  0  0  0  0  0  0  0  0  0
    6.0140   -0.6092   -0.0062 C   0  0  2  0  0  0  0  0  0  0  0  0
   10.4071    0.2125   -0.5602 C   0  0  2  0  0  0  0  0  0  0  0  0
  -10.5267    1.3049    0.0384 C   0  0  1  0  0  0  0  0  0  0  0  0
  -11.6619    1.4076   -0.9632 C   0  0  0  0  0  0  0  0  0  0  0  0
  -12.2833    0.1948   -0.8189 O   0  0  0  0  0  0  0  0  0  0  0  0
  -11.3327    0.7609    1.2363 C   0  0  0  0  0  0  0  0  0  0  0  0
  -12.5747    0.2062    0.5571 C   0  0  0  0  0  0  0  0  0  0  0  0
  -13.6215    1.0780    0.8476 O   0  0  0  0  0  0  0  0  0  0  0  0
    1.7353   -0.3837    2.0414 C   0  0  0  0  0  0  0  0  0  0  0  0
    6.5032   -0.7957   -1.4160 C   0  0  0  0  0  0  0  0  0  0  0  0
   11.0779    0.2582    0.7918 C   0  0  0  0  0  0  0  0  0  0  0  0
    3.2150   -0.3176    1.9373 C   0  0  2  0  0  0  0  0  0  0  0  0
    3.5940    1.0473    1.9502 O   0  0  0  0  0  0  0  0  0  0  0  0
    7.3642    0.2961   -1.9483 C   0  0  2  0  0  0  0  0  0  0  0  0
    8.2460   -0.2369   -2.8865 O   0  0  0  0  0  0  0  0  0  0  0  0
   12.5711    0.1451    0.6412 C   0  0  2  0  0  0  0  0  0  0  0  0
   13.0454    1.3508    0.1007 O   0  0  0  0  0  0  0  0  0  0  0  0
    3.8292   -0.9653    0.7373 C   0  0  2  0  0  0  0  0  0  0  0  0
    4.7177   -0.1216    0.0728 O   0  0  0  0  0  0  0  0  0  0  0  0
    8.2280    0.9658   -0.8768 C   0  0  2  0  0  0  0  0  0  0  0  0
    9.0461   -0.0167   -0.3759 O   0  0  0  0  0  0  0  0  0  0  0  0
   12.9884   -0.9749   -0.2813 C   0  0  2  0  0  0  0  0  0  0  0  0
   14.3624   -0.8953   -0.4491 O   0  0  0  0  0  0  0  0  0  0  0  0
    2.8374   -1.4567   -0.2887 C   0  0  2  0  0  0  0  0  0  0  0  0
    1.6401   -1.9237    0.3060 O   0  0  0  0  0  0  0  0  0  0  0  0
    7.2536    1.3561    0.2182 C   0  0  2  0  0  0  0  0  0  0  0  0
    6.8000    0.1996    0.7852 O   0  0  0  0  0  0  0  0  0  0  0  0
   12.2242   -0.8033   -1.5766 C   0  0  2  0  0  0  0  0  0  0  0  0
   10.8811   -0.8980   -1.2775 O   0  0  0  0  0  0  0  0  0  0  0  0
    3.4542   -2.5454   -1.1383 C   0  0  0  0  0  0  0  0  0  0  0  0
    6.2026    2.3081   -0.2508 C   0  0  0  0  0  0  0  0  0  0  0  0
   12.5563   -1.9052   -2.5585 C   0  0  0  0  0  0  0  0  0  0  0  0
   -3.2674   -1.2244   -0.5082 C   0  0  0  0  0  0  0  0  0  0  0  0
   -1.8652   -0.8898   -0.7661 C   0  0  0  0  0  0  0  0  0  0  0  0
   -1.1083   -0.0578    0.1890 C   0  0  2  0  0  0  0  0  0  0  0  0
   -0.3228   -0.9088    0.9672 O   0  0  0  0  0  0  0  0  0  0  0  0
   -1.9109    0.8037    1.0949 C   0  0  0  0  0  0  0  0  0  0  0  0
   -3.3781    0.8284    0.7831 C   0  0  1  0  0  0  0  0  0  0  0  0
   -3.6116    1.7775   -0.3660 C   0  0  0  0  0  0  0  0  0  0  0  0
   -5.0313    1.6609   -0.8813 C   0  0  0  0  0  0  0  0  0  0  0  0
   -5.9129    0.9841    0.1487 C   0  0  2  0  0  0  0  0  0  0  0  0
   -5.4362   -0.4366    0.2593 C   0  0  1  0  0  0  0  0  0  0  0  0
   -3.9770   -0.5183    0.6106 C   0  0  1  0  0  0  0  0  0  0  0  0
   -6.3520   -1.1320    1.2281 C   0  0  0  0  0  0  0  0  0  0  0  0
   -7.7454   -1.1199    0.5895 C   0  0  1  0  0  0  0  0  0  0  0  0
   -8.5559   -1.9798    1.3190 O   0  0  0  0  0  0  0  0  0  0  0  0
   -8.3106    0.2870    0.5269 C   0  0  1  0  0  0  0  0  0  0  0  0
   -7.3231    1.0965   -0.3038 C   0  0  1  0  0  0  0  0  0  0  0  0
   -7.6912    2.4572   -0.1860 O   0  0  0  0  0  0  0  0  0  0  0  0
   -7.5863    0.6818   -1.7062 C   0  0  0  0  0  0  0  0  0  0  0  0
   -9.0428    0.2649   -1.7249 C   0  0  0  0  0  0  0  0  0  0  0  0
   -9.5381    0.2524   -0.3110 C   0  0  2  0  0  0  0  0  0  0  0  0
   -8.5096    0.8835    1.8718 C   0  0  0  0  0  0  0  0  0  0  0  0
   -3.7571   -1.2919    1.8965 C   0  0  0  0  0  0  0  0  0  0  0  0
    1.0192   -0.7773    0.7979 C   0  0  1  0  0  0  0  0  0  0  0  0
    6.0140   -0.6092   -0.0062 C   0  0  2  0  0  0  0  0  0  0  0  0
   10.4071    0.2125   -0.5602 C   0  0  2  0  0  0  0  0  0  0  0  0
  -10.5267    1.3049    0.0384 C   0  0  1  0  0  0  0  0  0  0  0  0
  -11.6619    1.4076   -0.9632 C   0  0  0  0  0  0  0  0  0  0  0  0
  -12.2833    0.1948   -0.8189 O   0  0  0  0  0  0  0  0  0  0  0  0
  -11.3327    0.7609    1.2363 C   0  0  0  0  0  0  0  0  0  0  0  0
  -12.5747    0.2062    0.5571 C   0  0  0  0  0  0  0  0  0  0  0  0
  -13.6215    1.0780    0.8476 O   0  0  0  0  0  0  0  0  0  0  0  0
    1.7353   -0.3837    2.0414 C   0  0  0  0  0  0  0  0  0  0  0  0
    6.5032   -0.7957   -1.4160 C   0  0  0  0  0  0  0  0  0  0  0  0
   11.0779    0.2582    0.7918 C   0  0  0  0  0  0  0  0  0  0  0  0
    3.2150   -0.3176    1.9373 C   0  0  2  0  0  0  0  0  0  0  0  0
    3.5940    1.0473    1.9502 O   0  0  0  0  0  0  0  0  0  0  0  0
    7.3642    0.2961   -1.9483 C   0  0  2  0  0  0  0  0  0  0  0  0
    8.2460   -0.2369   -2.8865 O   0  0  0  0  0  0  0  0  0  0  0  0
   12.5711    0.1451    0.6412 C   0  0  2  0  0  0  0  0  0  0  0  0
   13.0454    1.3508    0.1007 O   0  0  0  0  0  0  0  0  0  0  0  0
    3.8292   -0.9653    0.7373 C   0  0  2  0  0  0  0  0  0  0  0  0
    4.7177   -0.1216    0.0728 O   0  0  0  0  0  0  0  0  0  0  0  0
    8.2280    0.9658   -0.8768 C   0  0  2  0  0  0  0  0  0  0  0  0
    9.0461   -0.0167   -0.3759 O   0  0  0  0  0  0  0  0  0  0  0  0
   12.9884   -0.9749   -0.2813 C   0  0  2  0  0  0  0  0  0  0  0  0
   14.3624   -0.8953   -0.4491 O   0  0  0  0  0  0  0  0  0  0  0  0
    2.8374   -1.4567   -0.2887 C   0  0  2  0  0  0  0  0  0  0  0  0
    1.6401   -1.9237    0.3060 O   0  0  0  0  0  0  0  0  0  0  0  0
    7.2536    1.3561    0.2182 C   0  0  2  0  0  0  0  0  0  0  0  0
    6.8000    0.1996    0.7852 O   0  0  0  0  0  0  0  0  0  0  0  0
   12.2242   -0.8033   -1.5766 C   0  0  2  0  0  0  0  0  0  0  0  0
   10.8811   -0.8980   -1.2775 O   0  0  0  0  0  0  0  0  0  0  0  0
    3.4542   -2.5454   -1.1383 C   0  0  0  0  0  0  0  0  0  0  0  0
    6.2026    2.3081   -0.2508 C   0  0  0  0  0  0  0  0  0  0  0  0
   12.5563   -1.9052   -2.5585 C   0  0  0  0  0  0  0  0  0  0  0  0
   -3.9169   -1.0779   -1.4343 H   0  0  0  0  0  0  0  0  0  0  0  0
   -3.3350   -2.3370   -0.3444 H   0  0  0  0  0  0  0  0  0  0  0  0
   -1.8342   -0.3610   -1.7739 H   0  0  0  0  0  0  0  0  0  0  0  0
   -1.2935   -1.8446   -1.0126 H   0  0  0  0  0  0  0  0  0  0  0  0
   -0.3456    0.5553   -0.3852 H   0  0  0  0  0  0  0  0  0  0  0  0
   -1.5418    1.8482    1.0170 H   0  0  0  0  0  0  0  0  0  0  0  0
   -1.7933    0.5226    2.1669 H   0  0  0  0  0  0  0  0  0  0  0  0
   -3.8710    1.2987    1.6872 H   0  0  0  0  0  0  0  0  0  0  0  0
   -2.8459    1.7035   -1.1377 H   0  0  0  0  0  0  0  0  0  0  0  0
   -3.5351    2.8247    0.0400 H   0  0  0  0  0  0  0  0  0  0  0  0
   -5.4493    2.6499   -1.1732 H   0  0  0  0  0  0  0  0  0  0  0  0
   -5.0045    1.0320   -1.7836 H   0  0  0  0  0  0  0  0  0  0  0  0
   -5.8341    1.5314    1.1339 H   0  0  0  0  0  0  0  0  0  0  0  0
   -5.6489   -0.9043   -0.7471 H   0  0  0  0  0  0  0  0  0  0  0  0
   -6.1009   -2.2098    1.3512 H   0  0  0  0  0  0  0  0  0  0  0  0
   -6.4623   -0.5999    2.1954 H   0  0  0  0  0  0  0  0  0  0  0  0
   -7.6122   -1.4675   -0.4440 H   0  0  0  0  0  0  0  0  0  0  0  0
   -8.1447   -2.1564    2.2034 H   0  0  0  0  0  0  0  0  0  0  0  0
   -7.4990    2.9306   -1.0294 H   0  0  0  0  0  0  0  0  0  0  0  0
   -6.9161   -0.0749   -2.1099 H   0  0  0  0  0  0  0  0  0  0  0  0
   -7.5106    1.5619   -2.4109 H   0  0  0  0  0  0  0  0  0  0  0  0
   -9.6387    0.8240   -2.4414 H   0  0  0  0  0  0  0  0  0  0  0  0
   -9.0404   -0.7941   -2.0993 H   0  0  0  0  0  0  0  0  0  0  0  0
  -10.0021   -0.7838   -0.1219 H   0  0  0  0  0  0  0  0  0  0  0  0
   -9.2208    1.7215    1.9303 H   0  0  0  0  0  0  0  0  0  0  0  0
   -8.6816    0.1185    2.6788 H   0  0  0  0  0  0  0  0  0  0  0  0
   -7.5336    1.3697    2.2469 H   0  0  0  0  0  0  0  0  0  0  0  0
   -2.7025   -1.3152    2.2225 H   0  0  0  0  0  0  0  0  0  0  0  0
   -4.3066   -0.7968    2.7511 H   0  0  0  0  0  0  0  0  0  0  0  0
   -4.1257   -2.3169    1.8500 H   0  0  0  0  0  0  0  0  0  0  0  0
    1.1900    0.0318    0.0334 H   0  0  0  0  0  0  0  0  0  0  0  0
    6.0835   -1.6333    0.4841 H   0  0  0  0  0  0  0  0  0  0  0  0
   10.6283    1.1442   -1.0780 H   0  0  0  0  0  0  0  0  0  0  0  0
  -10.1517    2.3016    0.2322 H   0  0  0  0  0  0  0  0  0  0  0  0
  -12.3379    2.2218   -0.5705 H   0  0  0  0  0  0  0  0  0  0  0  0
  -11.3770    1.7123   -1.9604 H   0  0  0  0  0  0  0  0  0  0  0  0
  -11.5796    1.5724    1.9310 H   0  0  0  0  0  0  0  0  0  0  0  0
  -10.7922   -0.0525    1.7599 H   0  0  0  0  0  0  0  0  0  0  0  0
  -12.7484   -0.8106    0.9536 H   0  0  0  0  0  0  0  0  0  0  0  0
  -13.2870    1.9483    1.2325 H   0  0  0  0  0  0  0  0  0  0  0  0
    1.3264    0.6290    2.3310 H   0  0  0  0  0  0  0  0  0  0  0  0
    1.3866   -1.0502    2.8668 H   0  0  0  0  0  0  0  0  0  0  0  0
    5.5908   -0.8679   -2.0552 H   0  0  0  0  0  0  0  0  0  0  0  0
    7.0461   -1.7585   -1.5429 H   0  0  0  0  0  0  0  0  0  0  0  0
   10.6736   -0.5331    1.4858 H   0  0  0  0  0  0  0  0  0  0  0  0
   10.8870    1.2806    1.2298 H   0  0  0  0  0  0  0  0  0  0  0  0
    3.6232   -0.8172    2.8672 H   0  0  0  0  0  0  0  0  0  0  0  0
    3.9905    1.2917    2.8267 H   0  0  0  0  0  0  0  0  0  0  0  0
    6.7670    1.0629   -2.4977 H   0  0  0  0  0  0  0  0  0  0  0  0
    8.3621   -1.1928   -2.7297 H   0  0  0  0  0  0  0  0  0  0  0  0
   13.0451    0.0072    1.6402 H   0  0  0  0  0  0  0  0  0  0  0  0
   13.5928    1.8623    0.7578 H   0  0  0  0  0  0  0  0  0  0  0  0
    4.4038   -1.8712    1.0559 H   0  0  0  0  0  0  0  0  0  0  0  0
    8.7302    1.8080   -1.3539 H   0  0  0  0  0  0  0  0  0  0  0  0
   12.7426   -1.9679    0.1912 H   0  0  0  0  0  0  0  0  0  0  0  0
   14.8286   -1.4675    0.2106 H   0  0  0  0  0  0  0  0  0  0  0  0
    2.5286   -0.5705   -0.8812 H   0  0  0  0  0  0  0  0  0  0  0  0
    7.8337    1.8934    1.0173 H   0  0  0  0  0  0  0  0  0  0  0  0
   12.4524    0.2075   -1.9662 H   0  0  0  0  0  0  0  0  0  0  0  0
    4.4592   -2.8251   -0.7904 H   0  0  0  0  0  0  0  0  0  0  0  0
    2.7694   -3.4199   -1.2111 H   0  0  0  0  0  0  0  0  0  0  0  0
    3.5566   -2.1455   -2.1678 H   0  0  0  0  0  0  0  0  0  0  0  0
    5.6080    2.6298    0.6149 H   0  0  0  0  0  0  0  0  0  0  0  0
    6.7471    3.2343   -0.6029 H   0  0  0  0  0  0  0  0  0  0  0  0
    5.5975    1.9676   -1.0931 H   0  0  0  0  0  0  0  0  0  0  0  0
   12.8421   -1.4578   -3.5291 H   0  0  0  0  0  0  0  0  0  0  0  0
   13.4244   -2.4617   -2.1864 H   0  0  0  0  0  0  0  0  0  0  0  0
   11.7243   -2.6450   -2.6491 H   0  0  0  0  0  0  0  0  0  0  0  0
   -3.9169   -1.0779   -1.4343 H   0  0  0  0  0  0  0  0  0  0  0  0
   -3.3350   -2.3370   -0.3444 H   0  0  0  0  0  0  0  0  0  0  0  0
   -1.8342   -0.3610   -1.7739 H   0  0  0  0  0  0  0  0  0  0  0  0
   -1.2935   -1.8446   -1.0126 H   0  0  0  0  0  0  0  0  0  0  0  0
   -0.3456    0.5553   -0.3852 H   0  0  0  0  0  0  0  0  0  0  0  0
   -1.5418    1.8482    1.0170 H   0  0  0  0  0  0  0  0  0  0  0  0
   -1.7933    0.5226    2.1669 H   0  0  0  0  0  0  0  0  0  0  0  0
   -3.8710    1.2987    1.6872 H   0  0  0  0  0  0  0  0  0  0  0  0
   -2.8459    1.7035   -1.1377 H   0  0  0  0  0  0  0  0  0  0  0  0
   -3.5351    2.8247    0.0400 H   0  0  0  0  0  0  0  0  0  0  0  0
   -5.4493    2.6499   -1.1732 H   0  0  0  0  0  0  0  0  0  0  0  0
   -5.0045    1.0320   -1.7836 H   0  0  0  0  0  0  0  0  0  0  0  0
   -5.8341    1.5314    1.1339 H   0  0  0  0  0  0  0  0  0  0  0  0
   -5.6489   -0.9043   -0.7471 H   0  0  0  0  0  0  0  0  0  0  0  0
   -6.1009   -2.2098    1.3512 H   0  0  0  0  0  0  0  0  0  0  0  0
   -6.4623   -0.5999    2.1954 H   0  0  0  0  0  0  0  0  0  0  0  0
   -7.6122   -1.4675   -0.4440 H   0  0  0  0  0  0  0  0  0  0  0  0
   -8.1447   -2.1564    2.2034 H   0  0  0  0  0  0  0  0  0  0  0  0
   -7.4990    2.9306   -1.0294 H   0  0  0  0  0  0  0  0  0  0  0  0
   -6.9161   -0.0749   -2.1099 H   0  0  0  0  0  0  0  0  0  0  0  0
   -7.5106    1.5619   -2.4109 H   0  0  0  0  0  0  0  0  0  0  0  0
   -9.6387    0.8240   -2.4414 H   0  0  0  0  0  0  0  0  0  0  0  0
   -9.0404   -0.7941   -2.0993 H   0  0  0  0  0  0  0  0  0  0  0  0
  -10.0021   -0.7838   -0.1219 H   0  0  0  0  0  0  0  0  0  0  0  0
   -9.2208    1.7215    1.9303 H   0  0  0  0  0  0  0  0  0  0  0  0
   -8.6816    0.1185    2.6788 H   0  0  0  0  0  0  0  0  0  0  0  0
   -7.5336    1.3697    2.2469 H   0  0  0  0  0  0  0  0  0  0  0  0
   -2.7025   -1.3152    2.2225 H   0  0  0  0  0  0  0  0  0  0  0  0
   -4.3066   -0.7968    2.7511 H   0  0  0  0  0  0  0  0  0  0  0  0
   -4.1257   -2.3169    1.8500 H   0  0  0  0  0  0  0  0  0  0  0  0
    1.1900    0.0318    0.0334 H   0  0  0  0  0  0  0  0  0  0  0  0
    6.0835   -1.6333    0.4841 H   0  0  0  0  0  0  0  0  0  0  0  0
   10.6283    1.1442   -1.0780 H   0  0  0  0  0  0  0  0  0  0  0  0
  -10.1517    2.3016    0.2322 H   0  0  0  0  0  0  0  0  0  0  0  0
  -12.3379    2.2218   -0.5705 H   0  0  0  0  0  0  0  0  0  0  0  0
  -11.3770    1.7123   -1.9604 H   0  0  0  0  0  0  0  0  0  0  0  0
  -11.5796    1.5724    1.9310 H   0  0  0  0  0  0  0  0  0  0  0  0
  -10.7922   -0.0525    1.7599 H   0  0  0  0  0  0  0  0  0  0  0  0
  -12.7484   -0.8106    0.9536 H   0  0  0  0  0  0  0  0  0  0  0  0
  -13.2870    1.9483    1.2325 H   0  0  0  0  0  0  0  0  0  0  0  0
    1.3264    0.6290    2.3310 H   0  0  0  0  0  0  0  0  0  0  0  0
    1.3866   -1.0502    2.8668 H   0  0  0  0  0  0  0  0  0  0  0  0
    5.5908   -0.8679   -2.0552 H   0  0  0  0  0  0  0  0  0  0  0  0
    7.0461   -1.7585   -1.5429 H   0  0  0  0  0  0  0  0  0  0  0  0
   10.6736   -0.5331    1.4858 H   0  0  0  0  0  0  0  0  0  0  0  0
   10.8870    1.2806    1.2298 H   0  0  0  0  0  0  0  0  0  0  0  0
    3.6232   -0.8172    2.8672 H   0  0  0  0  0  0  0  0  0  0  0  0
    3.9905    1.2917    2.8267 H   0  0  0  0  0  0  0  0  0  0  0  0
    6.7670    1.0629   -2.4977 H   0  0  0  0  0  0  0  0  0  0  0  0
    8.3621   -1.1928   -2.7297 H   0  0  0  0  0  0  0  0  0  0  0  0
   13.0451    0.0072    1.6402 H   0  0  0  0  0  0  0  0  0  0  0  0
   13.5928    1.8623    0.7578 H   0  0  0  0  0  0  0  0  0  0  0  0
    4.4038   -1.8712    1.0559 H   0  0  0  0  0  0  0  0  0  0  0  0
    8.7302    1.8080   -1.3539 H   0  0  0  0  0  0  0  0  0  0  0  0
   12.7426   -1.9679    0.1912 H   0  0  0  0  0  0  0  0  0  0  0  0
   14.8286   -1.4675    0.2106 H   0  0  0  0  0  0  0  0  0  0  0  0
    2.5286   -0.5705   -0.8812 H   0  0  0  0  0  0  0  0  0  0  0  0
    7.8337    1.8934    1.0173 H   0  0  0  0  0  0  0  0  0  0  0  0
   12.4524    0.2075   -1.9662 H   0  0  0  0  0  0  0  0  0  0  0  0
    4.4592   -2.8251   -0.7904 H   0  0  0  0  0  0  0  0  0  0  0  0
    2.7694   -3.4199   -1.2111 H   0  0  0  0  0  0  0  0  0  0  0  0
    3.5566   -2.1455   -2.1678 H   0  0  0  0  0  0  0  0  0  0  0  0
    5.6080    2.6298    0.6149 H   0  0  0  0  0  0  0  0  0  0  0  0
    6.7471    3.2343   -0.6029 H   0  0  0  0  0  0  0  0  0  0  0  0
    5.5975    1.9676   -1.0931 H   0  0  0  0  0  0  0  0  0  0  0  0
   12.8421   -1.4578   -3.5291 H   0  0  0  0  0  0  0  0  0  0  0  0
   13.4244   -2.4617   -2.1864 H   0  0  0  0  0  0  0  0  0  0  0  0
   11.7243   -2.6450   -2.6491 H   0  0  0  0  0  0  0  0  0  0  0  0
  1  2  1  0
  2  3  1  0
  3  4  1  0
  3  5  1  0
  5  6  1  0
  6  7  1  0
  7  8  1  0
  8  9  1  0
  9 10  1  0
  1 11  1  0
  6 11  1  0
 10 11  1  0
 10 12  1  0
 12 13  1  0
 13 14  1  0
 13 15  1  0
  9 16  1  0
 15 16  1  0
 16 17  1  6
 16 18  1  0
 18 19  1  0
 15 20  1  0
 19 20  1  0
 15 21  1  1
 11 22  1  1
  4 23  1  0
 20 26  1  0
 26 27  1  0
 27 28  1  0
 26 29  1  0
 28 30  1  0
 29 30  1  0
 30 31  1  0
 23 32  1  0
 24 33  1  0
 25 34  1  0
 32 35  1  0
 35 36  1  0
 33 37  1  0
 37 38  1  0
 34 39  1  0
 39 40  1  0
 35 41  1  0
 24 42  1  0
 41 42  1  0
 37 43  1  0
 25 44  1  0
 43 44  1  0
 39 45  1  0
 45 46  1  0
 41 47  1  0
 23 48  1  0
 47 48  1  0
 43 49  1  0
 24 50  1  0
 49 50  1  0
 45 51  1  0
 25 52  1  0
 51 52  1  0
 47 53  1  0
 49 54  1  0
 51 55  1  0
 56 57  1  0
 57 58  1  0
 58 59  1  0
 58 60  1  0
 60 61  1  0
 61 62  1  0
 62 63  1  0
 63 64  1  0
 64 65  1  0
 56 66  1  0
 61 66  1  0
 65 66  1  0
 65 67  1  0
 67 68  1  0
 68 69  1  0
 68 70  1  0
 64 71  1  0
 70 71  1  0
 71 72  1  6
 71 73  1  0
 73 74  1  0
 70 75  1  0
 74 75  1  0
 70 76  1  1
 66 77  1  1
 59 78  1  0
 75 81  1  0
 81 82  1  0
 82 83  1  0
 81 84  1  0
 83 85  1  0
 84 85  1  0
 85 86  1  0
 78 87  1  0
 79 88  1  0
 80 89  1  0
 87 90  1  0
 90 91  1  0
 88 92  1  0
 92 93  1  0
 89 94  1  0
 94 95  1  0
 90 96  1  0
 79 97  1  0
 96 97  1  0
 92 98  1  0
 80 99  1  0
 98 99  1  0
 94100  1  0
100101  1  0
 96102  1  0
 78103  1  0
102103  1  0
 98104  1  0
 79105  1  0
104105  1  0
100106  1  0
 80107  1  0
106107  1  0
102108  1  0
104109  1  0
106110  1  0
  1111  1  0
  1112  1  0
  2113  1  0
  2114  1  0
  3115  1  6
  5116  1  0
  5117  1  0
  6118  1  1
  7119  1  0
  7120  1  0
  8121  1  0
  8122  1  0
  9123  1  1
 10124  1  6
 12125  1  0
 12126  1  0
 13127  1  6
 14128  1  0
 17129  1  0
 18130  1  0
 18131  1  0
 19132  1  0
 19133  1  0
 20134  1  1
 21135  1  0
 21136  1  0
 21137  1  0
 22138  1  0
 22139  1  0
 22140  1  0
 23141  1  6
 24142  1  1
 25143  1  6
 26144  1  1
 27145  1  0
 27146  1  0
 29147  1  0
 29148  1  0
 30149  1  0
 31150  1  0
 32151  1  0
 32152  1  0
 33153  1  0
 33154  1  0
 34155  1  0
 34156  1  0
 35157  1  1
 36158  1  0
 37159  1  6
 38160  1  0
 39161  1  1
 40162  1  0
 41163  1  1
 43164  1  6
 45165  1  1
 46166  1  0
 47167  1  6
 49168  1  1
 51169  1  6
 53170  1  0
 53171  1  0
 53172  1  0
 54173  1  0
 54174  1  0
 54175  1  0
 55176  1  0
 55177  1  0
 55178  1  0
 56179  1  0
 56180  1  0
 57181  1  0
 57182  1  0
 58183  1  6
 60184  1  0
 60185  1  0
 61186  1  1
 62187  1  0
 62188  1  0
 63189  1  0
 63190  1  0
 64191  1  1
 65192  1  6
 67193  1  0
 67194  1  0
 68195  1  6
 69196  1  0
 72197  1  0
 73198  1  0
 73199  1  0
 74200  1  0
 74201  1  0
 75202  1  1
 76203  1  0
 76204  1  0
 76205  1  0
 77206  1  0
 77207  1  0
 77208  1  0
 78209  1  6
 79210  1  1
 80211  1  6
 81212  1  1
 82213  1  0
 82214  1  0
 84215  1  0
 84216  1  0
 85217  1  0
 86218  1  0
 87219  1  0
 87220  1  0
 88221  1  0
 88222  1  0
 89223  1  0
 89224  1  0
 90225  1  1
 91226  1  0
 92227  1  6
 93228  1  0
 94229  1  1
 95230  1  0
 96231  1  1
 98232  1  6
100233  1  1
101234  1  0
102235  1  6
104236  1  1
106237  1  6
108238  1  0
108239  1  0
108240  1  0
109241  1  0
109242  1  0
109243  1  0
110244  1  0
110245  1  0
110246  1  0
M  END
>  <PDBID>  (1) 
4RET

>  <PDB ID>  (1) 
4RET

>  <Generic Name>  (1) 
Digoxin

>  <Brand Name>  (1) 
Apo-digoxin#Digitek#Digox#Digoxin#Digoxin Injection C.S.D.#Lanoxin#Lanoxin Elx 0.05mg/ml Pediatric#Lanoxin Inj 0.05mg/ml Pediatric#Lanoxin Inj 0.25mg/ml#Lanoxin Tab 0.0625mg#Lanoxin Tab 0.125mg#Lanoxin Tab 0.25mg#Novo-digoxin Tab 0.25mg#PMS-digoxin#Pediatric Digoxin Injection C.S.D.#Toloxin#Agoxin#Cardiacin#Cardiogoxin#Cardioxin#Cardoxin#Celoxin#Centoxin#Digacin#Digocard-G#Digoxina#Eudigox#Lanacordin#Lanacrist#Lanicor#Lanoxicaps#Lenoxin

>  <DrugBank ID>  (1) 
DB00390

>  <ATC Codes>  (1) 
C01AA05

>  <Ligand ID>  (1) 
DGX

>  <Target Name>  (1) 
Sodium/potassium-transporting ATPase subunit alpha-1

>  <UniProt ID>  (1) 
P05023

>  <PDB ID.1>  (1) 
4RET

>  <Seq. Identity>  (1) 
94%

$$$$
