PDB_DB08915_03
     RDKit          3D

 74 77  0  0  0  0  0  0  0  0999 V2000
    4.7602   -2.6021    0.8288 C   0  0  0  0  0  0  0  0  0  0  0  0
    3.4934   -1.9418    1.3255 C   0  0  0  0  0  0  0  0  0  0  0  0
    3.7263   -0.7984    2.0407 O   0  0  0  0  0  0  0  0  0  0  0  0
    3.2666    0.2730    1.2727 C   0  0  0  0  0  0  0  0  0  0  0  0
    4.4408    0.7082    0.4253 C   0  0  0  0  0  0  0  0  0  0  0  0
    5.6172    1.1201    1.2944 C   0  0  0  0  0  0  0  0  0  0  0  0
    6.8382    1.0978    0.3951 C   0  0  0  0  0  0  0  0  0  0  0  0
    6.4571    1.1140   -1.0640 C   0  0  0  0  0  0  0  0  0  0  0  0
    5.3443    2.0534   -1.3880 C   0  0  0  0  0  0  0  0  0  0  0  0
    4.1535    1.8738   -0.4692 C   0  0  0  0  0  0  0  0  0  0  0  0
    2.1834   -0.2534    0.4716 N   0  0  0  0  0  0  0  0  0  0  0  0
    2.6056   -1.5605    0.1301 C   0  0  0  0  0  0  0  0  0  0  0  0
    1.5358   -2.5967   -0.0354 C   0  0  0  0  0  0  0  0  0  0  0  0
    0.5796   -2.4045   -1.1362 C   0  0  0  0  0  0  0  0  0  0  0  0
   -0.2580   -1.3595   -1.1813 O   0  0  0  0  0  0  0  0  0  0  0  0
   -1.2118   -1.2138   -0.2027 C   0  0  0  0  0  0  0  0  0  0  0  0
   -2.5959   -1.5970   -0.7133 C   0  0  0  0  0  0  0  0  0  0  0  0
   -3.3409   -0.3972   -1.2920 C   0  0  0  0  0  0  0  0  0  0  0  0
   -1.1786    0.0749    0.5130 C   0  0  0  0  0  0  0  0  0  0  0  0
   -0.7315   -0.0736    1.9368 C   0  0  0  0  0  0  0  0  0  0  0  0
   -1.8980    0.0349    2.8531 C   0  0  0  0  0  0  0  0  0  0  0  0
   -2.3344    0.9962    0.4010 C   0  0  0  0  0  0  0  0  0  0  0  0
   -2.6532    1.5468    2.1208 S   0  0  0  0  0  0  0  0  0  0  0  0
   -3.6300    0.4310   -0.0624 C   0  0  0  0  0  0  0  0  0  0  0  0
   -4.5832    1.5611   -0.3390 C   0  0  0  0  0  0  0  0  0  0  0  0
   -5.9115    1.1118   -0.8416 C   0  0  2  0  0  0  0  0  0  0  0  0
   -6.7141    2.2120   -1.0657 O   0  0  0  0  0  0  0  0  0  0  0  0
   -7.1305    2.3313   -2.3848 C   0  0  0  0  0  0  0  0  0  0  0  0
   -6.6370    0.1982    0.1153 C   0  0  0  0  0  0  0  0  0  0  0  0
   -6.8967    0.8447    1.3342 O   0  0  0  0  0  0  0  0  0  0  0  0
   -7.8740   -0.1394   -0.4309 O   0  0  0  0  0  0  0  0  0  0  0  0
    5.6701   -2.0287    1.0669 H   0  0  0  0  0  0  0  0  0  0  0  0
    4.8300   -3.5973    1.3233 H   0  0  0  0  0  0  0  0  0  0  0  0
    4.6471   -2.7997   -0.2604 H   0  0  0  0  0  0  0  0  0  0  0  0
    2.8963   -2.6250    1.9552 H   0  0  0  0  0  0  0  0  0  0  0  0
    2.9320    1.0751    1.9608 H   0  0  0  0  0  0  0  0  0  0  0  0
    4.7639   -0.1454   -0.1835 H   0  0  0  0  0  0  0  0  0  0  0  0
    5.4735    2.1263    1.7419 H   0  0  0  0  0  0  0  0  0  0  0  0
    5.6955    0.3928    2.1114 H   0  0  0  0  0  0  0  0  0  0  0  0
    7.3377    0.1036    0.5806 H   0  0  0  0  0  0  0  0  0  0  0  0
    7.5398    1.9221    0.6047 H   0  0  0  0  0  0  0  0  0  0  0  0
    6.3088    0.0965   -1.4879 H   0  0  0  0  0  0  0  0  0  0  0  0
    7.3696    1.5039   -1.6061 H   0  0  0  0  0  0  0  0  0  0  0  0
    4.9728    1.7689   -2.4164 H   0  0  0  0  0  0  0  0  0  0  0  0
    5.6619    3.1086   -1.4686 H   0  0  0  0  0  0  0  0  0  0  0  0
    3.2057    1.8280   -1.0194 H   0  0  0  0  0  0  0  0  0  0  0  0
    4.1598    2.7941    0.1890 H   0  0  0  0  0  0  0  0  0  0  0  0
    1.9898    0.3707   -0.3351 H   0  0  0  0  0  0  0  0  0  0  0  0
    3.2280   -1.5950   -0.8029 H   0  0  0  0  0  0  0  0  0  0  0  0
    2.0496   -3.5921   -0.2216 H   0  0  0  0  0  0  0  0  0  0  0  0
    1.0782   -2.7370    0.9675 H   0  0  0  0  0  0  0  0  0  0  0  0
    1.2347   -2.2954   -2.0705 H   0  0  0  0  0  0  0  0  0  0  0  0
    0.0392   -3.3760   -1.4060 H   0  0  0  0  0  0  0  0  0  0  0  0
   -1.0082   -2.0416    0.5413 H   0  0  0  0  0  0  0  0  0  0  0  0
   -2.5446   -2.3546   -1.4838 H   0  0  0  0  0  0  0  0  0  0  0  0
   -3.1995   -1.9889    0.1306 H   0  0  0  0  0  0  0  0  0  0  0  0
   -4.2849   -0.7892   -1.6931 H   0  0  0  0  0  0  0  0  0  0  0  0
   -2.6941    0.0964   -2.0190 H   0  0  0  0  0  0  0  0  0  0  0  0
   -0.3418    0.6783    0.0306 H   0  0  0  0  0  0  0  0  0  0  0  0
    0.0171    0.6943    2.2522 H   0  0  0  0  0  0  0  0  0  0  0  0
   -0.2265   -1.0490    2.0516 H   0  0  0  0  0  0  0  0  0  0  0  0
   -2.6011   -0.8034    2.8184 H   0  0  0  0  0  0  0  0  0  0  0  0
   -1.5262    0.2634    3.8660 H   0  0  0  0  0  0  0  0  0  0  0  0
   -2.1552    1.9197   -0.2043 H   0  0  0  0  0  0  0  0  0  0  0  0
   -4.0117   -0.2571    0.7198 H   0  0  0  0  0  0  0  0  0  0  0  0
   -4.1243    2.2107   -1.0984 H   0  0  0  0  0  0  0  0  0  0  0  0
   -4.6841    2.1396    0.6022 H   0  0  0  0  0  0  0  0  0  0  0  0
   -5.7948    0.5802   -1.8006 H   0  0  0  0  0  0  0  0  0  0  0  0
   -7.7646    3.2489   -2.4327 H   0  0  0  0  0  0  0  0  0  0  0  0
   -6.3112    2.4735   -3.0978 H   0  0  0  0  0  0  0  0  0  0  0  0
   -7.8196    1.4885   -2.6680 H   0  0  0  0  0  0  0  0  0  0  0  0
   -6.0926   -0.7182    0.3427 H   0  0  0  0  0  0  0  0  0  0  0  0
   -7.5229    0.3156    1.8652 H   0  0  0  0  0  0  0  0  0  0  0  0
   -7.8160   -1.0511   -0.8141 H   0  0  0  0  0  0  0  0  0  0  0  0
  1  2  1  0
  2  3  1  0
  3  4  1  0
  4  5  1  0
  5  6  1  0
  6  7  1  0
  7  8  1  0
  8  9  1  0
  5 10  1  0
  9 10  1  0
  4 11  1  0
  2 12  1  0
 11 12  1  0
 12 13  1  0
 13 14  1  0
 14 15  1  0
 15 16  1  0
 16 17  1  0
 17 18  1  0
 16 19  1  0
 19 20  1  0
 20 21  1  0
 19 22  1  0
 21 23  1  0
 22 23  1  0
 18 24  1  0
 22 24  1  0
 24 25  1  0
 25 26  1  0
 26 27  1  0
 27 28  1  0
 26 29  1  0
 29 30  1  0
 29 31  1  0
  1 32  1  0
  1 33  1  0
  1 34  1  0
  2 35  1  0
  4 36  1  0
  5 37  1  0
  6 38  1  0
  6 39  1  0
  7 40  1  0
  7 41  1  0
  8 42  1  0
  8 43  1  0
  9 44  1  0
  9 45  1  0
 10 46  1  0
 10 47  1  0
 11 48  1  0
 12 49  1  0
 13 50  1  0
 13 51  1  0
 14 52  1  0
 14 53  1  0
 16 54  1  0
 17 55  1  0
 17 56  1  0
 18 57  1  0
 18 58  1  0
 19 59  1  0
 20 60  1  0
 20 61  1  0
 21 62  1  0
 21 63  1  0
 22 64  1  0
 24 65  1  0
 25 66  1  0
 25 67  1  0
 26 68  1  6
 28 69  1  0
 28 70  1  0
 28 71  1  0
 29 72  1  0
 30 73  1  0
 31 74  1  0
M  END
>  <PDBID>  (1) 
3G8I

>  <PDB ID>  (1) 
3G8I

>  <Generic Name>  (1) 
Aleglitazar

>  <Brand Name>  (1) 
nan

>  <DrugBank ID>  (1) 
DB08915

>  <ATC Codes>  (1) 
nan

>  <Ligand ID>  (1) 
RO7

>  <Target Name>  (1) 
Peroxisome proliferator-activated receptor alpha

>  <UniProt ID>  (1) 
Q07869

>  <PDB ID.1>  (1) 
3G8I

>  <Seq. Identity>  (1) 
100%

$$$$
