PDB_DB08881_01
     RDKit          3D

 75 78  0  0  0  0  0  0  0  0999 V2000
   -6.2324   -1.4986   -1.5111 C   0  0  0  0  0  0  0  0  0  0  0  0
   -0.2764    0.9802    2.7473 C   0  0  0  0  0  0  0  0  0  0  0  0
   -0.0103   -0.5942    0.8061 C   0  0  0  0  0  0  0  0  0  0  0  0
    1.7749   -1.7601   -0.2936 C   0  0  0  0  0  0  0  0  0  0  0  0
    3.2722   -1.5605   -0.3334 C   0  0  0  0  0  0  0  0  0  0  0  0
    3.8398   -2.4536    0.7121 C   0  0  0  0  0  0  0  0  0  0  0  0
    2.2367   -0.9680    2.0087 C   0  0  0  0  0  0  0  0  0  0  0  0
   -3.5680    1.5469   -0.3746 C   0  0  0  0  0  0  0  0  0  0  0  0
   -4.0366    2.4311    0.7573 C   0  0  0  0  0  0  0  0  0  0  0  0
   -2.8840    2.9469    1.4683 N   0  0  0  0  0  0  0  0  0  0  0  0
   -2.1429    1.0731   -0.0937 C   0  0  0  0  0  0  0  0  0  0  0  0
   -1.0950    2.1424    2.8514 N   0  0  0  0  0  0  0  0  0  0  0  0
   -0.8905   -0.0286    1.8256 C   0  0  0  0  0  0  0  0  0  0  0  0
   -2.1188    0.6637    1.3329 C   0  0  0  0  0  0  0  0  0  0  0  0
   -2.3222    1.8503    2.2332 C   0  0  0  0  0  0  0  0  0  0  0  0
   -4.5151    0.4024   -0.6218 C   0  0  0  0  0  0  0  0  0  0  0  0
    1.1752   -1.3809    1.0762 C   0  0  0  0  0  0  0  0  0  0  0  0
    3.3504   -2.0293    2.0353 C   0  0  0  0  0  0  0  0  0  0  0  0
    1.8370   -1.0321    3.3503 F   0  0  0  0  0  0  0  0  0  0  0  0
    1.1503   -1.0820   -1.3212 F   0  0  0  0  0  0  0  0  0  0  0  0
    3.6990   -0.1915   -0.2639 N   0  0  0  0  0  0  0  0  0  0  0  0
    5.0551    0.3429   -0.2620 S   0  0  0  0  0  0  0  0  0  0  0  0
    5.0075    1.9914   -0.9001 O   0  0  0  0  0  0  0  0  0  0  0  0
    5.5303    0.9050    1.4334 O   0  0  0  0  0  0  0  0  0  0  0  0
    6.4442   -0.2452   -0.7976 C   0  0  0  0  0  0  0  0  0  0  0  0
    6.4535   -0.5350   -2.2864 C   0  0  0  0  0  0  0  0  0  0  0  0
    6.1838    0.7625   -3.0541 C   0  0  0  0  0  0  0  0  0  0  0  0
   -3.9917   -0.4595   -1.7425 C   0  0  0  0  0  0  0  0  0  0  0  0
   -5.0852   -1.2185   -2.4672 C   0  0  0  0  0  0  0  0  0  0  0  0
   -6.8975   -0.2084   -1.0789 C   0  0  0  0  0  0  0  0  0  0  0  0
   -5.8962    0.9227   -0.9899 C   0  0  0  0  0  0  0  0  0  0  0  0
   -7.4690   -2.5071   -2.2906 Cl  0  0  0  0  0  0  0  0  0  0  0  0
    0.2358    0.4710   -0.1235 O   0  0  0  0  0  0  0  0  0  0  0  0
   -5.8994   -2.0301   -0.6006 H   0  0  0  0  0  0  0  0  0  0  0  0
    0.7749    1.2340    2.4740 H   0  0  0  0  0  0  0  0  0  0  0  0
   -0.1897    0.5908    3.8116 H   0  0  0  0  0  0  0  0  0  0  0  0
   -0.6749   -1.2567    0.1516 H   0  0  0  0  0  0  0  0  0  0  0  0
    1.6131   -2.8379   -0.5041 H   0  0  0  0  0  0  0  0  0  0  0  0
    3.5883   -1.9507   -1.3375 H   0  0  0  0  0  0  0  0  0  0  0  0
    3.4516   -3.4911    0.4849 H   0  0  0  0  0  0  0  0  0  0  0  0
    4.9427   -2.5593    0.6620 H   0  0  0  0  0  0  0  0  0  0  0  0
    2.6543    0.0257    1.8572 H   0  0  0  0  0  0  0  0  0  0  0  0
   -3.5566    2.1664   -1.2971 H   0  0  0  0  0  0  0  0  0  0  0  0
   -4.5729    1.7667    1.4825 H   0  0  0  0  0  0  0  0  0  0  0  0
   -4.6767    3.2452    0.3913 H   0  0  0  0  0  0  0  0  0  0  0  0
   -2.2101    3.4521    0.8868 H   0  0  0  0  0  0  0  0  0  0  0  0
   -1.9718    0.2321   -0.7827 H   0  0  0  0  0  0  0  0  0  0  0  0
   -1.5127    1.9612   -0.3181 H   0  0  0  0  0  0  0  0  0  0  0  0
   -0.6501    3.0420    2.6633 H   0  0  0  0  0  0  0  0  0  0  0  0
   -1.3117   -0.8241    2.5270 H   0  0  0  0  0  0  0  0  0  0  0  0
   -3.0597    0.0435    1.4772 H   0  0  0  0  0  0  0  0  0  0  0  0
   -3.0804    1.6492    3.0484 H   0  0  0  0  0  0  0  0  0  0  0  0
   -4.6700   -0.2360    0.2719 H   0  0  0  0  0  0  0  0  0  0  0  0
    0.8121   -2.3820    1.5003 H   0  0  0  0  0  0  0  0  0  0  0  0
    3.0477   -2.9201    2.6239 H   0  0  0  0  0  0  0  0  0  0  0  0
    4.2075   -1.5835    2.6215 H   0  0  0  0  0  0  0  0  0  0  0  0
    2.9086    0.3543   -0.7377 H   0  0  0  0  0  0  0  0  0  0  0  0
    4.1270    2.1012   -1.3210 H   0  0  0  0  0  0  0  0  0  0  0  0
    5.7903    0.0310    1.8217 H   0  0  0  0  0  0  0  0  0  0  0  0
    7.3340    0.4309   -0.6308 H   0  0  0  0  0  0  0  0  0  0  0  0
    6.7698   -1.2136   -0.3125 H   0  0  0  0  0  0  0  0  0  0  0  0
    5.6693   -1.2812   -2.5015 H   0  0  0  0  0  0  0  0  0  0  0  0
    7.4455   -0.9154   -2.6194 H   0  0  0  0  0  0  0  0  0  0  0  0
    6.6038    0.7052   -4.0904 H   0  0  0  0  0  0  0  0  0  0  0  0
    6.6948    1.6191   -2.5418 H   0  0  0  0  0  0  0  0  0  0  0  0
    5.0961    0.9278   -3.1777 H   0  0  0  0  0  0  0  0  0  0  0  0
   -3.2788   -1.2047   -1.3278 H   0  0  0  0  0  0  0  0  0  0  0  0
   -3.5066    0.2172   -2.4725 H   0  0  0  0  0  0  0  0  0  0  0  0
   -5.4553   -0.5856   -3.2773 H   0  0  0  0  0  0  0  0  0  0  0  0
   -4.7000   -2.1648   -2.8879 H   0  0  0  0  0  0  0  0  0  0  0  0
   -7.3170   -0.3753   -0.0674 H   0  0  0  0  0  0  0  0  0  0  0  0
   -7.6730    0.0726   -1.8323 H   0  0  0  0  0  0  0  0  0  0  0  0
   -5.8475    1.3878   -1.9925 H   0  0  0  0  0  0  0  0  0  0  0  0
   -6.2642    1.6855   -0.2852 H   0  0  0  0  0  0  0  0  0  0  0  0
    0.7336    1.1915    0.3075 H   0  0  0  0  0  0  0  0  0  0  0  0
  4  5  1  0
  5  6  1  0
  8  9  1  0
  9 10  1  0
  8 11  1  0
  2 12  1  0
  2 13  1  0
  3 13  1  0
 11 14  1  0
 13 14  1  0
 10 15  1  0
 12 15  1  0
 14 15  1  0
  8 16  1  0
  3 17  1  0
  4 17  1  0
  7 17  1  0
  6 18  1  0
  7 18  1  0
  7 19  1  0
  4 20  1  0
  5 21  1  0
 21 22  1  0
 22 23  1  0
 22 24  1  0
 22 25  1  0
 25 26  1  0
 26 27  1  0
 16 28  1  0
  1 29  1  0
 28 29  1  0
  1 30  1  0
 16 31  1  0
 30 31  1  0
  1 32  1  0
  3 33  1  0
  1 34  1  0
  2 35  1  0
  2 36  1  0
  3 37  1  0
  4 38  1  0
  5 39  1  0
  6 40  1  0
  6 41  1  0
  7 42  1  0
  8 43  1  0
  9 44  1  0
  9 45  1  0
 10 46  1  0
 11 47  1  0
 11 48  1  0
 12 49  1  0
 13 50  1  0
 14 51  1  0
 15 52  1  0
 16 53  1  0
 17 54  1  0
 18 55  1  0
 18 56  1  0
 21 57  1  0
 23 58  1  0
 24 59  1  0
 25 60  1  0
 25 61  1  0
 26 62  1  0
 26 63  1  0
 27 64  1  0
 27 65  1  0
 27 66  1  0
 28 67  1  0
 28 68  1  0
 29 69  1  0
 29 70  1  0
 30 71  1  0
 30 72  1  0
 31 73  1  0
 31 74  1  0
 33 75  1  0
M  END
>  <PDBID>  (1) 
3OG7

>  <PDB ID>  (1) 
3OG7

>  <Generic Name>  (1) 
Vemurafenib

>  <Brand Name>  (1) 
Zelboraf

>  <DrugBank ID>  (1) 
DB08881

>  <ATC Codes>  (1) 
L01XE15

>  <Ligand ID>  (1) 
32

>  <Target Name>  (1) 
Serine/threonine-protein kinase B-raf

>  <UniProt ID>  (1) 
P15056

>  <PDB ID.1>  (1) 
3OG7

>  <Seq. Identity>  (1) 
94%

$$$$
