PDB_DB08912_09
     RDKit          3D

316328  0  0  0  0  0  0  0  0999 V2000
   -2.8620    3.3447   -0.6260 C   0  0  0  0  0  0  0  0  0  0  0  0
   -2.6508    1.1001   -1.4887 C   0  0  2  0  0  0  0  0  0  0  0  0
   -2.0140    2.3147   -1.1182 N   0  0  0  0  0  0  0  0  0  0  0  0
   -4.1173    1.3858   -1.8958 C   0  0  0  0  0  0  0  0  0  0  0  0
   -4.0440    2.8684    0.0547 N   0  0  0  0  0  0  0  0  0  0  0  0
   -4.8747    2.0428   -0.7926 C   0  0  0  0  0  0  0  0  0  0  0  0
   -3.2188    4.3222   -1.6585 N   0  0  0  0  0  0  0  0  0  0  0  0
   -2.7125    0.1564   -0.3950 C   0  0  0  0  0  0  0  0  0  0  0  0
   -3.5701   -1.4208   -0.8391 S   0  0  0  0  0  0  0  0  0  0  0  0
   -2.9724   -2.2888    0.6432 C   0  0  1  0  0  0  0  0  0  0  0  0
   -2.1127   -1.3540    1.2446 N   0  0  0  0  0  0  0  0  0  0  0  0
   -1.5845   -0.3725    0.3307 C   0  0  0  0  0  0  0  0  0  0  0  0
   -4.1861   -2.5440    1.5223 C   0  0  0  0  0  0  0  0  0  0  0  0
   -5.1979   -3.4012    0.7670 C   0  0  0  0  0  0  0  0  0  0  0  0
   -3.7003   -3.3950    2.6826 C   0  0  0  0  0  0  0  0  0  0  0  0
   -4.7912   -1.2566    1.9892 C   0  0  0  0  0  0  0  0  0  0  0  0
   -0.3123   -0.7756   -0.2625 C   0  0  2  0  0  0  0  0  0  0  0  0
    1.8473   -0.3026   -1.2994 C   0  0  2  0  0  0  0  0  0  0  0  0
    0.5119    0.3265   -0.9042 C   0  0  0  0  0  0  0  0  0  0  0  0
    2.0559   -1.6671   -0.7153 C   0  0  0  0  0  0  0  0  0  0  0  0
   -0.3007   -1.8787   -1.2625 C   0  0  0  0  0  0  0  0  0  0  0  0
    0.9901   -2.6655   -1.0980 C   0  0  0  0  0  0  0  0  0  0  0  0
    0.7094    1.3788   -0.0300 F   0  0  0  0  0  0  0  0  0  0  0  0
    2.9597    0.5371   -0.8618 N   0  0  0  0  0  0  0  0  0  0  0  0
    3.2719    0.8937    0.5275 S   0  0  0  0  0  0  0  0  0  0  0  0
    4.8606    0.9659    1.1131 C   0  0  0  0  0  0  0  0  0  0  0  0
    7.1199    1.7731    0.5291 C   0  0  0  0  0  0  0  0  0  0  0  0
    5.6428    2.0971    0.4300 C   0  0  0  0  0  0  0  0  0  0  0  0
    7.5084    0.6249   -0.3745 C   0  0  0  0  0  0  0  0  0  0  0  0
    5.6662   -0.2724    0.9752 C   0  0  0  0  0  0  0  0  0  0  0  0
    6.3832   -0.3840   -0.3608 C   0  0  0  0  0  0  0  0  0  0  0  0
    4.9250   -1.4301    1.1773 F   0  0  0  0  0  0  0  0  0  0  0  0
    5.2439    2.2642   -0.8656 F   0  0  0  0  0  0  0  0  0  0  0  0
    2.3047    0.4163    1.7625 O   0  0  0  0  0  0  0  0  0  0  0  0
    2.9299    2.7478    0.7306 O   0  0  0  0  0  0  0  0  0  0  0  0
   -3.2879    3.8784   -0.3098 C   0  0  0  0  0  0  0  0  0  0  0  0
   -3.1240    1.6405    0.3316 C   0  0  0  0  0  0  0  0  0  0  0  0
   -2.5268    2.6298   -0.4881 N   0  0  0  0  0  0  0  0  0  0  0  0
   -4.4064    1.1731   -0.2956 C   0  0  0  0  0  0  0  0  0  0  0  0
   -4.6894    3.5999   -0.0863 N   0  0  0  0  0  0  0  0  0  0  0  0
   -5.1365    2.4257   -0.7977 C   0  0  0  0  0  0  0  0  0  0  0  0
   -3.1739    4.7458   -1.4442 N   0  0  0  0  0  0  0  0  0  0  0  0
   -2.2293    0.5028    0.7631 C   0  0  0  0  0  0  0  0  0  0  0  0
   -3.3533   -0.5449    1.7903 S   0  0  0  0  0  0  0  0  0  0  0  0
   -3.5648   -1.8249    0.4894 C   0  0  1  0  0  0  0  0  0  0  0  0
   -2.2695   -1.7594   -0.0834 N   0  0  0  0  0  0  0  0  0  0  0  0
   -1.8202   -0.4333   -0.2988 C   0  0  2  0  0  0  0  0  0  0  0  0
   -3.7535   -3.1744    1.1485 C   0  0  0  0  0  0  0  0  0  0  0  0
   -2.5879   -3.5640    1.9986 C   0  0  0  0  0  0  0  0  0  0  0  0
   -4.0241   -4.1776    0.0464 C   0  0  0  0  0  0  0  0  0  0  0  0
   -4.9953   -3.1652    2.0480 C   0  0  0  0  0  0  0  0  0  0  0  0
   -0.3020   -0.5473   -0.4623 C   0  0  2  0  0  0  0  0  0  0  0  0
    1.7012    0.5467   -1.4381 C   0  0  0  0  0  0  0  0  0  0  0  0
    0.3653    0.7373   -0.7935 C   0  0  0  0  0  0  0  0  0  0  0  0
    1.6168   -0.3866   -2.6440 C   0  0  0  0  0  0  0  0  0  0  0  0
   -0.1018   -1.6486   -1.4915 C   0  0  0  0  0  0  0  0  0  0  0  0
    1.2913   -1.7473   -2.0148 C   0  0  0  0  0  0  0  0  0  0  0  0
    0.6000    1.3926    0.4157 F   0  0  0  0  0  0  0  0  0  0  0  0
    2.7636    0.1669   -0.5557 N   0  0  0  0  0  0  0  0  0  0  0  0
    3.2154    1.1075    0.6197 S   0  0  0  0  0  0  0  0  0  0  0  0
    4.8989    1.0537    0.9629 C   0  0  0  0  0  0  0  0  0  0  0  0
    7.2077    1.3583    0.2027 C   0  0  0  0  0  0  0  0  0  0  0  0
    5.7442    1.5668   -0.1827 C   0  0  0  0  0  0  0  0  0  0  0  0
    7.5458   -0.0923    0.0795 C   0  0  0  0  0  0  0  0  0  0  0  0
    5.3998   -0.2918    1.3660 C   0  0  0  0  0  0  0  0  0  0  0  0
    6.3190   -0.9113    0.3412 C   0  0  0  0  0  0  0  0  0  0  0  0
    4.3683   -1.2122    1.5632 F   0  0  0  0  0  0  0  0  0  0  0  0
    5.4445    0.9886   -1.3764 F   0  0  0  0  0  0  0  0  0  0  0  0
    2.4573    0.7474    2.0795 O   0  0  0  0  0  0  0  0  0  0  0  0
    2.8199    2.7075    0.3657 O   0  0  0  0  0  0  0  0  0  0  0  0
   -2.6826    2.5665   -2.4976 C   0  0  0  0  0  0  0  0  0  0  0  0
   -3.6085    0.6416   -1.3855 C   0  0  2  0  0  0  0  0  0  0  0  0
   -2.8438    1.1486   -2.4852 N   0  0  0  0  0  0  0  0  0  0  0  0
   -4.8860    1.4714   -1.2942 C   0  0  0  0  0  0  0  0  0  0  0  0
   -3.2157    3.2344   -1.3490 N   0  0  0  0  0  0  0  0  0  0  0  0
   -4.6065    2.9358   -1.2148 C   0  0  0  0  0  0  0  0  0  0  0  0
   -3.2880    3.1574   -3.6945 N   0  0  0  0  0  0  0  0  0  0  0  0
   -2.8532    0.6343   -0.0961 C   0  0  1  0  0  0  0  0  0  0  0  0
   -4.1015   -0.0206    1.1313 S   0  0  0  0  0  0  0  0  0  0  0  0
   -3.6630   -1.7903    0.8635 C   0  0  0  0  0  0  0  0  0  0  0  0
   -2.5874   -1.7042   -0.0399 N   0  0  0  0  0  0  0  0  0  0  0  0
   -1.8803   -0.4579    0.1210 C   0  0  0  0  0  0  0  0  0  0  0  0
   -3.5052   -2.5191    2.1217 C   0  0  0  0  0  0  0  0  0  0  0  0
   -2.4653   -2.0420    3.0664 C   0  0  0  0  0  0  0  0  0  0  0  0
   -3.2698   -3.9968    1.8752 C   0  0  0  0  0  0  0  0  0  0  0  0
   -4.8474   -2.4464    2.8689 C   0  0  0  0  0  0  0  0  0  0  0  0
   -0.5594   -0.4311   -0.4964 C   0  0  2  0  0  0  0  0  0  0  0  0
    1.6038    0.6059   -0.8443 C   0  0  2  0  0  0  0  0  0  0  0  0
    0.2906    0.7610   -0.1115 C   0  0  0  0  0  0  0  0  0  0  0  0
    1.8692   -0.8551   -1.2369 C   0  0  0  0  0  0  0  0  0  0  0  0
   -0.4396   -0.5900   -1.9705 C   0  0  0  0  0  0  0  0  0  0  0  0
    0.8677   -1.3631   -2.2497 C   0  0  0  0  0  0  0  0  0  0  0  0
    0.3912    0.8069    1.2402 F   0  0  0  0  0  0  0  0  0  0  0  0
    2.7557    1.0126   -0.0849 N   0  0  0  0  0  0  0  0  0  0  0  0
    3.2369    0.4536    1.1261 S   0  0  0  0  0  0  0  0  0  0  0  0
    4.9377    0.1480    1.3819 C   0  0  0  0  0  0  0  0  0  0  0  0
    7.2176    0.9424    1.0192 C   0  0  0  0  0  0  0  0  0  0  0  0
    5.7945    1.3742    1.2874 C   0  0  0  0  0  0  0  0  0  0  0  0
    7.3277    0.4658   -0.4169 C   0  0  0  0  0  0  0  0  0  0  0  0
    5.4779   -0.8713    0.4191 C   0  0  0  0  0  0  0  0  0  0  0  0
    6.0245   -0.2131   -0.8436 C   0  0  0  0  0  0  0  0  0  0  0  0
    4.6167   -1.8957    0.1476 F   0  0  0  0  0  0  0  0  0  0  0  0
    5.3249    2.2393    0.3253 F   0  0  0  0  0  0  0  0  0  0  0  0
    2.4548   -0.3710    2.2070 O   0  0  0  0  0  0  0  0  0  0  0  0
    3.4174    2.1571    2.2038 O   0  0  0  0  0  0  0  0  0  0  0  0
   -3.7547    3.6426   -1.4194 C   0  0  0  0  0  0  0  0  0  0  0  0
   -2.5187    1.6683   -0.8232 C   0  0  2  0  0  0  0  0  0  0  0  0
   -3.1711    2.8785   -0.3398 N   0  0  0  0  0  0  0  0  0  0  0  0
   -3.2051    1.1256   -2.0444 C   0  0  0  0  0  0  0  0  0  0  0  0
   -4.8412    2.9863   -2.0743 N   0  0  0  0  0  0  0  0  0  0  0  0
   -4.6342    1.5842   -2.1706 C   0  0  0  0  0  0  0  0  0  0  0  0
   -2.7621    4.1530   -2.3511 N   0  0  0  0  0  0  0  0  0  0  0  0
   -2.3720    0.6629    0.2972 C   0  0  1  0  0  0  0  0  0  0  0  0
   -4.0863    0.2482    0.8210 S   0  0  0  0  0  0  0  0  0  0  0  0
   -4.0152   -1.4879    0.2133 C   0  0  1  0  0  0  0  0  0  0  0  0
   -2.6324   -1.7346    0.3125 N   0  0  0  0  0  0  0  0  0  0  0  0
   -1.8176   -0.6538   -0.0858 C   0  0  2  0  0  0  0  0  0  0  0  0
   -4.7301   -2.3972    1.2181 C   0  0  0  0  0  0  0  0  0  0  0  0
   -4.6639   -3.8165    0.7060 C   0  0  0  0  0  0  0  0  0  0  0  0
   -4.0574   -2.3666    2.5728 C   0  0  0  0  0  0  0  0  0  0  0  0
   -6.1593   -1.9358    1.4121 C   0  0  0  0  0  0  0  0  0  0  0  0
   -0.4826   -0.9171    0.6530 C   0  0  2  0  0  0  0  0  0  0  0  0
    1.9143   -0.5765    0.5979 C   0  0  2  0  0  0  0  0  0  0  0  0
    0.5500    0.0919    0.3428 C   0  0  0  0  0  0  0  0  0  0  0  0
    1.7052   -1.5431    1.7610 C   0  0  0  0  0  0  0  0  0  0  0  0
   -0.0261   -2.2881    0.2066 C   0  0  0  0  0  0  0  0  0  0  0  0
    0.9828   -2.7806    1.2151 C   0  0  0  0  0  0  0  0  0  0  0  0
    0.4818    1.1346    1.2730 F   0  0  0  0  0  0  0  0  0  0  0  0
    2.9175    0.3860    0.9146 N   0  0  0  0  0  0  0  0  0  0  0  0
    4.2990    0.1100    1.1959 S   0  0  0  0  0  0  0  0  0  0  0  0
    5.5811    0.5063    0.1157 C   0  0  0  0  0  0  0  0  0  0  0  0
    7.0992    2.2470   -0.6737 C   0  0  0  0  0  0  0  0  0  0  0  0
    5.7221    1.9883   -0.1617 C   0  0  0  0  0  0  0  0  0  0  0  0
    7.4848    1.2106   -1.6728 C   0  0  0  0  0  0  0  0  0  0  0  0
    5.4832   -0.2173   -1.2051 C   0  0  2  0  0  0  0  0  0  0  0  0
    6.3189    0.4546   -2.2717 C   0  0  0  0  0  0  0  0  0  0  0  0
    4.1903   -0.2622   -1.6970 F   0  0  0  0  0  0  0  0  0  0  0  0
    4.7278    2.4527   -0.9953 F   0  0  0  0  0  0  0  0  0  0  0  0
    4.8341   -1.1222    2.1381 O   0  0  0  0  0  0  0  0  0  0  0  0
    4.7374    1.4627    2.4859 O   0  0  0  0  0  0  0  0  0  0  0  0
   -2.2795    3.9291    0.1294 H   0  0  0  0  0  0  0  0  0  0  0  0
   -2.2147    0.7538   -2.4482 H   0  0  0  0  0  0  0  0  0  0  0  0
   -1.3859    2.7061   -1.8584 H   0  0  0  0  0  0  0  0  0  0  0  0
   -4.5612    0.3596   -2.0353 H   0  0  0  0  0  0  0  0  0  0  0  0
   -4.1719    1.8797   -2.8637 H   0  0  0  0  0  0  0  0  0  0  0  0
   -4.5842    3.7178    0.3578 H   0  0  0  0  0  0  0  0  0  0  0  0
   -5.3784    1.3016   -0.1384 H   0  0  0  0  0  0  0  0  0  0  0  0
   -5.6900    2.6757   -1.2160 H   0  0  0  0  0  0  0  0  0  0  0  0
   -4.2127    4.5899   -1.4852 H   0  0  0  0  0  0  0  0  0  0  0  0
   -3.0360    3.9841   -2.6088 H   0  0  0  0  0  0  0  0  0  0  0  0
   -3.4205    0.5947    0.3794 H   0  0  0  0  0  0  0  0  0  0  0  0
   -2.5477   -3.2871    0.4307 H   0  0  0  0  0  0  0  0  0  0  0  0
   -1.3236   -1.8319    1.7258 H   0  0  0  0  0  0  0  0  0  0  0  0
   -1.2814    0.4792    1.0622 H   0  0  0  0  0  0  0  0  0  0  0  0
   -5.7813   -4.0072    1.5135 H   0  0  0  0  0  0  0  0  0  0  0  0
   -5.8653   -2.8150    0.1360 H   0  0  0  0  0  0  0  0  0  0  0  0
   -4.6546   -4.1231    0.1387 H   0  0  0  0  0  0  0  0  0  0  0  0
   -3.1183   -2.7637    3.3734 H   0  0  0  0  0  0  0  0  0  0  0  0
   -2.9773   -4.1330    2.2312 H   0  0  0  0  0  0  0  0  0  0  0  0
   -4.5495   -3.9065    3.1418 H   0  0  0  0  0  0  0  0  0  0  0  0
   -3.9745   -0.6190    2.3719 H   0  0  0  0  0  0  0  0  0  0  0  0
   -5.5363   -1.5066    2.7735 H   0  0  0  0  0  0  0  0  0  0  0  0
   -5.2638   -0.7438    1.1292 H   0  0  0  0  0  0  0  0  0  0  0  0
    0.3317   -1.1093    0.6097 H   0  0  0  0  0  0  0  0  0  0  0  0
    1.9503   -0.4103   -2.3993 H   0  0  0  0  0  0  0  0  0  0  0  0
    0.0767    0.6680   -1.8608 H   0  0  0  0  0  0  0  0  0  0  0  0
    2.2636   -1.6413    0.3719 H   0  0  0  0  0  0  0  0  0  0  0  0
    3.0336   -2.0255   -1.1624 H   0  0  0  0  0  0  0  0  0  0  0  0
   -0.2160   -1.4680   -2.3179 H   0  0  0  0  0  0  0  0  0  0  0  0
   -1.1172   -2.5725   -1.2840 H   0  0  0  0  0  0  0  0  0  0  0  0
    0.8375   -3.3439   -0.2250 H   0  0  0  0  0  0  0  0  0  0  0  0
    1.2489   -3.2351   -2.0139 H   0  0  0  0  0  0  0  0  0  0  0  0
    3.0915    1.2474   -1.6470 H   0  0  0  0  0  0  0  0  0  0  0  0
    4.8427    1.2562    2.1946 H   0  0  0  0  0  0  0  0  0  0  0  0
    7.6879    2.6873    0.2533 H   0  0  0  0  0  0  0  0  0  0  0  0
    7.3799    1.5058    1.5586 H   0  0  0  0  0  0  0  0  0  0  0  0
    5.5030    3.0550    1.0012 H   0  0  0  0  0  0  0  0  0  0  0  0
    8.4477    0.1875    0.0268 H   0  0  0  0  0  0  0  0  0  0  0  0
    7.6911    0.9452   -1.4195 H   0  0  0  0  0  0  0  0  0  0  0  0
    6.4828   -0.3155    1.7548 H   0  0  0  0  0  0  0  0  0  0  0  0
    6.8803   -1.3962   -0.3436 H   0  0  0  0  0  0  0  0  0  0  0  0
    5.7057   -0.3009   -1.2114 H   0  0  0  0  0  0  0  0  0  0  0  0
    2.7884   -0.1506    2.4051 H   0  0  0  0  0  0  0  0  0  0  0  0
    3.1902    3.0305   -0.1629 H   0  0  0  0  0  0  0  0  0  0  0  0
   -2.9303    4.4397    0.5806 H   0  0  0  0  0  0  0  0  0  0  0  0
   -3.4280    2.1499    1.2918 H   0  0  0  0  0  0  0  0  0  0  0  0
   -1.5768    2.8595   -0.1223 H   0  0  0  0  0  0  0  0  0  0  0  0
   -5.0339    0.6304    0.4410 H   0  0  0  0  0  0  0  0  0  0  0  0
   -4.1933    0.5853   -1.2105 H   0  0  0  0  0  0  0  0  0  0  0  0
   -4.9684    3.5990    0.8979 H   0  0  0  0  0  0  0  0  0  0  0  0
   -6.2084    2.2832   -0.5451 H   0  0  0  0  0  0  0  0  0  0  0  0
   -5.0730    2.5481   -1.8784 H   0  0  0  0  0  0  0  0  0  0  0  0
   -3.9805    5.4326   -1.3777 H   0  0  0  0  0  0  0  0  0  0  0  0
   -3.2918    4.2634   -2.3570 H   0  0  0  0  0  0  0  0  0  0  0  0
   -1.4460    0.8372    1.4454 H   0  0  0  0  0  0  0  0  0  0  0  0
   -4.3677   -1.5715   -0.1986 H   0  0  0  0  0  0  0  0  0  0  0  0
   -2.3157   -2.2417   -1.0184 H   0  0  0  0  0  0  0  0  0  0  0  0
   -2.2678   -0.0780   -1.2650 H   0  0  0  0  0  0  0  0  0  0  0  0
   -2.9378   -4.3625    2.7024 H   0  0  0  0  0  0  0  0  0  0  0  0
   -1.7182   -3.9326    1.4436 H   0  0  0  0  0  0  0  0  0  0  0  0
   -2.3461   -2.6818    2.6490 H   0  0  0  0  0  0  0  0  0  0  0  0
   -4.0850   -5.2208    0.4186 H   0  0  0  0  0  0  0  0  0  0  0  0
   -3.3243   -4.0610   -0.8058 H   0  0  0  0  0  0  0  0  0  0  0  0
   -5.0411   -3.9421   -0.3666 H   0  0  0  0  0  0  0  0  0  0  0  0
   -4.7036   -2.7673    3.0467 H   0  0  0  0  0  0  0  0  0  0  0  0
   -5.4150   -4.1769    2.1138 H   0  0  0  0  0  0  0  0  0  0  0  0
   -5.7445   -2.4867    1.5642 H   0  0  0  0  0  0  0  0  0  0  0  0
    0.1588   -0.9317    0.4743 H   0  0  0  0  0  0  0  0  0  0  0  0
    1.9954    1.5496   -1.8673 H   0  0  0  0  0  0  0  0  0  0  0  0
   -0.2217    1.3941   -1.4669 H   0  0  0  0  0  0  0  0  0  0  0  0
    2.5781   -0.3773   -3.1513 H   0  0  0  0  0  0  0  0  0  0  0  0
    0.7516   -0.0738   -3.2323 H   0  0  0  0  0  0  0  0  0  0  0  0
   -0.8689   -1.5908   -2.2964 H   0  0  0  0  0  0  0  0  0  0  0  0
   -0.3147   -2.6095   -0.9492 H   0  0  0  0  0  0  0  0  0  0  0  0
    1.9673   -1.9692   -1.1793 H   0  0  0  0  0  0  0  0  0  0  0  0
    1.3365   -2.5611   -2.7347 H   0  0  0  0  0  0  0  0  0  0  0  0
    3.5280   -0.2486   -1.1344 H   0  0  0  0  0  0  0  0  0  0  0  0
    5.0932    1.7643    1.8181 H   0  0  0  0  0  0  0  0  0  0  0  0
    7.8195    1.9406   -0.5268 H   0  0  0  0  0  0  0  0  0  0  0  0
    7.3511    1.7219    1.2414 H   0  0  0  0  0  0  0  0  0  0  0  0
    5.6138    2.6863   -0.2063 H   0  0  0  0  0  0  0  0  0  0  0  0
    8.3697   -0.4057    0.7564 H   0  0  0  0  0  0  0  0  0  0  0  0
    7.9403   -0.2693   -0.9550 H   0  0  0  0  0  0  0  0  0  0  0  0
    5.9619   -0.2590    2.3253 H   0  0  0  0  0  0  0  0  0  0  0  0
    5.8315   -1.1400   -0.6135 H   0  0  0  0  0  0  0  0  0  0  0  0
    6.6417   -1.8967    0.7682 H   0  0  0  0  0  0  0  0  0  0  0  0
    3.1209    0.3561    2.6758 H   0  0  0  0  0  0  0  0  0  0  0  0
    3.3310    3.3262    0.9551 H   0  0  0  0  0  0  0  0  0  0  0  0
   -1.5925    2.8557   -2.5598 H   0  0  0  0  0  0  0  0  0  0  0  0
   -3.9595   -0.3748   -1.6829 H   0  0  0  0  0  0  0  0  0  0  0  0
   -3.3012    0.8579   -3.3882 H   0  0  0  0  0  0  0  0  0  0  0  0
   -5.5149    1.1684   -0.4556 H   0  0  0  0  0  0  0  0  0  0  0  0
   -5.4570    1.2570   -2.2355 H   0  0  0  0  0  0  0  0  0  0  0  0
   -3.1132    4.2655   -1.5049 H   0  0  0  0  0  0  0  0  0  0  0  0
   -5.0047    3.3841   -0.2613 H   0  0  0  0  0  0  0  0  0  0  0  0
   -5.1633    3.4861   -2.0277 H   0  0  0  0  0  0  0  0  0  0  0  0
   -3.6718    4.0991   -3.5057 H   0  0  0  0  0  0  0  0  0  0  0  0
   -4.0269    2.4959   -3.9988 H   0  0  0  0  0  0  0  0  0  0  0  0
   -2.4832    1.6035    0.2216 H   0  0  0  0  0  0  0  0  0  0  0  0
   -4.5496   -2.2116    0.3189 H   0  0  0  0  0  0  0  0  0  0  0  0
   -1.9655   -2.5067   -0.1192 H   0  0  0  0  0  0  0  0  0  0  0  0
   -1.6881   -0.4209    1.2508 H   0  0  0  0  0  0  0  0  0  0  0  0
   -2.6018   -2.6283    4.0255 H   0  0  0  0  0  0  0  0  0  0  0  0
   -1.4208   -2.2588    2.7640 H   0  0  0  0  0  0  0  0  0  0  0  0
   -2.6103   -0.9798    3.3900 H   0  0  0  0  0  0  0  0  0  0  0  0
   -3.1884   -4.5323    2.8513 H   0  0  0  0  0  0  0  0  0  0  0  0
   -2.4268   -4.1907    1.1993 H   0  0  0  0  0  0  0  0  0  0  0  0
   -4.1830   -4.4060    1.3703 H   0  0  0  0  0  0  0  0  0  0  0  0
   -4.8330   -3.2277    3.6543 H   0  0  0  0  0  0  0  0  0  0  0  0
   -5.6791   -2.6915    2.1708 H   0  0  0  0  0  0  0  0  0  0  0  0
   -4.9738   -1.4404    3.3253 H   0  0  0  0  0  0  0  0  0  0  0  0
    0.0089   -1.3052   -0.0328 H   0  0  0  0  0  0  0  0  0  0  0  0
    1.5592    1.1609   -1.8222 H   0  0  0  0  0  0  0  0  0  0  0  0
   -0.1685    1.7183   -0.4385 H   0  0  0  0  0  0  0  0  0  0  0  0
    2.0002   -1.5042   -0.3702 H   0  0  0  0  0  0  0  0  0  0  0  0
    2.8776   -0.8171   -1.7371 H   0  0  0  0  0  0  0  0  0  0  0  0
   -1.2326   -1.1504   -2.4642 H   0  0  0  0  0  0  0  0  0  0  0  0
   -0.2039    0.3959   -2.4817 H   0  0  0  0  0  0  0  0  0  0  0  0
    0.7239   -2.4397   -2.0604 H   0  0  0  0  0  0  0  0  0  0  0  0
    1.2221   -1.1810   -3.2760 H   0  0  0  0  0  0  0  0  0  0  0  0
    3.0287    1.9697   -0.4731 H   0  0  0  0  0  0  0  0  0  0  0  0
    5.0513   -0.2750    2.3999 H   0  0  0  0  0  0  0  0  0  0  0  0
    7.9315    1.7781    1.2101 H   0  0  0  0  0  0  0  0  0  0  0  0
    7.4748    0.1510    1.7499 H   0  0  0  0  0  0  0  0  0  0  0  0
    5.7955    1.8830    2.2954 H   0  0  0  0  0  0  0  0  0  0  0  0
    8.1626   -0.2381   -0.4800 H   0  0  0  0  0  0  0  0  0  0  0  0
    7.4817    1.3802   -1.0337 H   0  0  0  0  0  0  0  0  0  0  0  0
    6.3808   -1.3464    0.9050 H   0  0  0  0  0  0  0  0  0  0  0  0
    6.3058   -1.0087   -1.5529 H   0  0  0  0  0  0  0  0  0  0  0  0
    5.3198    0.4804   -1.3029 H   0  0  0  0  0  0  0  0  0  0  0  0
    2.9266   -0.7565    2.9890 H   0  0  0  0  0  0  0  0  0  0  0  0
    2.4565    2.3121    2.0797 H   0  0  0  0  0  0  0  0  0  0  0  0
   -4.1939    4.5584   -0.9216 H   0  0  0  0  0  0  0  0  0  0  0  0
   -1.4969    1.9690   -1.1261 H   0  0  0  0  0  0  0  0  0  0  0  0
   -2.4840    3.5070    0.1453 H   0  0  0  0  0  0  0  0  0  0  0  0
   -3.2367    0.0226   -1.9896 H   0  0  0  0  0  0  0  0  0  0  0  0
   -2.6343    1.3775   -2.9605 H   0  0  0  0  0  0  0  0  0  0  0  0
   -5.0651    3.4447   -2.9667 H   0  0  0  0  0  0  0  0  0  0  0  0
   -5.3085    1.0676   -1.4547 H   0  0  0  0  0  0  0  0  0  0  0  0
   -4.9804    1.2305   -3.1871 H   0  0  0  0  0  0  0  0  0  0  0  0
   -2.6053    5.1814   -2.2541 H   0  0  0  0  0  0  0  0  0  0  0  0
   -3.0467    4.0058   -3.3437 H   0  0  0  0  0  0  0  0  0  0  0  0
   -1.8222    1.1281    1.1457 H   0  0  0  0  0  0  0  0  0  0  0  0
   -4.4820   -1.6000   -0.7626 H   0  0  0  0  0  0  0  0  0  0  0  0
   -2.4154   -2.0101    1.2934 H   0  0  0  0  0  0  0  0  0  0  0  0
   -1.5603   -0.6460   -1.1700 H   0  0  0  0  0  0  0  0  0  0  0  0
   -4.7665   -4.5176    1.5337 H   0  0  0  0  0  0  0  0  0  0  0  0
   -5.3854   -3.9803   -0.1250 H   0  0  0  0  0  0  0  0  0  0  0  0
   -3.6245   -3.9379    0.2887 H   0  0  0  0  0  0  0  0  0  0  0  0
   -3.6217   -1.3672    2.8034 H   0  0  0  0  0  0  0  0  0  0  0  0
   -3.3109   -3.1923    2.6905 H   0  0  0  0  0  0  0  0  0  0  0  0
   -4.8215   -2.5704    3.3804 H   0  0  0  0  0  0  0  0  0  0  0  0
   -6.1797   -1.1870    2.2394 H   0  0  0  0  0  0  0  0  0  0  0  0
   -6.7795   -2.8242    1.6473 H   0  0  0  0  0  0  0  0  0  0  0  0
   -6.5729   -1.4330    0.5129 H   0  0  0  0  0  0  0  0  0  0  0  0
   -0.7503   -0.8780    1.7257 H   0  0  0  0  0  0  0  0  0  0  0  0
    2.0977   -1.1959   -0.2815 H   0  0  0  0  0  0  0  0  0  0  0  0
    0.5753    0.4460   -0.6897 H   0  0  0  0  0  0  0  0  0  0  0  0
    1.1201   -1.0811    2.5703 H   0  0  0  0  0  0  0  0  0  0  0  0
    2.6473   -1.8990    2.1928 H   0  0  0  0  0  0  0  0  0  0  0  0
    0.3941   -2.1821   -0.8135 H   0  0  0  0  0  0  0  0  0  0  0  0
   -0.9022   -2.9656    0.1248 H   0  0  0  0  0  0  0  0  0  0  0  0
    0.4446   -3.2431    2.0726 H   0  0  0  0  0  0  0  0  0  0  0  0
    1.7174   -3.4654    0.7715 H   0  0  0  0  0  0  0  0  0  0  0  0
    2.4029    1.2699    1.2121 H   0  0  0  0  0  0  0  0  0  0  0  0
    6.5381    0.1819    0.5873 H   0  0  0  0  0  0  0  0  0  0  0  0
    7.2401    3.2870   -1.0354 H   0  0  0  0  0  0  0  0  0  0  0  0
    7.7943    2.1448    0.2114 H   0  0  0  0  0  0  0  0  0  0  0  0
    5.6478    2.4944    0.8426 H   0  0  0  0  0  0  0  0  0  0  0  0
    8.2589    0.5198   -1.2854 H   0  0  0  0  0  0  0  0  0  0  0  0
    7.9789    1.7367   -2.5421 H   0  0  0  0  0  0  0  0  0  0  0  0
    5.8302   -1.2667   -1.1204 H   0  0  0  0  0  0  0  0  0  0  0  0
    5.7146    1.1052   -2.9379 H   0  0  0  0  0  0  0  0  0  0  0  0
    6.7394   -0.3379   -2.9206 H   0  0  0  0  0  0  0  0  0  0  0  0
    5.7961   -0.9631    2.3519 H   0  0  0  0  0  0  0  0  0  0  0  0
    4.0094    1.1710    3.0779 H   0  0  0  0  0  0  0  0  0  0  0  0
  1  3  1  0
  2  3  1  0
  2  4  1  0
  1  5  1  0
  4  6  1  0
  5  6  1  0
  1  7  1  0
  2  8  1  0
  8  9  1  0
  9 10  1  0
 10 11  1  0
  8 12  1  0
 11 12  1  0
 10 13  1  0
 13 14  1  0
 13 15  1  0
 13 16  1  0
 12 17  1  0
 17 19  1  0
 18 19  1  0
 18 20  1  0
 17 21  1  0
 20 22  1  0
 21 22  1  0
 19 23  1  0
 18 24  1  0
 24 25  1  0
 25 26  1  0
 26 28  1  0
 27 28  1  0
 27 29  1  0
 26 30  1  0
 29 31  1  0
 30 31  1  0
 30 32  1  0
 28 33  1  0
 25 34  1  0
 25 35  1  0
 36 38  1  0
 37 38  1  0
 37 39  1  0
 36 40  1  0
 39 41  1  0
 40 41  1  0
 36 42  1  0
 37 43  1  0
 43 44  1  0
 44 45  1  0
 45 46  1  0
 43 47  1  0
 46 47  1  0
 45 48  1  0
 48 49  1  0
 48 50  1  0
 48 51  1  0
 47 52  1  0
 52 54  1  0
 53 54  1  0
 53 55  1  0
 52 56  1  0
 55 57  1  0
 56 57  1  0
 54 58  1  0
 53 59  1  0
 59 60  1  0
 60 61  1  0
 61 63  1  0
 62 63  1  0
 62 64  1  0
 61 65  1  0
 64 66  1  0
 65 66  1  0
 65 67  1  0
 63 68  1  0
 60 69  1  0
 60 70  1  0
 71 73  1  0
 72 73  1  0
 72 74  1  0
 71 75  1  0
 74 76  1  0
 75 76  1  0
 71 77  1  0
 72 78  1  0
 78 79  1  0
 79 80  1  0
 80 81  1  0
 78 82  1  0
 81 82  1  0
 80 83  1  0
 83 84  1  0
 83 85  1  0
 83 86  1  0
 82 87  1  0
 87 89  1  0
 88 89  1  0
 88 90  1  0
 87 91  1  0
 90 92  1  0
 91 92  1  0
 89 93  1  0
 88 94  1  0
 94 95  1  0
 95 96  1  0
 96 98  1  0
 97 98  1  0
 97 99  1  0
 96100  1  0
 99101  1  0
100101  1  0
100102  1  0
 98103  1  0
 95104  1  0
 95105  1  0
106108  1  0
107108  1  0
107109  1  0
106110  1  0
109111  1  0
110111  1  0
106112  1  0
107113  1  0
113114  1  0
114115  1  0
115116  1  0
113117  1  0
116117  1  0
115118  1  0
118119  1  0
118120  1  0
118121  1  0
117122  1  0
122124  1  0
123124  1  0
123125  1  0
122126  1  0
125127  1  0
126127  1  0
124128  1  0
123129  1  0
129130  1  0
130131  1  0
131133  1  0
132133  1  0
132134  1  0
131135  1  0
134136  1  0
135136  1  0
135137  1  0
133138  1  0
130139  1  0
130140  1  0
  1141  1  0
  2142  1  6
  3143  1  0
  4144  1  0
  4145  1  0
  5146  1  0
  6147  1  0
  6148  1  0
  7149  1  0
  7150  1  0
  8151  1  0
 10152  1  6
 11153  1  0
 12154  1  0
 14155  1  0
 14156  1  0
 14157  1  0
 15158  1  0
 15159  1  0
 15160  1  0
 16161  1  0
 16162  1  0
 16163  1  0
 17164  1  1
 18165  1  6
 19166  1  0
 20167  1  0
 20168  1  0
 21169  1  0
 21170  1  0
 22171  1  0
 22172  1  0
 24173  1  0
 26174  1  0
 27175  1  0
 27176  1  0
 28177  1  0
 29178  1  0
 29179  1  0
 30180  1  0
 31181  1  0
 31182  1  0
 34183  1  0
 35184  1  0
 36185  1  0
 37186  1  0
 38187  1  0
 39188  1  0
 39189  1  0
 40190  1  0
 41191  1  0
 41192  1  0
 42193  1  0
 42194  1  0
 43195  1  0
 45196  1  6
 46197  1  0
 47198  1  6
 49199  1  0
 49200  1  0
 49201  1  0
 50202  1  0
 50203  1  0
 50204  1  0
 51205  1  0
 51206  1  0
 51207  1  0
 52208  1  1
 53209  1  0
 54210  1  0
 55211  1  0
 55212  1  0
 56213  1  0
 56214  1  0
 57215  1  0
 57216  1  0
 59217  1  0
 61218  1  0
 62219  1  0
 62220  1  0
 63221  1  0
 64222  1  0
 64223  1  0
 65224  1  0
 66225  1  0
 66226  1  0
 69227  1  0
 70228  1  0
 71229  1  0
 72230  1  6
 73231  1  0
 74232  1  0
 74233  1  0
 75234  1  0
 76235  1  0
 76236  1  0
 77237  1  0
 77238  1  0
 78239  1  1
 80240  1  0
 81241  1  0
 82242  1  0
 84243  1  0
 84244  1  0
 84245  1  0
 85246  1  0
 85247  1  0
 85248  1  0
 86249  1  0
 86250  1  0
 86251  1  0
 87252  1  1
 88253  1  6
 89254  1  0
 90255  1  0
 90256  1  0
 91257  1  0
 91258  1  0
 92259  1  0
 92260  1  0
 94261  1  0
 96262  1  0
 97263  1  0
 97264  1  0
 98265  1  0
 99266  1  0
 99267  1  0
100268  1  0
101269  1  0
101270  1  0
104271  1  0
105272  1  0
106273  1  0
107274  1  6
108275  1  0
109276  1  0
109277  1  0
110278  1  0
111279  1  0
111280  1  0
112281  1  0
112282  1  0
113283  1  1
115284  1  6
116285  1  0
117286  1  6
119287  1  0
119288  1  0
119289  1  0
120290  1  0
120291  1  0
120292  1  0
121293  1  0
121294  1  0
121295  1  0
122296  1  1
123297  1  6
124298  1  0
125299  1  0
125300  1  0
126301  1  0
126302  1  0
127303  1  0
127304  1  0
129305  1  0
131306  1  0
132307  1  0
132308  1  0
133309  1  0
134310  1  0
134311  1  0
135312  1  1
136313  1  0
136314  1  0
139315  1  0
140316  1  0
M  END
>  <PDBID>  (1) 
5HIE

>  <PDB ID>  (1) 
5HIE

>  <Generic Name>  (1) 
Dabrafenib

>  <Brand Name>  (1) 
Tafinlar

>  <DrugBank ID>  (1) 
DB08912

>  <ATC Codes>  (1) 
L01XE23

>  <Ligand ID>  (1) 
P06

>  <Target Name>  (1) 
RAF proto-oncogene serine/threonine-protein kinase

>  <UniProt ID>  (1) 
P04049

>  <PDB ID.1>  (1) 
5HIE

>  <Seq. Identity>  (1) 
77%

$$$$
