PDB_DB04786_02
     RDKit          3D

192199  0  0  0  0  0  0  0  0999 V2000
   14.2033    0.9403    5.8018 O   0  0  0  0  0  0  0  0  0  0  0  0
   14.4740    1.5457    4.3820 S   0  0  0  0  0  0  0  0  0  0  0  0
   15.8517    0.6089    3.7167 O   0  0  0  0  0  0  0  0  0  0  0  0
   14.9304    3.0134    4.2931 O   0  0  0  0  0  0  0  0  0  0  0  0
   13.2055    1.1751    3.2464 C   0  0  0  0  0  0  0  0  0  0  0  0
   13.1286   -0.3188    3.0306 C   0  0  0  0  0  0  0  0  0  0  0  0
   11.8000   -0.5594    2.2508 C   0  0  2  0  0  0  0  0  0  0  0  0
   11.9479   -2.0684    1.3911 S   0  0  0  0  0  0  0  0  0  0  0  0
   10.3639   -2.6738    1.1553 O   0  0  0  0  0  0  0  0  0  0  0  0
   12.9034   -2.4934    0.6519 O   0  0  0  0  0  0  0  0  0  0  0  0
   12.1192   -3.0854    3.0649 O   0  0  0  0  0  0  0  0  0  0  0  0
   13.6024    1.6955    1.8522 C   0  0  0  0  0  0  0  0  0  0  0  0
   12.3805    1.5728    0.9656 C   0  0  0  0  0  0  0  0  0  0  0  0
   12.8040    1.4887   -0.4336 C   0  0  1  0  0  0  0  0  0  0  0  0
   14.4209    0.8886   -0.7288 S   0  0  0  0  0  0  0  0  0  0  0  0
   15.4609    2.1351   -0.1125 O   0  0  0  0  0  0  0  0  0  0  0  0
   14.8527   -0.3233   -0.6899 O   0  0  0  0  0  0  0  0  0  0  0  0
   14.4529    1.4772   -2.5392 O   0  0  0  0  0  0  0  0  0  0  0  0
   11.7985    0.7555   -1.3381 C   0  0  0  0  0  0  0  0  0  0  0  0
   10.4510    1.1176   -0.7672 C   0  0  0  0  0  0  0  0  0  0  0  0
   11.3635    0.6150    1.4983 C   0  0  0  0  0  0  0  0  0  0  0  0
   10.3159    0.2344    0.4694 C   0  0  1  0  0  0  0  0  0  0  0  0
    9.0041    0.2287    0.9108 N   0  0  0  0  0  0  0  0  0  0  0  0
    7.8875   -0.3810    0.4275 C   0  0  0  0  0  0  0  0  0  0  0  0
    6.7923   -0.0545    1.3389 O   0  0  0  0  0  0  0  0  0  0  0  0
    7.3754   -0.2945   -0.9535 C   0  0  2  0  0  0  0  0  0  0  0  0
    5.9671   -1.0469   -0.8707 C   0  0  0  0  0  0  0  0  0  0  0  0
    8.1674   -1.3065   -1.8360 C   0  0  0  0  0  0  0  0  0  0  0  0
    7.6158   -1.3291   -3.2277 C   0  0  0  0  0  0  0  0  0  0  0  0
    6.2456   -1.9984   -3.1520 C   0  0  0  0  0  0  0  0  0  0  0  0
    5.6389   -1.9292   -4.5323 C   0  0  0  0  0  0  0  0  0  0  0  0
    5.4049   -1.0926   -2.2367 C   0  0  0  0  0  0  0  0  0  0  0  0
    4.0542   -1.2393   -2.3989 N   0  0  0  0  0  0  0  0  0  0  0  0
    3.2627   -2.2966   -1.9802 C   0  0  0  0  0  0  0  0  0  0  0  0
    1.9665   -2.2878   -2.5370 O   0  0  0  0  0  0  0  0  0  0  0  0
    3.1140   -2.3817   -0.4861 C   0  0  0  0  0  0  0  0  0  0  0  0
    2.4675   -1.1058    0.0543 C   0  0  0  0  0  0  0  0  0  0  0  0
    2.3490   -3.6075   -0.0571 C   0  0  0  0  0  0  0  0  0  0  0  0
    1.7175   -3.5005    1.2928 C   0  0  0  0  0  0  0  0  0  0  0  0
    0.9017   -2.2495    1.5075 C   0  0  0  0  0  0  0  0  0  0  0  0
    0.9984   -1.4113    0.2863 C   0  0  0  0  0  0  0  0  0  0  0  0
    0.1319   -0.2948    0.1760 N   0  0  0  0  0  0  0  0  0  0  0  0
    0.3328    0.7858    1.0714 C   0  0  0  0  0  0  0  0  0  0  0  0
    1.6778    1.2175    0.9199 O   0  0  0  0  0  0  0  0  0  0  0  0
   -0.4883    1.8902    0.7403 N   0  0  0  0  0  0  0  0  0  0  0  0
   -1.8767    1.8332    0.9659 C   0  0  0  0  0  0  0  0  0  0  0  0
   -2.6795    0.8063    0.2500 C   0  0  0  0  0  0  0  0  0  0  0  0
   -2.4265    3.2000    0.4980 C   0  0  0  0  0  0  0  0  0  0  0  0
   -2.0159    3.3497   -0.9233 C   0  0  0  0  0  0  0  0  0  0  0  0
   -2.1659    2.1600   -1.7985 C   0  0  0  0  0  0  0  0  0  0  0  0
   -2.8429    0.9665   -1.2115 C   0  0  2  0  0  0  0  0  0  0  0  0
   -4.3070    0.9080   -1.6865 C   0  0  0  0  0  0  0  0  0  0  0  0
   -4.3134    1.0304   -3.1033 O   0  0  0  0  0  0  0  0  0  0  0  0
   -4.9480    2.1063   -1.2271 N   0  0  0  0  0  0  0  0  0  0  0  0
   -6.2752    2.3405   -1.6372 C   0  0  0  0  0  0  0  0  0  0  0  0
   -7.3369    1.3740   -1.1408 C   0  0  0  0  0  0  0  0  0  0  0  0
   -6.6936    3.7282   -1.2034 C   0  0  0  0  0  0  0  0  0  0  0  0
   -7.8020    4.3103   -2.0332 C   0  0  0  0  0  0  0  0  0  0  0  0
   -6.9940    3.7768    0.2752 C   0  0  0  0  0  0  0  0  0  0  0  0
   -6.6421    2.5005    0.9738 C   0  0  0  0  0  0  0  0  0  0  0  0
   -7.4346    1.3264    0.3323 C   0  0  0  0  0  0  0  0  0  0  0  0
   -8.7343    1.2581    1.0110 C   0  0  0  0  0  0  0  0  0  0  0  0
   -8.3865    1.2724    2.4309 O   0  0  0  0  0  0  0  0  0  0  0  0
   -9.6585    0.2355    0.8253 N   0  0  0  0  0  0  0  0  0  0  0  0
  -10.3332    0.0092   -0.3967 C   0  0  0  0  0  0  0  0  0  0  0  0
  -11.1688    1.2564   -0.6702 C   0  0  0  0  0  0  0  0  0  0  0  0
  -12.1119    1.1059   -1.8095 C   0  0  0  0  0  0  0  0  0  0  0  0
  -12.8104   -0.1880   -1.8968 C   0  0  2  0  0  0  0  0  0  0  0  0
  -14.4596    0.0415   -2.3159 S   0  0  0  0  0  0  0  0  0  0  0  0
  -14.3662    0.8302   -3.8627 O   0  0  0  0  0  0  0  0  0  0  0  0
  -14.9796   -1.5519   -2.9263 O   0  0  0  0  0  0  0  0  0  0  0  0
  -15.3435    0.5681   -1.4178 O   0  0  0  0  0  0  0  0  0  0  0  0
  -11.1540   -1.2312   -0.4305 C   0  0  0  0  0  0  0  0  0  0  0  0
  -12.6288   -1.0359   -0.6817 C   0  0  0  0  0  0  0  0  0  0  0  0
  -13.4511   -0.7038    0.5025 C   0  0  0  0  0  0  0  0  0  0  0  0
  -10.9904   -2.2224    0.6706 C   0  0  1  0  0  0  0  0  0  0  0  0
   -9.3805   -2.7200    0.9901 S   0  0  0  0  0  0  0  0  0  0  0  0
   -9.7568   -4.1727    2.1465 O   0  0  0  0  0  0  0  0  0  0  0  0
   -8.4997   -3.2159    0.0645 O   0  0  0  0  0  0  0  0  0  0  0  0
   -8.8017   -1.7639    2.3078 O   0  0  0  0  0  0  0  0  0  0  0  0
  -11.7600   -1.9624    1.9185 C   0  0  0  0  0  0  0  0  0  0  0  0
  -12.8943   -1.0223    1.8341 C   0  0  2  0  0  0  0  0  0  0  0  0
  -14.2702   -1.7264    2.8557 S   0  0  0  0  0  0  0  0  0  0  0  0
  -15.3548   -0.1974    2.6285 O   0  0  0  0  0  0  0  0  0  0  0  0
  -14.9772   -2.7717    2.2309 O   0  0  0  0  0  0  0  0  0  0  0  0
  -13.8473   -1.5086    4.3059 O   0  0  0  0  0  0  0  0  0  0  0  0
   14.8426    0.1992    6.0368 H   0  0  0  0  0  0  0  0  0  0  0  0
   16.0727    1.1387    2.9041 H   0  0  0  0  0  0  0  0  0  0  0  0
   15.4139    3.3750    5.0853 H   0  0  0  0  0  0  0  0  0  0  0  0
   12.2621    1.5870    3.5872 H   0  0  0  0  0  0  0  0  0  0  0  0
   13.9812   -0.6512    2.4045 H   0  0  0  0  0  0  0  0  0  0  0  0
   13.1583   -0.8703    3.9690 H   0  0  0  0  0  0  0  0  0  0  0  0
   11.1147   -0.7770    3.1304 H   0  0  0  0  0  0  0  0  0  0  0  0
   10.3435   -3.2111    0.3324 H   0  0  0  0  0  0  0  0  0  0  0  0
   13.4198   -2.6152   -0.1710 H   0  0  0  0  0  0  0  0  0  0  0  0
   13.0720   -2.9159    3.1431 H   0  0  0  0  0  0  0  0  0  0  0  0
   13.9781    2.7045    1.9897 H   0  0  0  0  0  0  0  0  0  0  0  0
   14.4318    1.0345    1.5558 H   0  0  0  0  0  0  0  0  0  0  0  0
   11.9057    2.6141    1.0824 H   0  0  0  0  0  0  0  0  0  0  0  0
   12.7925    2.5250   -0.9221 H   0  0  0  0  0  0  0  0  0  0  0  0
   15.0648    3.0152   -0.3995 H   0  0  0  0  0  0  0  0  0  0  0  0
   15.3788   -1.0137   -0.2112 H   0  0  0  0  0  0  0  0  0  0  0  0
   14.2473    2.4163   -2.3796 H   0  0  0  0  0  0  0  0  0  0  0  0
   11.8282    1.1293   -2.3819 H   0  0  0  0  0  0  0  0  0  0  0  0
   11.9944   -0.3295   -1.3933 H   0  0  0  0  0  0  0  0  0  0  0  0
    9.6041    1.0616   -1.4171 H   0  0  0  0  0  0  0  0  0  0  0  0
   10.5571    2.1726   -0.3300 H   0  0  0  0  0  0  0  0  0  0  0  0
   10.7464    1.2307    2.2485 H   0  0  0  0  0  0  0  0  0  0  0  0
   10.5720   -0.7987    0.0526 H   0  0  0  0  0  0  0  0  0  0  0  0
    8.8676    0.6995    1.8630 H   0  0  0  0  0  0  0  0  0  0  0  0
    7.9752   -1.5147    0.7041 H   0  0  0  0  0  0  0  0  0  0  0  0
    6.8637    0.9293    1.3946 H   0  0  0  0  0  0  0  0  0  0  0  0
    7.2076    0.6088   -1.4454 H   0  0  0  0  0  0  0  0  0  0  0  0
    6.2364   -1.9897   -0.3973 H   0  0  0  0  0  0  0  0  0  0  0  0
    5.3828   -0.4236   -0.2053 H   0  0  0  0  0  0  0  0  0  0  0  0
    9.2054   -1.1181   -1.8268 H   0  0  0  0  0  0  0  0  0  0  0  0
    7.9133   -2.3273   -1.4004 H   0  0  0  0  0  0  0  0  0  0  0  0
    7.5173   -0.2974   -3.6150 H   0  0  0  0  0  0  0  0  0  0  0  0
    8.2509   -1.9602   -3.8550 H   0  0  0  0  0  0  0  0  0  0  0  0
    6.3608   -2.9983   -2.7443 H   0  0  0  0  0  0  0  0  0  0  0  0
    6.4041   -1.9522   -5.3318 H   0  0  0  0  0  0  0  0  0  0  0  0
    4.9673   -2.8119   -4.7017 H   0  0  0  0  0  0  0  0  0  0  0  0
    5.0883   -0.9708   -4.6817 H   0  0  0  0  0  0  0  0  0  0  0  0
    5.6633   -0.0393   -2.6705 H   0  0  0  0  0  0  0  0  0  0  0  0
    3.6840   -0.6942   -3.2228 H   0  0  0  0  0  0  0  0  0  0  0  0
    3.6581   -3.3186   -2.3089 H   0  0  0  0  0  0  0  0  0  0  0  0
    1.9570   -1.8881   -3.4324 H   0  0  0  0  0  0  0  0  0  0  0  0
    4.0992   -2.4423   -0.0183 H   0  0  0  0  0  0  0  0  0  0  0  0
    2.5339   -0.3511   -0.7377 H   0  0  0  0  0  0  0  0  0  0  0  0
    2.9929   -0.7692    0.9465 H   0  0  0  0  0  0  0  0  0  0  0  0
    1.5961   -3.8525   -0.8077 H   0  0  0  0  0  0  0  0  0  0  0  0
    3.1305   -4.4297    0.0125 H   0  0  0  0  0  0  0  0  0  0  0  0
    1.1469   -4.4167    1.5670 H   0  0  0  0  0  0  0  0  0  0  0  0
    2.5645   -3.4820    2.0362 H   0  0  0  0  0  0  0  0  0  0  0  0
    1.3255   -1.7370    2.4211 H   0  0  0  0  0  0  0  0  0  0  0  0
   -0.1478   -2.5881    1.7246 H   0  0  0  0  0  0  0  0  0  0  0  0
    0.7226   -2.0924   -0.5803 H   0  0  0  0  0  0  0  0  0  0  0  0
   -0.1779   -0.0551   -0.7657 H   0  0  0  0  0  0  0  0  0  0  0  0
    0.2174    0.5228    2.1407 H   0  0  0  0  0  0  0  0  0  0  0  0
    1.7022    2.0948    1.3900 H   0  0  0  0  0  0  0  0  0  0  0  0
   -0.0775    2.8237    0.8120 H   0  0  0  0  0  0  0  0  0  0  0  0
   -2.1477    1.7844    2.0569 H   0  0  0  0  0  0  0  0  0  0  0  0
   -2.2833   -0.2123    0.5108 H   0  0  0  0  0  0  0  0  0  0  0  0
   -3.7144    0.8395    0.7084 H   0  0  0  0  0  0  0  0  0  0  0  0
   -3.4679    3.3481    0.7415 H   0  0  0  0  0  0  0  0  0  0  0  0
   -1.8456    3.9458    1.1093 H   0  0  0  0  0  0  0  0  0  0  0  0
   -2.4427    4.2932   -1.3822 H   0  0  0  0  0  0  0  0  0  0  0  0
   -0.9059    3.5877   -0.8991 H   0  0  0  0  0  0  0  0  0  0  0  0
   -1.1795    1.8146   -2.2356 H   0  0  0  0  0  0  0  0  0  0  0  0
   -2.7513    2.4546   -2.7101 H   0  0  0  0  0  0  0  0  0  0  0  0
   -2.3874    0.0463   -1.6991 H   0  0  0  0  0  0  0  0  0  0  0  0
   -4.7179   -0.0318   -1.3928 H   0  0  0  0  0  0  0  0  0  0  0  0
   -4.0299    0.1145   -3.4167 H   0  0  0  0  0  0  0  0  0  0  0  0
   -4.3756    2.9180   -1.5757 H   0  0  0  0  0  0  0  0  0  0  0  0
   -6.3993    2.3257   -2.7623 H   0  0  0  0  0  0  0  0  0  0  0  0
   -7.2671    0.3980   -1.6564 H   0  0  0  0  0  0  0  0  0  0  0  0
   -8.2907    1.8463   -1.5357 H   0  0  0  0  0  0  0  0  0  0  0  0
   -5.7817    4.3745   -1.3459 H   0  0  0  0  0  0  0  0  0  0  0  0
   -8.5591    4.8760   -1.4508 H   0  0  0  0  0  0  0  0  0  0  0  0
   -7.3888    5.0661   -2.7653 H   0  0  0  0  0  0  0  0  0  0  0  0
   -8.2543    3.5233   -2.6785 H   0  0  0  0  0  0  0  0  0  0  0  0
   -6.4633    4.6016    0.8018 H   0  0  0  0  0  0  0  0  0  0  0  0
   -8.0676    3.9779    0.4186 H   0  0  0  0  0  0  0  0  0  0  0  0
   -5.5794    2.2853    1.0407 H   0  0  0  0  0  0  0  0  0  0  0  0
   -7.0194    2.5682    2.0113 H   0  0  0  0  0  0  0  0  0  0  0  0
   -6.7770    0.4330    0.6442 H   0  0  0  0  0  0  0  0  0  0  0  0
   -9.2441    2.2617    0.9275 H   0  0  0  0  0  0  0  0  0  0  0  0
   -7.5935    0.6834    2.5097 H   0  0  0  0  0  0  0  0  0  0  0  0
  -10.4140    0.3530    1.5736 H   0  0  0  0  0  0  0  0  0  0  0  0
   -9.5550   -0.0044   -1.2166 H   0  0  0  0  0  0  0  0  0  0  0  0
  -10.4794    2.0863   -0.8982 H   0  0  0  0  0  0  0  0  0  0  0  0
  -11.6871    1.6178    0.2711 H   0  0  0  0  0  0  0  0  0  0  0  0
  -12.8625    1.9462   -1.7353 H   0  0  0  0  0  0  0  0  0  0  0  0
  -11.6141    1.3164   -2.8026 H   0  0  0  0  0  0  0  0  0  0  0  0
  -12.3444   -0.7918   -2.7389 H   0  0  0  0  0  0  0  0  0  0  0  0
  -15.0805    1.5055   -3.8404 H   0  0  0  0  0  0  0  0  0  0  0  0
  -14.2267   -1.8201   -3.5239 H   0  0  0  0  0  0  0  0  0  0  0  0
  -16.1701    0.2251   -0.9716 H   0  0  0  0  0  0  0  0  0  0  0  0
  -10.8093   -1.7859   -1.3684 H   0  0  0  0  0  0  0  0  0  0  0  0
  -12.9863   -2.0761   -1.0104 H   0  0  0  0  0  0  0  0  0  0  0  0
  -13.7124    0.3957    0.4841 H   0  0  0  0  0  0  0  0  0  0  0  0
  -14.4765   -1.1892    0.4250 H   0  0  0  0  0  0  0  0  0  0  0  0
  -11.5027   -3.1683    0.2313 H   0  0  0  0  0  0  0  0  0  0  0  0
  -10.4995   -4.5552    1.6145 H   0  0  0  0  0  0  0  0  0  0  0  0
   -8.3443   -4.1368   -0.2715 H   0  0  0  0  0  0  0  0  0  0  0  0
   -8.0324   -2.2298    2.7121 H   0  0  0  0  0  0  0  0  0  0  0  0
  -12.1390   -2.9396    2.3549 H   0  0  0  0  0  0  0  0  0  0  0  0
  -11.0568   -1.6078    2.7289 H   0  0  0  0  0  0  0  0  0  0  0  0
  -12.6660   -0.1003    2.4181 H   0  0  0  0  0  0  0  0  0  0  0  0
  -15.7831   -0.4337    1.7828 H   0  0  0  0  0  0  0  0  0  0  0  0
  -15.8860   -2.8203    1.8020 H   0  0  0  0  0  0  0  0  0  0  0  0
  -12.8938   -1.7035    4.5619 H   0  0  0  0  0  0  0  0  0  0  0  0
  2  1  1  0
  2  3  1  0
  2  4  1  0
  2  5  1  0
  5  6  1  0
  6  7  1  0
  7  8  1  0
  8  9  1  0
  8 10  1  0
  8 11  1  0
  5 12  1  0
 12 13  1  0
 13 14  1  0
 14 15  1  0
 15 16  1  0
 15 17  1  0
 15 18  1  0
 14 19  1  0
 19 20  1  0
  7 21  1  0
 13 21  1  0
 20 22  1  0
 21 22  1  0
 22 23  1  0
 23 24  1  0
 24 25  1  0
 24 26  1  0
 26 27  1  0
 26 28  1  0
 28 29  1  0
 29 30  1  0
 30 31  1  0
 27 32  1  0
 30 32  1  0
 32 33  1  0
 33 34  1  0
 34 35  1  0
 34 36  1  0
 36 37  1  0
 36 38  1  0
 38 39  1  0
 39 40  1  0
 37 41  1  0
 40 41  1  0
 41 42  1  0
 42 43  1  0
 43 44  1  0
 43 45  1  0
 45 46  1  0
 46 47  1  0
 46 48  1  0
 48 49  1  0
 49 50  1  0
 47 51  1  0
 50 51  1  0
 51 52  1  0
 52 53  1  0
 52 54  1  0
 54 55  1  0
 55 56  1  0
 55 57  1  0
 57 58  1  0
 57 59  1  0
 59 60  1  0
 56 61  1  0
 60 61  1  0
 61 62  1  0
 62 63  1  0
 62 64  1  0
 64 65  1  0
 65 66  1  0
 66 67  1  0
 67 68  1  0
 68 69  1  0
 69 70  1  0
 69 71  1  0
 69 72  1  0
 65 73  1  0
 68 74  1  0
 73 74  1  0
 74 75  1  0
 73 76  1  0
 76 77  1  0
 77 78  1  0
 77 79  1  0
 77 80  1  0
 76 81  1  0
 75 82  1  0
 81 82  1  0
 82 83  1  0
 83 84  1  0
 83 85  1  0
 83 86  1  0
  1 87  1  0
  3 88  1  0
  4 89  1  0
  5 90  1  0
  6 91  1  0
  6 92  1  0
  7 93  1  1
  9 94  1  0
 10 95  1  0
 11 96  1  0
 12 97  1  0
 12 98  1  0
 13 99  1  0
 14100  1  6
 16101  1  0
 17102  1  0
 18103  1  0
 19104  1  0
 19105  1  0
 20106  1  0
 20107  1  0
 21108  1  0
 22109  1  6
 23110  1  0
 24111  1  0
 25112  1  0
 26113  1  6
 27114  1  0
 27115  1  0
 28116  1  0
 28117  1  0
 29118  1  0
 29119  1  0
 30120  1  0
 31121  1  0
 31122  1  0
 31123  1  0
 32124  1  0
 33125  1  0
 34126  1  0
 35127  1  0
 36128  1  0
 37129  1  0
 37130  1  0
 38131  1  0
 38132  1  0
 39133  1  0
 39134  1  0
 40135  1  0
 40136  1  0
 41137  1  0
 42138  1  0
 43139  1  0
 44140  1  0
 45141  1  0
 46142  1  0
 47143  1  0
 47144  1  0
 48145  1  0
 48146  1  0
 49147  1  0
 49148  1  0
 50149  1  0
 50150  1  0
 51151  1  6
 52152  1  0
 53153  1  0
 54154  1  0
 55155  1  0
 56156  1  0
 56157  1  0
 57158  1  0
 58159  1  0
 58160  1  0
 58161  1  0
 59162  1  0
 59163  1  0
 60164  1  0
 60165  1  0
 61166  1  0
 62167  1  0
 63168  1  0
 64169  1  0
 65170  1  0
 66171  1  0
 66172  1  0
 67173  1  0
 67174  1  0
 68175  1  6
 70176  1  0
 71177  1  0
 72178  1  0
 73179  1  0
 74180  1  0
 75181  1  0
 75182  1  0
 76183  1  6
 78184  1  0
 79185  1  0
 80186  1  0
 81187  1  0
 81188  1  0
 82189  1  1
 84190  1  0
 85191  1  0
 86192  1  0
M  END
>  <PDBID>  (1) 
2NYR

>  <PDB ID>  (1) 
2NYR

>  <Generic Name>  (1) 
Suramin

>  <Brand Name>  (1) 
309 Fourneau#Antrypol#Bayer 205#Belganyl#Germanin#Moranyl#Naganin#Naganine#Naganol#Naphuride

>  <DrugBank ID>  (1) 
DB04786

>  <ATC Codes>  (1) 
P01CX02

>  <Ligand ID>  (1) 
SVR

>  <Target Name>  (1) 
NAD-dependent protein deacylase sirtuin-5, mitochondrial

>  <UniProt ID>  (1) 
Q9NXA8

>  <PDB ID.1>  (1) 
2NYR

>  <Seq. Identity>  (1) 
100%

$$$$
