PDB_DB01606_02
     RDKit          3D

 42 44  0  0  0  0  0  0  0  0999 V2000
   -0.4243   -1.4327    0.3804 S   0  0  0  0  0  0  0  0  0  0  0  0
    0.0493    0.4307    0.1578 C   0  0  1  0  0  0  0  0  0  0  0  0
   -1.2214    0.7754   -0.5414 C   0  0  2  0  0  0  0  0  0  0  0  0
   -2.0980   -0.9590    0.7693 C   0  0  2  0  0  0  0  0  0  0  0  0
   -3.1407   -1.7333    0.0140 C   0  0  0  0  0  0  0  0  0  0  0  0
   -3.1275   -0.5494   -0.9087 C   0  0  2  0  0  0  0  0  0  0  0  0
   -1.3234    2.2748   -0.6634 C   0  0  0  0  0  0  0  0  0  0  0  0
   -2.3499    0.2388    0.0584 N   0  0  0  0  0  0  0  0  0  0  0  0
    0.1729    0.8879    1.5490 C   0  0  0  0  0  0  0  0  0  0  0  0
    1.2378    0.3978   -0.7022 C   0  0  0  0  0  0  0  0  0  0  0  0
    4.3328   -0.7090    0.8322 C   0  0  0  0  0  0  0  0  0  0  0  0
    3.1541    0.2802    0.8074 C   0  0  0  0  0  0  0  0  0  0  0  0
    2.3837   -0.2749   -0.2523 N   0  0  0  0  0  0  0  0  0  0  0  0
    3.3339   -0.5755   -1.2181 N   0  0  0  0  0  0  0  0  0  0  0  0
    4.4688   -1.0028   -0.5741 N   0  0  0  0  0  0  0  0  0  0  0  0
   -0.2718   -2.2564   -1.1745 O   0  0  0  0  0  0  0  0  0  0  0  0
    0.4915   -2.1756    1.5858 O   0  0  0  0  0  0  0  0  0  0  0  0
   -4.3707   -0.0102   -1.2261 O   0  0  0  0  0  0  0  0  0  0  0  0
   -2.4262    2.6448   -1.4366 O   0  0  0  0  0  0  0  0  0  0  0  0
   -1.4381    2.8831    0.5679 O   0  0  0  0  0  0  0  0  0  0  0  0
   -1.0840    0.4146   -1.6096 H   0  0  0  0  0  0  0  0  0  0  0  0
   -2.2547   -0.9169    1.8725 H   0  0  0  0  0  0  0  0  0  0  0  0
   -4.1024   -1.7237    0.5969 H   0  0  0  0  0  0  0  0  0  0  0  0
   -2.8351   -2.7002   -0.3988 H   0  0  0  0  0  0  0  0  0  0  0  0
   -2.5448   -0.8064   -1.8400 H   0  0  0  0  0  0  0  0  0  0  0  0
   -0.4085    2.7032   -1.1577 H   0  0  0  0  0  0  0  0  0  0  0  0
   -0.8413    1.1893    1.9593 H   0  0  0  0  0  0  0  0  0  0  0  0
    0.4468    0.0288    2.2048 H   0  0  0  0  0  0  0  0  0  0  0  0
    0.8107    1.7632    1.6426 H   0  0  0  0  0  0  0  0  0  0  0  0
    0.9513   -0.0700   -1.6964 H   0  0  0  0  0  0  0  0  0  0  0  0
    1.4736    1.4595   -0.9956 H   0  0  0  0  0  0  0  0  0  0  0  0
    5.2333   -0.2352    1.2634 H   0  0  0  0  0  0  0  0  0  0  0  0
    3.9785   -1.5945    1.3500 H   0  0  0  0  0  0  0  0  0  0  0  0
    3.5978    1.2798    0.5240 H   0  0  0  0  0  0  0  0  0  0  0  0
    2.6966    0.3087    1.7990 H   0  0  0  0  0  0  0  0  0  0  0  0
    2.9947   -1.2244   -1.9604 H   0  0  0  0  0  0  0  0  0  0  0  0
    5.3572   -0.5216   -0.8948 H   0  0  0  0  0  0  0  0  0  0  0  0
   -0.9182   -2.9914   -1.0625 H   0  0  0  0  0  0  0  0  0  0  0  0
   -0.0143   -2.2684    2.4098 H   0  0  0  0  0  0  0  0  0  0  0  0
   -4.4387    0.8476   -0.7548 H   0  0  0  0  0  0  0  0  0  0  0  0
   -3.1521    2.8923   -0.8190 H   0  0  0  0  0  0  0  0  0  0  0  0
   -2.3792    3.0309    0.8491 H   0  0  0  0  0  0  0  0  0  0  0  0
  1  2  1  0
  2  3  1  0
  1  4  1  0
  4  5  1  0
  5  6  1  0
  3  7  1  0
  3  8  1  0
  4  8  1  0
  6  8  1  0
  2  9  1  1
  2 10  1  0
 11 12  1  0
 10 13  1  0
 12 13  1  0
 13 14  1  0
 11 15  1  0
 14 15  1  0
  1 16  1  0
  1 17  1  0
  6 18  1  0
  7 19  1  0
  7 20  1  0
  3 21  1  6
  4 22  1  1
  5 23  1  0
  5 24  1  0
  6 25  1  6
  7 26  1  0
  9 27  1  0
  9 28  1  0
  9 29  1  0
 10 30  1  0
 10 31  1  0
 11 32  1  0
 11 33  1  0
 12 34  1  0
 12 35  1  0
 14 36  1  0
 15 37  1  0
 16 38  1  0
 17 39  1  0
 18 40  1  0
 19 41  1  0
 20 42  1  0
M  END
>  <PDBID>  (1) 
1VM1

>  <PDB ID>  (1) 
1VM1

>  <Generic Name>  (1) 
Tazobactam

>  <Brand Name>  (1) 
Jamp-pip/taz#Mylan-piperacillin and Tazobactam for Injection#Piperacillin / Tazobactam Powder for Injection#Piperacillin Sodium/tazobactam Sodium Powder for Injection#Piperacillin and Tazobactam#Piperacillin and Tazobactam for Injection#Piperacillin, Tazobactam#Piperacillin/tazobactam for Injection#Tazocin#Tazocin Pws IV 2g Piperacillin-.25g Tazobac.#Tazocin Pws IV 3g Piperacillin-.375g Tazobac#Tazocin Pws IV 4g Piperacillin-.5g Tazobac.#Vpi-piperacillin and Tazobactam for Injection#Zerbaxa#Zosyn#Zosyn In Galaxy Containers#Zosyn Pharmacy Bulk Package

>  <DrugBank ID>  (1) 
DB01606

>  <ATC Codes>  (1) 
J01CG02

>  <Ligand ID>  (1) 
TAZ

>  <Target Name>  (1) 
Beta-lactamase TEM

>  <UniProt ID>  (1) 
P62594

>  <PDB ID.1>  (1) 
1VM1

>  <Seq. Identity>  (1) 
66%

$$$$
