PDB_DB00456_09
     RDKit          3D

 56 58  0  0  0  0  0  0  0  0999 V2000
   -0.4398    1.9601    1.4608 S   0  0  0  0  0  0  0  0  0  0  0  0
   -2.1483    1.8808    0.9766 C   0  0  0  0  0  0  0  0  0  0  0  0
   -2.7807    0.5262    0.9248 C   0  0  0  0  0  0  0  0  0  0  0  0
   -3.6832    0.5603   -0.2856 C   0  0  0  0  0  0  0  0  0  0  0  0
   -4.3360   -0.6095   -0.4749 O   0  0  0  0  0  0  0  0  0  0  0  0
   -5.1744   -0.6678   -1.5473 C   0  0  0  0  0  0  0  0  0  0  0  0
   -4.8420   -1.6145   -2.5013 O   0  0  0  0  0  0  0  0  0  0  0  0
   -6.5958   -0.8433   -1.0307 C   0  0  0  0  0  0  0  0  0  0  0  0
   -1.8263   -0.6129    1.0065 C   0  0  0  0  0  0  0  0  0  0  0  0
   -2.3759   -1.9759    0.7488 C   0  0  0  0  0  0  0  0  0  0  0  0
   -3.6267   -2.2258    1.3291 O   0  0  0  0  0  0  0  0  0  0  0  0
   -1.5437   -2.9856    1.2918 O   0  0  0  0  0  0  0  0  0  0  0  0
   -0.5668   -0.4432    0.4430 N   0  0  0  0  0  0  0  0  0  0  0  0
    0.3527    0.3809    1.1627 C   0  0  1  0  0  0  0  0  0  0  0  0
    1.2082    0.3382   -0.0880 C   0  0  1  0  0  0  0  0  0  0  0  0
   -0.1272   -0.0427   -0.7685 C   0  0  0  0  0  0  0  0  0  0  0  0
   -0.5566    1.0786   -1.4456 O   0  0  0  0  0  0  0  0  0  0  0  0
    1.7807    1.5686   -0.4889 N   0  0  0  0  0  0  0  0  0  0  0  0
    2.6949    2.0462    0.5037 C   0  0  2  0  0  0  0  0  0  0  0  0
    3.0872    3.3732    0.2451 O   0  0  0  0  0  0  0  0  0  0  0  0
    3.8935    1.1732    0.7104 C   0  0  0  0  0  0  0  0  0  0  0  0
    4.7862    0.9873   -0.4581 C   0  0  0  0  0  0  0  0  0  0  0  0
    5.9808    0.0836   -0.1131 C   0  0  0  0  0  0  0  0  0  0  0  0
    5.4747   -1.3276   -0.1429 C   0  0  0  0  0  0  0  0  0  0  0  0
    4.9209   -1.5703   -1.5506 C   0  0  0  0  0  0  0  0  0  0  0  0
    4.0823    0.0424   -1.8264 S   0  0  0  0  0  0  0  0  0  0  0  0
   -2.7130    2.4938    1.7513 H   0  0  0  0  0  0  0  0  0  0  0  0
   -2.3604    2.4998    0.0426 H   0  0  0  0  0  0  0  0  0  0  0  0
   -3.5168    0.4857    1.7962 H   0  0  0  0  0  0  0  0  0  0  0  0
   -3.2265    1.0006   -1.1903 H   0  0  0  0  0  0  0  0  0  0  0  0
   -4.4851    1.3251   -0.0175 H   0  0  0  0  0  0  0  0  0  0  0  0
   -5.1367    0.3302   -2.0695 H   0  0  0  0  0  0  0  0  0  0  0  0
   -5.6466   -1.6974   -3.1058 H   0  0  0  0  0  0  0  0  0  0  0  0
   -6.8002   -1.9192   -0.9390 H   0  0  0  0  0  0  0  0  0  0  0  0
   -7.3192   -0.3162   -1.6855 H   0  0  0  0  0  0  0  0  0  0  0  0
   -6.6593   -0.4262    0.0034 H   0  0  0  0  0  0  0  0  0  0  0  0
   -1.5839   -0.6555    2.1343 H   0  0  0  0  0  0  0  0  0  0  0  0
   -2.4542   -2.2354   -0.3246 H   0  0  0  0  0  0  0  0  0  0  0  0
   -3.4519   -2.3818    2.2937 H   0  0  0  0  0  0  0  0  0  0  0  0
   -0.8492   -3.2591    0.6281 H   0  0  0  0  0  0  0  0  0  0  0  0
    0.8260   -0.0971    2.0450 H   0  0  0  0  0  0  0  0  0  0  0  0
    1.8818   -0.5574   -0.0027 H   0  0  0  0  0  0  0  0  0  0  0  0
    0.1651   -0.8081   -1.5549 H   0  0  0  0  0  0  0  0  0  0  0  0
    0.0599    1.3333   -2.1502 H   0  0  0  0  0  0  0  0  0  0  0  0
    2.2033    1.6252   -1.4188 H   0  0  0  0  0  0  0  0  0  0  0  0
    2.0963    2.0744    1.4685 H   0  0  0  0  0  0  0  0  0  0  0  0
    4.0498    3.4669    0.5193 H   0  0  0  0  0  0  0  0  0  0  0  0
    3.5863    0.1433    1.0601 H   0  0  0  0  0  0  0  0  0  0  0  0
    4.4597    1.5757    1.5968 H   0  0  0  0  0  0  0  0  0  0  0  0
    5.2142    1.9556   -0.8234 H   0  0  0  0  0  0  0  0  0  0  0  0
    6.7491    0.2476   -0.8758 H   0  0  0  0  0  0  0  0  0  0  0  0
    6.2847    0.3159    0.9050 H   0  0  0  0  0  0  0  0  0  0  0  0
    4.7135   -1.4997    0.6280 H   0  0  0  0  0  0  0  0  0  0  0  0
    6.3298   -1.9935   -0.0349 H   0  0  0  0  0  0  0  0  0  0  0  0
    5.7532   -1.7180   -2.2382 H   0  0  0  0  0  0  0  0  0  0  0  0
    4.1915   -2.3887   -1.5326 H   0  0  0  0  0  0  0  0  0  0  0  0
  1  2  1  0
  2  3  1  0
  3  4  1  0
  4  5  1  0
  5  6  1  0
  6  7  1  0
  6  8  1  0
  3  9  1  0
  9 10  1  0
 10 11  1  0
 10 12  1  0
  9 13  1  0
  1 14  1  0
 13 14  1  0
 14 15  1  0
 13 16  1  0
 15 16  1  0
 16 17  1  0
 15 18  1  0
 18 19  1  0
 19 20  1  0
 19 21  1  0
 21 22  1  0
 22 23  1  0
 23 24  1  0
 24 25  1  0
 22 26  1  0
 25 26  1  0
  2 27  1  0
  2 28  1  0
  3 29  1  0
  4 30  1  0
  4 31  1  0
  6 32  1  0
  7 33  1  0
  8 34  1  0
  8 35  1  0
  8 36  1  0
  9 37  1  0
 10 38  1  0
 11 39  1  0
 12 40  1  0
 14 41  1  1
 15 42  1  1
 16 43  1  0
 17 44  1  0
 18 45  1  0
 19 46  1  1
 20 47  1  0
 21 48  1  0
 21 49  1  0
 22 50  1  0
 23 51  1  0
 23 52  1  0
 24 53  1  0
 24 54  1  0
 25 55  1  0
 25 56  1  0
M  END
>  <PDBID>  (1) 
1KVL

>  <PDB ID>  (1) 
1KVL

>  <Generic Name>  (1) 
Cefalotin

>  <Brand Name>  (1) 
Ceporacin#Keflin Add-vantage Inj 1gm/vial#Keflin Neutral Inj 1gm#Keflin Neutral Inj 2gm/vial#Coaxin#Keflin

>  <DrugBank ID>  (1) 
DB00456

>  <ATC Codes>  (1) 
J01DB03

>  <Ligand ID>  (1) 
CLS

>  <Target Name>  (1) 
Beta-lactamase

>  <UniProt ID>  (1) 
P00811

>  <PDB ID.1>  (1) 
1KVL

>  <Seq. Identity>  (1) 
100%

$$$$
