PDB_DB01201_05
     RDKit          3D

302312  0  0  0  0  0  0  0  0999 V2000
    2.1808    0.0854    2.0853 C   0  0  0  0  0  0  0  0  0  0  0  0
    2.2331    1.1093    0.9953 C   0  0  0  0  0  0  0  0  0  0  0  0
    2.9897    0.6357   -0.2265 C   0  0  2  0  0  0  0  0  0  0  0  0
    2.5673   -0.7451   -0.5773 C   0  0  0  0  0  0  0  0  0  0  0  0
    0.7156   -2.4180   -0.4218 C   0  0  0  0  0  0  0  0  0  0  0  0
    0.8991   -3.6516    0.3306 C   0  0  0  0  0  0  0  0  0  0  0  0
    1.8472   -3.6004    1.4889 C   0  0  0  0  0  0  0  0  0  0  0  0
    1.8941   -2.3651    2.2726 C   0  0  0  0  0  0  0  0  0  0  0  0
    1.3878   -1.1182    1.6180 C   0  0  0  0  0  0  0  0  0  0  0  0
    1.2817   -1.1591    0.1471 C   0  0  1  0  0  0  0  0  0  0  0  0
   -0.8015   -2.3031   -0.5617 C   0  0  2  0  0  0  0  0  0  0  0  0
   -1.3415   -3.3431    0.3445 C   0  0  2  0  0  0  0  0  0  0  0  0
   -1.9165   -2.8076    1.6338 C   0  0  0  0  0  0  0  0  0  0  0  0
    1.5005   -4.8070    2.3765 C   0  0  0  0  0  0  0  0  0  0  0  0
    1.6083    3.2763    1.8671 C   0  0  0  0  0  0  0  0  0  0  0  0
    1.2754    4.3003    0.8305 C   0  0  0  0  0  0  0  0  0  0  0  0
    0.1370    3.9572   -0.0701 C   0  0  0  0  0  0  0  0  0  0  0  0
   -1.1802    3.7466    0.6315 C   0  0  0  0  0  0  0  0  0  0  0  0
   -2.0138    2.6489    0.0085 C   0  0  0  0  0  0  0  0  0  0  0  0
   -3.4775    3.0388    0.0222 C   0  0  1  0  0  0  0  0  0  0  0  0
   -4.3526    1.9083   -0.5109 C   0  0  1  0  0  0  0  0  0  0  0  0
   -5.8060    2.3263   -0.3724 C   0  0  2  0  0  0  0  0  0  0  0  0
   -6.7560    1.2360   -0.1375 C   0  0  2  0  0  0  0  0  0  0  0  0
   -7.4520    0.5147   -1.2025 C   0  0  2  0  0  0  0  0  0  0  0  0
   -7.2521   -1.0337   -1.0746 C   0  0  1  0  0  0  0  0  0  0  0  0
   -6.2232   -1.5330   -1.9960 C   0  0  1  0  0  0  0  0  0  0  0  0
   -5.6000   -2.7964   -1.4648 C   0  0  2  0  0  0  0  0  0  0  0  0
   -4.0735   -2.7654   -1.6161 C   0  0  0  0  0  0  0  0  0  0  0  0
   -3.4783   -3.0972   -0.2755 C   0  0  0  0  0  0  0  0  0  0  0  0
    1.0992    5.6287    1.5301 C   0  0  0  0  0  0  0  0  0  0  0  0
   -3.8571    3.4091    1.4195 C   0  0  0  0  0  0  0  0  0  0  0  0
   -6.1881    3.4006   -1.3431 C   0  0  0  0  0  0  0  0  0  0  0  0
   -7.3746    0.9902   -2.5943 C   0  0  0  0  0  0  0  0  0  0  0  0
   -6.7957   -1.8739   -3.3876 C   0  0  0  0  0  0  0  0  0  0  0  0
   -8.0989   -1.9799    0.8843 C   0  0  0  0  0  0  0  0  0  0  0  0
   -7.6280   -3.1449    1.6862 C   0  0  0  0  0  0  0  0  0  0  0  0
   -6.6375   -4.8831   -1.5352 C   0  0  0  0  0  0  0  0  0  0  0  0
   10.5063    0.3294   -0.1104 C   0  0  0  0  0  0  0  0  0  0  0  0
    8.5699    1.7177   -0.5530 C   0  0  0  0  0  0  0  0  0  0  0  0
    7.0402    1.6892   -0.4110 C   0  0  0  0  0  0  0  0  0  0  0  0
    7.2424   -0.6769   -0.5296 C   0  0  0  0  0  0  0  0  0  0  0  0
    8.3014   -0.4317    0.4917 C   0  0  0  0  0  0  0  0  0  0  0  0
    4.4721    0.8003   -0.0401 C   0  0  0  0  0  0  0  0  0  0  0  0
   10.7469   -0.1961   -1.4755 C   0  0  0  0  0  0  0  0  0  0  0  0
   11.3924    1.5339   -0.0008 C   0  0  0  0  0  0  0  0  0  0  0  0
   11.3254    0.8704   -2.3358 C   0  0  0  0  0  0  0  0  0  0  0  0
   11.8372    1.8942   -1.3788 C   0  0  0  0  0  0  0  0  0  0  0  0
    2.7289    2.4054    1.4700 N   0  0  0  0  0  0  0  0  0  0  0  0
    5.2292    0.3586   -1.1887 N   0  0  0  0  0  0  0  0  0  0  0  0
    6.5873    0.4909   -1.0345 N   0  0  0  0  0  0  0  0  0  0  0  0
    9.1579    0.6782    0.2072 N   0  0  0  0  0  0  0  0  0  0  0  0
    3.4165   -0.2712    2.6039 O   0  0  0  0  0  0  0  0  0  0  0  0
    1.2308   -2.5872    3.5057 O   0  0  0  0  0  0  0  0  0  0  0  0
   -0.3374   -4.2070    0.6526 O   0  0  0  0  0  0  0  0  0  0  0  0
   -1.2031   -2.5627   -1.8711 O   0  0  0  0  0  0  0  0  0  0  0  0
   -2.4202   -3.9647   -0.3208 O   0  0  0  0  0  0  0  0  0  0  0  0
   -6.0311   -3.8803   -2.2363 O   0  0  0  0  0  0  0  0  0  0  0  0
   -7.0611   -1.3190    0.2691 O   0  0  0  0  0  0  0  0  0  0  0  0
   -8.7828   -1.0527    1.7578 O   0  0  0  0  0  0  0  0  0  0  0  0
   -7.6815    1.6822    0.8550 O   0  0  0  0  0  0  0  0  0  0  0  0
   -4.0056    1.5382   -1.7832 O   0  0  0  0  0  0  0  0  0  0  0  0
    1.8449    3.8380    3.1213 O   0  0  0  0  0  0  0  0  0  0  0  0
    3.5555   -1.6973   -0.4781 O   0  0  0  0  0  0  0  0  0  0  0  0
    1.9106    0.5383    2.0066 C   0  0  0  0  0  0  0  0  0  0  0  0
    1.9341    1.4144    0.7981 C   0  0  0  0  0  0  0  0  0  0  0  0
    2.5472    0.7689   -0.4100 C   0  0  2  0  0  0  0  0  0  0  0  0
    1.9406   -0.5928   -0.5881 C   0  0  0  0  0  0  0  0  0  0  0  0
    0.1987   -2.1589    0.0920 C   0  0  0  0  0  0  0  0  0  0  0  0
    1.1419   -3.3250    0.2331 C   0  0  0  0  0  0  0  0  0  0  0  0
    2.1540   -3.1931    1.2918 C   0  0  0  0  0  0  0  0  0  0  0  0
    2.2647   -1.9350    2.0527 C   0  0  0  0  0  0  0  0  0  0  0  0
    1.3200   -0.8417    1.7523 C   0  0  0  0  0  0  0  0  0  0  0  0
    0.7863   -0.8334    0.3499 C   0  0  0  0  0  0  0  0  0  0  0  0
   -0.7813   -2.6024    1.1924 C   0  0  2  0  0  0  0  0  0  0  0  0
   -0.9982   -4.0053    0.5976 C   0  0  2  0  0  0  0  0  0  0  0  0
   -1.7983   -4.8771    1.5188 C   0  0  0  0  0  0  0  0  0  0  0  0
    2.0300   -4.3564    2.2669 C   0  0  0  0  0  0  0  0  0  0  0  0
    1.5698    3.6527    1.5194 C   0  0  0  0  0  0  0  0  0  0  0  0
    1.2102    4.5908    0.4254 C   0  0  0  0  0  0  0  0  0  0  0  0
   -0.0752    4.2763   -0.3016 C   0  0  0  0  0  0  0  0  0  0  0  0
   -1.2860    4.2872    0.6261 C   0  0  0  0  0  0  0  0  0  0  0  0
   -2.1587    3.0695    0.3824 C   0  0  0  0  0  0  0  0  0  0  0  0
   -3.6489    3.4512    0.3754 C   0  0  1  0  0  0  0  0  0  0  0  0
   -4.3853    2.1335    0.1529 C   0  0  1  0  0  0  0  0  0  0  0  0
   -5.8419    2.4102   -0.1007 C   0  0  2  0  0  0  0  0  0  0  0  0
   -6.7541    1.2477   -0.1427 C   0  0  2  0  0  0  0  0  0  0  0  0
   -7.0671    0.5070   -1.3625 C   0  0  2  0  0  0  0  0  0  0  0  0
   -6.7476   -1.0149   -1.2722 C   0  0  1  0  0  0  0  0  0  0  0  0
   -5.5649   -1.3955   -2.0414 C   0  0  1  0  0  0  0  0  0  0  0  0
   -4.9897   -2.7103   -1.5655 C   0  0  2  0  0  0  0  0  0  0  0  0
   -3.4521   -2.6344   -1.5590 C   0  0  0  0  0  0  0  0  0  0  0  0
   -2.9567   -3.7084   -0.6356 C   0  0  0  0  0  0  0  0  0  0  0  0
    1.0416    6.0097    0.9785 C   0  0  0  0  0  0  0  0  0  0  0  0
   -3.9579    4.1166    1.6677 C   0  0  0  0  0  0  0  0  0  0  0  0
   -6.0964    3.5175   -1.0771 C   0  0  0  0  0  0  0  0  0  0  0  0
   -6.7353    1.0903   -2.6796 C   0  0  0  0  0  0  0  0  0  0  0  0
   -5.8236   -1.6358   -3.5412 C   0  0  0  0  0  0  0  0  0  0  0  0
   -7.5997   -2.1105    0.5976 C   0  0  0  0  0  0  0  0  0  0  0  0
   -7.0447   -3.0898    1.5858 C   0  0  0  0  0  0  0  0  0  0  0  0
   -6.0969   -4.7865   -1.9737 C   0  0  0  0  0  0  0  0  0  0  0  0
   10.0626   -0.0249    0.0779 C   0  0  0  0  0  0  0  0  0  0  0  0
    8.0696    1.3316   -0.2758 C   0  0  0  0  0  0  0  0  0  0  0  0
    6.5465    1.2536   -0.3277 C   0  0  0  0  0  0  0  0  0  0  0  0
    6.6965   -1.0647   -0.9857 C   0  0  0  0  0  0  0  0  0  0  0  0
    7.8413   -1.0075    0.0159 C   0  0  0  0  0  0  0  0  0  0  0  0
    4.0393    0.7610   -0.2819 C   0  0  0  0  0  0  0  0  0  0  0  0
   10.8359   -0.7413   -1.0198 C   0  0  0  0  0  0  0  0  0  0  0  0
   10.7536    1.3310    0.0456 C   0  0  0  0  0  0  0  0  0  0  0  0
   10.8099    0.2771   -2.1343 C   0  0  0  0  0  0  0  0  0  0  0  0
   11.1204    1.5550   -1.3822 C   0  0  0  0  0  0  0  0  0  0  0  0
    2.5723    2.6645    1.1587 N   0  0  0  0  0  0  0  0  0  0  0  0
    4.7332    0.1767   -1.3981 N   0  0  0  0  0  0  0  0  0  0  0  0
    6.1150    0.2144   -1.1919 N   0  0  0  0  0  0  0  0  0  0  0  0
    8.7038    0.0664   -0.2671 N   0  0  0  0  0  0  0  0  0  0  0  0
    3.1927    0.4794    2.5465 O   0  0  0  0  0  0  0  0  0  0  0  0
    2.1706   -2.1818    3.4469 O   0  0  0  0  0  0  0  0  0  0  0  0
    0.3023   -4.4379    0.4325 O   0  0  0  0  0  0  0  0  0  0  0  0
   -1.9053   -1.8480    1.2676 O   0  0  0  0  0  0  0  0  0  0  0  0
   -1.5706   -3.8229   -0.6376 O   0  0  0  0  0  0  0  0  0  0  0  0
   -5.4806   -3.6835   -2.3163 O   0  0  0  0  0  0  0  0  0  0  0  0
   -6.6378   -1.2858    0.0861 O   0  0  0  0  0  0  0  0  0  0  0  0
   -8.4981   -1.2494    1.3584 O   0  0  0  0  0  0  0  0  0  0  0  0
   -7.9746    1.6773    0.4806 O   0  0  0  0  0  0  0  0  0  0  0  0
   -3.6975    1.4752   -0.8061 O   0  0  0  0  0  0  0  0  0  0  0  0
    2.0985    4.4310    2.5766 O   0  0  0  0  0  0  0  0  0  0  0  0
    1.4892   -0.8018   -1.8952 O   0  0  0  0  0  0  0  0  0  0  0  0
    1.6732    0.6124    2.9525 H   0  0  0  0  0  0  0  0  0  0  0  0
    1.1573    1.3303    0.7372 H   0  0  0  0  0  0  0  0  0  0  0  0
    2.7090    1.3755   -1.0386 H   0  0  0  0  0  0  0  0  0  0  0  0
    2.2711   -0.7418   -1.6550 H   0  0  0  0  0  0  0  0  0  0  0  0
    1.1049   -2.4770   -1.4783 H   0  0  0  0  0  0  0  0  0  0  0  0
    1.3395   -4.4238   -0.3807 H   0  0  0  0  0  0  0  0  0  0  0  0
    2.8917   -3.8323    1.1231 H   0  0  0  0  0  0  0  0  0  0  0  0
    2.9549   -2.1409    2.5999 H   0  0  0  0  0  0  0  0  0  0  0  0
    0.3579   -0.9391    2.0272 H   0  0  0  0  0  0  0  0  0  0  0  0
    0.5657   -0.3548   -0.1725 H   0  0  0  0  0  0  0  0  0  0  0  0
   -1.1428   -1.2730   -0.3240 H   0  0  0  0  0  0  0  0  0  0  0  0
   -1.8778   -1.6977    1.6503 H   0  0  0  0  0  0  0  0  0  0  0  0
   -1.2722   -3.1148    2.5112 H   0  0  0  0  0  0  0  0  0  0  0  0
   -2.9131   -3.2012    1.8793 H   0  0  0  0  0  0  0  0  0  0  0  0
    0.8058   -4.5087    3.1877 H   0  0  0  0  0  0  0  0  0  0  0  0
    1.0346   -5.6158    1.7817 H   0  0  0  0  0  0  0  0  0  0  0  0
    2.3984   -5.2146    2.8599 H   0  0  0  0  0  0  0  0  0  0  0  0
    0.7348    2.6021    1.9823 H   0  0  0  0  0  0  0  0  0  0  0  0
    2.1790    4.4054    0.1767 H   0  0  0  0  0  0  0  0  0  0  0  0
    0.0636    4.8149   -0.8067 H   0  0  0  0  0  0  0  0  0  0  0  0
    0.3999    3.0912   -0.6821 H   0  0  0  0  0  0  0  0  0  0  0  0
   -0.9903    3.6194    1.6966 H   0  0  0  0  0  0  0  0  0  0  0  0
   -1.7545    4.7135    0.5191 H   0  0  0  0  0  0  0  0  0  0  0  0
   -1.8970    1.7268    0.6056 H   0  0  0  0  0  0  0  0  0  0  0  0
   -1.7418    2.4968   -1.0594 H   0  0  0  0  0  0  0  0  0  0  0  0
   -3.5634    3.9470   -0.6061 H   0  0  0  0  0  0  0  0  0  0  0  0
   -4.1361    1.0384    0.1450 H   0  0  0  0  0  0  0  0  0  0  0  0
   -5.7688    2.8976    0.6167 H   0  0  0  0  0  0  0  0  0  0  0  0
   -6.1677    0.4639    0.4589 H   0  0  0  0  0  0  0  0  0  0  0  0
   -8.5674    0.6042   -0.9826 H   0  0  0  0  0  0  0  0  0  0  0  0
   -8.2326   -1.5251   -1.3507 H   0  0  0  0  0  0  0  0  0  0  0  0
   -5.4094   -0.7788   -2.1950 H   0  0  0  0  0  0  0  0  0  0  0  0
   -5.8572   -3.0283   -0.4436 H   0  0  0  0  0  0  0  0  0  0  0  0
   -3.8296   -1.7362   -1.9492 H   0  0  0  0  0  0  0  0  0  0  0  0
   -3.7343   -3.4379   -2.4301 H   0  0  0  0  0  0  0  0  0  0  0  0
   -3.2214   -2.1005    0.1880 H   0  0  0  0  0  0  0  0  0  0  0  0
   -4.2819   -3.4972    0.4122 H   0  0  0  0  0  0  0  0  0  0  0  0
    0.6505    5.4701    2.5271 H   0  0  0  0  0  0  0  0  0  0  0  0
    2.1045    6.0677    1.6993 H   0  0  0  0  0  0  0  0  0  0  0  0
    0.5318    6.3548    0.9124 H   0  0  0  0  0  0  0  0  0  0  0  0
   -4.5610    4.2927    1.4630 H   0  0  0  0  0  0  0  0  0  0  0  0
   -4.3233    2.6142    2.0101 H   0  0  0  0  0  0  0  0  0  0  0  0
   -2.9805    3.7552    2.0409 H   0  0  0  0  0  0  0  0  0  0  0  0
   -5.9303    3.2190   -2.3796 H   0  0  0  0  0  0  0  0  0  0  0  0
   -7.2417    3.6693   -1.1410 H   0  0  0  0  0  0  0  0  0  0  0  0
   -5.6259    4.3539   -1.0865 H   0  0  0  0  0  0  0  0  0  0  0  0
   -7.9395    1.9657   -2.6609 H   0  0  0  0  0  0  0  0  0  0  0  0
   -8.0607    0.3218   -3.1996 H   0  0  0  0  0  0  0  0  0  0  0  0
   -6.4273    0.9905   -3.0935 H   0  0  0  0  0  0  0  0  0  0  0  0
   -6.3569   -2.8431   -3.7733 H   0  0  0  0  0  0  0  0  0  0  0  0
   -7.8759   -2.0517   -3.3629 H   0  0  0  0  0  0  0  0  0  0  0  0
   -6.4553   -1.1418   -4.1573 H   0  0  0  0  0  0  0  0  0  0  0  0
   -8.9240   -2.2917    0.2143 H   0  0  0  0  0  0  0  0  0  0  0  0
   -6.5236   -3.1157    1.8299 H   0  0  0  0  0  0  0  0  0  0  0  0
   -7.9870   -4.0974    1.2466 H   0  0  0  0  0  0  0  0  0  0  0  0
   -8.0854   -3.0858    2.7239 H   0  0  0  0  0  0  0  0  0  0  0  0
   -7.5262   -4.4987   -1.0366 H   0  0  0  0  0  0  0  0  0  0  0  0
   -5.9529   -5.4413   -0.8622 H   0  0  0  0  0  0  0  0  0  0  0  0
   -6.9859   -5.6312   -2.2852 H   0  0  0  0  0  0  0  0  0  0  0  0
   10.8390   -0.4415    0.6383 H   0  0  0  0  0  0  0  0  0  0  0  0
    8.8625    2.7185   -0.1208 H   0  0  0  0  0  0  0  0  0  0  0  0
    8.7906    1.7315   -1.6184 H   0  0  0  0  0  0  0  0  0  0  0  0
    6.6739    2.5921   -0.8985 H   0  0  0  0  0  0  0  0  0  0  0  0
    6.8653    1.6861    0.7051 H   0  0  0  0  0  0  0  0  0  0  0  0
    6.4493   -1.3078   -0.0336 H   0  0  0  0  0  0  0  0  0  0  0  0
    7.5910   -1.2778   -1.3942 H   0  0  0  0  0  0  0  0  0  0  0  0
    8.9021   -1.3501    0.6071 H   0  0  0  0  0  0  0  0  0  0  0  0
    7.8059   -0.2404    1.4723 H   0  0  0  0  0  0  0  0  0  0  0  0
    4.7990    0.2048    0.8095 H   0  0  0  0  0  0  0  0  0  0  0  0
    4.7578    1.8546    0.1460 H   0  0  0  0  0  0  0  0  0  0  0  0
   11.5200   -1.0187   -1.4042 H   0  0  0  0  0  0  0  0  0  0  0  0
    9.8671   -0.7034   -1.9260 H   0  0  0  0  0  0  0  0  0  0  0  0
   10.9110    2.3856    0.5305 H   0  0  0  0  0  0  0  0  0  0  0  0
   12.2985    1.2712    0.6154 H   0  0  0  0  0  0  0  0  0  0  0  0
   10.6191    1.2853   -3.0870 H   0  0  0  0  0  0  0  0  0  0  0  0
   12.1711    0.4532   -2.9593 H   0  0  0  0  0  0  0  0  0  0  0  0
   12.9554    1.9071   -1.4426 H   0  0  0  0  0  0  0  0  0  0  0  0
   11.5376    2.9336   -1.6724 H   0  0  0  0  0  0  0  0  0  0  0  0
    3.3372    2.2097    2.3130 H   0  0  0  0  0  0  0  0  0  0  0  0
    4.9351    0.9743   -1.9982 H   0  0  0  0  0  0  0  0  0  0  0  0
    3.6751    0.1938    3.4151 H   0  0  0  0  0  0  0  0  0  0  0  0
    1.3597   -1.7617    4.0405 H   0  0  0  0  0  0  0  0  0  0  0  0
   -0.4868   -2.5112   -2.5248 H   0  0  0  0  0  0  0  0  0  0  0  0
   -9.3714   -0.4754    1.1932 H   0  0  0  0  0  0  0  0  0  0  0  0
   -8.4475    2.1097    0.3934 H   0  0  0  0  0  0  0  0  0  0  0  0
   -3.4328    2.2373   -2.1804 H   0  0  0  0  0  0  0  0  0  0  0  0
    1.3879    3.3196    3.8568 H   0  0  0  0  0  0  0  0  0  0  0  0
    4.0468   -1.7232    0.3474 H   0  0  0  0  0  0  0  0  0  0  0  0
    1.3044    1.0855    2.7765 H   0  0  0  0  0  0  0  0  0  0  0  0
    0.8964    1.7192    0.4777 H   0  0  0  0  0  0  0  0  0  0  0  0
    2.2761    1.3528   -1.3183 H   0  0  0  0  0  0  0  0  0  0  0  0
    2.7124   -1.3588   -0.3748 H   0  0  0  0  0  0  0  0  0  0  0  0
   -0.3442   -2.2545   -0.8643 H   0  0  0  0  0  0  0  0  0  0  0  0
    1.5804   -3.4915   -0.7853 H   0  0  0  0  0  0  0  0  0  0  0  0
    3.1604   -3.3814    0.8039 H   0  0  0  0  0  0  0  0  0  0  0  0
    3.3016   -1.4843    1.9741 H   0  0  0  0  0  0  0  0  0  0  0  0
    0.4234   -0.9244    2.4159 H   0  0  0  0  0  0  0  0  0  0  0  0
   -0.0069   -0.0869    0.2914 H   0  0  0  0  0  0  0  0  0  0  0  0
   -0.2703   -2.7875    2.1421 H   0  0  0  0  0  0  0  0  0  0  0  0
   -2.0636   -4.2954    2.4338 H   0  0  0  0  0  0  0  0  0  0  0  0
   -1.1312   -5.7008    1.8584 H   0  0  0  0  0  0  0  0  0  0  0  0
   -2.6629   -5.3492    1.0559 H   0  0  0  0  0  0  0  0  0  0  0  0
    1.5622   -4.0463    3.2267 H   0  0  0  0  0  0  0  0  0  0  0  0
    1.4408   -5.1962    1.8701 H   0  0  0  0  0  0  0  0  0  0  0  0
    3.0241   -4.7712    2.5546 H   0  0  0  0  0  0  0  0  0  0  0  0
    0.7107    3.0984    1.9471 H   0  0  0  0  0  0  0  0  0  0  0  0
    2.0100    4.6248   -0.3219 H   0  0  0  0  0  0  0  0  0  0  0  0
   -0.2364    5.1451   -1.0087 H   0  0  0  0  0  0  0  0  0  0  0  0
   -0.0195    3.3962   -0.9470 H   0  0  0  0  0  0  0  0  0  0  0  0
   -0.9442    4.3495    1.7016 H   0  0  0  0  0  0  0  0  0  0  0  0
   -1.9186    5.1907    0.4787 H   0  0  0  0  0  0  0  0  0  0  0  0
   -2.0065    2.3800    1.2494 H   0  0  0  0  0  0  0  0  0  0  0  0
   -1.9509    2.5930   -0.5816 H   0  0  0  0  0  0  0  0  0  0  0  0
   -3.7672    4.0693   -0.5215 H   0  0  0  0  0  0  0  0  0  0  0  0
   -4.2906    1.5596    1.1106 H   0  0  0  0  0  0  0  0  0  0  0  0
   -6.0910    2.9193    0.9006 H   0  0  0  0  0  0  0  0  0  0  0  0
   -6.3571    0.5252    0.6124 H   0  0  0  0  0  0  0  0  0  0  0  0
   -8.2100    0.4635   -1.4315 H   0  0  0  0  0  0  0  0  0  0  0  0
   -7.6192   -1.6216   -1.6124 H   0  0  0  0  0  0  0  0  0  0  0  0
   -4.7343   -0.6363   -2.0189 H   0  0  0  0  0  0  0  0  0  0  0  0
   -5.2190   -2.8359   -0.5025 H   0  0  0  0  0  0  0  0  0  0  0  0
   -3.2422   -1.6535   -1.0820 H   0  0  0  0  0  0  0  0  0  0  0  0
   -3.0294   -2.6059   -2.5551 H   0  0  0  0  0  0  0  0  0  0  0  0
   -3.3629   -3.4896    0.3827 H   0  0  0  0  0  0  0  0  0  0  0  0
   -3.3410   -4.7301   -0.8781 H   0  0  0  0  0  0  0  0  0  0  0  0
    0.6069    5.8789    2.0042 H   0  0  0  0  0  0  0  0  0  0  0  0
    2.0152    6.5339    0.9982 H   0  0  0  0  0  0  0  0  0  0  0  0
    0.2832    6.5784    0.3984 H   0  0  0  0  0  0  0  0  0  0  0  0
   -4.2338    5.1857    1.4312 H   0  0  0  0  0  0  0  0  0  0  0  0
   -4.7090    3.6186    2.2891 H   0  0  0  0  0  0  0  0  0  0  0  0
   -3.0464    4.2313    2.3227 H   0  0  0  0  0  0  0  0  0  0  0  0
   -5.5772    3.4258   -2.0252 H   0  0  0  0  0  0  0  0  0  0  0  0
   -7.1934    3.6675   -1.1221 H   0  0  0  0  0  0  0  0  0  0  0  0
   -5.7349    4.5011   -0.6434 H   0  0  0  0  0  0  0  0  0  0  0  0
   -7.3349    2.0342   -2.8274 H   0  0  0  0  0  0  0  0  0  0  0  0
   -7.2239    0.4318   -3.4545 H   0  0  0  0  0  0  0  0  0  0  0  0
   -5.7013    1.1924   -2.9630 H   0  0  0  0  0  0  0  0  0  0  0  0
   -6.8669   -1.8865   -3.7572 H   0  0  0  0  0  0  0  0  0  0  0  0
   -5.3700   -0.8445   -4.1642 H   0  0  0  0  0  0  0  0  0  0  0  0
   -5.2577   -2.5617   -3.8927 H   0  0  0  0  0  0  0  0  0  0  0  0
   -8.2620   -2.6085   -0.1250 H   0  0  0  0  0  0  0  0  0  0  0  0
   -6.4894   -2.5579    2.4147 H   0  0  0  0  0  0  0  0  0  0  0  0
   -6.4367   -3.8950    1.1445 H   0  0  0  0  0  0  0  0  0  0  0  0
   -7.8878   -3.6389    2.1040 H   0  0  0  0  0  0  0  0  0  0  0  0
   -7.0264   -4.6710   -1.3657 H   0  0  0  0  0  0  0  0  0  0  0  0
   -5.5343   -5.6584   -1.5740 H   0  0  0  0  0  0  0  0  0  0  0  0
   -6.5410   -5.2368   -2.9427 H   0  0  0  0  0  0  0  0  0  0  0  0
   10.2438   -0.5292    1.0596 H   0  0  0  0  0  0  0  0  0  0  0  0
    8.4579    2.0244   -1.0517 H   0  0  0  0  0  0  0  0  0  0  0  0
    8.2481    1.8718    0.7243 H   0  0  0  0  0  0  0  0  0  0  0  0
    6.2364    2.2278   -0.7878 H   0  0  0  0  0  0  0  0  0  0  0  0
    6.1577    1.1530    0.7037 H   0  0  0  0  0  0  0  0  0  0  0  0
    5.9633   -1.7922   -0.6245 H   0  0  0  0  0  0  0  0  0  0  0  0
    7.1684   -1.3764   -1.9522 H   0  0  0  0  0  0  0  0  0  0  0  0
    8.3645   -1.9975    0.0387 H   0  0  0  0  0  0  0  0  0  0  0  0
    7.3851   -0.8903    1.0290 H   0  0  0  0  0  0  0  0  0  0  0  0
    4.3821    0.1953    0.6185 H   0  0  0  0  0  0  0  0  0  0  0  0
    4.3435    1.8419   -0.2253 H   0  0  0  0  0  0  0  0  0  0  0  0
   10.4194   -1.7133   -1.2780 H   0  0  0  0  0  0  0  0  0  0  0  0
   11.9014   -0.8071   -0.6838 H   0  0  0  0  0  0  0  0  0  0  0  0
   10.1889    2.1410    0.4957 H   0  0  0  0  0  0  0  0  0  0  0  0
   11.7037    1.2194    0.6455 H   0  0  0  0  0  0  0  0  0  0  0  0
    9.7852    0.3086   -2.5497 H   0  0  0  0  0  0  0  0  0  0  0  0
   11.5721    0.0545   -2.9117 H   0  0  0  0  0  0  0  0  0  0  0  0
   12.2307    1.6942   -1.4846 H   0  0  0  0  0  0  0  0  0  0  0  0
   10.6498    2.4471   -1.8340 H   0  0  0  0  0  0  0  0  0  0  0  0
    3.2927    2.5759    1.8887 H   0  0  0  0  0  0  0  0  0  0  0  0
    4.4848   -0.7992   -1.5865 H   0  0  0  0  0  0  0  0  0  0  0  0
    3.3198    1.1145    3.3078 H   0  0  0  0  0  0  0  0  0  0  0  0
    1.2822   -1.8917    3.7697 H   0  0  0  0  0  0  0  0  0  0  0  0
   -1.8135   -0.9231    0.9237 H   0  0  0  0  0  0  0  0  0  0  0  0
   -9.2793   -1.8188    1.6292 H   0  0  0  0  0  0  0  0  0  0  0  0
   -8.5648    2.0769   -0.2273 H   0  0  0  0  0  0  0  0  0  0  0  0
   -3.7020    2.0210   -1.6314 H   0  0  0  0  0  0  0  0  0  0  0  0
    2.7363    3.8621    3.0653 H   0  0  0  0  0  0  0  0  0  0  0  0
    2.2021   -0.6005   -2.5672 H   0  0  0  0  0  0  0  0  0  0  0  0
  1  2  1  0
  2  3  1  0
  3  4  1  0
  5  6  1  0
  6  7  1  0
  7  8  1  0
  1  9  1  0
  8  9  1  0
  4 10  1  0
  5 10  1  0
  9 10  1  0
  5 11  1  0
 11 12  1  0
 12 13  1  1
  7 14  1  0
 15 16  1  0
 16 17  1  0
 17 18  1  0
 18 19  1  0
 19 20  1  0
 20 21  1  0
 21 22  1  0
 22 23  1  0
 23 24  1  0
 24 25  1  0
 25 26  1  0
 26 27  1  0
 27 28  1  0
 28 29  1  0
 16 30  1  0
 20 31  1  0
 22 32  1  0
 24 33  1  0
 26 34  1  0
 35 36  1  0
 39 40  1  0
 41 42  1  0
  3 43  1  0
 38 44  1  0
 38 45  1  0
 44 46  1  0
 45 47  1  0
 46 47  1  0
  2 48  1  0
 15 48  1  0
 43 49  1  0
 40 50  1  0
 41 50  1  0
 49 50  1  0
 38 51  1  0
 39 51  1  0
 42 51  1  0
  1 52  1  0
  8 53  1  0
  6 54  1  0
 12 54  1  0
 11 55  1  0
 12 56  1  0
 29 56  1  0
 27 57  1  0
 37 57  1  0
 25 58  1  0
 35 58  1  0
 35 59  1  0
 23 60  1  0
 21 61  1  0
 15 62  1  0
  4 63  1  0
 64 65  1  0
 65 66  1  0
 66 67  1  0
 68 69  1  0
 69 70  1  0
 70 71  1  0
 64 72  1  0
 71 72  1  0
 67 73  1  0
 68 73  1  0
 72 73  1  0
 68 74  1  0
 74 75  1  0
 75 76  1  1
 70 77  1  0
 78 79  1  0
 79 80  1  0
 80 81  1  0
 81 82  1  0
 82 83  1  0
 83 84  1  0
 84 85  1  0
 85 86  1  0
 86 87  1  0
 87 88  1  0
 88 89  1  0
 89 90  1  0
 90 91  1  0
 91 92  1  0
 79 93  1  0
 83 94  1  0
 85 95  1  0
 87 96  1  0
 89 97  1  0
 98 99  1  0
102103  1  0
104105  1  0
 66106  1  0
101107  1  0
101108  1  0
107109  1  0
108110  1  0
109110  1  0
 65111  1  0
 78111  1  0
106112  1  0
103113  1  0
104113  1  0
112113  1  0
101114  1  0
102114  1  0
105114  1  0
 64115  1  0
 71116  1  0
 69117  1  0
 75117  1  0
 74118  1  0
 75119  1  0
 92119  1  0
 90120  1  0
100120  1  0
 88121  1  0
 98121  1  0
 98122  1  0
 86123  1  0
 84124  1  0
 78125  1  0
 67126  1  0
  1127  1  0
  2128  1  0
  3129  1  6
  4130  1  0
  5131  1  0
  6132  1  0
  7133  1  0
  8134  1  0
  9135  1  0
 10136  1  6
 11137  1  1
 13138  1  0
 13139  1  0
 13140  1  0
 14141  1  0
 14142  1  0
 14143  1  0
 15144  1  0
 16145  1  0
 17146  1  0
 17147  1  0
 18148  1  0
 18149  1  0
 19150  1  0
 19151  1  0
 20152  1  6
 21153  1  1
 22154  1  1
 23155  1  1
 24156  1  1
 25157  1  6
 26158  1  6
 27159  1  1
 28160  1  0
 28161  1  0
 29162  1  0
 29163  1  0
 30164  1  0
 30165  1  0
 30166  1  0
 31167  1  0
 31168  1  0
 31169  1  0
 32170  1  0
 32171  1  0
 32172  1  0
 33173  1  0
 33174  1  0
 33175  1  0
 34176  1  0
 34177  1  0
 34178  1  0
 35179  1  0
 36180  1  0
 36181  1  0
 36182  1  0
 37183  1  0
 37184  1  0
 37185  1  0
 38186  1  0
 39187  1  0
 39188  1  0
 40189  1  0
 40190  1  0
 41191  1  0
 41192  1  0
 42193  1  0
 42194  1  0
 43195  1  0
 43196  1  0
 44197  1  0
 44198  1  0
 45199  1  0
 45200  1  0
 46201  1  0
 46202  1  0
 47203  1  0
 47204  1  0
 48205  1  0
 49206  1  0
 52207  1  0
 53208  1  0
 55209  1  0
 59210  1  0
 60211  1  0
 61212  1  0
 62213  1  0
 63214  1  0
 64215  1  0
 65216  1  0
 66217  1  6
 67218  1  0
 68219  1  0
 69220  1  0
 70221  1  0
 71222  1  0
 72223  1  0
 73224  1  0
 74225  1  1
 76226  1  0
 76227  1  0
 76228  1  0
 77229  1  0
 77230  1  0
 77231  1  0
 78232  1  0
 79233  1  0
 80234  1  0
 80235  1  0
 81236  1  0
 81237  1  0
 82238  1  0
 82239  1  0
 83240  1  6
 84241  1  1
 85242  1  1
 86243  1  1
 87244  1  6
 88245  1  6
 89246  1  6
 90247  1  1
 91248  1  0
 91249  1  0
 92250  1  0
 92251  1  0
 93252  1  0
 93253  1  0
 93254  1  0
 94255  1  0
 94256  1  0
 94257  1  0
 95258  1  0
 95259  1  0
 95260  1  0
 96261  1  0
 96262  1  0
 96263  1  0
 97264  1  0
 97265  1  0
 97266  1  0
 98267  1  0
 99268  1  0
 99269  1  0
 99270  1  0
100271  1  0
100272  1  0
100273  1  0
101274  1  0
102275  1  0
102276  1  0
103277  1  0
103278  1  0
104279  1  0
104280  1  0
105281  1  0
105282  1  0
106283  1  0
106284  1  0
107285  1  0
107286  1  0
108287  1  0
108288  1  0
109289  1  0
109290  1  0
110291  1  0
110292  1  0
111293  1  0
112294  1  0
115295  1  0
116296  1  0
118297  1  0
122298  1  0
123299  1  0
124300  1  0
125301  1  0
126302  1  0
M  END
>  <PDBID>  (1) 
2A69

>  <PDB ID>  (1) 
2A69

>  <Generic Name>  (1) 
Rifapentine

>  <Brand Name>  (1) 
Priftin

>  <DrugBank ID>  (1) 
DB01201

>  <ATC Codes>  (1) 
J04AB05

>  <Ligand ID>  (1) 
RPT

>  <Target Name>  (1) 
DNA-directed RNA polymerase subunit beta'

>  <UniProt ID>  (1) 
P0A674

>  <PDB ID.1>  (1) 
2A69

>  <Seq. Identity>  (1) 
50%

$$$$
