PDB_DB00382_05
     RDKit          3D

 39 41  0  0  0  0  0  0  0  0999 V2000
    3.6582   -1.0132   -0.4115 C   0  0  0  0  0  0  0  0  0  0  0  0
    2.3242   -1.4556    0.1386 C   0  0  0  0  0  0  0  0  0  0  0  0
    1.1822   -0.7534   -0.6072 C   0  0  0  0  0  0  0  0  0  0  0  0
    1.1928    0.7104   -0.4083 C   0  0  0  0  0  0  0  0  0  0  0  0
    2.4860    1.0696    0.3376 C   0  0  0  0  0  0  0  0  0  0  0  0
    3.6880    0.4978   -0.3761 C   0  0  0  0  0  0  0  0  0  0  0  0
   -0.0208   -1.4278   -0.2714 N   0  0  0  0  0  0  0  0  0  0  0  0
   -1.2166   -0.6687   -0.5453 C   0  0  2  0  0  0  0  0  0  0  0  0
   -1.2039    0.5416    0.3522 C   0  0  1  0  0  0  0  0  0  0  0  0
    0.0675    1.2938    0.3515 C   0  0  0  0  0  0  0  0  0  0  0  0
   -2.4053   -1.5163   -0.1068 C   0  0  0  0  0  0  0  0  0  0  0  0
   -3.6944   -0.7717   -0.1498 C   0  0  0  0  0  0  0  0  0  0  0  0
   -3.6351    0.6271    0.3465 C   0  0  0  0  0  0  0  0  0  0  0  0
   -2.4049    1.3834   -0.0812 C   0  0  0  0  0  0  0  0  0  0  0  0
    0.4662    1.4986    1.7546 N   0  0  0  0  0  0  0  0  0  0  0  0
    4.4400   -1.4743    0.2250 H   0  0  0  0  0  0  0  0  0  0  0  0
    3.7756   -1.4034   -1.4357 H   0  0  0  0  0  0  0  0  0  0  0  0
    2.2327   -1.3747    1.2173 H   0  0  0  0  0  0  0  0  0  0  0  0
    2.2136   -2.5412   -0.1354 H   0  0  0  0  0  0  0  0  0  0  0  0
    1.3943   -0.9655   -1.6968 H   0  0  0  0  0  0  0  0  0  0  0  0
    1.2810    1.2650   -1.3893 H   0  0  0  0  0  0  0  0  0  0  0  0
    2.4159    0.7522    1.3838 H   0  0  0  0  0  0  0  0  0  0  0  0
    2.5741    2.1702    0.2995 H   0  0  0  0  0  0  0  0  0  0  0  0
    4.5779    0.7987    0.2029 H   0  0  0  0  0  0  0  0  0  0  0  0
    3.7575    0.9329   -1.3763 H   0  0  0  0  0  0  0  0  0  0  0  0
   -0.0959   -2.3101   -0.8583 H   0  0  0  0  0  0  0  0  0  0  0  0
   -1.3455   -0.3896   -1.5931 H   0  0  0  0  0  0  0  0  0  0  0  0
   -1.4820    0.1647    1.3805 H   0  0  0  0  0  0  0  0  0  0  0  0
   -0.1533    2.3386   -0.0209 H   0  0  0  0  0  0  0  0  0  0  0  0
   -2.5071   -2.4278   -0.7404 H   0  0  0  0  0  0  0  0  0  0  0  0
   -2.2313   -1.9033    0.9302 H   0  0  0  0  0  0  0  0  0  0  0  0
   -4.1622   -0.8546   -1.1744 H   0  0  0  0  0  0  0  0  0  0  0  0
   -4.4210   -1.3294    0.5132 H   0  0  0  0  0  0  0  0  0  0  0  0
   -4.5149    1.1764   -0.0757 H   0  0  0  0  0  0  0  0  0  0  0  0
   -3.6903    0.6590    1.4473 H   0  0  0  0  0  0  0  0  0  0  0  0
   -2.3682    1.4140   -1.1911 H   0  0  0  0  0  0  0  0  0  0  0  0
   -2.4053    2.3671    0.3850 H   0  0  0  0  0  0  0  0  0  0  0  0
    0.3528    0.6278    2.2904 H   0  0  0  0  0  0  0  0  0  0  0  0
   -0.1228    2.2917    2.1493 H   0  0  0  0  0  0  0  0  0  0  0  0
  1  2  1  0
  2  3  1  0
  3  4  1  0
  4  5  1  0
  1  6  1  0
  5  6  1  0
  3  7  1  0
  7  8  1  0
  8  9  1  0
  4 10  1  0
  9 10  1  0
  8 11  1  0
 11 12  1  0
 12 13  1  0
  9 14  1  0
 13 14  1  0
 10 15  1  0
  1 16  1  0
  1 17  1  0
  2 18  1  0
  2 19  1  0
  3 20  1  0
  4 21  1  0
  5 22  1  0
  5 23  1  0
  6 24  1  0
  6 25  1  0
  7 26  1  0
  8 27  1  6
  9 28  1  1
 10 29  1  0
 11 30  1  0
 11 31  1  0
 12 32  1  0
 12 33  1  0
 13 34  1  0
 13 35  1  0
 14 36  1  0
 14 37  1  0
 15 38  1  0
 15 39  1  0
M  END
>  <PDBID>  (1) 
1ACJ

>  <PDB ID>  (1) 
1ACJ

>  <Generic Name>  (1) 
Tacrine

>  <Brand Name>  (1) 
Cognex#Talem

>  <DrugBank ID>  (1) 
DB00382

>  <ATC Codes>  (1) 
N06DA01

>  <Ligand ID>  (1) 
THA

>  <Target Name>  (1) 
Acetylcholinesterase

>  <UniProt ID>  (1) 
P22303

>  <PDB ID.1>  (1) 
1ACJ

>  <Seq. Identity>  (1) 
57%

$$$$
