PDB_DB01064_00
     RDKit          3D

 76 76  0  0  0  0  0  0  0  0999 V2000
    4.0935   -0.7054   -0.8519 C   0  0  0  0  0  0  0  0  0  0  0  0
    3.4727    0.6627   -0.6498 C   0  0  0  0  0  0  0  0  0  0  0  0
    4.4839    1.6028    0.0065 C   0  0  0  0  0  0  0  0  0  0  0  0
    2.3275    0.6097    0.2014 N   0  0  0  0  0  0  0  0  0  0  0  0
    1.2378   -0.1980   -0.3254 C   0  0  0  0  0  0  0  0  0  0  0  0
    0.0995   -0.0796    0.6309 C   0  0  2  0  0  0  0  0  0  0  0  0
    0.5551   -0.5609    1.8727 O   0  0  0  0  0  0  0  0  0  0  0  0
   -1.0750   -0.9356    0.2014 C   0  0  0  0  0  0  0  0  0  0  0  0
   -2.2220   -0.8081    1.1825 C   0  0  0  0  0  0  0  0  0  0  0  0
   -1.4989   -0.6356   -1.2102 C   0  0  0  0  0  0  0  0  0  0  0  0
   -2.9744   -0.3185   -1.3149 C   0  0  0  0  0  0  0  0  0  0  0  0
   -3.3180    0.8166   -0.3787 C   0  0  0  0  0  0  0  0  0  0  0  0
   -4.6617    1.1106   -0.5212 O   0  0  0  0  0  0  0  0  0  0  0  0
   -2.9376    0.5119    1.0446 C   0  0  0  0  0  0  0  0  0  0  0  0
   -4.0898    0.4602    1.8156 O   0  0  0  0  0  0  0  0  0  0  0  0
    4.0935   -0.7054   -0.8519 C   0  0  0  0  0  0  0  0  0  0  0  0
    3.4727    0.6627   -0.6498 C   0  0  0  0  0  0  0  0  0  0  0  0
    4.4839    1.6028    0.0065 C   0  0  0  0  0  0  0  0  0  0  0  0
    2.3275    0.6097    0.2014 N   0  0  0  0  0  0  0  0  0  0  0  0
    1.2378   -0.1980   -0.3254 C   0  0  0  0  0  0  0  0  0  0  0  0
    0.0995   -0.0796    0.6309 C   0  0  2  0  0  0  0  0  0  0  0  0
    0.5551   -0.5609    1.8727 O   0  0  0  0  0  0  0  0  0  0  0  0
   -1.0750   -0.9356    0.2014 C   0  0  0  0  0  0  0  0  0  0  0  0
   -2.2220   -0.8081    1.1825 C   0  0  0  0  0  0  0  0  0  0  0  0
   -1.4989   -0.6356   -1.2102 C   0  0  0  0  0  0  0  0  0  0  0  0
   -2.9744   -0.3185   -1.3149 C   0  0  0  0  0  0  0  0  0  0  0  0
   -3.3180    0.8166   -0.3787 C   0  0  0  0  0  0  0  0  0  0  0  0
   -4.6617    1.1106   -0.5212 O   0  0  0  0  0  0  0  0  0  0  0  0
   -2.9376    0.5119    1.0446 C   0  0  0  0  0  0  0  0  0  0  0  0
   -4.0898    0.4602    1.8156 O   0  0  0  0  0  0  0  0  0  0  0  0
    3.6838   -1.4715   -0.1704 H   0  0  0  0  0  0  0  0  0  0  0  0
    3.8428   -1.0728   -1.8899 H   0  0  0  0  0  0  0  0  0  0  0  0
    5.2055   -0.6792   -0.8035 H   0  0  0  0  0  0  0  0  0  0  0  0
    3.1648    1.0681   -1.6421 H   0  0  0  0  0  0  0  0  0  0  0  0
    5.3037    0.9878    0.3835 H   0  0  0  0  0  0  0  0  0  0  0  0
    4.8912    2.3006   -0.7660 H   0  0  0  0  0  0  0  0  0  0  0  0
    4.0004    2.1921    0.7965 H   0  0  0  0  0  0  0  0  0  0  0  0
    2.5056    0.4320    1.1890 H   0  0  0  0  0  0  0  0  0  0  0  0
    0.9982    0.0763   -1.3621 H   0  0  0  0  0  0  0  0  0  0  0  0
    1.5898   -1.2566   -0.3385 H   0  0  0  0  0  0  0  0  0  0  0  0
   -0.2249    0.9716    0.7946 H   0  0  0  0  0  0  0  0  0  0  0  0
    0.8188   -1.5124    1.7602 H   0  0  0  0  0  0  0  0  0  0  0  0
   -0.7416   -1.9891    0.2443 H   0  0  0  0  0  0  0  0  0  0  0  0
   -2.9163   -1.6429    1.0631 H   0  0  0  0  0  0  0  0  0  0  0  0
   -1.7838   -0.8363    2.1984 H   0  0  0  0  0  0  0  0  0  0  0  0
   -0.9606    0.2585   -1.5814 H   0  0  0  0  0  0  0  0  0  0  0  0
   -1.2945   -1.4757   -1.9039 H   0  0  0  0  0  0  0  0  0  0  0  0
   -3.5914   -1.2018   -1.1655 H   0  0  0  0  0  0  0  0  0  0  0  0
   -3.1301    0.0579   -2.3470 H   0  0  0  0  0  0  0  0  0  0  0  0
   -2.7451    1.7072   -0.7131 H   0  0  0  0  0  0  0  0  0  0  0  0
   -5.1541    0.5118   -1.1092 H   0  0  0  0  0  0  0  0  0  0  0  0
   -2.3041    1.3214    1.4613 H   0  0  0  0  0  0  0  0  0  0  0  0
   -4.6506   -0.2798    1.5059 H   0  0  0  0  0  0  0  0  0  0  0  0
    3.6838   -1.4715   -0.1704 H   0  0  0  0  0  0  0  0  0  0  0  0
    3.8428   -1.0728   -1.8899 H   0  0  0  0  0  0  0  0  0  0  0  0
    5.2055   -0.6792   -0.8035 H   0  0  0  0  0  0  0  0  0  0  0  0
    3.1648    1.0681   -1.6421 H   0  0  0  0  0  0  0  0  0  0  0  0
    5.3037    0.9878    0.3835 H   0  0  0  0  0  0  0  0  0  0  0  0
    4.8912    2.3006   -0.7660 H   0  0  0  0  0  0  0  0  0  0  0  0
    4.0004    2.1921    0.7965 H   0  0  0  0  0  0  0  0  0  0  0  0
    2.5056    0.4320    1.1890 H   0  0  0  0  0  0  0  0  0  0  0  0
    0.9982    0.0763   -1.3621 H   0  0  0  0  0  0  0  0  0  0  0  0
    1.5898   -1.2566   -0.3385 H   0  0  0  0  0  0  0  0  0  0  0  0
   -0.2249    0.9716    0.7946 H   0  0  0  0  0  0  0  0  0  0  0  0
    0.8188   -1.5124    1.7602 H   0  0  0  0  0  0  0  0  0  0  0  0
   -0.7416   -1.9891    0.2443 H   0  0  0  0  0  0  0  0  0  0  0  0
   -2.9163   -1.6429    1.0631 H   0  0  0  0  0  0  0  0  0  0  0  0
   -1.7838   -0.8363    2.1984 H   0  0  0  0  0  0  0  0  0  0  0  0
   -0.9606    0.2585   -1.5814 H   0  0  0  0  0  0  0  0  0  0  0  0
   -1.2945   -1.4757   -1.9039 H   0  0  0  0  0  0  0  0  0  0  0  0
   -3.5914   -1.2018   -1.1655 H   0  0  0  0  0  0  0  0  0  0  0  0
   -3.1301    0.0579   -2.3470 H   0  0  0  0  0  0  0  0  0  0  0  0
   -2.7451    1.7072   -0.7131 H   0  0  0  0  0  0  0  0  0  0  0  0
   -5.1541    0.5118   -1.1092 H   0  0  0  0  0  0  0  0  0  0  0  0
   -2.3041    1.3214    1.4613 H   0  0  0  0  0  0  0  0  0  0  0  0
   -4.6506   -0.2798    1.5059 H   0  0  0  0  0  0  0  0  0  0  0  0
  1  2  1  0
  2  3  1  0
  2  4  1  0
  4  5  1  0
  5  6  1  0
  6  7  1  0
  6  8  1  0
  8  9  1  0
  8 10  1  0
 10 11  1  0
 11 12  1  0
 12 13  1  0
  9 14  1  0
 12 14  1  0
 14 15  1  0
 16 17  1  0
 17 18  1  0
 17 19  1  0
 19 20  1  0
 20 21  1  0
 21 22  1  0
 21 23  1  0
 23 24  1  0
 23 25  1  0
 25 26  1  0
 26 27  1  0
 27 28  1  0
 24 29  1  0
 27 29  1  0
 29 30  1  0
  1 31  1  0
  1 32  1  0
  1 33  1  0
  2 34  1  0
  3 35  1  0
  3 36  1  0
  3 37  1  0
  4 38  1  0
  5 39  1  0
  5 40  1  0
  6 41  1  1
  7 42  1  0
  8 43  1  0
  9 44  1  0
  9 45  1  0
 10 46  1  0
 10 47  1  0
 11 48  1  0
 11 49  1  0
 12 50  1  0
 13 51  1  0
 14 52  1  0
 15 53  1  0
 16 54  1  0
 16 55  1  0
 16 56  1  0
 17 57  1  0
 18 58  1  0
 18 59  1  0
 18 60  1  0
 19 61  1  0
 20 62  1  0
 20 63  1  0
 21 64  1  1
 22 65  1  0
 23 66  1  0
 24 67  1  0
 24 68  1  0
 25 69  1  0
 25 70  1  0
 26 71  1  0
 26 72  1  0
 27 73  1  0
 28 74  1  0
 29 75  1  0
 30 76  1  0
M  END
>  <PDBID>  (1) 
2Y03

>  <PDB ID>  (1) 
2Y03

>  <Generic Name>  (1) 
Isoprenaline

>  <Brand Name>  (1) 
Isoproterenol HCl Inj 1:5000#Isoproterenol Hydrochloride Injection USP#Isuprel#Isuprel Inj 0.2mg/ml#Isuprel Liq 0.2mg/ml#Isuprel Liq 0.5%#Isuprel Liq Inh 0.5%#Isuprel Mistometer 125mcg/aem#Isuprel Mistometer Aem 0.25%#Medihaler-Iso#Proternol L#Saventrine

>  <DrugBank ID>  (1) 
DB01064

>  <ATC Codes>  (1) 
R03AK02#R03CB01#R03CB51#R03AB02#C01CA02

>  <Ligand ID>  (1) 
5FW

>  <Target Name>  (1) 
Beta-1 adrenergic receptor

>  <UniProt ID>  (1) 
P08588

>  <PDB ID.1>  (1) 
2Y03

>  <Seq. Identity>  (1) 
63%

$$$$
