PDB_DB04839_05
     RDKit          3D

 68 72  0  0  0  0  0  0  0  0999 V2000
    4.5968   -0.5697    1.4707 C   0  0  0  0  0  0  0  0  0  0  0  0
   -0.8983    0.6068    0.8734 C   0  0  1  0  0  0  0  0  0  0  0  0
    3.2008   -0.0630    1.3642 C   0  0  2  0  0  0  0  0  0  0  0  0
    2.3137   -0.4043    2.5277 C   0  0  0  0  0  0  0  0  0  0  0  0
    0.6156    0.2001   -1.3523 C   0  0  0  0  0  0  0  0  0  0  0  0
    1.0759    0.4532    2.3835 C   0  0  0  0  0  0  0  0  0  0  0  0
    0.3576   -0.1055    1.1366 C   0  0  2  0  0  0  0  0  0  0  0  0
    1.2479    0.2743   -0.0362 C   0  0  1  0  0  0  0  0  0  0  0  0
    2.6088   -0.3707    0.0188 C   0  0  2  0  0  0  0  0  0  0  0  0
   -0.8730    0.4152   -1.4584 C   0  0  0  0  0  0  0  0  0  0  0  0
   -1.6466   -0.1188   -0.2584 C   0  0  1  0  0  0  0  0  0  0  0  0
    5.4435    0.2089    0.4965 C   0  0  0  0  0  0  0  0  0  0  0  0
    2.5893   -1.8196   -0.3191 C   0  0  0  0  0  0  0  0  0  0  0  0
    3.4377    0.3198   -1.0397 C   0  0  1  0  0  0  0  0  0  0  0  0
    3.9312    1.6879   -0.9277 C   0  0  0  0  0  0  0  0  0  0  0  0
    4.8530    0.4281   -0.8281 C   0  0  1  0  0  0  0  0  0  0  0  0
    6.6783   -0.4527    0.3805 O   0  0  0  0  0  0  0  0  0  0  0  0
    1.8888   -2.1071    2.6436 Cl  0  0  0  0  0  0  0  0  0  0  0  0
   -1.3081   -1.5835   -0.2765 C   0  0  0  0  0  0  0  0  0  0  0  0
   -1.8937    0.7392    1.9296 C   0  0  0  0  0  0  0  0  0  0  0  0
   -3.0202    1.2200    1.0595 C   0  0  0  0  0  0  0  0  0  0  0  0
   -3.0434    0.2360   -0.1381 C   0  0  2  0  0  0  0  0  0  0  0  0
   -4.0639   -0.7636    0.2711 C   0  0  0  0  0  0  0  0  0  0  0  0
   -3.8533   -1.9815    1.0009 C   0  0  0  0  0  0  0  0  0  0  0  0
   -5.2127   -0.1459    0.7832 O   0  0  0  0  0  0  0  0  0  0  0  0
   -3.4902    1.0287   -1.1297 O   0  0  0  0  0  0  0  0  0  0  0  0
   -3.6947    0.8474   -2.3912 C   0  0  0  0  0  0  0  0  0  0  0  0
   -5.1702    0.8582   -2.8468 C   0  0  0  0  0  0  0  0  0  0  0  0
   -2.9845    1.6826   -3.2508 O   0  0  0  0  0  0  0  0  0  0  0  0
    4.7199   -1.6521    1.4092 H   0  0  0  0  0  0  0  0  0  0  0  0
    4.9630   -0.2899    2.5034 H   0  0  0  0  0  0  0  0  0  0  0  0
   -0.6276    1.6634    0.5585 H   0  0  0  0  0  0  0  0  0  0  0  0
    3.2815    1.0670    1.4048 H   0  0  0  0  0  0  0  0  0  0  0  0
    2.8502   -0.0522    3.4396 H   0  0  0  0  0  0  0  0  0  0  0  0
    0.9367   -0.7108   -1.9122 H   0  0  0  0  0  0  0  0  0  0  0  0
    1.0623    1.0210   -2.0003 H   0  0  0  0  0  0  0  0  0  0  0  0
    0.4132    0.3236    3.2618 H   0  0  0  0  0  0  0  0  0  0  0  0
    1.3595    1.5056    2.2195 H   0  0  0  0  0  0  0  0  0  0  0  0
    0.2692   -1.1627    1.3287 H   0  0  0  0  0  0  0  0  0  0  0  0
    1.4700    1.3726    0.1792 H   0  0  0  0  0  0  0  0  0  0  0  0
   -1.0452    1.5088   -1.4636 H   0  0  0  0  0  0  0  0  0  0  0  0
   -1.1581   -0.0452   -2.4106 H   0  0  0  0  0  0  0  0  0  0  0  0
    5.6660    1.1941    0.9652 H   0  0  0  0  0  0  0  0  0  0  0  0
    3.5517   -2.3350   -0.1082 H   0  0  0  0  0  0  0  0  0  0  0  0
    1.8148   -2.4295    0.1444 H   0  0  0  0  0  0  0  0  0  0  0  0
    2.4652   -1.9416   -1.4330 H   0  0  0  0  0  0  0  0  0  0  0  0
    3.1017    0.0083   -2.0752 H   0  0  0  0  0  0  0  0  0  0  0  0
    4.0571    2.2896   -1.8763 H   0  0  0  0  0  0  0  0  0  0  0  0
    3.8882    2.3339   -0.0545 H   0  0  0  0  0  0  0  0  0  0  0  0
    5.5407    0.3052   -1.7001 H   0  0  0  0  0  0  0  0  0  0  0  0
    7.3092    0.1128   -0.1277 H   0  0  0  0  0  0  0  0  0  0  0  0
   -0.2809   -1.7188   -0.6605 H   0  0  0  0  0  0  0  0  0  0  0  0
   -1.3662   -2.1035    0.6607 H   0  0  0  0  0  0  0  0  0  0  0  0
   -1.9378   -2.0213   -1.1011 H   0  0  0  0  0  0  0  0  0  0  0  0
   -1.6116    1.6321    2.5646 H   0  0  0  0  0  0  0  0  0  0  0  0
   -2.0968   -0.1288    2.5510 H   0  0  0  0  0  0  0  0  0  0  0  0
   -3.9888    1.2675    1.5665 H   0  0  0  0  0  0  0  0  0  0  0  0
   -2.7201    2.2478    0.7123 H   0  0  0  0  0  0  0  0  0  0  0  0
   -4.5049   -1.1181   -0.7375 H   0  0  0  0  0  0  0  0  0  0  0  0
   -3.5712   -2.8933    0.4088 H   0  0  0  0  0  0  0  0  0  0  0  0
   -4.8977   -2.3430    1.3301 H   0  0  0  0  0  0  0  0  0  0  0  0
   -3.3551   -1.9709    1.9889 H   0  0  0  0  0  0  0  0  0  0  0  0
   -5.8694   -0.7895    1.0924 H   0  0  0  0  0  0  0  0  0  0  0  0
   -3.4035   -0.1835   -2.6882 H   0  0  0  0  0  0  0  0  0  0  0  0
   -5.2764    1.2247   -3.8855 H   0  0  0  0  0  0  0  0  0  0  0  0
   -5.6801    1.5942   -2.1959 H   0  0  0  0  0  0  0  0  0  0  0  0
   -5.6559   -0.0998   -2.7642 H   0  0  0  0  0  0  0  0  0  0  0  0
   -3.3588    2.5964   -3.1821 H   0  0  0  0  0  0  0  0  0  0  0  0
  1  3  1  0
  3  4  1  0
  4  6  1  0
  2  7  1  0
  6  7  1  0
  5  8  1  0
  7  8  1  0
  3  9  1  0
  8  9  1  0
  5 10  1  0
  2 11  1  0
 10 11  1  0
  1 12  1  0
  9 13  1  6
  9 14  1  0
 14 15  1  0
 12 16  1  0
 14 16  1  0
 15 16  1  0
 12 17  1  0
  4 18  1  0
 11 19  1  1
  2 20  1  0
 20 21  1  0
 11 22  1  0
 21 22  1  0
 22 23  1  0
 23 24  1  0
 23 25  1  0
 22 26  1  6
 26 27  1  0
 27 28  1  0
 27 29  1  0
  1 30  1  0
  1 31  1  0
  2 32  1  6
  3 33  1  6
  4 34  1  0
  5 35  1  0
  5 36  1  0
  6 37  1  0
  6 38  1  0
  7 39  1  1
  8 40  1  1
 10 41  1  0
 10 42  1  0
 12 43  1  0
 13 44  1  0
 13 45  1  0
 13 46  1  0
 14 47  1  6
 15 48  1  0
 15 49  1  0
 16 50  1  6
 17 51  1  0
 19 52  1  0
 19 53  1  0
 19 54  1  0
 20 55  1  0
 20 56  1  0
 21 57  1  0
 21 58  1  0
 23 59  1  0
 24 60  1  0
 24 61  1  0
 24 62  1  0
 25 63  1  0
 27 64  1  0
 28 65  1  0
 28 66  1  0
 28 67  1  0
 29 68  1  0
M  END
>  <PDBID>  (1) 
2OZ7

>  <PDB ID>  (1) 
2OZ7

>  <Generic Name>  (1) 
Cyproterone acetate

>  <Brand Name>  (1) 
Alti-cpa#Androcur#Androcur Depot#ClÃ©o -35#Cyestra-35#Cyproterone#Diane-35#Med-cyproterone#Mylan-cyproterone#Novo-cyproterone#Novo-cyproterone/ethinyl Estradiol#Ran-cyproterone/ethinyl Estradiol#Riva-cyproterone#Riva-cyproterone 50 mg#Cyprostat

>  <DrugBank ID>  (1) 
DB04839

>  <ATC Codes>  (1) 
G03HB01#G03HA01

>  <Ligand ID>  (1) 
CA4

>  <Target Name>  (1) 
Androgen receptor

>  <UniProt ID>  (1) 
P10275

>  <PDB ID.1>  (1) 
2OZ7

>  <Seq. Identity>  (1) 
100%

$$$$
