PDB_DB01113_04
     RDKit          3D

 62 64  0  0  0  0  0  0  0  0999 V2000
    5.3471   -0.0199   -2.5071 C   0  0  0  0  0  0  0  0  0  0  0  0
    4.6956    0.6674   -1.4756 O   0  0  0  0  0  0  0  0  0  0  0  0
    4.0943   -0.1978   -0.5984 C   0  0  0  0  0  0  0  0  0  0  0  0
    4.6001   -0.0957    0.8146 C   0  0  0  0  0  0  0  0  0  0  0  0
    4.2099    1.0593    1.4626 O   0  0  0  0  0  0  0  0  0  0  0  0
    5.3224    1.8200    1.8693 C   0  0  0  0  0  0  0  0  0  0  0  0
    4.0514   -1.2894    1.5861 C   0  0  0  0  0  0  0  0  0  0  0  0
    2.7265   -1.7410    1.0117 C   0  0  0  0  0  0  0  0  0  0  0  0
    2.5983    0.1076   -0.5950 C   0  0  0  0  0  0  0  0  0  0  0  0
    1.9563   -0.4920    0.6266 C   0  0  0  0  0  0  0  0  0  0  0  0
    0.4883   -0.7895    0.4457 C   0  0  0  0  0  0  0  0  0  0  0  0
   -0.2582    0.4449    0.0694 C   0  0  0  0  0  0  0  0  0  0  0  0
    0.2250    1.0014   -1.1548 N   0  0  0  0  0  0  0  0  0  0  0  0
   -0.5465    0.5958   -2.3125 C   0  0  0  0  0  0  0  0  0  0  0  0
   -1.9662    1.1348   -2.2672 C   0  0  0  0  0  0  0  0  0  0  0  0
   -2.2728    1.4507   -0.8365 C   0  0  0  0  0  0  0  0  0  0  0  0
   -1.7360    0.2664   -0.0201 C   0  0  0  0  0  0  0  0  0  0  0  0
   -2.4409    0.1944    1.2897 C   0  0  0  0  0  0  0  0  0  0  0  0
   -3.8718   -0.2693    1.0225 C   0  0  0  0  0  0  0  0  0  0  0  0
   -3.8775   -1.6492    1.1424 O   0  0  0  0  0  0  0  0  0  0  0  0
   -4.7304   -2.1070    2.1338 C   0  0  0  0  0  0  0  0  0  0  0  0
   -4.3031    0.1940   -0.3486 C   0  0  0  0  0  0  0  0  0  0  0  0
   -3.7160    1.6009   -0.5248 C   0  0  0  0  0  0  0  0  0  0  0  0
   -5.6779    0.3371   -0.4507 O   0  0  0  0  0  0  0  0  0  0  0  0
   -6.1057   -0.4208   -1.5387 C   0  0  0  0  0  0  0  0  0  0  0  0
    6.1313   -0.6827   -2.0420 H   0  0  0  0  0  0  0  0  0  0  0  0
    5.8152    0.6989   -3.2048 H   0  0  0  0  0  0  0  0  0  0  0  0
    4.6648   -0.6915   -3.0529 H   0  0  0  0  0  0  0  0  0  0  0  0
    4.2831   -1.2361   -0.9393 H   0  0  0  0  0  0  0  0  0  0  0  0
    5.7203   -0.1756    0.7537 H   0  0  0  0  0  0  0  0  0  0  0  0
    4.9354    2.7273    2.3795 H   0  0  0  0  0  0  0  0  0  0  0  0
    5.9592    1.2758    2.5727 H   0  0  0  0  0  0  0  0  0  0  0  0
    5.8681    2.1649    0.9609 H   0  0  0  0  0  0  0  0  0  0  0  0
    4.7967   -2.1053    1.6022 H   0  0  0  0  0  0  0  0  0  0  0  0
    3.8686   -1.0178    2.6495 H   0  0  0  0  0  0  0  0  0  0  0  0
    2.8358   -2.4195    0.1567 H   0  0  0  0  0  0  0  0  0  0  0  0
    2.1595   -2.2318    1.8159 H   0  0  0  0  0  0  0  0  0  0  0  0
    2.5226    1.2141   -0.5842 H   0  0  0  0  0  0  0  0  0  0  0  0
    2.1675   -0.3082   -1.5448 H   0  0  0  0  0  0  0  0  0  0  0  0
    2.0279    0.2234    1.4816 H   0  0  0  0  0  0  0  0  0  0  0  0
    0.1133   -1.3009    1.3303 H   0  0  0  0  0  0  0  0  0  0  0  0
    0.3945   -1.5284   -0.4020 H   0  0  0  0  0  0  0  0  0  0  0  0
   -0.0558    1.2053    0.8780 H   0  0  0  0  0  0  0  0  0  0  0  0
    0.3355    2.0435   -1.1204 H   0  0  0  0  0  0  0  0  0  0  0  0
   -0.5302   -0.5163   -2.3346 H   0  0  0  0  0  0  0  0  0  0  0  0
   -0.0607    1.0052   -3.2022 H   0  0  0  0  0  0  0  0  0  0  0  0
   -2.6291    0.2868   -2.5731 H   0  0  0  0  0  0  0  0  0  0  0  0
   -2.1085    1.9955   -2.9484 H   0  0  0  0  0  0  0  0  0  0  0  0
   -1.7163    2.3608   -0.5347 H   0  0  0  0  0  0  0  0  0  0  0  0
   -1.9321   -0.6798   -0.5947 H   0  0  0  0  0  0  0  0  0  0  0  0
   -1.9125   -0.5666    1.9236 H   0  0  0  0  0  0  0  0  0  0  0  0
   -2.4711    1.1875    1.7556 H   0  0  0  0  0  0  0  0  0  0  0  0
   -4.5586    0.1960    1.7524 H   0  0  0  0  0  0  0  0  0  0  0  0
   -4.4995   -1.7434    3.1337 H   0  0  0  0  0  0  0  0  0  0  0  0
   -5.7644   -1.9055    1.7906 H   0  0  0  0  0  0  0  0  0  0  0  0
   -4.6253   -3.2169    2.1553 H   0  0  0  0  0  0  0  0  0  0  0  0
   -3.9086   -0.4717   -1.1414 H   0  0  0  0  0  0  0  0  0  0  0  0
   -3.8117    2.1095    0.4628 H   0  0  0  0  0  0  0  0  0  0  0  0
   -4.2922    2.1872   -1.2488 H   0  0  0  0  0  0  0  0  0  0  0  0
   -5.6066   -0.0529   -2.4768 H   0  0  0  0  0  0  0  0  0  0  0  0
   -5.7196   -1.4510   -1.3828 H   0  0  0  0  0  0  0  0  0  0  0  0
   -7.2088   -0.3830   -1.6284 H   0  0  0  0  0  0  0  0  0  0  0  0
  1  2  1  0
  2  3  1  0
  3  4  1  0
  4  5  1  0
  5  6  1  0
  4  7  1  0
  7  8  1  0
  3  9  1  0
  8 10  1  0
  9 10  1  0
 10 11  1  0
 11 12  1  0
 12 13  1  0
 13 14  1  0
 14 15  1  0
 15 16  1  0
 12 17  1  0
 16 17  1  0
 17 18  1  0
 18 19  1  0
 19 20  1  0
 20 21  1  0
 19 22  1  0
 16 23  1  0
 22 23  1  0
 22 24  1  0
 24 25  1  0
  1 26  1  0
  1 27  1  0
  1 28  1  0
  3 29  1  0
  4 30  1  0
  6 31  1  0
  6 32  1  0
  6 33  1  0
  7 34  1  0
  7 35  1  0
  8 36  1  0
  8 37  1  0
  9 38  1  0
  9 39  1  0
 10 40  1  0
 11 41  1  0
 11 42  1  0
 12 43  1  0
 13 44  1  0
 14 45  1  0
 14 46  1  0
 15 47  1  0
 15 48  1  0
 16 49  1  0
 17 50  1  0
 18 51  1  0
 18 52  1  0
 19 53  1  0
 21 54  1  0
 21 55  1  0
 21 56  1  0
 22 57  1  0
 23 58  1  0
 23 59  1  0
 25 60  1  0
 25 61  1  0
 25 62  1  0
M  END
>  <PDBID>  (1) 
3IAK

>  <PDB ID>  (1) 
3IAK

>  <Generic Name>  (1) 
Papaverine

>  <Brand Name>  (1) 
Papaverine Hydrochloride#Papaverine Hydrochloride Injection USP#Alapav#Albatran#Artegodan#Cardioverina#Cerebid#Cerespan#Delapav#Dilaves#Dispamil#Drapavel#Durapav#Dynovas#Mesotina#Myobid#Optenyl#Pameion#Pamelon#Panergon#Papacon#Papalease#Papaversan#Papital T.R.#Paptial T.R.#Pavabid#Pavacap#Pavacen#Pavadel#Pavagen#Pavakey#Pavased#Pavatest#Paverolan#Paveron#Pavnell#Qua Bid#Ro-Papav#Therapav#Vasal#Vaso-Pav

>  <DrugBank ID>  (1) 
DB01113

>  <ATC Codes>  (1) 
G04BE52#G04BE02#A03AD01

>  <Ligand ID>  (1) 
EV1

>  <Target Name>  (1) 
cAMP-specific 3',5'-cyclic phosphodiesterase 4B

>  <UniProt ID>  (1) 
Q07343

>  <PDB ID.1>  (1) 
3IAK

>  <Seq. Identity>  (1) 
85%

$$$$
