PDB_DB01144_09
     RDKit          3D

 32 32  0  0  0  0  0  0  0  0999 V2000
   -2.4867    0.9567   -0.0868 S   0  0  0  0  0  0  0  0  0  0  0  0
   -2.1376    1.7909   -1.0700 O   0  0  0  0  0  0  0  0  0  0  0  0
   -3.9717    0.2724    0.0770 O   0  0  0  0  0  0  0  0  0  0  0  0
   -2.2161    1.7286    1.5532 N   0  0  0  0  0  0  0  0  0  0  0  0
    2.5179    0.3004    0.8649 S   0  0  0  0  0  0  0  0  0  0  0  0
    3.8156   -0.6674    0.5037 O   0  0  0  0  0  0  0  0  0  0  0  0
    2.4307    0.4534    2.4274 O   0  0  0  0  0  0  0  0  0  0  0  0
    2.5206    1.6754    0.0663 N   0  0  0  0  0  0  0  0  0  0  0  0
   -1.3598   -0.5077    0.1638 C   0  0  0  0  0  0  0  0  0  0  0  0
   -0.0790    0.1755    0.5706 C   0  0  0  0  0  0  0  0  0  0  0  0
    1.1423   -0.6477    0.3542 C   0  0  0  0  0  0  0  0  0  0  0  0
    1.2131   -0.9955   -1.1244 C   0  0  0  0  0  0  0  0  0  0  0  0
    0.0269   -1.9023   -1.3995 C   0  0  0  0  0  0  0  0  0  0  0  0
   -1.2826   -1.2252   -1.1323 C   0  0  0  0  0  0  0  0  0  0  0  0
    2.6921   -1.9066   -1.4948 Cl  0  0  0  0  0  0  0  0  0  0  0  0
    0.0378   -2.5208   -3.0489 Cl  0  0  0  0  0  0  0  0  0  0  0  0
   -1.5918    2.0372   -1.8411 H   0  0  0  0  0  0  0  0  0  0  0  0
   -4.4948    0.4800   -0.7560 H   0  0  0  0  0  0  0  0  0  0  0  0
   -3.1035    2.2455    1.7305 H   0  0  0  0  0  0  0  0  0  0  0  0
   -2.1432    0.9224    2.1933 H   0  0  0  0  0  0  0  0  0  0  0  0
    3.9154   -1.3306    1.2344 H   0  0  0  0  0  0  0  0  0  0  0  0
    2.1183    1.2638    2.8607 H   0  0  0  0  0  0  0  0  0  0  0  0
    3.2670    2.3351    0.3398 H   0  0  0  0  0  0  0  0  0  0  0  0
    2.3278    1.6679   -0.9536 H   0  0  0  0  0  0  0  0  0  0  0  0
   -1.8067   -1.0567    0.9940 H   0  0  0  0  0  0  0  0  0  0  0  0
   -0.1691    0.4448    1.6458 H   0  0  0  0  0  0  0  0  0  0  0  0
    0.0549    1.1393    0.0250 H   0  0  0  0  0  0  0  0  0  0  0  0
    1.0881   -1.6217    0.8986 H   0  0  0  0  0  0  0  0  0  0  0  0
    1.1385   -0.0836   -1.7485 H   0  0  0  0  0  0  0  0  0  0  0  0
    0.1571   -2.7849   -0.7168 H   0  0  0  0  0  0  0  0  0  0  0  0
   -2.0633   -2.0414   -1.1121 H   0  0  0  0  0  0  0  0  0  0  0  0
   -1.5582   -0.5970   -2.0185 H   0  0  0  0  0  0  0  0  0  0  0  0
  1  2  1  0
  1  3  1  0
  1  4  1  0
  5  6  1  0
  5  7  1  0
  5  8  1  0
  1  9  1  0
  9 10  1  0
  5 11  1  0
 10 11  1  0
 11 12  1  0
 12 13  1  0
  9 14  1  0
 13 14  1  0
 12 15  1  0
 13 16  1  0
  2 17  1  0
  3 18  1  0
  4 19  1  0
  4 20  1  0
  6 21  1  0
  7 22  1  0
  8 23  1  0
  8 24  1  0
  9 25  1  0
 10 26  1  0
 10 27  1  0
 11 28  1  0
 12 29  1  0
 13 30  1  0
 14 31  1  0
 14 32  1  0
M  END
>  <PDBID>  (1) 
2POU

>  <PDB ID>  (1) 
2POU

>  <Generic Name>  (1) 
Diclofenamide

>  <Brand Name>  (1) 
Daranide#Keveyis#Oratrol

>  <DrugBank ID>  (1) 
DB01144

>  <ATC Codes>  (1) 
S01EC02

>  <Ligand ID>  (1) 
I7A

>  <Target Name>  (1) 
Carbonic anhydrase 1

>  <UniProt ID>  (1) 
P00915

>  <PDB ID.1>  (1) 
2POU

>  <Seq. Identity>  (1) 
61%

$$$$
