PDB_DB01254_00
     RDKit          3D

154160  0  0  0  0  0  0  0  0999 V2000
   -1.5141    0.3570   -0.3796 C   0  0  0  0  0  0  0  0  0  0  0  0
   -2.9036   -0.1481    0.0376 C   0  0  0  0  0  0  0  0  0  0  0  0
   -3.7164   -0.5229   -1.1556 C   0  0  0  0  0  0  0  0  0  0  0  0
    6.3084    1.7576   -0.5311 N   0  0  0  0  0  0  0  0  0  0  0  0
   -8.2141    1.4371    0.4574 C   0  0  0  0  0  0  0  0  0  0  0  0
   -7.6491    1.3352   -0.9288 C   0  0  0  0  0  0  0  0  0  0  0  0
   -6.1656    1.0695   -0.9686 C   0  0  0  0  0  0  0  0  0  0  0  0
   -5.3958    2.3317   -0.6234 C   0  0  0  0  0  0  0  0  0  0  0  0
    1.5681   -2.0212    0.7932 C   0  0  0  0  0  0  0  0  0  0  0  0
    2.2934   -0.7535    0.4076 C   0  0  0  0  0  0  0  0  0  0  0  0
    3.6066   -0.7909    1.1191 C   0  0  0  0  0  0  0  0  0  0  0  0
    3.5966   -3.2090    0.9087 C   0  0  0  0  0  0  0  0  0  0  0  0
    4.6245   -3.8946    0.0214 C   0  0  0  0  0  0  0  0  0  0  0  0
    4.8888   -0.2450   -0.8741 C   0  0  0  0  0  0  0  0  0  0  0  0
    5.7743    0.1861    1.2646 C   0  0  0  0  0  0  0  0  0  0  0  0
    6.0897    3.0977   -0.8707 C   0  0  0  0  0  0  0  0  0  0  0  0
    4.6453    3.5321   -0.8773 C   0  0  0  0  0  0  0  0  0  0  0  0
    0.2064   -2.1314    0.4931 N   0  0  0  0  0  0  0  0  0  0  0  0
   -0.6268   -1.2052    1.1389 C   0  0  1  0  0  0  0  0  0  0  0  0
   -0.6203    0.1482    0.7104 N   0  0  0  0  0  0  0  0  0  0  0  0
   -2.4093   -1.6363    0.9522 S   0  0  0  0  0  0  0  0  0  0  0  0
   -4.9945   -1.0107   -0.7621 N   0  0  0  0  0  0  0  0  0  0  0  0
   -5.8419   -0.0925   -0.0735 C   0  0  2  0  0  0  0  0  0  0  0  0
   -7.1332   -0.7662    0.3815 C   0  0  0  0  0  0  0  0  0  0  0  0
   -7.8591    0.2105    1.2756 C   0  0  0  0  0  0  0  0  0  0  0  0
   -6.7763   -2.2577    1.2850 Cl  0  0  0  0  0  0  0  0  0  0  0  0
   -2.9961   -1.4977   -1.8770 O   0  0  0  0  0  0  0  0  0  0  0  0
    4.1339   -2.0528    1.4678 N   0  0  0  0  0  0  0  0  0  0  0  0
    2.3757   -3.0761    0.1729 N   0  0  0  0  0  0  0  0  0  0  0  0
    4.5503    0.0889    0.4679 N   0  0  0  0  0  0  0  0  0  0  0  0
    5.8742    0.7621   -1.4190 C   0  0  0  0  0  0  0  0  0  0  0  0
    6.5270    1.3920    0.8113 C   0  0  0  0  0  0  0  0  0  0  0  0
    4.0646    3.3608    0.3895 O   0  0  0  0  0  0  0  0  0  0  0  0
   -2.2308   -0.1289    0.8841 C   0  0  0  0  0  0  0  0  0  0  0  0
   -3.0172    0.8267    0.0466 C   0  0  0  0  0  0  0  0  0  0  0  0
   -3.7033    0.2565   -1.1391 C   0  0  0  0  0  0  0  0  0  0  0  0
    6.3889    1.0480    0.6934 N   0  0  0  0  0  0  0  0  0  0  0  0
   -7.2838    1.1210    1.3807 C   0  0  0  0  0  0  0  0  0  0  0  0
   -7.9189    0.6242    0.0957 C   0  0  0  0  0  0  0  0  0  0  0  0
   -6.8143    0.4586   -0.9175 C   0  0  0  0  0  0  0  0  0  0  0  0
   -7.4762    0.1726   -2.2582 C   0  0  0  0  0  0  0  0  0  0  0  0
    1.2425   -0.8634    0.0012 C   0  0  0  0  0  0  0  0  0  0  0  0
    2.3879   -0.0670    0.5039 C   0  0  0  0  0  0  0  0  0  0  0  0
    3.7622   -0.3983    0.1296 C   0  0  2  0  0  0  0  0  0  0  0  0
    2.8809   -2.3915   -0.6942 C   0  0  0  0  0  0  0  0  0  0  0  0
    3.1707   -3.6689   -1.4027 C   0  0  0  0  0  0  0  0  0  0  0  0
    5.8597   -1.2892    0.5133 C   0  0  0  0  0  0  0  0  0  0  0  0
    4.8433   -0.0750    2.2686 C   0  0  0  0  0  0  0  0  0  0  0  0
    6.8689    2.2821    0.2435 C   0  0  0  0  0  0  0  0  0  0  0  0
    6.0889    2.9669   -0.8489 C   0  0  0  0  0  0  0  0  0  0  0  0
    0.2868    0.0539   -0.6416 N   0  0  0  0  0  0  0  0  0  0  0  0
   -0.2782    1.0070    0.2548 C   0  0  2  0  0  0  0  0  0  0  0  0
   -1.0228    0.4681    1.3531 N   0  0  0  0  0  0  0  0  0  0  0  0
   -1.6470    1.9122   -0.5810 S   0  0  0  0  0  0  0  0  0  0  0  0
   -4.6626   -0.7168   -1.0656 N   0  0  0  0  0  0  0  0  0  0  0  0
   -5.9059   -0.6462   -0.4604 C   0  0  0  0  0  0  0  0  0  0  0  0
   -6.1163   -0.9800    0.9700 C   0  0  0  0  0  0  0  0  0  0  0  0
   -6.2069    0.2055    1.8965 C   0  0  0  0  0  0  0  0  0  0  0  0
   -5.0051   -2.2461    1.5632 Cl  0  0  0  0  0  0  0  0  0  0  0  0
   -2.6243   -0.3023   -1.9209 O   0  0  0  0  0  0  0  0  0  0  0  0
    3.8205   -1.3218   -0.9711 N   0  0  0  0  0  0  0  0  0  0  0  0
    1.5781   -1.8237   -1.0201 N   0  0  0  0  0  0  0  0  0  0  0  0
    4.5832   -0.9678    1.1764 N   0  0  0  0  0  0  0  0  0  0  0  0
    6.4406   -0.0745   -0.1561 C   0  0  0  0  0  0  0  0  0  0  0  0
    5.9824    0.8857    2.0262 C   0  0  0  0  0  0  0  0  0  0  0  0
    4.7706    3.2338   -0.4455 O   0  0  0  0  0  0  0  0  0  0  0  0
   -1.5310    1.4118   -0.6361 H   0  0  0  0  0  0  0  0  0  0  0  0
   -1.2049   -0.3056   -1.2138 H   0  0  0  0  0  0  0  0  0  0  0  0
   -3.3778    0.6027    0.6921 H   0  0  0  0  0  0  0  0  0  0  0  0
   -3.8568    0.3451   -1.8382 H   0  0  0  0  0  0  0  0  0  0  0  0
   -7.9256    2.3867    0.9617 H   0  0  0  0  0  0  0  0  0  0  0  0
   -9.3203    1.4497    0.3603 H   0  0  0  0  0  0  0  0  0  0  0  0
   -7.7736    2.3566   -1.3959 H   0  0  0  0  0  0  0  0  0  0  0  0
   -8.2138    0.6027   -1.5232 H   0  0  0  0  0  0  0  0  0  0  0  0
   -5.9041    0.7895   -2.0229 H   0  0  0  0  0  0  0  0  0  0  0  0
   -4.6046    2.5654   -1.3850 H   0  0  0  0  0  0  0  0  0  0  0  0
   -5.0208    2.3373    0.4099 H   0  0  0  0  0  0  0  0  0  0  0  0
   -6.1297    3.1819   -0.7202 H   0  0  0  0  0  0  0  0  0  0  0  0
    1.7854   -2.1510    1.9019 H   0  0  0  0  0  0  0  0  0  0  0  0
    2.3289   -0.7129   -0.6795 H   0  0  0  0  0  0  0  0  0  0  0  0
    1.6767    0.1163    0.7369 H   0  0  0  0  0  0  0  0  0  0  0  0
    3.4012   -0.2650    2.1087 H   0  0  0  0  0  0  0  0  0  0  0  0
    3.3753   -3.9525    1.7321 H   0  0  0  0  0  0  0  0  0  0  0  0
    4.6143   -3.5102   -1.0070 H   0  0  0  0  0  0  0  0  0  0  0  0
    5.6280   -3.8038    0.4862 H   0  0  0  0  0  0  0  0  0  0  0  0
    4.4225   -4.9974   -0.0408 H   0  0  0  0  0  0  0  0  0  0  0  0
    4.0439   -0.2898   -1.5557 H   0  0  0  0  0  0  0  0  0  0  0  0
    5.3782   -1.2510   -0.9040 H   0  0  0  0  0  0  0  0  0  0  0  0
    5.4898    0.2559    2.3289 H   0  0  0  0  0  0  0  0  0  0  0  0
    6.3315   -0.7676    1.0610 H   0  0  0  0  0  0  0  0  0  0  0  0
    6.6349    3.8007   -0.2223 H   0  0  0  0  0  0  0  0  0  0  0  0
    6.4776    3.2661   -1.9147 H   0  0  0  0  0  0  0  0  0  0  0  0
    4.0541    3.0686   -1.6686 H   0  0  0  0  0  0  0  0  0  0  0  0
    4.6496    4.6284   -1.0625 H   0  0  0  0  0  0  0  0  0  0  0  0
   -0.0709   -2.4940   -0.4210 H   0  0  0  0  0  0  0  0  0  0  0  0
   -0.3918   -1.1876    2.2544 H   0  0  0  0  0  0  0  0  0  0  0  0
   -0.8082    0.8446    1.4333 H   0  0  0  0  0  0  0  0  0  0  0  0
   -5.4657   -1.5834   -1.4939 H   0  0  0  0  0  0  0  0  0  0  0  0
   -5.3439    0.2601    0.8557 H   0  0  0  0  0  0  0  0  0  0  0  0
   -7.7641   -1.0586   -0.4632 H   0  0  0  0  0  0  0  0  0  0  0  0
   -8.7736   -0.3006    1.6707 H   0  0  0  0  0  0  0  0  0  0  0  0
   -7.2522    0.4628    2.1647 H   0  0  0  0  0  0  0  0  0  0  0  0
   -3.0223   -2.3313   -1.3563 H   0  0  0  0  0  0  0  0  0  0  0  0
    4.4256   -2.1388    2.4664 H   0  0  0  0  0  0  0  0  0  0  0  0
    1.8822   -3.9891    0.1528 H   0  0  0  0  0  0  0  0  0  0  0  0
    6.7716    0.2403   -1.8348 H   0  0  0  0  0  0  0  0  0  0  0  0
    5.4370    1.2791   -2.3276 H   0  0  0  0  0  0  0  0  0  0  0  0
    6.4109    2.2272    1.5163 H   0  0  0  0  0  0  0  0  0  0  0  0
    7.6236    1.1158    0.8978 H   0  0  0  0  0  0  0  0  0  0  0  0
    4.6011    3.7401    1.0999 H   0  0  0  0  0  0  0  0  0  0  0  0
   -2.0413   -1.0591    0.3033 H   0  0  0  0  0  0  0  0  0  0  0  0
   -2.7945   -0.4178    1.8044 H   0  0  0  0  0  0  0  0  0  0  0  0
   -3.6482    1.5176    0.6438 H   0  0  0  0  0  0  0  0  0  0  0  0
   -3.9663    1.1485   -1.7913 H   0  0  0  0  0  0  0  0  0  0  0  0
   -6.9209    2.1683    1.2531 H   0  0  0  0  0  0  0  0  0  0  0  0
   -8.0988    1.1891    2.1476 H   0  0  0  0  0  0  0  0  0  0  0  0
   -8.6703    1.3891   -0.2632 H   0  0  0  0  0  0  0  0  0  0  0  0
   -8.4540   -0.3143    0.2658 H   0  0  0  0  0  0  0  0  0  0  0  0
   -6.3017    1.4500   -0.9311 H   0  0  0  0  0  0  0  0  0  0  0  0
   -7.6229   -0.9368   -2.3344 H   0  0  0  0  0  0  0  0  0  0  0  0
   -6.9267    0.5867   -3.1174 H   0  0  0  0  0  0  0  0  0  0  0  0
   -8.5079    0.5966   -2.3108 H   0  0  0  0  0  0  0  0  0  0  0  0
    0.7077   -1.4101    0.8319 H   0  0  0  0  0  0  0  0  0  0  0  0
    2.2151    1.0086    0.1707 H   0  0  0  0  0  0  0  0  0  0  0  0
    2.2575    0.0514    1.6298 H   0  0  0  0  0  0  0  0  0  0  0  0
    4.2703    0.5423   -0.2675 H   0  0  0  0  0  0  0  0  0  0  0  0
    2.8576   -2.5379    0.4231 H   0  0  0  0  0  0  0  0  0  0  0  0
    2.2018   -4.2063   -1.6160 H   0  0  0  0  0  0  0  0  0  0  0  0
    3.7769   -3.5054   -2.2954 H   0  0  0  0  0  0  0  0  0  0  0  0
    3.6848   -4.3531   -0.6625 H   0  0  0  0  0  0  0  0  0  0  0  0
    5.6393   -2.0492   -0.2632 H   0  0  0  0  0  0  0  0  0  0  0  0
    6.5895   -1.6932    1.2244 H   0  0  0  0  0  0  0  0  0  0  0  0
    3.9621    0.5029    2.6081 H   0  0  0  0  0  0  0  0  0  0  0  0
    5.1269   -0.7024    3.1419 H   0  0  0  0  0  0  0  0  0  0  0  0
    7.0204    2.9889    1.0804 H   0  0  0  0  0  0  0  0  0  0  0  0
    7.9008    2.1194   -0.1924 H   0  0  0  0  0  0  0  0  0  0  0  0
    6.1616    2.4299   -1.7995 H   0  0  0  0  0  0  0  0  0  0  0  0
    6.5676    3.9629   -1.0064 H   0  0  0  0  0  0  0  0  0  0  0  0
    0.7047    0.5398   -1.4393 H   0  0  0  0  0  0  0  0  0  0  0  0
    0.4231    1.7503    0.6723 H   0  0  0  0  0  0  0  0  0  0  0  0
   -0.5233   -0.2047    1.9371 H   0  0  0  0  0  0  0  0  0  0  0  0
   -4.3589   -1.7039   -1.3270 H   0  0  0  0  0  0  0  0  0  0  0  0
   -6.4680   -1.5772   -0.9807 H   0  0  0  0  0  0  0  0  0  0  0  0
   -7.1481   -1.4863    1.1195 H   0  0  0  0  0  0  0  0  0  0  0  0
   -6.5457   -0.1908    2.8919 H   0  0  0  0  0  0  0  0  0  0  0  0
   -5.2624    0.7087    2.1043 H   0  0  0  0  0  0  0  0  0  0  0  0
   -3.0192   -0.9195   -2.5894 H   0  0  0  0  0  0  0  0  0  0  0  0
    3.6256   -0.8451   -1.8719 H   0  0  0  0  0  0  0  0  0  0  0  0
    1.7019   -1.3037   -1.9240 H   0  0  0  0  0  0  0  0  0  0  0  0
    7.5343   -0.3202   -0.3146 H   0  0  0  0  0  0  0  0  0  0  0  0
    6.0560    0.0998   -1.1850 H   0  0  0  0  0  0  0  0  0  0  0  0
    5.7382    1.8850    2.4481 H   0  0  0  0  0  0  0  0  0  0  0  0
    6.8880    0.5643    2.6208 H   0  0  0  0  0  0  0  0  0  0  0  0
    4.6254    2.9751    0.5020 H   0  0  0  0  0  0  0  0  0  0  0  0
  1  2  1  0
  2  3  1  0
  5  6  1  0
  6  7  1  0
  7  8  1  0
  9 10  1  0
 10 11  1  0
 12 13  1  0
  4 16  1  0
 16 17  1  0
  9 18  1  0
 18 19  1  0
  1 20  1  0
 19 20  1  0
  2 21  1  0
 19 21  1  0
  3 22  1  0
  7 23  1  0
 22 23  1  0
 23 24  1  0
  5 25  1  0
 24 25  1  0
 24 26  1  0
  3 27  1  0
 11 28  1  0
 12 28  1  0
  9 29  1  0
 12 29  1  0
 11 30  1  0
 14 30  1  0
 15 30  1  0
  4 31  1  0
 14 31  1  0
  4 32  1  0
 15 32  1  0
 17 33  1  0
 34 35  1  0
 35 36  1  0
 38 39  1  0
 39 40  1  0
 40 41  1  0
 42 43  1  0
 43 44  1  0
 45 46  1  0
 37 49  1  0
 49 50  1  0
 42 51  1  0
 51 52  1  0
 34 53  1  0
 52 53  1  0
 35 54  1  0
 52 54  1  0
 36 55  1  0
 40 56  1  0
 55 56  1  0
 56 57  1  0
 38 58  1  0
 57 58  1  0
 57 59  1  0
 36 60  1  0
 44 61  1  0
 45 61  1  0
 42 62  1  0
 45 62  1  0
 44 63  1  0
 47 63  1  0
 48 63  1  0
 37 64  1  0
 47 64  1  0
 37 65  1  0
 48 65  1  0
 50 66  1  0
  1 67  1  0
  1 68  1  0
  2 69  1  0
  3 70  1  0
  5 71  1  0
  5 72  1  0
  6 73  1  0
  6 74  1  0
  7 75  1  0
  8 76  1  0
  8 77  1  0
  8 78  1  0
  9 79  1  0
 10 80  1  0
 10 81  1  0
 11 82  1  0
 12 83  1  0
 13 84  1  0
 13 85  1  0
 13 86  1  0
 14 87  1  0
 14 88  1  0
 15 89  1  0
 15 90  1  0
 16 91  1  0
 16 92  1  0
 17 93  1  0
 17 94  1  0
 18 95  1  0
 19 96  1  1
 20 97  1  0
 22 98  1  0
 23 99  1  1
 24100  1  0
 25101  1  0
 25102  1  0
 27103  1  0
 28104  1  0
 29105  1  0
 31106  1  0
 31107  1  0
 32108  1  0
 32109  1  0
 33110  1  0
 34111  1  0
 34112  1  0
 35113  1  0
 36114  1  0
 38115  1  0
 38116  1  0
 39117  1  0
 39118  1  0
 40119  1  0
 41120  1  0
 41121  1  0
 41122  1  0
 42123  1  0
 43124  1  0
 43125  1  0
 44126  1  6
 45127  1  0
 46128  1  0
 46129  1  0
 46130  1  0
 47131  1  0
 47132  1  0
 48133  1  0
 48134  1  0
 49135  1  0
 49136  1  0
 50137  1  0
 50138  1  0
 51139  1  0
 52140  1  1
 53141  1  0
 55142  1  0
 56143  1  0
 57144  1  0
 58145  1  0
 58146  1  0
 60147  1  0
 61148  1  0
 62149  1  0
 64150  1  0
 64151  1  0
 65152  1  0
 65153  1  0
 66154  1  0
M  END
>  <PDBID>  (1) 
2GQG

>  <PDB ID>  (1) 
2GQG

>  <Generic Name>  (1) 
Dasatinib

>  <Brand Name>  (1) 
Sprycel

>  <DrugBank ID>  (1) 
DB01254

>  <ATC Codes>  (1) 
L01XE06

>  <Ligand ID>  (1) 
1N1

>  <Target Name>  (1) 
Tyrosine-protein kinase ABL1

>  <UniProt ID>  (1) 
P00519

>  <PDB ID.1>  (1) 
2GQG

>  <Seq. Identity>  (1) 
96%

$$$$
