PDB_DB00907_03
     RDKit          3D

 53 55  0  0  0  0  0  0  0  0999 V2000
   -2.1003    2.9296    1.7778 C   0  0  0  0  0  0  0  0  0  0  0  0
   -2.3579    2.3843    0.5435 O   0  0  0  0  0  0  0  0  0  0  0  0
   -1.2865    1.6434    0.0170 C   0  0  0  0  0  0  0  0  0  0  0  0
   -0.8714    2.4122   -1.0992 O   0  0  0  0  0  0  0  0  0  0  0  0
   -1.7913    0.3120   -0.4414 C   0  0  2  0  0  0  0  0  0  0  0  0
   -2.3943   -0.4323    0.7058 C   0  0  2  0  0  0  0  0  0  0  0  0
   -1.8382   -1.7776    0.7554 N   0  0  0  0  0  0  0  0  0  0  0  0
   -2.3557   -2.5296    1.8561 C   0  0  0  0  0  0  0  0  0  0  0  0
   -3.8659   -0.7163    0.4107 C   0  0  0  0  0  0  0  0  0  0  0  0
   -3.7527   -1.8272   -0.6133 C   0  0  0  0  0  0  0  0  0  0  0  0
   -2.3492   -2.3364   -0.4927 C   0  0  1  0  0  0  0  0  0  0  0  0
   -1.4272   -1.8587   -1.5886 C   0  0  0  0  0  0  0  0  0  0  0  0
   -0.7911   -0.5161   -1.2021 C   0  0  2  0  0  0  0  0  0  0  0  0
    0.3810   -0.7978   -0.5394 O   0  0  0  0  0  0  0  0  0  0  0  0
    1.5427   -0.4860   -1.1856 C   0  0  0  0  0  0  0  0  0  0  0  0
    2.1603   -1.7118   -1.6569 O   0  0  0  0  0  0  0  0  0  0  0  0
    2.6122    0.1859   -0.4334 C   0  0  0  0  0  0  0  0  0  0  0  0
    2.3327    1.5087    0.1751 C   0  0  0  0  0  0  0  0  0  0  0  0
    3.6713    2.1759    0.4291 C   0  0  0  0  0  0  0  0  0  0  0  0
    4.5844    1.3431    1.2780 C   0  0  0  0  0  0  0  0  0  0  0  0
    4.6020   -0.1123    0.9104 C   0  0  0  0  0  0  0  0  0  0  0  0
    3.2208   -0.6758    0.6612 C   0  0  0  0  0  0  0  0  0  0  0  0
   -3.0312    3.4813    2.0739 H   0  0  0  0  0  0  0  0  0  0  0  0
   -1.3234    3.7484    1.7199 H   0  0  0  0  0  0  0  0  0  0  0  0
   -1.8052    2.1801    2.5258 H   0  0  0  0  0  0  0  0  0  0  0  0
   -0.4836    1.6379    0.7502 H   0  0  0  0  0  0  0  0  0  0  0  0
   -1.3385    2.0943   -1.9133 H   0  0  0  0  0  0  0  0  0  0  0  0
   -2.6428    0.5643   -1.1582 H   0  0  0  0  0  0  0  0  0  0  0  0
   -2.3402    0.0509    1.6736 H   0  0  0  0  0  0  0  0  0  0  0  0
   -2.4931   -1.9348    2.7762 H   0  0  0  0  0  0  0  0  0  0  0  0
   -1.5926   -3.3094    2.1117 H   0  0  0  0  0  0  0  0  0  0  0  0
   -3.2708   -3.1021    1.5800 H   0  0  0  0  0  0  0  0  0  0  0  0
   -4.4292   -1.0055    1.2962 H   0  0  0  0  0  0  0  0  0  0  0  0
   -4.2873    0.2081   -0.0419 H   0  0  0  0  0  0  0  0  0  0  0  0
   -4.0124   -1.4292   -1.6010 H   0  0  0  0  0  0  0  0  0  0  0  0
   -4.4697   -2.6317   -0.2775 H   0  0  0  0  0  0  0  0  0  0  0  0
   -2.3672   -3.4418   -0.4296 H   0  0  0  0  0  0  0  0  0  0  0  0
   -1.9916   -1.8020   -2.5302 H   0  0  0  0  0  0  0  0  0  0  0  0
   -0.6213   -2.6006   -1.7094 H   0  0  0  0  0  0  0  0  0  0  0  0
   -0.5768   -0.0272   -2.1583 H   0  0  0  0  0  0  0  0  0  0  0  0
    1.3601    0.0358   -2.1523 H   0  0  0  0  0  0  0  0  0  0  0  0
    2.8818   -1.4049   -2.2651 H   0  0  0  0  0  0  0  0  0  0  0  0
    3.4685    0.3471   -1.1601 H   0  0  0  0  0  0  0  0  0  0  0  0
    1.7407    2.1985   -0.4211 H   0  0  0  0  0  0  0  0  0  0  0  0
    1.8426    1.4213    1.1882 H   0  0  0  0  0  0  0  0  0  0  0  0
    4.1636    2.4758   -0.5135 H   0  0  0  0  0  0  0  0  0  0  0  0
    3.4538    3.1085    0.9960 H   0  0  0  0  0  0  0  0  0  0  0  0
    4.3546    1.4585    2.3491 H   0  0  0  0  0  0  0  0  0  0  0  0
    5.6167    1.7308    1.1333 H   0  0  0  0  0  0  0  0  0  0  0  0
    5.1640   -0.2511   -0.0568 H   0  0  0  0  0  0  0  0  0  0  0  0
    5.1471   -0.6534    1.7113 H   0  0  0  0  0  0  0  0  0  0  0  0
    2.6453   -0.5595    1.6107 H   0  0  0  0  0  0  0  0  0  0  0  0
    3.3124   -1.7055    0.3221 H   0  0  0  0  0  0  0  0  0  0  0  0
  1  2  1  0
  2  3  1  0
  3  4  1  0
  3  5  1  0
  5  6  1  0
  6  7  1  0
  7  8  1  0
  6  9  1  0
  9 10  1  0
  7 11  1  0
 10 11  1  0
 11 12  1  0
  5 13  1  0
 12 13  1  0
 13 14  1  0
 14 15  1  0
 15 16  1  0
 15 17  1  0
 17 18  1  0
 18 19  1  0
 19 20  1  0
 20 21  1  0
 17 22  1  0
 21 22  1  0
  1 23  1  0
  1 24  1  0
  1 25  1  0
  3 26  1  0
  4 27  1  0
  5 28  1  6
  6 29  1  1
  8 30  1  0
  8 31  1  0
  8 32  1  0
  9 33  1  0
  9 34  1  0
 10 35  1  0
 10 36  1  0
 11 37  1  1
 12 38  1  0
 12 39  1  0
 13 40  1  6
 15 41  1  0
 16 42  1  0
 17 43  1  0
 18 44  1  0
 18 45  1  0
 19 46  1  0
 19 47  1  0
 20 48  1  0
 20 49  1  0
 21 50  1  0
 21 51  1  0
 22 52  1  0
 22 53  1  0
M  END
>  <PDBID>  (1) 
4XP4

>  <PDB ID>  (1) 
4XP4

>  <Generic Name>  (1) 
Cocaine

>  <Brand Name>  (1) 
Cocaine Hydrochloride#Cocaine Hydrochloride Top Sol 40mg/ml#Cocaine Hydrochloride Topical Sol 10%#PMS-cocaine Hydrochloride  Topical Sol 4%#PMS-cocaine Hydrochloride Topical Sol 10%

>  <DrugBank ID>  (1) 
DB00907

>  <ATC Codes>  (1) 
S01HA01#N01BC01#R02AD03#S02DA02

>  <Ligand ID>  (1) 
COC

>  <Target Name>  (1) 
Sodium-dependent noradrenaline transporter

>  <UniProt ID>  (1) 
P23975

>  <PDB ID.1>  (1) 
4XP4

>  <Seq. Identity>  (1) 
58%

$$$$
