PDB_DB00300_05
     RDKit          3D

 41 42  0  0  0  0  0  0  0  0999 V2000
   -4.9086   -0.3061    0.4455 P   0  0  0  0  0  0  0  0  0  0  0  0
   -5.0462    0.4736   -1.0117 O   0  0  0  0  0  0  0  0  0  0  0  0
   -4.3096    0.7159    1.6018 O   0  0  0  0  0  0  0  0  0  0  0  0
   -3.8307   -1.7279    0.2773 C   0  0  0  0  0  0  0  0  0  0  0  0
   -2.7291   -1.5352   -0.4984 O   0  0  0  0  0  0  0  0  0  0  0  0
   -1.5928    0.5307   -1.0311 C   0  0  0  0  0  0  0  0  0  0  0  0
   -1.8375   -0.5680   -0.1110 C   0  0  2  0  0  0  0  0  0  0  0  0
   -0.6035   -1.2939    0.3259 C   0  0  0  0  0  0  0  0  0  0  0  0
    0.5043   -0.5684    0.8137 N   0  0  0  0  0  0  0  0  0  0  0  0
    1.3091    0.1944   -0.0208 C   0  0  1  0  0  0  0  0  0  0  0  0
    1.1876    1.6090   -0.0275 N   0  0  0  0  0  0  0  0  0  0  0  0
    2.2481    2.3904   -0.4668 C   0  0  0  0  0  0  0  0  0  0  0  0
    3.5734    1.8990   -0.3443 N   0  0  0  0  0  0  0  0  0  0  0  0
    3.6783    0.4519   -0.3534 C   0  0  0  0  0  0  0  0  0  0  0  0
    4.9998    0.0403    0.0378 N   0  0  0  0  0  0  0  0  0  0  0  0
    2.6964   -0.0167    0.6671 C   0  0  0  0  0  0  0  0  0  0  0  0
    2.6468   -1.4089    0.9074 N   0  0  0  0  0  0  0  0  0  0  0  0
    1.3426   -1.4794    1.5776 C   0  0  0  0  0  0  0  0  0  0  0  0
   -6.1740   -0.7604    0.8422 H   0  0  0  0  0  0  0  0  0  0  0  0
   -4.7715    1.4220   -0.9579 H   0  0  0  0  0  0  0  0  0  0  0  0
   -4.4500    1.6573    1.3737 H   0  0  0  0  0  0  0  0  0  0  0  0
   -4.4099   -2.6309    0.0511 H   0  0  0  0  0  0  0  0  0  0  0  0
   -3.4299   -1.9201    1.3235 H   0  0  0  0  0  0  0  0  0  0  0  0
   -2.4220    0.7326   -1.7654 H   0  0  0  0  0  0  0  0  0  0  0  0
   -1.4857    1.5197   -0.5143 H   0  0  0  0  0  0  0  0  0  0  0  0
   -0.7076    0.4226   -1.6764 H   0  0  0  0  0  0  0  0  0  0  0  0
   -2.2790   -0.1271    0.8382 H   0  0  0  0  0  0  0  0  0  0  0  0
   -0.2136   -1.9584   -0.5089 H   0  0  0  0  0  0  0  0  0  0  0  0
   -0.8834   -2.0977    1.1033 H   0  0  0  0  0  0  0  0  0  0  0  0
    1.4264   -0.1526   -1.0862 H   0  0  0  0  0  0  0  0  0  0  0  0
    0.5412    2.0084    0.6731 H   0  0  0  0  0  0  0  0  0  0  0  0
    2.2143    3.3895    0.0624 H   0  0  0  0  0  0  0  0  0  0  0  0
    2.0846    2.6662   -1.5506 H   0  0  0  0  0  0  0  0  0  0  0  0
    4.0424    2.2330    0.5255 H   0  0  0  0  0  0  0  0  0  0  0  0
    3.4522    0.1182   -1.3732 H   0  0  0  0  0  0  0  0  0  0  0  0
    4.9626   -0.6291    0.8404 H   0  0  0  0  0  0  0  0  0  0  0  0
    5.4878   -0.4778   -0.7419 H   0  0  0  0  0  0  0  0  0  0  0  0
    2.7207    0.5944    1.5642 H   0  0  0  0  0  0  0  0  0  0  0  0
    2.5147   -1.9083   -0.0070 H   0  0  0  0  0  0  0  0  0  0  0  0
    1.5040   -1.0115    2.5821 H   0  0  0  0  0  0  0  0  0  0  0  0
    0.9476   -2.4906    1.6316 H   0  0  0  0  0  0  0  0  0  0  0  0
  1  2  1  0
  1  3  1  0
  1  4  1  0
  4  5  1  0
  5  7  1  0
  6  7  1  0
  7  8  1  0
  8  9  1  0
  9 10  1  0
 10 11  1  0
 11 12  1  0
 12 13  1  0
 13 14  1  0
 14 15  1  0
 10 16  1  0
 14 16  1  0
 16 17  1  0
  9 18  1  0
 17 18  1  0
  1 19  1  0
  2 20  1  0
  3 21  1  0
  4 22  1  0
  4 23  1  0
  6 24  1  0
  6 25  1  0
  6 26  1  0
  7 27  1  1
  8 28  1  0
  8 29  1  0
 10 30  1  6
 11 31  1  0
 12 32  1  0
 12 33  1  0
 13 34  1  0
 14 35  1  0
 15 36  1  0
 15 37  1  0
 16 38  1  0
 17 39  1  0
 18 40  1  0
 18 41  1  0
M  END
>  <PDBID>  (1) 
1T03

>  <PDB ID>  (1) 
1T03

>  <Generic Name>  (1) 
Tenofovir

>  <Brand Name>  (1) 
Atripla#Complera#Stribild#Truvada#Viread

>  <DrugBank ID>  (1) 
DB00300

>  <ATC Codes>  (1) 
nan

>  <Ligand ID>  (1) 
TFO

>  <Target Name>  (1) 
Reverse transcriptase/RNaseH

>  <UniProt ID>  (1) 
Q72547

>  <PDB ID.1>  (1) 
1T03

>  <Seq. Identity>  (1) 
95%

$$$$
