PDB_DB08906_02
     RDKit          3D

160168  0  0  0  0  0  0  0  0999 V2000
   -1.9884    1.8539   -2.0544 C   0  0  0  0  0  0  0  0  0  0  0  0
   -1.8076    2.2989   -0.5871 C   0  0  2  0  0  0  0  0  0  0  0  0
   -0.3297    2.5615   -0.3872 C   0  0  0  0  0  0  0  0  0  0  0  0
    0.1235    1.1668   -0.3141 C   0  0  1  0  0  0  0  0  0  0  0  0
    1.5002    0.9209    0.1934 C   0  0  2  0  0  0  0  0  0  0  0  0
    2.5583    1.8115   -0.4045 C   0  0  0  0  0  0  0  0  0  0  0  0
    3.8671    1.4641    0.2375 C   0  0  2  0  0  0  0  0  0  0  0  0
    4.8780    1.7088   -0.6549 F   0  0  0  0  0  0  0  0  0  0  0  0
    3.9073    0.0863    0.8315 C   0  0  0  0  0  0  0  0  0  0  0  0
    5.2855   -0.4049    1.0883 C   0  0  0  0  0  0  0  0  0  0  0  0
    6.0827   -0.7568   -0.1126 C   0  0  0  0  0  0  0  0  0  0  0  0
    7.0898   -1.6575    0.3086 O   0  0  0  0  0  0  0  0  0  0  0  0
    5.3287   -1.4209   -1.2116 C   0  0  0  0  0  0  0  0  0  0  0  0
    3.8909   -1.0738   -1.3169 C   0  0  0  0  0  0  0  0  0  0  0  0
    3.1702   -0.9381    0.0084 C   0  0  1  0  0  0  0  0  0  0  0  0
    3.3242   -2.2731    0.7151 C   0  0  0  0  0  0  0  0  0  0  0  0
    1.7651   -0.5377   -0.2268 C   0  0  2  0  0  0  0  0  0  0  0  0
    1.4977   -0.5250   -1.6097 F   0  0  0  0  0  0  0  0  0  0  0  0
    0.7451   -1.4391    0.3717 C   0  0  1  0  0  0  0  0  0  0  0  0
    1.0196   -1.9138    1.6284 O   0  0  0  0  0  0  0  0  0  0  0  0
   -0.6716   -0.9371    0.3387 C   0  0  0  0  0  0  0  0  0  0  0  0
   -0.8416    0.5057    0.6908 C   0  0  1  0  0  0  0  0  0  0  0  0
   -0.4292    0.8058    2.1176 C   0  0  0  0  0  0  0  0  0  0  0  0
   -2.1440    1.1479    0.3401 C   0  0  2  0  0  0  0  0  0  0  0  0
   -2.9784    0.3078   -0.3970 O   0  0  0  0  0  0  0  0  0  0  0  0
   -3.6072   -0.7058    0.2209 C   0  0  0  0  0  0  0  0  0  0  0  0
   -5.0394   -0.3312    0.3279 O   0  0  0  0  0  0  0  0  0  0  0  0
   -3.7202   -1.9829   -0.5660 C   0  0  0  0  0  0  0  0  0  0  0  0
   -4.5164   -3.0272    0.2149 C   0  0  0  0  0  0  0  0  0  0  0  0
   -5.5299   -3.5345   -0.7889 C   0  0  0  0  0  0  0  0  0  0  0  0
   -5.6778   -2.3024   -1.6596 C   0  0  0  0  0  0  0  0  0  0  0  0
   -4.4078   -1.8264   -1.7510 O   0  0  0  0  0  0  0  0  0  0  0  0
   -2.8945    1.7013    1.5094 C   0  0  0  0  0  0  0  0  0  0  0  0
   -4.0522    2.3194    0.8907 O   0  0  0  0  0  0  0  0  0  0  0  0
   -2.2053    3.0087    2.4559 S   0  0  0  0  0  0  0  0  0  0  0  0
   -2.1951    4.6495    1.8195 C   0  0  0  0  0  0  0  0  0  0  0  0
   -1.6031    5.4740    2.8050 F   0  0  0  0  0  0  0  0  0  0  0  0
   -1.9884    1.8539   -2.0544 C   0  0  0  0  0  0  0  0  0  0  0  0
   -1.8076    2.2989   -0.5871 C   0  0  2  0  0  0  0  0  0  0  0  0
   -0.3297    2.5615   -0.3872 C   0  0  0  0  0  0  0  0  0  0  0  0
    0.1235    1.1668   -0.3141 C   0  0  1  0  0  0  0  0  0  0  0  0
    1.5002    0.9209    0.1934 C   0  0  2  0  0  0  0  0  0  0  0  0
    2.5583    1.8115   -0.4045 C   0  0  0  0  0  0  0  0  0  0  0  0
    3.8671    1.4641    0.2375 C   0  0  2  0  0  0  0  0  0  0  0  0
    4.8780    1.7088   -0.6549 F   0  0  0  0  0  0  0  0  0  0  0  0
    3.9073    0.0863    0.8315 C   0  0  0  0  0  0  0  0  0  0  0  0
    5.2855   -0.4049    1.0883 C   0  0  0  0  0  0  0  0  0  0  0  0
    6.0827   -0.7568   -0.1126 C   0  0  0  0  0  0  0  0  0  0  0  0
    7.0898   -1.6575    0.3086 O   0  0  0  0  0  0  0  0  0  0  0  0
    5.3287   -1.4209   -1.2116 C   0  0  0  0  0  0  0  0  0  0  0  0
    3.8909   -1.0738   -1.3169 C   0  0  0  0  0  0  0  0  0  0  0  0
    3.1702   -0.9381    0.0084 C   0  0  1  0  0  0  0  0  0  0  0  0
    3.3242   -2.2731    0.7151 C   0  0  0  0  0  0  0  0  0  0  0  0
    1.7651   -0.5377   -0.2268 C   0  0  2  0  0  0  0  0  0  0  0  0
    1.4977   -0.5250   -1.6097 F   0  0  0  0  0  0  0  0  0  0  0  0
    0.7451   -1.4391    0.3717 C   0  0  1  0  0  0  0  0  0  0  0  0
    1.0196   -1.9138    1.6284 O   0  0  0  0  0  0  0  0  0  0  0  0
   -0.6716   -0.9371    0.3387 C   0  0  0  0  0  0  0  0  0  0  0  0
   -0.8416    0.5057    0.6908 C   0  0  1  0  0  0  0  0  0  0  0  0
   -0.4292    0.8058    2.1176 C   0  0  0  0  0  0  0  0  0  0  0  0
   -2.1440    1.1479    0.3401 C   0  0  2  0  0  0  0  0  0  0  0  0
   -2.9784    0.3078   -0.3970 O   0  0  0  0  0  0  0  0  0  0  0  0
   -3.6072   -0.7058    0.2209 C   0  0  0  0  0  0  0  0  0  0  0  0
   -5.0394   -0.3312    0.3279 O   0  0  0  0  0  0  0  0  0  0  0  0
   -3.7202   -1.9829   -0.5660 C   0  0  0  0  0  0  0  0  0  0  0  0
   -4.5164   -3.0272    0.2149 C   0  0  0  0  0  0  0  0  0  0  0  0
   -5.5299   -3.5345   -0.7889 C   0  0  0  0  0  0  0  0  0  0  0  0
   -5.6778   -2.3024   -1.6596 C   0  0  0  0  0  0  0  0  0  0  0  0
   -4.4078   -1.8264   -1.7510 O   0  0  0  0  0  0  0  0  0  0  0  0
   -2.8945    1.7013    1.5094 C   0  0  0  0  0  0  0  0  0  0  0  0
   -4.0522    2.3194    0.8907 O   0  0  0  0  0  0  0  0  0  0  0  0
   -2.2053    3.0087    2.4559 S   0  0  0  0  0  0  0  0  0  0  0  0
   -2.1951    4.6495    1.8195 C   0  0  0  0  0  0  0  0  0  0  0  0
   -1.6031    5.4740    2.8050 F   0  0  0  0  0  0  0  0  0  0  0  0
   -2.1852    0.7549   -2.0933 H   0  0  0  0  0  0  0  0  0  0  0  0
   -2.8717    2.3390   -2.5110 H   0  0  0  0  0  0  0  0  0  0  0  0
   -1.0871    2.0743   -2.6481 H   0  0  0  0  0  0  0  0  0  0  0  0
   -2.4562    3.1597   -0.4637 H   0  0  0  0  0  0  0  0  0  0  0  0
   -0.0643    3.1840    0.4574 H   0  0  0  0  0  0  0  0  0  0  0  0
    0.0459    2.9924   -1.3608 H   0  0  0  0  0  0  0  0  0  0  0  0
   -0.0263    0.6923   -1.2993 H   0  0  0  0  0  0  0  0  0  0  0  0
    1.6251    0.9575    1.2751 H   0  0  0  0  0  0  0  0  0  0  0  0
    2.5695    1.8147   -1.5064 H   0  0  0  0  0  0  0  0  0  0  0  0
    2.2634    2.8640   -0.1154 H   0  0  0  0  0  0  0  0  0  0  0  0
    4.0361    2.1793    1.0960 H   0  0  0  0  0  0  0  0  0  0  0  0
    3.3958    0.1382    1.8379 H   0  0  0  0  0  0  0  0  0  0  0  0
    5.8236    0.3799    1.6776 H   0  0  0  0  0  0  0  0  0  0  0  0
    5.2154   -1.2787    1.7836 H   0  0  0  0  0  0  0  0  0  0  0  0
    6.6502    0.1450   -0.4896 H   0  0  0  0  0  0  0  0  0  0  0  0
    7.9827   -1.3783    0.0536 H   0  0  0  0  0  0  0  0  0  0  0  0
    5.8170   -1.0912   -2.1790 H   0  0  0  0  0  0  0  0  0  0  0  0
    5.5096   -2.5374   -1.2105 H   0  0  0  0  0  0  0  0  0  0  0  0
    3.7499   -0.2147   -1.9820 H   0  0  0  0  0  0  0  0  0  0  0  0
    3.3804   -1.9374   -1.8387 H   0  0  0  0  0  0  0  0  0  0  0  0
    4.3485   -2.6790    0.4612 H   0  0  0  0  0  0  0  0  0  0  0  0
    2.6177   -3.0357    0.3481 H   0  0  0  0  0  0  0  0  0  0  0  0
    3.3348   -2.1678    1.8200 H   0  0  0  0  0  0  0  0  0  0  0  0
    0.7484   -2.3656   -0.2869 H   0  0  0  0  0  0  0  0  0  0  0  0
    0.5666   -2.7838    1.7593 H   0  0  0  0  0  0  0  0  0  0  0  0
   -0.9681   -1.0031   -0.7551 H   0  0  0  0  0  0  0  0  0  0  0  0
   -1.2691   -1.6556    0.8835 H   0  0  0  0  0  0  0  0  0  0  0  0
    0.0253    1.8098    2.2309 H   0  0  0  0  0  0  0  0  0  0  0  0
    0.2977    0.0886    2.5236 H   0  0  0  0  0  0  0  0  0  0  0  0
   -1.3332    0.6616    2.7808 H   0  0  0  0  0  0  0  0  0  0  0  0
   -3.4059   -0.9190    1.2655 H   0  0  0  0  0  0  0  0  0  0  0  0
   -5.1969    0.2475   -0.4856 H   0  0  0  0  0  0  0  0  0  0  0  0
   -2.7512   -2.4492   -0.8397 H   0  0  0  0  0  0  0  0  0  0  0  0
   -3.8991   -3.8396    0.5925 H   0  0  0  0  0  0  0  0  0  0  0  0
   -5.0766   -2.4698    0.9919 H   0  0  0  0  0  0  0  0  0  0  0  0
   -6.4997   -3.7891   -0.3100 H   0  0  0  0  0  0  0  0  0  0  0  0
   -5.1287   -4.3460   -1.4048 H   0  0  0  0  0  0  0  0  0  0  0  0
   -6.4303   -1.6676   -1.1990 H   0  0  0  0  0  0  0  0  0  0  0  0
   -6.0430   -2.5617   -2.6756 H   0  0  0  0  0  0  0  0  0  0  0  0
   -3.3501    0.9241    2.1517 H   0  0  0  0  0  0  0  0  0  0  0  0
   -4.5922    2.6602    1.6446 H   0  0  0  0  0  0  0  0  0  0  0  0
   -3.2085    5.1033    1.6816 H   0  0  0  0  0  0  0  0  0  0  0  0
   -1.5547    4.7955    0.9455 H   0  0  0  0  0  0  0  0  0  0  0  0
   -2.1852    0.7549   -2.0933 H   0  0  0  0  0  0  0  0  0  0  0  0
   -2.8717    2.3390   -2.5110 H   0  0  0  0  0  0  0  0  0  0  0  0
   -1.0871    2.0743   -2.6481 H   0  0  0  0  0  0  0  0  0  0  0  0
   -2.4562    3.1597   -0.4637 H   0  0  0  0  0  0  0  0  0  0  0  0
   -0.0643    3.1840    0.4574 H   0  0  0  0  0  0  0  0  0  0  0  0
    0.0459    2.9924   -1.3608 H   0  0  0  0  0  0  0  0  0  0  0  0
   -0.0263    0.6923   -1.2993 H   0  0  0  0  0  0  0  0  0  0  0  0
    1.6251    0.9575    1.2751 H   0  0  0  0  0  0  0  0  0  0  0  0
    2.5695    1.8147   -1.5064 H   0  0  0  0  0  0  0  0  0  0  0  0
    2.2634    2.8640   -0.1154 H   0  0  0  0  0  0  0  0  0  0  0  0
    4.0361    2.1793    1.0960 H   0  0  0  0  0  0  0  0  0  0  0  0
    3.3958    0.1382    1.8379 H   0  0  0  0  0  0  0  0  0  0  0  0
    5.8236    0.3799    1.6776 H   0  0  0  0  0  0  0  0  0  0  0  0
    5.2154   -1.2787    1.7836 H   0  0  0  0  0  0  0  0  0  0  0  0
    6.6502    0.1450   -0.4896 H   0  0  0  0  0  0  0  0  0  0  0  0
    7.9827   -1.3783    0.0536 H   0  0  0  0  0  0  0  0  0  0  0  0
    5.8170   -1.0912   -2.1790 H   0  0  0  0  0  0  0  0  0  0  0  0
    5.5096   -2.5374   -1.2105 H   0  0  0  0  0  0  0  0  0  0  0  0
    3.7499   -0.2147   -1.9820 H   0  0  0  0  0  0  0  0  0  0  0  0
    3.3804   -1.9374   -1.8387 H   0  0  0  0  0  0  0  0  0  0  0  0
    4.3485   -2.6790    0.4612 H   0  0  0  0  0  0  0  0  0  0  0  0
    2.6177   -3.0357    0.3481 H   0  0  0  0  0  0  0  0  0  0  0  0
    3.3348   -2.1678    1.8200 H   0  0  0  0  0  0  0  0  0  0  0  0
    0.7484   -2.3656   -0.2869 H   0  0  0  0  0  0  0  0  0  0  0  0
    0.5666   -2.7838    1.7593 H   0  0  0  0  0  0  0  0  0  0  0  0
   -0.9681   -1.0031   -0.7551 H   0  0  0  0  0  0  0  0  0  0  0  0
   -1.2691   -1.6556    0.8835 H   0  0  0  0  0  0  0  0  0  0  0  0
    0.0253    1.8098    2.2309 H   0  0  0  0  0  0  0  0  0  0  0  0
    0.2977    0.0886    2.5236 H   0  0  0  0  0  0  0  0  0  0  0  0
   -1.3332    0.6616    2.7808 H   0  0  0  0  0  0  0  0  0  0  0  0
   -3.4059   -0.9190    1.2655 H   0  0  0  0  0  0  0  0  0  0  0  0
   -5.1969    0.2475   -0.4856 H   0  0  0  0  0  0  0  0  0  0  0  0
   -2.7512   -2.4492   -0.8397 H   0  0  0  0  0  0  0  0  0  0  0  0
   -3.8991   -3.8396    0.5925 H   0  0  0  0  0  0  0  0  0  0  0  0
   -5.0766   -2.4698    0.9919 H   0  0  0  0  0  0  0  0  0  0  0  0
   -6.4997   -3.7891   -0.3100 H   0  0  0  0  0  0  0  0  0  0  0  0
   -5.1287   -4.3460   -1.4048 H   0  0  0  0  0  0  0  0  0  0  0  0
   -6.4303   -1.6676   -1.1990 H   0  0  0  0  0  0  0  0  0  0  0  0
   -6.0430   -2.5617   -2.6756 H   0  0  0  0  0  0  0  0  0  0  0  0
   -3.3501    0.9241    2.1517 H   0  0  0  0  0  0  0  0  0  0  0  0
   -4.5922    2.6602    1.6446 H   0  0  0  0  0  0  0  0  0  0  0  0
   -3.2085    5.1033    1.6816 H   0  0  0  0  0  0  0  0  0  0  0  0
   -1.5547    4.7955    0.9455 H   0  0  0  0  0  0  0  0  0  0  0  0
  1  2  1  0
  2  3  1  0
  3  4  1  0
  4  5  1  0
  5  6  1  0
  6  7  1  0
  7  8  1  0
  7  9  1  0
  9 10  1  0
 10 11  1  0
 11 12  1  0
 11 13  1  0
 13 14  1  0
  9 15  1  0
 14 15  1  0
 15 16  1  1
  5 17  1  0
 15 17  1  0
 17 18  1  6
 17 19  1  0
 19 20  1  0
 19 21  1  0
  4 22  1  0
 21 22  1  0
 22 23  1  1
  2 24  1  0
 22 24  1  0
 24 25  1  6
 25 26  1  0
 26 27  1  0
 26 28  1  0
 28 29  1  0
 29 30  1  0
 30 31  1  0
 28 32  1  0
 31 32  1  0
 24 33  1  0
 33 34  1  0
 33 35  1  0
 35 36  1  0
 36 37  1  0
 38 39  1  0
 39 40  1  0
 40 41  1  0
 41 42  1  0
 42 43  1  0
 43 44  1  0
 44 45  1  0
 44 46  1  0
 46 47  1  0
 47 48  1  0
 48 49  1  0
 48 50  1  0
 50 51  1  0
 46 52  1  0
 51 52  1  0
 52 53  1  1
 42 54  1  0
 52 54  1  0
 54 55  1  6
 54 56  1  0
 56 57  1  0
 56 58  1  0
 41 59  1  0
 58 59  1  0
 59 60  1  1
 39 61  1  0
 59 61  1  0
 61 62  1  6
 62 63  1  0
 63 64  1  0
 63 65  1  0
 65 66  1  0
 66 67  1  0
 67 68  1  0
 65 69  1  0
 68 69  1  0
 61 70  1  0
 70 71  1  0
 70 72  1  0
 72 73  1  0
 73 74  1  0
  1 75  1  0
  1 76  1  0
  1 77  1  0
  2 78  1  1
  3 79  1  0
  3 80  1  0
  4 81  1  6
  5 82  1  1
  6 83  1  0
  6 84  1  0
  7 85  1  1
  9 86  1  0
 10 87  1  0
 10 88  1  0
 11 89  1  0
 12 90  1  0
 13 91  1  0
 13 92  1  0
 14 93  1  0
 14 94  1  0
 16 95  1  0
 16 96  1  0
 16 97  1  0
 19 98  1  6
 20 99  1  0
 21100  1  0
 21101  1  0
 23102  1  0
 23103  1  0
 23104  1  0
 26105  1  0
 27106  1  0
 28107  1  0
 29108  1  0
 29109  1  0
 30110  1  0
 30111  1  0
 31112  1  0
 31113  1  0
 33114  1  0
 34115  1  0
 36116  1  0
 36117  1  0
 38118  1  0
 38119  1  0
 38120  1  0
 39121  1  1
 40122  1  0
 40123  1  0
 41124  1  6
 42125  1  1
 43126  1  0
 43127  1  0
 44128  1  1
 46129  1  0
 47130  1  0
 47131  1  0
 48132  1  0
 49133  1  0
 50134  1  0
 50135  1  0
 51136  1  0
 51137  1  0
 53138  1  0
 53139  1  0
 53140  1  0
 56141  1  6
 57142  1  0
 58143  1  0
 58144  1  0
 60145  1  0
 60146  1  0
 60147  1  0
 63148  1  0
 64149  1  0
 65150  1  0
 66151  1  0
 66152  1  0
 67153  1  0
 67154  1  0
 68155  1  0
 68156  1  0
 70157  1  0
 71158  1  0
 73159  1  0
 73160  1  0
M  END
>  <PDBID>  (1) 
3CLD

>  <PDB ID>  (1) 
3CLD

>  <Generic Name>  (1) 
Fluticasone furoate

>  <Brand Name>  (1) 
Arnuity Ellipta#Avamys#Breo Ellipta#Flonase Sensimist Allergy Relief#Veramyst

>  <DrugBank ID>  (1) 
DB08906

>  <ATC Codes>  (1) 
R03AK10#R01AD12#R03BA09

>  <Ligand ID>  (1) 
GW6

>  <Target Name>  (1) 
Glucocorticoid receptor

>  <UniProt ID>  (1) 
P04150

>  <PDB ID.1>  (1) 
3CLD

>  <Seq. Identity>  (1) 
99%

$$$$
