PDB_DB00480_05
     RDKit          3D

 88 92  0  0  0  0  0  0  0  0999 V2000
    1.5040    0.7457   -0.2150 C   0  0  1  0  0  0  0  0  0  0  0  0
    2.3826    0.6196    0.9987 C   0  0  0  0  0  0  0  0  0  0  0  0
    3.1679   -0.6665    0.8408 C   0  0  0  0  0  0  0  0  0  0  0  0
    4.1983   -0.3539   -0.2547 C   0  0  0  0  0  0  0  0  0  0  0  0
    3.5621    0.1185   -1.4250 N   0  0  0  0  0  0  0  0  0  0  0  0
    2.1453    0.1467   -1.4352 C   0  0  0  0  0  0  0  0  0  0  0  0
   -1.5881   -0.8738    0.7182 C   0  0  0  0  0  0  0  0  0  0  0  0
   -1.8211   -0.6726   -0.7613 C   0  0  0  0  0  0  0  0  0  0  0  0
   -0.6677    0.2759   -1.1075 C   0  0  0  0  0  0  0  0  0  0  0  0
    0.1899    0.3166    0.0425 N   0  0  0  0  0  0  0  0  0  0  0  0
   -0.0416   -0.9172    0.6799 C   0  0  0  0  0  0  0  0  0  0  0  0
   -3.0979    1.1160    0.9838 C   0  0  0  0  0  0  0  0  0  0  0  0
   -3.9692    0.3233    0.0619 C   0  0  0  0  0  0  0  0  0  0  0  0
   -3.1493   -0.1311   -1.1096 C   0  0  0  0  0  0  0  0  0  0  0  0
   -1.9279    0.3675    1.5161 C   0  0  0  0  0  0  0  0  0  0  0  0
    0.3535   -1.0418    1.9844 O   0  0  0  0  0  0  0  0  0  0  0  0
   -3.9215   -1.1589   -1.8081 N   0  0  0  0  0  0  0  0  0  0  0  0
    1.7871    0.9262   -2.5653 O   0  0  0  0  0  0  0  0  0  0  0  0
    4.9727    0.7008    0.2754 O   0  0  0  0  0  0  0  0  0  0  0  0
    1.5040    0.7457   -0.2150 C   0  0  1  0  0  0  0  0  0  0  0  0
    2.3826    0.6196    0.9987 C   0  0  0  0  0  0  0  0  0  0  0  0
    3.1679   -0.6665    0.8408 C   0  0  0  0  0  0  0  0  0  0  0  0
    4.1983   -0.3539   -0.2547 C   0  0  0  0  0  0  0  0  0  0  0  0
    3.5621    0.1185   -1.4250 N   0  0  0  0  0  0  0  0  0  0  0  0
    2.1453    0.1467   -1.4352 C   0  0  0  0  0  0  0  0  0  0  0  0
   -1.5881   -0.8738    0.7182 C   0  0  0  0  0  0  0  0  0  0  0  0
   -1.8211   -0.6726   -0.7613 C   0  0  0  0  0  0  0  0  0  0  0  0
   -0.6677    0.2759   -1.1075 C   0  0  0  0  0  0  0  0  0  0  0  0
    0.1899    0.3166    0.0425 N   0  0  0  0  0  0  0  0  0  0  0  0
   -0.0416   -0.9172    0.6799 C   0  0  0  0  0  0  0  0  0  0  0  0
   -3.0979    1.1160    0.9838 C   0  0  0  0  0  0  0  0  0  0  0  0
   -3.9692    0.3233    0.0619 C   0  0  0  0  0  0  0  0  0  0  0  0
   -3.1493   -0.1311   -1.1096 C   0  0  0  0  0  0  0  0  0  0  0  0
   -1.9279    0.3675    1.5161 C   0  0  0  0  0  0  0  0  0  0  0  0
    0.3535   -1.0418    1.9844 O   0  0  0  0  0  0  0  0  0  0  0  0
   -3.9215   -1.1589   -1.8081 N   0  0  0  0  0  0  0  0  0  0  0  0
    1.7871    0.9262   -2.5653 O   0  0  0  0  0  0  0  0  0  0  0  0
    4.9727    0.7008    0.2754 O   0  0  0  0  0  0  0  0  0  0  0  0
    1.4508    1.8598   -0.4224 H   0  0  0  0  0  0  0  0  0  0  0  0
    3.1583    1.4434    0.9846 H   0  0  0  0  0  0  0  0  0  0  0  0
    1.8693    0.7177    1.9493 H   0  0  0  0  0  0  0  0  0  0  0  0
    3.6846   -0.9892    1.7424 H   0  0  0  0  0  0  0  0  0  0  0  0
    2.5603   -1.4972    0.4254 H   0  0  0  0  0  0  0  0  0  0  0  0
    4.8887   -1.1971   -0.4072 H   0  0  0  0  0  0  0  0  0  0  0  0
    4.0156    0.9384   -1.8842 H   0  0  0  0  0  0  0  0  0  0  0  0
    1.7479   -0.8695   -1.6117 H   0  0  0  0  0  0  0  0  0  0  0  0
   -2.0011   -1.7920    1.1249 H   0  0  0  0  0  0  0  0  0  0  0  0
   -1.6644   -1.6852   -1.2293 H   0  0  0  0  0  0  0  0  0  0  0  0
   -1.0968    1.2706   -1.3159 H   0  0  0  0  0  0  0  0  0  0  0  0
   -0.1832   -0.1775   -1.9974 H   0  0  0  0  0  0  0  0  0  0  0  0
    0.2029   -1.8044    0.0476 H   0  0  0  0  0  0  0  0  0  0  0  0
   -3.7544    1.4796    1.8194 H   0  0  0  0  0  0  0  0  0  0  0  0
   -2.8017    2.0491    0.4329 H   0  0  0  0  0  0  0  0  0  0  0  0
   -4.4870   -0.5183    0.5794 H   0  0  0  0  0  0  0  0  0  0  0  0
   -4.7384    1.0372   -0.3482 H   0  0  0  0  0  0  0  0  0  0  0  0
   -3.0185    0.7020   -1.8313 H   0  0  0  0  0  0  0  0  0  0  0  0
   -1.0630    1.0934    1.5502 H   0  0  0  0  0  0  0  0  0  0  0  0
   -2.1308    0.1022    2.5702 H   0  0  0  0  0  0  0  0  0  0  0  0
    0.0128   -1.9195    2.3138 H   0  0  0  0  0  0  0  0  0  0  0  0
   -4.2486   -1.8339   -1.0688 H   0  0  0  0  0  0  0  0  0  0  0  0
   -3.2995   -1.6527   -2.5028 H   0  0  0  0  0  0  0  0  0  0  0  0
    2.0110    1.8484   -2.3250 H   0  0  0  0  0  0  0  0  0  0  0  0
    4.8060    1.5538   -0.2145 H   0  0  0  0  0  0  0  0  0  0  0  0
    1.4508    1.8598   -0.4224 H   0  0  0  0  0  0  0  0  0  0  0  0
    3.1583    1.4434    0.9846 H   0  0  0  0  0  0  0  0  0  0  0  0
    1.8693    0.7177    1.9493 H   0  0  0  0  0  0  0  0  0  0  0  0
    3.6846   -0.9892    1.7424 H   0  0  0  0  0  0  0  0  0  0  0  0
    2.5603   -1.4972    0.4254 H   0  0  0  0  0  0  0  0  0  0  0  0
    4.8887   -1.1971   -0.4072 H   0  0  0  0  0  0  0  0  0  0  0  0
    4.0156    0.9384   -1.8842 H   0  0  0  0  0  0  0  0  0  0  0  0
    1.7479   -0.8695   -1.6117 H   0  0  0  0  0  0  0  0  0  0  0  0
   -2.0011   -1.7920    1.1249 H   0  0  0  0  0  0  0  0  0  0  0  0
   -1.6644   -1.6852   -1.2293 H   0  0  0  0  0  0  0  0  0  0  0  0
   -1.0968    1.2706   -1.3159 H   0  0  0  0  0  0  0  0  0  0  0  0
   -0.1832   -0.1775   -1.9974 H   0  0  0  0  0  0  0  0  0  0  0  0
    0.2029   -1.8044    0.0476 H   0  0  0  0  0  0  0  0  0  0  0  0
   -3.7544    1.4796    1.8194 H   0  0  0  0  0  0  0  0  0  0  0  0
   -2.8017    2.0491    0.4329 H   0  0  0  0  0  0  0  0  0  0  0  0
   -4.4870   -0.5183    0.5794 H   0  0  0  0  0  0  0  0  0  0  0  0
   -4.7384    1.0372   -0.3482 H   0  0  0  0  0  0  0  0  0  0  0  0
   -3.0185    0.7020   -1.8313 H   0  0  0  0  0  0  0  0  0  0  0  0
   -1.0630    1.0934    1.5502 H   0  0  0  0  0  0  0  0  0  0  0  0
   -2.1308    0.1022    2.5702 H   0  0  0  0  0  0  0  0  0  0  0  0
    0.0128   -1.9195    2.3138 H   0  0  0  0  0  0  0  0  0  0  0  0
   -4.2486   -1.8339   -1.0688 H   0  0  0  0  0  0  0  0  0  0  0  0
   -3.2995   -1.6527   -2.5028 H   0  0  0  0  0  0  0  0  0  0  0  0
    2.0110    1.8484   -2.3250 H   0  0  0  0  0  0  0  0  0  0  0  0
    4.8060    1.5538   -0.2145 H   0  0  0  0  0  0  0  0  0  0  0  0
  1  2  1  0
  2  3  1  0
  3  4  1  0
  4  5  1  0
  1  6  1  0
  5  6  1  0
  7  8  1  0
  8  9  1  0
  1 10  1  0
  9 10  1  0
  7 11  1  0
 10 11  1  0
 12 13  1  0
  8 14  1  0
 13 14  1  0
  7 15  1  0
 12 15  1  0
 11 16  1  0
 14 17  1  0
  6 18  1  0
  4 19  1  0
 20 21  1  0
 21 22  1  0
 22 23  1  0
 23 24  1  0
 20 25  1  0
 24 25  1  0
 26 27  1  0
 27 28  1  0
 20 29  1  0
 28 29  1  0
 26 30  1  0
 29 30  1  0
 31 32  1  0
 27 33  1  0
 32 33  1  0
 26 34  1  0
 31 34  1  0
 30 35  1  0
 33 36  1  0
 25 37  1  0
 23 38  1  0
  1 39  1  6
  2 40  1  0
  2 41  1  0
  3 42  1  0
  3 43  1  0
  4 44  1  0
  5 45  1  0
  6 46  1  0
  7 47  1  0
  8 48  1  0
  9 49  1  0
  9 50  1  0
 11 51  1  0
 12 52  1  0
 12 53  1  0
 13 54  1  0
 13 55  1  0
 14 56  1  0
 15 57  1  0
 15 58  1  0
 16 59  1  0
 17 60  1  0
 17 61  1  0
 18 62  1  0
 19 63  1  0
 20 64  1  6
 21 65  1  0
 21 66  1  0
 22 67  1  0
 22 68  1  0
 23 69  1  0
 24 70  1  0
 25 71  1  0
 26 72  1  0
 27 73  1  0
 28 74  1  0
 28 75  1  0
 30 76  1  0
 31 77  1  0
 31 78  1  0
 32 79  1  0
 32 80  1  0
 33 81  1  0
 34 82  1  0
 34 83  1  0
 35 84  1  0
 36 85  1  0
 36 86  1  0
 37 87  1  0
 38 88  1  0
M  END
>  <PDBID>  (1) 
5FQD

>  <PDB ID>  (1) 
5FQD

>  <Generic Name>  (1) 
Lenalidomide

>  <Brand Name>  (1) 
Revlimid#Ladevina#Lenangio

>  <DrugBank ID>  (1) 
DB00480

>  <ATC Codes>  (1) 
L04AX04

>  <Ligand ID>  (1) 
LVY

>  <Target Name>  (1) 
Protein cereblon

>  <UniProt ID>  (1) 
Q96SW2

>  <PDB ID.1>  (1) 
5FQD

>  <Seq. Identity>  (1) 
100%

$$$$
