PDB_DB00869_02
     RDKit          3D

 43 44  0  0  0  0  0  0  0  0999 V2000
    2.2391    1.2156    1.0237 S   0  0  0  0  0  0  0  0  0  0  0  0
    2.6574   -0.0695   -0.1877 C   0  0  0  0  0  0  0  0  0  0  0  0
    1.3454   -0.8894   -0.1479 C   0  0  0  0  0  0  0  0  0  0  0  0
    0.2970    0.1840   -0.2349 C   0  0  0  0  0  0  0  0  0  0  0  0
   -1.0698   -0.2774   -0.5609 C   0  0  2  0  0  0  0  0  0  0  0  0
   -2.1204    0.7383   -0.5085 C   0  0  0  0  0  0  0  0  0  0  0  0
   -2.0333    1.8409    0.4565 C   0  0  1  0  0  0  0  0  0  0  0  0
   -0.4164    2.4879    0.6779 S   0  0  0  0  0  0  0  0  0  0  0  0
    0.4374    0.9794    1.0479 C   0  0  2  0  0  0  0  0  0  0  0  0
    4.0131   -0.9106    0.1623 S   0  0  0  0  0  0  0  0  0  0  0  0
    4.1270   -1.4866    1.5602 O   0  0  0  0  0  0  0  0  0  0  0  0
    5.3483   -0.0814   -0.3272 O   0  0  0  0  0  0  0  0  0  0  0  0
    4.0038   -2.2728   -0.9368 N   0  0  0  0  0  0  0  0  0  0  0  0
   -1.3380   -1.5557    0.0629 N   0  0  0  0  0  0  0  0  0  0  0  0
   -2.8871    3.0017   -0.0787 C   0  0  0  0  0  0  0  0  0  0  0  0
   -0.3188    3.6232    2.0114 O   0  0  0  0  0  0  0  0  0  0  0  0
    0.3190    3.2554   -0.7468 O   0  0  0  0  0  0  0  0  0  0  0  0
   -2.6583   -2.0612   -0.1127 C   0  0  0  0  0  0  0  0  0  0  0  0
   -2.7038   -3.5283    0.3454 C   0  0  0  0  0  0  0  0  0  0  0  0
    2.6423    0.3635   -1.2027 H   0  0  0  0  0  0  0  0  0  0  0  0
    1.2923   -1.4802    0.7535 H   0  0  0  0  0  0  0  0  0  0  0  0
    1.2835   -1.4690   -1.0587 H   0  0  0  0  0  0  0  0  0  0  0  0
    0.6146    0.8823   -1.0670 H   0  0  0  0  0  0  0  0  0  0  0  0
   -0.9921   -0.5730   -1.6789 H   0  0  0  0  0  0  0  0  0  0  0  0
   -2.2635    1.2035   -1.5410 H   0  0  0  0  0  0  0  0  0  0  0  0
   -3.1074    0.2288   -0.3461 H   0  0  0  0  0  0  0  0  0  0  0  0
   -2.3900    1.5204    1.4405 H   0  0  0  0  0  0  0  0  0  0  0  0
    0.0493    0.4917    1.9367 H   0  0  0  0  0  0  0  0  0  0  0  0
    4.3722   -0.9230    2.3073 H   0  0  0  0  0  0  0  0  0  0  0  0
    5.2391    0.8854   -0.3585 H   0  0  0  0  0  0  0  0  0  0  0  0
    5.0153   -2.5027   -1.0622 H   0  0  0  0  0  0  0  0  0  0  0  0
    3.4910   -3.0667   -0.4606 H   0  0  0  0  0  0  0  0  0  0  0  0
   -0.9691   -1.6100    1.0408 H   0  0  0  0  0  0  0  0  0  0  0  0
   -2.3861    3.9747    0.0653 H   0  0  0  0  0  0  0  0  0  0  0  0
   -3.0099    2.8643   -1.1893 H   0  0  0  0  0  0  0  0  0  0  0  0
   -3.8815    3.0386    0.3706 H   0  0  0  0  0  0  0  0  0  0  0  0
    0.6650    3.8138    2.1251 H   0  0  0  0  0  0  0  0  0  0  0  0
   -0.4193    3.5106   -1.3449 H   0  0  0  0  0  0  0  0  0  0  0  0
   -3.4224   -1.5094    0.4899 H   0  0  0  0  0  0  0  0  0  0  0  0
   -2.9143   -2.0924   -1.1836 H   0  0  0  0  0  0  0  0  0  0  0  0
   -3.1976   -3.6240    1.3229 H   0  0  0  0  0  0  0  0  0  0  0  0
   -3.2827   -4.1631   -0.3768 H   0  0  0  0  0  0  0  0  0  0  0  0
   -1.6704   -3.9575    0.4003 H   0  0  0  0  0  0  0  0  0  0  0  0
  1  2  1  0
  2  3  1  0
  3  4  1  0
  4  5  1  0
  5  6  1  0
  6  7  1  0
  7  8  1  0
  1  9  1  0
  4  9  1  0
  8  9  1  0
  2 10  1  0
 10 11  1  0
 10 12  1  0
 10 13  1  0
  5 14  1  0
  7 15  1  0
  8 16  1  0
  8 17  1  0
 14 18  1  0
 18 19  1  0
  2 20  1  0
  3 21  1  0
  3 22  1  0
  4 23  1  0
  5 24  1  6
  6 25  1  0
  6 26  1  0
  7 27  1  1
  9 28  1  1
 11 29  1  0
 12 30  1  0
 13 31  1  0
 13 32  1  0
 14 33  1  0
 15 34  1  0
 15 35  1  0
 15 36  1  0
 16 37  1  0
 17 38  1  0
 18 39  1  0
 18 40  1  0
 19 41  1  0
 19 42  1  0
 19 43  1  0
M  END
>  <PDBID>  (1) 
1CIL

>  <PDB ID>  (1) 
1CIL

>  <Generic Name>  (1) 
Dorzolamide

>  <Brand Name>  (1) 
Act Dorzotimolol#Apo-dorzo-timop#Apo-dorzolamide#Cosopt#Cosopt PF#Dorzolamide#Dorzolamide HCl#Dorzolamide HCl /timolol Maleate#Dorzolamide HCl and Timolol Maleate#Dorzolamide Hydrochloride#Dorzolamide Hydrochloride Ophthalmic Solution#Dorzolamide Hydrochloride Ophthalmic Solution 2%, 10ml Ophthalmic Solution 2%, 10ml#Dorzolamide Hydrochloride and Timolol Maleate#Dorzolamide Hydrochloride and Timolol Maleate Ophthalmic Solution#Dorzolamide Hydrochloride-timolol Maleate#Dorzolamide Hydrochloride-timolol Maleate Ophthalmic Solution Sterile Ophthalmic Solution#Jamp-dorzolamide#Jamp-dorzolamide/timolol#Med-dorzolamide#Med-dorzolamide-timolol#Mint-dorzolamide/timolol#Mylan-dorzolamide/timolol#PMS-dorzolamide-timolol#Riva-dorzolamide#Riva-dorzolamide/timolol#Sandoz Dorzolamide#Sandoz Dorzolamide/timolol#Teva-dorzotimol#Trusopt#Van-dorzolamide-timolol

>  <DrugBank ID>  (1) 
DB00869

>  <ATC Codes>  (1) 
S01EC03

>  <Ligand ID>  (1) 
ETS

>  <Target Name>  (1) 
Carbonic anhydrase 2

>  <UniProt ID>  (1) 
P00918

>  <PDB ID.1>  (1) 
1CIL

>  <Seq. Identity>  (1) 
100%

$$$$
