PDB_DB06290_02
     RDKit          3D

492516  0  0  0  0  0  0  0  0999 V2000
   -0.2720   -1.7582    0.4573 C   0  0  0  0  0  0  0  0  0  0  0  0
   -1.6190   -1.9069    1.0311 C   0  0  2  0  0  0  0  0  0  0  0  0
   -1.9172   -0.6782    1.8102 C   0  0  1  0  0  0  0  0  0  0  0  0
   -0.6711    0.1137    1.8382 C   0  0  0  0  0  0  0  0  0  0  0  0
    0.1257   -0.3657    0.6327 C   0  0  1  0  0  0  0  0  0  0  0  0
   -3.1353    0.0030    1.3014 C   0  0  1  0  0  0  0  0  0  0  0  0
   -2.9228    1.3836    1.5303 O   0  0  0  0  0  0  0  0  0  0  0  0
   -3.5235   -0.1687   -0.0389 N   0  0  0  0  0  0  0  0  0  0  0  0
   -1.7699   -3.1578    1.8789 C   0  0  0  0  0  0  0  0  0  0  0  0
   -0.5201   -3.4419    2.4235 O   0  0  0  0  0  0  0  0  0  0  0  0
   -5.8115   -0.9443    0.2209 C   0  0  1  0  0  0  0  0  0  0  0  0
   -5.1629    0.6658   -1.6714 C   0  0  0  0  0  0  0  0  0  0  0  0
   -2.1760   -4.3244    1.1361 N   0  0  0  0  0  0  0  0  0  0  0  0
   -3.4754   -4.1945    0.5127 C   0  0  0  0  0  0  0  0  0  0  0  0
   -2.1036   -5.5188    1.9682 C   0  0  0  0  0  0  0  0  0  0  0  0
   -4.9259    0.1259   -0.2843 C   0  0  2  0  0  0  0  0  0  0  0  0
   -5.9197    0.4687    0.7230 C   0  0  0  0  0  0  0  0  0  0  0  0
   -6.7571   -1.5777   -0.7170 C   0  0  0  0  0  0  0  0  0  0  0  0
   -4.5313   -5.0967    1.1295 C   0  0  0  0  0  0  0  0  0  0  0  0
   -5.6954   -5.1261    0.1583 C   0  0  0  0  0  0  0  0  0  0  0  0
   -6.5773   -3.9105    0.2355 C   0  0  0  0  0  0  0  0  0  0  0  0
   -6.3117   -3.0164   -0.9274 C   0  0  0  0  0  0  0  0  0  0  0  0
    1.4488   -0.0700    0.7274 O   0  0  0  0  0  0  0  0  0  0  0  0
    4.3124   -0.6595   -3.2508 C   0  0  0  0  0  0  0  0  0  0  0  0
    2.8731   -1.0248   -3.1856 C   0  0  0  0  0  0  0  0  0  0  0  0
    2.1690   -0.6145   -1.9258 C   0  0  0  0  0  0  0  0  0  0  0  0
    3.0086    0.2020   -0.9945 C   0  0  0  0  0  0  0  0  0  0  0  0
    3.8099    1.2634   -1.6933 C   0  0  0  0  0  0  0  0  0  0  0  0
    4.4467    0.8059   -2.9283 C   0  0  0  0  0  0  0  0  0  0  0  0
    2.0490    0.8625    0.0087 C   0  0  0  0  0  0  0  0  0  0  0  0
    2.8965    1.8254    0.8250 C   0  0  0  0  0  0  0  0  0  0  0  0
    4.3794    1.6164    0.5958 C   0  0  1  0  0  0  0  0  0  0  0  0
    4.7807    1.8182   -0.7412 N   0  0  0  0  0  0  0  0  0  0  0  0
    5.1041    2.5183    1.5507 C   0  0  1  0  0  0  0  0  0  0  0  0
    4.7313    1.9717    3.2820 S   0  0  0  0  0  0  0  0  0  0  0  0
    6.4807    1.5051    3.6971 C   0  0  0  0  0  0  0  0  0  0  0  0
    7.1152    2.5736    2.7750 C   0  0  2  0  0  0  0  0  0  0  0  0
    6.5286    2.3253    1.4989 N   0  0  0  0  0  0  0  0  0  0  0  0
    8.5797    2.3701    2.7412 C   0  0  0  0  0  0  0  0  0  0  0  0
    8.9811    1.0473    2.1794 C   0  0  0  0  0  0  0  0  0  0  0  0
    9.3583    3.4686    2.0520 C   0  0  0  0  0  0  0  0  0  0  0  0
    5.1822   -1.4508   -2.5515 O   0  0  0  0  0  0  0  0  0  0  0  0
    6.1246   -2.0818   -3.3586 C   0  0  0  0  0  0  0  0  0  0  0  0
    5.9176    1.1515   -3.0717 C   0  0  0  0  0  0  0  0  0  0  0  0
   -4.4037    1.8673   -1.8599 N   0  0  0  0  0  0  0  0  0  0  0  0
   -6.5237    1.0177   -1.8567 O   0  0  0  0  0  0  0  0  0  0  0  0
   -4.9153    3.1658   -0.9168 S   0  0  0  0  0  0  0  0  0  0  0  0
   -6.0272    4.1081   -1.8950 C   0  0  0  0  0  0  0  0  0  0  0  0
   -5.2298    3.1010    0.4368 O   0  0  0  0  0  0  0  0  0  0  0  0
   -3.4491    4.2038   -1.1085 O   0  0  0  0  0  0  0  0  0  0  0  0
   -6.3056    5.4793   -1.3099 C   0  0  0  0  0  0  0  0  0  0  0  0
   -5.5775    5.3054   -2.6319 C   0  0  0  0  0  0  0  0  0  0  0  0
   -1.1370   -1.5875   -0.5799 C   0  0  0  0  0  0  0  0  0  0  0  0
   -1.8840   -2.0431    0.6266 C   0  0  2  0  0  0  0  0  0  0  0  0
   -2.0627   -0.8706    1.4966 C   0  0  1  0  0  0  0  0  0  0  0  0
   -1.2516    0.2302    0.9031 C   0  0  0  0  0  0  0  0  0  0  0  0
   -0.3047   -0.4223   -0.1364 C   0  0  1  0  0  0  0  0  0  0  0  0
   -3.5139   -0.4251    1.5217 C   0  0  0  0  0  0  0  0  0  0  0  0
   -3.8544   -0.2095    2.8605 O   0  0  0  0  0  0  0  0  0  0  0  0
   -3.7811    0.7809    0.8183 N   0  0  0  0  0  0  0  0  0  0  0  0
   -1.1383   -3.1868    1.2574 C   0  0  0  0  0  0  0  0  0  0  0  0
   -0.3779   -3.8365    0.2917 O   0  0  0  0  0  0  0  0  0  0  0  0
   -5.9840   -0.1270    0.6260 C   0  0  1  0  0  0  0  0  0  0  0  0
   -4.6820    0.7888   -1.4552 C   0  0  2  0  0  0  0  0  0  0  0  0
   -1.9350   -4.1352    1.9218 N   0  0  0  0  0  0  0  0  0  0  0  0
   -2.7459   -5.0107    1.2052 C   0  0  0  0  0  0  0  0  0  0  0  0
   -1.8106   -4.2950    3.3082 C   0  0  0  0  0  0  0  0  0  0  0  0
   -4.9503    0.6144   -0.0073 C   0  0  2  0  0  0  0  0  0  0  0  0
   -6.2302    1.3318    0.4427 C   0  0  0  0  0  0  0  0  0  0  0  0
   -6.8135   -1.1231   -0.1207 C   0  0  0  0  0  0  0  0  0  0  0  0
   -4.2098   -4.7138    1.5625 C   0  0  0  0  0  0  0  0  0  0  0  0
   -5.0345   -4.4278    0.3299 C   0  0  0  0  0  0  0  0  0  0  0  0
   -6.1411   -3.4352    0.6050 C   0  0  0  0  0  0  0  0  0  0  0  0
   -6.1340   -2.3929   -0.4607 C   0  0  0  0  0  0  0  0  0  0  0  0
    0.8379   -0.6963    0.5269 O   0  0  0  0  0  0  0  0  0  0  0  0
    4.7139   -1.2823   -2.9600 C   0  0  0  0  0  0  0  0  0  0  0  0
    3.2227   -1.1509   -2.9734 C   0  0  0  0  0  0  0  0  0  0  0  0
    2.5414   -1.6230   -1.7084 C   0  0  0  0  0  0  0  0  0  0  0  0
    3.0475   -0.9603   -0.4616 C   0  0  0  0  0  0  0  0  0  0  0  0
    4.1737   -0.0075   -0.8766 C   0  0  0  0  0  0  0  0  0  0  0  0
    5.2264   -0.7174   -1.6832 C   0  0  0  0  0  0  0  0  0  0  0  0
    1.9943   -0.0499    0.1542 C   0  0  0  0  0  0  0  0  0  0  0  0
    2.6148    0.7270    1.2730 C   0  0  0  0  0  0  0  0  0  0  0  0
    3.7133    1.6003    0.7250 C   0  0  0  0  0  0  0  0  0  0  0  0
    4.7547    0.6531    0.2709 N   0  0  0  0  0  0  0  0  0  0  0  0
    4.3622    2.3686    1.8698 C   0  0  0  0  0  0  0  0  0  0  0  0
    5.0520    1.1230    3.0378 S   0  0  0  0  0  0  0  0  0  0  0  0
    6.8225    1.6107    2.8516 C   0  0  0  0  0  0  0  0  0  0  0  0
    6.5557    3.0485    2.3719 C   0  0  0  0  0  0  0  0  0  0  0  0
    5.5767    2.9448    1.3418 N   0  0  0  0  0  0  0  0  0  0  0  0
    7.8254    3.5907    1.8204 C   0  0  0  0  0  0  0  0  0  0  0  0
    8.3886    2.8349    0.6590 C   0  0  0  0  0  0  0  0  0  0  0  0
    7.7170    5.0516    1.4304 C   0  0  0  0  0  0  0  0  0  0  0  0
    5.1560   -2.5596   -3.2498 O   0  0  0  0  0  0  0  0  0  0  0  0
    5.8831   -2.6010   -4.4467 C   0  0  0  0  0  0  0  0  0  0  0  0
    5.9140   -1.7703   -0.8037 C   0  0  0  0  0  0  0  0  0  0  0  0
   -4.0144    2.0235   -1.6938 N   0  0  0  0  0  0  0  0  0  0  0  0
   -5.7257    0.6562   -2.3188 O   0  0  0  0  0  0  0  0  0  0  0  0
   -4.6168    3.4175   -1.3330 S   0  0  0  0  0  0  0  0  0  0  0  0
   -5.7326    4.1299   -2.3390 C   0  0  0  0  0  0  0  0  0  0  0  0
   -4.6328    3.9811    0.0870 O   0  0  0  0  0  0  0  0  0  0  0  0
   -3.1026    4.4372   -1.9815 O   0  0  0  0  0  0  0  0  0  0  0  0
   -5.9958    5.6495   -2.0749 C   0  0  0  0  0  0  0  0  0  0  0  0
   -5.4677    5.1850   -3.3668 C   0  0  0  0  0  0  0  0  0  0  0  0
    0.2222   -1.7780    0.4846 C   0  0  0  0  0  0  0  0  0  0  0  0
   -1.2532   -1.8869    0.7558 C   0  0  2  0  0  0  0  0  0  0  0  0
   -1.5556   -0.7426    1.6609 C   0  0  1  0  0  0  0  0  0  0  0  0
   -0.2354    0.0437    1.8135 C   0  0  0  0  0  0  0  0  0  0  0  0
    0.3721   -0.2808    0.4699 C   0  0  1  0  0  0  0  0  0  0  0  0
   -2.6296    0.1858    1.1069 C   0  0  0  0  0  0  0  0  0  0  0  0
   -3.1450   -0.4246   -0.0333 O   0  0  0  0  0  0  0  0  0  0  0  0
   -3.6822    0.4074    2.0531 N   0  0  0  0  0  0  0  0  0  0  0  0
   -1.6238   -3.2170    1.3714 C   0  0  0  0  0  0  0  0  0  0  0  0
   -0.7488   -3.3808    2.4695 O   0  0  0  0  0  0  0  0  0  0  0  0
   -5.5696   -0.9343    1.3382 C   0  0  1  0  0  0  0  0  0  0  0  0
   -5.3048    1.5296    0.5011 C   0  0  2  0  0  0  0  0  0  0  0  0
   -1.3793   -4.2646    0.4561 N   0  0  0  0  0  0  0  0  0  0  0  0
   -2.4567   -4.7311   -0.3356 C   0  0  0  0  0  0  0  0  0  0  0  0
   -0.5326   -5.2757    1.0254 C   0  0  0  0  0  0  0  0  0  0  0  0
   -4.9853    0.3917    1.4179 C   0  0  2  0  0  0  0  0  0  0  0  0
   -6.1544    0.0292    2.3307 C   0  0  0  0  0  0  0  0  0  0  0  0
   -6.3126   -1.3032    0.1038 C   0  0  0  0  0  0  0  0  0  0  0  0
   -3.6217   -5.3100    0.4058 C   0  0  0  0  0  0  0  0  0  0  0  0
   -4.9603   -4.8612   -0.2062 C   0  0  0  0  0  0  0  0  0  0  0  0
   -5.2402   -3.5155    0.4490 C   0  0  0  0  0  0  0  0  0  0  0  0
   -6.4323   -2.8082   -0.0927 C   0  0  0  0  0  0  0  0  0  0  0  0
    1.5913    0.1933    0.2219 O   0  0  0  0  0  0  0  0  0  0  0  0
    4.0231   -0.9053   -3.6599 C   0  0  0  0  0  0  0  0  0  0  0  0
    2.6136   -0.6257   -4.1304 C   0  0  0  0  0  0  0  0  0  0  0  0
    1.8062    0.2026   -3.1780 C   0  0  0  0  0  0  0  0  0  0  0  0
    2.5573    0.3634   -1.8907 C   0  0  0  0  0  0  0  0  0  0  0  0
    3.8279    1.1362   -2.1871 C   0  0  0  0  0  0  0  0  0  0  0  0
    4.7016    0.2987   -3.0650 C   0  0  0  0  0  0  0  0  0  0  0  0
    1.7376    1.0715   -0.8439 C   0  0  0  0  0  0  0  0  0  0  0  0
    2.3283    2.3261   -0.3045 C   0  0  0  0  0  0  0  0  0  0  0  0
    3.8028    2.4433   -0.2733 C   0  0  0  0  0  0  0  0  0  0  0  0
    4.4643    1.3110   -0.8957 N   0  0  0  0  0  0  0  0  0  0  0  0
    4.2696    2.6632    1.1289 C   0  0  0  0  0  0  0  0  0  0  0  0
    3.8348    1.2638    2.2316 S   0  0  0  0  0  0  0  0  0  0  0  0
    5.5601    0.8758    2.7612 C   0  0  0  0  0  0  0  0  0  0  0  0
    6.2947    1.5724    1.6276 C   0  0  1  0  0  0  0  0  0  0  0  0
    5.6601    2.7990    1.3323 N   0  0  0  0  0  0  0  0  0  0  0  0
    7.7370    1.8350    1.9983 C   0  0  0  0  0  0  0  0  0  0  0  0
    8.4656    2.5324    0.8661 C   0  0  0  0  0  0  0  0  0  0  0  0
    7.9163    2.6519    3.2348 C   0  0  0  0  0  0  0  0  0  0  0  0
    4.0975   -2.0271   -2.8446 O   0  0  0  0  0  0  0  0  0  0  0  0
    4.8278   -3.0665   -3.3743 C   0  0  0  0  0  0  0  0  0  0  0  0
    5.9430   -0.1996   -2.3303 C   0  0  0  0  0  0  0  0  0  0  0  0
   -5.1716    2.7617    1.2577 N   0  0  0  0  0  0  0  0  0  0  0  0
   -6.5733    1.3964   -0.0446 O   0  0  0  0  0  0  0  0  0  0  0  0
   -5.4933    4.0719    0.4004 S   0  0  0  0  0  0  0  0  0  0  0  0
   -5.2954    3.8754   -1.2658 C   0  0  0  0  0  0  0  0  0  0  0  0
   -6.6445    5.0024    0.8013 O   0  0  0  0  0  0  0  0  0  0  0  0
   -4.0224    5.0730    0.7745 O   0  0  0  0  0  0  0  0  0  0  0  0
   -5.0143    5.0974   -2.0922 C   0  0  0  0  0  0  0  0  0  0  0  0
   -3.9224    4.0977   -1.9249 C   0  0  0  0  0  0  0  0  0  0  0  0
   -0.0620   -2.4463    0.3080 C   0  0  0  0  0  0  0  0  0  0  0  0
   -1.5834   -2.4616    0.4210 C   0  0  2  0  0  0  0  0  0  0  0  0
   -1.7465   -1.6339    1.6821 C   0  0  1  0  0  0  0  0  0  0  0  0
   -0.5957   -0.6582    1.7018 C   0  0  0  0  0  0  0  0  0  0  0  0
    0.1843   -0.9669    0.4481 C   0  0  1  0  0  0  0  0  0  0  0  0
   -3.1096   -0.9760    1.5949 C   0  0  0  0  0  0  0  0  0  0  0  0
   -3.4229   -0.7640    2.9733 O   0  0  0  0  0  0  0  0  0  0  0  0
   -3.1409    0.3185    1.0127 N   0  0  0  0  0  0  0  0  0  0  0  0
   -1.9433   -3.8967    0.5895 C   0  0  0  0  0  0  0  0  0  0  0  0
   -1.5722   -4.6144   -0.5436 O   0  0  0  0  0  0  0  0  0  0  0  0
   -5.5871   -0.0287    1.1533 C   0  0  1  0  0  0  0  0  0  0  0  0
   -4.4504    0.9879   -0.9462 C   0  0  0  0  0  0  0  0  0  0  0  0
   -3.2597   -4.2357    0.9439 N   0  0  0  0  0  0  0  0  0  0  0  0
   -3.8611   -5.3134    0.2192 C   0  0  0  0  0  0  0  0  0  0  0  0
   -3.3640   -4.4679    2.3707 C   0  0  0  0  0  0  0  0  0  0  0  0
   -4.4695    0.6181    0.5013 C   0  0  2  0  0  0  0  0  0  0  0  0
   -5.3897    1.4669    1.3356 C   0  0  0  0  0  0  0  0  0  0  0  0
   -6.7401   -0.5239    0.3575 C   0  0  0  0  0  0  0  0  0  0  0  0
   -5.3763   -5.1641    0.3440 C   0  0  0  0  0  0  0  0  0  0  0  0
   -5.8999   -4.0907   -0.5618 C   0  0  0  0  0  0  0  0  0  0  0  0
   -6.6380   -3.0099    0.1933 C   0  0  0  0  0  0  0  0  0  0  0  0
   -6.3493   -1.6883   -0.5010 C   0  0  0  0  0  0  0  0  0  0  0  0
    1.4326   -0.5780    0.3808 O   0  0  0  0  0  0  0  0  0  0  0  0
    4.7438   -2.0353   -2.6099 C   0  0  0  0  0  0  0  0  0  0  0  0
    3.4351   -1.7449   -3.3484 C   0  0  0  0  0  0  0  0  0  0  0  0
    2.4774   -1.0045   -2.4730 C   0  0  0  0  0  0  0  0  0  0  0  0
    3.1237   -0.5763   -1.1755 C   0  0  0  0  0  0  0  0  0  0  0  0
    4.4198    0.1287   -1.3441 C   0  0  0  0  0  0  0  0  0  0  0  0
    5.3632   -0.7536   -2.1138 C   0  0  0  0  0  0  0  0  0  0  0  0
    2.0568    0.2467   -0.4240 C   0  0  0  0  0  0  0  0  0  0  0  0
    2.8584    1.3585    0.2390 C   0  0  0  0  0  0  0  0  0  0  0  0
    4.0815    0.7634    0.9326 C   0  0  1  0  0  0  0  0  0  0  0  0
    5.0454    0.3056   -0.0234 N   0  0  0  0  0  0  0  0  0  0  0  0
    4.6412    1.7747    1.8865 C   0  0  1  0  0  0  0  0  0  0  0  0
    6.1163    1.0882    2.7561 S   0  0  0  0  0  0  0  0  0  0  0  0
    7.1791    2.5908    2.5707 C   0  0  0  0  0  0  0  0  0  0  0  0
    6.0928    3.5622    2.1662 C   0  0  0  0  0  0  0  0  0  0  0  0
    5.2919    2.8716    1.1685 N   0  0  0  0  0  0  0  0  0  0  0  0
    6.7033    4.7655    1.5411 C   0  0  0  0  0  0  0  0  0  0  0  0
    7.4915    4.4775    0.3023 C   0  0  0  0  0  0  0  0  0  0  0  0
    5.6957    5.8638    1.2588 C   0  0  0  0  0  0  0  0  0  0  0  0
    4.6217   -3.0253   -1.6713 O   0  0  0  0  0  0  0  0  0  0  0  0
    5.3101   -4.1779   -1.9620 C   0  0  0  0  0  0  0  0  0  0  0  0
    6.6172   -1.1173   -1.3512 C   0  0  0  0  0  0  0  0  0  0  0  0
   -3.6005    2.1192   -1.1668 N   0  0  0  0  0  0  0  0  0  0  0  0
   -5.7029    1.3075   -1.4789 O   0  0  0  0  0  0  0  0  0  0  0  0
   -3.8776    3.5621   -0.6394 S   0  0  0  0  0  0  0  0  0  0  0  0
   -4.7620    4.5690   -1.7203 C   0  0  0  0  0  0  0  0  0  0  0  0
   -4.2178    3.9031    0.8048 O   0  0  0  0  0  0  0  0  0  0  0  0
   -2.2469    4.3222   -0.8326 O   0  0  0  0  0  0  0  0  0  0  0  0
   -4.4677    6.0640   -1.5940 C   0  0  0  0  0  0  0  0  0  0  0  0
   -3.9974    5.3225   -2.8153 C   0  0  0  0  0  0  0  0  0  0  0  0
   -0.2431   -2.0929   -0.6331 H   0  0  0  0  0  0  0  0  0  0  0  0
    0.3757   -2.4858    1.0421 H   0  0  0  0  0  0  0  0  0  0  0  0
   -2.3259   -1.9875    0.1288 H   0  0  0  0  0  0  0  0  0  0  0  0
   -2.1536   -1.0466    2.8696 H   0  0  0  0  0  0  0  0  0  0  0  0
   -0.8416    1.2103    1.7627 H   0  0  0  0  0  0  0  0  0  0  0  0
   -0.1299   -0.0542    2.7802 H   0  0  0  0  0  0  0  0  0  0  0  0
   -0.2777    0.2593   -0.1915 H   0  0  0  0  0  0  0  0  0  0  0  0
   -4.0076   -0.3599    1.9315 H   0  0  0  0  0  0  0  0  0  0  0  0
   -2.9308    1.4786    2.5303 H   0  0  0  0  0  0  0  0  0  0  0  0
   -2.8896    0.4153   -0.6677 H   0  0  0  0  0  0  0  0  0  0  0  0
   -2.4490   -2.9818    2.7437 H   0  0  0  0  0  0  0  0  0  0  0  0
   -0.2368   -2.6970    3.0053 H   0  0  0  0  0  0  0  0  0  0  0  0
   -5.5255   -1.6247    1.0552 H   0  0  0  0  0  0  0  0  0  0  0  0
   -4.9013   -0.1030   -2.4474 H   0  0  0  0  0  0  0  0  0  0  0  0
   -3.3882   -4.5050   -0.5577 H   0  0  0  0  0  0  0  0  0  0  0  0
   -3.8501   -3.1812    0.6285 H   0  0  0  0  0  0  0  0  0  0  0  0
   -2.0407   -6.3902    1.2933 H   0  0  0  0  0  0  0  0  0  0  0  0
   -1.1115   -5.4474    2.4945 H   0  0  0  0  0  0  0  0  0  0  0  0
   -2.9234   -5.5682    2.7031 H   0  0  0  0  0  0  0  0  0  0  0  0
   -6.8731    0.9493    0.4018 H   0  0  0  0  0  0  0  0  0  0  0  0
   -5.6649    0.7406    1.7544 H   0  0  0  0  0  0  0  0  0  0  0  0
   -7.7658   -1.6147   -0.2406 H   0  0  0  0  0  0  0  0  0  0  0  0
   -6.8824   -1.1571   -1.7065 H   0  0  0  0  0  0  0  0  0  0  0  0
   -4.8673   -4.7267    2.1178 H   0  0  0  0  0  0  0  0  0  0  0  0
   -4.1345   -6.1399    1.1816 H   0  0  0  0  0  0  0  0  0  0  0  0
   -6.2865   -6.0726    0.2698 H   0  0  0  0  0  0  0  0  0  0  0  0
   -5.2384   -5.2016   -0.8512 H   0  0  0  0  0  0  0  0  0  0  0  0
   -7.6337   -4.2788    0.1155 H   0  0  0  0  0  0  0  0  0  0  0  0
   -6.5084   -3.4532    1.2247 H   0  0  0  0  0  0  0  0  0  0  0  0
   -6.8844   -3.4012   -1.8114 H   0  0  0  0  0  0  0  0  0  0  0  0
   -5.2448   -3.0162   -1.2761 H   0  0  0  0  0  0  0  0  0  0  0  0
    4.6097   -0.7436   -4.3391 H   0  0  0  0  0  0  0  0  0  0  0  0
    2.7128   -2.1094   -3.4308 H   0  0  0  0  0  0  0  0  0  0  0  0
    2.3695   -0.4447   -4.0223 H   0  0  0  0  0  0  0  0  0  0  0  0
    1.2258   -0.0331   -2.1192 H   0  0  0  0  0  0  0  0  0  0  0  0
    1.9187   -1.5685   -1.3900 H   0  0  0  0  0  0  0  0  0  0  0  0
    3.6573   -0.4661   -0.3672 H   0  0  0  0  0  0  0  0  0  0  0  0
    3.0877    2.1200   -1.8603 H   0  0  0  0  0  0  0  0  0  0  0  0
    3.9538    1.3456   -3.7977 H   0  0  0  0  0  0  0  0  0  0  0  0
    1.3156    1.3970   -0.6566 H   0  0  0  0  0  0  0  0  0  0  0  0
    2.7560    1.7128    1.9182 H   0  0  0  0  0  0  0  0  0  0  0  0
    2.6286    2.8497    0.4798 H   0  0  0  0  0  0  0  0  0  0  0  0
    4.5812    0.5618    0.9782 H   0  0  0  0  0  0  0  0  0  0  0  0
    5.6633    1.2476   -0.9144 H   0  0  0  0  0  0  0  0  0  0  0  0
    4.7987    3.5852    1.4679 H   0  0  0  0  0  0  0  0  0  0  0  0
    6.7082    0.5043    3.3500 H   0  0  0  0  0  0  0  0  0  0  0  0
    6.7205    1.7413    4.7325 H   0  0  0  0  0  0  0  0  0  0  0  0
    6.8195    3.5596    3.1965 H   0  0  0  0  0  0  0  0  0  0  0  0
    6.6725    1.2999    1.2800 H   0  0  0  0  0  0  0  0  0  0  0  0
    8.9790    2.3719    3.8119 H   0  0  0  0  0  0  0  0  0  0  0  0
    8.5913    0.1925    2.7287 H   0  0  0  0  0  0  0  0  0  0  0  0
    8.6861    1.0641    1.0911 H   0  0  0  0  0  0  0  0  0  0  0  0
   10.1089    0.9904    2.2012 H   0  0  0  0  0  0  0  0  0  0  0  0
   10.3164    3.0446    1.6992 H   0  0  0  0  0  0  0  0  0  0  0  0
    9.6321    4.2828    2.7802 H   0  0  0  0  0  0  0  0  0  0  0  0
    8.7850    3.8633    1.1928 H   0  0  0  0  0  0  0  0  0  0  0  0
    6.7823   -2.6729   -2.6796 H   0  0  0  0  0  0  0  0  0  0  0  0
    6.6423   -1.4093   -4.0397 H   0  0  0  0  0  0  0  0  0  0  0  0
    5.5994   -2.8649   -3.9768 H   0  0  0  0  0  0  0  0  0  0  0  0
    6.5836    0.4517   -2.5311 H   0  0  0  0  0  0  0  0  0  0  0  0
    6.1556    1.0133   -4.1647 H   0  0  0  0  0  0  0  0  0  0  0  0
    6.1187    2.2108   -2.8490 H   0  0  0  0  0  0  0  0  0  0  0  0
   -4.4227    2.1998   -2.8602 H   0  0  0  0  0  0  0  0  0  0  0  0
   -6.7150    1.2331   -2.7811 H   0  0  0  0  0  0  0  0  0  0  0  0
   -6.9207    3.5575   -2.2302 H   0  0  0  0  0  0  0  0  0  0  0  0
   -6.1025    3.3578    0.8792 H   0  0  0  0  0  0  0  0  0  0  0  0
   -3.7517    5.0710   -0.7848 H   0  0  0  0  0  0  0  0  0  0  0  0
   -5.7092    5.8317   -0.4420 H   0  0  0  0  0  0  0  0  0  0  0  0
   -7.3067    5.9249   -1.4151 H   0  0  0  0  0  0  0  0  0  0  0  0
   -4.4763    5.4808   -2.6427 H   0  0  0  0  0  0  0  0  0  0  0  0
   -6.1129    5.5334   -3.5827 H   0  0  0  0  0  0  0  0  0  0  0  0
   -1.8969   -1.2805   -1.3527 H   0  0  0  0  0  0  0  0  0  0  0  0
   -0.5230   -2.4363   -0.9529 H   0  0  0  0  0  0  0  0  0  0  0  0
   -2.8971   -2.3588    0.2731 H   0  0  0  0  0  0  0  0  0  0  0  0
   -1.7014   -1.0547    2.5527 H   0  0  0  0  0  0  0  0  0  0  0  0
   -1.9180    0.8887    0.3087 H   0  0  0  0  0  0  0  0  0  0  0  0
   -0.6520    0.8009    1.6425 H   0  0  0  0  0  0  0  0  0  0  0  0
   -0.2176    0.2817   -1.0054 H   0  0  0  0  0  0  0  0  0  0  0  0
   -4.1193   -1.3027    1.2051 H   0  0  0  0  0  0  0  0  0  0  0  0
   -3.5510    0.7213    3.0659 H   0  0  0  0  0  0  0  0  0  0  0  0
   -3.7892    1.5741    1.4557 H   0  0  0  0  0  0  0  0  0  0  0  0
   -0.4257   -2.7452    1.9882 H   0  0  0  0  0  0  0  0  0  0  0  0
    0.5956   -3.7324    0.4449 H   0  0  0  0  0  0  0  0  0  0  0  0
   -5.8736   -0.3910    1.6985 H   0  0  0  0  0  0  0  0  0  0  0  0
   -3.9345   -0.0182   -1.7516 H   0  0  0  0  0  0  0  0  0  0  0  0
   -2.5285   -6.0789    1.4706 H   0  0  0  0  0  0  0  0  0  0  0  0
   -2.6734   -4.9269    0.1290 H   0  0  0  0  0  0  0  0  0  0  0  0
   -1.7024   -5.3550    3.6501 H   0  0  0  0  0  0  0  0  0  0  0  0
   -0.9510   -3.6707    3.6722 H   0  0  0  0  0  0  0  0  0  0  0  0
   -2.7059   -3.8253    3.8129 H   0  0  0  0  0  0  0  0  0  0  0  0
   -7.0072    1.5854   -0.2659 H   0  0  0  0  0  0  0  0  0  0  0  0
   -6.1403    2.0349    1.2896 H   0  0  0  0  0  0  0  0  0  0  0  0
   -7.6894   -1.3699    0.5477 H   0  0  0  0  0  0  0  0  0  0  0  0
   -7.2801   -0.7164   -1.0377 H   0  0  0  0  0  0  0  0  0  0  0  0
   -4.2857   -3.8262    2.2221 H   0  0  0  0  0  0  0  0  0  0  0  0
   -4.6261   -5.5732    2.1440 H   0  0  0  0  0  0  0  0  0  0  0  0
   -5.5378   -5.4019    0.0794 H   0  0  0  0  0  0  0  0  0  0  0  0
   -4.4402   -4.0735   -0.5085 H   0  0  0  0  0  0  0  0  0  0  0  0
   -7.1214   -3.9391    0.7483 H   0  0  0  0  0  0  0  0  0  0  0  0
   -5.8453   -2.9194    1.5675 H   0  0  0  0  0  0  0  0  0  0  0  0
   -6.6527   -2.8500   -1.3548 H   0  0  0  0  0  0  0  0  0  0  0  0
   -5.0829   -2.2621   -0.8039 H   0  0  0  0  0  0  0  0  0  0  0  0
    5.0791   -0.6207   -3.8011 H   0  0  0  0  0  0  0  0  0  0  0  0
    2.8482   -1.6924   -3.8661 H   0  0  0  0  0  0  0  0  0  0  0  0
    2.9728   -0.0814   -3.1581 H   0  0  0  0  0  0  0  0  0  0  0  0
    1.4505   -1.4745   -1.8342 H   0  0  0  0  0  0  0  0  0  0  0  0
    2.7034   -2.7261   -1.6606 H   0  0  0  0  0  0  0  0  0  0  0  0
    3.4185   -1.6994    0.2792 H   0  0  0  0  0  0  0  0  0  0  0  0
    3.6737    0.7894   -1.4630 H   0  0  0  0  0  0  0  0  0  0  0  0
    6.0217    0.0182   -1.9057 H   0  0  0  0  0  0  0  0  0  0  0  0
    1.7326    0.6542   -0.6577 H   0  0  0  0  0  0  0  0  0  0  0  0
    1.8859    1.3905    1.7796 H   0  0  0  0  0  0  0  0  0  0  0  0
    3.1194    0.0440    2.0206 H   0  0  0  0  0  0  0  0  0  0  0  0
    3.4354    2.2401   -0.1065 H   0  0  0  0  0  0  0  0  0  0  0  0
    4.9905   -0.0311    1.0179 H   0  0  0  0  0  0  0  0  0  0  0  0
    3.6969    3.0732    2.3647 H   0  0  0  0  0  0  0  0  0  0  0  0
    7.2991    0.9925    2.0966 H   0  0  0  0  0  0  0  0  0  0  0  0
    7.3165    1.6137    3.8297 H   0  0  0  0  0  0  0  0  0  0  0  0
    6.2342    3.6474    3.2427 H   0  0  0  0  0  0  0  0  0  0  0  0
    5.9297    2.3501    0.5817 H   0  0  0  0  0  0  0  0  0  0  0  0
    8.5768    3.5652    2.6595 H   0  0  0  0  0  0  0  0  0  0  0  0
    8.6710    1.7935    0.8649 H   0  0  0  0  0  0  0  0  0  0  0  0
    7.7175    2.9149   -0.2231 H   0  0  0  0  0  0  0  0  0  0  0  0
    9.3373    3.3740    0.3695 H   0  0  0  0  0  0  0  0  0  0  0  0
    8.5966    5.2599    0.7681 H   0  0  0  0  0  0  0  0  0  0  0  0
    7.8440    5.7067    2.3097 H   0  0  0  0  0  0  0  0  0  0  0  0
    6.8219    5.2753    0.8452 H   0  0  0  0  0  0  0  0  0  0  0  0
    6.7770   -1.9746   -4.4471 H   0  0  0  0  0  0  0  0  0  0  0  0
    5.1873   -2.1680   -5.2194 H   0  0  0  0  0  0  0  0  0  0  0  0
    6.1305   -3.6135   -4.7572 H   0  0  0  0  0  0  0  0  0  0  0  0
    5.2154   -2.4967   -0.3917 H   0  0  0  0  0  0  0  0  0  0  0  0
    6.7609   -2.2109   -1.3736 H   0  0  0  0  0  0  0  0  0  0  0  0
    6.3631   -1.1947    0.0351 H   0  0  0  0  0  0  0  0  0  0  0  0
   -2.9639    1.9482   -1.5980 H   0  0  0  0  0  0  0  0  0  0  0  0
   -6.4935    1.2332   -2.1855 H   0  0  0  0  0  0  0  0  0  0  0  0
   -6.6934    3.5744   -2.5293 H   0  0  0  0  0  0  0  0  0  0  0  0
   -3.9115    4.5949    0.4357 H   0  0  0  0  0  0  0  0  0  0  0  0
   -2.4945    4.1766   -1.2357 H   0  0  0  0  0  0  0  0  0  0  0  0
   -5.2925    6.1578   -1.3986 H   0  0  0  0  0  0  0  0  0  0  0  0
   -7.0407    5.9483   -1.9189 H   0  0  0  0  0  0  0  0  0  0  0  0
   -4.4141    5.4503   -3.6398 H   0  0  0  0  0  0  0  0  0  0  0  0
   -6.1585    5.3003   -4.2306 H   0  0  0  0  0  0  0  0  0  0  0  0
    0.5149   -2.2453   -0.4784 H   0  0  0  0  0  0  0  0  0  0  0  0
    0.7703   -2.2154    1.3461 H   0  0  0  0  0  0  0  0  0  0  0  0
   -1.7514   -1.7206   -0.2158 H   0  0  0  0  0  0  0  0  0  0  0  0
   -1.9165   -1.0689    2.6585 H   0  0  0  0  0  0  0  0  0  0  0  0
   -0.4498    1.1036    1.9337 H   0  0  0  0  0  0  0  0  0  0  0  0
    0.2898   -0.4485    2.6495 H   0  0  0  0  0  0  0  0  0  0  0  0
   -0.3400    0.1206   -0.2797 H   0  0  0  0  0  0  0  0  0  0  0  0
   -2.1977    1.1866    0.8715 H   0  0  0  0  0  0  0  0  0  0  0  0
   -2.6768   -0.0284   -0.7943 H   0  0  0  0  0  0  0  0  0  0  0  0
   -3.5352    1.2799    2.6095 H   0  0  0  0  0  0  0  0  0  0  0  0
   -2.6223   -3.1280    1.7936 H   0  0  0  0  0  0  0  0  0  0  0  0
   -1.2328   -3.3880    3.3330 H   0  0  0  0  0  0  0  0  0  0  0  0
   -4.9693   -1.7466    1.8506 H   0  0  0  0  0  0  0  0  0  0  0  0
   -4.6008    1.6216   -0.3680 H   0  0  0  0  0  0  0  0  0  0  0  0
   -2.0459   -5.5760   -0.9681 H   0  0  0  0  0  0  0  0  0  0  0  0
   -2.8404   -4.0066   -1.0730 H   0  0  0  0  0  0  0  0  0  0  0  0
   -0.6145   -6.1689    0.3592 H   0  0  0  0  0  0  0  0  0  0  0  0
    0.5477   -4.9611    0.9664 H   0  0  0  0  0  0  0  0  0  0  0  0
   -0.7242   -5.4891    2.0843 H   0  0  0  0  0  0  0  0  0  0  0  0
   -7.1714    0.3793    2.0708 H   0  0  0  0  0  0  0  0  0  0  0  0
   -5.9655   -0.0818    3.3972 H   0  0  0  0  0  0  0  0  0  0  0  0
   -7.3124   -0.8127    0.0270 H   0  0  0  0  0  0  0  0  0  0  0  0
   -5.7463   -0.9241   -0.7762 H   0  0  0  0  0  0  0  0  0  0  0  0
   -3.6515   -5.0134    1.4725 H   0  0  0  0  0  0  0  0  0  0  0  0
   -3.6502   -6.4256    0.3941 H   0  0  0  0  0  0  0  0  0  0  0  0
   -5.7254   -5.6151   -0.0172 H   0  0  0  0  0  0  0  0  0  0  0  0
   -4.7902   -4.7024   -1.3018 H   0  0  0  0  0  0  0  0  0  0  0  0
   -5.2864   -3.7272    1.5330 H   0  0  0  0  0  0  0  0  0  0  0  0
   -4.3467   -2.8860    0.1646 H   0  0  0  0  0  0  0  0  0  0  0  0
   -7.3948   -3.1814    0.3057 H   0  0  0  0  0  0  0  0  0  0  0  0
   -6.4835   -3.0224   -1.1996 H   0  0  0  0  0  0  0  0  0  0  0  0
    4.6149   -1.1666   -4.5848 H   0  0  0  0  0  0  0  0  0  0  0  0
    2.1487   -1.6128   -4.3262 H   0  0  0  0  0  0  0  0  0  0  0  0
    2.6705   -0.1372   -5.1451 H   0  0  0  0  0  0  0  0  0  0  0  0
    1.7203    1.2313   -3.6309 H   0  0  0  0  0  0  0  0  0  0  0  0
    0.7694   -0.1541   -3.0573 H   0  0  0  0  0  0  0  0  0  0  0  0
    2.8773   -0.6144   -1.4749 H   0  0  0  0  0  0  0  0  0  0  0  0
    3.6194    2.1298   -2.6259 H   0  0  0  0  0  0  0  0  0  0  0  0
    5.0678    0.9334   -3.9018 H   0  0  0  0  0  0  0  0  0  0  0  0
    0.7449    1.2686   -1.3422 H   0  0  0  0  0  0  0  0  0  0  0  0
    1.9314    3.1794   -0.9104 H   0  0  0  0  0  0  0  0  0  0  0  0
    1.9384    2.4498    0.7529 H   0  0  0  0  0  0  0  0  0  0  0  0
    4.1679    3.3349   -0.8545 H   0  0  0  0  0  0  0  0  0  0  0  0
    4.2737    0.4365   -0.3301 H   0  0  0  0  0  0  0  0  0  0  0  0
    3.7005    3.5343    1.5270 H   0  0  0  0  0  0  0  0  0  0  0  0
    5.7513   -0.2013    2.6960 H   0  0  0  0  0  0  0  0  0  0  0  0
    5.7348    1.3346    3.7352 H   0  0  0  0  0  0  0  0  0  0  0  0
    6.3358    0.8542    0.7821 H   0  0  0  0  0  0  0  0  0  0  0  0
    5.8227    3.4693    2.0985 H   0  0  0  0  0  0  0  0  0  0  0  0
    8.2586    0.8606    2.1550 H   0  0  0  0  0  0  0  0  0  0  0  0
    7.8799    2.3543   -0.0807 H   0  0  0  0  0  0  0  0  0  0  0  0
    8.5158    3.6194    0.9902 H   0  0  0  0  0  0  0  0  0  0  0  0
    9.4796    2.1040    0.6919 H   0  0  0  0  0  0  0  0  0  0  0  0
    9.0328    2.7452    3.3825 H   0  0  0  0  0  0  0  0  0  0  0  0
    7.5715    2.1047    4.1377 H   0  0  0  0  0  0  0  0  0  0  0  0
    7.5328    3.6719    3.1801 H   0  0  0  0  0  0  0  0  0  0  0  0
    4.8393   -3.9226   -2.6704 H   0  0  0  0  0  0  0  0  0  0  0  0
    5.8598   -2.7692   -3.6553 H   0  0  0  0  0  0  0  0  0  0  0  0
    4.3194   -3.4256   -4.2916 H   0  0  0  0  0  0  0  0  0  0  0  0
    5.6786   -1.0205   -1.6374 H   0  0  0  0  0  0  0  0  0  0  0  0
    6.6477   -0.5826   -3.0767 H   0  0  0  0  0  0  0  0  0  0  0  0
    6.3833    0.5984   -1.6969 H   0  0  0  0  0  0  0  0  0  0  0  0
   -5.6308    2.7056    2.1938 H   0  0  0  0  0  0  0  0  0  0  0  0
   -7.2259    2.0585    0.2778 H   0  0  0  0  0  0  0  0  0  0  0  0
   -5.9074    3.1078   -1.7760 H   0  0  0  0  0  0  0  0  0  0  0  0
   -6.4885    5.8257    1.2964 H   0  0  0  0  0  0  0  0  0  0  0  0
   -4.3001    5.5255    1.6086 H   0  0  0  0  0  0  0  0  0  0  0  0
   -4.8999    6.0836   -1.5895 H   0  0  0  0  0  0  0  0  0  0  0  0
   -5.4541    5.1924   -3.1014 H   0  0  0  0  0  0  0  0  0  0  0  0
   -3.1105    4.3787   -1.2161 H   0  0  0  0  0  0  0  0  0  0  0  0
   -3.6465    3.4420   -2.7559 H   0  0  0  0  0  0  0  0  0  0  0  0
    0.2794   -2.8775   -0.6486 H   0  0  0  0  0  0  0  0  0  0  0  0
    0.2792   -3.0331    1.1856 H   0  0  0  0  0  0  0  0  0  0  0  0
   -2.0376   -1.9193   -0.3988 H   0  0  0  0  0  0  0  0  0  0  0  0
   -1.7184   -2.3025    2.5815 H   0  0  0  0  0  0  0  0  0  0  0  0
   -0.9798    0.3792    1.7051 H   0  0  0  0  0  0  0  0  0  0  0  0
    0.0878   -0.8452    2.5609 H   0  0  0  0  0  0  0  0  0  0  0  0
   -0.3915   -0.4783   -0.3740 H   0  0  0  0  0  0  0  0  0  0  0  0
   -3.8228   -1.7143    1.1725 H   0  0  0  0  0  0  0  0  0  0  0  0
   -2.8156   -0.0252    3.2326 H   0  0  0  0  0  0  0  0  0  0  0  0
   -2.4268    0.5490    0.3214 H   0  0  0  0  0  0  0  0  0  0  0  0
   -1.2712   -4.2896    1.4053 H   0  0  0  0  0  0  0  0  0  0  0  0
   -0.6168   -4.7160   -0.6676 H   0  0  0  0  0  0  0  0  0  0  0  0
   -5.5182   -0.5491    2.1306 H   0  0  0  0  0  0  0  0  0  0  0  0
   -4.0250    0.1415   -1.5584 H   0  0  0  0  0  0  0  0  0  0  0  0
   -3.5575   -6.2696    0.6865 H   0  0  0  0  0  0  0  0  0  0  0  0
   -3.5865   -5.3616   -0.8380 H   0  0  0  0  0  0  0  0  0  0  0  0
   -4.0619   -5.2797    2.5462 H   0  0  0  0  0  0  0  0  0  0  0  0
   -2.3400   -4.6538    2.7602 H   0  0  0  0  0  0  0  0  0  0  0  0
   -3.7699   -3.5372    2.8176 H   0  0  0  0  0  0  0  0  0  0  0  0
   -6.2056    2.0469    0.9088 H   0  0  0  0  0  0  0  0  0  0  0  0
   -5.0502    1.8318    2.3292 H   0  0  0  0  0  0  0  0  0  0  0  0
   -7.5351   -0.9423    1.0625 H   0  0  0  0  0  0  0  0  0  0  0  0
   -7.2717    0.2092   -0.2572 H   0  0  0  0  0  0  0  0  0  0  0  0
   -5.6705   -4.8924    1.3798 H   0  0  0  0  0  0  0  0  0  0  0  0
   -5.8544   -6.1605    0.1748 H   0  0  0  0  0  0  0  0  0  0  0  0
   -6.6137   -4.5405   -1.2770 H   0  0  0  0  0  0  0  0  0  0  0  0
   -5.0680   -3.6290   -1.1338 H   0  0  0  0  0  0  0  0  0  0  0  0
   -7.7094   -3.2122    0.2484 H   0  0  0  0  0  0  0  0  0  0  0  0
   -6.1433   -2.9237    1.1874 H   0  0  0  0  0  0  0  0  0  0  0  0
   -6.8873   -1.6515   -1.4937 H   0  0  0  0  0  0  0  0  0  0  0  0
   -5.2795   -1.6460   -0.7285 H   0  0  0  0  0  0  0  0  0  0  0  0
    5.4184   -2.4311   -3.4151 H   0  0  0  0  0  0  0  0  0  0  0  0
    3.0609   -2.7139   -3.7335 H   0  0  0  0  0  0  0  0  0  0  0  0
    3.7282   -1.0563   -4.1981 H   0  0  0  0  0  0  0  0  0  0  0  0
    2.0889   -0.1015   -2.9651 H   0  0  0  0  0  0  0  0  0  0  0  0
    1.6785   -1.7201   -2.1924 H   0  0  0  0  0  0  0  0  0  0  0  0
    3.3369   -1.4529   -0.5260 H   0  0  0  0  0  0  0  0  0  0  0  0
    4.3510    1.0840   -1.8840 H   0  0  0  0  0  0  0  0  0  0  0  0
    5.7236   -0.2317   -3.0532 H   0  0  0  0  0  0  0  0  0  0  0  0
    1.4546    0.7568   -1.2224 H   0  0  0  0  0  0  0  0  0  0  0  0
    2.3227    1.9385    0.9773 H   0  0  0  0  0  0  0  0  0  0  0  0
    3.2379    2.0666   -0.5188 H   0  0  0  0  0  0  0  0  0  0  0  0
    3.6892   -0.1216    1.5247 H   0  0  0  0  0  0  0  0  0  0  0  0
    5.3827   -0.6413    0.2915 H   0  0  0  0  0  0  0  0  0  0  0  0
    3.9168    2.1407    2.6177 H   0  0  0  0  0  0  0  0  0  0  0  0
    7.9220    2.4383    1.7986 H   0  0  0  0  0  0  0  0  0  0  0  0
    7.5846    2.8702    3.5665 H   0  0  0  0  0  0  0  0  0  0  0  0
    5.4481    3.8150    3.0476 H   0  0  0  0  0  0  0  0  0  0  0  0
    5.9950    2.3858    0.5354 H   0  0  0  0  0  0  0  0  0  0  0  0
    7.4344    5.2262    2.2820 H   0  0  0  0  0  0  0  0  0  0  0  0
    7.9063    5.4805   -0.0291 H   0  0  0  0  0  0  0  0  0  0  0  0
    6.7947    4.1957   -0.5297 H   0  0  0  0  0  0  0  0  0  0  0  0
    8.3335    3.8018    0.4200 H   0  0  0  0  0  0  0  0  0  0  0  0
    4.7067    5.4811    1.0094 H   0  0  0  0  0  0  0  0  0  0  0  0
    5.6390    6.6073    2.1048 H   0  0  0  0  0  0  0  0  0  0  0  0
    6.0810    6.4439    0.3937 H   0  0  0  0  0  0  0  0  0  0  0  0
    5.1252   -4.8871   -1.1084 H   0  0  0  0  0  0  0  0  0  0  0  0
    6.3656   -3.9881   -2.1545 H   0  0  0  0  0  0  0  0  0  0  0  0
    4.7754   -4.6352   -2.8496 H   0  0  0  0  0  0  0  0  0  0  0  0
    6.4929   -2.0495   -0.7358 H   0  0  0  0  0  0  0  0  0  0  0  0
    7.3995   -1.4073   -2.1126 H   0  0  0  0  0  0  0  0  0  0  0  0
    7.0441   -0.2741   -0.8012 H   0  0  0  0  0  0  0  0  0  0  0  0
   -2.6094    1.8502   -1.3406 H   0  0  0  0  0  0  0  0  0  0  0  0
   -6.0779    2.1329   -1.1438 H   0  0  0  0  0  0  0  0  0  0  0  0
   -5.7755    4.3207   -2.0499 H   0  0  0  0  0  0  0  0  0  0  0  0
   -3.7283    4.5774    1.3399 H   0  0  0  0  0  0  0  0  0  0  0  0
   -1.8125    4.1695    0.0469 H   0  0  0  0  0  0  0  0  0  0  0  0
   -3.6646    6.3969   -0.9326 H   0  0  0  0  0  0  0  0  0  0  0  0
   -5.3214    6.7635   -1.6940 H   0  0  0  0  0  0  0  0  0  0  0  0
   -2.9245    5.0612   -2.9010 H   0  0  0  0  0  0  0  0  0  0  0  0
   -4.4912    5.5947   -3.7470 H   0  0  0  0  0  0  0  0  0  0  0  0
  1  2  1  0
  2  3  1  0
  3  4  1  0
  1  5  1  0
  4  5  1  0
  3  6  1  0
  6  7  1  0
  6  8  1  0
  2  9  1  0
  9 10  1  0
  9 13  1  0
 13 14  1  0
 13 15  1  0
  8 16  1  0
 11 16  1  0
 16 12  1  6
 11 17  1  0
 16 17  1  0
 11 18  1  0
 14 19  1  0
 19 20  1  0
 20 21  1  0
 18 22  1  0
 21 22  1  0
  5 23  1  0
 24 25  1  0
 25 26  1  0
 26 27  1  0
 27 28  1  0
 24 29  1  0
 28 29  1  0
 23 30  1  0
 27 30  1  0
 30 31  1  0
 31 32  1  0
 28 33  1  0
 32 33  1  0
 32 34  1  0
 34 35  1  0
 35 36  1  0
 36 37  1  0
 34 38  1  0
 37 38  1  0
 37 39  1  0
 39 40  1  0
 39 41  1  0
 24 42  1  0
 42 43  1  0
 29 44  1  0
 12 45  1  0
 12 46  1  0
 45 47  1  0
 47 48  1  0
 47 49  1  0
 47 50  1  0
 48 51  1  0
 48 52  1  0
 51 52  1  0
 53 54  1  0
 54 55  1  0
 55 56  1  0
 53 57  1  0
 56 57  1  0
 55 58  1  0
 58 59  1  0
 58 60  1  0
 54 61  1  0
 61 62  1  0
 61 65  1  0
 65 66  1  0
 65 67  1  0
 68 60  1  1
 63 68  1  0
 64 68  1  0
 63 69  1  0
 68 69  1  0
 63 70  1  0
 66 71  1  0
 71 72  1  0
 72 73  1  0
 70 74  1  0
 73 74  1  0
 57 75  1  0
 76 77  1  0
 77 78  1  0
 78 79  1  0
 79 80  1  0
 76 81  1  0
 80 81  1  0
 75 82  1  0
 79 82  1  0
 82 83  1  0
 83 84  1  0
 80 85  1  0
 84 85  1  0
 84 86  1  0
 86 87  1  0
 87 88  1  0
 88 89  1  0
 86 90  1  0
 89 90  1  0
 89 91  1  0
 91 92  1  0
 91 93  1  0
 76 94  1  0
 94 95  1  0
 81 96  1  0
 64 97  1  0
 64 98  1  0
 97 99  1  0
 99100  1  0
 99101  1  0
 99102  1  0
100103  1  0
100104  1  0
103104  1  0
105106  1  0
106107  1  0
107108  1  0
105109  1  0
108109  1  0
107110  1  0
110111  1  0
110112  1  0
106113  1  0
113114  1  0
113117  1  0
117118  1  0
117119  1  0
120112  1  1
115120  1  0
116120  1  0
115121  1  0
120121  1  0
115122  1  0
118123  1  0
123124  1  0
124125  1  0
122126  1  0
125126  1  0
109127  1  0
128129  1  0
129130  1  0
130131  1  0
131132  1  0
128133  1  0
132133  1  0
127134  1  0
131134  1  0
134135  1  0
135136  1  0
132137  1  0
136137  1  0
136138  1  0
138139  1  0
139140  1  0
140141  1  0
138142  1  0
141142  1  0
141143  1  0
143144  1  0
143145  1  0
128146  1  0
146147  1  0
133148  1  0
116149  1  0
116150  1  0
149151  1  0
151152  1  0
151153  1  0
151154  1  0
152155  1  0
152156  1  0
155156  1  0
157158  1  0
158159  1  0
159160  1  0
157161  1  0
160161  1  0
159162  1  0
162163  1  0
162164  1  0
158165  1  0
165166  1  0
165169  1  0
169170  1  0
169171  1  0
164172  1  0
167172  1  0
172168  1  6
167173  1  0
172173  1  0
167174  1  0
170175  1  0
175176  1  0
176177  1  0
174178  1  0
177178  1  0
161179  1  0
180181  1  0
181182  1  0
182183  1  0
183184  1  0
180185  1  0
184185  1  0
179186  1  0
183186  1  0
186187  1  0
187188  1  0
184189  1  0
188189  1  0
188190  1  0
190191  1  0
191192  1  0
192193  1  0
190194  1  0
193194  1  0
193195  1  0
195196  1  0
195197  1  0
180198  1  0
198199  1  0
185200  1  0
168201  1  0
168202  1  0
201203  1  0
203204  1  0
203205  1  0
203206  1  0
204207  1  0
204208  1  0
207208  1  0
  1209  1  0
  1210  1  0
  2211  1  6
  3212  1  1
  4213  1  0
  4214  1  0
  5215  1  6
  6216  1  1
  7217  1  0
  8218  1  0
  9219  1  0
 10220  1  0
 11221  1  1
 12222  1  0
 14223  1  0
 14224  1  0
 15225  1  0
 15226  1  0
 15227  1  0
 17228  1  0
 17229  1  0
 18230  1  0
 18231  1  0
 19232  1  0
 19233  1  0
 20234  1  0
 20235  1  0
 21236  1  0
 21237  1  0
 22238  1  0
 22239  1  0
 24240  1  0
 25241  1  0
 25242  1  0
 26243  1  0
 26244  1  0
 27245  1  0
 28246  1  0
 29247  1  0
 30248  1  0
 31249  1  0
 31250  1  0
 32251  1  1
 33252  1  0
 34253  1  1
 36254  1  0
 36255  1  0
 37256  1  1
 38257  1  0
 39258  1  0
 40259  1  0
 40260  1  0
 40261  1  0
 41262  1  0
 41263  1  0
 41264  1  0
 43265  1  0
 43266  1  0
 43267  1  0
 44268  1  0
 44269  1  0
 44270  1  0
 45271  1  0
 46272  1  0
 48273  1  0
 49274  1  0
 50275  1  0
 51276  1  0
 51277  1  0
 52278  1  0
 52279  1  0
 53280  1  0
 53281  1  0
 54282  1  6
 55283  1  1
 56284  1  0
 56285  1  0
 57286  1  6
 58287  1  0
 59288  1  0
 60289  1  0
 61290  1  0
 62291  1  0
 63292  1  1
 64293  1  6
 66294  1  0
 66295  1  0
 67296  1  0
 67297  1  0
 67298  1  0
 69299  1  0
 69300  1  0
 70301  1  0
 70302  1  0
 71303  1  0
 71304  1  0
 72305  1  0
 72306  1  0
 73307  1  0
 73308  1  0
 74309  1  0
 74310  1  0
 76311  1  0
 77312  1  0
 77313  1  0
 78314  1  0
 78315  1  0
 79316  1  0
 80317  1  0
 81318  1  0
 82319  1  0
 83320  1  0
 83321  1  0
 84322  1  0
 85323  1  0
 86324  1  0
 88325  1  0
 88326  1  0
 89327  1  0
 90328  1  0
 91329  1  0
 92330  1  0
 92331  1  0
 92332  1  0
 93333  1  0
 93334  1  0
 93335  1  0
 95336  1  0
 95337  1  0
 95338  1  0
 96339  1  0
 96340  1  0
 96341  1  0
 97342  1  0
 98343  1  0
100344  1  0
101345  1  0
102346  1  0
103347  1  0
103348  1  0
104349  1  0
104350  1  0
105351  1  0
105352  1  0
106353  1  6
107354  1  1
108355  1  0
108356  1  0
109357  1  6
110358  1  0
111359  1  0
112360  1  0
113361  1  0
114362  1  0
115363  1  1
116364  1  6
118365  1  0
118366  1  0
119367  1  0
119368  1  0
119369  1  0
121370  1  0
121371  1  0
122372  1  0
122373  1  0
123374  1  0
123375  1  0
124376  1  0
124377  1  0
125378  1  0
125379  1  0
126380  1  0
126381  1  0
128382  1  0
129383  1  0
129384  1  0
130385  1  0
130386  1  0
131387  1  0
132388  1  0
133389  1  0
134390  1  0
135391  1  0
135392  1  0
136393  1  0
137394  1  0
138395  1  0
140396  1  0
140397  1  0
141398  1  6
142399  1  0
143400  1  0
144401  1  0
144402  1  0
144403  1  0
145404  1  0
145405  1  0
145406  1  0
147407  1  0
147408  1  0
147409  1  0
148410  1  0
148411  1  0
148412  1  0
149413  1  0
150414  1  0
152415  1  0
153416  1  0
154417  1  0
155418  1  0
155419  1  0
156420  1  0
156421  1  0
157422  1  0
157423  1  0
158424  1  6
159425  1  1
160426  1  0
160427  1  0
161428  1  6
162429  1  0
163430  1  0
164431  1  0
165432  1  0
166433  1  0
167434  1  1
168435  1  0
170436  1  0
170437  1  0
171438  1  0
171439  1  0
171440  1  0
173441  1  0
173442  1  0
174443  1  0
174444  1  0
175445  1  0
175446  1  0
176447  1  0
176448  1  0
177449  1  0
177450  1  0
178451  1  0
178452  1  0
180453  1  0
181454  1  0
181455  1  0
182456  1  0
182457  1  0
183458  1  0
184459  1  0
185460  1  0
186461  1  0
187462  1  0
187463  1  0
188464  1  1
189465  1  0
190466  1  1
192467  1  0
192468  1  0
193469  1  0
194470  1  0
195471  1  0
196472  1  0
196473  1  0
196474  1  0
197475  1  0
197476  1  0
197477  1  0
199478  1  0
199479  1  0
199480  1  0
200481  1  0
200482  1  0
200483  1  0
201484  1  0
202485  1  0
204486  1  0
205487  1  0
206488  1  0
207489  1  0
207490  1  0
208491  1  0
208492  1  0
M  END
>  <PDBID>  (1) 
3KEE

>  <PDB ID>  (1) 
3KEE

>  <Generic Name>  (1) 
Simeprevir

>  <Brand Name>  (1) 
Galexos#Olysio

>  <DrugBank ID>  (1) 
DB06290

>  <ATC Codes>  (1) 
J05AE14

>  <Ligand ID>  (1) 
30B

>  <Target Name>  (1) 
NS3 protease

>  <UniProt ID>  (1) 
Q91RS4

>  <PDB ID.1>  (1) 
3KEE

>  <Seq. Identity>  (1) 
82%

$$$$
