PDB_DB01194_05
     RDKit          3D

 52 53  0  0  0  0  0  0  0  0999 V2000
    3.7987    0.1263    0.2689 C   0  0  0  0  0  0  0  0  0  0  0  0
   -1.3793   -0.2293    1.1928 C   0  0  0  0  0  0  0  0  0  0  0  0
   -0.4698   -1.4155    1.1891 C   0  0  1  0  0  0  0  0  0  0  0  0
   -1.0504    0.7660    0.0601 C   0  0  2  0  0  0  0  0  0  0  0  0
    0.2885    1.3592    0.3676 C   0  0  0  0  0  0  0  0  0  0  0  0
   -4.0299   -1.7015   -0.8444 S   0  0  0  0  0  0  0  0  0  0  0  0
    5.0022    0.8765   -0.3378 C   0  0  0  0  0  0  0  0  0  0  0  0
   -1.2920    4.0563   -0.1635 C   0  0  0  0  0  0  0  0  0  0  0  0
   -2.1150    2.8991   -0.6233 C   0  0  0  0  0  0  0  0  0  0  0  0
   -1.4254   -2.5122    0.0574 S   0  0  0  0  0  0  0  0  0  0  0  0
   -4.1558   -3.1414   -1.6105 N   0  0  0  0  0  0  0  0  0  0  0  0
   -5.7220   -1.8248    0.0864 O   0  0  0  0  0  0  0  0  0  0  0  0
   -4.2044   -0.4533   -1.5495 O   0  0  0  0  0  0  0  0  0  0  0  0
   -3.0775   -1.8785    0.5127 C   0  0  0  0  0  0  0  0  0  0  0  0
   -2.7688   -0.6331    1.2887 C   0  0  0  0  0  0  0  0  0  0  0  0
    1.1111   -1.1092    0.6979 S   0  0  0  0  0  0  0  0  0  0  0  0
    1.6295   -2.1795   -0.8200 O   0  0  0  0  0  0  0  0  0  0  0  0
    2.3917   -1.8375    2.0031 O   0  0  0  0  0  0  0  0  0  0  0  0
    1.3564    0.3771    0.5074 N   0  0  0  0  0  0  0  0  0  0  0  0
   -2.1015    1.7055    0.0785 N   0  0  0  0  0  0  0  0  0  0  0  0
    2.5809    0.9453    0.0118 C   0  0  0  0  0  0  0  0  0  0  0  0
    6.1969    0.2364   -0.1212 O   0  0  0  0  0  0  0  0  0  0  0  0
    6.3179   -1.0252   -0.6247 C   0  0  0  0  0  0  0  0  0  0  0  0
    3.7692   -0.8828   -0.1404 H   0  0  0  0  0  0  0  0  0  0  0  0
    4.0260    0.1023    1.3597 H   0  0  0  0  0  0  0  0  0  0  0  0
   -1.1209    0.3521    2.1298 H   0  0  0  0  0  0  0  0  0  0  0  0
   -0.5741   -1.9063    2.2007 H   0  0  0  0  0  0  0  0  0  0  0  0
   -1.0008    0.1832   -0.9028 H   0  0  0  0  0  0  0  0  0  0  0  0
    0.6167    2.0208   -0.4572 H   0  0  0  0  0  0  0  0  0  0  0  0
    0.2046    1.9510    1.3066 H   0  0  0  0  0  0  0  0  0  0  0  0
    4.8187    1.0829   -1.4391 H   0  0  0  0  0  0  0  0  0  0  0  0
    5.0655    1.8923    0.1137 H   0  0  0  0  0  0  0  0  0  0  0  0
   -0.3617    3.8895    0.3436 H   0  0  0  0  0  0  0  0  0  0  0  0
   -1.9480    4.7343    0.4958 H   0  0  0  0  0  0  0  0  0  0  0  0
   -1.1355    4.7099   -1.0670 H   0  0  0  0  0  0  0  0  0  0  0  0
   -1.9993    2.7590   -1.7496 H   0  0  0  0  0  0  0  0  0  0  0  0
   -3.1985    3.2830   -0.5895 H   0  0  0  0  0  0  0  0  0  0  0  0
   -4.8207   -3.8309   -1.2341 H   0  0  0  0  0  0  0  0  0  0  0  0
   -3.2538   -3.6557   -1.7969 H   0  0  0  0  0  0  0  0  0  0  0  0
   -6.2380   -1.7361   -0.7511 H   0  0  0  0  0  0  0  0  0  0  0  0
   -5.0663   -0.0825   -1.8459 H   0  0  0  0  0  0  0  0  0  0  0  0
   -3.5002   -2.6191    1.2140 H   0  0  0  0  0  0  0  0  0  0  0  0
   -3.4563    0.1538    0.9113 H   0  0  0  0  0  0  0  0  0  0  0  0
   -3.0737   -0.7507    2.3786 H   0  0  0  0  0  0  0  0  0  0  0  0
    1.3602   -3.0442   -0.4344 H   0  0  0  0  0  0  0  0  0  0  0  0
    2.0265   -2.7391    1.9852 H   0  0  0  0  0  0  0  0  0  0  0  0
   -2.4372    1.8452    1.0631 H   0  0  0  0  0  0  0  0  0  0  0  0
    2.7399    1.9638    0.4199 H   0  0  0  0  0  0  0  0  0  0  0  0
    2.4457    1.0677   -1.0925 H   0  0  0  0  0  0  0  0  0  0  0  0
    7.3382   -1.4061   -0.3386 H   0  0  0  0  0  0  0  0  0  0  0  0
    5.5927   -1.7534   -0.2055 H   0  0  0  0  0  0  0  0  0  0  0  0
    6.2992   -0.9907   -1.7284 H   0  0  0  0  0  0  0  0  0  0  0  0
  2  3  1  0
  2  4  1  0
  4  5  1  0
  1  7  1  0
  8  9  1  0
  3 10  1  0
  6 11  1  0
  6 12  1  0
  6 13  1  0
  6 14  1  0
 10 14  1  0
  2 15  1  0
 14 15  1  0
  3 16  1  0
 16 17  1  0
 16 18  1  0
  5 19  1  0
 16 19  1  0
  4 20  1  0
  9 20  1  0
  1 21  1  0
 19 21  1  0
  7 22  1  0
 22 23  1  0
  1 24  1  0
  1 25  1  0
  2 26  1  0
  3 27  1  1
  4 28  1  6
  5 29  1  0
  5 30  1  0
  7 31  1  0
  7 32  1  0
  8 33  1  0
  8 34  1  0
  8 35  1  0
  9 36  1  0
  9 37  1  0
 11 38  1  0
 11 39  1  0
 12 40  1  0
 13 41  1  0
 14 42  1  0
 15 43  1  0
 15 44  1  0
 17 45  1  0
 18 46  1  0
 20 47  1  0
 21 48  1  0
 21 49  1  0
 23 50  1  0
 23 51  1  0
 23 52  1  0
M  END
>  <PDBID>  (1) 
4M2R

>  <PDB ID>  (1) 
4M2R

>  <Generic Name>  (1) 
Brinzolamide

>  <Brand Name>  (1) 
Azarga#Azopt#Sandoz Brinzolamide#Simbrinza

>  <DrugBank ID>  (1) 
DB01194

>  <ATC Codes>  (1) 
S01EC54#S01EC04

>  <Ligand ID>  (1) 
BZ1

>  <Target Name>  (1) 
Carbonic anhydrase 2

>  <UniProt ID>  (1) 
P00918

>  <PDB ID.1>  (1) 
4M2R

>  <Seq. Identity>  (1) 
100%

$$$$
