PDB_DB00696_05
     RDKit          3D

100107  0  0  0  0  0  0  0  0999 V2000
    8.2351    1.4343   -0.2587 C   0  0  0  0  0  0  0  0  0  0  0  0
    8.5477    0.1870   -0.9348 N   0  0  0  0  0  0  0  0  0  0  0  0
    0.8986   -1.6904    1.8725 O   0  0  0  0  0  0  0  0  0  0  0  0
    5.5757   -2.2149    0.4281 C   0  0  0  0  0  0  0  0  0  0  0  0
    6.9327   -2.8956    0.3329 C   0  0  0  0  0  0  0  0  0  0  0  0
    7.9159   -2.1745   -0.5298 C   0  0  0  0  0  0  0  0  0  0  0  0
    7.4683   -0.7400   -0.6675 C   0  0  0  0  0  0  0  0  0  0  0  0
    7.0317   -0.2987    0.7122 C   0  0  0  0  0  0  0  0  0  0  0  0
    3.8017    0.9735   -2.3990 C   0  0  0  0  0  0  0  0  0  0  0  0
    1.0465   -1.1592    0.6099 C   0  0  0  0  0  0  0  0  0  0  0  0
   -0.7426    0.2318   -0.3245 C   0  0  2  0  0  0  0  0  0  0  0  0
   -1.9631   -0.4496    0.3207 C   0  0  0  0  0  0  0  0  0  0  0  0
   -4.1910    0.4307   -0.0293 C   0  0  2  0  0  0  0  0  0  0  0  0
    4.0477    0.0329   -1.2850 N   0  0  0  0  0  0  0  0  0  0  0  0
    6.9185    1.1949    0.4934 C   0  0  0  0  0  0  0  0  0  0  0  0
   -1.0963    1.5493   -0.4410 O   0  0  0  0  0  0  0  0  0  0  0  0
   -4.9105    1.7174    0.0200 C   0  0  0  0  0  0  0  0  0  0  0  0
   -4.9522    3.8332   -0.9421 C   0  0  0  0  0  0  0  0  0  0  0  0
   -4.7616    4.4425    0.4240 C   0  0  0  0  0  0  0  0  0  0  0  0
   -3.4043    3.9218    0.8701 C   0  0  0  0  0  0  0  0  0  0  0  0
   -2.9789    2.9651   -0.1934 C   0  0  1  0  0  0  0  0  0  0  0  0
   -2.2054    1.7962    0.3458 C   0  0  1  0  0  0  0  0  0  0  0  0
   -0.7167   -0.3468   -1.7353 C   0  0  0  0  0  0  0  0  0  0  0  0
   -4.8127   -0.8272    0.3673 C   0  0  0  0  0  0  0  0  0  0  0  0
   -5.9181   -1.4819   -0.3553 C   0  0  0  0  0  0  0  0  0  0  0  0
   -7.1652   -0.7596   -0.5088 C   0  0  0  0  0  0  0  0  0  0  0  0
    5.8019    1.4897   -0.4839 C   0  0  0  0  0  0  0  0  0  0  0  0
    0.4253    0.0589    0.4341 N   0  0  0  0  0  0  0  0  0  0  0  0
   -1.6152   -1.1846    1.4285 O   0  0  0  0  0  0  0  0  0  0  0  0
   -8.3197   -1.6523   -1.0341 C   0  0  0  0  0  0  0  0  0  0  0  0
   -8.5503   -2.7093    0.0127 C   0  0  0  0  0  0  0  0  0  0  0  0
   -7.3052   -3.5815   -0.0324 C   0  0  0  0  0  0  0  0  0  0  0  0
   -6.0810   -2.8464    0.3401 C   0  0  0  0  0  0  0  0  0  0  0  0
    4.5151    0.8132   -0.1748 C   0  0  2  0  0  0  0  0  0  0  0  0
   -2.9029    0.6112    0.6280 N   0  0  0  0  0  0  0  0  0  0  0  0
   -6.2278    1.8380   -0.1248 O   0  0  0  0  0  0  0  0  0  0  0  0
    2.7529   -0.5887   -1.0583 C   0  0  0  0  0  0  0  0  0  0  0  0
   -4.1627    2.6195   -0.8978 N   0  0  0  0  0  0  0  0  0  0  0  0
   -1.6798    2.2615    1.5858 O   0  0  0  0  0  0  0  0  0  0  0  0
    2.5378   -1.1899    0.2693 C   0  0  1  0  0  0  0  0  0  0  0  0
    3.2924   -0.6572    1.4193 C   0  0  0  0  0  0  0  0  0  0  0  0
    4.5817    0.0140    1.1076 C   0  0  1  0  0  0  0  0  0  0  0  0
    5.7404   -0.9293    1.1531 C   0  0  0  0  0  0  0  0  0  0  0  0
    8.0420    2.1979   -1.0645 H   0  0  0  0  0  0  0  0  0  0  0  0
    9.0284    1.7435    0.4258 H   0  0  0  0  0  0  0  0  0  0  0  0
    8.6585    0.3393   -1.9740 H   0  0  0  0  0  0  0  0  0  0  0  0
    0.9684   -1.0044    2.5999 H   0  0  0  0  0  0  0  0  0  0  0  0
    4.9561   -2.8841    1.0900 H   0  0  0  0  0  0  0  0  0  0  0  0
    5.1631   -2.1472   -0.5877 H   0  0  0  0  0  0  0  0  0  0  0  0
    6.7244   -3.8807   -0.1707 H   0  0  0  0  0  0  0  0  0  0  0  0
    7.3465   -3.1618    1.3276 H   0  0  0  0  0  0  0  0  0  0  0  0
    8.9112   -2.2355   -0.0875 H   0  0  0  0  0  0  0  0  0  0  0  0
    7.9471   -2.6010   -1.5716 H   0  0  0  0  0  0  0  0  0  0  0  0
    6.6907   -0.7295   -1.4267 H   0  0  0  0  0  0  0  0  0  0  0  0
    7.8827   -0.5069    1.3815 H   0  0  0  0  0  0  0  0  0  0  0  0
    4.6224    1.6214   -2.6367 H   0  0  0  0  0  0  0  0  0  0  0  0
    3.3539    0.4037   -3.2503 H   0  0  0  0  0  0  0  0  0  0  0  0
    2.9666    1.6301   -2.0262 H   0  0  0  0  0  0  0  0  0  0  0  0
    0.5619   -1.9412   -0.0707 H   0  0  0  0  0  0  0  0  0  0  0  0
   -2.4466   -1.1352   -0.3934 H   0  0  0  0  0  0  0  0  0  0  0  0
   -3.8312    0.3113   -1.1607 H   0  0  0  0  0  0  0  0  0  0  0  0
    6.8619    1.7547    1.4247 H   0  0  0  0  0  0  0  0  0  0  0  0
   -4.6756    2.1170    1.0961 H   0  0  0  0  0  0  0  0  0  0  0  0
   -4.6404    4.4992   -1.7496 H   0  0  0  0  0  0  0  0  0  0  0  0
   -6.0112    3.5107   -1.0328 H   0  0  0  0  0  0  0  0  0  0  0  0
   -5.5809    4.1729    1.0977 H   0  0  0  0  0  0  0  0  0  0  0  0
   -4.7778    5.5454    0.2828 H   0  0  0  0  0  0  0  0  0  0  0  0
   -3.4796    3.5072    1.8785 H   0  0  0  0  0  0  0  0  0  0  0  0
   -2.7277    4.8090    0.8264 H   0  0  0  0  0  0  0  0  0  0  0  0
   -2.3146    3.4991   -0.9439 H   0  0  0  0  0  0  0  0  0  0  0  0
    0.0147    0.0725   -2.4076 H   0  0  0  0  0  0  0  0  0  0  0  0
   -1.7211   -0.0472   -2.1761 H   0  0  0  0  0  0  0  0  0  0  0  0
   -0.7647   -1.4629   -1.7379 H   0  0  0  0  0  0  0  0  0  0  0  0
   -5.1909   -0.6271    1.4676 H   0  0  0  0  0  0  0  0  0  0  0  0
   -4.0012   -1.5986    0.6440 H   0  0  0  0  0  0  0  0  0  0  0  0
   -5.5024   -1.7428   -1.3988 H   0  0  0  0  0  0  0  0  0  0  0  0
   -7.5861   -0.2789    0.3679 H   0  0  0  0  0  0  0  0  0  0  0  0
   -7.0578   -0.0580   -1.3952 H   0  0  0  0  0  0  0  0  0  0  0  0
    6.1967    1.2375   -1.4885 H   0  0  0  0  0  0  0  0  0  0  0  0
    5.6946    2.6147   -0.4827 H   0  0  0  0  0  0  0  0  0  0  0  0
    0.9435    0.9196    0.6893 H   0  0  0  0  0  0  0  0  0  0  0  0
   -1.7115   -0.5694    2.2187 H   0  0  0  0  0  0  0  0  0  0  0  0
   -9.1646   -0.9618   -1.1779 H   0  0  0  0  0  0  0  0  0  0  0  0
   -8.0509   -2.1020   -1.9941 H   0  0  0  0  0  0  0  0  0  0  0  0
   -9.4004   -3.3710   -0.2482 H   0  0  0  0  0  0  0  0  0  0  0  0
   -8.6644   -2.2164    0.9867 H   0  0  0  0  0  0  0  0  0  0  0  0
   -7.4741   -4.3752    0.7322 H   0  0  0  0  0  0  0  0  0  0  0  0
   -7.2811   -4.0563   -1.0220 H   0  0  0  0  0  0  0  0  0  0  0  0
   -5.1876   -3.4345    0.0628 H   0  0  0  0  0  0  0  0  0  0  0  0
   -6.0312   -2.6682    1.4324 H   0  0  0  0  0  0  0  0  0  0  0  0
    3.7425    1.6002   -0.0046 H   0  0  0  0  0  0  0  0  0  0  0  0
   -6.7322    2.1338    0.6953 H   0  0  0  0  0  0  0  0  0  0  0  0
    2.6434   -1.3564   -1.8489 H   0  0  0  0  0  0  0  0  0  0  0  0
    2.0180    0.2199   -1.2974 H   0  0  0  0  0  0  0  0  0  0  0  0
   -0.8705    2.7921    1.3531 H   0  0  0  0  0  0  0  0  0  0  0  0
    2.7619   -2.2978    0.1722 H   0  0  0  0  0  0  0  0  0  0  0  0
    3.4935   -1.4731    2.1618 H   0  0  0  0  0  0  0  0  0  0  0  0
    2.6187    0.0484    1.9918 H   0  0  0  0  0  0  0  0  0  0  0  0
    4.7601    0.7697    1.9143 H   0  0  0  0  0  0  0  0  0  0  0  0
    5.9002   -1.1848    2.2433 H   0  0  0  0  0  0  0  0  0  0  0  0
  1  2  1  0
  4  5  1  0
  5  6  1  0
  2  7  1  0
  6  7  1  0
  7  8  1  0
  3 10  1  0
 11 12  1  0
  9 14  1  0
  1 15  1  0
  8 15  1  0
 11 16  1  0
 13 17  1  0
 18 19  1  0
 19 20  1  0
 20 21  1  0
 16 22  1  0
 21 22  1  0
 11 23  1  0
 13 24  1  0
 24 25  1  0
 25 26  1  0
 15 27  1  0
 10 28  1  0
 11 28  1  1
 12 29  1  0
 26 30  1  0
 30 31  1  0
 31 32  1  0
 25 33  1  0
 32 33  1  0
 14 34  1  0
 27 34  1  0
 12 35  1  0
 13 35  1  0
 22 35  1  0
 17 36  1  0
 14 37  1  0
 17 38  1  0
 18 38  1  0
 21 38  1  0
 22 39  1  1
 10 40  1  0
 37 40  1  0
 40 41  1  0
 34 42  1  0
 41 42  1  0
  4 43  1  0
  8 43  1  0
 42 43  1  0
  1 44  1  0
  1 45  1  0
  2 46  1  0
  3 47  1  0
  4 48  1  0
  4 49  1  0
  5 50  1  0
  5 51  1  0
  6 52  1  0
  6 53  1  0
  7 54  1  0
  8 55  1  0
  9 56  1  0
  9 57  1  0
  9 58  1  0
 10 59  1  0
 12 60  1  0
 13 61  1  6
 15 62  1  0
 17 63  1  0
 18 64  1  0
 18 65  1  0
 19 66  1  0
 19 67  1  0
 20 68  1  0
 20 69  1  0
 21 70  1  6
 23 71  1  0
 23 72  1  0
 23 73  1  0
 24 74  1  0
 24 75  1  0
 25 76  1  0
 26 77  1  0
 26 78  1  0
 27 79  1  0
 27 80  1  0
 28 81  1  0
 29 82  1  0
 30 83  1  0
 30 84  1  0
 31 85  1  0
 31 86  1  0
 32 87  1  0
 32 88  1  0
 33 89  1  0
 33 90  1  0
 34 91  1  1
 36 92  1  0
 37 93  1  0
 37 94  1  0
 39 95  1  0
 40 96  1  6
 41 97  1  0
 41 98  1  0
 42 99  1  1
 43100  1  0
M  END
>  <PDBID>  (1) 
4IB4

>  <PDB ID>  (1) 
4IB4

>  <Generic Name>  (1) 
Ergotamine

>  <Brand Name>  (1) 
Cafergot#Cafergot Sup#Cafergot Tab#Ergodryl Cap#Ergomar#Ergomar Slt 2mg#Ergomar Sublingual#Ergotamine#Ergotamine Tartrate and Caffeine#Gravergol Capsules#Megral Tabs#Migergot#Anervan#Antimigraine#Enxak#Ergam#Ergo-Kranit#Gynaemine#Wigrettes

>  <DrugBank ID>  (1) 
DB00696

>  <ATC Codes>  (1) 
N02CA52#N02CA72#N02CA02

>  <Ligand ID>  (1) 
ERM

>  <Target Name>  (1) 
5-hydroxytryptamine receptor 2A

>  <UniProt ID>  (1) 
P28223

>  <PDB ID.1>  (1) 
4IB4

>  <Seq. Identity>  (1) 
58%

$$$$
