PDB_DB13139_07
     RDKit          3D

 88 88  0  0  0  0  0  0  0  0999 V2000
   -4.8245   -1.0724   -1.7068 O   0  0  0  0  0  0  0  0  0  0  0  0
   -3.5842   -1.4319   -1.1943 C   0  0  0  0  0  0  0  0  0  0  0  0
   -2.9721   -0.2056   -0.5046 C   0  0  0  0  0  0  0  0  0  0  0  0
   -3.9006    0.2064    0.5848 C   0  0  0  0  0  0  0  0  0  0  0  0
   -4.8427    1.0830   -0.0008 O   0  0  0  0  0  0  0  0  0  0  0  0
   -3.2605    0.8981    1.7447 C   0  0  0  0  0  0  0  0  0  0  0  0
   -1.9456    1.4871    1.2722 C   0  0  0  0  0  0  0  0  0  0  0  0
   -1.5943   -0.5868   -0.0760 C   0  0  0  0  0  0  0  0  0  0  0  0
   -1.0034    0.3276    0.9625 C   0  0  0  0  0  0  0  0  0  0  0  0
    0.3245    0.9173    0.5427 C   0  0  1  0  0  0  0  0  0  0  0  0
    0.7643    1.6817    1.6227 O   0  0  0  0  0  0  0  0  0  0  0  0
    1.3496   -0.1669    0.2041 C   0  0  0  0  0  0  0  0  0  0  0  0
    2.5715    0.5255   -0.1250 N   0  0  0  0  0  0  0  0  0  0  0  0
    3.6576   -0.3584   -0.4657 C   0  0  0  0  0  0  0  0  0  0  0  0
    4.0583   -1.2610    0.6836 C   0  0  0  0  0  0  0  0  0  0  0  0
    4.8566    0.5010   -0.8038 C   0  0  0  0  0  0  0  0  0  0  0  0
    3.3655   -1.2220   -1.6633 C   0  0  0  0  0  0  0  0  0  0  0  0
   -4.8245   -1.0724   -1.7068 O   0  0  0  0  0  0  0  0  0  0  0  0
   -3.5842   -1.4319   -1.1943 C   0  0  0  0  0  0  0  0  0  0  0  0
   -2.9721   -0.2056   -0.5046 C   0  0  0  0  0  0  0  0  0  0  0  0
   -3.9006    0.2064    0.5848 C   0  0  0  0  0  0  0  0  0  0  0  0
   -4.8427    1.0830   -0.0008 O   0  0  0  0  0  0  0  0  0  0  0  0
   -3.2605    0.8981    1.7447 C   0  0  0  0  0  0  0  0  0  0  0  0
   -1.9456    1.4871    1.2722 C   0  0  0  0  0  0  0  0  0  0  0  0
   -1.5943   -0.5868   -0.0760 C   0  0  0  0  0  0  0  0  0  0  0  0
   -1.0034    0.3276    0.9625 C   0  0  0  0  0  0  0  0  0  0  0  0
    0.3245    0.9173    0.5427 C   0  0  1  0  0  0  0  0  0  0  0  0
    0.7643    1.6817    1.6227 O   0  0  0  0  0  0  0  0  0  0  0  0
    1.3496   -0.1669    0.2041 C   0  0  0  0  0  0  0  0  0  0  0  0
    2.5715    0.5255   -0.1250 N   0  0  0  0  0  0  0  0  0  0  0  0
    3.6576   -0.3584   -0.4657 C   0  0  0  0  0  0  0  0  0  0  0  0
    4.0583   -1.2610    0.6836 C   0  0  0  0  0  0  0  0  0  0  0  0
    4.8566    0.5010   -0.8038 C   0  0  0  0  0  0  0  0  0  0  0  0
    3.3655   -1.2220   -1.6633 C   0  0  0  0  0  0  0  0  0  0  0  0
   -4.8233   -0.1528   -2.0929 H   0  0  0  0  0  0  0  0  0  0  0  0
   -2.8962   -1.8276   -1.9572 H   0  0  0  0  0  0  0  0  0  0  0  0
   -3.7674   -2.1651   -0.3723 H   0  0  0  0  0  0  0  0  0  0  0  0
   -2.8912    0.5681   -1.3190 H   0  0  0  0  0  0  0  0  0  0  0  0
   -4.5256   -0.6449    0.9779 H   0  0  0  0  0  0  0  0  0  0  0  0
   -4.5126    2.0181    0.0104 H   0  0  0  0  0  0  0  0  0  0  0  0
   -3.1137    0.1932    2.5917 H   0  0  0  0  0  0  0  0  0  0  0  0
   -3.9127    1.7246    2.0739 H   0  0  0  0  0  0  0  0  0  0  0  0
   -2.1446    1.9968    0.3096 H   0  0  0  0  0  0  0  0  0  0  0  0
   -1.5087    2.1618    2.0085 H   0  0  0  0  0  0  0  0  0  0  0  0
   -0.9513   -0.5296   -0.9923 H   0  0  0  0  0  0  0  0  0  0  0  0
   -1.5781   -1.6570    0.2464 H   0  0  0  0  0  0  0  0  0  0  0  0
   -0.9029   -0.2499    1.9042 H   0  0  0  0  0  0  0  0  0  0  0  0
    0.1964    1.5766   -0.3148 H   0  0  0  0  0  0  0  0  0  0  0  0
    1.0118    2.6022    1.3582 H   0  0  0  0  0  0  0  0  0  0  0  0
    1.4842   -0.7688    1.1319 H   0  0  0  0  0  0  0  0  0  0  0  0
    0.9988   -0.8394   -0.5704 H   0  0  0  0  0  0  0  0  0  0  0  0
    2.8909    1.1677    0.6077 H   0  0  0  0  0  0  0  0  0  0  0  0
    3.2549   -1.9737    0.9571 H   0  0  0  0  0  0  0  0  0  0  0  0
    4.9664   -1.8013    0.3775 H   0  0  0  0  0  0  0  0  0  0  0  0
    4.3475   -0.6106    1.5375 H   0  0  0  0  0  0  0  0  0  0  0  0
    5.2048    0.9761    0.1576 H   0  0  0  0  0  0  0  0  0  0  0  0
    5.6411   -0.0780   -1.2971 H   0  0  0  0  0  0  0  0  0  0  0  0
    4.4805    1.3413   -1.4391 H   0  0  0  0  0  0  0  0  0  0  0  0
    3.0071   -2.2090   -1.3177 H   0  0  0  0  0  0  0  0  0  0  0  0
    4.3282   -1.4103   -2.1927 H   0  0  0  0  0  0  0  0  0  0  0  0
    2.6957   -0.7313   -2.3932 H   0  0  0  0  0  0  0  0  0  0  0  0
   -4.8233   -0.1528   -2.0929 H   0  0  0  0  0  0  0  0  0  0  0  0
   -2.8962   -1.8276   -1.9572 H   0  0  0  0  0  0  0  0  0  0  0  0
   -3.7674   -2.1651   -0.3723 H   0  0  0  0  0  0  0  0  0  0  0  0
   -2.8912    0.5681   -1.3190 H   0  0  0  0  0  0  0  0  0  0  0  0
   -4.5256   -0.6449    0.9779 H   0  0  0  0  0  0  0  0  0  0  0  0
   -4.5126    2.0181    0.0104 H   0  0  0  0  0  0  0  0  0  0  0  0
   -3.1137    0.1932    2.5917 H   0  0  0  0  0  0  0  0  0  0  0  0
   -3.9127    1.7246    2.0739 H   0  0  0  0  0  0  0  0  0  0  0  0
   -2.1446    1.9968    0.3096 H   0  0  0  0  0  0  0  0  0  0  0  0
   -1.5087    2.1618    2.0085 H   0  0  0  0  0  0  0  0  0  0  0  0
   -0.9513   -0.5296   -0.9923 H   0  0  0  0  0  0  0  0  0  0  0  0
   -1.5781   -1.6570    0.2464 H   0  0  0  0  0  0  0  0  0  0  0  0
   -0.9029   -0.2499    1.9042 H   0  0  0  0  0  0  0  0  0  0  0  0
    0.1964    1.5766   -0.3148 H   0  0  0  0  0  0  0  0  0  0  0  0
    1.0118    2.6022    1.3582 H   0  0  0  0  0  0  0  0  0  0  0  0
    1.4842   -0.7688    1.1319 H   0  0  0  0  0  0  0  0  0  0  0  0
    0.9988   -0.8394   -0.5704 H   0  0  0  0  0  0  0  0  0  0  0  0
    2.8909    1.1677    0.6077 H   0  0  0  0  0  0  0  0  0  0  0  0
    3.2549   -1.9737    0.9571 H   0  0  0  0  0  0  0  0  0  0  0  0
    4.9664   -1.8013    0.3775 H   0  0  0  0  0  0  0  0  0  0  0  0
    4.3475   -0.6106    1.5375 H   0  0  0  0  0  0  0  0  0  0  0  0
    5.2048    0.9761    0.1576 H   0  0  0  0  0  0  0  0  0  0  0  0
    5.6411   -0.0780   -1.2971 H   0  0  0  0  0  0  0  0  0  0  0  0
    4.4805    1.3413   -1.4391 H   0  0  0  0  0  0  0  0  0  0  0  0
    3.0071   -2.2090   -1.3177 H   0  0  0  0  0  0  0  0  0  0  0  0
    4.3282   -1.4103   -2.1927 H   0  0  0  0  0  0  0  0  0  0  0  0
    2.6957   -0.7313   -2.3932 H   0  0  0  0  0  0  0  0  0  0  0  0
  1  2  1  0
  2  3  1  0
  3  4  1  0
  4  5  1  0
  4  6  1  0
  6  7  1  0
  3  8  1  0
  7  9  1  0
  8  9  1  0
  9 10  1  0
 10 11  1  0
 10 12  1  0
 12 13  1  0
 14 13  1  0
 14 15  1  0
 14 16  1  0
 14 17  1  0
 18 19  1  0
 19 20  1  0
 20 21  1  0
 21 22  1  0
 21 23  1  0
 23 24  1  0
 20 25  1  0
 24 26  1  0
 25 26  1  0
 26 27  1  0
 27 28  1  0
 27 29  1  0
 29 30  1  0
 31 30  1  0
 31 32  1  0
 31 33  1  0
 31 34  1  0
  1 35  1  0
  2 36  1  0
  2 37  1  0
  3 38  1  0
  4 39  1  0
  5 40  1  0
  6 41  1  0
  6 42  1  0
  7 43  1  0
  7 44  1  0
  8 45  1  0
  8 46  1  0
  9 47  1  0
 10 48  1  6
 11 49  1  0
 12 50  1  0
 12 51  1  0
 13 52  1  0
 15 53  1  0
 15 54  1  0
 15 55  1  0
 16 56  1  0
 16 57  1  0
 16 58  1  0
 17 59  1  0
 17 60  1  0
 17 61  1  0
 18 62  1  0
 19 63  1  0
 19 64  1  0
 20 65  1  0
 21 66  1  0
 22 67  1  0
 23 68  1  0
 23 69  1  0
 24 70  1  0
 24 71  1  0
 25 72  1  0
 25 73  1  0
 26 74  1  0
 27 75  1  6
 28 76  1  0
 29 77  1  0
 29 78  1  0
 30 79  1  0
 32 80  1  0
 32 81  1  0
 32 82  1  0
 33 83  1  0
 33 84  1  0
 33 85  1  0
 34 86  1  0
 34 87  1  0
 34 88  1  0
M  END
>  <PDBID>  (1) 
2Y04

>  <PDB ID>  (1) 
2Y04

>  <Generic Name>  (1) 
Levosalbutamol

>  <Brand Name>  (1) 
Levalbuterol#Levalbuterol Hydrochloride#Xopenex

>  <DrugBank ID>  (1) 
DB13139

>  <ATC Codes>  (1) 
nan

>  <Ligand ID>  (1) 
68H

>  <Target Name>  (1) 
Beta-2 adrenergic receptor

>  <UniProt ID>  (1) 
P07550

>  <PDB ID.1>  (1) 
2Y04

>  <Seq. Identity>  (1) 
58%

$$$$
