PDB_DB01263_00
     RDKit          3D

119125  0  0  0  0  0  0  0  0999 V2000
   13.3933    0.0867    0.1595 C   0  0  0  0  0  0  0  0  0  0  0  0
   10.1195    1.6506    2.1137 C   0  0  0  0  0  0  0  0  0  0  0  0
    7.8599    1.6276   -1.2007 O   0  0  0  0  0  0  0  0  0  0  0  0
   11.5130    2.9132    0.5809 O   0  0  0  0  0  0  0  0  0  0  0  0
   -8.4652    0.7221    3.6609 F   0  0  0  0  0  0  0  0  0  0  0  0
  -12.3803   -0.9979    4.1233 F   0  0  0  0  0  0  0  0  0  0  0  0
  -10.0706   -0.9189    3.9419 C   0  0  0  0  0  0  0  0  0  0  0  0
   -2.5820   -0.3478   -1.4491 C   0  0  0  0  0  0  0  0  0  0  0  0
   -1.9754    1.9562   -0.8534 C   0  0  0  0  0  0  0  0  0  0  0  0
   -1.5166   -0.7001   -0.4107 C   0  0  0  0  0  0  0  0  0  0  0  0
   -0.6684    1.3474   -1.3773 C   0  0  0  0  0  0  0  0  0  0  0  0
    5.6073   -0.6288    0.3874 C   0  0  0  0  0  0  0  0  0  0  0  0
    5.4957   -1.7078   -1.7838 C   0  0  0  0  0  0  0  0  0  0  0  0
    6.9362   -1.3354    0.6573 C   0  0  0  0  0  0  0  0  0  0  0  0
    6.7751   -2.4822   -1.4881 C   0  0  0  0  0  0  0  0  0  0  0  0
  -11.3490   -0.9177    3.1753 C   0  0  0  0  0  0  0  0  0  0  0  0
  -10.5272   -1.0825   -3.1101 C   0  0  0  0  0  0  0  0  0  0  0  0
   -9.3328   -0.2500    1.7045 C   0  0  1  0  0  0  0  0  0  0  0  0
  -10.5578   -1.5897   -0.9080 C   0  0  0  0  0  0  0  0  0  0  0  0
    9.5109   -1.0800   -1.8954 C   0  0  0  0  0  0  0  0  0  0  0  0
   12.3215    0.5269   -0.8118 C   0  0  0  0  0  0  0  0  0  0  0  0
   -7.4716    1.2633    0.9878 C   0  0  0  0  0  0  0  0  0  0  0  0
    1.8527    0.5748   -1.1689 C   0  0  0  0  0  0  0  0  0  0  0  0
    1.3781   -0.9767    0.5965 C   0  0  0  0  0  0  0  0  0  0  0  0
    3.2606    0.0715   -1.3283 C   0  0  0  0  0  0  0  0  0  0  0  0
    2.8821   -0.9080    0.7333 C   0  0  0  0  0  0  0  0  0  0  0  0
   -5.2152    1.1971   -0.1158 C   0  0  0  0  0  0  0  0  0  0  0  0
   -8.7585    0.0753   -0.6808 C   0  0  0  0  0  0  0  0  0  0  0  0
  -11.2056   -1.9571   -2.2024 N   0  0  0  0  0  0  0  0  0  0  0  0
   -9.1353   -1.1379   -2.6442 N   0  0  0  0  0  0  0  0  0  0  0  0
   10.2682    0.1421   -2.1209 N   0  0  0  0  0  0  0  0  0  0  0  0
   -3.8887    0.8065    0.0849 O   0  0  0  0  0  0  0  0  0  0  0  0
   -7.3016   -1.0400    0.7388 O   0  0  0  0  0  0  0  0  0  0  0  0
   -8.8602   -0.4812    3.1370 C   0  0  0  0  0  0  0  0  0  0  0  0
  -10.3207    0.8968    1.7947 C   0  0  0  0  0  0  0  0  0  0  0  0
   -3.1261    1.0212   -1.0660 C   0  0  0  0  0  0  0  0  0  0  0  0
   -0.3372    0.2287   -0.4438 C   0  0  0  0  0  0  0  0  0  0  0  0
    4.7858   -1.5601   -0.4397 C   0  0  0  0  0  0  0  0  0  0  0  0
    7.6967   -1.6631   -0.5733 C   0  0  0  0  0  0  0  0  0  0  0  0
  -11.6143    0.3192    2.3765 C   0  0  0  0  0  0  0  0  0  0  0  0
    8.6526    0.5802   -0.6476 C   0  0  0  0  0  0  0  0  0  0  0  0
   11.2050    1.6482    1.0616 C   0  0  2  0  0  0  0  0  0  0  0  0
   11.0067    0.6410   -0.0191 C   0  0  1  0  0  0  0  0  0  0  0  0
    0.9269   -0.4111   -0.6612 N   0  0  0  0  0  0  0  0  0  0  0  0
    3.4092   -1.1711   -0.6134 N   0  0  0  0  0  0  0  0  0  0  0  0
   -9.3152   -1.0521   -1.2722 N   0  0  0  0  0  0  0  0  0  0  0  0
    8.2341   -0.6068   -1.3362 N   0  0  0  0  0  0  0  0  0  0  0  0
    9.9928    0.9038   -0.9708 N   0  0  0  0  0  0  0  0  0  0  0  0
   -8.2501   -0.0190    0.7285 C   0  0  2  0  0  0  0  0  0  0  0  0
   -6.1474   -0.6225    1.3150 C   0  0  0  0  0  0  0  0  0  0  0  0
   -6.0429    0.8750    1.1164 C   0  0  2  0  0  0  0  0  0  0  0  0
   12.9732   -0.5273    0.9745 H   0  0  0  0  0  0  0  0  0  0  0  0
   13.8954    0.9668    0.6401 H   0  0  0  0  0  0  0  0  0  0  0  0
   14.1991   -0.4745   -0.3939 H   0  0  0  0  0  0  0  0  0  0  0  0
    9.2629    2.3031    1.8514 H   0  0  0  0  0  0  0  0  0  0  0  0
   10.5101    2.1049    3.0789 H   0  0  0  0  0  0  0  0  0  0  0  0
    9.7818    0.6270    2.3641 H   0  0  0  0  0  0  0  0  0  0  0  0
    7.8778    1.5792   -2.1917 H   0  0  0  0  0  0  0  0  0  0  0  0
   10.6533    3.4170    0.5203 H   0  0  0  0  0  0  0  0  0  0  0  0
   -9.9115   -1.9662    4.3042 H   0  0  0  0  0  0  0  0  0  0  0  0
  -10.2025   -0.3028    4.8687 H   0  0  0  0  0  0  0  0  0  0  0  0
   -2.2289   -0.4142   -2.4776 H   0  0  0  0  0  0  0  0  0  0  0  0
   -3.3927   -1.1202   -1.2935 H   0  0  0  0  0  0  0  0  0  0  0  0
   -1.8344    2.2170    0.2015 H   0  0  0  0  0  0  0  0  0  0  0  0
   -2.1420    2.8893   -1.4485 H   0  0  0  0  0  0  0  0  0  0  0  0
   -1.2419   -1.7502   -0.6354 H   0  0  0  0  0  0  0  0  0  0  0  0
   -2.0234   -0.7014    0.5725 H   0  0  0  0  0  0  0  0  0  0  0  0
    0.0822    2.1506   -1.3558 H   0  0  0  0  0  0  0  0  0  0  0  0
   -0.7804    1.0307   -2.4309 H   0  0  0  0  0  0  0  0  0  0  0  0
    5.7414    0.3032   -0.1534 H   0  0  0  0  0  0  0  0  0  0  0  0
    5.1805   -0.4122    1.3824 H   0  0  0  0  0  0  0  0  0  0  0  0
    4.8988   -2.3264   -2.4712 H   0  0  0  0  0  0  0  0  0  0  0  0
    5.6885   -0.6994   -2.1803 H   0  0  0  0  0  0  0  0  0  0  0  0
    7.5002   -0.8655    1.4681 H   0  0  0  0  0  0  0  0  0  0  0  0
    6.6055   -2.3343    1.0840 H   0  0  0  0  0  0  0  0  0  0  0  0
    7.3351   -2.7069   -2.4077 H   0  0  0  0  0  0  0  0  0  0  0  0
    6.4433   -3.3936   -0.9400 H   0  0  0  0  0  0  0  0  0  0  0  0
  -11.4689   -1.8523    2.5627 H   0  0  0  0  0  0  0  0  0  0  0  0
  -10.8622   -0.0331   -2.9474 H   0  0  0  0  0  0  0  0  0  0  0  0
  -10.6103   -1.3837   -4.1750 H   0  0  0  0  0  0  0  0  0  0  0  0
   -9.9130   -1.1452    1.4216 H   0  0  0  0  0  0  0  0  0  0  0  0
  -10.4913   -2.5436   -0.3098 H   0  0  0  0  0  0  0  0  0  0  0  0
  -11.2859   -0.9088   -0.4416 H   0  0  0  0  0  0  0  0  0  0  0  0
   10.0281   -1.7625   -1.1943 H   0  0  0  0  0  0  0  0  0  0  0  0
    9.3188   -1.6219   -2.8390 H   0  0  0  0  0  0  0  0  0  0  0  0
   12.1989   -0.2674   -1.5614 H   0  0  0  0  0  0  0  0  0  0  0  0
   12.5947    1.5057   -1.2458 H   0  0  0  0  0  0  0  0  0  0  0  0
   -7.5453    1.9559    0.1085 H   0  0  0  0  0  0  0  0  0  0  0  0
   -7.8135    1.8296    1.8513 H   0  0  0  0  0  0  0  0  0  0  0  0
    1.7872    1.4635   -0.5009 H   0  0  0  0  0  0  0  0  0  0  0  0
    1.4835    0.8889   -2.1669 H   0  0  0  0  0  0  0  0  0  0  0  0
    1.1115   -2.0502    0.5793 H   0  0  0  0  0  0  0  0  0  0  0  0
    0.9494   -0.4083    1.4366 H   0  0  0  0  0  0  0  0  0  0  0  0
    3.6252    0.0511   -2.3594 H   0  0  0  0  0  0  0  0  0  0  0  0
    3.9110    0.8281   -0.7959 H   0  0  0  0  0  0  0  0  0  0  0  0
    3.2926   -1.6855    1.4013 H   0  0  0  0  0  0  0  0  0  0  0  0
    3.2194    0.0791    1.1103 H   0  0  0  0  0  0  0  0  0  0  0  0
   -5.1751    2.3136   -0.1823 H   0  0  0  0  0  0  0  0  0  0  0  0
   -5.6205    0.8308   -1.0503 H   0  0  0  0  0  0  0  0  0  0  0  0
   -7.9184    0.4392   -1.3708 H   0  0  0  0  0  0  0  0  0  0  0  0
   -9.5044    0.9307   -0.7725 H   0  0  0  0  0  0  0  0  0  0  0  0
  -11.0105   -2.9515   -2.4091 H   0  0  0  0  0  0  0  0  0  0  0  0
   -8.7873   -2.1112   -2.8649 H   0  0  0  0  0  0  0  0  0  0  0  0
    9.9994    0.6093   -2.9994 H   0  0  0  0  0  0  0  0  0  0  0  0
   -8.0968   -1.2799    3.1884 H   0  0  0  0  0  0  0  0  0  0  0  0
   -9.9299    1.5841    2.6062 H   0  0  0  0  0  0  0  0  0  0  0  0
  -10.4784    1.4506    0.8758 H   0  0  0  0  0  0  0  0  0  0  0  0
   -3.8147    1.4352   -1.8440 H   0  0  0  0  0  0  0  0  0  0  0  0
   -0.2662    0.6979    0.5822 H   0  0  0  0  0  0  0  0  0  0  0  0
    4.8095   -2.5647    0.0293 H   0  0  0  0  0  0  0  0  0  0  0  0
    8.4748   -2.4253   -0.2599 H   0  0  0  0  0  0  0  0  0  0  0  0
  -12.1844    1.0583    2.9578 H   0  0  0  0  0  0  0  0  0  0  0  0
  -12.2549    0.0338    1.5098 H   0  0  0  0  0  0  0  0  0  0  0  0
    8.4318    0.5985    0.4105 H   0  0  0  0  0  0  0  0  0  0  0  0
   12.1435    1.3360    1.6309 H   0  0  0  0  0  0  0  0  0  0  0  0
   10.9158   -0.3597    0.4811 H   0  0  0  0  0  0  0  0  0  0  0  0
   -5.2984   -1.0658    0.7033 H   0  0  0  0  0  0  0  0  0  0  0  0
   -5.9419   -0.9378    2.3376 H   0  0  0  0  0  0  0  0  0  0  0  0
   -5.5622    1.3141    1.9927 H   0  0  0  0  0  0  0  0  0  0  0  0
  8 10  1  0
  9 11  1  0
 12 14  1  0
 13 15  1  0
  6 16  1  0
  7 16  1  0
  1 21  1  0
 23 25  1  0
 24 26  1  0
 17 29  1  0
 19 29  1  0
 17 30  1  0
 20 31  1  0
 27 32  1  0
  5 34  1  0
  7 34  1  0
 18 34  1  0
 18 35  1  0
  8 36  1  0
  9 36  1  0
 32 36  1  0
 10 37  1  0
 11 37  1  0
 12 38  1  0
 13 38  1  0
 14 39  1  0
 15 39  1  0
 16 40  1  0
 35 40  1  0
  3 41  1  0
  2 42  1  0
  4 42  1  0
 21 43  1  0
 42 43  1  0
 23 44  1  0
 24 44  1  0
 37 44  1  0
 25 45  1  0
 26 45  1  0
 38 45  1  0
 19 46  1  0
 28 46  1  0
 30 46  1  0
 20 47  1  0
 39 47  1  0
 41 47  1  0
 31 48  1  0
 41 48  1  0
 43 48  1  0
 18 49  1  0
 22 49  1  0
 49 28  1  6
 33 49  1  0
 33 50  1  0
 22 51  1  0
 27 51  1  0
 50 51  1  0
  1 52  1  0
  1 53  1  0
  1 54  1  0
  2 55  1  0
  2 56  1  0
  2 57  1  0
  3 58  1  0
  4 59  1  0
  7 60  1  0
  7 61  1  0
  8 62  1  0
  8 63  1  0
  9 64  1  0
  9 65  1  0
 10 66  1  0
 10 67  1  0
 11 68  1  0
 11 69  1  0
 12 70  1  0
 12 71  1  0
 13 72  1  0
 13 73  1  0
 14 74  1  0
 14 75  1  0
 15 76  1  0
 15 77  1  0
 16 78  1  0
 17 79  1  0
 17 80  1  0
 18 81  1  6
 19 82  1  0
 19 83  1  0
 20 84  1  0
 20 85  1  0
 21 86  1  0
 21 87  1  0
 22 88  1  0
 22 89  1  0
 23 90  1  0
 23 91  1  0
 24 92  1  0
 24 93  1  0
 25 94  1  0
 25 95  1  0
 26 96  1  0
 26 97  1  0
 27 98  1  0
 27 99  1  0
 28100  1  0
 28101  1  0
 29102  1  0
 30103  1  0
 31104  1  0
 34105  1  0
 35106  1  0
 35107  1  0
 36108  1  0
 37109  1  0
 38110  1  0
 39111  1  0
 40112  1  0
 40113  1  0
 41114  1  0
 42115  1  1
 43116  1  1
 50117  1  0
 50118  1  0
 51119  1  1
M  END
>  <PDBID>  (1) 
4ZE1

>  <PDB ID>  (1) 
4ZE1

>  <Generic Name>  (1) 
Posaconazole

>  <Brand Name>  (1) 
Noxafil#Posanol

>  <DrugBank ID>  (1) 
DB01263

>  <ATC Codes>  (1) 
J02AC04

>  <Ligand ID>  (1) 
X2N

>  <Target Name>  (1) 
Lanosterol 14-alpha demethylase

>  <UniProt ID>  (1) 
P10613

>  <PDB ID.1>  (1) 
4ZE1

>  <Seq. Identity>  (1) 
65%

$$$$
