PDB_DB00755_04
     RDKit          3D

124124  0  0  0  0  0  0  0  0999 V2000
   -4.1784    0.9746   -0.2245 C   0  0  0  0  0  0  0  0  0  0  0  0
   -5.3531    0.8571   -1.1378 C   0  0  0  0  0  0  0  0  0  0  0  0
   -5.8646   -0.5612   -1.2425 C   0  0  0  0  0  0  0  0  0  0  0  0
   -4.8104   -1.5556   -1.5437 C   0  0  0  0  0  0  0  0  0  0  0  0
   -3.4780   -1.3473   -0.9071 C   0  0  0  0  0  0  0  0  0  0  0  0
   -3.0810    0.0813   -0.7673 C   0  0  0  0  0  0  0  0  0  0  0  0
   -1.7844    0.2864   -0.0553 C   0  0  0  0  0  0  0  0  0  0  0  0
   -0.7378   -0.6233   -0.6378 C   0  0  0  0  0  0  0  0  0  0  0  0
    0.6231   -0.4758    0.0186 C   0  0  1  0  0  0  0  0  0  0  0  0
    1.1384    0.9182   -0.1308 C   0  0  0  0  0  0  0  0  0  0  0  0
    2.4982    1.1081    0.5071 C   0  0  0  0  0  0  0  0  0  0  0  0
    3.5149    0.2087   -0.1048 C   0  0  0  0  0  0  0  0  0  0  0  0
    4.9029    0.3363    0.4808 C   0  0  0  0  0  0  0  0  0  0  0  0
    5.7758   -0.6496   -0.2594 C   0  0  0  0  0  0  0  0  0  0  0  0
    7.1925   -0.6460    0.2156 C   0  0  0  0  0  0  0  0  0  0  0  0
   -4.5794    0.6435    1.1701 C   0  0  0  0  0  0  0  0  0  0  0  0
   -3.6641    2.3894   -0.2603 C   0  0  0  0  0  0  0  0  0  0  0  0
   -3.3425   -2.1421    0.3737 C   0  0  0  0  0  0  0  0  0  0  0  0
    0.6316   -0.9675    1.4294 C   0  0  0  0  0  0  0  0  0  0  0  0
    5.4618    1.7177    0.4312 C   0  0  0  0  0  0  0  0  0  0  0  0
    7.7897    0.5795    0.0582 O   0  0  0  0  0  0  0  0  0  0  0  0
    7.9458   -1.6242   -0.4510 O   0  0  0  0  0  0  0  0  0  0  0  0
   -4.2255   -0.3964    0.5706 C   0  0  0  0  0  0  0  0  0  0  0  0
   -4.7406   -0.7836   -0.7778 C   0  0  0  0  0  0  0  0  0  0  0  0
   -4.2540    0.0521   -1.9213 C   0  0  0  0  0  0  0  0  0  0  0  0
   -4.4309    1.4771   -1.4831 C   0  0  0  0  0  0  0  0  0  0  0  0
   -3.3771    1.7575   -0.4479 C   0  0  0  0  0  0  0  0  0  0  0  0
   -3.2640    0.7334    0.6231 C   0  0  0  0  0  0  0  0  0  0  0  0
   -1.8020    0.3774    0.8040 C   0  0  0  0  0  0  0  0  0  0  0  0
   -1.1906   -0.4564   -0.2155 C   0  0  0  0  0  0  0  0  0  0  0  0
    0.2844   -0.7346    0.2231 C   0  0  0  0  0  0  0  0  0  0  0  0
    1.0659    0.4912    0.3470 C   0  0  0  0  0  0  0  0  0  0  0  0
    2.4692    0.3825    0.8157 C   0  0  0  0  0  0  0  0  0  0  0  0
    3.4316   -0.3942    0.0215 C   0  0  0  0  0  0  0  0  0  0  0  0
    4.8591   -0.2750    0.6905 C   0  0  0  0  0  0  0  0  0  0  0  0
    5.7410   -1.0934   -0.1820 C   0  0  0  0  0  0  0  0  0  0  0  0
    7.1700   -1.1900    0.2015 C   0  0  0  0  0  0  0  0  0  0  0  0
   -5.4938   -0.0189    1.3784 C   0  0  0  0  0  0  0  0  0  0  0  0
   -3.7419   -1.6657    1.2321 C   0  0  0  0  0  0  0  0  0  0  0  0
   -3.6575    3.1566    0.0722 C   0  0  0  0  0  0  0  0  0  0  0  0
    0.8421   -1.7060   -0.8055 C   0  0  0  0  0  0  0  0  0  0  0  0
    5.1510    1.1847    0.7407 C   0  0  0  0  0  0  0  0  0  0  0  0
    7.8840   -0.0302    0.2582 O   0  0  0  0  0  0  0  0  0  0  0  0
    7.7730   -2.1302   -0.6700 O   0  0  0  0  0  0  0  0  0  0  0  0
   -5.0852    1.2912   -2.1130 H   0  0  0  0  0  0  0  0  0  0  0  0
   -6.1935    1.4662   -0.7222 H   0  0  0  0  0  0  0  0  0  0  0  0
   -6.5986   -0.5676   -2.0931 H   0  0  0  0  0  0  0  0  0  0  0  0
   -6.4637   -0.7805   -0.3363 H   0  0  0  0  0  0  0  0  0  0  0  0
   -5.1848   -2.5590   -1.1815 H   0  0  0  0  0  0  0  0  0  0  0  0
   -4.7150   -1.7092   -2.6590 H   0  0  0  0  0  0  0  0  0  0  0  0
   -2.7404   -1.8151   -1.6298 H   0  0  0  0  0  0  0  0  0  0  0  0
   -2.9110    0.4594   -1.8233 H   0  0  0  0  0  0  0  0  0  0  0  0
   -1.4385    1.3416   -0.2577 H   0  0  0  0  0  0  0  0  0  0  0  0
   -1.8603    0.2062    1.0430 H   0  0  0  0  0  0  0  0  0  0  0  0
   -0.6357   -0.4351   -1.7252 H   0  0  0  0  0  0  0  0  0  0  0  0
   -1.1068   -1.6698   -0.5312 H   0  0  0  0  0  0  0  0  0  0  0  0
    1.2945   -1.1503   -0.5901 H   0  0  0  0  0  0  0  0  0  0  0  0
    0.4415    1.6235    0.3767 H   0  0  0  0  0  0  0  0  0  0  0  0
    1.1554    1.1780   -1.2032 H   0  0  0  0  0  0  0  0  0  0  0  0
    2.3514    0.9121    1.6000 H   0  0  0  0  0  0  0  0  0  0  0  0
    2.7266    2.1798    0.4223 H   0  0  0  0  0  0  0  0  0  0  0  0
    3.5575    0.4324   -1.1964 H   0  0  0  0  0  0  0  0  0  0  0  0
    3.2071   -0.8367   -0.0071 H   0  0  0  0  0  0  0  0  0  0  0  0
    4.8633    0.0349    1.5616 H   0  0  0  0  0  0  0  0  0  0  0  0
    5.7506   -0.4036   -1.3592 H   0  0  0  0  0  0  0  0  0  0  0  0
    5.3652   -1.6841   -0.2004 H   0  0  0  0  0  0  0  0  0  0  0  0
    7.2205   -0.9169    1.3050 H   0  0  0  0  0  0  0  0  0  0  0  0
   -3.7075    0.5094    1.8558 H   0  0  0  0  0  0  0  0  0  0  0  0
   -5.3093   -0.1915    1.2455 H   0  0  0  0  0  0  0  0  0  0  0  0
   -5.1229    1.5407    1.5813 H   0  0  0  0  0  0  0  0  0  0  0  0
   -4.5428    3.0768   -0.3415 H   0  0  0  0  0  0  0  0  0  0  0  0
   -3.1656    2.6649    0.6984 H   0  0  0  0  0  0  0  0  0  0  0  0
   -3.0313    2.5935   -1.1392 H   0  0  0  0  0  0  0  0  0  0  0  0
   -4.3986   -2.3998    0.6844 H   0  0  0  0  0  0  0  0  0  0  0  0
   -2.7994   -1.6243    1.1646 H   0  0  0  0  0  0  0  0  0  0  0  0
   -2.8545   -3.1277    0.2203 H   0  0  0  0  0  0  0  0  0  0  0  0
    0.5351   -0.1465    2.1772 H   0  0  0  0  0  0  0  0  0  0  0  0
    1.5754   -1.5171    1.6104 H   0  0  0  0  0  0  0  0  0  0  0  0
   -0.1937   -1.7184    1.5252 H   0  0  0  0  0  0  0  0  0  0  0  0
    5.9717    1.8859   -0.5389 H   0  0  0  0  0  0  0  0  0  0  0  0
    4.7001    2.5296    0.4952 H   0  0  0  0  0  0  0  0  0  0  0  0
    6.2438    1.8494    1.2233 H   0  0  0  0  0  0  0  0  0  0  0  0
    8.7623    0.4900   -0.1017 H   0  0  0  0  0  0  0  0  0  0  0  0
    7.7358   -2.5206   -0.0485 H   0  0  0  0  0  0  0  0  0  0  0  0
   -4.4926   -1.8477   -1.0466 H   0  0  0  0  0  0  0  0  0  0  0  0
   -5.8702   -0.7781   -0.8501 H   0  0  0  0  0  0  0  0  0  0  0  0
   -4.9667   -0.1010   -2.7770 H   0  0  0  0  0  0  0  0  0  0  0  0
   -3.2220   -0.1758   -2.2481 H   0  0  0  0  0  0  0  0  0  0  0  0
   -4.2732    2.1450   -2.3396 H   0  0  0  0  0  0  0  0  0  0  0  0
   -5.4621    1.5999   -1.1160 H   0  0  0  0  0  0  0  0  0  0  0  0
   -2.4110    1.8654   -1.0142 H   0  0  0  0  0  0  0  0  0  0  0  0
   -3.4816    1.2728    1.5783 H   0  0  0  0  0  0  0  0  0  0  0  0
   -1.3034    1.4030    0.7375 H   0  0  0  0  0  0  0  0  0  0  0  0
   -1.5432    0.0268    1.8144 H   0  0  0  0  0  0  0  0  0  0  0  0
   -1.0617   -0.0059   -1.2206 H   0  0  0  0  0  0  0  0  0  0  0  0
   -1.5970   -1.4558   -0.3808 H   0  0  0  0  0  0  0  0  0  0  0  0
    0.2093   -1.2839    1.1817 H   0  0  0  0  0  0  0  0  0  0  0  0
    0.5395    1.2980    0.9504 H   0  0  0  0  0  0  0  0  0  0  0  0
    1.0807    0.9990   -0.6886 H   0  0  0  0  0  0  0  0  0  0  0  0
    2.5065   -0.0425    1.8713 H   0  0  0  0  0  0  0  0  0  0  0  0
    2.8584    1.4470    1.0096 H   0  0  0  0  0  0  0  0  0  0  0  0
    3.2224   -1.4751   -0.0178 H   0  0  0  0  0  0  0  0  0  0  0  0
    3.5174   -0.0095   -1.0016 H   0  0  0  0  0  0  0  0  0  0  0  0
    4.8130   -0.7117    1.6992 H   0  0  0  0  0  0  0  0  0  0  0  0
    5.6145   -0.7492   -1.2508 H   0  0  0  0  0  0  0  0  0  0  0  0
    5.3058   -2.1347   -0.1822 H   0  0  0  0  0  0  0  0  0  0  0  0
    7.2723   -1.6779    1.2153 H   0  0  0  0  0  0  0  0  0  0  0  0
   -5.7041    1.0365    1.2067 H   0  0  0  0  0  0  0  0  0  0  0  0
   -6.3252   -0.7065    1.1306 H   0  0  0  0  0  0  0  0  0  0  0  0
   -5.2345   -0.1593    2.4688 H   0  0  0  0  0  0  0  0  0  0  0  0
   -2.8659   -1.5158    1.8860 H   0  0  0  0  0  0  0  0  0  0  0  0
   -4.5332   -2.0965    1.8801 H   0  0  0  0  0  0  0  0  0  0  0  0
   -3.5696   -2.4803    0.4798 H   0  0  0  0  0  0  0  0  0  0  0  0
   -4.7469    3.3011    0.1891 H   0  0  0  0  0  0  0  0  0  0  0  0
   -3.2995    3.9281   -0.6441 H   0  0  0  0  0  0  0  0  0  0  0  0
   -3.1016    3.3248    1.0199 H   0  0  0  0  0  0  0  0  0  0  0  0
    1.2993   -2.5452   -0.2756 H   0  0  0  0  0  0  0  0  0  0  0  0
   -0.0242   -2.1153   -1.4110 H   0  0  0  0  0  0  0  0  0  0  0  0
    1.5389   -1.2228   -1.4824 H   0  0  0  0  0  0  0  0  0  0  0  0
    4.5597    1.7343   -0.0524 H   0  0  0  0  0  0  0  0  0  0  0  0
    6.1904    1.4512    0.5728 H   0  0  0  0  0  0  0  0  0  0  0  0
    4.7540    1.6163    1.7097 H   0  0  0  0  0  0  0  0  0  0  0  0
    8.6368   -0.1119    0.9011 H   0  0  0  0  0  0  0  0  0  0  0  0
    8.6769   -1.7849   -0.8862 H   0  0  0  0  0  0  0  0  0  0  0  0
  1  2  1  0
  2  3  1  0
  3  4  1  0
  4  5  1  0
  1  6  1  0
  5  6  1  0
  6  7  1  0
  7  8  1  0
  8  9  1  0
  9 10  1  0
 10 11  1  0
 11 12  1  0
 12 13  1  0
 13 14  1  0
 14 15  1  0
  1 16  1  0
  1 17  1  0
  5 18  1  0
  9 19  1  0
 13 20  1  0
 15 21  1  0
 15 22  1  0
 23 24  1  0
 24 25  1  0
 25 26  1  0
 26 27  1  0
 23 28  1  0
 27 28  1  0
 28 29  1  0
 29 30  1  0
 30 31  1  0
 31 32  1  0
 32 33  1  0
 33 34  1  0
 34 35  1  0
 35 36  1  0
 36 37  1  0
 23 38  1  0
 23 39  1  0
 27 40  1  0
 31 41  1  0
 35 42  1  0
 37 43  1  0
 37 44  1  0
  2 45  1  0
  2 46  1  0
  3 47  1  0
  3 48  1  0
  4 49  1  0
  4 50  1  0
  5 51  1  0
  6 52  1  0
  7 53  1  0
  7 54  1  0
  8 55  1  0
  8 56  1  0
  9 57  1  6
 10 58  1  0
 10 59  1  0
 11 60  1  0
 11 61  1  0
 12 62  1  0
 12 63  1  0
 13 64  1  0
 14 65  1  0
 14 66  1  0
 15 67  1  0
 16 68  1  0
 16 69  1  0
 16 70  1  0
 17 71  1  0
 17 72  1  0
 17 73  1  0
 18 74  1  0
 18 75  1  0
 18 76  1  0
 19 77  1  0
 19 78  1  0
 19 79  1  0
 20 80  1  0
 20 81  1  0
 20 82  1  0
 21 83  1  0
 22 84  1  0
 24 85  1  0
 24 86  1  0
 25 87  1  0
 25 88  1  0
 26 89  1  0
 26 90  1  0
 27 91  1  0
 28 92  1  0
 29 93  1  0
 29 94  1  0
 30 95  1  0
 30 96  1  0
 31 97  1  0
 32 98  1  0
 32 99  1  0
 33100  1  0
 33101  1  0
 34102  1  0
 34103  1  0
 35104  1  0
 36105  1  0
 36106  1  0
 37107  1  0
 38108  1  0
 38109  1  0
 38110  1  0
 39111  1  0
 39112  1  0
 39113  1  0
 40114  1  0
 40115  1  0
 40116  1  0
 41117  1  0
 41118  1  0
 41119  1  0
 42120  1  0
 42121  1  0
 42122  1  0
 43123  1  0
 44124  1  0
M  END
>  <PDBID>  (1) 
3FC6

>  <PDB ID>  (1) 
3FC6

>  <Generic Name>  (1) 
Tretinoin

>  <Brand Name>  (1) 
Atralin#Avita#Biacna Topical Gel#Clindamycin Phosphate and Tretinoin#Dr. Throwers Hydrotet#Dr. Throwers Pbc No. 1#Obagi#Refissa#Rejuva-A#Renova#Retin-A#Retin-A Micro#Retisol-A#Solagé#Stie Vaa Sol 0.05%#Stieva-A Cream#Stieva-A Gel#Stieva-A Solution#Stievaa Gel 0.01%#Stievamycin Forte#Stievamycin Mild#Stievamycin Regular#Tretin.x#Tretinoin#Tretinoin Cream#Tretinoin Gel#Tretinoin Gel Microsphere#Tretinx#Tri-luma#Veltin#Vesanoid#Vitamin A Acid 0.01% Cream#Vitamin A Acid 0.01% Gel#Vitamin A Acid 0.025% Cream#Vitamin A Acid 0.025% Gel#Vitamin A Acid 0.05% Cream#Vitamin A Acid 0.05% Gel#Vitamin A Acid 0.1% Cream#Vitinoin - Crm 0.025%#Vitinoin - Crm 0.05%#Vitinoin - Crm 0.1%#Vitinoin Gel - 0.025%#Ziana#Aberel#Aberela#Airol#Dermairol#Eudyna#Kétrel#Retisol-A#Sotret#Stieva-A#Vitinoin

>  <DrugBank ID>  (1) 
DB00755

>  <ATC Codes>  (1) 
L01XX14#D10AD01#D10AD51

>  <Ligand ID>  (1) 
3KV,REA

>  <Target Name>  (1) 
Retinoic acid receptor RXR-beta

>  <UniProt ID>  (1) 
P28702

>  <PDB ID.1>  (1) 
3FC6

>  <Seq. Identity>  (1) 
87%

$$$$
