PDB_DB04786_08
     RDKit          3D

192199  0  0  0  0  0  0  0  0999 V2000
  -16.5922   -4.0427   -1.6883 O   0  0  0  0  0  0  0  0  0  0  0  0
  -16.6687   -3.1438   -0.5047 S   0  0  0  0  0  0  0  0  0  0  0  0
  -17.8328   -1.9164   -0.6026 O   0  0  0  0  0  0  0  0  0  0  0  0
  -16.9680   -3.8835    0.8817 O   0  0  0  0  0  0  0  0  0  0  0  0
  -15.1356   -2.3156   -0.2658 C   0  0  0  0  0  0  0  0  0  0  0  0
  -15.3212   -1.3184    0.8550 C   0  0  0  0  0  0  0  0  0  0  0  0
  -13.9243   -0.8046    1.1581 C   0  0  2  0  0  0  0  0  0  0  0  0
  -14.0790    0.3743    2.4776 S   0  0  0  0  0  0  0  0  0  0  0  0
  -12.9857    1.0013    3.0113 O   0  0  0  0  0  0  0  0  0  0  0  0
  -14.6243   -0.8546    3.8103 O   0  0  0  0  0  0  0  0  0  0  0  0
  -15.5171    1.1496    2.2997 O   0  0  0  0  0  0  0  0  0  0  0  0
  -14.8459   -1.5096   -1.5115 C   0  0  0  0  0  0  0  0  0  0  0  0
  -13.5983   -0.6711   -1.3559 C   0  0  0  0  0  0  0  0  0  0  0  0
  -13.5847    0.4382   -2.3907 C   0  0  1  0  0  0  0  0  0  0  0  0
  -14.9868    1.3495   -2.3357 S   0  0  0  0  0  0  0  0  0  0  0  0
  -14.4419    2.4660   -3.8971 O   0  0  0  0  0  0  0  0  0  0  0  0
  -14.4550    2.8103   -1.2956 O   0  0  0  0  0  0  0  0  0  0  0  0
  -16.2221    1.2480   -2.4305 O   0  0  0  0  0  0  0  0  0  0  0  0
  -12.3614    1.2639   -2.1674 C   0  0  0  0  0  0  0  0  0  0  0  0
  -11.3723    0.5258   -1.2234 C   0  0  0  0  0  0  0  0  0  0  0  0
  -13.4436   -0.0472   -0.0262 C   0  0  0  0  0  0  0  0  0  0  0  0
  -11.9635    0.3849    0.1207 C   0  0  1  0  0  0  0  0  0  0  0  0
  -11.3028   -0.3620    1.0778 N   0  0  0  0  0  0  0  0  0  0  0  0
  -10.1000   -0.1351    1.6906 C   0  0  0  0  0  0  0  0  0  0  0  0
   -9.9382    1.2835    1.9023 O   0  0  0  0  0  0  0  0  0  0  0  0
   -8.8265   -0.7146    1.2300 C   0  0  2  0  0  0  0  0  0  0  0  0
   -7.7223   -0.2099    2.1569 C   0  0  0  0  0  0  0  0  0  0  0  0
   -8.4364   -0.8325   -0.1679 C   0  0  0  0  0  0  0  0  0  0  0  0
   -7.6732    0.3111   -0.7738 C   0  0  0  0  0  0  0  0  0  0  0  0
   -6.6933    0.9135    0.1874 C   0  0  0  0  0  0  0  0  0  0  0  0
   -7.0694    2.2980    0.6634 C   0  0  0  0  0  0  0  0  0  0  0  0
   -6.4172   -0.0369    1.3400 C   0  0  0  0  0  0  0  0  0  0  0  0
   -5.4079    0.4254    2.1680 N   0  0  0  0  0  0  0  0  0  0  0  0
   -4.0873    0.0760    2.2912 C   0  0  0  0  0  0  0  0  0  0  0  0
   -3.5454    0.7195    3.4542 O   0  0  0  0  0  0  0  0  0  0  0  0
   -3.2385    0.3709    1.1096 C   0  0  0  0  0  0  0  0  0  0  0  0
   -1.7334    0.0460    1.4146 C   0  0  0  0  0  0  0  0  0  0  0  0
   -3.4525   -0.5438   -0.0692 C   0  0  0  0  0  0  0  0  0  0  0  0
   -2.7625    0.0621   -1.2840 C   0  0  0  0  0  0  0  0  0  0  0  0
   -1.6032    0.9014   -0.9750 C   0  0  0  0  0  0  0  0  0  0  0  0
   -0.9989    0.8451    0.3812 C   0  0  0  0  0  0  0  0  0  0  0  0
    0.3872    0.4276    0.3773 N   0  0  0  0  0  0  0  0  0  0  0  0
    0.6025   -0.9265    0.0360 C   0  0  0  0  0  0  0  0  0  0  0  0
   -0.1193   -1.3362   -1.1045 O   0  0  0  0  0  0  0  0  0  0  0  0
    1.9819   -1.1392   -0.3459 N   0  0  0  0  0  0  0  0  0  0  0  0
    2.3891   -0.3064   -1.4608 C   0  0  0  0  0  0  0  0  0  0  0  0
    2.4882    1.1103   -1.0555 C   0  0  0  0  0  0  0  0  0  0  0  0
    3.5479   -0.9689   -2.1005 C   0  0  0  0  0  0  0  0  0  0  0  0
    4.6476   -0.0801   -2.5850 C   0  0  0  0  0  0  0  0  0  0  0  0
    4.0599    1.2363   -3.0027 C   0  0  0  0  0  0  0  0  0  0  0  0
    3.4716    1.9321   -1.8062 C   0  0  2  0  0  0  0  0  0  0  0  0
    4.5715    2.4764   -0.9473 C   0  0  0  0  0  0  0  0  0  0  0  0
    5.4146    3.1908   -1.7804 O   0  0  0  0  0  0  0  0  0  0  0  0
    5.1046    1.6181   -0.0421 N   0  0  0  0  0  0  0  0  0  0  0  0
    6.4241    1.6795    0.4643 C   0  0  0  0  0  0  0  0  0  0  0  0
    7.5616    1.4435   -0.4158 C   0  0  0  0  0  0  0  0  0  0  0  0
    6.4238    0.9699    1.8010 C   0  0  0  0  0  0  0  0  0  0  0  0
    5.9387   -0.4522    1.7272 C   0  0  0  0  0  0  0  0  0  0  0  0
    7.7915    0.9857    2.4373 C   0  0  0  0  0  0  0  0  0  0  0  0
    8.7190    0.2607    1.5146 C   0  0  0  0  0  0  0  0  0  0  0  0
    8.8616    1.0521    0.2326 C   0  0  0  0  0  0  0  0  0  0  0  0
    9.4900    0.0258   -0.7474 C   0  0  0  0  0  0  0  0  0  0  0  0
    9.6637    0.5827   -1.9940 O   0  0  0  0  0  0  0  0  0  0  0  0
   10.6923   -0.5725   -0.2287 N   0  0  0  0  0  0  0  0  0  0  0  0
   11.8059    0.3403   -0.0674 C   0  0  0  0  0  0  0  0  0  0  0  0
   12.1764    0.7946   -1.4390 C   0  0  0  0  0  0  0  0  0  0  0  0
   13.6062    1.1985   -1.6436 C   0  0  0  0  0  0  0  0  0  0  0  0
   14.2653    1.5682   -0.3454 C   0  0  2  0  0  0  0  0  0  0  0  0
   15.8283    2.1722   -0.6498 S   0  0  0  0  0  0  0  0  0  0  0  0
   16.5662    2.6457    0.5714 O   0  0  0  0  0  0  0  0  0  0  0  0
   15.3333    3.7975   -1.4808 O   0  0  0  0  0  0  0  0  0  0  0  0
   16.5704    1.5019   -1.8159 O   0  0  0  0  0  0  0  0  0  0  0  0
   12.8396   -0.1059    0.8662 C   0  0  0  0  0  0  0  0  0  0  0  0
   14.2420    0.4208    0.6348 C   0  0  0  0  0  0  0  0  0  0  0  0
   15.2605   -0.6250    0.3321 C   0  0  0  0  0  0  0  0  0  0  0  0
   12.9269   -1.5736    1.2161 C   0  0  1  0  0  0  0  0  0  0  0  0
   11.5800   -2.2784    1.9572 S   0  0  0  0  0  0  0  0  0  0  0  0
   10.3383   -2.5907    1.2797 O   0  0  0  0  0  0  0  0  0  0  0  0
   11.5767   -1.8125    3.5080 O   0  0  0  0  0  0  0  0  0  0  0  0
   12.3039   -4.0172    2.2697 O   0  0  0  0  0  0  0  0  0  0  0  0
   13.5217   -2.4404    0.1632 C   0  0  0  0  0  0  0  0  0  0  0  0
   14.8072   -1.8465   -0.3670 C   0  0  2  0  0  0  0  0  0  0  0  0
   16.1652   -3.0656    0.0104 S   0  0  0  0  0  0  0  0  0  0  0  0
   15.0685   -4.4360   -1.0433 O   0  0  0  0  0  0  0  0  0  0  0  0
   15.8531   -3.6620    1.4076 O   0  0  0  0  0  0  0  0  0  0  0  0
   17.2715   -3.0509   -0.7457 O   0  0  0  0  0  0  0  0  0  0  0  0
  -16.6678   -3.7071   -2.5986 H   0  0  0  0  0  0  0  0  0  0  0  0
  -17.4746   -1.0407   -0.7731 H   0  0  0  0  0  0  0  0  0  0  0  0
  -17.1740   -3.2440    1.6070 H   0  0  0  0  0  0  0  0  0  0  0  0
  -14.3202   -3.0488   -0.0602 H   0  0  0  0  0  0  0  0  0  0  0  0
  -15.7083   -1.8266    1.7359 H   0  0  0  0  0  0  0  0  0  0  0  0
  -15.9751   -0.5122    0.4717 H   0  0  0  0  0  0  0  0  0  0  0  0
  -13.3433   -1.6671    1.4677 H   0  0  0  0  0  0  0  0  0  0  0  0
  -12.4671    1.8488    2.9774 H   0  0  0  0  0  0  0  0  0  0  0  0
  -13.7003   -1.2005    4.0270 H   0  0  0  0  0  0  0  0  0  0  0  0
  -15.5968    1.8343    2.9904 H   0  0  0  0  0  0  0  0  0  0  0  0
  -15.7408   -0.9496   -1.7780 H   0  0  0  0  0  0  0  0  0  0  0  0
  -14.6551   -2.2319   -2.3301 H   0  0  0  0  0  0  0  0  0  0  0  0
  -12.7348   -1.3375   -1.5640 H   0  0  0  0  0  0  0  0  0  0  0  0
  -13.4603   -0.0934   -3.3754 H   0  0  0  0  0  0  0  0  0  0  0  0
  -14.9229    1.8182   -4.5030 H   0  0  0  0  0  0  0  0  0  0  0  0
  -15.2782    2.8312   -0.7534 H   0  0  0  0  0  0  0  0  0  0  0  0
  -17.1100    0.8608   -2.5376 H   0  0  0  0  0  0  0  0  0  0  0  0
  -11.7994    1.4824   -3.0704 H   0  0  0  0  0  0  0  0  0  0  0  0
  -12.5694    2.2296   -1.6669 H   0  0  0  0  0  0  0  0  0  0  0  0
  -10.5332    1.2374   -1.1589 H   0  0  0  0  0  0  0  0  0  0  0  0
  -11.0311   -0.3819   -1.7284 H   0  0  0  0  0  0  0  0  0  0  0  0
  -14.0325    0.9160   -0.0377 H   0  0  0  0  0  0  0  0  0  0  0  0
  -12.0765    1.4808    0.5233 H   0  0  0  0  0  0  0  0  0  0  0  0
  -11.4990   -1.4288    0.9586 H   0  0  0  0  0  0  0  0  0  0  0  0
  -10.1476   -0.4567    2.8274 H   0  0  0  0  0  0  0  0  0  0  0  0
   -9.8719    1.7630    1.0644 H   0  0  0  0  0  0  0  0  0  0  0  0
   -8.8641   -1.8662    1.5795 H   0  0  0  0  0  0  0  0  0  0  0  0
   -8.0005    0.7120    2.6673 H   0  0  0  0  0  0  0  0  0  0  0  0
   -7.4563   -0.9368    2.9423 H   0  0  0  0  0  0  0  0  0  0  0  0
   -7.6777   -1.7419   -0.2451 H   0  0  0  0  0  0  0  0  0  0  0  0
   -9.2007   -1.1789   -0.8471 H   0  0  0  0  0  0  0  0  0  0  0  0
   -7.1366   -0.1468   -1.6708 H   0  0  0  0  0  0  0  0  0  0  0  0
   -8.3123    1.0795   -1.2345 H   0  0  0  0  0  0  0  0  0  0  0  0
   -5.7535    1.0615   -0.3951 H   0  0  0  0  0  0  0  0  0  0  0  0
   -6.1760    2.9926    0.5954 H   0  0  0  0  0  0  0  0  0  0  0  0
   -7.7870    2.7073   -0.0618 H   0  0  0  0  0  0  0  0  0  0  0  0
   -7.3914    2.3544    1.6987 H   0  0  0  0  0  0  0  0  0  0  0  0
   -6.2351   -1.0462    0.9594 H   0  0  0  0  0  0  0  0  0  0  0  0
   -5.7354    1.1129    2.8903 H   0  0  0  0  0  0  0  0  0  0  0  0
   -3.9859   -1.0240    2.5853 H   0  0  0  0  0  0  0  0  0  0  0  0
   -3.9051    1.6302    3.4682 H   0  0  0  0  0  0  0  0  0  0  0  0
   -3.2247    1.4474    0.8449 H   0  0  0  0  0  0  0  0  0  0  0  0
   -1.6122   -1.0309    1.3731 H   0  0  0  0  0  0  0  0  0  0  0  0
   -1.5345    0.4384    2.4298 H   0  0  0  0  0  0  0  0  0  0  0  0
   -2.9102   -1.5105    0.1665 H   0  0  0  0  0  0  0  0  0  0  0  0
   -4.4478   -0.8271   -0.3260 H   0  0  0  0  0  0  0  0  0  0  0  0
   -3.5880    0.6585   -1.7803 H   0  0  0  0  0  0  0  0  0  0  0  0
   -2.5872   -0.7615   -1.9918 H   0  0  0  0  0  0  0  0  0  0  0  0
   -0.8094    0.7442   -1.7329 H   0  0  0  0  0  0  0  0  0  0  0  0
   -1.9013    1.9852   -1.1691 H   0  0  0  0  0  0  0  0  0  0  0  0
   -0.9561    1.8904    0.8246 H   0  0  0  0  0  0  0  0  0  0  0  0
    0.7289    0.5653    1.3705 H   0  0  0  0  0  0  0  0  0  0  0  0
    0.4167   -1.6358    0.8919 H   0  0  0  0  0  0  0  0  0  0  0  0
   -0.1437   -2.3308   -1.1551 H   0  0  0  0  0  0  0  0  0  0  0  0
    2.6234   -1.0655    0.4601 H   0  0  0  0  0  0  0  0  0  0  0  0
    1.4822   -0.3452   -2.1969 H   0  0  0  0  0  0  0  0  0  0  0  0
    1.4772    1.6030   -1.2325 H   0  0  0  0  0  0  0  0  0  0  0  0
    2.5956    1.1956    0.0603 H   0  0  0  0  0  0  0  0  0  0  0  0
    3.9694   -1.8044   -1.4659 H   0  0  0  0  0  0  0  0  0  0  0  0
    3.1602   -1.5317   -3.0059 H   0  0  0  0  0  0  0  0  0  0  0  0
    5.4182    0.0304   -1.8005 H   0  0  0  0  0  0  0  0  0  0  0  0
    5.0863   -0.5392   -3.5195 H   0  0  0  0  0  0  0  0  0  0  0  0
    4.7516    1.8631   -3.5660 H   0  0  0  0  0  0  0  0  0  0  0  0
    3.2097    1.0109   -3.7098 H   0  0  0  0  0  0  0  0  0  0  0  0
    2.8950    2.8215   -2.2743 H   0  0  0  0  0  0  0  0  0  0  0  0
    4.0398    3.3165   -0.3540 H   0  0  0  0  0  0  0  0  0  0  0  0
    5.4407    4.1614   -1.6112 H   0  0  0  0  0  0  0  0  0  0  0  0
    4.4731    1.0852    0.5572 H   0  0  0  0  0  0  0  0  0  0  0  0
    6.5279    2.7889    0.7969 H   0  0  0  0  0  0  0  0  0  0  0  0
    7.8078    2.4422   -0.9304 H   0  0  0  0  0  0  0  0  0  0  0  0
    7.3972    0.6814   -1.2159 H   0  0  0  0  0  0  0  0  0  0  0  0
    5.6847    1.5337    2.4322 H   0  0  0  0  0  0  0  0  0  0  0  0
    5.6372   -0.7566    0.6826 H   0  0  0  0  0  0  0  0  0  0  0  0
    4.9627   -0.5520    2.2973 H   0  0  0  0  0  0  0  0  0  0  0  0
    6.6010   -1.1912    2.2078 H   0  0  0  0  0  0  0  0  0  0  0  0
    8.1383    2.0073    2.6821 H   0  0  0  0  0  0  0  0  0  0  0  0
    7.7158    0.4089    3.3821 H   0  0  0  0  0  0  0  0  0  0  0  0
    8.3305   -0.7500    1.2941 H   0  0  0  0  0  0  0  0  0  0  0  0
    9.7208    0.2401    1.9938 H   0  0  0  0  0  0  0  0  0  0  0  0
    9.5072    1.9068    0.3748 H   0  0  0  0  0  0  0  0  0  0  0  0
    8.6755   -0.7410   -0.8511 H   0  0  0  0  0  0  0  0  0  0  0  0
    9.0268    1.2520   -2.2727 H   0  0  0  0  0  0  0  0  0  0  0  0
   10.9711   -1.2781   -0.9917 H   0  0  0  0  0  0  0  0  0  0  0  0
   11.3155    1.2680    0.4066 H   0  0  0  0  0  0  0  0  0  0  0  0
   11.5784    1.7099   -1.6769 H   0  0  0  0  0  0  0  0  0  0  0  0
   11.8529    0.0496   -2.2314 H   0  0  0  0  0  0  0  0  0  0  0  0
   14.2304    0.3797   -2.1075 H   0  0  0  0  0  0  0  0  0  0  0  0
   13.7321    2.0571   -2.3353 H   0  0  0  0  0  0  0  0  0  0  0  0
   13.6004    2.3565    0.1192 H   0  0  0  0  0  0  0  0  0  0  0  0
   16.1565    3.1705    1.3007 H   0  0  0  0  0  0  0  0  0  0  0  0
   15.0114    4.2306   -0.6456 H   0  0  0  0  0  0  0  0  0  0  0  0
   17.5111    1.2221   -1.7900 H   0  0  0  0  0  0  0  0  0  0  0  0
   12.5395    0.3442    1.8903 H   0  0  0  0  0  0  0  0  0  0  0  0
   14.6118    0.9057    1.5993 H   0  0  0  0  0  0  0  0  0  0  0  0
   16.0671   -0.1645   -0.2826 H   0  0  0  0  0  0  0  0  0  0  0  0
   15.7971   -0.9350    1.2795 H   0  0  0  0  0  0  0  0  0  0  0  0
   13.7763   -1.5357    2.0273 H   0  0  0  0  0  0  0  0  0  0  0  0
   10.0350   -3.2591    0.6471 H   0  0  0  0  0  0  0  0  0  0  0  0
   10.6465   -1.7962    3.9076 H   0  0  0  0  0  0  0  0  0  0  0  0
   11.7467   -4.2375    3.0667 H   0  0  0  0  0  0  0  0  0  0  0  0
   12.8085   -2.7340   -0.6323 H   0  0  0  0  0  0  0  0  0  0  0  0
   13.7590   -3.4232    0.6746 H   0  0  0  0  0  0  0  0  0  0  0  0
   14.8497   -1.8455   -1.4596 H   0  0  0  0  0  0  0  0  0  0  0  0
   15.6850   -5.1210   -0.6445 H   0  0  0  0  0  0  0  0  0  0  0  0
   15.3026   -4.4803    1.5175 H   0  0  0  0  0  0  0  0  0  0  0  0
   18.0495   -2.5403   -1.0317 H   0  0  0  0  0  0  0  0  0  0  0  0
  2  1  1  0
  2  3  1  0
  2  4  1  0
  2  5  1  0
  5  6  1  0
  6  7  1  0
  7  8  1  0
  8  9  1  0
  8 10  1  0
  8 11  1  0
  5 12  1  0
 12 13  1  0
 13 14  1  0
 14 15  1  0
 15 16  1  0
 15 17  1  0
 15 18  1  0
 14 19  1  0
 19 20  1  0
  7 21  1  0
 13 21  1  0
 20 22  1  0
 21 22  1  0
 22 23  1  0
 23 24  1  0
 24 25  1  0
 24 26  1  0
 26 27  1  0
 26 28  1  0
 28 29  1  0
 29 30  1  0
 30 31  1  0
 27 32  1  0
 30 32  1  0
 32 33  1  0
 33 34  1  0
 34 35  1  0
 34 36  1  0
 36 37  1  0
 36 38  1  0
 38 39  1  0
 39 40  1  0
 37 41  1  0
 40 41  1  0
 41 42  1  0
 42 43  1  0
 43 44  1  0
 43 45  1  0
 45 46  1  0
 46 47  1  0
 46 48  1  0
 48 49  1  0
 49 50  1  0
 47 51  1  0
 50 51  1  0
 51 52  1  0
 52 53  1  0
 52 54  1  0
 54 55  1  0
 55 56  1  0
 55 57  1  0
 57 58  1  0
 57 59  1  0
 59 60  1  0
 56 61  1  0
 60 61  1  0
 61 62  1  0
 62 63  1  0
 62 64  1  0
 64 65  1  0
 65 66  1  0
 66 67  1  0
 67 68  1  0
 68 69  1  0
 69 70  1  0
 69 71  1  0
 69 72  1  0
 65 73  1  0
 68 74  1  0
 73 74  1  0
 74 75  1  0
 73 76  1  0
 76 77  1  0
 77 78  1  0
 77 79  1  0
 77 80  1  0
 76 81  1  0
 75 82  1  0
 81 82  1  0
 82 83  1  0
 83 84  1  0
 83 85  1  0
 83 86  1  0
  1 87  1  0
  3 88  1  0
  4 89  1  0
  5 90  1  0
  6 91  1  0
  6 92  1  0
  7 93  1  1
  9 94  1  0
 10 95  1  0
 11 96  1  0
 12 97  1  0
 12 98  1  0
 13 99  1  0
 14100  1  6
 16101  1  0
 17102  1  0
 18103  1  0
 19104  1  0
 19105  1  0
 20106  1  0
 20107  1  0
 21108  1  0
 22109  1  1
 23110  1  0
 24111  1  0
 25112  1  0
 26113  1  1
 27114  1  0
 27115  1  0
 28116  1  0
 28117  1  0
 29118  1  0
 29119  1  0
 30120  1  0
 31121  1  0
 31122  1  0
 31123  1  0
 32124  1  0
 33125  1  0
 34126  1  0
 35127  1  0
 36128  1  0
 37129  1  0
 37130  1  0
 38131  1  0
 38132  1  0
 39133  1  0
 39134  1  0
 40135  1  0
 40136  1  0
 41137  1  0
 42138  1  0
 43139  1  0
 44140  1  0
 45141  1  0
 46142  1  0
 47143  1  0
 47144  1  0
 48145  1  0
 48146  1  0
 49147  1  0
 49148  1  0
 50149  1  0
 50150  1  0
 51151  1  6
 52152  1  0
 53153  1  0
 54154  1  0
 55155  1  0
 56156  1  0
 56157  1  0
 57158  1  0
 58159  1  0
 58160  1  0
 58161  1  0
 59162  1  0
 59163  1  0
 60164  1  0
 60165  1  0
 61166  1  0
 62167  1  0
 63168  1  0
 64169  1  0
 65170  1  0
 66171  1  0
 66172  1  0
 67173  1  0
 67174  1  0
 68175  1  1
 70176  1  0
 71177  1  0
 72178  1  0
 73179  1  0
 74180  1  0
 75181  1  0
 75182  1  0
 76183  1  1
 78184  1  0
 79185  1  0
 80186  1  0
 81187  1  0
 81188  1  0
 82189  1  6
 84190  1  0
 85191  1  0
 86192  1  0
M  END
>  <PDBID>  (1) 
2NYR

>  <PDB ID>  (1) 
2NYR

>  <Generic Name>  (1) 
Suramin

>  <Brand Name>  (1) 
309 Fourneau#Antrypol#Bayer 205#Belganyl#Germanin#Moranyl#Naganin#Naganine#Naganol#Naphuride

>  <DrugBank ID>  (1) 
DB04786

>  <ATC Codes>  (1) 
P01CX02

>  <Ligand ID>  (1) 
SVR

>  <Target Name>  (1) 
NAD-dependent protein deacylase sirtuin-5, mitochondrial

>  <UniProt ID>  (1) 
Q9NXA8

>  <PDB ID.1>  (1) 
2NYR

>  <Seq. Identity>  (1) 
100%

$$$$
