PDB_DB00412_05
     RDKit          3D

 60 62  0  0  0  0  0  0  0  0999 V2000
    7.2633   -0.5849   -0.6955 S   0  0  0  0  0  0  0  0  0  0  0  0
    7.4886   -1.0154    1.9196 O   0  0  0  0  0  0  0  0  0  0  0  0
    6.7421    2.0101   -0.5752 O   0  0  0  0  0  0  0  0  0  0  0  0
   -0.6626   -1.2521   -0.2263 O   0  0  0  0  0  0  0  0  0  0  0  0
    6.0667    0.6274    1.1981 N   0  0  0  0  0  0  0  0  0  0  0  0
   -3.5318    1.1041   -0.2289 N   0  0  0  0  0  0  0  0  0  0  0  0
   -5.1217    0.2605    1.3925 N   0  0  0  0  0  0  0  0  0  0  0  0
    7.3988    0.0531    1.0256 C   0  0  0  0  0  0  0  0  0  0  0  0
    5.6992    1.2460   -0.0484 C   0  0  0  0  0  0  0  0  0  0  0  0
    5.5267    0.0386   -0.9901 C   0  0  2  0  0  0  0  0  0  0  0  0
    4.6664   -1.0252   -0.4303 C   0  0  0  0  0  0  0  0  0  0  0  0
    3.2117   -0.9136   -0.5046 C   0  0  0  0  0  0  0  0  0  0  0  0
    2.6060   -0.8367   -1.8900 C   0  0  0  0  0  0  0  0  0  0  0  0
    1.1686   -1.2133   -1.7428 C   0  0  0  0  0  0  0  0  0  0  0  0
    0.3828   -0.4721   -0.7055 C   0  0  0  0  0  0  0  0  0  0  0  0
    1.1369    0.1054    0.4365 C   0  0  0  0  0  0  0  0  0  0  0  0
    2.6281    0.2404    0.2352 C   0  0  0  0  0  0  0  0  0  0  0  0
   -1.9363   -0.7917   -0.5252 C   0  0  0  0  0  0  0  0  0  0  0  0
   -2.2757    0.5450    0.0283 C   0  0  0  0  0  0  0  0  0  0  0  0
   -3.6555    2.4670    0.3321 C   0  0  0  0  0  0  0  0  0  0  0  0
   -4.7460    0.4632   -0.0195 C   0  0  0  0  0  0  0  0  0  0  0  0
   -6.1934   -0.7399    1.4656 C   0  0  0  0  0  0  0  0  0  0  0  0
   -7.2166   -0.3725    0.4154 C   0  0  0  0  0  0  0  0  0  0  0  0
   -6.6307   -0.7766   -0.9369 C   0  0  0  0  0  0  0  0  0  0  0  0
   -5.0928   -0.7556   -0.8243 C   0  0  0  0  0  0  0  0  0  0  0  0
    8.2591   -1.5939    1.6843 H   0  0  0  0  0  0  0  0  0  0  0  0
    6.3958    2.7760   -1.1113 H   0  0  0  0  0  0  0  0  0  0  0  0
    6.0384    1.3506    1.9414 H   0  0  0  0  0  0  0  0  0  0  0  0
   -5.5307    1.1277    1.8093 H   0  0  0  0  0  0  0  0  0  0  0  0
    8.2031    0.7751    1.1322 H   0  0  0  0  0  0  0  0  0  0  0  0
    4.8390    1.8634    0.0693 H   0  0  0  0  0  0  0  0  0  0  0  0
    5.3836    0.3197   -2.0237 H   0  0  0  0  0  0  0  0  0  0  0  0
    4.9706   -2.0290   -0.8714 H   0  0  0  0  0  0  0  0  0  0  0  0
    4.9684   -1.1450    0.6563 H   0  0  0  0  0  0  0  0  0  0  0  0
    2.7399   -1.8388   -0.0427 H   0  0  0  0  0  0  0  0  0  0  0  0
    3.0729   -1.5292   -2.6047 H   0  0  0  0  0  0  0  0  0  0  0  0
    2.6557    0.2125   -2.2534 H   0  0  0  0  0  0  0  0  0  0  0  0
    0.7046   -1.1110   -2.7641 H   0  0  0  0  0  0  0  0  0  0  0  0
    1.1146   -2.2970   -1.5075 H   0  0  0  0  0  0  0  0  0  0  0  0
   -0.0856    0.3798   -1.2582 H   0  0  0  0  0  0  0  0  0  0  0  0
    0.7144    1.0884    0.7661 H   0  0  0  0  0  0  0  0  0  0  0  0
    0.9954   -0.5658    1.3079 H   0  0  0  0  0  0  0  0  0  0  0  0
    3.1940    0.4758    1.1389 H   0  0  0  0  0  0  0  0  0  0  0  0
    2.7303    1.1319   -0.4571 H   0  0  0  0  0  0  0  0  0  0  0  0
   -2.1630   -0.8823   -1.6005 H   0  0  0  0  0  0  0  0  0  0  0  0
   -2.6000   -1.5601   -0.0229 H   0  0  0  0  0  0  0  0  0  0  0  0
   -2.1873    0.4828    1.1744 H   0  0  0  0  0  0  0  0  0  0  0  0
   -1.4437    1.2964   -0.1916 H   0  0  0  0  0  0  0  0  0  0  0  0
   -4.0879    2.4782    1.3295 H   0  0  0  0  0  0  0  0  0  0  0  0
   -4.1667    3.0624   -0.4300 H   0  0  0  0  0  0  0  0  0  0  0  0
   -2.6056    2.8457    0.4117 H   0  0  0  0  0  0  0  0  0  0  0  0
   -5.5519    1.2315   -0.3485 H   0  0  0  0  0  0  0  0  0  0  0  0
   -5.8216   -1.7668    1.3488 H   0  0  0  0  0  0  0  0  0  0  0  0
   -6.6549   -0.5961    2.4852 H   0  0  0  0  0  0  0  0  0  0  0  0
   -8.1880   -0.8818    0.5871 H   0  0  0  0  0  0  0  0  0  0  0  0
   -7.3518    0.7247    0.4297 H   0  0  0  0  0  0  0  0  0  0  0  0
   -6.9632   -1.8114   -1.1295 H   0  0  0  0  0  0  0  0  0  0  0  0
   -7.0076   -0.0931   -1.6975 H   0  0  0  0  0  0  0  0  0  0  0  0
   -4.7739   -1.7158   -0.3912 H   0  0  0  0  0  0  0  0  0  0  0  0
   -4.7193   -0.6166   -1.8508 H   0  0  0  0  0  0  0  0  0  0  0  0
  1  8  1  0
  2  8  1  0
  5  8  1  0
  3  9  1  0
  5  9  1  0
  1 10  1  0
  9 10  1  0
 10 11  1  0
 11 12  1  0
 12 13  1  0
 13 14  1  0
  4 15  1  0
 14 15  1  0
 15 16  1  0
 12 17  1  0
 16 17  1  0
  4 18  1  0
  6 19  1  0
 18 19  1  0
  6 20  1  0
  6 21  1  0
  7 21  1  0
  7 22  1  0
 22 23  1  0
 23 24  1  0
 21 25  1  0
 24 25  1  0
  2 26  1  0
  3 27  1  0
  5 28  1  0
  7 29  1  0
  8 30  1  0
  9 31  1  0
 10 32  1  6
 11 33  1  0
 11 34  1  0
 12 35  1  0
 13 36  1  0
 13 37  1  0
 14 38  1  0
 14 39  1  0
 15 40  1  0
 16 41  1  0
 16 42  1  0
 17 43  1  0
 17 44  1  0
 18 45  1  0
 18 46  1  0
 19 47  1  0
 19 48  1  0
 20 49  1  0
 20 50  1  0
 20 51  1  0
 21 52  1  0
 22 53  1  0
 22 54  1  0
 23 55  1  0
 23 56  1  0
 24 57  1  0
 24 58  1  0
 25 59  1  0
 25 60  1  0
M  END
>  <PDBID>  (1) 
3DZY

>  <PDB ID>  (1) 
3DZY

>  <Generic Name>  (1) 
Rosiglitazone

>  <Brand Name>  (1) 
Apo-rosiglitazone#Avandamet#Avandaryl#Avandia#Avandia 2mg#Avandia 4mg#Avandia 8mg#Dom-rosiglitazone#Mylan-rosiglitazone#PHL-rosiglitazone#PMS-rosiglitazone#PMS-rosiglitazone-metformin#Teva-rosiglitazone#Blutab#DH-Rosidia#Diaben#Diaglinex#Gaudil#Gliximina#Naidi#Rogelin#Roglit#Romerol#Rosit#Rosix#Rossini#Sensulin#Sheng Ao#Sheng Min

>  <DrugBank ID>  (1) 
DB00412

>  <ATC Codes>  (1) 
A10BD03#A10BG02#A10BD04

>  <Ligand ID>  (1) 
BRL,RGZ

>  <Target Name>  (1) 
Peroxisome proliferator-activated receptor gamma

>  <UniProt ID>  (1) 
P37231

>  <PDB ID.1>  (1) 
3DZY

>  <Seq. Identity>  (1) 
97%

$$$$
