PDB_DB08915_06
     RDKit          3D

 74 77  0  0  0  0  0  0  0  0999 V2000
    3.0027   -2.6798   -0.5721 C   0  0  0  0  0  0  0  0  0  0  0  0
    3.3686   -1.5866   -1.5165 C   0  0  0  0  0  0  0  0  0  0  0  0
    4.7606   -1.3864   -1.4128 O   0  0  0  0  0  0  0  0  0  0  0  0
    4.9803   -0.1412   -0.8873 C   0  0  0  0  0  0  0  0  0  0  0  0
    6.1300   -0.0646    0.0877 C   0  0  0  0  0  0  0  0  0  0  0  0
    6.2134    1.3954    0.5496 C   0  0  0  0  0  0  0  0  0  0  0  0
    7.5270    1.5531    1.2436 C   0  0  0  0  0  0  0  0  0  0  0  0
    7.5827    0.6107    2.4066 C   0  0  0  0  0  0  0  0  0  0  0  0
    6.3786   -0.2547    2.5713 C   0  0  0  0  0  0  0  0  0  0  0  0
    5.9321   -0.9241    1.2905 C   0  0  0  0  0  0  0  0  0  0  0  0
    3.7219    0.2712   -0.2391 N   0  0  0  0  0  0  0  0  0  0  0  0
    2.7912   -0.2492   -1.2239 C   0  0  0  0  0  0  0  0  0  0  0  0
    1.3587   -0.2435   -0.7695 C   0  0  0  0  0  0  0  0  0  0  0  0
    0.5369   -0.8528   -1.8568 C   0  0  0  0  0  0  0  0  0  0  0  0
   -0.7977   -0.9214   -1.5740 O   0  0  0  0  0  0  0  0  0  0  0  0
   -1.4337    0.2959   -1.3777 C   0  0  0  0  0  0  0  0  0  0  0  0
   -2.4670    0.4167   -2.4667 C   0  0  0  0  0  0  0  0  0  0  0  0
   -3.6214    1.2857   -2.1032 C   0  0  0  0  0  0  0  0  0  0  0  0
   -1.9481    0.3350   -0.0000 C   0  0  0  0  0  0  0  0  0  0  0  0
   -2.1074   -1.0226    0.6061 C   0  0  0  0  0  0  0  0  0  0  0  0
   -2.4717   -0.8213    2.0645 C   0  0  0  0  0  0  0  0  0  0  0  0
   -3.2407    1.0813    0.2218 C   0  0  0  0  0  0  0  0  0  0  0  0
   -3.6077    0.6198    1.9122 S   0  0  0  0  0  0  0  0  0  0  0  0
   -4.2352    0.6002   -0.8146 C   0  0  0  0  0  0  0  0  0  0  0  0
   -5.6184    1.0847   -0.6562 C   0  0  0  0  0  0  0  0  0  0  0  0
   -6.4059    0.4746    0.4587 C   0  0  2  0  0  0  0  0  0  0  0  0
   -6.5917   -0.8787    0.3313 O   0  0  0  0  0  0  0  0  0  0  0  0
   -6.3615   -1.6703    1.4220 C   0  0  0  0  0  0  0  0  0  0  0  0
   -7.8137    1.1681    0.4902 C   0  0  0  0  0  0  0  0  0  0  0  0
   -8.4938    0.8992   -0.6733 O   0  0  0  0  0  0  0  0  0  0  0  0
   -7.5629    2.5268    0.6432 O   0  0  0  0  0  0  0  0  0  0  0  0
    2.0531   -2.5273   -0.0207 H   0  0  0  0  0  0  0  0  0  0  0  0
    3.8217   -2.8532    0.1438 H   0  0  0  0  0  0  0  0  0  0  0  0
    2.8187   -3.6184   -1.1761 H   0  0  0  0  0  0  0  0  0  0  0  0
    3.1671   -1.8945   -2.5765 H   0  0  0  0  0  0  0  0  0  0  0  0
    5.1169    0.5725   -1.7250 H   0  0  0  0  0  0  0  0  0  0  0  0
    7.0520   -0.2977   -0.4702 H   0  0  0  0  0  0  0  0  0  0  0  0
    6.1060    2.0106   -0.3583 H   0  0  0  0  0  0  0  0  0  0  0  0
    5.3654    1.5411    1.2667 H   0  0  0  0  0  0  0  0  0  0  0  0
    7.6086    2.6302    1.5489 H   0  0  0  0  0  0  0  0  0  0  0  0
    8.3303    1.3524    0.4943 H   0  0  0  0  0  0  0  0  0  0  0  0
    8.5151   -0.0003    2.4314 H   0  0  0  0  0  0  0  0  0  0  0  0
    7.6462    1.2532    3.3331 H   0  0  0  0  0  0  0  0  0  0  0  0
    6.6637   -1.0869    3.2713 H   0  0  0  0  0  0  0  0  0  0  0  0
    5.5331    0.2684    3.0675 H   0  0  0  0  0  0  0  0  0  0  0  0
    4.8225   -1.0766    1.4024 H   0  0  0  0  0  0  0  0  0  0  0  0
    6.3999   -1.9149    1.1793 H   0  0  0  0  0  0  0  0  0  0  0  0
    3.6948    1.3099   -0.1704 H   0  0  0  0  0  0  0  0  0  0  0  0
    2.8415    0.3754   -2.1389 H   0  0  0  0  0  0  0  0  0  0  0  0
    1.0843    0.8244   -0.6653 H   0  0  0  0  0  0  0  0  0  0  0  0
    1.2066   -0.6959    0.2144 H   0  0  0  0  0  0  0  0  0  0  0  0
    0.8977   -1.8923   -2.0174 H   0  0  0  0  0  0  0  0  0  0  0  0
    0.7257   -0.3504   -2.8498 H   0  0  0  0  0  0  0  0  0  0  0  0
   -0.6679    1.0955   -1.5285 H   0  0  0  0  0  0  0  0  0  0  0  0
   -2.8599   -0.5850   -2.7806 H   0  0  0  0  0  0  0  0  0  0  0  0
   -1.9709    0.8523   -3.3586 H   0  0  0  0  0  0  0  0  0  0  0  0
   -4.3755    1.2452   -2.8894 H   0  0  0  0  0  0  0  0  0  0  0  0
   -3.3328    2.3099   -1.8610 H   0  0  0  0  0  0  0  0  0  0  0  0
   -1.1882    0.8694    0.6457 H   0  0  0  0  0  0  0  0  0  0  0  0
   -1.1112   -1.5121    0.5981 H   0  0  0  0  0  0  0  0  0  0  0  0
   -2.7935   -1.6841    0.0719 H   0  0  0  0  0  0  0  0  0  0  0  0
   -3.0171   -1.7208    2.4139 H   0  0  0  0  0  0  0  0  0  0  0  0
   -1.6122   -0.5849    2.6908 H   0  0  0  0  0  0  0  0  0  0  0  0
   -3.0410    2.1709    0.1038 H   0  0  0  0  0  0  0  0  0  0  0  0
   -4.1570   -0.4492   -0.9860 H   0  0  0  0  0  0  0  0  0  0  0  0
   -6.1649    0.8814   -1.6166 H   0  0  0  0  0  0  0  0  0  0  0  0
   -5.6694    2.2012   -0.5042 H   0  0  0  0  0  0  0  0  0  0  0  0
   -6.0233    0.7018    1.4644 H   0  0  0  0  0  0  0  0  0  0  0  0
   -5.3336   -1.6532    1.8036 H   0  0  0  0  0  0  0  0  0  0  0  0
   -6.5506   -2.7640    1.1875 H   0  0  0  0  0  0  0  0  0  0  0  0
   -7.0202   -1.3843    2.2926 H   0  0  0  0  0  0  0  0  0  0  0  0
   -8.3094    0.8000    1.3953 H   0  0  0  0  0  0  0  0  0  0  0  0
   -8.2453    1.5795   -1.3404 H   0  0  0  0  0  0  0  0  0  0  0  0
   -7.5335    2.7794    1.5830 H   0  0  0  0  0  0  0  0  0  0  0  0
  1  2  1  0
  2  3  1  0
  3  4  1  0
  4  5  1  0
  5  6  1  0
  6  7  1  0
  7  8  1  0
  8  9  1  0
  5 10  1  0
  9 10  1  0
  4 11  1  0
  2 12  1  0
 11 12  1  0
 12 13  1  0
 13 14  1  0
 14 15  1  0
 15 16  1  0
 16 17  1  0
 17 18  1  0
 16 19  1  0
 19 20  1  0
 20 21  1  0
 19 22  1  0
 21 23  1  0
 22 23  1  0
 18 24  1  0
 22 24  1  0
 24 25  1  0
 25 26  1  0
 26 27  1  0
 27 28  1  0
 26 29  1  0
 29 30  1  0
 29 31  1  0
  1 32  1  0
  1 33  1  0
  1 34  1  0
  2 35  1  0
  4 36  1  0
  5 37  1  0
  6 38  1  0
  6 39  1  0
  7 40  1  0
  7 41  1  0
  8 42  1  0
  8 43  1  0
  9 44  1  0
  9 45  1  0
 10 46  1  0
 10 47  1  0
 11 48  1  0
 12 49  1  0
 13 50  1  0
 13 51  1  0
 14 52  1  0
 14 53  1  0
 16 54  1  0
 17 55  1  0
 17 56  1  0
 18 57  1  0
 18 58  1  0
 19 59  1  0
 20 60  1  0
 20 61  1  0
 21 62  1  0
 21 63  1  0
 22 64  1  0
 24 65  1  0
 25 66  1  0
 25 67  1  0
 26 68  1  1
 28 69  1  0
 28 70  1  0
 28 71  1  0
 29 72  1  0
 30 73  1  0
 31 74  1  0
M  END
>  <PDBID>  (1) 
3G8I

>  <PDB ID>  (1) 
3G8I

>  <Generic Name>  (1) 
Aleglitazar

>  <Brand Name>  (1) 
nan

>  <DrugBank ID>  (1) 
DB08915

>  <ATC Codes>  (1) 
nan

>  <Ligand ID>  (1) 
RO7

>  <Target Name>  (1) 
Peroxisome proliferator-activated receptor alpha

>  <UniProt ID>  (1) 
Q07869

>  <PDB ID.1>  (1) 
3G8I

>  <Seq. Identity>  (1) 
100%

$$$$
