PDB_DB01127_07
     RDKit          3D

110114  0  0  0  0  0  0  0  0999 V2000
    2.4208    0.3112   -0.3531 C   0  0  0  0  0  0  0  0  0  0  0  0
    3.6963    1.0655   -0.8139 C   0  0  0  0  0  0  0  0  0  0  0  0
   -0.6525   -2.5616   -1.9252 Cl  0  0  0  0  0  0  0  0  0  0  0  0
   -4.5321    2.5777    0.4796 C   0  0  0  0  0  0  0  0  0  0  0  0
   -3.4673    1.4665    0.5465 C   0  0  0  0  0  0  0  0  0  0  0  0
    4.4159   -0.6057    0.9070 C   0  0  0  0  0  0  0  0  0  0  0  0
    2.9307   -0.6049    0.7428 C   0  0  0  0  0  0  0  0  0  0  0  0
    5.1995   -0.8005   -0.3498 C   0  0  0  0  0  0  0  0  0  0  0  0
    5.2228   -2.4819   -0.9057 Cl  0  0  0  0  0  0  0  0  0  0  0  0
   -1.8556   -1.6457   -0.9822 C   0  0  0  0  0  0  0  0  0  0  0  0
   -2.7831   -2.6088   -0.2725 C   0  0  0  0  0  0  0  0  0  0  0  0
   -2.0301   -3.4939    0.6934 C   0  0  0  0  0  0  0  0  0  0  0  0
   -1.1620   -2.7263    1.6252 C   0  0  0  0  0  0  0  0  0  0  0  0
   -1.0616   -4.6297   -0.2623 Cl  0  0  0  0  0  0  0  0  0  0  0  0
   -3.8405    3.7649    0.0475 N   0  0  0  0  0  0  0  0  0  0  0  0
   -1.5527    1.4021   -0.9810 C   0  0  0  0  0  0  0  0  0  0  0  0
   -0.5609    0.4105   -0.3746 C   0  0  1  0  0  0  0  0  0  0  0  0
    0.2452    1.0300    0.5454 O   0  0  0  0  0  0  0  0  0  0  0  0
   -1.1685   -0.8279    0.0911 C   0  0  0  0  0  0  0  0  0  0  0  0
   -2.4253    2.0361   -0.1427 N   0  0  0  0  0  0  0  0  0  0  0  0
   -2.4281    3.4530   -0.0551 C   0  0  0  0  0  0  0  0  0  0  0  0
    1.4873    1.3663    0.1055 C   0  0  0  0  0  0  0  0  0  0  0  0
    4.6645    0.1039   -1.4296 C   0  0  0  0  0  0  0  0  0  0  0  0
   -0.2569   -1.7521    0.8481 C   0  0  0  0  0  0  0  0  0  0  0  0
    2.4208    0.3112   -0.3531 C   0  0  0  0  0  0  0  0  0  0  0  0
    3.6963    1.0655   -0.8139 C   0  0  0  0  0  0  0  0  0  0  0  0
   -0.6525   -2.5616   -1.9252 Cl  0  0  0  0  0  0  0  0  0  0  0  0
   -4.5321    2.5777    0.4796 C   0  0  0  0  0  0  0  0  0  0  0  0
   -3.4673    1.4665    0.5465 C   0  0  0  0  0  0  0  0  0  0  0  0
    4.4159   -0.6057    0.9070 C   0  0  0  0  0  0  0  0  0  0  0  0
    2.9307   -0.6049    0.7428 C   0  0  0  0  0  0  0  0  0  0  0  0
    5.1995   -0.8005   -0.3498 C   0  0  0  0  0  0  0  0  0  0  0  0
    5.2228   -2.4819   -0.9057 Cl  0  0  0  0  0  0  0  0  0  0  0  0
   -1.8556   -1.6457   -0.9822 C   0  0  0  0  0  0  0  0  0  0  0  0
   -2.7831   -2.6088   -0.2725 C   0  0  0  0  0  0  0  0  0  0  0  0
   -2.0301   -3.4939    0.6934 C   0  0  0  0  0  0  0  0  0  0  0  0
   -1.1620   -2.7263    1.6252 C   0  0  0  0  0  0  0  0  0  0  0  0
   -1.0616   -4.6297   -0.2623 Cl  0  0  0  0  0  0  0  0  0  0  0  0
   -3.8405    3.7649    0.0475 N   0  0  0  0  0  0  0  0  0  0  0  0
   -1.5527    1.4021   -0.9810 C   0  0  0  0  0  0  0  0  0  0  0  0
   -0.5609    0.4105   -0.3746 C   0  0  1  0  0  0  0  0  0  0  0  0
    0.2452    1.0300    0.5454 O   0  0  0  0  0  0  0  0  0  0  0  0
   -1.1685   -0.8279    0.0911 C   0  0  0  0  0  0  0  0  0  0  0  0
   -2.4253    2.0361   -0.1427 N   0  0  0  0  0  0  0  0  0  0  0  0
   -2.4281    3.4530   -0.0551 C   0  0  0  0  0  0  0  0  0  0  0  0
    1.4873    1.3663    0.1055 C   0  0  0  0  0  0  0  0  0  0  0  0
    4.6645    0.1039   -1.4296 C   0  0  0  0  0  0  0  0  0  0  0  0
   -0.2569   -1.7521    0.8481 C   0  0  0  0  0  0  0  0  0  0  0  0
    2.1013   -0.2966   -1.1959 H   0  0  0  0  0  0  0  0  0  0  0  0
    4.1776    1.5422    0.0589 H   0  0  0  0  0  0  0  0  0  0  0  0
    3.3767    1.7979   -1.5679 H   0  0  0  0  0  0  0  0  0  0  0  0
   -5.0494    2.6904    1.4324 H   0  0  0  0  0  0  0  0  0  0  0  0
   -5.2928    2.3473   -0.2983 H   0  0  0  0  0  0  0  0  0  0  0  0
   -3.2173    1.3116    1.6291 H   0  0  0  0  0  0  0  0  0  0  0  0
   -3.9635    0.5750    0.1831 H   0  0  0  0  0  0  0  0  0  0  0  0
    4.6465   -1.5004    1.5604 H   0  0  0  0  0  0  0  0  0  0  0  0
    4.7822    0.2655    1.5060 H   0  0  0  0  0  0  0  0  0  0  0  0
    2.6210   -1.6596    0.5984 H   0  0  0  0  0  0  0  0  0  0  0  0
    2.5057   -0.2293    1.7033 H   0  0  0  0  0  0  0  0  0  0  0  0
    6.2683   -0.5316   -0.0991 H   0  0  0  0  0  0  0  0  0  0  0  0
   -2.5099   -1.0466   -1.6469 H   0  0  0  0  0  0  0  0  0  0  0  0
   -3.5288   -1.9816    0.2948 H   0  0  0  0  0  0  0  0  0  0  0  0
   -3.3634   -3.2352   -0.9481 H   0  0  0  0  0  0  0  0  0  0  0  0
   -2.7882   -4.0382    1.2928 H   0  0  0  0  0  0  0  0  0  0  0  0
   -1.7379   -2.0981    2.3204 H   0  0  0  0  0  0  0  0  0  0  0  0
   -0.4939   -3.4413    2.1472 H   0  0  0  0  0  0  0  0  0  0  0  0
   -4.2136    4.1468   -0.8580 H   0  0  0  0  0  0  0  0  0  0  0  0
   -2.0178    0.8968   -1.8474 H   0  0  0  0  0  0  0  0  0  0  0  0
   -0.8922    2.1910   -1.4622 H   0  0  0  0  0  0  0  0  0  0  0  0
    0.1188    0.2025   -1.2644 H   0  0  0  0  0  0  0  0  0  0  0  0
   -1.9808   -0.5690    0.8541 H   0  0  0  0  0  0  0  0  0  0  0  0
   -1.8927    3.7546    0.8757 H   0  0  0  0  0  0  0  0  0  0  0  0
   -1.9688    3.8921   -0.9614 H   0  0  0  0  0  0  0  0  0  0  0  0
    2.0106    1.8882    0.9719 H   0  0  0  0  0  0  0  0  0  0  0  0
    1.4463    2.1943   -0.6645 H   0  0  0  0  0  0  0  0  0  0  0  0
    5.4685    0.6664   -1.9141 H   0  0  0  0  0  0  0  0  0  0  0  0
    4.1994   -0.5368   -2.2100 H   0  0  0  0  0  0  0  0  0  0  0  0
    0.3679   -2.2929    0.1262 H   0  0  0  0  0  0  0  0  0  0  0  0
    0.3146   -1.1544    1.5994 H   0  0  0  0  0  0  0  0  0  0  0  0
    2.1013   -0.2966   -1.1959 H   0  0  0  0  0  0  0  0  0  0  0  0
    4.1776    1.5422    0.0589 H   0  0  0  0  0  0  0  0  0  0  0  0
    3.3767    1.7979   -1.5679 H   0  0  0  0  0  0  0  0  0  0  0  0
   -5.0494    2.6904    1.4324 H   0  0  0  0  0  0  0  0  0  0  0  0
   -5.2928    2.3473   -0.2983 H   0  0  0  0  0  0  0  0  0  0  0  0
   -3.2173    1.3116    1.6291 H   0  0  0  0  0  0  0  0  0  0  0  0
   -3.9635    0.5750    0.1831 H   0  0  0  0  0  0  0  0  0  0  0  0
    4.6465   -1.5004    1.5604 H   0  0  0  0  0  0  0  0  0  0  0  0
    4.7822    0.2655    1.5060 H   0  0  0  0  0  0  0  0  0  0  0  0
    2.6210   -1.6596    0.5984 H   0  0  0  0  0  0  0  0  0  0  0  0
    2.5057   -0.2293    1.7033 H   0  0  0  0  0  0  0  0  0  0  0  0
    6.2683   -0.5316   -0.0991 H   0  0  0  0  0  0  0  0  0  0  0  0
   -2.5099   -1.0466   -1.6469 H   0  0  0  0  0  0  0  0  0  0  0  0
   -3.5288   -1.9816    0.2948 H   0  0  0  0  0  0  0  0  0  0  0  0
   -3.3634   -3.2352   -0.9481 H   0  0  0  0  0  0  0  0  0  0  0  0
   -2.7882   -4.0382    1.2928 H   0  0  0  0  0  0  0  0  0  0  0  0
   -1.7379   -2.0981    2.3204 H   0  0  0  0  0  0  0  0  0  0  0  0
   -0.4939   -3.4413    2.1472 H   0  0  0  0  0  0  0  0  0  0  0  0
   -4.2136    4.1468   -0.8580 H   0  0  0  0  0  0  0  0  0  0  0  0
   -2.0178    0.8968   -1.8474 H   0  0  0  0  0  0  0  0  0  0  0  0
   -0.8922    2.1910   -1.4622 H   0  0  0  0  0  0  0  0  0  0  0  0
    0.1188    0.2025   -1.2644 H   0  0  0  0  0  0  0  0  0  0  0  0
   -1.9808   -0.5690    0.8541 H   0  0  0  0  0  0  0  0  0  0  0  0
   -1.8927    3.7546    0.8757 H   0  0  0  0  0  0  0  0  0  0  0  0
   -1.9688    3.8921   -0.9614 H   0  0  0  0  0  0  0  0  0  0  0  0
    2.0106    1.8882    0.9719 H   0  0  0  0  0  0  0  0  0  0  0  0
    1.4463    2.1943   -0.6645 H   0  0  0  0  0  0  0  0  0  0  0  0
    5.4685    0.6664   -1.9141 H   0  0  0  0  0  0  0  0  0  0  0  0
    4.1994   -0.5368   -2.2100 H   0  0  0  0  0  0  0  0  0  0  0  0
    0.3679   -2.2929    0.1262 H   0  0  0  0  0  0  0  0  0  0  0  0
    0.3146   -1.1544    1.5994 H   0  0  0  0  0  0  0  0  0  0  0  0
  1  2  1  0
  4  5  1  0
  1  7  1  0
  6  7  1  0
  6  8  1  0
  8  9  1  0
  3 10  1  0
 10 11  1  0
 11 12  1  0
 12 13  1  0
 12 14  1  0
  4 15  1  0
 16 17  1  0
 17 18  1  0
 10 19  1  0
 17 19  1  0
  5 20  1  0
 16 20  1  0
 20 21  1  0
 21 15  1  0
  1 22  1  0
 18 22  1  0
  2 23  1  0
  8 23  1  0
 13 24  1  0
 19 24  1  0
 25 26  1  0
 28 29  1  0
 25 31  1  0
 30 31  1  0
 30 32  1  0
 32 33  1  0
 27 34  1  0
 34 35  1  0
 35 36  1  0
 36 37  1  0
 36 38  1  0
 28 39  1  0
 40 41  1  0
 41 42  1  0
 34 43  1  0
 41 43  1  0
 29 44  1  0
 40 44  1  0
 44 45  1  0
 45 39  1  0
 25 46  1  0
 42 46  1  0
 26 47  1  0
 32 47  1  0
 37 48  1  0
 43 48  1  0
  1 49  1  0
  2 50  1  0
  2 51  1  0
  4 52  1  0
  4 53  1  0
  5 54  1  0
  5 55  1  0
  6 56  1  0
  6 57  1  0
  7 58  1  0
  7 59  1  0
  8 60  1  0
 10 61  1  0
 11 62  1  0
 11 63  1  0
 12 64  1  0
 13 65  1  0
 13 66  1  0
 15 67  1  0
 16 68  1  0
 16 69  1  0
 17 70  1  6
 19 71  1  0
 21 72  1  0
 21 73  1  0
 22 74  1  0
 22 75  1  0
 23 76  1  0
 23 77  1  0
 24 78  1  0
 24 79  1  0
 25 80  1  0
 26 81  1  0
 26 82  1  0
 28 83  1  0
 28 84  1  0
 29 85  1  0
 29 86  1  0
 30 87  1  0
 30 88  1  0
 31 89  1  0
 31 90  1  0
 32 91  1  0
 34 92  1  0
 35 93  1  0
 35 94  1  0
 36 95  1  0
 37 96  1  0
 37 97  1  0
 39 98  1  0
 40 99  1  0
 40100  1  0
 41101  1  6
 43102  1  0
 45103  1  0
 45104  1  0
 46105  1  0
 46106  1  0
 47107  1  0
 47108  1  0
 48109  1  0
 48110  1  0
M  END
>  <PDBID>  (1) 
3JUS

>  <PDB ID>  (1) 
3JUS

>  <Generic Name>  (1) 
Econazole

>  <Brand Name>  (1) 
Econazole Nitrate#Econazole Nitrate Cream#Econazole Nitrate Topical Foam, 1%#Ecostatin Cream 1%#Ecostatin Vaginal Ovule 150mg#Ecoza#Ecostatin#Gyno-Pevaryl#Ifenec#Palavale#Pevaryl#Spectazole

>  <DrugBank ID>  (1) 
DB01127

>  <ATC Codes>  (1) 
G01AF05#D01AC03

>  <Ligand ID>  (1) 
ECL,ECN

>  <Target Name>  (1) 
Lanosterol 14-alpha demethylase

>  <UniProt ID>  (1) 
P10613

>  <PDB ID.1>  (1) 
3JUS

>  <Seq. Identity>  (1) 
40%

$$$$
