PDB_DB00398_02
     RDKit          3D

 70 72  0  0  0  0  0  0  0  0999 V2000
    5.8829   -1.0303    0.1344 C   0  0  0  0  0  0  0  0  0  0  0  0
    4.7297   -1.0813   -0.8455 C   0  0  2  0  0  0  0  0  0  0  0  0
    4.5106    0.2640   -1.5096 C   0  0  0  0  0  0  0  0  0  0  0  0
    5.7297    0.5103   -2.3946 C   0  0  0  0  0  0  0  0  0  0  0  0
    2.8179   -1.3948    0.6662 C   0  0  0  0  0  0  0  0  0  0  0  0
    1.1151   -0.0009   -0.3571 C   0  0  0  0  0  0  0  0  0  0  0  0
   -0.0216   -1.0058   -0.2099 C   0  0  0  0  0  0  0  0  0  0  0  0
   -0.6296   -0.9021    1.1870 C   0  0  0  0  0  0  0  0  0  0  0  0
   -1.3347    0.4625    1.2078 C   0  0  0  0  0  0  0  0  0  0  0  0
   -0.2652    1.5138    1.1185 C   0  0  0  0  0  0  0  0  0  0  0  0
    0.4709    1.3598   -0.1891 C   0  0  0  0  0  0  0  0  0  0  0  0
   -2.0964    0.4957    0.0515 O   0  0  0  0  0  0  0  0  0  0  0  0
   -4.0147    1.7665   -0.4159 C   0  0  0  0  0  0  0  0  0  0  0  0
   -5.5116    1.6787   -0.6160 C   0  0  0  0  0  0  0  0  0  0  0  0
   -5.5608   -0.6528   -0.2064 C   0  0  0  0  0  0  0  0  0  0  0  0
   -4.0792   -0.7090   -0.0571 C   0  0  0  0  0  0  0  0  0  0  0  0
   -7.7021   -0.8947    0.9090 N   0  0  0  0  0  0  0  0  0  0  0  0
   -8.4039    0.0271    0.0742 C   0  0  0  0  0  0  0  0  0  0  0  0
    7.0088    0.1695   -1.6676 C   0  0  0  0  0  0  0  0  0  0  0  0
    6.7372    0.1839   -0.1784 C   0  0  0  0  0  0  0  0  0  0  0  0
    8.0390    0.1282    0.6112 C   0  0  0  0  0  0  0  0  0  0  0  0
    7.7764    0.1063    1.9672 F   0  0  0  0  0  0  0  0  0  0  0  0
    8.6842   -1.0377    0.2863 F   0  0  0  0  0  0  0  0  0  0  0  0
    8.7832    1.2599    0.3708 F   0  0  0  0  0  0  0  0  0  0  0  0
    8.1872    1.4917   -1.9745 Cl  0  0  0  0  0  0  0  0  0  0  0  0
    3.5880   -1.7761   -0.4326 N   0  0  0  0  0  0  0  0  0  0  0  0
    2.1139   -0.1638    0.6377 N   0  0  0  0  0  0  0  0  0  0  0  0
    3.4588   -1.4664    1.9115 O   0  0  0  0  0  0  0  0  0  0  0  0
   -3.4689    0.6166    0.3543 C   0  0  0  0  0  0  0  0  0  0  0  0
   -5.9267    0.3983   -1.1225 N   0  0  0  0  0  0  0  0  0  0  0  0
   -6.2957   -0.5961    1.0938 C   0  0  0  0  0  0  0  0  0  0  0  0
   -5.8007   -1.6780    1.8655 O   0  0  0  0  0  0  0  0  0  0  0  0
    5.5855   -1.0656    1.1930 H   0  0  0  0  0  0  0  0  0  0  0  0
    6.5784   -1.9137    0.0066 H   0  0  0  0  0  0  0  0  0  0  0  0
    5.1605   -1.7116   -1.7102 H   0  0  0  0  0  0  0  0  0  0  0  0
    4.3582    1.0949   -0.8059 H   0  0  0  0  0  0  0  0  0  0  0  0
    3.6639    0.1443   -2.2148 H   0  0  0  0  0  0  0  0  0  0  0  0
    5.6927    1.5281   -2.7825 H   0  0  0  0  0  0  0  0  0  0  0  0
    5.6482   -0.1846   -3.2648 H   0  0  0  0  0  0  0  0  0  0  0  0
    2.0037   -2.2027    0.7681 H   0  0  0  0  0  0  0  0  0  0  0  0
    1.4394   -0.0650   -1.4002 H   0  0  0  0  0  0  0  0  0  0  0  0
    0.2683   -2.0305   -0.4763 H   0  0  0  0  0  0  0  0  0  0  0  0
   -0.8133   -0.6847   -0.9167 H   0  0  0  0  0  0  0  0  0  0  0  0
    0.1077   -0.8883    1.9838 H   0  0  0  0  0  0  0  0  0  0  0  0
   -1.3535   -1.7301    1.2752 H   0  0  0  0  0  0  0  0  0  0  0  0
   -1.9541    0.5497    2.1262 H   0  0  0  0  0  0  0  0  0  0  0  0
    0.4065    1.4064    1.9976 H   0  0  0  0  0  0  0  0  0  0  0  0
   -0.6877    2.5460    1.1114 H   0  0  0  0  0  0  0  0  0  0  0  0
   -0.2857    1.4667   -0.9974 H   0  0  0  0  0  0  0  0  0  0  0  0
    1.2269    2.1836   -0.2235 H   0  0  0  0  0  0  0  0  0  0  0  0
   -3.5677    1.8102   -1.4282 H   0  0  0  0  0  0  0  0  0  0  0  0
   -3.8485    2.7138    0.1630 H   0  0  0  0  0  0  0  0  0  0  0  0
   -5.7808    2.4312   -1.4079 H   0  0  0  0  0  0  0  0  0  0  0  0
   -6.0623    1.9875    0.2832 H   0  0  0  0  0  0  0  0  0  0  0  0
   -5.8622   -1.6283   -0.6860 H   0  0  0  0  0  0  0  0  0  0  0  0
   -3.6199   -0.9803   -1.0446 H   0  0  0  0  0  0  0  0  0  0  0  0
   -3.7572   -1.4693    0.6744 H   0  0  0  0  0  0  0  0  0  0  0  0
   -8.1674   -0.8839    1.8585 H   0  0  0  0  0  0  0  0  0  0  0  0
   -9.5023   -0.1805    0.2406 H   0  0  0  0  0  0  0  0  0  0  0  0
   -8.2554   -0.1719   -1.0156 H   0  0  0  0  0  0  0  0  0  0  0  0
   -8.2804    1.0891    0.3443 H   0  0  0  0  0  0  0  0  0  0  0  0
    7.4732   -0.7557   -2.0178 H   0  0  0  0  0  0  0  0  0  0  0  0
    6.2575    1.1377    0.0649 H   0  0  0  0  0  0  0  0  0  0  0  0
    3.0028   -2.0384   -1.2367 H   0  0  0  0  0  0  0  0  0  0  0  0
    2.6725    0.6646    0.7608 H   0  0  0  0  0  0  0  0  0  0  0  0
    2.7411   -1.2355    2.5725 H   0  0  0  0  0  0  0  0  0  0  0  0
   -3.5634    0.6737    1.4390 H   0  0  0  0  0  0  0  0  0  0  0  0
   -5.4815    0.2028   -2.0252 H   0  0  0  0  0  0  0  0  0  0  0  0
   -6.1449    0.3046    1.6880 H   0  0  0  0  0  0  0  0  0  0  0  0
   -5.8204   -1.4695    2.8334 H   0  0  0  0  0  0  0  0  0  0  0  0
  1  2  1  0
  2  3  1  0
  3  4  1  0
  6  7  1  0
  7  8  1  0
  8  9  1  0
  9 10  1  0
  6 11  1  0
 10 11  1  0
  9 12  1  0
 13 14  1  0
 15 16  1  0
 17 18  1  0
  4 19  1  0
  1 20  1  0
 19 20  1  0
 20 21  1  0
 21 22  1  0
 21 23  1  0
 21 24  1  0
 19 25  1  0
  2 26  1  0
  5 26  1  0
  5 27  1  0
  6 27  1  0
  5 28  1  0
 12 29  1  0
 13 29  1  0
 16 29  1  0
 14 30  1  0
 15 30  1  0
 15 31  1  0
 17 31  1  0
 31 32  1  0
  1 33  1  0
  1 34  1  0
  2 35  1  6
  3 36  1  0
  3 37  1  0
  4 38  1  0
  4 39  1  0
  5 40  1  0
  6 41  1  0
  7 42  1  0
  7 43  1  0
  8 44  1  0
  8 45  1  0
  9 46  1  0
 10 47  1  0
 10 48  1  0
 11 49  1  0
 11 50  1  0
 13 51  1  0
 13 52  1  0
 14 53  1  0
 14 54  1  0
 15 55  1  0
 16 56  1  0
 16 57  1  0
 17 58  1  0
 18 59  1  0
 18 60  1  0
 18 61  1  0
 19 62  1  0
 20 63  1  0
 26 64  1  0
 27 65  1  0
 28 66  1  0
 29 67  1  0
 30 68  1  0
 31 69  1  0
 32 70  1  0
M  END
>  <PDBID>  (1) 
3WZE

>  <PDB ID>  (1) 
3WZE

>  <Generic Name>  (1) 
Sorafenib

>  <Brand Name>  (1) 
Nexavar

>  <DrugBank ID>  (1) 
DB00398

>  <ATC Codes>  (1) 
L01XE05

>  <Ligand ID>  (1) 
BAX

>  <Target Name>  (1) 
Vascular endothelial growth factor receptor 3

>  <UniProt ID>  (1) 
P35916

>  <PDB ID.1>  (1) 
3WZE

>  <Seq. Identity>  (1) 
67%

$$$$
