PDB_DB00820_06
     RDKit          3D

132142  0  0  0  0  0  0  0  0999 V2000
   -3.5438   -3.4629    1.4268 C   0  0  0  0  0  0  0  0  0  0  0  0
   -4.5410   -2.6401    0.6394 C   0  0  0  0  0  0  0  0  0  0  0  0
   -3.8585   -1.7995   -0.4166 C   0  0  0  0  0  0  0  0  0  0  0  0
   -2.8289   -0.8682    0.1841 C   0  0  0  0  0  0  0  0  0  0  0  0
   -1.6409   -0.7308   -0.7429 C   0  0  0  0  0  0  0  0  0  0  0  0
   -0.4392   -0.8742    0.1390 C   0  0  0  0  0  0  0  0  0  0  0  0
   -0.9278   -0.8811    1.5251 N   0  0  0  0  0  0  0  0  0  0  0  0
   -2.2571   -1.3898    1.4629 C   0  0  0  0  0  0  0  0  0  0  0  0
   -2.1498   -2.9141    1.3173 C   0  0  0  0  0  0  0  0  0  0  0  0
    0.6121    0.1467   -0.0306 C   0  0  2  0  0  0  0  0  0  0  0  0
    0.2083    1.4499   -0.3868 N   0  0  0  0  0  0  0  0  0  0  0  0
    0.6675    2.5073    0.4931 C   0  0  0  0  0  0  0  0  0  0  0  0
    1.5465    2.0618    1.4642 O   0  0  0  0  0  0  0  0  0  0  0  0
   -0.4834    3.2406    1.1677 C   0  0  0  0  0  0  0  0  0  0  0  0
   -1.2872    3.8942    0.1716 N   0  0  0  0  0  0  0  0  0  0  0  0
   -1.4996    3.0373   -0.9845 C   0  0  0  0  0  0  0  0  0  0  0  0
   -0.7284    3.4361   -2.0684 O   0  0  0  0  0  0  0  0  0  0  0  0
   -1.2181    1.6368   -0.5451 C   0  0  1  0  0  0  0  0  0  0  0  0
   -1.7077    0.5757   -1.4879 C   0  0  0  0  0  0  0  0  0  0  0  0
   -0.7174    5.1354   -0.2965 C   0  0  0  0  0  0  0  0  0  0  0  0
    1.7055   -0.4435   -0.9324 C   0  0  0  0  0  0  0  0  0  0  0  0
    2.7991    0.5446   -1.1942 C   0  0  0  0  0  0  0  0  0  0  0  0
    4.0615    0.2857   -0.3904 C   0  0  0  0  0  0  0  0  0  0  0  0
    4.5308   -1.0828   -0.9061 C   0  0  0  0  0  0  0  0  0  0  0  0
    5.7239   -1.3729   -0.2689 O   0  0  0  0  0  0  0  0  0  0  0  0
    5.4499   -2.3176    0.7028 C   0  0  0  0  0  0  0  0  0  0  0  0
    4.0933   -2.2938    0.9357 O   0  0  0  0  0  0  0  0  0  0  0  0
    3.5838   -2.0794   -0.3685 C   0  0  0  0  0  0  0  0  0  0  0  0
    2.1490   -1.7422   -0.3698 C   0  0  0  0  0  0  0  0  0  0  0  0
   -3.5438   -3.4629    1.4268 C   0  0  0  0  0  0  0  0  0  0  0  0
   -4.5410   -2.6401    0.6394 C   0  0  0  0  0  0  0  0  0  0  0  0
   -3.8585   -1.7995   -0.4166 C   0  0  0  0  0  0  0  0  0  0  0  0
   -2.8289   -0.8682    0.1841 C   0  0  0  0  0  0  0  0  0  0  0  0
   -1.6409   -0.7308   -0.7429 C   0  0  0  0  0  0  0  0  0  0  0  0
   -0.4392   -0.8742    0.1390 C   0  0  0  0  0  0  0  0  0  0  0  0
   -0.9278   -0.8811    1.5251 N   0  0  0  0  0  0  0  0  0  0  0  0
   -2.2571   -1.3898    1.4629 C   0  0  0  0  0  0  0  0  0  0  0  0
   -2.1498   -2.9141    1.3173 C   0  0  0  0  0  0  0  0  0  0  0  0
    0.6121    0.1467   -0.0306 C   0  0  2  0  0  0  0  0  0  0  0  0
    0.2083    1.4499   -0.3868 N   0  0  0  0  0  0  0  0  0  0  0  0
    0.6675    2.5073    0.4931 C   0  0  0  0  0  0  0  0  0  0  0  0
    1.5465    2.0618    1.4642 O   0  0  0  0  0  0  0  0  0  0  0  0
   -0.4834    3.2406    1.1677 C   0  0  0  0  0  0  0  0  0  0  0  0
   -1.2872    3.8942    0.1716 N   0  0  0  0  0  0  0  0  0  0  0  0
   -1.4996    3.0373   -0.9845 C   0  0  0  0  0  0  0  0  0  0  0  0
   -0.7284    3.4361   -2.0684 O   0  0  0  0  0  0  0  0  0  0  0  0
   -1.2181    1.6368   -0.5451 C   0  0  1  0  0  0  0  0  0  0  0  0
   -1.7077    0.5757   -1.4879 C   0  0  0  0  0  0  0  0  0  0  0  0
   -0.7174    5.1354   -0.2965 C   0  0  0  0  0  0  0  0  0  0  0  0
    1.7055   -0.4435   -0.9324 C   0  0  0  0  0  0  0  0  0  0  0  0
    2.7991    0.5446   -1.1942 C   0  0  0  0  0  0  0  0  0  0  0  0
    4.0615    0.2857   -0.3904 C   0  0  0  0  0  0  0  0  0  0  0  0
    4.5308   -1.0828   -0.9061 C   0  0  0  0  0  0  0  0  0  0  0  0
    5.7239   -1.3729   -0.2689 O   0  0  0  0  0  0  0  0  0  0  0  0
    5.4499   -2.3176    0.7028 C   0  0  0  0  0  0  0  0  0  0  0  0
    4.0933   -2.2938    0.9357 O   0  0  0  0  0  0  0  0  0  0  0  0
    3.5838   -2.0794   -0.3685 C   0  0  0  0  0  0  0  0  0  0  0  0
    2.1490   -1.7422   -0.3698 C   0  0  0  0  0  0  0  0  0  0  0  0
   -3.5051   -4.5205    1.0589 H   0  0  0  0  0  0  0  0  0  0  0  0
   -3.8361   -3.4929    2.4760 H   0  0  0  0  0  0  0  0  0  0  0  0
   -5.2037   -2.0319    1.2975 H   0  0  0  0  0  0  0  0  0  0  0  0
   -5.2013   -3.3559    0.1061 H   0  0  0  0  0  0  0  0  0  0  0  0
   -3.4025   -2.4742   -1.1569 H   0  0  0  0  0  0  0  0  0  0  0  0
   -4.6215   -1.1829   -0.9109 H   0  0  0  0  0  0  0  0  0  0  0  0
   -3.2983    0.1244    0.4160 H   0  0  0  0  0  0  0  0  0  0  0  0
   -1.7199   -1.5365   -1.5155 H   0  0  0  0  0  0  0  0  0  0  0  0
   -0.0776   -1.9109   -0.0249 H   0  0  0  0  0  0  0  0  0  0  0  0
   -0.7874    0.0013    2.0139 H   0  0  0  0  0  0  0  0  0  0  0  0
   -2.8493   -1.1424    2.3515 H   0  0  0  0  0  0  0  0  0  0  0  0
   -1.7726   -3.1217    0.2862 H   0  0  0  0  0  0  0  0  0  0  0  0
   -1.5172   -3.3533    2.0969 H   0  0  0  0  0  0  0  0  0  0  0  0
    1.1358    0.2375    0.9711 H   0  0  0  0  0  0  0  0  0  0  0  0
    1.2071    3.3220   -0.0759 H   0  0  0  0  0  0  0  0  0  0  0  0
    1.2448    2.2115    2.3813 H   0  0  0  0  0  0  0  0  0  0  0  0
   -1.0209    2.6461    1.8984 H   0  0  0  0  0  0  0  0  0  0  0  0
    0.0176    4.0689    1.7515 H   0  0  0  0  0  0  0  0  0  0  0  0
   -2.5629    3.1563   -1.2779 H   0  0  0  0  0  0  0  0  0  0  0  0
   -1.2746    3.6145   -2.8872 H   0  0  0  0  0  0  0  0  0  0  0  0
   -1.7781    1.4822    0.4120 H   0  0  0  0  0  0  0  0  0  0  0  0
   -1.0100    0.5111   -2.3354 H   0  0  0  0  0  0  0  0  0  0  0  0
   -2.7695    0.7355   -1.8072 H   0  0  0  0  0  0  0  0  0  0  0  0
   -0.1943    5.7032    0.4931 H   0  0  0  0  0  0  0  0  0  0  0  0
    0.0164    4.9632   -1.1346 H   0  0  0  0  0  0  0  0  0  0  0  0
   -1.5475    5.7182   -0.7489 H   0  0  0  0  0  0  0  0  0  0  0  0
    1.1873   -0.6152   -1.9004 H   0  0  0  0  0  0  0  0  0  0  0  0
    2.5065    1.5801   -1.0658 H   0  0  0  0  0  0  0  0  0  0  0  0
    3.1280    0.4482   -2.2727 H   0  0  0  0  0  0  0  0  0  0  0  0
    3.8848    0.1797    0.6772 H   0  0  0  0  0  0  0  0  0  0  0  0
    4.8162    1.0056   -0.6943 H   0  0  0  0  0  0  0  0  0  0  0  0
    4.6204   -1.0751   -2.0105 H   0  0  0  0  0  0  0  0  0  0  0  0
    5.7065   -3.3400    0.3107 H   0  0  0  0  0  0  0  0  0  0  0  0
    5.9670   -2.1216    1.6643 H   0  0  0  0  0  0  0  0  0  0  0  0
    3.8007   -3.0581   -0.8924 H   0  0  0  0  0  0  0  0  0  0  0  0
    1.7986   -1.8469    0.7024 H   0  0  0  0  0  0  0  0  0  0  0  0
    1.6103   -2.5891   -0.8939 H   0  0  0  0  0  0  0  0  0  0  0  0
   -3.5051   -4.5205    1.0589 H   0  0  0  0  0  0  0  0  0  0  0  0
   -3.8361   -3.4929    2.4760 H   0  0  0  0  0  0  0  0  0  0  0  0
   -5.2037   -2.0319    1.2975 H   0  0  0  0  0  0  0  0  0  0  0  0
   -5.2013   -3.3559    0.1061 H   0  0  0  0  0  0  0  0  0  0  0  0
   -3.4025   -2.4742   -1.1569 H   0  0  0  0  0  0  0  0  0  0  0  0
   -4.6215   -1.1829   -0.9109 H   0  0  0  0  0  0  0  0  0  0  0  0
   -3.2983    0.1244    0.4160 H   0  0  0  0  0  0  0  0  0  0  0  0
   -1.7199   -1.5365   -1.5155 H   0  0  0  0  0  0  0  0  0  0  0  0
   -0.0776   -1.9109   -0.0249 H   0  0  0  0  0  0  0  0  0  0  0  0
   -0.7874    0.0013    2.0139 H   0  0  0  0  0  0  0  0  0  0  0  0
   -2.8493   -1.1424    2.3515 H   0  0  0  0  0  0  0  0  0  0  0  0
   -1.7726   -3.1217    0.2862 H   0  0  0  0  0  0  0  0  0  0  0  0
   -1.5172   -3.3533    2.0969 H   0  0  0  0  0  0  0  0  0  0  0  0
    1.1358    0.2375    0.9711 H   0  0  0  0  0  0  0  0  0  0  0  0
    1.2071    3.3220   -0.0759 H   0  0  0  0  0  0  0  0  0  0  0  0
    1.2448    2.2115    2.3813 H   0  0  0  0  0  0  0  0  0  0  0  0
   -1.0209    2.6461    1.8984 H   0  0  0  0  0  0  0  0  0  0  0  0
    0.0176    4.0689    1.7515 H   0  0  0  0  0  0  0  0  0  0  0  0
   -2.5629    3.1563   -1.2779 H   0  0  0  0  0  0  0  0  0  0  0  0
   -1.2746    3.6145   -2.8872 H   0  0  0  0  0  0  0  0  0  0  0  0
   -1.7781    1.4822    0.4120 H   0  0  0  0  0  0  0  0  0  0  0  0
   -1.0100    0.5111   -2.3354 H   0  0  0  0  0  0  0  0  0  0  0  0
   -2.7695    0.7355   -1.8072 H   0  0  0  0  0  0  0  0  0  0  0  0
   -0.1943    5.7032    0.4931 H   0  0  0  0  0  0  0  0  0  0  0  0
    0.0164    4.9632   -1.1346 H   0  0  0  0  0  0  0  0  0  0  0  0
   -1.5475    5.7182   -0.7489 H   0  0  0  0  0  0  0  0  0  0  0  0
    1.1873   -0.6152   -1.9004 H   0  0  0  0  0  0  0  0  0  0  0  0
    2.5065    1.5801   -1.0658 H   0  0  0  0  0  0  0  0  0  0  0  0
    3.1280    0.4482   -2.2727 H   0  0  0  0  0  0  0  0  0  0  0  0
    3.8848    0.1797    0.6772 H   0  0  0  0  0  0  0  0  0  0  0  0
    4.8162    1.0056   -0.6943 H   0  0  0  0  0  0  0  0  0  0  0  0
    4.6204   -1.0751   -2.0105 H   0  0  0  0  0  0  0  0  0  0  0  0
    5.7065   -3.3400    0.3107 H   0  0  0  0  0  0  0  0  0  0  0  0
    5.9670   -2.1216    1.6643 H   0  0  0  0  0  0  0  0  0  0  0  0
    3.8007   -3.0581   -0.8924 H   0  0  0  0  0  0  0  0  0  0  0  0
    1.7986   -1.8469    0.7024 H   0  0  0  0  0  0  0  0  0  0  0  0
    1.6103   -2.5891   -0.8939 H   0  0  0  0  0  0  0  0  0  0  0  0
  1  2  1  0
  2  3  1  0
  3  4  1  0
  4  5  1  0
  5  6  1  0
  6  7  1  0
  4  8  1  0
  7  8  1  0
  1  9  1  0
  8  9  1  0
  6 10  1  0
 10 11  1  0
 11 12  1  0
 12 13  1  0
 12 14  1  0
 14 15  1  0
 15 16  1  0
 16 17  1  0
 11 18  1  0
 16 18  1  0
  5 19  1  0
 18 19  1  0
 15 20  1  0
 10 21  1  0
 21 22  1  0
 22 23  1  0
 23 24  1  0
 24 25  1  0
 25 26  1  0
 26 27  1  0
 24 28  1  0
 27 28  1  0
 21 29  1  0
 28 29  1  0
 30 31  1  0
 31 32  1  0
 32 33  1  0
 33 34  1  0
 34 35  1  0
 35 36  1  0
 33 37  1  0
 36 37  1  0
 30 38  1  0
 37 38  1  0
 35 39  1  0
 39 40  1  0
 40 41  1  0
 41 42  1  0
 41 43  1  0
 43 44  1  0
 44 45  1  0
 45 46  1  0
 40 47  1  0
 45 47  1  0
 34 48  1  0
 47 48  1  0
 44 49  1  0
 39 50  1  0
 50 51  1  0
 51 52  1  0
 52 53  1  0
 53 54  1  0
 54 55  1  0
 55 56  1  0
 53 57  1  0
 56 57  1  0
 50 58  1  0
 57 58  1  0
  1 59  1  0
  1 60  1  0
  2 61  1  0
  2 62  1  0
  3 63  1  0
  3 64  1  0
  4 65  1  0
  5 66  1  0
  6 67  1  0
  7 68  1  0
  8 69  1  0
  9 70  1  0
  9 71  1  0
 10 72  1  1
 12 73  1  0
 13 74  1  0
 14 75  1  0
 14 76  1  0
 16 77  1  0
 17 78  1  0
 18 79  1  1
 19 80  1  0
 19 81  1  0
 20 82  1  0
 20 83  1  0
 20 84  1  0
 21 85  1  0
 22 86  1  0
 22 87  1  0
 23 88  1  0
 23 89  1  0
 24 90  1  0
 26 91  1  0
 26 92  1  0
 28 93  1  0
 29 94  1  0
 29 95  1  0
 30 96  1  0
 30 97  1  0
 31 98  1  0
 31 99  1  0
 32100  1  0
 32101  1  0
 33102  1  0
 34103  1  0
 35104  1  0
 36105  1  0
 37106  1  0
 38107  1  0
 38108  1  0
 39109  1  1
 41110  1  0
 42111  1  0
 43112  1  0
 43113  1  0
 45114  1  0
 46115  1  0
 47116  1  1
 48117  1  0
 48118  1  0
 49119  1  0
 49120  1  0
 49121  1  0
 50122  1  0
 51123  1  0
 51124  1  0
 52125  1  0
 52126  1  0
 53127  1  0
 55128  1  0
 55129  1  0
 57130  1  0
 58131  1  0
 58132  1  0
M  END
>  <PDBID>  (1) 
1UDU

>  <PDB ID>  (1) 
1UDU

>  <Generic Name>  (1) 
Tadalafil

>  <Brand Name>  (1) 
Act Tadalafil#Adcirca#Apo-tadalafil#Apo-tadalafil Pah#Auro-tadalafil#Cialis#Dom-tadalafil#Ipg-tadalafil#Jamp-tadalafil#Mar-tadalafil#Mint-tadalafil#Mylan-tadalafil#PMS-tadalafil#Priva-tadalafil#Ran-tadalafil#Riva-tadalafil#Tadalafil#Teva-tadalafil

>  <DrugBank ID>  (1) 
DB00820

>  <ATC Codes>  (1) 
G04BE08

>  <Ligand ID>  (1) 
CIA

>  <Target Name>  (1) 
cGMP-specific 3',5'-cyclic phosphodiesterase

>  <UniProt ID>  (1) 
O76074

>  <PDB ID.1>  (1) 
1UDU

>  <Seq. Identity>  (1) 
94%

$$$$
