PDB_DB00674_00
     RDKit          3D

100106  0  0  0  0  0  0  0  0999 V2000
   -2.3266    0.2388    0.3195 C   0  0  0  0  0  0  0  0  0  0  0  0
   -2.9441   -1.0923    0.7503 C   0  0  0  0  0  0  0  0  0  0  0  0
   -3.3099   -1.7606   -0.5504 C   0  0  1  0  0  0  0  0  0  0  0  0
   -2.0721   -2.1080   -1.2863 C   0  0  0  0  0  0  0  0  0  0  0  0
   -0.8987   -1.2587   -1.1106 C   0  0  1  0  0  0  0  0  0  0  0  0
   -1.0265    0.0410   -0.4158 C   0  0  1  0  0  0  0  0  0  0  0  0
    0.0671   -2.0150   -0.3998 O   0  0  0  0  0  0  0  0  0  0  0  0
    2.1082   -1.4949    0.7931 C   0  0  0  0  0  0  0  0  0  0  0  0
    2.3116   -0.4041    1.8309 C   0  0  0  0  0  0  0  0  0  0  0  0
    2.3058    0.9582    1.1984 C   0  0  0  0  0  0  0  0  0  0  0  0
    0.3961    2.5030    0.9341 C   0  0  0  0  0  0  0  0  0  0  0  0
   -0.1823    3.1767   -0.1818 N   0  0  0  0  0  0  0  0  0  0  0  0
   -1.2610    2.5175   -0.8187 C   0  0  0  0  0  0  0  0  0  0  0  0
   -0.9635    1.1816   -1.4240 C   0  0  0  0  0  0  0  0  0  0  0  0
    1.0164   -1.0683   -0.1196 C   0  0  0  0  0  0  0  0  0  0  0  0
    0.1676    0.0357    0.5139 C   0  0  0  0  0  0  0  0  0  0  0  0
    1.0329    1.2395    0.4229 C   0  0  0  0  0  0  0  0  0  0  0  0
    3.8169   -2.9537    0.2841 C   0  0  0  0  0  0  0  0  0  0  0  0
    3.3111   -1.6512    0.1131 O   0  0  0  0  0  0  0  0  0  0  0  0
   -4.0607   -2.8937   -0.2362 O   0  0  0  0  0  0  0  0  0  0  0  0
    0.7870    3.7681   -1.0344 C   0  0  0  0  0  0  0  0  0  0  0  0
   -2.3266    0.2388    0.3195 C   0  0  0  0  0  0  0  0  0  0  0  0
   -2.9441   -1.0923    0.7503 C   0  0  0  0  0  0  0  0  0  0  0  0
   -3.3099   -1.7606   -0.5504 C   0  0  1  0  0  0  0  0  0  0  0  0
   -2.0721   -2.1080   -1.2863 C   0  0  0  0  0  0  0  0  0  0  0  0
   -0.8987   -1.2587   -1.1106 C   0  0  1  0  0  0  0  0  0  0  0  0
   -1.0265    0.0410   -0.4158 C   0  0  1  0  0  0  0  0  0  0  0  0
    0.0671   -2.0150   -0.3998 O   0  0  0  0  0  0  0  0  0  0  0  0
    2.1082   -1.4949    0.7931 C   0  0  0  0  0  0  0  0  0  0  0  0
    2.3116   -0.4041    1.8309 C   0  0  0  0  0  0  0  0  0  0  0  0
    2.3058    0.9582    1.1984 C   0  0  0  0  0  0  0  0  0  0  0  0
    0.3961    2.5030    0.9341 C   0  0  0  0  0  0  0  0  0  0  0  0
   -0.1823    3.1767   -0.1818 N   0  0  0  0  0  0  0  0  0  0  0  0
   -1.2610    2.5175   -0.8187 C   0  0  0  0  0  0  0  0  0  0  0  0
   -0.9635    1.1816   -1.4240 C   0  0  0  0  0  0  0  0  0  0  0  0
    1.0164   -1.0683   -0.1196 C   0  0  0  0  0  0  0  0  0  0  0  0
    0.1676    0.0357    0.5139 C   0  0  0  0  0  0  0  0  0  0  0  0
    1.0329    1.2395    0.4229 C   0  0  0  0  0  0  0  0  0  0  0  0
    3.8169   -2.9537    0.2841 C   0  0  0  0  0  0  0  0  0  0  0  0
    3.3111   -1.6512    0.1131 O   0  0  0  0  0  0  0  0  0  0  0  0
   -4.0607   -2.8937   -0.2362 O   0  0  0  0  0  0  0  0  0  0  0  0
    0.7870    3.7681   -1.0344 C   0  0  0  0  0  0  0  0  0  0  0  0
   -3.0827    0.6541   -0.3873 H   0  0  0  0  0  0  0  0  0  0  0  0
   -2.2488    0.8618    1.2051 H   0  0  0  0  0  0  0  0  0  0  0  0
   -2.2813   -1.6773    1.3791 H   0  0  0  0  0  0  0  0  0  0  0  0
   -3.9142   -0.8170    1.2433 H   0  0  0  0  0  0  0  0  0  0  0  0
   -3.9870   -1.0747   -1.0953 H   0  0  0  0  0  0  0  0  0  0  0  0
   -1.8657   -3.1980   -1.0534 H   0  0  0  0  0  0  0  0  0  0  0  0
   -2.3492   -2.1465   -2.3848 H   0  0  0  0  0  0  0  0  0  0  0  0
   -0.3922   -1.0671   -2.1040 H   0  0  0  0  0  0  0  0  0  0  0  0
    1.8013   -2.4189    1.3227 H   0  0  0  0  0  0  0  0  0  0  0  0
    1.5777   -0.4652    2.6578 H   0  0  0  0  0  0  0  0  0  0  0  0
    3.3401   -0.5622    2.2360 H   0  0  0  0  0  0  0  0  0  0  0  0
    2.4207    1.7077    2.0082 H   0  0  0  0  0  0  0  0  0  0  0  0
    3.2162    1.0402    0.5692 H   0  0  0  0  0  0  0  0  0  0  0  0
   -0.2972    2.3323    1.7741 H   0  0  0  0  0  0  0  0  0  0  0  0
    1.2178    3.1397    1.3290 H   0  0  0  0  0  0  0  0  0  0  0  0
   -1.6196    3.1705   -1.6444 H   0  0  0  0  0  0  0  0  0  0  0  0
   -2.0926    2.4160   -0.1128 H   0  0  0  0  0  0  0  0  0  0  0  0
   -1.8364    0.9737   -2.1182 H   0  0  0  0  0  0  0  0  0  0  0  0
   -0.0837    1.1449   -2.0646 H   0  0  0  0  0  0  0  0  0  0  0  0
    1.3995   -0.6190   -1.0822 H   0  0  0  0  0  0  0  0  0  0  0  0
   -0.1181   -0.2122    1.5534 H   0  0  0  0  0  0  0  0  0  0  0  0
    1.3414    1.3904   -0.6304 H   0  0  0  0  0  0  0  0  0  0  0  0
    4.7735   -3.0568   -0.2645 H   0  0  0  0  0  0  0  0  0  0  0  0
    3.0603   -3.6941   -0.0465 H   0  0  0  0  0  0  0  0  0  0  0  0
    4.0330   -3.1694    1.3447 H   0  0  0  0  0  0  0  0  0  0  0  0
   -3.5455   -3.3886    0.4578 H   0  0  0  0  0  0  0  0  0  0  0  0
    1.1203    3.0658   -1.8165 H   0  0  0  0  0  0  0  0  0  0  0  0
    0.4333    4.7350   -1.4459 H   0  0  0  0  0  0  0  0  0  0  0  0
    1.7035    3.9756   -0.4123 H   0  0  0  0  0  0  0  0  0  0  0  0
   -3.0827    0.6541   -0.3873 H   0  0  0  0  0  0  0  0  0  0  0  0
   -2.2488    0.8618    1.2051 H   0  0  0  0  0  0  0  0  0  0  0  0
   -2.2813   -1.6773    1.3791 H   0  0  0  0  0  0  0  0  0  0  0  0
   -3.9142   -0.8170    1.2433 H   0  0  0  0  0  0  0  0  0  0  0  0
   -3.9870   -1.0747   -1.0953 H   0  0  0  0  0  0  0  0  0  0  0  0
   -1.8657   -3.1980   -1.0534 H   0  0  0  0  0  0  0  0  0  0  0  0
   -2.3492   -2.1465   -2.3848 H   0  0  0  0  0  0  0  0  0  0  0  0
   -0.3922   -1.0671   -2.1040 H   0  0  0  0  0  0  0  0  0  0  0  0
    1.8013   -2.4189    1.3227 H   0  0  0  0  0  0  0  0  0  0  0  0
    1.5777   -0.4652    2.6578 H   0  0  0  0  0  0  0  0  0  0  0  0
    3.3401   -0.5622    2.2360 H   0  0  0  0  0  0  0  0  0  0  0  0
    2.4207    1.7077    2.0082 H   0  0  0  0  0  0  0  0  0  0  0  0
    3.2162    1.0402    0.5692 H   0  0  0  0  0  0  0  0  0  0  0  0
   -0.2972    2.3323    1.7741 H   0  0  0  0  0  0  0  0  0  0  0  0
    1.2178    3.1397    1.3290 H   0  0  0  0  0  0  0  0  0  0  0  0
   -1.6196    3.1705   -1.6444 H   0  0  0  0  0  0  0  0  0  0  0  0
   -2.0926    2.4160   -0.1128 H   0  0  0  0  0  0  0  0  0  0  0  0
   -1.8364    0.9737   -2.1182 H   0  0  0  0  0  0  0  0  0  0  0  0
   -0.0837    1.1449   -2.0646 H   0  0  0  0  0  0  0  0  0  0  0  0
    1.3995   -0.6190   -1.0822 H   0  0  0  0  0  0  0  0  0  0  0  0
   -0.1181   -0.2122    1.5534 H   0  0  0  0  0  0  0  0  0  0  0  0
    1.3414    1.3904   -0.6304 H   0  0  0  0  0  0  0  0  0  0  0  0
    4.7735   -3.0568   -0.2645 H   0  0  0  0  0  0  0  0  0  0  0  0
    3.0603   -3.6941   -0.0465 H   0  0  0  0  0  0  0  0  0  0  0  0
    4.0330   -3.1694    1.3447 H   0  0  0  0  0  0  0  0  0  0  0  0
   -3.5455   -3.3886    0.4578 H   0  0  0  0  0  0  0  0  0  0  0  0
    1.1203    3.0658   -1.8165 H   0  0  0  0  0  0  0  0  0  0  0  0
    0.4333    4.7350   -1.4459 H   0  0  0  0  0  0  0  0  0  0  0  0
    1.7035    3.9756   -0.4123 H   0  0  0  0  0  0  0  0  0  0  0  0
  1  2  1  0
  2  3  1  0
  3  4  1  0
  4  5  1  0
  6  1  1  1
  5  6  1  0
  5  7  1  0
  8  9  1  0
  9 10  1  0
 11 12  1  0
 12 13  1  0
  6 14  1  0
 13 14  1  0
  7 15  1  0
  8 15  1  0
  6 16  1  0
 15 16  1  0
 10 17  1  0
 11 17  1  0
 16 17  1  0
  8 19  1  0
 18 19  1  0
  3 20  1  0
 12 21  1  0
 22 23  1  0
 23 24  1  0
 24 25  1  0
 25 26  1  0
 27 22  1  1
 26 27  1  0
 26 28  1  0
 29 30  1  0
 30 31  1  0
 32 33  1  0
 33 34  1  0
 27 35  1  0
 34 35  1  0
 28 36  1  0
 29 36  1  0
 27 37  1  0
 36 37  1  0
 31 38  1  0
 32 38  1  0
 37 38  1  0
 29 40  1  0
 39 40  1  0
 24 41  1  0
 33 42  1  0
  1 43  1  0
  1 44  1  0
  2 45  1  0
  2 46  1  0
  3 47  1  6
  4 48  1  0
  4 49  1  0
  5 50  1  6
  8 51  1  0
  9 52  1  0
  9 53  1  0
 10 54  1  0
 10 55  1  0
 11 56  1  0
 11 57  1  0
 13 58  1  0
 13 59  1  0
 14 60  1  0
 14 61  1  0
 15 62  1  0
 16 63  1  0
 17 64  1  0
 18 65  1  0
 18 66  1  0
 18 67  1  0
 20 68  1  0
 21 69  1  0
 21 70  1  0
 21 71  1  0
 22 72  1  0
 22 73  1  0
 23 74  1  0
 23 75  1  0
 24 76  1  6
 25 77  1  0
 25 78  1  0
 26 79  1  6
 29 80  1  0
 30 81  1  0
 30 82  1  0
 31 83  1  0
 31 84  1  0
 32 85  1  0
 32 86  1  0
 34 87  1  0
 34 88  1  0
 35 89  1  0
 35 90  1  0
 36 91  1  0
 37 92  1  0
 38 93  1  0
 39 94  1  0
 39 95  1  0
 39 96  1  0
 41 97  1  0
 42 98  1  0
 42 99  1  0
 42100  1  0
M  END
>  <PDBID>  (1) 
4EY6

>  <PDB ID>  (1) 
4EY6

>  <Generic Name>  (1) 
Galantamine

>  <Brand Name>  (1) 
Apo-galantamine#Auro-galantamine ER#Galantamine#Galantamine ER#Galantamine Hydrobromide#Ipg-galantamine ER#Mar-galantamine ER#Mylan-galantamine ER#PMS-galantamine#PMS-galantamine ER#Pat-galantamine ER#Pendo-galantamine ER#Ratio-galantamine#Razadyne#Reminyl   -(12mg)#Reminyl   -(4mg)#Reminyl   -(8mg)#Reminyl ER#Sandoz Galantamine ER#Teva-galantamine ER#Lycoremine#Nivalin#Reminyl

>  <DrugBank ID>  (1) 
DB00674

>  <ATC Codes>  (1) 
N06DA04

>  <Ligand ID>  (1) 
GNT

>  <Target Name>  (1) 
Acetylcholinesterase

>  <UniProt ID>  (1) 
P22303

>  <PDB ID.1>  (1) 
4EY6

>  <Seq. Identity>  (1) 
97%

$$$$
