PDB_DB00625_07
     RDKit          3D

 42 44  0  0  0  0  0  0  0  0999 V2000
   -2.1675    3.1406    2.0786 Cl  0  0  0  0  0  0  0  0  0  0  0  0
    1.9403   -2.2372   -0.8781 F   0  0  0  0  0  0  0  0  0  0  0  0
    1.1210   -1.6343    1.1872 F   0  0  0  0  0  0  0  0  0  0  0  0
   -0.1377   -2.6773   -0.2644 F   0  0  0  0  0  0  0  0  0  0  0  0
   -1.0598   -2.8651   -2.6458 O   0  0  0  0  0  0  0  0  0  0  0  0
   -0.0573   -0.9927   -2.0073 O   0  0  0  0  0  0  0  0  0  0  0  0
   -2.2496   -1.5044   -1.2707 N   0  0  0  0  0  0  0  0  0  0  0  0
   -2.1905   -0.3408   -0.4373 C   0  0  1  0  0  0  0  0  0  0  0  0
   -3.1081   -0.5623    0.7372 C   0  0  0  0  0  0  0  0  0  0  0  0
   -3.0402    0.6933    1.5811 C   0  0  0  0  0  0  0  0  0  0  0  0
   -2.3039    1.8008    0.9074 C   0  0  0  0  0  0  0  0  0  0  0  0
   -0.8694    1.4080    0.4996 C   0  0  0  0  0  0  0  0  0  0  0  0
   -0.8015   -0.0288    0.0873 C   0  0  0  0  0  0  0  0  0  0  0  0
    0.3124   -0.4543   -0.7734 C   0  0  2  0  0  0  0  0  0  0  0  0
    1.3704    0.5175   -1.1287 C   0  0  0  0  0  0  0  0  0  0  0  0
    2.0758    1.3389   -0.1640 C   0  0  0  0  0  0  0  0  0  0  0  0
    2.8511    0.6352    0.9260 C   0  0  0  0  0  0  0  0  0  0  0  0
    3.9376   -0.2682    0.5597 C   0  0  0  0  0  0  0  0  0  0  0  0
    4.3145    1.0516    1.1478 C   0  0  0  0  0  0  0  0  0  0  0  0
    0.9064   -1.7446   -0.1454 C   0  0  0  0  0  0  0  0  0  0  0  0
   -1.2111   -1.5343   -2.2582 C   0  0  0  0  0  0  0  0  0  0  0  0
   -1.8178   -3.4353   -2.3758 H   0  0  0  0  0  0  0  0  0  0  0  0
   -3.1975   -1.5189   -1.7092 H   0  0  0  0  0  0  0  0  0  0  0  0
   -2.5396    0.5449   -1.0249 H   0  0  0  0  0  0  0  0  0  0  0  0
   -2.6400   -1.3817    1.3564 H   0  0  0  0  0  0  0  0  0  0  0  0
   -4.1250   -0.8354    0.4478 H   0  0  0  0  0  0  0  0  0  0  0  0
   -4.0866    1.0364    1.7137 H   0  0  0  0  0  0  0  0  0  0  0  0
   -2.6251    0.5101    2.5829 H   0  0  0  0  0  0  0  0  0  0  0  0
   -2.8764    2.2094    0.0552 H   0  0  0  0  0  0  0  0  0  0  0  0
   -0.6519    2.1349   -0.3039 H   0  0  0  0  0  0  0  0  0  0  0  0
   -0.2932    1.5510    1.4360 H   0  0  0  0  0  0  0  0  0  0  0  0
   -0.7562   -0.6042    1.0715 H   0  0  0  0  0  0  0  0  0  0  0  0
    0.9216    1.1486   -1.9714 H   0  0  0  0  0  0  0  0  0  0  0  0
    2.1839   -0.0320   -1.7232 H   0  0  0  0  0  0  0  0  0  0  0  0
    1.5978    2.1993    0.3108 H   0  0  0  0  0  0  0  0  0  0  0  0
    2.9086    1.8634   -0.7826 H   0  0  0  0  0  0  0  0  0  0  0  0
    2.3368    0.6067    1.9370 H   0  0  0  0  0  0  0  0  0  0  0  0
    4.0929   -1.1986    1.1473 H   0  0  0  0  0  0  0  0  0  0  0  0
    4.1514   -0.3929   -0.5044 H   0  0  0  0  0  0  0  0  0  0  0  0
    4.7014    1.8632    0.4967 H   0  0  0  0  0  0  0  0  0  0  0  0
    4.7513    1.0294    2.1415 H   0  0  0  0  0  0  0  0  0  0  0  0
   -1.6690   -1.0397   -3.1737 H   0  0  0  0  0  0  0  0  0  0  0  0
  7  8  1  0
  8  9  1  0
  9 10  1  0
  1 11  1  0
 10 11  1  0
 11 12  1  0
  8 13  1  0
 12 13  1  0
  6 14  1  0
 13 14  1  0
 14 15  1  6
 15 16  1  0
 16 17  1  0
 17 18  1  0
 17 19  1  0
 18 19  1  0
 20  2  1  0
  3 20  1  0
  4 20  1  0
 14 20  1  0
  5 21  1  0
  6 21  1  0
  7 21  1  0
  5 22  1  0
  7 23  1  0
  8 24  1  6
  9 25  1  0
  9 26  1  0
 10 27  1  0
 10 28  1  0
 11 29  1  0
 12 30  1  0
 12 31  1  0
 13 32  1  0
 15 33  1  0
 15 34  1  0
 16 35  1  0
 16 36  1  0
 17 37  1  0
 18 38  1  0
 18 39  1  0
 19 40  1  0
 19 41  1  0
 21 42  1  0
M  END
>  <PDBID>  (1) 
1JKH

>  <PDB ID>  (1) 
1JKH

>  <Generic Name>  (1) 
Efavirenz

>  <Brand Name>  (1) 
Atripla#Auro-efavirenz#Mylan-efavirenz#Sustiva#Sustiva 100mg#Sustiva 200mg#Sustiva 50mg#Sustiva Tablets#Teva-efavirenz#E.F#Efavir#Efavirenz#Efcure#Efferven#Estiva#Evirenz#Stocrin#Viranz

>  <DrugBank ID>  (1) 
DB00625

>  <ATC Codes>  (1) 
J05AR06#J05AG03#J05AR11

>  <Ligand ID>  (1) 
EFZ

>  <Target Name>  (1) 
Reverse transcriptase/RNaseH

>  <UniProt ID>  (1) 
Q72547

>  <PDB ID.1>  (1) 
1JKH

>  <Seq. Identity>  (1) 
96%

$$$$
