PDB_DB03849_00
     RDKit          3D

124128  0  0  0  0  0  0  0  0999 V2000
    5.8508    1.5151   -0.3515 O   0  0  0  0  0  0  0  0  0  0  0  0
    4.7879    2.3132   -0.7381 C   0  0  0  0  0  0  0  0  0  0  0  0
    4.7296    3.5238   -0.0889 O   0  0  0  0  0  0  0  0  0  0  0  0
    3.4627    1.6047   -0.6202 C   0  0  0  0  0  0  0  0  0  0  0  0
    3.1430    1.1548    0.7636 C   0  0  0  0  0  0  0  0  0  0  0  0
    2.9497   -0.3411    0.8828 C   0  0  0  0  0  0  0  0  0  0  0  0
    3.4163    0.4216   -1.5726 C   0  0  0  0  0  0  0  0  0  0  0  0
    2.0344   -0.2069   -1.3863 C   0  0  0  0  0  0  0  0  0  0  0  0
    1.8830   -0.8606   -0.0431 C   0  0  0  0  0  0  0  0  0  0  0  0
    2.1908   -2.3515   -0.2352 C   0  0  0  0  0  0  0  0  0  0  0  0
    3.5171   -2.4596   -0.8148 N   0  0  0  0  0  0  0  0  0  0  0  0
    0.4947   -0.6656    0.5169 C   0  0  0  0  0  0  0  0  0  0  0  0
    0.2749   -1.3680    1.8064 C   0  0  0  0  0  0  0  0  0  0  0  0
   -0.8341   -2.3891    1.5988 C   0  0  0  0  0  0  0  0  0  0  0  0
   -2.0935   -1.5828    1.3503 C   0  0  0  0  0  0  0  0  0  0  0  0
   -3.1550   -2.4854    1.3748 O   0  0  0  0  0  0  0  0  0  0  0  0
   -4.0245   -2.2643    2.4251 C   0  0  0  0  0  0  0  0  0  0  0  0
   -1.9552   -0.9163    0.0110 C   0  0  0  0  0  0  0  0  0  0  0  0
   -0.5395   -0.9786   -0.5267 C   0  0  0  0  0  0  0  0  0  0  0  0
   -2.3778    0.3810   -0.0238 O   0  0  0  0  0  0  0  0  0  0  0  0
   -3.4069    0.6551   -0.8942 C   0  0  0  0  0  0  0  0  0  0  0  0
   -3.1987    1.8024   -1.7978 C   0  0  0  0  0  0  0  0  0  0  0  0
   -4.0910    2.9295   -1.4004 C   0  0  0  0  0  0  0  0  0  0  0  0
   -4.7517    2.5119   -0.1099 C   0  0  0  0  0  0  0  0  0  0  0  0
   -4.6211    1.0140   -0.0480 C   0  0  0  0  0  0  0  0  0  0  0  0
    5.8508    1.5151   -0.3515 O   0  0  0  0  0  0  0  0  0  0  0  0
    4.7879    2.3132   -0.7381 C   0  0  0  0  0  0  0  0  0  0  0  0
    4.7296    3.5238   -0.0889 O   0  0  0  0  0  0  0  0  0  0  0  0
    3.4627    1.6047   -0.6202 C   0  0  0  0  0  0  0  0  0  0  0  0
    3.1430    1.1548    0.7636 C   0  0  0  0  0  0  0  0  0  0  0  0
    2.9497   -0.3411    0.8828 C   0  0  0  0  0  0  0  0  0  0  0  0
    3.4163    0.4216   -1.5726 C   0  0  0  0  0  0  0  0  0  0  0  0
    2.0344   -0.2069   -1.3863 C   0  0  0  0  0  0  0  0  0  0  0  0
    1.8830   -0.8606   -0.0431 C   0  0  0  0  0  0  0  0  0  0  0  0
    2.1908   -2.3515   -0.2352 C   0  0  0  0  0  0  0  0  0  0  0  0
    3.5171   -2.4596   -0.8148 N   0  0  0  0  0  0  0  0  0  0  0  0
    0.4947   -0.6656    0.5169 C   0  0  0  0  0  0  0  0  0  0  0  0
    0.2749   -1.3680    1.8064 C   0  0  0  0  0  0  0  0  0  0  0  0
   -0.8341   -2.3891    1.5988 C   0  0  0  0  0  0  0  0  0  0  0  0
   -2.0935   -1.5828    1.3503 C   0  0  0  0  0  0  0  0  0  0  0  0
   -3.1550   -2.4854    1.3748 O   0  0  0  0  0  0  0  0  0  0  0  0
   -4.0245   -2.2643    2.4251 C   0  0  0  0  0  0  0  0  0  0  0  0
   -1.9552   -0.9163    0.0110 C   0  0  0  0  0  0  0  0  0  0  0  0
   -0.5395   -0.9786   -0.5267 C   0  0  0  0  0  0  0  0  0  0  0  0
   -2.3778    0.3810   -0.0238 O   0  0  0  0  0  0  0  0  0  0  0  0
   -3.4069    0.6551   -0.8942 C   0  0  0  0  0  0  0  0  0  0  0  0
   -3.1987    1.8024   -1.7978 C   0  0  0  0  0  0  0  0  0  0  0  0
   -4.0910    2.9295   -1.4004 C   0  0  0  0  0  0  0  0  0  0  0  0
   -4.7517    2.5119   -0.1099 C   0  0  0  0  0  0  0  0  0  0  0  0
   -4.6211    1.0140   -0.0480 C   0  0  0  0  0  0  0  0  0  0  0  0
    5.7618    1.1445    0.5517 H   0  0  0  0  0  0  0  0  0  0  0  0
    4.9374    2.5232   -1.8328 H   0  0  0  0  0  0  0  0  0  0  0  0
    4.3234    4.1901   -0.7171 H   0  0  0  0  0  0  0  0  0  0  0  0
    2.6840    2.3302   -0.9757 H   0  0  0  0  0  0  0  0  0  0  0  0
    2.1913    1.6261    1.1325 H   0  0  0  0  0  0  0  0  0  0  0  0
    3.9189    1.4396    1.5038 H   0  0  0  0  0  0  0  0  0  0  0  0
    2.7181   -0.5509    1.9331 H   0  0  0  0  0  0  0  0  0  0  0  0
    3.9297   -0.8076    0.6671 H   0  0  0  0  0  0  0  0  0  0  0  0
    4.2342   -0.2726   -1.4051 H   0  0  0  0  0  0  0  0  0  0  0  0
    3.4170    0.8145   -2.6259 H   0  0  0  0  0  0  0  0  0  0  0  0
    1.3252    0.6692   -1.4699 H   0  0  0  0  0  0  0  0  0  0  0  0
    1.7742   -0.8759   -2.2161 H   0  0  0  0  0  0  0  0  0  0  0  0
    1.4986   -2.8213   -0.9506 H   0  0  0  0  0  0  0  0  0  0  0  0
    2.2336   -2.8749    0.7385 H   0  0  0  0  0  0  0  0  0  0  0  0
    3.5189   -2.8212   -1.7753 H   0  0  0  0  0  0  0  0  0  0  0  0
    4.1881   -2.9545   -0.2107 H   0  0  0  0  0  0  0  0  0  0  0  0
    0.4150    0.4525    0.6785 H   0  0  0  0  0  0  0  0  0  0  0  0
   -0.1038   -0.6453    2.5583 H   0  0  0  0  0  0  0  0  0  0  0  0
    1.1752   -1.8290    2.2540 H   0  0  0  0  0  0  0  0  0  0  0  0
   -0.9350   -3.0629    2.4729 H   0  0  0  0  0  0  0  0  0  0  0  0
   -0.6727   -3.0135    0.6981 H   0  0  0  0  0  0  0  0  0  0  0  0
   -2.1806   -0.8720    2.1934 H   0  0  0  0  0  0  0  0  0  0  0  0
   -4.8242   -3.0323    2.3496 H   0  0  0  0  0  0  0  0  0  0  0  0
   -4.5109   -1.2754    2.3464 H   0  0  0  0  0  0  0  0  0  0  0  0
   -3.4734   -2.3413    3.3890 H   0  0  0  0  0  0  0  0  0  0  0  0
   -2.5661   -1.5019   -0.7096 H   0  0  0  0  0  0  0  0  0  0  0  0
   -0.3391   -1.9552   -1.0107 H   0  0  0  0  0  0  0  0  0  0  0  0
   -0.4997   -0.2240   -1.3473 H   0  0  0  0  0  0  0  0  0  0  0  0
   -3.7017   -0.2972   -1.4247 H   0  0  0  0  0  0  0  0  0  0  0  0
   -3.4592    1.4981   -2.8482 H   0  0  0  0  0  0  0  0  0  0  0  0
   -2.1638    2.1852   -1.8483 H   0  0  0  0  0  0  0  0  0  0  0  0
   -4.8497    3.1516   -2.1946 H   0  0  0  0  0  0  0  0  0  0  0  0
   -3.5355    3.8904   -1.2593 H   0  0  0  0  0  0  0  0  0  0  0  0
   -5.8144    2.8377   -0.1737 H   0  0  0  0  0  0  0  0  0  0  0  0
   -4.2828    3.0365    0.7273 H   0  0  0  0  0  0  0  0  0  0  0  0
   -5.5439    0.5585   -0.4072 H   0  0  0  0  0  0  0  0  0  0  0  0
   -4.4739    0.7236    1.0190 H   0  0  0  0  0  0  0  0  0  0  0  0
    5.7618    1.1445    0.5517 H   0  0  0  0  0  0  0  0  0  0  0  0
    4.9374    2.5232   -1.8328 H   0  0  0  0  0  0  0  0  0  0  0  0
    4.3234    4.1901   -0.7171 H   0  0  0  0  0  0  0  0  0  0  0  0
    2.6840    2.3302   -0.9757 H   0  0  0  0  0  0  0  0  0  0  0  0
    2.1913    1.6261    1.1325 H   0  0  0  0  0  0  0  0  0  0  0  0
    3.9189    1.4396    1.5038 H   0  0  0  0  0  0  0  0  0  0  0  0
    2.7181   -0.5509    1.9331 H   0  0  0  0  0  0  0  0  0  0  0  0
    3.9297   -0.8076    0.6671 H   0  0  0  0  0  0  0  0  0  0  0  0
    4.2342   -0.2726   -1.4051 H   0  0  0  0  0  0  0  0  0  0  0  0
    3.4170    0.8145   -2.6259 H   0  0  0  0  0  0  0  0  0  0  0  0
    1.3252    0.6692   -1.4699 H   0  0  0  0  0  0  0  0  0  0  0  0
    1.7742   -0.8759   -2.2161 H   0  0  0  0  0  0  0  0  0  0  0  0
    1.4986   -2.8213   -0.9506 H   0  0  0  0  0  0  0  0  0  0  0  0
    2.2336   -2.8749    0.7385 H   0  0  0  0  0  0  0  0  0  0  0  0
    3.5189   -2.8212   -1.7753 H   0  0  0  0  0  0  0  0  0  0  0  0
    4.1881   -2.9545   -0.2107 H   0  0  0  0  0  0  0  0  0  0  0  0
    0.4150    0.4525    0.6785 H   0  0  0  0  0  0  0  0  0  0  0  0
   -0.1038   -0.6453    2.5583 H   0  0  0  0  0  0  0  0  0  0  0  0
    1.1752   -1.8290    2.2540 H   0  0  0  0  0  0  0  0  0  0  0  0
   -0.9350   -3.0629    2.4729 H   0  0  0  0  0  0  0  0  0  0  0  0
   -0.6727   -3.0135    0.6981 H   0  0  0  0  0  0  0  0  0  0  0  0
   -2.1806   -0.8720    2.1934 H   0  0  0  0  0  0  0  0  0  0  0  0
   -4.8242   -3.0323    2.3496 H   0  0  0  0  0  0  0  0  0  0  0  0
   -4.5109   -1.2754    2.3464 H   0  0  0  0  0  0  0  0  0  0  0  0
   -3.4734   -2.3413    3.3890 H   0  0  0  0  0  0  0  0  0  0  0  0
   -2.5661   -1.5019   -0.7096 H   0  0  0  0  0  0  0  0  0  0  0  0
   -0.3391   -1.9552   -1.0107 H   0  0  0  0  0  0  0  0  0  0  0  0
   -0.4997   -0.2240   -1.3473 H   0  0  0  0  0  0  0  0  0  0  0  0
   -3.7017   -0.2972   -1.4247 H   0  0  0  0  0  0  0  0  0  0  0  0
   -3.4592    1.4981   -2.8482 H   0  0  0  0  0  0  0  0  0  0  0  0
   -2.1638    2.1852   -1.8483 H   0  0  0  0  0  0  0  0  0  0  0  0
   -4.8497    3.1516   -2.1946 H   0  0  0  0  0  0  0  0  0  0  0  0
   -3.5355    3.8904   -1.2593 H   0  0  0  0  0  0  0  0  0  0  0  0
   -5.8144    2.8377   -0.1737 H   0  0  0  0  0  0  0  0  0  0  0  0
   -4.2828    3.0365    0.7273 H   0  0  0  0  0  0  0  0  0  0  0  0
   -5.5439    0.5585   -0.4072 H   0  0  0  0  0  0  0  0  0  0  0  0
   -4.4739    0.7236    1.0190 H   0  0  0  0  0  0  0  0  0  0  0  0
  1  2  1  0
  2  3  1  0
  2  4  1  0
  4  5  1  0
  5  6  1  0
  4  7  1  0
  7  8  1  0
  6  9  1  0
  8  9  1  0
  9 10  1  0
 10 11  1  0
  9 12  1  0
 12 13  1  0
 13 14  1  0
 14 15  1  0
 15 16  1  0
 16 17  1  0
 15 18  1  0
 12 19  1  0
 18 19  1  0
 18 20  1  0
 20 21  1  0
 21 22  1  0
 22 23  1  0
 23 24  1  0
 21 25  1  0
 24 25  1  0
 26 27  1  0
 27 28  1  0
 27 29  1  0
 29 30  1  0
 30 31  1  0
 29 32  1  0
 32 33  1  0
 31 34  1  0
 33 34  1  0
 34 35  1  0
 35 36  1  0
 34 37  1  0
 37 38  1  0
 38 39  1  0
 39 40  1  0
 40 41  1  0
 41 42  1  0
 40 43  1  0
 37 44  1  0
 43 44  1  0
 43 45  1  0
 45 46  1  0
 46 47  1  0
 47 48  1  0
 48 49  1  0
 46 50  1  0
 49 50  1  0
  1 51  1  0
  2 52  1  0
  3 53  1  0
  4 54  1  0
  5 55  1  0
  5 56  1  0
  6 57  1  0
  6 58  1  0
  7 59  1  0
  7 60  1  0
  8 61  1  0
  8 62  1  0
 10 63  1  0
 10 64  1  0
 11 65  1  0
 11 66  1  0
 12 67  1  0
 13 68  1  0
 13 69  1  0
 14 70  1  0
 14 71  1  0
 15 72  1  0
 17 73  1  0
 17 74  1  0
 17 75  1  0
 18 76  1  0
 19 77  1  0
 19 78  1  0
 21 79  1  0
 22 80  1  0
 22 81  1  0
 23 82  1  0
 23 83  1  0
 24 84  1  0
 24 85  1  0
 25 86  1  0
 25 87  1  0
 26 88  1  0
 27 89  1  0
 28 90  1  0
 29 91  1  0
 30 92  1  0
 30 93  1  0
 31 94  1  0
 31 95  1  0
 32 96  1  0
 32 97  1  0
 33 98  1  0
 33 99  1  0
 35100  1  0
 35101  1  0
 36102  1  0
 36103  1  0
 37104  1  0
 38105  1  0
 38106  1  0
 39107  1  0
 39108  1  0
 40109  1  0
 42110  1  0
 42111  1  0
 42112  1  0
 43113  1  0
 44114  1  0
 44115  1  0
 46116  1  0
 47117  1  0
 47118  1  0
 48119  1  0
 48120  1  0
 49121  1  0
 49122  1  0
 50123  1  0
 50124  1  0
M  END
>  <PDBID>  (1) 
1XLX

>  <PDB ID>  (1) 
1XLX

>  <Generic Name>  (1) 
Cilomilast

>  <Brand Name>  (1) 
nan

>  <DrugBank ID>  (1) 
DB03849

>  <ATC Codes>  (1) 
nan

>  <Ligand ID>  (1) 
CIO

>  <Target Name>  (1) 
cAMP-specific 3',5'-cyclic phosphodiesterase 4B

>  <UniProt ID>  (1) 
Q07343

>  <PDB ID.1>  (1) 
1XLX

>  <Seq. Identity>  (1) 
97%

$$$$
