PDB_DB00884_09
     RDKit          3D

 38 38  0  0  0  0  0  0  0  0999 V2000
   -3.6080   -1.1801   -2.2142 O   0  0  0  0  0  0  0  0  0  0  0  0
   -2.6791   -1.1288   -0.8028 P   0  0  0  0  0  0  0  0  0  0  0  0
   -1.8430   -2.2563   -1.4155 O   0  0  0  0  0  0  0  0  0  0  0  0
   -3.1162   -1.8589    0.5315 O   0  0  0  0  0  0  0  0  0  0  0  0
   -1.2854    0.0668   -0.7905 C   0  0  0  0  0  0  0  0  0  0  0  0
   -1.0564    0.2790   -2.1406 O   0  0  0  0  0  0  0  0  0  0  0  0
   -1.6453    1.4925    0.1974 P   0  0  0  0  0  0  0  0  0  0  0  0
   -3.2079    2.1878   -0.1815 O   0  0  0  0  0  0  0  0  0  0  0  0
   -0.8624    2.0325    1.4378 O   0  0  0  0  0  0  0  0  0  0  0  0
   -1.0830    2.5196   -0.7626 O   0  0  0  0  0  0  0  0  0  0  0  0
   -0.1480   -0.6769   -0.2240 C   0  0  0  0  0  0  0  0  0  0  0  0
    1.2461   -0.2950   -0.1252 C   0  0  1  0  0  0  0  0  0  0  0  0
    1.6416    0.9157    0.5951 C   0  0  0  0  0  0  0  0  0  0  0  0
    3.1722    1.1163    0.3964 C   0  0  0  0  0  0  0  0  0  0  0  0
    3.8519   -0.0497    1.0498 C   0  0  0  0  0  0  0  0  0  0  0  0
    3.3822   -1.2742    0.3970 N   0  0  0  0  0  0  0  0  0  0  0  0
    1.9828   -1.4667    0.6590 C   0  0  0  0  0  0  0  0  0  0  0  0
   -1.8130    0.7724   -2.5184 H   0  0  0  0  0  0  0  0  0  0  0  0
   -0.4857   -1.1278    0.8198 H   0  0  0  0  0  0  0  0  0  0  0  0
   -0.1136   -1.7182   -0.7768 H   0  0  0  0  0  0  0  0  0  0  0  0
    1.1900    1.8605    0.1876 H   0  0  0  0  0  0  0  0  0  0  0  0
    3.3090    1.0545   -0.7008 H   0  0  0  0  0  0  0  0  0  0  0  0
    3.5698   -0.0582    2.1125 H   0  0  0  0  0  0  0  0  0  0  0  0
    1.6713   -2.4191    0.1980 H   0  0  0  0  0  0  0  0  0  0  0  0
    3.5921   -1.1594   -0.6147 H   0  0  0  0  0  0  0  0  0  0  0  0
   -3.1612   -0.6623   -2.8838 H   0  0  0  0  0  0  0  0  0  0  0  0
   -3.4821   -0.1661   -0.5358 H   0  0  0  0  0  0  0  0  0  0  0  0
   -2.2130   -3.1498   -1.4504 H   0  0  0  0  0  0  0  0  0  0  0  0
   -2.7145   -2.6347    0.9219 H   0  0  0  0  0  0  0  0  0  0  0  0
   -2.4386    0.7735    0.9485 H   0  0  0  0  0  0  0  0  0  0  0  0
   -3.2653    2.9392    0.4169 H   0  0  0  0  0  0  0  0  0  0  0  0
   -0.6605    1.6394    2.2790 H   0  0  0  0  0  0  0  0  0  0  0  0
   -1.2324    2.5107   -1.7112 H   0  0  0  0  0  0  0  0  0  0  0  0
    1.8068   -0.3954   -1.1172 H   0  0  0  0  0  0  0  0  0  0  0  0
    1.5297    0.8162    1.6821 H   0  0  0  0  0  0  0  0  0  0  0  0
    3.4717    2.0812    0.8042 H   0  0  0  0  0  0  0  0  0  0  0  0
    4.9335   -0.0112    0.9185 H   0  0  0  0  0  0  0  0  0  0  0  0
    1.7639   -1.3692    1.7186 H   0  0  0  0  0  0  0  0  0  0  0  0
  1  2  1  0
  2  3  1  0
  2  4  1  0
  2  5  1  0
  5  6  1  0
  5  7  1  0
  7  8  1  0
  7  9  1  0
  7 10  1  0
  5 11  1  0
 11 12  1  0
 12 13  1  0
 13 14  1  0
 14 15  1  0
 15 16  1  0
 12 17  1  0
 16 17  1  0
 18  6  1  0
 11 19  1  0
 11 20  1  0
 13 21  1  0
 14 22  1  0
 15 23  1  0
 17 24  1  0
 25 16  1  0
  1 26  1  0
  2 27  1  0
  3 28  1  0
  4 29  1  0
  7 30  1  0
  8 31  1  0
  9 32  1  0
 10 33  1  0
 12 34  1  6
 13 35  1  0
 14 36  1  0
 15 37  1  0
 17 38  1  0
M  END
>  <PDBID>  (1) 
5CG5

>  <PDB ID>  (1) 
5CG5

>  <Generic Name>  (1) 
Risedronate

>  <Brand Name>  (1) 
Actonel#Actonel Dr#Actonel Plus Calcium#Actonel Sachet Kit#Apo-risedronate#Atelvia#Auro-risedronate#Dom-risedronate#Jamp-risedronate#Mylan-risedronate#Ntp-risedronate#PHL-risedronate#PMS-risedronate#PMS-risedronate Plus Calcium#Pendo-risedronate#Q-risedronate#Ratio-risedronate#Risedronate#Risedronate Sodium#Risedronate-35#Riva-risedronate#Sandoz Risedronate#Teva-risedronate#Benet

>  <DrugBank ID>  (1) 
DB00884

>  <ATC Codes>  (1) 
M05BB02#M05BA07#M05BB04#M05BB07

>  <Ligand ID>  (1) 
RIS

>  <Target Name>  (1) 
Farnesyl pyrophosphate synthase

>  <UniProt ID>  (1) 
P14324

>  <PDB ID.1>  (1) 
5CG5

>  <Seq. Identity>  (1) 
100%

$$$$
