PDB_DB00476_09
     RDKit          3D

 54 56  0  0  0  0  0  0  0  0999 V2000
   -4.8501   -1.5002    2.4122 C   0  0  0  0  0  0  0  0  0  0  0  0
   -4.2263   -1.8501    1.1739 N   0  0  0  0  0  0  0  0  0  0  0  0
   -3.1571   -0.9405    0.8044 C   0  0  0  0  0  0  0  0  0  0  0  0
   -2.5449   -1.3718   -0.5129 C   0  0  0  0  0  0  0  0  0  0  0  0
   -1.4143   -0.4277   -0.9236 C   0  0  1  0  0  0  0  0  0  0  0  0
   -1.8966    0.9657   -1.0879 C   0  0  0  0  0  0  0  0  0  0  0  0
   -3.1960    1.0971   -2.3594 S   0  0  0  0  0  0  0  0  0  0  0  0
   -2.4218    2.3904   -3.4117 C   0  0  0  0  0  0  0  0  0  0  0  0
   -1.4988    3.0148   -2.3563 C   0  0  0  0  0  0  0  0  0  0  0  0
   -0.8096    1.8112   -1.6983 C   0  0  0  0  0  0  0  0  0  0  0  0
   -0.3302   -0.5000   -0.1338 O   0  0  0  0  0  0  0  0  0  0  0  0
    0.8317   -1.0347   -0.5798 C   0  0  0  0  0  0  0  0  0  0  0  0
    1.9405   -0.0536   -0.3277 C   0  0  0  0  0  0  0  0  0  0  0  0
    3.2636   -0.5234   -0.9008 C   0  0  0  0  0  0  0  0  0  0  0  0
    4.1045    0.7438   -1.1194 C   0  0  0  0  0  0  0  0  0  0  0  0
    3.7175    1.7664   -0.0525 C   0  0  0  0  0  0  0  0  0  0  0  0
    3.3709    1.1019    1.2597 C   0  0  0  0  0  0  0  0  0  0  0  0
    2.1256    0.2321    1.1484 C   0  0  0  0  0  0  0  0  0  0  0  0
    2.3809   -1.0020    1.9582 C   0  0  0  0  0  0  0  0  0  0  0  0
    1.2695   -1.9921    1.6931 C   0  0  0  0  0  0  0  0  0  0  0  0
    1.2415   -2.2819    0.2215 C   0  0  0  0  0  0  0  0  0  0  0  0
   -5.1095   -2.4035    2.9956 H   0  0  0  0  0  0  0  0  0  0  0  0
   -4.2406   -0.7739    3.0137 H   0  0  0  0  0  0  0  0  0  0  0  0
   -5.7998   -0.9689    2.1959 H   0  0  0  0  0  0  0  0  0  0  0  0
   -4.9581   -1.9169    0.4358 H   0  0  0  0  0  0  0  0  0  0  0  0
   -2.3983   -0.9515    1.6179 H   0  0  0  0  0  0  0  0  0  0  0  0
   -3.6285    0.0678    0.7226 H   0  0  0  0  0  0  0  0  0  0  0  0
   -2.2322   -2.4121   -0.4638 H   0  0  0  0  0  0  0  0  0  0  0  0
   -3.3668   -1.3133   -1.2574 H   0  0  0  0  0  0  0  0  0  0  0  0
   -1.1273   -0.8058   -1.9296 H   0  0  0  0  0  0  0  0  0  0  0  0
   -2.1938    1.4663   -0.1497 H   0  0  0  0  0  0  0  0  0  0  0  0
   -3.2158    3.0790   -3.6970 H   0  0  0  0  0  0  0  0  0  0  0  0
   -1.8390    1.9552   -4.2212 H   0  0  0  0  0  0  0  0  0  0  0  0
   -0.7137    3.6260   -2.7980 H   0  0  0  0  0  0  0  0  0  0  0  0
   -2.1048    3.5019   -1.5813 H   0  0  0  0  0  0  0  0  0  0  0  0
   -0.2129    1.2497   -2.4281 H   0  0  0  0  0  0  0  0  0  0  0  0
   -0.1972    2.2658   -0.8846 H   0  0  0  0  0  0  0  0  0  0  0  0
    0.8826   -1.3595   -1.6182 H   0  0  0  0  0  0  0  0  0  0  0  0
    1.7351    0.9164   -0.8114 H   0  0  0  0  0  0  0  0  0  0  0  0
    3.7759   -1.1321   -0.1496 H   0  0  0  0  0  0  0  0  0  0  0  0
    3.1118   -1.0845   -1.8222 H   0  0  0  0  0  0  0  0  0  0  0  0
    5.1729    0.5033   -1.0826 H   0  0  0  0  0  0  0  0  0  0  0  0
    3.8581    1.1788   -2.0936 H   0  0  0  0  0  0  0  0  0  0  0  0
    4.6520    2.3516    0.1460 H   0  0  0  0  0  0  0  0  0  0  0  0
    2.9733    2.4828   -0.3996 H   0  0  0  0  0  0  0  0  0  0  0  0
    4.2569    0.4651    1.5269 H   0  0  0  0  0  0  0  0  0  0  0  0
    3.2929    1.8702    2.0273 H   0  0  0  0  0  0  0  0  0  0  0  0
    1.2818    0.7860    1.5679 H   0  0  0  0  0  0  0  0  0  0  0  0
    3.3684   -1.4581    1.8148 H   0  0  0  0  0  0  0  0  0  0  0  0
    2.3410   -0.6913    3.0295 H   0  0  0  0  0  0  0  0  0  0  0  0
    1.4765   -2.9657    2.2020 H   0  0  0  0  0  0  0  0  0  0  0  0
    0.3360   -1.5268    2.0641 H   0  0  0  0  0  0  0  0  0  0  0  0
    2.2822   -2.4933   -0.0936 H   0  0  0  0  0  0  0  0  0  0  0  0
    0.6404   -3.1540   -0.0594 H   0  0  0  0  0  0  0  0  0  0  0  0
  1  2  1  0
  2  3  1  0
  3  4  1  0
  4  5  1  0
  5  6  1  0
  6  7  1  0
  7  8  1  0
  8  9  1  0
  6 10  1  0
  9 10  1  0
  5 11  1  0
 11 12  1  0
 12 13  1  0
 13 14  1  0
 14 15  1  0
 15 16  1  0
 16 17  1  0
 13 18  1  0
 17 18  1  0
 18 19  1  0
 19 20  1  0
 12 21  1  0
 20 21  1  0
  1 22  1  0
  1 23  1  0
  1 24  1  0
  2 25  1  0
  3 26  1  0
  3 27  1  0
  4 28  1  0
  4 29  1  0
  5 30  1  6
  6 31  1  0
  8 32  1  0
  8 33  1  0
  9 34  1  0
  9 35  1  0
 10 36  1  0
 10 37  1  0
 12 38  1  0
 13 39  1  0
 14 40  1  0
 14 41  1  0
 15 42  1  0
 15 43  1  0
 16 44  1  0
 16 45  1  0
 17 46  1  0
 17 47  1  0
 18 48  1  0
 19 49  1  0
 19 50  1  0
 20 51  1  0
 20 52  1  0
 21 53  1  0
 21 54  1  0
M  END
>  <PDBID>  (1) 
4MM6

>  <PDB ID>  (1) 
4MM6

>  <Generic Name>  (1) 
Duloxetine

>  <Brand Name>  (1) 
Act Duloxetine#Apo-duloxetine#Auro-duloxetine#Cymbalta#Dom-duloxetine#Duloxetine#Duloxetine Delayed-release#Duloxetine Dr#Duloxetine Hydrochloride#Duloxetine Hydrochloride 20 mg#Duloxetine Hydrochloride 30 mg#Duloxetine Hydrochloride 60 mg#Ipg-duloxetine#Irenka#Jamp-duloxetine#Mar-duloxetine#Mint-duloxetine#Mylan-duloxetine#PMS-duloxetine#Ran-duloxetine#Riva-duloxetine#Sandoz Duloxetine#Taro-duloxetine#Teva-duloxetine Dr#Torrent-duloxetine#Ariclaim#Dulane#Duzela#Xeristar#Yentreve

>  <DrugBank ID>  (1) 
DB00476

>  <ATC Codes>  (1) 
N06AX21

>  <Ligand ID>  (1) 
29E

>  <Target Name>  (1) 
Sodium-dependent noradrenaline transporter

>  <UniProt ID>  (1) 
P23975

>  <PDB ID.1>  (1) 
4MM6

>  <Seq. Identity>  (1) 
30%

$$$$
