PDB_DB09026_03
     RDKit          3D

204204  0  0  0  0  0  0  0  0999 V2000
    9.1725    2.0818   -0.6557 C   0  0  0  0  0  0  0  0  0  0  0  0
    8.3506    2.4458    0.4109 O   0  0  0  0  0  0  0  0  0  0  0  0
    7.2035    3.0143   -0.1295 C   0  0  0  0  0  0  0  0  0  0  0  0
    6.2973    3.4177    1.0066 C   0  0  0  0  0  0  0  0  0  0  0  0
    5.9412    2.1724    1.8209 C   0  0  0  0  0  0  0  0  0  0  0  0
    5.3053    1.3033    0.9633 O   0  0  0  0  0  0  0  0  0  0  0  0
    4.9075    0.1204    1.5030 C   0  0  0  0  0  0  0  0  0  0  0  0
    3.4692   -0.2118    1.4780 C   0  0  0  0  0  0  0  0  0  0  0  0
    2.8608   -0.1167    0.0265 C   0  0  0  0  0  0  0  0  0  0  0  0
    4.0023   -0.4930   -0.8563 C   0  0  0  0  0  0  0  0  0  0  0  0
    4.8999   -1.5505   -0.2382 C   0  0  0  0  0  0  0  0  0  0  0  0
    5.7106   -1.0129    0.9102 C   0  0  0  0  0  0  0  0  0  0  0  0
    6.9300   -0.5281    0.4519 O   0  0  0  0  0  0  0  0  0  0  0  0
    7.9935   -1.2200    1.0702 C   0  0  0  0  0  0  0  0  0  0  0  0
    1.6775   -0.9572    0.0917 C   0  0  0  0  0  0  0  0  0  0  0  0
    0.6895   -1.2073   -0.9438 C   0  0  2  0  0  0  0  0  0  0  0  0
    1.1563   -1.8296   -2.2249 C   0  0  0  0  0  0  0  0  0  0  0  0
    0.0289   -2.0922   -3.2359 C   0  0  0  0  0  0  0  0  0  0  0  0
    1.8769   -3.1178   -2.0980 C   0  0  0  0  0  0  0  0  0  0  0  0
   -0.2184   -0.0423   -1.2857 C   0  0  0  0  0  0  0  0  0  0  0  0
   -1.0378    0.5288   -0.2156 C   0  0  2  0  0  0  0  0  0  0  0  0
   -0.2307    1.0461    0.8528 N   0  0  0  0  0  0  0  0  0  0  0  0
   -2.1579   -0.2576    0.3904 C   0  0  1  0  0  0  0  0  0  0  0  0
   -2.8557    0.6206    1.1861 O   0  0  0  0  0  0  0  0  0  0  0  0
   -3.0177   -0.9226   -0.5943 C   0  0  0  0  0  0  0  0  0  0  0  0
   -4.1730   -1.7181   -0.2390 C   0  0  1  0  0  0  0  0  0  0  0  0
   -3.9433   -2.8929    0.6913 C   0  0  0  0  0  0  0  0  0  0  0  0
   -3.4232   -2.6373    2.0352 C   0  0  0  0  0  0  0  0  0  0  0  0
   -3.0705   -3.8977   -0.0844 C   0  0  0  0  0  0  0  0  0  0  0  0
   -5.5587   -1.2143   -0.2311 C   0  0  0  0  0  0  0  0  0  0  0  0
   -6.4428   -2.2639    0.2075 O   0  0  0  0  0  0  0  0  0  0  0  0
   -6.0382   -0.0311    0.2529 N   0  0  0  0  0  0  0  0  0  0  0  0
   -5.7177    1.1518   -0.4190 C   0  0  0  0  0  0  0  0  0  0  0  0
   -6.3980    2.3902    0.1593 C   0  0  0  0  0  0  0  0  0  0  0  0
   -5.9957    2.5631    1.5809 C   0  0  0  0  0  0  0  0  0  0  0  0
   -5.8801    3.5603   -0.6501 C   0  0  0  0  0  0  0  0  0  0  0  0
   -7.8956    2.3232   -0.0434 C   0  0  1  0  0  0  0  0  0  0  0  0
   -8.3652    1.1971    0.6005 O   0  0  0  0  0  0  0  0  0  0  0  0
   -8.5616    3.4838    0.5112 N   0  0  0  0  0  0  0  0  0  0  0  0
    9.9341   -0.4768    1.3403 C   0  0  0  0  0  0  0  0  0  0  0  0
    9.0693   -1.5124    1.5979 O   0  0  0  0  0  0  0  0  0  0  0  0
    8.6947   -2.1359    0.4346 C   0  0  0  0  0  0  0  0  0  0  0  0
    8.0047   -1.2479   -0.5688 C   0  0  0  0  0  0  0  0  0  0  0  0
    6.7520   -0.6306   -0.0228 C   0  0  0  0  0  0  0  0  0  0  0  0
    6.1784    0.1557   -0.9958 O   0  0  0  0  0  0  0  0  0  0  0  0
    5.0113    0.7835   -0.5745 C   0  0  0  0  0  0  0  0  0  0  0  0
    3.9122    0.3381   -1.5166 C   0  0  0  0  0  0  0  0  0  0  0  0
    2.6154    0.9981   -1.2438 C   0  0  2  0  0  0  0  0  0  0  0  0
    2.7921    2.5037   -1.6051 C   0  0  0  0  0  0  0  0  0  0  0  0
    4.2253    2.8885   -1.7155 C   0  0  0  0  0  0  0  0  0  0  0  0
    5.1594    2.2920   -0.7191 C   0  0  0  0  0  0  0  0  0  0  0  0
    6.4587    2.6100   -1.1597 O   0  0  0  0  0  0  0  0  0  0  0  0
    7.1317    3.3466   -0.2181 C   0  0  0  0  0  0  0  0  0  0  0  0
    1.9874    0.9719    0.0567 C   0  0  0  0  0  0  0  0  0  0  0  0
    1.4664   -0.0932    0.8546 C   0  0  2  0  0  0  0  0  0  0  0  0
    2.3522   -1.2182    1.2778 C   0  0  0  0  0  0  0  0  0  0  0  0
    1.5327   -2.1621    2.2278 C   0  0  0  0  0  0  0  0  0  0  0  0
    2.7089   -2.1750    0.1493 C   0  0  0  0  0  0  0  0  0  0  0  0
    0.0839   -0.6020    0.4480 C   0  0  0  0  0  0  0  0  0  0  0  0
   -0.9638    0.5168    0.5429 C   0  0  2  0  0  0  0  0  0  0  0  0
   -1.0320    0.9972    1.8883 N   0  0  0  0  0  0  0  0  0  0  0  0
   -2.3100   -0.0413    0.0512 C   0  0  1  0  0  0  0  0  0  0  0  0
   -2.1111   -0.4246   -1.2807 O   0  0  0  0  0  0  0  0  0  0  0  0
   -2.7410   -1.2584    0.7936 C   0  0  0  0  0  0  0  0  0  0  0  0
   -4.0500   -1.7906    0.2991 C   0  0  1  0  0  0  0  0  0  0  0  0
   -4.4688   -3.0458    1.0260 C   0  0  0  0  0  0  0  0  0  0  0  0
   -3.4358   -4.1507    0.8532 C   0  0  0  0  0  0  0  0  0  0  0  0
   -4.7690   -2.7849    2.4605 C   0  0  0  0  0  0  0  0  0  0  0  0
   -5.1960   -0.8149    0.3851 C   0  0  0  0  0  0  0  0  0  0  0  0
   -5.3255   -0.4435    1.7396 O   0  0  0  0  0  0  0  0  0  0  0  0
   -5.1229    0.3172   -0.4420 N   0  0  0  0  0  0  0  0  0  0  0  0
   -6.0334    1.3672   -0.2610 C   0  0  0  0  0  0  0  0  0  0  0  0
   -7.4531    1.1900   -0.6448 C   0  0  0  0  0  0  0  0  0  0  0  0
   -7.5123    0.8756   -2.1449 C   0  0  0  0  0  0  0  0  0  0  0  0
   -8.2529    0.1889    0.0931 C   0  0  0  0  0  0  0  0  0  0  0  0
   -8.1657    2.5461   -0.4470 C   0  0  0  0  0  0  0  0  0  0  0  0
   -9.5088    2.4719   -0.7894 O   0  0  0  0  0  0  0  0  0  0  0  0
   -7.5355    3.6058   -1.1709 N   0  0  0  0  0  0  0  0  0  0  0  0
    8.6605    1.3442   -1.3196 H   0  0  0  0  0  0  0  0  0  0  0  0
    9.3255    2.9969   -1.2673 H   0  0  0  0  0  0  0  0  0  0  0  0
   10.1055    1.6721   -0.2313 H   0  0  0  0  0  0  0  0  0  0  0  0
    7.4225    3.8805   -0.7761 H   0  0  0  0  0  0  0  0  0  0  0  0
    6.6522    2.2833   -0.7852 H   0  0  0  0  0  0  0  0  0  0  0  0
    5.3796    3.8498    0.5534 H   0  0  0  0  0  0  0  0  0  0  0  0
    6.7663    4.1894    1.6382 H   0  0  0  0  0  0  0  0  0  0  0  0
    6.9169    1.7102    2.1478 H   0  0  0  0  0  0  0  0  0  0  0  0
    5.3951    2.4123    2.7316 H   0  0  0  0  0  0  0  0  0  0  0  0
    5.2045    0.1439    2.5885 H   0  0  0  0  0  0  0  0  0  0  0  0
    3.3415   -1.2508    1.8440 H   0  0  0  0  0  0  0  0  0  0  0  0
    2.9153    0.4431    2.1574 H   0  0  0  0  0  0  0  0  0  0  0  0
    2.6838    0.9757   -0.0756 H   0  0  0  0  0  0  0  0  0  0  0  0
    3.7608   -0.8737   -1.8432 H   0  0  0  0  0  0  0  0  0  0  0  0
    4.6050    0.4470   -1.0675 H   0  0  0  0  0  0  0  0  0  0  0  0
    5.5481   -1.9477   -1.0305 H   0  0  0  0  0  0  0  0  0  0  0  0
    4.2375   -2.3716    0.1021 H   0  0  0  0  0  0  0  0  0  0  0  0
    5.9148   -1.8124    1.6449 H   0  0  0  0  0  0  0  0  0  0  0  0
    7.8808   -2.2974    0.8047 H   0  0  0  0  0  0  0  0  0  0  0  0
    8.9468   -0.8762    0.6448 H   0  0  0  0  0  0  0  0  0  0  0  0
    7.9856   -1.1055    2.1701 H   0  0  0  0  0  0  0  0  0  0  0  0
    2.1063   -2.0120    0.3547 H   0  0  0  0  0  0  0  0  0  0  0  0
    1.1771   -0.7422    1.0975 H   0  0  0  0  0  0  0  0  0  0  0  0
   -0.0324   -1.9699   -0.5067 H   0  0  0  0  0  0  0  0  0  0  0  0
    1.8018   -1.0943   -2.7593 H   0  0  0  0  0  0  0  0  0  0  0  0
   -0.8268   -2.5610   -2.7435 H   0  0  0  0  0  0  0  0  0  0  0  0
    0.4892   -2.8176   -3.9885 H   0  0  0  0  0  0  0  0  0  0  0  0
   -0.2340   -1.2282   -3.8368 H   0  0  0  0  0  0  0  0  0  0  0  0
    1.2587   -3.9117   -1.5803 H   0  0  0  0  0  0  0  0  0  0  0  0
    2.9004   -3.0921   -1.7337 H   0  0  0  0  0  0  0  0  0  0  0  0
    1.9662   -3.5282   -3.1524 H   0  0  0  0  0  0  0  0  0  0  0  0
   -0.8230   -0.3467   -2.1943 H   0  0  0  0  0  0  0  0  0  0  0  0
    0.3789    0.8224   -1.6979 H   0  0  0  0  0  0  0  0  0  0  0  0
   -1.5389    1.4456   -0.6651 H   0  0  0  0  0  0  0  0  0  0  0  0
   -0.7529    1.2057    1.7435 H   0  0  0  0  0  0  0  0  0  0  0  0
    0.2037    1.9428    0.5257 H   0  0  0  0  0  0  0  0  0  0  0  0
   -1.6437   -0.9667    1.0972 H   0  0  0  0  0  0  0  0  0  0  0  0
   -2.6796    0.5776    2.1388 H   0  0  0  0  0  0  0  0  0  0  0  0
   -2.2762   -1.5748   -1.2079 H   0  0  0  0  0  0  0  0  0  0  0  0
   -3.3014   -0.1789   -1.3959 H   0  0  0  0  0  0  0  0  0  0  0  0
   -4.2653   -2.3885   -1.2427 H   0  0  0  0  0  0  0  0  0  0  0  0
   -4.9303   -3.3966    0.7846 H   0  0  0  0  0  0  0  0  0  0  0  0
   -2.3494   -2.9889    2.0914 H   0  0  0  0  0  0  0  0  0  0  0  0
   -3.9110   -3.3142    2.8167 H   0  0  0  0  0  0  0  0  0  0  0  0
   -3.4747   -1.6584    2.4745 H   0  0  0  0  0  0  0  0  0  0  0  0
   -3.2868   -4.8882    0.3571 H   0  0  0  0  0  0  0  0  0  0  0  0
   -3.3827   -3.9404   -1.1485 H   0  0  0  0  0  0  0  0  0  0  0  0
   -2.0136   -3.6252   -0.0699 H   0  0  0  0  0  0  0  0  0  0  0  0
   -5.8610   -1.2511   -1.3905 H   0  0  0  0  0  0  0  0  0  0  0  0
   -6.7544   -2.0882    1.1134 H   0  0  0  0  0  0  0  0  0  0  0  0
   -6.0682    0.0843    1.2853 H   0  0  0  0  0  0  0  0  0  0  0  0
   -4.6569    1.3855   -0.4259 H   0  0  0  0  0  0  0  0  0  0  0  0
   -6.0365    1.1311   -1.5192 H   0  0  0  0  0  0  0  0  0  0  0  0
   -5.1896    1.8528    1.8413 H   0  0  0  0  0  0  0  0  0  0  0  0
   -5.6413    3.6095    1.8047 H   0  0  0  0  0  0  0  0  0  0  0  0
   -6.8768    2.3289    2.2300 H   0  0  0  0  0  0  0  0  0  0  0  0
   -6.4583    4.4765   -0.5210 H   0  0  0  0  0  0  0  0  0  0  0  0
   -4.7993    3.6736   -0.3482 H   0  0  0  0  0  0  0  0  0  0  0  0
   -5.8413    3.2029   -1.7116 H   0  0  0  0  0  0  0  0  0  0  0  0
   -8.1083    2.3284   -1.1255 H   0  0  0  0  0  0  0  0  0  0  0  0
   -8.7714    0.5334    0.0148 H   0  0  0  0  0  0  0  0  0  0  0  0
   -8.1810    3.6779    1.4408 H   0  0  0  0  0  0  0  0  0  0  0  0
   -8.4552    4.2664   -0.1631 H   0  0  0  0  0  0  0  0  0  0  0  0
    9.5063    0.3127    0.6983 H   0  0  0  0  0  0  0  0  0  0  0  0
   10.9017   -0.8036    0.9075 H   0  0  0  0  0  0  0  0  0  0  0  0
   10.1361    0.0119    2.3392 H   0  0  0  0  0  0  0  0  0  0  0  0
    9.6038   -2.5854   -0.0142 H   0  0  0  0  0  0  0  0  0  0  0  0
    8.0349   -3.0271    0.6612 H   0  0  0  0  0  0  0  0  0  0  0  0
    7.7812   -1.9140   -1.4540 H   0  0  0  0  0  0  0  0  0  0  0  0
    8.7310   -0.5090   -0.9564 H   0  0  0  0  0  0  0  0  0  0  0  0
    6.0601   -1.4569    0.2211 H   0  0  0  0  0  0  0  0  0  0  0  0
    6.9235   -0.0896    0.9317 H   0  0  0  0  0  0  0  0  0  0  0  0
    4.7614    0.5030    0.4664 H   0  0  0  0  0  0  0  0  0  0  0  0
    3.9268   -0.6968   -1.7809 H   0  0  0  0  0  0  0  0  0  0  0  0
    4.2571    0.8387   -2.5209 H   0  0  0  0  0  0  0  0  0  0  0  0
    1.9446    0.6383   -2.0911 H   0  0  0  0  0  0  0  0  0  0  0  0
    2.3322    3.1467   -0.8233 H   0  0  0  0  0  0  0  0  0  0  0  0
    2.2895    2.7618   -2.5375 H   0  0  0  0  0  0  0  0  0  0  0  0
    4.2694    4.0110   -1.5348 H   0  0  0  0  0  0  0  0  0  0  0  0
    4.6415    2.7898   -2.7448 H   0  0  0  0  0  0  0  0  0  0  0  0
    5.0443    2.7351    0.2858 H   0  0  0  0  0  0  0  0  0  0  0  0
    7.2127    2.7631    0.7321 H   0  0  0  0  0  0  0  0  0  0  0  0
    6.5830    4.2948    0.0437 H   0  0  0  0  0  0  0  0  0  0  0  0
    8.1477    3.6537   -0.5533 H   0  0  0  0  0  0  0  0  0  0  0  0
    2.7825    1.5060    0.7573 H   0  0  0  0  0  0  0  0  0  0  0  0
    1.1968    1.8408    0.1136 H   0  0  0  0  0  0  0  0  0  0  0  0
    1.1907    0.4025    1.8759 H   0  0  0  0  0  0  0  0  0  0  0  0
    3.2175   -0.9047    1.8645 H   0  0  0  0  0  0  0  0  0  0  0  0
    0.9777   -2.9078    1.6363 H   0  0  0  0  0  0  0  0  0  0  0  0
    2.2954   -2.6363    2.8708 H   0  0  0  0  0  0  0  0  0  0  0  0
    0.9251   -1.5181    2.8687 H   0  0  0  0  0  0  0  0  0  0  0  0
    3.8068   -2.1441    0.0432 H   0  0  0  0  0  0  0  0  0  0  0  0
    2.5059   -3.2467    0.4615 H   0  0  0  0  0  0  0  0  0  0  0  0
    2.2312   -1.9455   -0.8011 H   0  0  0  0  0  0  0  0  0  0  0  0
    0.0140   -1.0150   -0.5436 H   0  0  0  0  0  0  0  0  0  0  0  0
   -0.2155   -1.3463    1.2037 H   0  0  0  0  0  0  0  0  0  0  0  0
   -0.6877    1.2712   -0.2175 H   0  0  0  0  0  0  0  0  0  0  0  0
   -1.8813    0.6309    2.3461 H   0  0  0  0  0  0  0  0  0  0  0  0
   -1.0044    2.0448    1.8448 H   0  0  0  0  0  0  0  0  0  0  0  0
   -3.0306    0.7607    0.1086 H   0  0  0  0  0  0  0  0  0  0  0  0
   -1.8114    0.3888   -1.7917 H   0  0  0  0  0  0  0  0  0  0  0  0
   -2.0001   -2.1049    0.6297 H   0  0  0  0  0  0  0  0  0  0  0  0
   -2.8241   -1.0630    1.8844 H   0  0  0  0  0  0  0  0  0  0  0  0
   -3.9226   -2.0261   -0.8108 H   0  0  0  0  0  0  0  0  0  0  0  0
   -5.4110   -3.3989    0.4937 H   0  0  0  0  0  0  0  0  0  0  0  0
   -3.8605   -5.1200    1.1819 H   0  0  0  0  0  0  0  0  0  0  0  0
   -2.5497   -3.9359    1.4841 H   0  0  0  0  0  0  0  0  0  0  0  0
   -3.1335   -4.2367   -0.2061 H   0  0  0  0  0  0  0  0  0  0  0  0
   -5.8581   -2.5004    2.5968 H   0  0  0  0  0  0  0  0  0  0  0  0
   -4.1644   -2.0207    2.9402 H   0  0  0  0  0  0  0  0  0  0  0  0
   -4.5930   -3.7676    2.9955 H   0  0  0  0  0  0  0  0  0  0  0  0
   -6.1658   -1.3859    0.1933 H   0  0  0  0  0  0  0  0  0  0  0  0
   -4.7683    0.3723    1.9258 H   0  0  0  0  0  0  0  0  0  0  0  0
   -4.7986    0.1449   -1.4211 H   0  0  0  0  0  0  0  0  0  0  0  0
   -5.6376    2.2541   -0.8618 H   0  0  0  0  0  0  0  0  0  0  0  0
   -5.9414    1.7134    0.8092 H   0  0  0  0  0  0  0  0  0  0  0  0
   -8.1149   -0.0370   -2.3437 H   0  0  0  0  0  0  0  0  0  0  0  0
   -8.0465    1.7002   -2.7008 H   0  0  0  0  0  0  0  0  0  0  0  0
   -6.5022    0.8501   -2.5882 H   0  0  0  0  0  0  0  0  0  0  0  0
   -8.3380   -0.7928   -0.4264 H   0  0  0  0  0  0  0  0  0  0  0  0
   -9.3209    0.5770    0.1923 H   0  0  0  0  0  0  0  0  0  0  0  0
   -7.8980    0.0407    1.1269 H   0  0  0  0  0  0  0  0  0  0  0  0
   -8.1408    2.8095    0.6465 H   0  0  0  0  0  0  0  0  0  0  0  0
   -9.7132    1.8531   -1.5212 H   0  0  0  0  0  0  0  0  0  0  0  0
   -6.9801    3.2880   -1.9998 H   0  0  0  0  0  0  0  0  0  0  0  0
   -7.0012    4.2712   -0.5607 H   0  0  0  0  0  0  0  0  0  0  0  0
  1  2  1  0
  2  3  1  0
  3  4  1  0
  4  5  1  0
  5  6  1  0
  6  7  1  0
  7  8  1  0
  8  9  1  0
  9 10  1  0
 10 11  1  0
  7 12  1  0
 11 12  1  0
 12 13  1  0
 13 14  1  0
  9 15  1  0
 15 16  1  0
 16 17  1  0
 17 18  1  0
 17 19  1  0
 16 20  1  0
 20 21  1  0
 21 22  1  0
 21 23  1  0
 23 24  1  0
 23 25  1  0
 25 26  1  0
 26 27  1  0
 27 28  1  0
 27 29  1  0
 26 30  1  0
 30 31  1  0
 30 32  1  0
 32 33  1  0
 34 33  1  0
 34 35  1  0
 34 36  1  0
 34 37  1  0
 37 38  1  0
 37 39  1  0
 40 41  1  0
 41 42  1  0
 42 43  1  0
 43 44  1  0
 44 45  1  0
 45 46  1  0
 46 47  1  0
 47 48  1  0
 48 49  1  0
 49 50  1  0
 46 51  1  0
 50 51  1  0
 51 52  1  0
 52 53  1  0
 48 54  1  0
 54 55  1  0
 55 56  1  0
 56 57  1  0
 56 58  1  0
 55 59  1  0
 59 60  1  0
 60 61  1  0
 60 62  1  0
 62 63  1  0
 62 64  1  0
 64 65  1  0
 65 66  1  0
 66 67  1  0
 66 68  1  0
 65 69  1  0
 69 70  1  0
 69 71  1  0
 71 72  1  0
 73 72  1  0
 73 74  1  0
 73 75  1  0
 73 76  1  0
 76 77  1  0
 76 78  1  0
  1 79  1  0
  1 80  1  0
  1 81  1  0
  3 82  1  0
  3 83  1  0
  4 84  1  0
  4 85  1  0
  5 86  1  0
  5 87  1  0
  7 88  1  0
  8 89  1  0
  8 90  1  0
  9 91  1  0
 10 92  1  0
 10 93  1  0
 11 94  1  0
 11 95  1  0
 12 96  1  0
 14 97  1  0
 14 98  1  0
 14 99  1  0
 15100  1  0
 15101  1  0
 16102  1  1
 17103  1  0
 18104  1  0
 18105  1  0
 18106  1  0
 19107  1  0
 19108  1  0
 19109  1  0
 20110  1  0
 20111  1  0
 21112  1  6
 22113  1  0
 22114  1  0
 23115  1  1
 24116  1  0
 25117  1  0
 25118  1  0
 26119  1  6
 27120  1  0
 28121  1  0
 28122  1  0
 28123  1  0
 29124  1  0
 29125  1  0
 29126  1  0
 30127  1  0
 31128  1  0
 32129  1  0
 33130  1  0
 33131  1  0
 35132  1  0
 35133  1  0
 35134  1  0
 36135  1  0
 36136  1  0
 36137  1  0
 37138  1  6
 38139  1  0
 39140  1  0
 39141  1  0
 40142  1  0
 40143  1  0
 40144  1  0
 42145  1  0
 42146  1  0
 43147  1  0
 43148  1  0
 44149  1  0
 44150  1  0
 46151  1  0
 47152  1  0
 47153  1  0
 48154  1  6
 49155  1  0
 49156  1  0
 50157  1  0
 50158  1  0
 51159  1  0
 53160  1  0
 53161  1  0
 53162  1  0
 54163  1  0
 54164  1  0
 55165  1  1
 56166  1  0
 57167  1  0
 57168  1  0
 57169  1  0
 58170  1  0
 58171  1  0
 58172  1  0
 59173  1  0
 59174  1  0
 60175  1  6
 61176  1  0
 61177  1  0
 62178  1  6
 63179  1  0
 64180  1  0
 64181  1  0
 65182  1  6
 66183  1  0
 67184  1  0
 67185  1  0
 67186  1  0
 68187  1  0
 68188  1  0
 68189  1  0
 69190  1  0
 70191  1  0
 71192  1  0
 72193  1  0
 72194  1  0
 74195  1  0
 74196  1  0
 74197  1  0
 75198  1  0
 75199  1  0
 75200  1  0
 76201  1  0
 77202  1  0
 78203  1  0
 78204  1  0
M  END
>  <PDBID>  (1) 
2V0Z

>  <PDB ID>  (1) 
2V0Z

>  <Generic Name>  (1) 
Aliskiren

>  <Brand Name>  (1) 
Amturnide#Rasilez#Rasilez Hct#Sandoz Aliskiren#Tekamlo#Tekturna#Tekturna Hct

>  <DrugBank ID>  (1) 
DB09026

>  <ATC Codes>  (1) 
C09DX02#C09XA02#C09XA52#C09XA53#C09XA54

>  <Ligand ID>  (1) 
C41

>  <Target Name>  (1) 
Renin

>  <UniProt ID>  (1) 
P00797

>  <PDB ID.1>  (1) 
2V0Z

>  <Seq. Identity>  (1) 
100%

$$$$
