PDB_DB01283_01
     RDKit          3D

 94 96  0  0  0  0  0  0  0  0999 V2000
   -2.2456   -3.9602    0.5748 O   0  0  0  0  0  0  0  0  0  0  0  0
   -2.5970   -2.5837    0.6774 C   0  0  0  0  0  0  0  0  0  0  0  0
   -3.7290   -2.4650   -0.1352 O   0  0  0  0  0  0  0  0  0  0  0  0
   -1.4318   -1.7660    0.2664 C   0  0  0  0  0  0  0  0  0  0  0  0
   -1.5465   -0.2933    0.3121 C   0  0  0  0  0  0  0  0  0  0  0  0
   -2.6274    0.2038   -0.5790 C   0  0  0  0  0  0  0  0  0  0  0  0
   -2.8474    1.6710   -0.2751 C   0  0  0  0  0  0  0  0  0  0  0  0
   -3.7925    1.7406    0.9367 C   0  0  0  0  0  0  0  0  0  0  0  0
   -1.6348    2.4313    0.0910 C   0  0  0  0  0  0  0  0  0  0  0  0
   -0.3286    1.8118   -0.3084 C   0  0  0  0  0  0  0  0  0  0  0  0
   -0.1824    0.3758   -0.0041 C   0  0  0  0  0  0  0  0  0  0  0  0
    0.6905   -0.0172    1.0205 N   0  0  0  0  0  0  0  0  0  0  0  0
    2.0721   -0.1623    0.7932 C   0  0  0  0  0  0  0  0  0  0  0  0
    2.8446    1.0789    0.4425 C   0  0  0  0  0  0  0  0  0  0  0  0
    2.8794    2.1883    1.8555 Cl  0  0  0  0  0  0  0  0  0  0  0  0
    4.3106    0.6418    0.2792 C   0  0  0  0  0  0  0  0  0  0  0  0
    4.4045   -0.1369   -0.9879 C   0  0  0  0  0  0  0  0  0  0  0  0
    3.0496   -0.6669   -1.4366 C   0  0  0  0  0  0  0  0  0  0  0  0
    2.4241   -1.2645   -0.1893 C   0  0  0  0  0  0  0  0  0  0  0  0
    3.3556   -2.1477    0.3219 F   0  0  0  0  0  0  0  0  0  0  0  0
   -2.2456   -3.9602    0.5748 O   0  0  0  0  0  0  0  0  0  0  0  0
   -2.5970   -2.5837    0.6774 C   0  0  0  0  0  0  0  0  0  0  0  0
   -3.7290   -2.4650   -0.1352 O   0  0  0  0  0  0  0  0  0  0  0  0
   -1.4318   -1.7660    0.2664 C   0  0  0  0  0  0  0  0  0  0  0  0
   -1.5465   -0.2933    0.3121 C   0  0  0  0  0  0  0  0  0  0  0  0
   -2.6274    0.2038   -0.5790 C   0  0  0  0  0  0  0  0  0  0  0  0
   -2.8474    1.6710   -0.2751 C   0  0  0  0  0  0  0  0  0  0  0  0
   -3.7925    1.7406    0.9367 C   0  0  0  0  0  0  0  0  0  0  0  0
   -1.6348    2.4313    0.0910 C   0  0  0  0  0  0  0  0  0  0  0  0
   -0.3286    1.8118   -0.3084 C   0  0  0  0  0  0  0  0  0  0  0  0
   -0.1824    0.3758   -0.0041 C   0  0  0  0  0  0  0  0  0  0  0  0
    0.6905   -0.0172    1.0205 N   0  0  0  0  0  0  0  0  0  0  0  0
    2.0721   -0.1623    0.7932 C   0  0  0  0  0  0  0  0  0  0  0  0
    2.8446    1.0789    0.4425 C   0  0  0  0  0  0  0  0  0  0  0  0
    2.8794    2.1883    1.8555 Cl  0  0  0  0  0  0  0  0  0  0  0  0
    4.3106    0.6418    0.2792 C   0  0  0  0  0  0  0  0  0  0  0  0
    4.4045   -0.1369   -0.9879 C   0  0  0  0  0  0  0  0  0  0  0  0
    3.0496   -0.6669   -1.4366 C   0  0  0  0  0  0  0  0  0  0  0  0
    2.4241   -1.2645   -0.1893 C   0  0  0  0  0  0  0  0  0  0  0  0
    3.3556   -2.1477    0.3219 F   0  0  0  0  0  0  0  0  0  0  0  0
   -1.2739   -4.0189    0.6276 H   0  0  0  0  0  0  0  0  0  0  0  0
   -2.9026   -2.4169    1.7086 H   0  0  0  0  0  0  0  0  0  0  0  0
   -3.5638   -2.9310   -0.9993 H   0  0  0  0  0  0  0  0  0  0  0  0
   -1.1960   -2.0876   -0.8009 H   0  0  0  0  0  0  0  0  0  0  0  0
   -0.5371   -2.1265    0.8292 H   0  0  0  0  0  0  0  0  0  0  0  0
   -1.7648   -0.0128    1.3703 H   0  0  0  0  0  0  0  0  0  0  0  0
   -3.5733   -0.2930   -0.3299 H   0  0  0  0  0  0  0  0  0  0  0  0
   -2.3729    0.0380   -1.6476 H   0  0  0  0  0  0  0  0  0  0  0  0
   -3.4356    2.0838   -1.1159 H   0  0  0  0  0  0  0  0  0  0  0  0
   -4.7815    1.3403    0.7102 H   0  0  0  0  0  0  0  0  0  0  0  0
   -3.8278    2.8108    1.2279 H   0  0  0  0  0  0  0  0  0  0  0  0
   -3.3240    1.2197    1.8162 H   0  0  0  0  0  0  0  0  0  0  0  0
   -1.5862    2.7230    1.1746 H   0  0  0  0  0  0  0  0  0  0  0  0
   -1.6938    3.4211   -0.4504 H   0  0  0  0  0  0  0  0  0  0  0  0
   -0.1645    2.0518   -1.4032 H   0  0  0  0  0  0  0  0  0  0  0  0
    0.4453    2.3998    0.2191 H   0  0  0  0  0  0  0  0  0  0  0  0
    0.1027   -0.1340   -0.9751 H   0  0  0  0  0  0  0  0  0  0  0  0
    0.5362    0.4366    1.9420 H   0  0  0  0  0  0  0  0  0  0  0  0
    2.5132   -0.5064    1.7801 H   0  0  0  0  0  0  0  0  0  0  0  0
    2.5707    1.5667   -0.4869 H   0  0  0  0  0  0  0  0  0  0  0  0
    4.8952    1.5768    0.1647 H   0  0  0  0  0  0  0  0  0  0  0  0
    4.6730    0.1214    1.1764 H   0  0  0  0  0  0  0  0  0  0  0  0
    4.9424    0.3709   -1.8007 H   0  0  0  0  0  0  0  0  0  0  0  0
    5.0132   -1.0617   -0.7510 H   0  0  0  0  0  0  0  0  0  0  0  0
    3.2484   -1.4751   -2.1607 H   0  0  0  0  0  0  0  0  0  0  0  0
    2.4393    0.0959   -1.9224 H   0  0  0  0  0  0  0  0  0  0  0  0
    1.5501   -1.8724   -0.4892 H   0  0  0  0  0  0  0  0  0  0  0  0
   -1.2739   -4.0189    0.6276 H   0  0  0  0  0  0  0  0  0  0  0  0
   -2.9026   -2.4169    1.7086 H   0  0  0  0  0  0  0  0  0  0  0  0
   -3.5638   -2.9310   -0.9993 H   0  0  0  0  0  0  0  0  0  0  0  0
   -1.1960   -2.0876   -0.8009 H   0  0  0  0  0  0  0  0  0  0  0  0
   -0.5371   -2.1265    0.8292 H   0  0  0  0  0  0  0  0  0  0  0  0
   -1.7648   -0.0128    1.3703 H   0  0  0  0  0  0  0  0  0  0  0  0
   -3.5733   -0.2930   -0.3299 H   0  0  0  0  0  0  0  0  0  0  0  0
   -2.3729    0.0380   -1.6476 H   0  0  0  0  0  0  0  0  0  0  0  0
   -3.4356    2.0838   -1.1159 H   0  0  0  0  0  0  0  0  0  0  0  0
   -4.7815    1.3403    0.7102 H   0  0  0  0  0  0  0  0  0  0  0  0
   -3.8278    2.8108    1.2279 H   0  0  0  0  0  0  0  0  0  0  0  0
   -3.3240    1.2197    1.8162 H   0  0  0  0  0  0  0  0  0  0  0  0
   -1.5862    2.7230    1.1746 H   0  0  0  0  0  0  0  0  0  0  0  0
   -1.6938    3.4211   -0.4504 H   0  0  0  0  0  0  0  0  0  0  0  0
   -0.1645    2.0518   -1.4032 H   0  0  0  0  0  0  0  0  0  0  0  0
    0.4453    2.3998    0.2191 H   0  0  0  0  0  0  0  0  0  0  0  0
    0.1027   -0.1340   -0.9751 H   0  0  0  0  0  0  0  0  0  0  0  0
    0.5362    0.4366    1.9420 H   0  0  0  0  0  0  0  0  0  0  0  0
    2.5132   -0.5064    1.7801 H   0  0  0  0  0  0  0  0  0  0  0  0
    2.5707    1.5667   -0.4869 H   0  0  0  0  0  0  0  0  0  0  0  0
    4.8952    1.5768    0.1647 H   0  0  0  0  0  0  0  0  0  0  0  0
    4.6730    0.1214    1.1764 H   0  0  0  0  0  0  0  0  0  0  0  0
    4.9424    0.3709   -1.8007 H   0  0  0  0  0  0  0  0  0  0  0  0
    5.0132   -1.0617   -0.7510 H   0  0  0  0  0  0  0  0  0  0  0  0
    3.2484   -1.4751   -2.1607 H   0  0  0  0  0  0  0  0  0  0  0  0
    2.4393    0.0959   -1.9224 H   0  0  0  0  0  0  0  0  0  0  0  0
    1.5501   -1.8724   -0.4892 H   0  0  0  0  0  0  0  0  0  0  0  0
  1  2  1  0
  2  3  1  0
  2  4  1  0
  4  5  1  0
  5  6  1  0
  6  7  1  0
  7  8  1  0
  7  9  1  0
  9 10  1  0
  5 11  1  0
 10 11  1  0
 11 12  1  0
 12 13  1  0
 13 14  1  0
 14 15  1  0
 14 16  1  0
 16 17  1  0
 17 18  1  0
 13 19  1  0
 18 19  1  0
 19 20  1  0
 21 22  1  0
 22 23  1  0
 22 24  1  0
 24 25  1  0
 25 26  1  0
 26 27  1  0
 27 28  1  0
 27 29  1  0
 29 30  1  0
 25 31  1  0
 30 31  1  0
 31 32  1  0
 32 33  1  0
 33 34  1  0
 34 35  1  0
 34 36  1  0
 36 37  1  0
 37 38  1  0
 33 39  1  0
 38 39  1  0
 39 40  1  0
  1 41  1  0
  2 42  1  0
  3 43  1  0
  4 44  1  0
  4 45  1  0
  5 46  1  0
  6 47  1  0
  6 48  1  0
  7 49  1  0
  8 50  1  0
  8 51  1  0
  8 52  1  0
  9 53  1  0
  9 54  1  0
 10 55  1  0
 10 56  1  0
 11 57  1  0
 12 58  1  0
 13 59  1  0
 14 60  1  0
 16 61  1  0
 16 62  1  0
 17 63  1  0
 17 64  1  0
 18 65  1  0
 18 66  1  0
 19 67  1  0
 21 68  1  0
 22 69  1  0
 23 70  1  0
 24 71  1  0
 24 72  1  0
 25 73  1  0
 26 74  1  0
 26 75  1  0
 27 76  1  0
 28 77  1  0
 28 78  1  0
 28 79  1  0
 29 80  1  0
 29 81  1  0
 30 82  1  0
 30 83  1  0
 31 84  1  0
 32 85  1  0
 33 86  1  0
 34 87  1  0
 36 88  1  0
 36 89  1  0
 37 90  1  0
 37 91  1  0
 38 92  1  0
 38 93  1  0
 39 94  1  0
M  END
>  <PDBID>  (1) 
4OTY

>  <PDB ID>  (1) 
4OTY

>  <Generic Name>  (1) 
Lumiracoxib

>  <Brand Name>  (1) 
Prexige

>  <DrugBank ID>  (1) 
DB01283

>  <ATC Codes>  (1) 
M01AH06

>  <Ligand ID>  (1) 
LUR

>  <Target Name>  (1) 
Prostaglandin G/H synthase 1

>  <UniProt ID>  (1) 
P23219

>  <PDB ID.1>  (1) 
4OTY

>  <Seq. Identity>  (1) 
62%

$$$$
