PDB_DB09330_05
     RDKit          3D

 94 97  0  0  0  0  0  0  0  0999 V2000
    6.3373    2.6742    1.2145 C   0  0  0  0  0  0  0  0  0  0  0  0
    6.5276    1.3006    0.7895 N   0  0  0  0  0  0  0  0  0  0  0  0
    7.9175    1.1432    0.3890 C   0  0  0  0  0  0  0  0  0  0  0  0
    5.7247    1.0390   -0.3708 C   0  0  0  0  0  0  0  0  0  0  0  0
    4.2344    1.0105   -0.1326 C   0  0  0  0  0  0  0  0  0  0  0  0
    3.8734   -0.0075    0.7502 N   0  0  0  0  0  0  0  0  0  0  0  0
    4.3410    0.2986    2.1046 C   0  0  0  0  0  0  0  0  0  0  0  0
    1.4413    0.3634    1.1245 C   0  0  0  0  0  0  0  0  0  0  0  0
    0.8169    1.1739    0.0384 C   0  0  0  0  0  0  0  0  0  0  0  0
    1.3447    2.4837    0.0688 O   0  0  0  0  0  0  0  0  0  0  0  0
    0.4496    3.4337    0.4812 C   0  0  0  0  0  0  0  0  0  0  0  0
    2.5591   -0.5369    0.7589 C   0  0  0  0  0  0  0  0  0  0  0  0
    2.2966   -1.3447   -0.4765 C   0  0  2  0  0  0  0  0  0  0  0  0
    3.5870   -1.8584   -0.9405 N   0  0  0  0  0  0  0  0  0  0  0  0
    4.2233   -2.7596   -0.0484 C   0  0  0  0  0  0  0  0  0  0  0  0
    3.4438   -3.8597    0.2951 O   0  0  0  0  0  0  0  0  0  0  0  0
    5.4936   -3.2843   -0.7179 C   0  0  0  0  0  0  0  0  0  0  0  0
    5.1779   -4.0068   -2.0082 C   0  0  0  0  0  0  0  0  0  0  0  0
    1.6314   -0.6373   -1.5860 C   0  0  0  0  0  0  0  0  0  0  0  0
    0.9146    0.6454   -1.3227 C   0  0  0  0  0  0  0  0  0  0  0  0
   -0.2479    0.6865   -2.1430 N   0  0  0  0  0  0  0  0  0  0  0  0
   -1.4192    0.0235   -1.8848 C   0  0  0  0  0  0  0  0  0  0  0  0
   -2.0690    0.5327   -0.6708 N   0  0  0  0  0  0  0  0  0  0  0  0
   -1.4151   -1.4105   -1.9109 N   0  0  0  0  0  0  0  0  0  0  0  0
   -2.0567   -2.0450   -0.8211 C   0  0  0  0  0  0  0  0  0  0  0  0
   -3.3042   -1.4498   -0.2904 C   0  0  0  0  0  0  0  0  0  0  0  0
   -3.4280   -0.0388   -0.7276 C   0  0  0  0  0  0  0  0  0  0  0  0
   -4.3461    0.8183    0.0486 C   0  0  0  0  0  0  0  0  0  0  0  0
   -5.7556    0.2233   -0.0091 C   0  0  0  0  0  0  0  0  0  0  0  0
   -6.4921    0.5970   -1.2493 C   0  0  0  0  0  0  0  0  0  0  0  0
   -7.7960    1.2506   -0.9316 C   0  0  0  0  0  0  0  0  0  0  0  0
   -8.5656    0.5747    0.1762 C   0  0  0  0  0  0  0  0  0  0  0  0
   -7.7226    0.4196    1.4349 C   0  0  0  0  0  0  0  0  0  0  0  0
   -6.3816    0.9878    1.1515 C   0  0  0  0  0  0  0  0  0  0  0  0
   -5.4012    0.8404    2.1738 N   0  0  0  0  0  0  0  0  0  0  0  0
   -5.4817   -0.3697    2.9323 C   0  0  0  0  0  0  0  0  0  0  0  0
   -4.1038    0.9157    1.4995 C   0  0  0  0  0  0  0  0  0  0  0  0
    7.2865    3.2478    1.1378 H   0  0  0  0  0  0  0  0  0  0  0  0
    6.0825    2.6493    2.2942 H   0  0  0  0  0  0  0  0  0  0  0  0
    5.6064    3.2217    0.5943 H   0  0  0  0  0  0  0  0  0  0  0  0
    8.0905    0.0541    0.2545 H   0  0  0  0  0  0  0  0  0  0  0  0
    8.5539    1.5637    1.1914 H   0  0  0  0  0  0  0  0  0  0  0  0
    8.0835    1.7167   -0.5542 H   0  0  0  0  0  0  0  0  0  0  0  0
    6.0641    0.1034   -0.9034 H   0  0  0  0  0  0  0  0  0  0  0  0
    5.9976    1.8486   -1.1115 H   0  0  0  0  0  0  0  0  0  0  0  0
    3.9927    2.0161    0.2920 H   0  0  0  0  0  0  0  0  0  0  0  0
    3.7861    0.8934   -1.1526 H   0  0  0  0  0  0  0  0  0  0  0  0
    3.7071   -0.3548    2.7898 H   0  0  0  0  0  0  0  0  0  0  0  0
    5.3650    0.0048    2.3039 H   0  0  0  0  0  0  0  0  0  0  0  0
    4.0720    1.3449    2.3104 H   0  0  0  0  0  0  0  0  0  0  0  0
    1.6985    1.0122    2.0235 H   0  0  0  0  0  0  0  0  0  0  0  0
    0.6164   -0.2836    1.5734 H   0  0  0  0  0  0  0  0  0  0  0  0
   -0.2479    1.3447    0.3844 H   0  0  0  0  0  0  0  0  0  0  0  0
    0.0651    3.2437    1.5237 H   0  0  0  0  0  0  0  0  0  0  0  0
   -0.4749    3.3037   -0.1577 H   0  0  0  0  0  0  0  0  0  0  0  0
    0.7700    4.4623    0.3406 H   0  0  0  0  0  0  0  0  0  0  0  0
    2.6020   -1.3443    1.5929 H   0  0  0  0  0  0  0  0  0  0  0  0
    1.6967   -2.2653   -0.1633 H   0  0  0  0  0  0  0  0  0  0  0  0
    3.4147   -2.2969   -1.8708 H   0  0  0  0  0  0  0  0  0  0  0  0
    4.5593   -2.2683    0.8721 H   0  0  0  0  0  0  0  0  0  0  0  0
    3.9354   -4.7089    0.1451 H   0  0  0  0  0  0  0  0  0  0  0  0
    5.9477   -4.0314   -0.0125 H   0  0  0  0  0  0  0  0  0  0  0  0
    6.2197   -2.4998   -0.9292 H   0  0  0  0  0  0  0  0  0  0  0  0
    4.1298   -4.3348   -2.0666 H   0  0  0  0  0  0  0  0  0  0  0  0
    5.4375   -3.4196   -2.9131 H   0  0  0  0  0  0  0  0  0  0  0  0
    5.8024   -4.9434   -2.0829 H   0  0  0  0  0  0  0  0  0  0  0  0
    2.3972   -0.5235   -2.4294 H   0  0  0  0  0  0  0  0  0  0  0  0
    0.9037   -1.3521   -2.0782 H   0  0  0  0  0  0  0  0  0  0  0  0
    1.6008    1.4242   -1.8709 H   0  0  0  0  0  0  0  0  0  0  0  0
   -0.1515    1.2029   -3.0391 H   0  0  0  0  0  0  0  0  0  0  0  0
   -2.1681    0.3399   -2.6882 H   0  0  0  0  0  0  0  0  0  0  0  0
   -2.2487    1.5627   -0.8916 H   0  0  0  0  0  0  0  0  0  0  0  0
   -1.8520   -1.7339   -2.7943 H   0  0  0  0  0  0  0  0  0  0  0  0
   -2.2207   -3.1327   -1.0363 H   0  0  0  0  0  0  0  0  0  0  0  0
   -1.3070   -2.0654    0.0261 H   0  0  0  0  0  0  0  0  0  0  0  0
   -4.1654   -2.0933   -0.6502 H   0  0  0  0  0  0  0  0  0  0  0  0
   -3.3116   -1.4526    0.8402 H   0  0  0  0  0  0  0  0  0  0  0  0
   -3.7308   -0.0454   -1.8124 H   0  0  0  0  0  0  0  0  0  0  0  0
   -4.4327    1.8104   -0.4480 H   0  0  0  0  0  0  0  0  0  0  0  0
   -5.7638   -0.8521    0.1560 H   0  0  0  0  0  0  0  0  0  0  0  0
   -6.5828   -0.2904   -1.9193 H   0  0  0  0  0  0  0  0  0  0  0  0
   -5.8598    1.3253   -1.8097 H   0  0  0  0  0  0  0  0  0  0  0  0
   -8.4424    1.1554   -1.8500 H   0  0  0  0  0  0  0  0  0  0  0  0
   -7.6682    2.3317   -0.7594 H   0  0  0  0  0  0  0  0  0  0  0  0
   -8.9349   -0.3986   -0.2036 H   0  0  0  0  0  0  0  0  0  0  0  0
   -9.4326    1.2208    0.4096 H   0  0  0  0  0  0  0  0  0  0  0  0
   -7.6846   -0.6542    1.6587 H   0  0  0  0  0  0  0  0  0  0  0  0
   -8.2260    0.9060    2.2880 H   0  0  0  0  0  0  0  0  0  0  0  0
   -6.4556    2.0526    0.8583 H   0  0  0  0  0  0  0  0  0  0  0  0
   -6.3173   -0.3353    3.6641 H   0  0  0  0  0  0  0  0  0  0  0  0
   -4.5389   -0.4532    3.5327 H   0  0  0  0  0  0  0  0  0  0  0  0
   -5.5226   -1.2933    2.3151 H   0  0  0  0  0  0  0  0  0  0  0  0
   -3.7471    1.9698    1.7084 H   0  0  0  0  0  0  0  0  0  0  0  0
   -3.3462    0.2669    1.9277 H   0  0  0  0  0  0  0  0  0  0  0  0
  1  2  1  0
  2  3  1  0
  2  4  1  0
  4  5  1  0
  5  6  1  0
  6  7  1  0
  8  9  1  0
  9 10  1  0
 10 11  1  0
  6 12  1  0
  8 12  1  0
 12 13  1  0
 13 14  1  0
 14 15  1  0
 15 16  1  0
 15 17  1  0
 17 18  1  0
 13 19  1  0
  9 20  1  0
 19 20  1  0
 20 21  1  0
 21 22  1  0
 22 23  1  0
 22 24  1  0
 24 25  1  0
 25 26  1  0
 23 27  1  0
 26 27  1  0
 27 28  1  0
 28 29  1  0
 29 30  1  0
 30 31  1  0
 31 32  1  0
 32 33  1  0
 29 34  1  0
 33 34  1  0
 34 35  1  0
 35 36  1  0
 28 37  1  0
 35 37  1  0
  1 38  1  0
  1 39  1  0
  1 40  1  0
  3 41  1  0
  3 42  1  0
  3 43  1  0
  4 44  1  0
  4 45  1  0
  5 46  1  0
  5 47  1  0
  7 48  1  0
  7 49  1  0
  7 50  1  0
  8 51  1  0
  8 52  1  0
  9 53  1  0
 11 54  1  0
 11 55  1  0
 11 56  1  0
 12 57  1  0
 13 58  1  1
 14 59  1  0
 15 60  1  0
 16 61  1  0
 17 62  1  0
 17 63  1  0
 18 64  1  0
 18 65  1  0
 18 66  1  0
 19 67  1  0
 19 68  1  0
 20 69  1  0
 21 70  1  0
 22 71  1  0
 23 72  1  0
 24 73  1  0
 25 74  1  0
 25 75  1  0
 26 76  1  0
 26 77  1  0
 27 78  1  0
 28 79  1  0
 29 80  1  0
 30 81  1  0
 30 82  1  0
 31 83  1  0
 31 84  1  0
 32 85  1  0
 32 86  1  0
 33 87  1  0
 33 88  1  0
 34 89  1  0
 36 90  1  0
 36 91  1  0
 36 92  1  0
 37 93  1  0
 37 94  1  0
M  END
>  <PDBID>  (1) 
4ZAU

>  <PDB ID>  (1) 
4ZAU

>  <Generic Name>  (1) 
Osimertinib

>  <Brand Name>  (1) 
Tagrisso

>  <DrugBank ID>  (1) 
DB09330

>  <ATC Codes>  (1) 
nan

>  <Ligand ID>  (1) 
YY3

>  <Target Name>  (1) 
Epidermal growth factor receptor

>  <UniProt ID>  (1) 
P00533

>  <PDB ID.1>  (1) 
4ZAU

>  <Seq. Identity>  (1) 
96%

$$$$
