PDB_DB00360_06
     RDKit          3D

 38 39  0  0  0  0  0  0  0  0999 V2000
    2.9113   -0.9617   -0.2907 N   0  0  0  0  0  0  0  0  0  0  0  0
    3.5572    0.0612    0.4959 C   0  0  2  0  0  0  0  0  0  0  0  0
    3.8206   -0.3803    1.8546 N   0  0  0  0  0  0  0  0  0  0  0  0
    2.8877    1.3275    0.4551 N   0  0  0  0  0  0  0  0  0  0  0  0
    1.5375    1.2959    0.9095 C   0  0  1  0  0  0  0  0  0  0  0  0
    0.8566    2.3547    0.2653 O   0  0  0  0  0  0  0  0  0  0  0  0
    0.8461   -0.0323    0.5795 C   0  0  2  0  0  0  0  0  0  0  0  0
    1.5384   -0.5733   -0.6481 C   0  0  2  0  0  0  0  0  0  0  0  0
   -0.5066    0.3018    0.1971 N   0  0  0  0  0  0  0  0  0  0  0  0
    0.8854   -1.7553   -1.1051 N   0  0  0  0  0  0  0  0  0  0  0  0
   -1.2487   -0.8124   -0.3077 C   0  0  2  0  0  0  0  0  0  0  0  0
   -0.5195   -1.6294   -1.3285 C   0  0  0  0  0  0  0  0  0  0  0  0
   -2.5017   -0.2753   -0.9708 C   0  0  1  0  0  0  0  0  0  0  0  0
   -3.1946   -1.4078   -1.4500 O   0  0  0  0  0  0  0  0  0  0  0  0
   -3.4286    0.3963    0.0155 C   0  0  2  0  0  0  0  0  0  0  0  0
   -2.9052    1.7178    0.5100 C   0  0  0  0  0  0  0  0  0  0  0  0
   -3.7520   -0.4449    1.0675 O   0  0  0  0  0  0  0  0  0  0  0  0
    2.9189   -1.8950    0.1793 H   0  0  0  0  0  0  0  0  0  0  0  0
    4.5699    0.2199    0.0211 H   0  0  0  0  0  0  0  0  0  0  0  0
    3.2478    0.1878    2.5273 H   0  0  0  0  0  0  0  0  0  0  0  0
    4.8248   -0.1858    2.1394 H   0  0  0  0  0  0  0  0  0  0  0  0
    3.0122    1.7748   -0.4759 H   0  0  0  0  0  0  0  0  0  0  0  0
    1.4634    1.5171    1.9923 H   0  0  0  0  0  0  0  0  0  0  0  0
    1.1450    2.2975   -0.6964 H   0  0  0  0  0  0  0  0  0  0  0  0
    0.8482   -0.7228    1.4228 H   0  0  0  0  0  0  0  0  0  0  0  0
    1.6061    0.2341   -1.3894 H   0  0  0  0  0  0  0  0  0  0  0  0
   -0.5478    1.1443   -0.4201 H   0  0  0  0  0  0  0  0  0  0  0  0
    1.3461   -2.0641   -1.9911 H   0  0  0  0  0  0  0  0  0  0  0  0
   -1.6056   -1.4433    0.5481 H   0  0  0  0  0  0  0  0  0  0  0  0
   -0.6692   -1.2395   -2.3610 H   0  0  0  0  0  0  0  0  0  0  0  0
   -0.9596   -2.6500   -1.3219 H   0  0  0  0  0  0  0  0  0  0  0  0
   -2.2766    0.3860   -1.8314 H   0  0  0  0  0  0  0  0  0  0  0  0
   -2.9865   -2.1827   -0.8739 H   0  0  0  0  0  0  0  0  0  0  0  0
   -4.3729    0.6080   -0.5351 H   0  0  0  0  0  0  0  0  0  0  0  0
   -2.6070    2.3710   -0.3136 H   0  0  0  0  0  0  0  0  0  0  0  0
   -3.7810    2.2313    1.0052 H   0  0  0  0  0  0  0  0  0  0  0  0
   -2.1504    1.6111    1.3128 H   0  0  0  0  0  0  0  0  0  0  0  0
   -3.8095   -1.3822    0.8125 H   0  0  0  0  0  0  0  0  0  0  0  0
  1  2  1  0
  2  3  1  0
  2  4  1  0
  4  5  1  0
  5  6  1  0
  5  7  1  0
  1  8  1  0
  7  8  1  0
  7  9  1  0
  8 10  1  0
  9 11  1  0
 10 12  1  0
 11 12  1  0
 11 13  1  0
 13 14  1  0
 13 15  1  0
 15 16  1  0
 15 17  1  0
  1 18  1  0
  2 19  1  6
  3 20  1  0
  3 21  1  0
  4 22  1  0
  5 23  1  1
  6 24  1  0
  7 25  1  1
  8 26  1  6
  9 27  1  0
 10 28  1  0
 11 29  1  1
 12 30  1  0
 12 31  1  0
 13 32  1  6
 14 33  1  0
 15 34  1  6
 16 35  1  0
 16 36  1  0
 16 37  1  0
 17 38  1  0
M  END
>  <PDBID>  (1) 
1J8U

>  <PDB ID>  (1) 
1J8U

>  <Generic Name>  (1) 
Sapropterin

>  <Brand Name>  (1) 
Kuvan#BH4#Biopten

>  <DrugBank ID>  (1) 
DB00360

>  <ATC Codes>  (1) 
A16AX07

>  <Ligand ID>  (1) 
BH4,BHS,H4B,THB

>  <Target Name>  (1) 
Tryptophan 5-hydroxylase 1

>  <UniProt ID>  (1) 
P17752

>  <PDB ID.1>  (1) 
1J8U

>  <Seq. Identity>  (1) 
65%

$$$$
