PDB_DB13139_06
     RDKit          3D

 88 88  0  0  0  0  0  0  0  0999 V2000
    3.2468   -3.0777    0.8148 O   0  0  0  0  0  0  0  0  0  0  0  0
    3.9489   -1.8622    0.8616 C   0  0  0  0  0  0  0  0  0  0  0  0
    3.2212   -0.8891   -0.0050 C   0  0  0  0  0  0  0  0  0  0  0  0
    3.8579    0.4699   -0.0637 C   0  0  0  0  0  0  0  0  0  0  0  0
    5.0555    0.4289    0.6251 O   0  0  0  0  0  0  0  0  0  0  0  0
    3.0055    1.5416    0.6044 C   0  0  0  0  0  0  0  0  0  0  0  0
    1.6780    1.7225   -0.1285 C   0  0  0  0  0  0  0  0  0  0  0  0
    1.7606   -0.7203    0.3265 C   0  0  0  0  0  0  0  0  0  0  0  0
    1.2284    0.3762   -0.5826 C   0  0  0  0  0  0  0  0  0  0  0  0
   -0.1748    0.2090   -0.9402 C   0  0  1  0  0  0  0  0  0  0  0  0
   -0.3289   -1.1368   -1.3647 O   0  0  0  0  0  0  0  0  0  0  0  0
   -1.2363    0.4010    0.1034 C   0  0  0  0  0  0  0  0  0  0  0  0
   -2.4561    0.1545   -0.5886 N   0  0  0  0  0  0  0  0  0  0  0  0
   -3.6802    0.0288    0.0506 C   0  0  0  0  0  0  0  0  0  0  0  0
   -4.0988    1.2946    0.7669 C   0  0  0  0  0  0  0  0  0  0  0  0
   -4.7106   -0.1321   -1.0885 C   0  0  0  0  0  0  0  0  0  0  0  0
   -3.9043   -1.1581    0.9240 C   0  0  0  0  0  0  0  0  0  0  0  0
    3.2468   -3.0777    0.8148 O   0  0  0  0  0  0  0  0  0  0  0  0
    3.9489   -1.8622    0.8616 C   0  0  0  0  0  0  0  0  0  0  0  0
    3.2212   -0.8891   -0.0050 C   0  0  0  0  0  0  0  0  0  0  0  0
    3.8579    0.4699   -0.0637 C   0  0  0  0  0  0  0  0  0  0  0  0
    5.0555    0.4289    0.6251 O   0  0  0  0  0  0  0  0  0  0  0  0
    3.0055    1.5416    0.6044 C   0  0  0  0  0  0  0  0  0  0  0  0
    1.6780    1.7225   -0.1285 C   0  0  0  0  0  0  0  0  0  0  0  0
    1.7606   -0.7203    0.3265 C   0  0  0  0  0  0  0  0  0  0  0  0
    1.2284    0.3762   -0.5826 C   0  0  0  0  0  0  0  0  0  0  0  0
   -0.1748    0.2090   -0.9402 C   0  0  1  0  0  0  0  0  0  0  0  0
   -0.3289   -1.1368   -1.3647 O   0  0  0  0  0  0  0  0  0  0  0  0
   -1.2363    0.4010    0.1034 C   0  0  0  0  0  0  0  0  0  0  0  0
   -2.4561    0.1545   -0.5886 N   0  0  0  0  0  0  0  0  0  0  0  0
   -3.6802    0.0288    0.0506 C   0  0  0  0  0  0  0  0  0  0  0  0
   -4.0988    1.2946    0.7669 C   0  0  0  0  0  0  0  0  0  0  0  0
   -4.7106   -0.1321   -1.0885 C   0  0  0  0  0  0  0  0  0  0  0  0
   -3.9043   -1.1581    0.9240 C   0  0  0  0  0  0  0  0  0  0  0  0
    2.7175   -3.1327   -0.0263 H   0  0  0  0  0  0  0  0  0  0  0  0
    4.0385   -1.4414    1.8583 H   0  0  0  0  0  0  0  0  0  0  0  0
    4.9333   -2.0635    0.3926 H   0  0  0  0  0  0  0  0  0  0  0  0
    3.2535   -1.3049   -1.0533 H   0  0  0  0  0  0  0  0  0  0  0  0
    4.0105    0.8215   -1.1255 H   0  0  0  0  0  0  0  0  0  0  0  0
    5.5926    1.1979    0.3365 H   0  0  0  0  0  0  0  0  0  0  0  0
    3.5795    2.4795    0.6020 H   0  0  0  0  0  0  0  0  0  0  0  0
    2.7868    1.2257    1.6521 H   0  0  0  0  0  0  0  0  0  0  0  0
    1.0205    2.2704    0.5272 H   0  0  0  0  0  0  0  0  0  0  0  0
    1.9282    2.3934   -1.0032 H   0  0  0  0  0  0  0  0  0  0  0  0
    1.6143   -0.4504    1.4027 H   0  0  0  0  0  0  0  0  0  0  0  0
    1.1642   -1.6209    0.0743 H   0  0  0  0  0  0  0  0  0  0  0  0
    1.7964    0.2167   -1.5582 H   0  0  0  0  0  0  0  0  0  0  0  0
   -0.4093    0.8161   -1.8609 H   0  0  0  0  0  0  0  0  0  0  0  0
   -0.2308   -1.2315   -2.3188 H   0  0  0  0  0  0  0  0  0  0  0  0
   -1.0051   -0.1830    0.9720 H   0  0  0  0  0  0  0  0  0  0  0  0
   -1.2872    1.4793    0.4444 H   0  0  0  0  0  0  0  0  0  0  0  0
   -2.5541    0.9359   -1.3053 H   0  0  0  0  0  0  0  0  0  0  0  0
   -5.1827    1.1865    1.0770 H   0  0  0  0  0  0  0  0  0  0  0  0
   -3.4469    1.5453    1.6287 H   0  0  0  0  0  0  0  0  0  0  0  0
   -4.1060    2.1261    0.0398 H   0  0  0  0  0  0  0  0  0  0  0  0
   -4.3124   -0.9677   -1.7033 H   0  0  0  0  0  0  0  0  0  0  0  0
   -4.5932    0.7816   -1.7134 H   0  0  0  0  0  0  0  0  0  0  0  0
   -5.7145   -0.2990   -0.7177 H   0  0  0  0  0  0  0  0  0  0  0  0
   -4.7658   -0.9428    1.5866 H   0  0  0  0  0  0  0  0  0  0  0  0
   -4.1841   -2.0585    0.3321 H   0  0  0  0  0  0  0  0  0  0  0  0
   -3.0566   -1.4303    1.5787 H   0  0  0  0  0  0  0  0  0  0  0  0
    2.7175   -3.1327   -0.0263 H   0  0  0  0  0  0  0  0  0  0  0  0
    4.0385   -1.4414    1.8583 H   0  0  0  0  0  0  0  0  0  0  0  0
    4.9333   -2.0635    0.3926 H   0  0  0  0  0  0  0  0  0  0  0  0
    3.2535   -1.3049   -1.0533 H   0  0  0  0  0  0  0  0  0  0  0  0
    4.0105    0.8215   -1.1255 H   0  0  0  0  0  0  0  0  0  0  0  0
    5.5926    1.1979    0.3365 H   0  0  0  0  0  0  0  0  0  0  0  0
    3.5795    2.4795    0.6020 H   0  0  0  0  0  0  0  0  0  0  0  0
    2.7868    1.2257    1.6521 H   0  0  0  0  0  0  0  0  0  0  0  0
    1.0205    2.2704    0.5272 H   0  0  0  0  0  0  0  0  0  0  0  0
    1.9282    2.3934   -1.0032 H   0  0  0  0  0  0  0  0  0  0  0  0
    1.6143   -0.4504    1.4027 H   0  0  0  0  0  0  0  0  0  0  0  0
    1.1642   -1.6209    0.0743 H   0  0  0  0  0  0  0  0  0  0  0  0
    1.7964    0.2167   -1.5582 H   0  0  0  0  0  0  0  0  0  0  0  0
   -0.4093    0.8161   -1.8609 H   0  0  0  0  0  0  0  0  0  0  0  0
   -0.2308   -1.2315   -2.3188 H   0  0  0  0  0  0  0  0  0  0  0  0
   -1.0051   -0.1830    0.9720 H   0  0  0  0  0  0  0  0  0  0  0  0
   -1.2872    1.4793    0.4444 H   0  0  0  0  0  0  0  0  0  0  0  0
   -2.5541    0.9359   -1.3053 H   0  0  0  0  0  0  0  0  0  0  0  0
   -5.1827    1.1865    1.0770 H   0  0  0  0  0  0  0  0  0  0  0  0
   -3.4469    1.5453    1.6287 H   0  0  0  0  0  0  0  0  0  0  0  0
   -4.1060    2.1261    0.0398 H   0  0  0  0  0  0  0  0  0  0  0  0
   -4.3124   -0.9677   -1.7033 H   0  0  0  0  0  0  0  0  0  0  0  0
   -4.5932    0.7816   -1.7134 H   0  0  0  0  0  0  0  0  0  0  0  0
   -5.7145   -0.2990   -0.7177 H   0  0  0  0  0  0  0  0  0  0  0  0
   -4.7658   -0.9428    1.5866 H   0  0  0  0  0  0  0  0  0  0  0  0
   -4.1841   -2.0585    0.3321 H   0  0  0  0  0  0  0  0  0  0  0  0
   -3.0566   -1.4303    1.5787 H   0  0  0  0  0  0  0  0  0  0  0  0
  1  2  1  0
  2  3  1  0
  3  4  1  0
  4  5  1  0
  4  6  1  0
  6  7  1  0
  3  8  1  0
  7  9  1  0
  8  9  1  0
  9 10  1  0
 10 11  1  0
 10 12  1  0
 12 13  1  0
 14 13  1  0
 14 15  1  0
 14 16  1  0
 14 17  1  0
 18 19  1  0
 19 20  1  0
 20 21  1  0
 21 22  1  0
 21 23  1  0
 23 24  1  0
 20 25  1  0
 24 26  1  0
 25 26  1  0
 26 27  1  0
 27 28  1  0
 27 29  1  0
 29 30  1  0
 31 30  1  0
 31 32  1  0
 31 33  1  0
 31 34  1  0
  1 35  1  0
  2 36  1  0
  2 37  1  0
  3 38  1  0
  4 39  1  0
  5 40  1  0
  6 41  1  0
  6 42  1  0
  7 43  1  0
  7 44  1  0
  8 45  1  0
  8 46  1  0
  9 47  1  0
 10 48  1  6
 11 49  1  0
 12 50  1  0
 12 51  1  0
 13 52  1  0
 15 53  1  0
 15 54  1  0
 15 55  1  0
 16 56  1  0
 16 57  1  0
 16 58  1  0
 17 59  1  0
 17 60  1  0
 17 61  1  0
 18 62  1  0
 19 63  1  0
 19 64  1  0
 20 65  1  0
 21 66  1  0
 22 67  1  0
 23 68  1  0
 23 69  1  0
 24 70  1  0
 24 71  1  0
 25 72  1  0
 25 73  1  0
 26 74  1  0
 27 75  1  6
 28 76  1  0
 29 77  1  0
 29 78  1  0
 30 79  1  0
 32 80  1  0
 32 81  1  0
 32 82  1  0
 33 83  1  0
 33 84  1  0
 33 85  1  0
 34 86  1  0
 34 87  1  0
 34 88  1  0
M  END
>  <PDBID>  (1) 
2Y04

>  <PDB ID>  (1) 
2Y04

>  <Generic Name>  (1) 
Levosalbutamol

>  <Brand Name>  (1) 
Levalbuterol#Levalbuterol Hydrochloride#Xopenex

>  <DrugBank ID>  (1) 
DB13139

>  <ATC Codes>  (1) 
nan

>  <Ligand ID>  (1) 
68H

>  <Target Name>  (1) 
Beta-2 adrenergic receptor

>  <UniProt ID>  (1) 
P07550

>  <PDB ID.1>  (1) 
2Y04

>  <Seq. Identity>  (1) 
58%

$$$$
