PDB_DB01136_01
     RDKit          3D

148154  0  0  0  0  0  0  0  0999 V2000
    0.1302    1.4605   -1.2397 O   0  0  0  0  0  0  0  0  0  0  0  0
    0.0888    1.2582    0.1442 C   0  0  2  0  0  0  0  0  0  0  0  0
   -1.2915    1.7194    0.6402 C   0  0  0  0  0  0  0  0  0  0  0  0
   -2.3329    1.0512    0.0771 O   0  0  0  0  0  0  0  0  0  0  0  0
   -2.4100   -0.2996    0.3125 C   0  0  2  0  0  0  0  0  0  0  0  0
   -2.1956   -1.1742   -0.8914 C   0  0  0  0  0  0  0  0  0  0  0  0
   -2.2150   -2.6061   -0.4002 C   0  0  0  0  0  0  0  0  0  0  0  0
   -3.5880   -2.9238    0.1206 C   0  0  0  0  0  0  0  0  0  0  0  0
   -4.0649   -2.0106    1.1851 C   0  0  0  0  0  0  0  0  0  0  0  0
   -3.6476   -0.5839    1.0974 C   0  0  0  0  0  0  0  0  0  0  0  0
   -4.8444    0.2247    0.7647 C   0  0  0  0  0  0  0  0  0  0  0  0
   -5.1089    0.6132   -0.6200 C   0  0  0  0  0  0  0  0  0  0  0  0
   -5.9160   -0.3405   -1.4651 C   0  0  0  0  0  0  0  0  0  0  0  0
   -7.1751   -0.8276   -0.8406 C   0  0  0  0  0  0  0  0  0  0  0  0
   -7.2688   -0.4443    0.6136 C   0  0  0  0  0  0  0  0  0  0  0  0
   -5.9526   -0.6565    1.3028 C   0  0  0  0  0  0  0  0  0  0  0  0
   -5.5129   -2.0064    1.2051 N   0  0  0  0  0  0  0  0  0  0  0  0
    1.0760    2.1437    0.8342 C   0  0  0  0  0  0  0  0  0  0  0  0
    2.4614    1.9829    0.4818 N   0  0  0  0  0  0  0  0  0  0  0  0
    2.7498    2.4114   -0.8437 C   0  0  0  0  0  0  0  0  0  0  0  0
    4.1747    2.6175   -1.2202 C   0  0  0  0  0  0  0  0  0  0  0  0
    5.0634    1.6204   -1.1563 O   0  0  0  0  0  0  0  0  0  0  0  0
    5.4016    1.0699    0.0574 C   0  0  0  0  0  0  0  0  0  0  0  0
    6.8578    1.4150    0.3017 C   0  0  0  0  0  0  0  0  0  0  0  0
    7.8286    0.4052   -0.1960 C   0  0  0  0  0  0  0  0  0  0  0  0
    7.2314   -0.2514   -1.4231 C   0  0  0  0  0  0  0  0  0  0  0  0
    6.1101   -1.1223   -0.9340 C   0  0  0  0  0  0  0  0  0  0  0  0
    5.1564   -0.3989   -0.0206 C   0  0  0  0  0  0  0  0  0  0  0  0
    5.3478   -0.9471    1.2458 O   0  0  0  0  0  0  0  0  0  0  0  0
    4.2176   -1.6491    1.6883 C   0  0  0  0  0  0  0  0  0  0  0  0
   -1.6583    2.4019   -0.3715 O   0  0  0  0  0  0  0  0  0  0  0  0
   -0.6606    1.7464    0.3581 C   0  0  2  0  0  0  0  0  0  0  0  0
   -1.1267    1.6871    1.7764 C   0  0  0  0  0  0  0  0  0  0  0  0
   -2.2881    1.0580    2.0415 O   0  0  0  0  0  0  0  0  0  0  0  0
   -2.3862   -0.2989    1.7270 C   0  0  1  0  0  0  0  0  0  0  0  0
   -2.5032   -1.0948    3.0281 C   0  0  0  0  0  0  0  0  0  0  0  0
   -3.0673   -2.4473    2.7430 C   0  0  0  0  0  0  0  0  0  0  0  0
   -4.4256   -2.4485    2.1409 C   0  0  0  0  0  0  0  0  0  0  0  0
   -4.7990   -1.0663    1.6970 C   0  0  0  0  0  0  0  0  0  0  0  0
   -3.6267   -0.4766    0.9242 C   0  0  2  0  0  0  0  0  0  0  0  0
   -3.5320   -1.4331   -0.2267 C   0  0  2  0  0  0  0  0  0  0  0  0
   -2.8981   -0.7513   -1.4022 C   0  0  0  0  0  0  0  0  0  0  0  0
   -3.1776   -1.4789   -2.7104 C   0  0  0  0  0  0  0  0  0  0  0  0
   -4.6446   -1.6592   -2.9096 C   0  0  0  0  0  0  0  0  0  0  0  0
   -5.4322   -1.0501   -1.7764 C   0  0  0  0  0  0  0  0  0  0  0  0
   -4.9987   -1.7469   -0.4926 C   0  0  0  0  0  0  0  0  0  0  0  0
   -5.7666   -1.2149    0.6048 N   0  0  0  0  0  0  0  0  0  0  0  0
    0.5886    2.6530    0.3772 C   0  0  0  0  0  0  0  0  0  0  0  0
    1.0027    2.8749   -0.9819 N   0  0  0  0  0  0  0  0  0  0  0  0
    2.1838    3.7277   -0.9213 C   0  0  0  0  0  0  0  0  0  0  0  0
    3.3744    3.0246   -0.3308 C   0  0  0  0  0  0  0  0  0  0  0  0
    3.7402    1.9029   -1.0694 O   0  0  0  0  0  0  0  0  0  0  0  0
    4.8266    1.2434   -0.5198 C   0  0  0  0  0  0  0  0  0  0  0  0
    5.9808    1.3496   -1.4942 C   0  0  0  0  0  0  0  0  0  0  0  0
    7.0584    0.3630   -1.2001 C   0  0  0  0  0  0  0  0  0  0  0  0
    6.5591   -1.0259   -1.4087 C   0  0  0  0  0  0  0  0  0  0  0  0
    5.1129   -1.1467   -1.1888 C   0  0  0  0  0  0  0  0  0  0  0  0
    4.4449   -0.1876   -0.2733 C   0  0  0  0  0  0  0  0  0  0  0  0
    4.7953   -0.5071    1.0326 O   0  0  0  0  0  0  0  0  0  0  0  0
    3.6687   -0.8933    1.7763 C   0  0  0  0  0  0  0  0  0  0  0  0
   -0.7793    1.4919   -1.6440 H   0  0  0  0  0  0  0  0  0  0  0  0
    0.2630    0.1943    0.3315 H   0  0  0  0  0  0  0  0  0  0  0  0
   -1.3588    2.7875    0.2886 H   0  0  0  0  0  0  0  0  0  0  0  0
   -1.3576    1.6738    1.7312 H   0  0  0  0  0  0  0  0  0  0  0  0
   -1.5237   -0.5429    0.9772 H   0  0  0  0  0  0  0  0  0  0  0  0
   -2.8367   -0.9856   -1.7436 H   0  0  0  0  0  0  0  0  0  0  0  0
   -1.1564   -0.9785   -1.2400 H   0  0  0  0  0  0  0  0  0  0  0  0
   -1.4219   -2.7274    0.3523 H   0  0  0  0  0  0  0  0  0  0  0  0
   -2.0274   -3.2570   -1.2774 H   0  0  0  0  0  0  0  0  0  0  0  0
   -3.5276   -3.9774    0.5271 H   0  0  0  0  0  0  0  0  0  0  0  0
   -4.2606   -3.0059   -0.7617 H   0  0  0  0  0  0  0  0  0  0  0  0
   -3.7845   -2.4846    2.1787 H   0  0  0  0  0  0  0  0  0  0  0  0
   -3.3814   -0.2954    2.1680 H   0  0  0  0  0  0  0  0  0  0  0  0
   -4.8807    1.1578    1.4078 H   0  0  0  0  0  0  0  0  0  0  0  0
   -5.7333    1.5632   -0.6089 H   0  0  0  0  0  0  0  0  0  0  0  0
   -4.2316    0.8911   -1.2428 H   0  0  0  0  0  0  0  0  0  0  0  0
   -5.2688   -1.1525   -1.8934 H   0  0  0  0  0  0  0  0  0  0  0  0
   -6.2099    0.2588   -2.3803 H   0  0  0  0  0  0  0  0  0  0  0  0
   -7.2291   -1.9446   -0.9834 H   0  0  0  0  0  0  0  0  0  0  0  0
   -8.1039   -0.4408   -1.3389 H   0  0  0  0  0  0  0  0  0  0  0  0
   -7.5979    0.6074    0.6434 H   0  0  0  0  0  0  0  0  0  0  0  0
   -7.9938   -1.1421    1.0893 H   0  0  0  0  0  0  0  0  0  0  0  0
   -6.1288   -0.4357    2.3926 H   0  0  0  0  0  0  0  0  0  0  0  0
   -5.9520   -2.5817    0.4790 H   0  0  0  0  0  0  0  0  0  0  0  0
    0.9597    1.9388    1.9346 H   0  0  0  0  0  0  0  0  0  0  0  0
    0.7796    3.2087    0.6253 H   0  0  0  0  0  0  0  0  0  0  0  0
    2.6696    0.9467    0.6169 H   0  0  0  0  0  0  0  0  0  0  0  0
    2.3032    1.7167   -1.6137 H   0  0  0  0  0  0  0  0  0  0  0  0
    2.2447    3.4143   -0.9677 H   0  0  0  0  0  0  0  0  0  0  0  0
    4.1315    3.0894   -2.2655 H   0  0  0  0  0  0  0  0  0  0  0  0
    4.5483    3.4328   -0.5137 H   0  0  0  0  0  0  0  0  0  0  0  0
    4.8363    1.5800    0.8523 H   0  0  0  0  0  0  0  0  0  0  0  0
    7.1353    2.4013   -0.1551 H   0  0  0  0  0  0  0  0  0  0  0  0
    7.0058    1.5513    1.3911 H   0  0  0  0  0  0  0  0  0  0  0  0
    7.9792   -0.4202    0.5532 H   0  0  0  0  0  0  0  0  0  0  0  0
    8.7910    0.9054   -0.4337 H   0  0  0  0  0  0  0  0  0  0  0  0
    6.8691    0.5016   -2.1504 H   0  0  0  0  0  0  0  0  0  0  0  0
    7.9638   -0.9226   -1.9281 H   0  0  0  0  0  0  0  0  0  0  0  0
    6.5702   -2.0321   -0.4610 H   0  0  0  0  0  0  0  0  0  0  0  0
    5.5497   -1.4830   -1.8152 H   0  0  0  0  0  0  0  0  0  0  0  0
    4.1277   -0.6499   -0.3364 H   0  0  0  0  0  0  0  0  0  0  0  0
    4.3559   -2.0922    2.6748 H   0  0  0  0  0  0  0  0  0  0  0  0
    3.3088   -1.0282    1.7460 H   0  0  0  0  0  0  0  0  0  0  0  0
    3.9821   -2.4835    0.9638 H   0  0  0  0  0  0  0  0  0  0  0  0
   -1.4370    2.4081   -1.3351 H   0  0  0  0  0  0  0  0  0  0  0  0
   -0.4440    0.8009   -0.1250 H   0  0  0  0  0  0  0  0  0  0  0  0
   -0.2806    1.3714    2.4685 H   0  0  0  0  0  0  0  0  0  0  0  0
   -1.2747    2.7700    2.0862 H   0  0  0  0  0  0  0  0  0  0  0  0
   -1.4691   -0.6546    1.2371 H   0  0  0  0  0  0  0  0  0  0  0  0
   -3.0563   -0.5253    3.7730 H   0  0  0  0  0  0  0  0  0  0  0  0
   -1.4709   -1.2578    3.4291 H   0  0  0  0  0  0  0  0  0  0  0  0
   -3.1843   -2.9454    3.7627 H   0  0  0  0  0  0  0  0  0  0  0  0
   -2.3359   -3.0882    2.1866 H   0  0  0  0  0  0  0  0  0  0  0  0
   -5.2176   -2.8329    2.8433 H   0  0  0  0  0  0  0  0  0  0  0  0
   -4.4173   -3.1203    1.2444 H   0  0  0  0  0  0  0  0  0  0  0  0
   -5.1496   -0.4232    2.5000 H   0  0  0  0  0  0  0  0  0  0  0  0
   -4.0017    0.5331    0.5548 H   0  0  0  0  0  0  0  0  0  0  0  0
   -2.9852   -2.3331    0.0499 H   0  0  0  0  0  0  0  0  0  0  0  0
   -1.7976   -0.7377   -1.2199 H   0  0  0  0  0  0  0  0  0  0  0  0
   -3.2348    0.2892   -1.4932 H   0  0  0  0  0  0  0  0  0  0  0  0
   -2.6634   -2.4806   -2.6401 H   0  0  0  0  0  0  0  0  0  0  0  0
   -2.7028   -0.8718   -3.5087 H   0  0  0  0  0  0  0  0  0  0  0  0
   -4.8742   -2.7517   -2.9679 H   0  0  0  0  0  0  0  0  0  0  0  0
   -4.9129   -1.1504   -3.8644 H   0  0  0  0  0  0  0  0  0  0  0  0
   -5.2462    0.0233   -1.6936 H   0  0  0  0  0  0  0  0  0  0  0  0
   -6.5079   -1.2852   -1.8994 H   0  0  0  0  0  0  0  0  0  0  0  0
   -5.2012   -2.8239   -0.5991 H   0  0  0  0  0  0  0  0  0  0  0  0
   -6.4588   -1.9330    0.9457 H   0  0  0  0  0  0  0  0  0  0  0  0
    1.3272    2.1369    1.0109 H   0  0  0  0  0  0  0  0  0  0  0  0
    0.3252    3.6106    0.8706 H   0  0  0  0  0  0  0  0  0  0  0  0
    1.1927    2.0185   -1.5085 H   0  0  0  0  0  0  0  0  0  0  0  0
    2.4273    4.0822   -1.9512 H   0  0  0  0  0  0  0  0  0  0  0  0
    1.9583    4.6091   -0.2743 H   0  0  0  0  0  0  0  0  0  0  0  0
    4.2016    3.7923   -0.3283 H   0  0  0  0  0  0  0  0  0  0  0  0
    3.2452    2.7328    0.7234 H   0  0  0  0  0  0  0  0  0  0  0  0
    5.1251    1.7758    0.3971 H   0  0  0  0  0  0  0  0  0  0  0  0
    5.6630    1.2403   -2.5416 H   0  0  0  0  0  0  0  0  0  0  0  0
    6.4097    2.3689   -1.3939 H   0  0  0  0  0  0  0  0  0  0  0  0
    7.8828    0.5582   -1.9313 H   0  0  0  0  0  0  0  0  0  0  0  0
    7.4069    0.5416   -0.1562 H   0  0  0  0  0  0  0  0  0  0  0  0
    6.9021   -1.3853   -2.4082 H   0  0  0  0  0  0  0  0  0  0  0  0
    7.0653   -1.6512   -0.6018 H   0  0  0  0  0  0  0  0  0  0  0  0
    4.8967   -2.2199   -0.9190 H   0  0  0  0  0  0  0  0  0  0  0  0
    4.6071   -1.0341   -2.1946 H   0  0  0  0  0  0  0  0  0  0  0  0
    3.3353   -0.3256   -0.3496 H   0  0  0  0  0  0  0  0  0  0  0  0
    3.9301   -1.1461    2.8123 H   0  0  0  0  0  0  0  0  0  0  0  0
    2.9450   -0.0549    1.8026 H   0  0  0  0  0  0  0  0  0  0  0  0
    3.1324   -1.7360    1.2492 H   0  0  0  0  0  0  0  0  0  0  0  0
  1  2  1  0
  2  3  1  0
  3  4  1  0
  4  5  1  0
  5  6  1  0
  6  7  1  0
  7  8  1  0
  8  9  1  0
  5 10  1  0
  9 10  1  0
 10 11  1  0
 11 12  1  0
 12 13  1  0
 13 14  1  0
 14 15  1  0
 11 16  1  0
 15 16  1  0
  9 17  1  0
 16 17  1  0
  2 18  1  0
 18 19  1  0
 19 20  1  0
 20 21  1  0
 21 22  1  0
 22 23  1  0
 23 24  1  0
 24 25  1  0
 25 26  1  0
 26 27  1  0
 23 28  1  0
 27 28  1  0
 28 29  1  0
 29 30  1  0
 31 32  1  0
 32 33  1  0
 33 34  1  0
 34 35  1  0
 35 36  1  0
 36 37  1  0
 37 38  1  0
 38 39  1  0
 35 40  1  0
 39 40  1  0
 40 41  1  0
 41 42  1  0
 42 43  1  0
 43 44  1  0
 44 45  1  0
 41 46  1  0
 45 46  1  0
 39 47  1  0
 46 47  1  0
 32 48  1  0
 48 49  1  0
 49 50  1  0
 50 51  1  0
 51 52  1  0
 52 53  1  0
 53 54  1  0
 54 55  1  0
 55 56  1  0
 56 57  1  0
 53 58  1  0
 57 58  1  0
 58 59  1  0
 59 60  1  0
  1 61  1  0
  2 62  1  6
  3 63  1  0
  3 64  1  0
  5 65  1  1
  6 66  1  0
  6 67  1  0
  7 68  1  0
  7 69  1  0
  8 70  1  0
  8 71  1  0
  9 72  1  0
 10 73  1  0
 11 74  1  0
 12 75  1  0
 12 76  1  0
 13 77  1  0
 13 78  1  0
 14 79  1  0
 14 80  1  0
 15 81  1  0
 15 82  1  0
 16 83  1  0
 17 84  1  0
 18 85  1  0
 18 86  1  0
 19 87  1  0
 20 88  1  0
 20 89  1  0
 21 90  1  0
 21 91  1  0
 23 92  1  0
 24 93  1  0
 24 94  1  0
 25 95  1  0
 25 96  1  0
 26 97  1  0
 26 98  1  0
 27 99  1  0
 27100  1  0
 28101  1  0
 30102  1  0
 30103  1  0
 30104  1  0
 31105  1  0
 32106  1  6
 33107  1  0
 33108  1  0
 35109  1  6
 36110  1  0
 36111  1  0
 37112  1  0
 37113  1  0
 38114  1  0
 38115  1  0
 39116  1  0
 40117  1  6
 41118  1  1
 42119  1  0
 42120  1  0
 43121  1  0
 43122  1  0
 44123  1  0
 44124  1  0
 45125  1  0
 45126  1  0
 46127  1  0
 47128  1  0
 48129  1  0
 48130  1  0
 49131  1  0
 50132  1  0
 50133  1  0
 51134  1  0
 51135  1  0
 53136  1  0
 54137  1  0
 54138  1  0
 55139  1  0
 55140  1  0
 56141  1  0
 56142  1  0
 57143  1  0
 57144  1  0
 58145  1  0
 60146  1  0
 60147  1  0
 60148  1  0
M  END
>  <PDBID>  (1) 
4AMJ

>  <PDB ID>  (1) 
4AMJ

>  <Generic Name>  (1) 
Carvedilol

>  <Brand Name>  (1) 
Apo-carvedilol#Auro-carvedilol#Ava-carvedilol#Carvedilol#Coreg#Coreg (carvedilol) Tablets, 12.5mg#Coreg (carvedilol) Tablets, 25mg#Coreg (carvedilol) Tablets, 3.125 mg#Coreg (carvedilol) Tablets, 6.25mg#Coreg 12.5mg#Coreg 25mg#Coreg 3.125mg#Coreg 6.25mg#Coreg CR#Coregcr CR#Dilatrend - Tab 25mg#Dilatrend - Tab 50mg#Dom-carvedilol#Hypertenevide-12.5#Jamp-carvedilol#Mylan-carvedilol#Novo-carvedilol Tablets#Ntp-carvedilol#Nu-carvedilol#PMS-carvedilol#Ran-carvedilol#Ratio-carvedilol#Zym-carvedilol#COREGCR

>  <DrugBank ID>  (1) 
DB01136

>  <ATC Codes>  (1) 
C07AG02

>  <Ligand ID>  (1) 
CVD

>  <Target Name>  (1) 
Beta-1 adrenergic receptor

>  <UniProt ID>  (1) 
P08588

>  <PDB ID.1>  (1) 
4AMJ

>  <Seq. Identity>  (1) 
63%

$$$$
