PDB_DB00215_04
     RDKit          3D

 61 63  0  0  0  0  0  0  0  0999 V2000
    0.4250    1.8506   -0.1341 C   0  0  0  0  0  0  0  0  0  0  0  0
   -1.9946    0.3507    0.7106 C   0  0  0  0  0  0  0  0  0  0  0  0
    0.4091    2.3342    1.2563 C   0  0  0  0  0  0  0  0  0  0  0  0
   -3.2127   -0.5753    0.8580 C   0  0  0  0  0  0  0  0  0  0  0  0
    0.5149    4.1449   -0.9683 C   0  0  0  0  0  0  0  0  0  0  0  0
    0.7046    4.6063    0.4485 C   0  0  0  0  0  0  0  0  0  0  0  0
    4.5844   -3.1684    1.3150 C   0  0  0  0  0  0  0  0  0  0  0  0
   -4.9578   -1.6944   -0.4989 C   0  0  0  0  0  0  0  0  0  0  0  0
   -0.5838    4.8020    0.9717 F   0  0  0  0  0  0  0  0  0  0  0  0
    0.0922    0.4632   -1.8972 O   0  0  0  0  0  0  0  0  0  0  0  0
    3.3426   -2.5411    0.7853 N   0  0  0  0  0  0  0  0  0  0  0  0
   -4.9303   -2.8940    0.2893 N   0  0  0  0  0  0  0  0  0  0  0  0
    0.2232    0.4473   -0.4723 C   0  0  1  0  0  0  0  0  0  0  0  0
    1.5499   -0.3632   -0.3478 C   0  0  0  0  0  0  0  0  0  0  0  0
   -0.8366   -0.3609    0.0872 C   0  0  0  0  0  0  0  0  0  0  0  0
   -1.1975   -1.2650   -1.0485 C   0  0  0  0  0  0  0  0  0  0  0  0
    2.1490   -0.3482    0.9852 C   0  0  0  0  0  0  0  0  0  0  0  0
   -0.9299   -0.3684   -2.2367 C   0  0  0  0  0  0  0  0  0  0  0  0
    3.4063   -1.1492    1.0849 C   0  0  0  0  0  0  0  0  0  0  0  0
   -2.5473   -1.8423   -1.0761 C   0  0  0  0  0  0  0  0  0  0  0  0
   -0.3420    2.8655   -0.9687 C   0  0  0  0  0  0  0  0  0  0  0  0
   -3.6393   -0.9736   -0.5397 C   0  0  0  0  0  0  0  0  0  0  0  0
    1.3374    3.5424    1.3354 C   0  0  0  0  0  0  0  0  0  0  0  0
    3.4711   -2.6994   -0.6774 C   0  0  0  0  0  0  0  0  0  0  0  0
    1.5107    2.0506   -0.4953 H   0  0  0  0  0  0  0  0  0  0  0  0
   -1.7268    0.5921    1.7611 H   0  0  0  0  0  0  0  0  0  0  0  0
   -2.3917    1.2043    0.1344 H   0  0  0  0  0  0  0  0  0  0  0  0
    0.5977    1.6560    2.0706 H   0  0  0  0  0  0  0  0  0  0  0  0
   -0.6154    2.8405    1.4026 H   0  0  0  0  0  0  0  0  0  0  0  0
   -3.9970   -0.0193    1.3658 H   0  0  0  0  0  0  0  0  0  0  0  0
   -2.8795   -1.4943    1.3768 H   0  0  0  0  0  0  0  0  0  0  0  0
    1.4766    3.8542   -1.4298 H   0  0  0  0  0  0  0  0  0  0  0  0
   -0.0090    4.9587   -1.5098 H   0  0  0  0  0  0  0  0  0  0  0  0
    1.2824    5.5420    0.4561 H   0  0  0  0  0  0  0  0  0  0  0  0
    4.8462   -3.9634    0.5963 H   0  0  0  0  0  0  0  0  0  0  0  0
    5.3871   -2.4457    1.4345 H   0  0  0  0  0  0  0  0  0  0  0  0
    4.2682   -3.5928    2.2986 H   0  0  0  0  0  0  0  0  0  0  0  0
   -5.2968   -1.9280   -1.5340 H   0  0  0  0  0  0  0  0  0  0  0  0
   -5.7020   -1.0170   -0.0468 H   0  0  0  0  0  0  0  0  0  0  0  0
   -4.5540   -2.7455    1.2290 H   0  0  0  0  0  0  0  0  0  0  0  0
   -4.5346   -3.6864   -0.2293 H   0  0  0  0  0  0  0  0  0  0  0  0
    2.2390    0.1556   -1.0581 H   0  0  0  0  0  0  0  0  0  0  0  0
    1.3586   -1.3729   -0.7176 H   0  0  0  0  0  0  0  0  0  0  0  0
   -0.4379   -1.0450    0.9001 H   0  0  0  0  0  0  0  0  0  0  0  0
   -0.4576   -2.0977   -1.1164 H   0  0  0  0  0  0  0  0  0  0  0  0
    2.4842    0.6894    1.3057 H   0  0  0  0  0  0  0  0  0  0  0  0
    1.4803   -0.6661    1.8133 H   0  0  0  0  0  0  0  0  0  0  0  0
   -1.8535    0.2433   -2.4053 H   0  0  0  0  0  0  0  0  0  0  0  0
   -0.7661   -0.9374   -3.1627 H   0  0  0  0  0  0  0  0  0  0  0  0
    4.1533   -0.6189    0.4153 H   0  0  0  0  0  0  0  0  0  0  0  0
    3.8494   -0.9620    2.1163 H   0  0  0  0  0  0  0  0  0  0  0  0
   -2.8148   -2.0517   -2.1546 H   0  0  0  0  0  0  0  0  0  0  0  0
   -2.6138   -2.8333   -0.5783 H   0  0  0  0  0  0  0  0  0  0  0  0
   -0.5724    2.5298   -1.9767 H   0  0  0  0  0  0  0  0  0  0  0  0
   -1.2774    3.2120   -0.4341 H   0  0  0  0  0  0  0  0  0  0  0  0
   -3.8020   -0.0500   -1.1375 H   0  0  0  0  0  0  0  0  0  0  0  0
    2.3321    3.2808    0.8969 H   0  0  0  0  0  0  0  0  0  0  0  0
    1.4075    3.9375    2.3579 H   0  0  0  0  0  0  0  0  0  0  0  0
    2.6254   -3.2699   -1.0761 H   0  0  0  0  0  0  0  0  0  0  0  0
    3.5942   -1.7668   -1.2143 H   0  0  0  0  0  0  0  0  0  0  0  0
    4.3717   -3.3461   -0.9161 H   0  0  0  0  0  0  0  0  0  0  0  0
  1  3  1  0
  2  4  1  0
  5  6  1  0
  6  9  1  0
  7 11  1  0
  8 12  1  0
  1 13  1  0
 10 13  1  0
 13 14  1  6
  2 15  1  0
 13 15  1  0
 15 16  1  0
 14 17  1  0
 10 18  1  0
 16 18  1  0
 11 19  1  0
 17 19  1  0
 16 20  1  0
  1 21  1  0
  5 21  1  0
  4 22  1  0
  8 22  1  0
 20 22  1  0
  3 23  1  0
  6 23  1  0
 11 24  1  0
  1 25  1  0
  2 26  1  0
  2 27  1  0
  3 28  1  0
  3 29  1  0
  4 30  1  0
  4 31  1  0
  5 32  1  0
  5 33  1  0
  6 34  1  0
  7 35  1  0
  7 36  1  0
  7 37  1  0
  8 38  1  0
  8 39  1  0
 12 40  1  0
 12 41  1  0
 14 42  1  0
 14 43  1  0
 15 44  1  0
 16 45  1  0
 17 46  1  0
 17 47  1  0
 18 48  1  0
 18 49  1  0
 19 50  1  0
 19 51  1  0
 20 52  1  0
 20 53  1  0
 21 54  1  0
 21 55  1  0
 22 56  1  0
 23 57  1  0
 23 58  1  0
 24 59  1  0
 24 60  1  0
 24 61  1  0
M  END
>  <PDBID>  (1) 
5I71

>  <PDB ID>  (1) 
5I71

>  <Generic Name>  (1) 
Citalopram

>  <Brand Name>  (1) 
Abbott-citalopram#Accel-citalopram Tablets#Act Citalopram#Ag-citalopram#Apo-citalopram#Auro-citalopram#Ava-citalopram#Bio-citalopram#Celexa#Celexa 10 mg#Celexa 20 mg#Celexa 40 mg#Citalopram#Citalopram Hydrobromide#Citalopram Tablets#Citalopram Tablets USP#Citalopram-10#Citalopram-20#Citalopram-40#Citalopram-odan#Ctp 30#Dom-citalopram#Ecl-citalopram#Ipg-citalopram#Jamp-citalopram#Manda-citalopram#Mar-citalopram#Mint-citalopram#Mylan-citalopram#Nat-citalopram#Nat-citalopram Tablets#Ng Citalopram#Novo-citalopram#Ntp-citalopram#Nu-citalopram#PHL-citalopram#PMS-citalopram#Pendo-citalopram#Perrigo Citalopram#Priva-citalopram#Q-citalopram#Ran-citalo#Ran-citalopram#Ratio-citalopram#Riva-citalopram#Sandoz Citalopram#Sentralopram Am-10#Septa-citalopram#Teva-citalopram#Van-citalopram#Akarin#Celapram#Ciazil#Cilift#Cipram#Cipramil#Ciprapine#Citabax#Citalec#Citol#Citopam#Citox#Citrol#Dalsan#Elopram#Humorup#Oropram#Pramcit#Recital#Seropram#Talam#Talohexal#Temperax#Vodelax#Zentius#Zetalo

>  <DrugBank ID>  (1) 
DB00215

>  <ATC Codes>  (1) 
N06AB04

>  <Ligand ID>  (1) 
68P

>  <Target Name>  (1) 
Sodium-dependent serotonin transporter

>  <UniProt ID>  (1) 
P31645

>  <PDB ID.1>  (1) 
5I71

>  <Seq. Identity>  (1) 
99%

$$$$
