PDB_DB01072_00
     RDKit          3D

129131  0  0  0  0  0  0  0  0999 V2000
    9.2916    1.4440    1.6522 C   0  0  0  0  0  0  0  0  0  0  0  0
    8.2182    0.5884    1.4754 O   0  0  0  0  0  0  0  0  0  0  0  0
    7.7292    0.6954    0.1873 C   0  0  0  0  0  0  0  0  0  0  0  0
    8.1128   -0.4548   -0.5599 O   0  0  0  0  0  0  0  0  0  0  0  0
    6.4494    1.1107   -0.0319 N   0  0  0  0  0  0  0  0  0  0  0  0
    5.2389    0.3662    0.1869 C   0  0  1  0  0  0  0  0  0  0  0  0
    5.0750    0.0635    1.6304 C   0  0  0  0  0  0  0  0  0  0  0  0
    5.1189    1.3308    2.4741 C   0  0  0  0  0  0  0  0  0  0  0  0
    3.6573   -0.4933    1.9272 C   0  0  0  0  0  0  0  0  0  0  0  0
    5.9966   -0.9792    2.1360 C   0  0  0  0  0  0  0  0  0  0  0  0
    4.1723    1.1784   -0.4572 C   0  0  0  0  0  0  0  0  0  0  0  0
    4.6947    1.3030   -1.8368 O   0  0  0  0  0  0  0  0  0  0  0  0
    2.8599    0.8637   -0.6093 N   0  0  0  0  0  0  0  0  0  0  0  0
    2.3003   -0.1447   -1.4267 C   0  0  1  0  0  0  0  0  0  0  0  0
    2.5745   -1.5181   -1.0374 C   0  0  0  0  0  0  0  0  0  0  0  0
    2.0643   -2.6534   -1.8611 C   0  0  0  0  0  0  0  0  0  0  0  0
    2.5595   -3.9591   -1.1801 C   0  0  0  0  0  0  0  0  0  0  0  0
    4.0345   -4.0881   -1.2086 C   0  0  0  0  0  0  0  0  0  0  0  0
    4.7545   -3.6214   -2.4076 C   0  0  0  0  0  0  0  0  0  0  0  0
    4.0566   -2.7476   -3.3668 C   0  0  0  0  0  0  0  0  0  0  0  0
    2.5436   -2.7467   -3.2563 C   0  0  0  0  0  0  0  0  0  0  0  0
    0.7770    0.1527   -1.5689 C   0  0  1  0  0  0  0  0  0  0  0  0
    0.2465   -0.8009   -2.3844 O   0  0  0  0  0  0  0  0  0  0  0  0
    0.1330    0.2559   -0.2405 C   0  0  0  0  0  0  0  0  0  0  0  0
   -1.2681    0.6108   -0.2129 N   0  0  0  0  0  0  0  0  0  0  0  0
   -1.7009    1.3623    0.7579 N   0  0  0  0  0  0  0  0  0  0  0  0
   -2.5263    2.4803    0.6694 C   0  0  0  0  0  0  0  0  0  0  0  0
   -2.8836    2.9199    1.9511 O   0  0  0  0  0  0  0  0  0  0  0  0
   -2.2179    3.5716   -0.2957 C   0  0  2  0  0  0  0  0  0  0  0  0
   -1.0711    4.4826    0.1103 C   0  0  0  0  0  0  0  0  0  0  0  0
   -1.2035    5.2042    1.3865 C   0  0  0  0  0  0  0  0  0  0  0  0
   -0.8976    5.4576   -1.0540 C   0  0  0  0  0  0  0  0  0  0  0  0
    0.2035    3.6839    0.1657 C   0  0  0  0  0  0  0  0  0  0  0  0
   -3.3509    4.3391   -0.6950 N   0  0  0  0  0  0  0  0  0  0  0  0
   -4.1419    5.1143    0.1044 C   0  0  0  0  0  0  0  0  0  0  0  0
   -4.7172    4.5663    1.2442 O   0  0  0  0  0  0  0  0  0  0  0  0
   -3.6648    6.4102    0.2776 O   0  0  0  0  0  0  0  0  0  0  0  0
   -4.4164    7.3964   -0.3044 C   0  0  0  0  0  0  0  0  0  0  0  0
   -2.0014   -0.4857   -0.6811 C   0  0  0  0  0  0  0  0  0  0  0  0
   -3.4760   -0.5827   -0.5180 C   0  0  0  0  0  0  0  0  0  0  0  0
   -3.9474   -1.9095   -1.1774 C   0  0  0  0  0  0  0  0  0  0  0  0
   -3.7033   -3.0882   -0.2831 C   0  0  0  0  0  0  0  0  0  0  0  0
   -3.8474   -0.7368    0.9383 C   0  0  0  0  0  0  0  0  0  0  0  0
   -5.0892   -1.6281    1.0592 C   0  0  0  0  0  0  0  0  0  0  0  0
   -4.5842   -3.0483    0.9518 C   0  0  0  0  0  0  0  0  0  0  0  0
   -5.6749   -4.0672    0.9197 C   0  0  0  0  0  0  0  0  0  0  0  0
   -6.5249   -3.9974    2.1539 C   0  0  0  0  0  0  0  0  0  0  0  0
   -8.0056   -3.7937    1.8050 C   0  0  0  0  0  0  0  0  0  0  0  0
   -8.4199   -4.9708    0.9542 C   0  0  0  0  0  0  0  0  0  0  0  0
   -7.4584   -5.0654   -0.1938 C   0  0  0  0  0  0  0  0  0  0  0  0
   -6.5544   -3.9243   -0.2323 N   0  0  0  0  0  0  0  0  0  0  0  0
    9.7088    1.3844    2.6750 H   0  0  0  0  0  0  0  0  0  0  0  0
    8.9946    2.5201    1.5139 H   0  0  0  0  0  0  0  0  0  0  0  0
   10.1006    1.2568    0.9041 H   0  0  0  0  0  0  0  0  0  0  0  0
    8.4235    1.4901   -0.2980 H   0  0  0  0  0  0  0  0  0  0  0  0
    8.9587   -0.7562   -0.1327 H   0  0  0  0  0  0  0  0  0  0  0  0
    6.2751    2.1317   -0.1903 H   0  0  0  0  0  0  0  0  0  0  0  0
    5.3987   -0.5939   -0.4149 H   0  0  0  0  0  0  0  0  0  0  0  0
    5.8324    1.2037    3.3327 H   0  0  0  0  0  0  0  0  0  0  0  0
    4.1434    1.6006    2.9124 H   0  0  0  0  0  0  0  0  0  0  0  0
    5.5166    2.1909    1.8605 H   0  0  0  0  0  0  0  0  0  0  0  0
    2.8643    0.1639    1.5996 H   0  0  0  0  0  0  0  0  0  0  0  0
    3.6174   -0.4686    3.0597 H   0  0  0  0  0  0  0  0  0  0  0  0
    3.5907   -1.5578    1.6775 H   0  0  0  0  0  0  0  0  0  0  0  0
    6.6331   -1.4902    1.4183 H   0  0  0  0  0  0  0  0  0  0  0  0
    5.4011   -1.8610    2.5963 H   0  0  0  0  0  0  0  0  0  0  0  0
    6.5932   -0.6654    3.0452 H   0  0  0  0  0  0  0  0  0  0  0  0
    4.3466    2.2519   -0.1151 H   0  0  0  0  0  0  0  0  0  0  0  0
    5.0089    0.4262   -2.1133 H   0  0  0  0  0  0  0  0  0  0  0  0
    2.2603    1.7406   -0.5573 H   0  0  0  0  0  0  0  0  0  0  0  0
    2.6578    0.1040   -2.4786 H   0  0  0  0  0  0  0  0  0  0  0  0
    3.5940   -1.7678   -0.7253 H   0  0  0  0  0  0  0  0  0  0  0  0
    1.9944   -1.6628   -0.0369 H   0  0  0  0  0  0  0  0  0  0  0  0
    0.9746   -2.7649   -1.8273 H   0  0  0  0  0  0  0  0  0  0  0  0
    2.1095   -3.9466   -0.1875 H   0  0  0  0  0  0  0  0  0  0  0  0
    2.0644   -4.7689   -1.7680 H   0  0  0  0  0  0  0  0  0  0  0  0
    4.2652   -5.1738   -0.9837 H   0  0  0  0  0  0  0  0  0  0  0  0
    4.4297   -3.5661   -0.2848 H   0  0  0  0  0  0  0  0  0  0  0  0
    5.0914   -4.5481   -2.9717 H   0  0  0  0  0  0  0  0  0  0  0  0
    5.7485   -3.1348   -2.1655 H   0  0  0  0  0  0  0  0  0  0  0  0
    4.3858   -2.9738   -4.4016 H   0  0  0  0  0  0  0  0  0  0  0  0
    4.4033   -1.6830   -3.2018 H   0  0  0  0  0  0  0  0  0  0  0  0
    2.0827   -2.0499   -3.9813 H   0  0  0  0  0  0  0  0  0  0  0  0
    2.2313   -3.7718   -3.6261 H   0  0  0  0  0  0  0  0  0  0  0  0
    0.6735    1.1371   -2.0992 H   0  0  0  0  0  0  0  0  0  0  0  0
    0.2942   -0.5142   -3.3323 H   0  0  0  0  0  0  0  0  0  0  0  0
    0.2055   -0.7906    0.2759 H   0  0  0  0  0  0  0  0  0  0  0  0
    0.7078    0.9200    0.4157 H   0  0  0  0  0  0  0  0  0  0  0  0
   -1.5003    1.0812    1.7500 H   0  0  0  0  0  0  0  0  0  0  0  0
   -3.5408    2.0790    0.2250 H   0  0  0  0  0  0  0  0  0  0  0  0
   -3.5591    2.3300    2.3181 H   0  0  0  0  0  0  0  0  0  0  0  0
   -1.8695    3.0781   -1.2249 H   0  0  0  0  0  0  0  0  0  0  0  0
   -2.0927    5.0758    1.9858 H   0  0  0  0  0  0  0  0  0  0  0  0
   -0.2928    5.0361    2.0559 H   0  0  0  0  0  0  0  0  0  0  0  0
   -1.1116    6.3130    1.1760 H   0  0  0  0  0  0  0  0  0  0  0  0
   -1.4492    5.1341   -1.9599 H   0  0  0  0  0  0  0  0  0  0  0  0
   -1.1283    6.4981   -0.7425 H   0  0  0  0  0  0  0  0  0  0  0  0
    0.1799    5.5075   -1.3900 H   0  0  0  0  0  0  0  0  0  0  0  0
    1.1008    4.3486    0.2502 H   0  0  0  0  0  0  0  0  0  0  0  0
    0.2666    3.0310   -0.7211 H   0  0  0  0  0  0  0  0  0  0  0  0
    0.1140    3.0374    1.0628 H   0  0  0  0  0  0  0  0  0  0  0  0
   -3.5089    4.4134   -1.7108 H   0  0  0  0  0  0  0  0  0  0  0  0
   -5.1011    5.3237   -0.5327 H   0  0  0  0  0  0  0  0  0  0  0  0
   -5.6554    4.7974    1.3940 H   0  0  0  0  0  0  0  0  0  0  0  0
   -5.4517    7.3795    0.1243 H   0  0  0  0  0  0  0  0  0  0  0  0
   -4.4120    7.4166   -1.3965 H   0  0  0  0  0  0  0  0  0  0  0  0
   -3.9789    8.3723    0.0249 H   0  0  0  0  0  0  0  0  0  0  0  0
   -1.8611   -0.6139   -1.8291 H   0  0  0  0  0  0  0  0  0  0  0  0
   -1.5259   -1.4740   -0.3377 H   0  0  0  0  0  0  0  0  0  0  0  0
   -4.0062    0.2434   -0.9666 H   0  0  0  0  0  0  0  0  0  0  0  0
   -4.9894   -1.8425   -1.4933 H   0  0  0  0  0  0  0  0  0  0  0  0
   -3.2833   -2.0291   -2.0679 H   0  0  0  0  0  0  0  0  0  0  0  0
   -3.9458   -3.9909   -0.8448 H   0  0  0  0  0  0  0  0  0  0  0  0
   -2.6416   -3.1355    0.0179 H   0  0  0  0  0  0  0  0  0  0  0  0
   -3.0317   -1.2855    1.4809 H   0  0  0  0  0  0  0  0  0  0  0  0
   -4.0121    0.1875    1.4715 H   0  0  0  0  0  0  0  0  0  0  0  0
   -5.4883   -1.4516    2.0716 H   0  0  0  0  0  0  0  0  0  0  0  0
   -5.8141   -1.3453    0.2962 H   0  0  0  0  0  0  0  0  0  0  0  0
   -3.9573   -3.2525    1.8417 H   0  0  0  0  0  0  0  0  0  0  0  0
   -5.2511   -5.0850    0.8510 H   0  0  0  0  0  0  0  0  0  0  0  0
   -6.2468   -3.1769    2.8255 H   0  0  0  0  0  0  0  0  0  0  0  0
   -6.5041   -4.9426    2.7535 H   0  0  0  0  0  0  0  0  0  0  0  0
   -8.1650   -2.8815    1.2277 H   0  0  0  0  0  0  0  0  0  0  0  0
   -8.5674   -3.8272    2.7545 H   0  0  0  0  0  0  0  0  0  0  0  0
   -9.4590   -4.7821    0.6232 H   0  0  0  0  0  0  0  0  0  0  0  0
   -8.4417   -5.9017    1.5611 H   0  0  0  0  0  0  0  0  0  0  0  0
   -6.9099   -6.0238   -0.1290 H   0  0  0  0  0  0  0  0  0  0  0  0
   -8.0315   -5.0900   -1.1469 H   0  0  0  0  0  0  0  0  0  0  0  0
   -5.9735   -4.0112   -1.0811 H   0  0  0  0  0  0  0  0  0  0  0  0
  1  2  1  0
  2  3  1  0
  3  4  1  0
  3  5  1  0
  5  6  1  0
  6  7  1  0
  7  8  1  0
  7  9  1  0
  7 10  1  0
  6 11  1  0
 11 12  1  0
 11 13  1  0
 13 14  1  0
 14 15  1  0
 15 16  1  0
 16 17  1  0
 17 18  1  0
 18 19  1  0
 19 20  1  0
 16 21  1  0
 20 21  1  0
 14 22  1  0
 22 23  1  0
 22 24  1  0
 24 25  1  0
 25 26  1  0
 26 27  1  0
 27 28  1  0
 27 29  1  0
 29 30  1  0
 30 31  1  0
 30 32  1  0
 30 33  1  0
 29 34  1  0
 34 35  1  0
 35 36  1  0
 35 37  1  0
 37 38  1  0
 25 39  1  0
 39 40  1  0
 40 41  1  0
 41 42  1  0
 40 43  1  0
 43 44  1  0
 42 45  1  0
 44 45  1  0
 45 46  1  0
 46 47  1  0
 47 48  1  0
 48 49  1  0
 49 50  1  0
 46 51  1  0
 50 51  1  0
  1 52  1  0
  1 53  1  0
  1 54  1  0
  3 55  1  0
  4 56  1  0
  5 57  1  0
  6 58  1  6
  8 59  1  0
  8 60  1  0
  8 61  1  0
  9 62  1  0
  9 63  1  0
  9 64  1  0
 10 65  1  0
 10 66  1  0
 10 67  1  0
 11 68  1  0
 12 69  1  0
 13 70  1  0
 14 71  1  6
 15 72  1  0
 15 73  1  0
 16 74  1  0
 17 75  1  0
 17 76  1  0
 18 77  1  0
 18 78  1  0
 19 79  1  0
 19 80  1  0
 20 81  1  0
 20 82  1  0
 21 83  1  0
 21 84  1  0
 22 85  1  6
 23 86  1  0
 24 87  1  0
 24 88  1  0
 26 89  1  0
 27 90  1  0
 28 91  1  0
 29 92  1  6
 31 93  1  0
 31 94  1  0
 31 95  1  0
 32 96  1  0
 32 97  1  0
 32 98  1  0
 33 99  1  0
 33100  1  0
 33101  1  0
 34102  1  0
 35103  1  0
 36104  1  0
 38105  1  0
 38106  1  0
 38107  1  0
 39108  1  0
 39109  1  0
 40110  1  0
 41111  1  0
 41112  1  0
 42113  1  0
 42114  1  0
 43115  1  0
 43116  1  0
 44117  1  0
 44118  1  0
 45119  1  0
 46120  1  0
 47121  1  0
 47122  1  0
 48123  1  0
 48124  1  0
 49125  1  0
 49126  1  0
 50127  1  0
 50128  1  0
 51129  1  0
M  END
>  <PDBID>  (1) 
2AQU

>  <PDB ID>  (1) 
2AQU

>  <Generic Name>  (1) 
Atazanavir

>  <Brand Name>  (1) 
Evotaz#Reyataz#Latazanavir#Zrivada

>  <DrugBank ID>  (1) 
DB01072

>  <ATC Codes>  (1) 
J05AE08#J05AR15

>  <Ligand ID>  (1) 
DR7

>  <Target Name>  (1) 
Pol polyprotein

>  <UniProt ID>  (1) 
Q72874

>  <PDB ID.1>  (1) 
2AQU

>  <Seq. Identity>  (1) 
99%

$$$$
