PDB_DB09073_08
     RDKit          3D

 80 84  0  0  0  0  0  0  0  0999 V2000
   -6.0543    0.9439    3.0290 O   0  0  0  0  0  0  0  0  0  0  0  0
   -5.8861   -0.1035    2.1533 C   0  0  0  0  0  0  0  0  0  0  0  0
   -6.9342    0.0075    1.0674 C   0  0  0  0  0  0  0  0  0  0  0  0
   -4.5276   -0.2439    1.5660 C   0  0  0  0  0  0  0  0  0  0  0  0
   -3.4147   -0.4607    2.5225 C   0  0  2  0  0  0  0  0  0  0  0  0
   -3.1584    0.5884    3.5302 C   0  0  0  0  0  0  0  0  0  0  0  0
   -2.1493   -0.7038    1.7582 C   0  0  1  0  0  0  0  0  0  0  0  0
   -2.0536   -2.0268    1.0804 C   0  0  0  0  0  0  0  0  0  0  0  0
   -0.7004   -2.2262    0.7114 N   0  0  0  0  0  0  0  0  0  0  0  0
    0.0263   -1.1067    0.2146 C   0  0  0  0  0  0  0  0  0  0  0  0
   -0.6927    0.0928    0.0052 N   0  0  0  0  0  0  0  0  0  0  0  0
   -1.8963    0.3417    0.6624 C   0  0  1  0  0  0  0  0  0  0  0  0
   -3.0615    0.3625   -0.1597 N   0  0  0  0  0  0  0  0  0  0  0  0
   -2.9894    0.9289   -1.4327 C   0  0  0  0  0  0  0  0  0  0  0  0
   -2.0301    0.2976   -2.3957 C   0  0  0  0  0  0  0  0  0  0  0  0
   -2.4116    1.0650   -3.6804 C   0  0  0  0  0  0  0  0  0  0  0  0
   -3.9151    1.1289   -3.5929 C   0  0  0  0  0  0  0  0  0  0  0  0
   -4.2885    0.7075   -2.1757 C   0  0  0  0  0  0  0  0  0  0  0  0
   -4.1484    0.8930    0.6385 C   0  0  0  0  0  0  0  0  0  0  0  0
   -3.6136    1.9762    1.3572 O   0  0  0  0  0  0  0  0  0  0  0  0
    1.1306   -0.8527    1.0839 N   0  0  0  0  0  0  0  0  0  0  0  0
    2.4275   -0.8637    0.5144 C   0  0  0  0  0  0  0  0  0  0  0  0
    2.8944   -2.1614    0.0662 N   0  0  0  0  0  0  0  0  0  0  0  0
    4.3653   -2.0752    0.1042 C   0  0  0  0  0  0  0  0  0  0  0  0
    4.8683   -1.1409   -0.9705 C   0  0  1  0  0  0  0  0  0  0  0  0
    3.7619   -0.2891   -1.5376 C   0  0  0  0  0  0  0  0  0  0  0  0
    2.7257    0.1416   -0.5337 C   0  0  0  0  0  0  0  0  0  0  0  0
    6.0275   -0.3988   -0.6028 N   0  0  0  0  0  0  0  0  0  0  0  0
    5.9209    0.5169    0.4696 C   0  0  0  0  0  0  0  0  0  0  0  0
    7.3441    0.9164    0.8898 C   0  0  0  0  0  0  0  0  0  0  0  0
    8.1108    1.4632   -0.1831 N   0  0  0  0  0  0  0  0  0  0  0  0
    8.1471    0.5161   -1.2732 C   0  0  0  0  0  0  0  0  0  0  0  0
    6.7156    0.2204   -1.7111 C   0  0  0  0  0  0  0  0  0  0  0  0
   -7.1168    1.0469    0.7391 H   0  0  0  0  0  0  0  0  0  0  0  0
   -6.7752   -0.6903    0.2332 H   0  0  0  0  0  0  0  0  0  0  0  0
   -7.9087   -0.3075    1.5446 H   0  0  0  0  0  0  0  0  0  0  0  0
   -3.1067    0.1275    4.5627 H   0  0  0  0  0  0  0  0  0  0  0  0
   -2.1341    1.0519    3.4153 H   0  0  0  0  0  0  0  0  0  0  0  0
   -3.8485    1.4266    3.5921 H   0  0  0  0  0  0  0  0  0  0  0  0
   -2.7057   -2.0586    0.1709 H   0  0  0  0  0  0  0  0  0  0  0  0
   -2.7967    2.0061   -1.3943 H   0  0  0  0  0  0  0  0  0  0  0  0
   -2.2656   -0.7580   -2.6376 H   0  0  0  0  0  0  0  0  0  0  0  0
   -0.9744    0.5005   -2.2317 H   0  0  0  0  0  0  0  0  0  0  0  0
   -1.9331    2.0527   -3.6985 H   0  0  0  0  0  0  0  0  0  0  0  0
   -2.1263    0.4974   -4.5727 H   0  0  0  0  0  0  0  0  0  0  0  0
   -4.2375    2.1879   -3.6906 H   0  0  0  0  0  0  0  0  0  0  0  0
   -4.4240    0.4575   -4.3129 H   0  0  0  0  0  0  0  0  0  0  0  0
   -4.4419   -0.3996   -2.2252 H   0  0  0  0  0  0  0  0  0  0  0  0
   -5.1460    1.2624   -1.8076 H   0  0  0  0  0  0  0  0  0  0  0  0
    1.1360   -1.4719    1.9266 H   0  0  0  0  0  0  0  0  0  0  0  0
    4.8056   -3.0702    0.0584 H   0  0  0  0  0  0  0  0  0  0  0  0
    4.2134    0.6415   -1.9463 H   0  0  0  0  0  0  0  0  0  0  0  0
    3.0080    1.1050   -0.0486 H   0  0  0  0  0  0  0  0  0  0  0  0
    5.4428    0.1677    1.3826 H   0  0  0  0  0  0  0  0  0  0  0  0
    5.4473    1.4914    0.1876 H   0  0  0  0  0  0  0  0  0  0  0  0
    7.7943   -0.0227    1.2948 H   0  0  0  0  0  0  0  0  0  0  0  0
    7.2462    1.6331    1.7469 H   0  0  0  0  0  0  0  0  0  0  0  0
    7.6504    2.3368   -0.5163 H   0  0  0  0  0  0  0  0  0  0  0  0
    8.7046    0.9737   -2.0965 H   0  0  0  0  0  0  0  0  0  0  0  0
    8.6165   -0.4310   -0.9516 H   0  0  0  0  0  0  0  0  0  0  0  0
    6.2708    1.2163   -1.9887 H   0  0  0  0  0  0  0  0  0  0  0  0
    6.7260   -0.3912   -2.6283 H   0  0  0  0  0  0  0  0  0  0  0  0
   -7.0076    1.2005    3.1157 H   0  0  0  0  0  0  0  0  0  0  0  0
   -6.1396   -1.0265    2.7287 H   0  0  0  0  0  0  0  0  0  0  0  0
   -4.5651   -1.1596    0.9032 H   0  0  0  0  0  0  0  0  0  0  0  0
   -3.6346   -1.4417    3.0451 H   0  0  0  0  0  0  0  0  0  0  0  0
   -1.3166   -0.6580    2.5087 H   0  0  0  0  0  0  0  0  0  0  0  0
   -2.3786   -2.8227    1.7693 H   0  0  0  0  0  0  0  0  0  0  0  0
   -0.5114   -3.1196    0.2128 H   0  0  0  0  0  0  0  0  0  0  0  0
    0.4563   -1.4220   -0.7757 H   0  0  0  0  0  0  0  0  0  0  0  0
   -0.0385    0.9178    0.1704 H   0  0  0  0  0  0  0  0  0  0  0  0
   -1.8633    1.3046    1.2183 H   0  0  0  0  0  0  0  0  0  0  0  0
   -4.9824    1.2908    0.0831 H   0  0  0  0  0  0  0  0  0  0  0  0
   -4.2893    2.6631    1.5843 H   0  0  0  0  0  0  0  0  0  0  0  0
    3.1227   -0.6124    1.3820 H   0  0  0  0  0  0  0  0  0  0  0  0
    2.5910   -2.3174   -0.9423 H   0  0  0  0  0  0  0  0  0  0  0  0
    4.5973   -1.6494    1.1020 H   0  0  0  0  0  0  0  0  0  0  0  0
    5.1919   -1.8140   -1.8205 H   0  0  0  0  0  0  0  0  0  0  0  0
    3.2755   -0.7933   -2.3991 H   0  0  0  0  0  0  0  0  0  0  0  0
    1.8314    0.4220   -1.1686 H   0  0  0  0  0  0  0  0  0  0  0  0
  1  2  1  0
  2  3  1  0
  2  4  1  0
  4  5  1  0
  5  6  1  0
  5  7  1  0
  7  8  1  0
  8  9  1  0
  9 10  1  0
 10 11  1  0
  7 12  1  0
 11 12  1  0
 12 13  1  0
 13 14  1  0
 14 15  1  0
 15 16  1  0
 16 17  1  0
 14 18  1  0
 17 18  1  0
  4 19  1  0
 13 19  1  0
 19 20  1  0
 10 21  1  0
 21 22  1  0
 22 23  1  0
 23 24  1  0
 24 25  1  0
 25 26  1  0
 22 27  1  0
 26 27  1  0
 25 28  1  0
 28 29  1  0
 29 30  1  0
 30 31  1  0
 31 32  1  0
 28 33  1  0
 32 33  1  0
  3 34  1  0
  3 35  1  0
  3 36  1  0
  6 37  1  0
  6 38  1  0
  6 39  1  0
  8 40  1  0
 14 41  1  0
 15 42  1  0
 15 43  1  0
 16 44  1  0
 16 45  1  0
 17 46  1  0
 17 47  1  0
 18 48  1  0
 18 49  1  0
 21 50  1  0
 24 51  1  0
 26 52  1  0
 27 53  1  0
 29 54  1  0
 29 55  1  0
 30 56  1  0
 30 57  1  0
 31 58  1  0
 32 59  1  0
 32 60  1  0
 33 61  1  0
 33 62  1  0
  1 63  1  0
  2 64  1  0
  4 65  1  0
  5 66  1  1
  7 67  1  1
  8 68  1  0
  9 69  1  0
 10 70  1  0
 11 71  1  0
 12 72  1  1
 19 73  1  0
 20 74  1  0
 22 75  1  0
 23 76  1  0
 24 77  1  0
 25 78  1  6
 26 79  1  0
 27 80  1  0
M  END
>  <PDBID>  (1) 
5L2I

>  <PDB ID>  (1) 
5L2I

>  <Generic Name>  (1) 
Palbociclib

>  <Brand Name>  (1) 
Ibrance

>  <DrugBank ID>  (1) 
DB09073

>  <ATC Codes>  (1) 
L01XE33

>  <Ligand ID>  (1) 
LQQ

>  <Target Name>  (1) 
Cyclin-dependent kinase 6

>  <UniProt ID>  (1) 
Q00534

>  <PDB ID.1>  (1) 
5L2I

>  <Seq. Identity>  (1) 
100%

$$$$
