PDB_DB00218_02
     RDKit          3D

390414  0  0  0  0  0  0  0  0999 V2000
    0.7609   -2.0388    0.6863 F   0  0  0  0  0  0  0  0  0  0  0  0
    0.1555    1.0576   -1.6841 O   0  0  0  0  0  0  0  0  0  0  0  0
   -2.5915   -2.8557   -0.9838 O   0  0  0  0  0  0  0  0  0  0  0  0
   -5.0936   -2.8215   -1.0795 O   0  0  0  0  0  0  0  0  0  0  0  0
   -6.2046   -1.3675    0.3249 O   0  0  0  0  0  0  0  0  0  0  0  0
    1.9101   -0.0715   -0.1952 N   0  0  0  0  0  0  0  0  0  0  0  0
    5.0564   -0.9739    1.4051 N   0  0  0  0  0  0  0  0  0  0  0  0
   -2.6544    1.0158    0.5334 N   0  0  0  0  0  0  0  0  0  0  0  0
    4.2122    0.4222   -0.4323 C   0  0  2  0  0  0  0  0  0  0  0  0
    4.0279   -0.0995    0.9375 C   0  0  1  0  0  0  0  0  0  0  0  0
    2.7726    0.9234   -0.7016 C   0  0  0  0  0  0  0  0  0  0  0  0
    2.6798   -0.8174    0.8084 C   0  0  0  0  0  0  0  0  0  0  0  0
    4.5117   -0.7189   -1.4121 C   0  0  0  0  0  0  0  0  0  0  0  0
   -3.0148    2.3046    0.9471 C   0  0  0  0  0  0  0  0  0  0  0  0
    5.7625   -1.3959   -0.9065 C   0  0  0  0  0  0  0  0  0  0  0  0
   -2.0456    3.2530    1.6604 C   0  0  0  0  0  0  0  0  0  0  0  0
   -2.5924    3.5786    0.3534 C   0  0  0  0  0  0  0  0  0  0  0  0
    5.4676   -1.9678    0.4530 C   0  0  0  0  0  0  0  0  0  0  0  0
    0.6811    0.3752    0.4617 C   0  0  1  0  0  0  0  0  0  0  0  0
   -1.7083    0.6970   -0.4065 C   0  0  1  0  0  0  0  0  0  0  0  0
   -0.2781    1.1346   -0.3291 C   0  0  2  0  0  0  0  0  0  0  0  0
   -1.5367   -0.8486   -0.4378 C   0  0  0  0  0  0  0  0  0  0  0  0
    0.1982   -0.8530    1.1796 C   0  0  0  0  0  0  0  0  0  0  0  0
   -3.8227    0.1752    0.6299 C   0  0  0  0  0  0  0  0  0  0  0  0
   -1.2860   -1.1342    1.0305 C   0  0  0  0  0  0  0  0  0  0  0  0
   -3.8184   -1.1598    0.0728 C   0  0  2  0  0  0  0  0  0  0  0  0
   -2.7738   -1.4895   -0.9457 C   0  0  0  0  0  0  0  0  0  0  0  0
   -5.1589   -1.5491   -0.5694 C   0  0  0  0  0  0  0  0  0  0  0  0
    0.3336    2.2717   -2.2832 C   0  0  0  0  0  0  0  0  0  0  0  0
   -0.0518   -1.9548   -0.6986 F   0  0  0  0  0  0  0  0  0  0  0  0
    0.2432    1.0376   -1.2499 O   0  0  0  0  0  0  0  0  0  0  0  0
   -4.0472   -1.5902    1.8407 O   0  0  0  0  0  0  0  0  0  0  0  0
   -4.1413   -1.8114   -1.9886 O   0  0  0  0  0  0  0  0  0  0  0  0
   -5.5796   -2.2887   -0.3160 O   0  0  0  0  0  0  0  0  0  0  0  0
    2.0493   -0.1258    0.3177 N   0  0  0  0  0  0  0  0  0  0  0  0
    5.4616   -0.5369    0.8671 N   0  0  0  0  0  0  0  0  0  0  0  0
   -2.5572    1.3880   -0.2311 N   0  0  0  0  0  0  0  0  0  0  0  0
    3.9335    0.1711   -0.9457 C   0  0  2  0  0  0  0  0  0  0  0  0
    4.3014    0.1677    0.4682 C   0  0  1  0  0  0  0  0  0  0  0  0
    2.5233   -0.4664   -0.9441 C   0  0  0  0  0  0  0  0  0  0  0  0
    3.0896   -0.3610    1.2521 C   0  0  0  0  0  0  0  0  0  0  0  0
    4.7911   -0.5890   -1.8874 C   0  0  0  0  0  0  0  0  0  0  0  0
   -3.0707    2.1306    0.8580 C   0  0  0  0  0  0  0  0  0  0  0  0
    6.0837   -1.0934   -1.3504 C   0  0  0  0  0  0  0  0  0  0  0  0
   -2.4097    2.9974    1.7966 C   0  0  0  0  0  0  0  0  0  0  0  0
   -3.0265    3.6730    0.5944 C   0  0  0  0  0  0  0  0  0  0  0  0
    5.7955   -1.6681    0.0334 C   0  0  0  0  0  0  0  0  0  0  0  0
    0.7259   -0.1832    0.7154 C   0  0  1  0  0  0  0  0  0  0  0  0
   -1.6064    0.3677    0.0124 C   0  0  0  0  0  0  0  0  0  0  0  0
   -0.1634    0.7887    0.0483 C   0  0  2  0  0  0  0  0  0  0  0  0
   -2.0535   -0.5067    1.1608 C   0  0  2  0  0  0  0  0  0  0  0  0
    0.1280   -1.5923    0.5974 C   0  0  0  0  0  0  0  0  0  0  0  0
   -3.6541    0.7539   -0.9621 C   0  0  0  0  0  0  0  0  0  0  0  0
   -1.0924   -1.6267    1.4506 C   0  0  0  0  0  0  0  0  0  0  0  0
   -4.2443   -0.3023   -0.1069 C   0  0  2  0  0  0  0  0  0  0  0  0
   -3.3527   -1.1411    0.7084 C   0  0  0  0  0  0  0  0  0  0  0  0
   -5.0073   -1.2538   -1.0506 C   0  0  0  0  0  0  0  0  0  0  0  0
    0.6413    2.3618   -1.4535 C   0  0  0  0  0  0  0  0  0  0  0  0
   -0.0743   -2.9220    1.4895 F   0  0  0  0  0  0  0  0  0  0  0  0
    0.6696    1.4619    1.0974 O   0  0  0  0  0  0  0  0  0  0  0  0
   -3.9541   -1.9262    1.0795 O   0  0  0  0  0  0  0  0  0  0  0  0
   -4.5273   -2.7905   -1.0186 O   0  0  0  0  0  0  0  0  0  0  0  0
   -5.2517   -0.7277   -0.5080 O   0  0  0  0  0  0  0  0  0  0  0  0
    1.7919   -0.9176    0.0829 N   0  0  0  0  0  0  0  0  0  0  0  0
    5.1495   -0.1763    0.5639 N   0  0  0  0  0  0  0  0  0  0  0  0
   -2.3512    1.2717   -0.1541 N   0  0  0  0  0  0  0  0  0  0  0  0
    3.5142   -0.0028   -1.2831 C   0  0  2  0  0  0  0  0  0  0  0  0
    3.8569    0.2073    0.1376 C   0  0  1  0  0  0  0  0  0  0  0  0
    2.1276   -0.5724   -1.2344 C   0  0  0  0  0  0  0  0  0  0  0  0
    2.8140   -0.5304    0.9500 C   0  0  0  0  0  0  0  0  0  0  0  0
    4.3948   -0.9185   -2.0570 C   0  0  0  0  0  0  0  0  0  0  0  0
   -3.3454    2.2039    0.2264 C   0  0  0  0  0  0  0  0  0  0  0  0
    5.8329   -0.8656   -1.6007 C   0  0  0  0  0  0  0  0  0  0  0  0
   -3.0750    3.5135    0.8378 C   0  0  0  0  0  0  0  0  0  0  0  0
   -3.3759    3.4832   -0.6475 C   0  0  0  0  0  0  0  0  0  0  0  0
    5.7788   -1.2414   -0.1125 C   0  0  0  0  0  0  0  0  0  0  0  0
    0.4284   -0.7990    0.4660 C   0  0  2  0  0  0  0  0  0  0  0  0
   -1.5297    0.7440    0.8713 C   0  0  2  0  0  0  0  0  0  0  0  0
   -0.1146    0.5783    0.3958 C   0  0  0  0  0  0  0  0  0  0  0  0
   -2.1632   -0.4659    1.4535 C   0  0  2  0  0  0  0  0  0  0  0  0
    0.0750   -1.5635    1.7099 C   0  0  0  0  0  0  0  0  0  0  0  0
   -2.7286    0.4071   -1.2045 C   0  0  0  0  0  0  0  0  0  0  0  0
   -1.1577   -1.0722    2.4041 C   0  0  0  0  0  0  0  0  0  0  0  0
   -2.9368   -1.0143   -0.8944 C   0  0  0  0  0  0  0  0  0  0  0  0
   -2.7479   -1.4423    0.5076 C   0  0  0  0  0  0  0  0  0  0  0  0
   -4.3492   -1.4576   -1.3161 C   0  0  0  0  0  0  0  0  0  0  0  0
    1.1558    2.5189    0.3951 C   0  0  0  0  0  0  0  0  0  0  0  0
    0.7849   -2.3765    1.2763 F   0  0  0  0  0  0  0  0  0  0  0  0
    0.1878   -0.0267   -1.8998 O   0  0  0  0  0  0  0  0  0  0  0  0
   -3.7240   -2.4795   -1.3642 O   0  0  0  0  0  0  0  0  0  0  0  0
   -5.7338   -2.1154   -0.3036 O   0  0  0  0  0  0  0  0  0  0  0  0
   -5.9429   -1.0249    1.6632 O   0  0  0  0  0  0  0  0  0  0  0  0
    1.9896   -0.0212    0.2738 N   0  0  0  0  0  0  0  0  0  0  0  0
    5.1951   -0.7873    1.4687 N   0  0  0  0  0  0  0  0  0  0  0  0
   -2.2694    0.9197    0.5704 N   0  0  0  0  0  0  0  0  0  0  0  0
    3.9614    1.0861    0.4690 C   0  0  2  0  0  0  0  0  0  0  0  0
    4.0153    0.0135    1.5413 C   0  0  1  0  0  0  0  0  0  0  0  0
    2.4432    1.3418    0.4642 C   0  0  0  0  0  0  0  0  0  0  0  0
    2.7443   -0.7650    1.2786 C   0  0  0  0  0  0  0  0  0  0  0  0
    4.2892    0.4979   -0.8876 C   0  0  0  0  0  0  0  0  0  0  0  0
   -2.5837    2.3014    0.6816 C   0  0  0  0  0  0  0  0  0  0  0  0
    5.5059   -0.3884   -0.8659 C   0  0  0  0  0  0  0  0  0  0  0  0
   -1.6092    3.4112    0.7440 C   0  0  0  0  0  0  0  0  0  0  0  0
   -2.4930    3.2201   -0.4803 C   0  0  0  0  0  0  0  0  0  0  0  0
    5.4016   -1.4451    0.2156 C   0  0  0  0  0  0  0  0  0  0  0  0
    0.5819   -0.1825    0.3919 C   0  0  1  0  0  0  0  0  0  0  0  0
   -1.6352    0.4393   -0.5678 C   0  0  1  0  0  0  0  0  0  0  0  0
   -0.1283    0.6174   -0.6735 C   0  0  2  0  0  0  0  0  0  0  0  0
   -1.8545   -1.0460   -0.8414 C   0  0  0  0  0  0  0  0  0  0  0  0
    0.2755   -1.6637    0.2053 C   0  0  2  0  0  0  0  0  0  0  0  0
   -3.2249    0.0993    1.2372 C   0  0  0  0  0  0  0  0  0  0  0  0
   -1.1864   -1.9322    0.1390 C   0  0  0  0  0  0  0  0  0  0  0  0
   -3.8306   -1.0265    0.5129 C   0  0  2  0  0  0  0  0  0  0  0  0
   -3.3514   -1.2320   -0.8990 C   0  0  0  0  0  0  0  0  0  0  0  0
   -5.3606   -0.9579    0.4211 C   0  0  0  0  0  0  0  0  0  0  0  0
    0.8450    0.8134   -2.7732 C   0  0  0  0  0  0  0  0  0  0  0  0
    0.0199   -2.3767    1.3762 F   0  0  0  0  0  0  0  0  0  0  0  0
    0.4106    2.1579    0.7424 O   0  0  0  0  0  0  0  0  0  0  0  0
   -2.5472   -2.5634    1.2998 O   0  0  0  0  0  0  0  0  0  0  0  0
   -4.1087   -3.2555   -0.5681 O   0  0  0  0  0  0  0  0  0  0  0  0
   -5.0426   -1.6611   -1.8312 O   0  0  0  0  0  0  0  0  0  0  0  0
    1.3751   -1.0182   -0.1230 N   0  0  0  0  0  0  0  0  0  0  0  0
    4.8102   -1.6812    0.5397 N   0  0  0  0  0  0  0  0  0  0  0  0
   -2.4166    1.2726   -0.3208 N   0  0  0  0  0  0  0  0  0  0  0  0
    3.3801    0.0905   -0.4435 C   0  0  2  0  0  0  0  0  0  0  0  0
    3.5820   -0.9660    0.5807 C   0  0  1  0  0  0  0  0  0  0  0  0
    2.1111   -0.3564   -1.1596 C   0  0  0  0  0  0  0  0  0  0  0  0
    2.3709   -1.9036    0.4840 C   0  0  0  0  0  0  0  0  0  0  0  0
    4.4317    0.2788   -1.4594 C   0  0  0  0  0  0  0  0  0  0  0  0
   -3.3390    2.3354    0.0304 C   0  0  0  0  0  0  0  0  0  0  0  0
    5.7372   -0.3984   -1.2132 C   0  0  0  0  0  0  0  0  0  0  0  0
   -2.9126    3.6762    0.3949 C   0  0  0  0  0  0  0  0  0  0  0  0
   -3.3988    3.4685   -1.0039 C   0  0  0  0  0  0  0  0  0  0  0  0
    5.4167   -1.8135   -0.7495 C   0  0  0  0  0  0  0  0  0  0  0  0
    0.7932   -0.1361    0.8721 C   0  0  1  0  0  0  0  0  0  0  0  0
   -1.5336    0.9084    0.7374 C   0  0  0  0  0  0  0  0  0  0  0  0
   -0.1005    0.9047    0.3612 C   0  0  0  0  0  0  0  0  0  0  0  0
   -1.9918   -0.2885    1.4911 C   0  0  2  0  0  0  0  0  0  0  0  0
    0.2359   -1.0982    1.8940 C   0  0  0  0  0  0  0  0  0  0  0  0
   -3.1133    0.2790   -1.0221 C   0  0  0  0  0  0  0  0  0  0  0  0
   -1.0131   -0.6182    2.5965 C   0  0  0  0  0  0  0  0  0  0  0  0
   -3.4059   -0.9961   -0.3066 C   0  0  2  0  0  0  0  0  0  0  0  0
   -2.2371   -1.4251    0.5741 C   0  0  0  0  0  0  0  0  0  0  0  0
   -3.8442   -2.0856   -1.2575 C   0  0  0  0  0  0  0  0  0  0  0  0
    0.8108    2.9809   -0.2548 C   0  0  0  0  0  0  0  0  0  0  0  0
    0.0922   -2.2389   -0.0245 F   0  0  0  0  0  0  0  0  0  0  0  0
   -0.0389    1.5459   -0.9998 O   0  0  0  0  0  0  0  0  0  0  0  0
   -3.8481   -1.9710    1.2131 O   0  0  0  0  0  0  0  0  0  0  0  0
   -4.8358   -2.6201   -1.0787 O   0  0  0  0  0  0  0  0  0  0  0  0
   -5.6507   -0.8895    0.1068 O   0  0  0  0  0  0  0  0  0  0  0  0
    2.0381   -0.3316   -0.0499 N   0  0  0  0  0  0  0  0  0  0  0  0
    5.3552   -1.2808    0.8585 N   0  0  0  0  0  0  0  0  0  0  0  0
   -2.5510    1.4534    0.1218 N   0  0  0  0  0  0  0  0  0  0  0  0
    4.2184    0.4200   -0.5242 C   0  0  2  0  0  0  0  0  0  0  0  0
    4.2872   -0.3152    0.7616 C   0  0  1  0  0  0  0  0  0  0  0  0
    2.7286    0.8007   -0.5825 C   0  0  0  0  0  0  0  0  0  0  0  0
    2.9320   -0.9102    0.9654 C   0  0  0  0  0  0  0  0  0  0  0  0
    4.6618   -0.3004   -1.7382 C   0  0  0  0  0  0  0  0  0  0  0  0
   -3.0523    2.5247    0.9407 C   0  0  0  0  0  0  0  0  0  0  0  0
    5.9255   -1.0751   -1.4326 C   0  0  0  0  0  0  0  0  0  0  0  0
   -2.1751    3.6507    1.3023 C   0  0  0  0  0  0  0  0  0  0  0  0
   -3.1479    3.8699    0.1977 C   0  0  0  0  0  0  0  0  0  0  0  0
    5.5425   -2.0638   -0.3239 C   0  0  0  0  0  0  0  0  0  0  0  0
    0.7957   -0.0970    0.5871 C   0  0  0  0  0  0  0  0  0  0  0  0
   -1.4878    0.7199    0.6870 C   0  0  2  0  0  0  0  0  0  0  0  0
   -0.3114    0.4619   -0.2305 C   0  0  1  0  0  0  0  0  0  0  0  0
   -2.0189   -0.5102    1.3276 C   0  0  0  0  0  0  0  0  0  0  0  0
    0.3056   -1.4648    1.0871 C   0  0  0  0  0  0  0  0  0  0  0  0
   -3.5171    0.7838   -0.6517 C   0  0  0  0  0  0  0  0  0  0  0  0
   -0.9118   -1.3129    1.9637 C   0  0  0  0  0  0  0  0  0  0  0  0
   -3.4172   -0.7015   -0.7577 C   0  0  0  0  0  0  0  0  0  0  0  0
   -2.8410   -1.3870    0.4331 C   0  0  2  0  0  0  0  0  0  0  0  0
   -4.8299   -1.2469   -0.9693 C   0  0  0  0  0  0  0  0  0  0  0  0
   -0.2632    1.4000   -2.3510 C   0  0  0  0  0  0  0  0  0  0  0  0
   -2.6676   -3.2171   -0.0652 H   0  0  0  0  0  0  0  0  0  0  0  0
   -5.5429   -3.4806   -0.5209 H   0  0  0  0  0  0  0  0  0  0  0  0
   -6.0669   -1.8946    1.1520 H   0  0  0  0  0  0  0  0  0  0  0  0
    5.8566   -0.3741    1.7293 H   0  0  0  0  0  0  0  0  0  0  0  0
    4.9524    1.2066   -0.5711 H   0  0  0  0  0  0  0  0  0  0  0  0
    3.9164    0.7458    1.6422 H   0  0  0  0  0  0  0  0  0  0  0  0
    2.7296    1.9100   -0.2478 H   0  0  0  0  0  0  0  0  0  0  0  0
    2.8078    0.9448   -1.8363 H   0  0  0  0  0  0  0  0  0  0  0  0
    2.9723   -1.8340    0.4385 H   0  0  0  0  0  0  0  0  0  0  0  0
    2.2699   -0.7844    1.8106 H   0  0  0  0  0  0  0  0  0  0  0  0
    3.6828   -1.4497   -1.4314 H   0  0  0  0  0  0  0  0  0  0  0  0
    4.6778   -0.3562   -2.4281 H   0  0  0  0  0  0  0  0  0  0  0  0
   -4.0495    2.3910    1.4327 H   0  0  0  0  0  0  0  0  0  0  0  0
    6.0605   -2.2405   -1.5574 H   0  0  0  0  0  0  0  0  0  0  0  0
    6.5533   -0.6431   -0.8331 H   0  0  0  0  0  0  0  0  0  0  0  0
   -2.4496    3.8534    2.5449 H   0  0  0  0  0  0  0  0  0  0  0  0
   -1.0449    2.9020    1.9098 H   0  0  0  0  0  0  0  0  0  0  0  0
   -2.0385    3.6089   -0.6052 H   0  0  0  0  0  0  0  0  0  0  0  0
   -3.3410    4.4344    0.3260 H   0  0  0  0  0  0  0  0  0  0  0  0
    6.4388   -2.3971    0.8367 H   0  0  0  0  0  0  0  0  0  0  0  0
    4.7627   -2.8061    0.4128 H   0  0  0  0  0  0  0  0  0  0  0  0
    1.0931    1.0302    1.2997 H   0  0  0  0  0  0  0  0  0  0  0  0
   -2.1532    0.8982   -1.4307 H   0  0  0  0  0  0  0  0  0  0  0  0
   -0.2063    2.2243   -0.1276 H   0  0  0  0  0  0  0  0  0  0  0  0
   -0.6975   -1.1224   -1.0836 H   0  0  0  0  0  0  0  0  0  0  0  0
    0.3721   -0.8589    2.2719 H   0  0  0  0  0  0  0  0  0  0  0  0
   -4.1109    0.1431    1.7054 H   0  0  0  0  0  0  0  0  0  0  0  0
   -4.6852    0.7332    0.1514 H   0  0  0  0  0  0  0  0  0  0  0  0
   -1.7544   -0.4162    1.7255 H   0  0  0  0  0  0  0  0  0  0  0  0
   -1.4978   -2.1867    1.2893 H   0  0  0  0  0  0  0  0  0  0  0  0
   -3.6922   -1.9177    0.9019 H   0  0  0  0  0  0  0  0  0  0  0  0
   -3.0140   -1.1070   -1.9588 H   0  0  0  0  0  0  0  0  0  0  0  0
   -5.3039   -0.8367   -1.4069 H   0  0  0  0  0  0  0  0  0  0  0  0
   -0.6093    2.8713   -2.3443 H   0  0  0  0  0  0  0  0  0  0  0  0
    0.7593    2.0914   -3.2880 H   0  0  0  0  0  0  0  0  0  0  0  0
    1.0698    2.8878   -1.7200 H   0  0  0  0  0  0  0  0  0  0  0  0
   -3.8539   -2.5414    2.0456 H   0  0  0  0  0  0  0  0  0  0  0  0
   -4.5578   -2.6350   -2.3466 H   0  0  0  0  0  0  0  0  0  0  0  0
   -6.0531   -1.9958    0.4791 H   0  0  0  0  0  0  0  0  0  0  0  0
    6.3060    0.1079    0.8533 H   0  0  0  0  0  0  0  0  0  0  0  0
    3.7807    1.1999   -1.3315 H   0  0  0  0  0  0  0  0  0  0  0  0
    4.4132    1.2331    0.8273 H   0  0  0  0  0  0  0  0  0  0  0  0
    2.0315   -0.0950   -1.8491 H   0  0  0  0  0  0  0  0  0  0  0  0
    2.6923   -1.5843   -1.0726 H   0  0  0  0  0  0  0  0  0  0  0  0
    3.2379   -1.4195    1.5448 H   0  0  0  0  0  0  0  0  0  0  0  0
    2.9014    0.2390    2.1632 H   0  0  0  0  0  0  0  0  0  0  0  0
    4.2402   -1.4718   -2.2999 H   0  0  0  0  0  0  0  0  0  0  0  0
    5.0308    0.0318   -2.7979 H   0  0  0  0  0  0  0  0  0  0  0  0
   -4.1242    1.8190    1.1460 H   0  0  0  0  0  0  0  0  0  0  0  0
    6.4512   -1.9040   -2.0357 H   0  0  0  0  0  0  0  0  0  0  0  0
    6.8202   -0.2733   -1.2926 H   0  0  0  0  0  0  0  0  0  0  0  0
   -2.9708    3.2577    2.7469 H   0  0  0  0  0  0  0  0  0  0  0  0
   -1.3388    3.1321    1.9841 H   0  0  0  0  0  0  0  0  0  0  0  0
   -3.9483    4.2418    0.6890 H   0  0  0  0  0  0  0  0  0  0  0  0
   -2.3645    4.0242   -0.2221 H   0  0  0  0  0  0  0  0  0  0  0  0
    6.7298   -2.1068    0.4101 H   0  0  0  0  0  0  0  0  0  0  0  0
    4.9661   -2.3843   -0.0548 H   0  0  0  0  0  0  0  0  0  0  0  0
    0.6930   -0.0033    1.8419 H   0  0  0  0  0  0  0  0  0  0  0  0
   -1.6494   -0.3327   -0.8740 H   0  0  0  0  0  0  0  0  0  0  0  0
   -0.0263    1.7646    0.5749 H   0  0  0  0  0  0  0  0  0  0  0  0
   -2.2519    0.0261    2.0846 H   0  0  0  0  0  0  0  0  0  0  0  0
    0.8869   -2.2638    1.0489 H   0  0  0  0  0  0  0  0  0  0  0  0
   -4.4177    1.5492   -1.1133 H   0  0  0  0  0  0  0  0  0  0  0  0
   -3.3313    0.4242   -1.9636 H   0  0  0  0  0  0  0  0  0  0  0  0
   -0.7356   -1.5916    2.5233 H   0  0  0  0  0  0  0  0  0  0  0  0
   -1.5533   -2.6304    1.3483 H   0  0  0  0  0  0  0  0  0  0  0  0
   -5.0477    0.1368    0.5259 H   0  0  0  0  0  0  0  0  0  0  0  0
   -3.0846   -2.0771    0.1420 H   0  0  0  0  0  0  0  0  0  0  0  0
   -5.8120   -0.7399   -1.5931 H   0  0  0  0  0  0  0  0  0  0  0  0
   -0.2138    3.0466   -1.2284 H   0  0  0  0  0  0  0  0  0  0  0  0
    1.0146    2.4726   -2.4905 H   0  0  0  0  0  0  0  0  0  0  0  0
    1.4300    2.5973   -0.7087 H   0  0  0  0  0  0  0  0  0  0  0  0
   -3.7567   -2.5712    1.8074 H   0  0  0  0  0  0  0  0  0  0  0  0
   -5.4868   -2.9257   -0.7367 H   0  0  0  0  0  0  0  0  0  0  0  0
   -5.9959   -1.2985   -0.1910 H   0  0  0  0  0  0  0  0  0  0  0  0
    5.7399    0.5360    0.9969 H   0  0  0  0  0  0  0  0  0  0  0  0
    3.5007    0.9701   -1.8587 H   0  0  0  0  0  0  0  0  0  0  0  0
    3.7919    1.3201    0.3379 H   0  0  0  0  0  0  0  0  0  0  0  0
    1.4328    0.1414   -1.7305 H   0  0  0  0  0  0  0  0  0  0  0  0
    2.0679   -1.4882   -1.9022 H   0  0  0  0  0  0  0  0  0  0  0  0
    3.3521   -1.3853    1.4430 H   0  0  0  0  0  0  0  0  0  0  0  0
    2.4922    0.2079    1.7511 H   0  0  0  0  0  0  0  0  0  0  0  0
    4.0709   -1.9933   -1.9786 H   0  0  0  0  0  0  0  0  0  0  0  0
    4.4073   -0.6438   -3.1468 H   0  0  0  0  0  0  0  0  0  0  0  0
   -4.3654    1.7771    0.4020 H   0  0  0  0  0  0  0  0  0  0  0  0
    6.4579   -1.5487   -2.1778 H   0  0  0  0  0  0  0  0  0  0  0  0
    6.1855    0.1915   -1.6111 H   0  0  0  0  0  0  0  0  0  0  0  0
   -3.8294    3.9526    1.5072 H   0  0  0  0  0  0  0  0  0  0  0  0
   -2.0332    3.8227    1.0672 H   0  0  0  0  0  0  0  0  0  0  0  0
   -2.5446    3.6213   -1.3690 H   0  0  0  0  0  0  0  0  0  0  0  0
   -4.3533    3.8541   -0.9696 H   0  0  0  0  0  0  0  0  0  0  0  0
    5.2195   -2.1971   -0.0499 H   0  0  0  0  0  0  0  0  0  0  0  0
    6.7791   -1.4047    0.2877 H   0  0  0  0  0  0  0  0  0  0  0  0
   -0.1240   -1.3662   -0.3579 H   0  0  0  0  0  0  0  0  0  0  0  0
   -1.5412    1.5243    1.6967 H   0  0  0  0  0  0  0  0  0  0  0  0
   -0.1093    0.9724   -0.6588 H   0  0  0  0  0  0  0  0  0  0  0  0
   -2.9963   -0.0920    2.1267 H   0  0  0  0  0  0  0  0  0  0  0  0
    0.9013   -1.4788    2.4468 H   0  0  0  0  0  0  0  0  0  0  0  0
   -1.9597    0.5289   -2.0266 H   0  0  0  0  0  0  0  0  0  0  0  0
   -3.6631    0.8232   -1.6708 H   0  0  0  0  0  0  0  0  0  0  0  0
   -0.8747   -0.2729    3.1154 H   0  0  0  0  0  0  0  0  0  0  0  0
   -1.5695   -1.9088    3.0025 H   0  0  0  0  0  0  0  0  0  0  0  0
   -2.2700   -1.6392   -1.5625 H   0  0  0  0  0  0  0  0  0  0  0  0
   -2.0891   -2.3639    0.5511 H   0  0  0  0  0  0  0  0  0  0  0  0
   -4.5718   -1.1810   -2.3490 H   0  0  0  0  0  0  0  0  0  0  0  0
    1.7826    3.2163    0.9515 H   0  0  0  0  0  0  0  0  0  0  0  0
    0.3251    3.1482   -0.0535 H   0  0  0  0  0  0  0  0  0  0  0  0
    1.7204    2.1672   -0.4863 H   0  0  0  0  0  0  0  0  0  0  0  0
   -2.9638   -3.0298   -1.6822 H   0  0  0  0  0  0  0  0  0  0  0  0
   -6.0472   -2.8361    0.3133 H   0  0  0  0  0  0  0  0  0  0  0  0
   -6.0761   -1.9871    1.9292 H   0  0  0  0  0  0  0  0  0  0  0  0
    6.0097   -0.1280    1.5984 H   0  0  0  0  0  0  0  0  0  0  0  0
    4.5302    1.9839    0.7035 H   0  0  0  0  0  0  0  0  0  0  0  0
    4.0013    0.5134    2.5302 H   0  0  0  0  0  0  0  0  0  0  0  0
    2.1163    1.7908    1.4167 H   0  0  0  0  0  0  0  0  0  0  0  0
    2.2487    2.0175   -0.3667 H   0  0  0  0  0  0  0  0  0  0  0  0
    2.9540   -1.7867    0.9204 H   0  0  0  0  0  0  0  0  0  0  0  0
    2.1793   -0.8589    2.2375 H   0  0  0  0  0  0  0  0  0  0  0  0
    3.4315   -0.1730   -1.1863 H   0  0  0  0  0  0  0  0  0  0  0  0
    4.4464    1.3162   -1.5879 H   0  0  0  0  0  0  0  0  0  0  0  0
   -3.5121    2.4914    1.3093 H   0  0  0  0  0  0  0  0  0  0  0  0
    5.5117   -0.9265   -1.8499 H   0  0  0  0  0  0  0  0  0  0  0  0
    6.4506    0.1402   -0.7484 H   0  0  0  0  0  0  0  0  0  0  0  0
   -1.8720    4.3138    1.3925 H   0  0  0  0  0  0  0  0  0  0  0  0
   -0.5286    3.3020    0.6870 H   0  0  0  0  0  0  0  0  0  0  0  0
   -1.9655    2.9689   -1.4196 H   0  0  0  0  0  0  0  0  0  0  0  0
   -3.2767    3.9890   -0.6337 H   0  0  0  0  0  0  0  0  0  0  0  0
    6.4176   -1.9239    0.2671 H   0  0  0  0  0  0  0  0  0  0  0  0
    4.7017   -2.2471   -0.0196 H   0  0  0  0  0  0  0  0  0  0  0  0
    0.2284    0.1544    1.3872 H   0  0  0  0  0  0  0  0  0  0  0  0
   -2.0606    0.9453   -1.4684 H   0  0  0  0  0  0  0  0  0  0  0  0
    0.2357    1.6202   -0.6946 H   0  0  0  0  0  0  0  0  0  0  0  0
   -1.3863   -1.2319   -1.8374 H   0  0  0  0  0  0  0  0  0  0  0  0
    0.7927   -1.9701   -0.7398 H   0  0  0  0  0  0  0  0  0  0  0  0
   -2.8035   -0.1760    2.2386 H   0  0  0  0  0  0  0  0  0  0  0  0
   -4.0887    0.7753    1.5323 H   0  0  0  0  0  0  0  0  0  0  0  0
   -1.5833   -1.9071    1.1664 H   0  0  0  0  0  0  0  0  0  0  0  0
   -1.3264   -2.9803   -0.2208 H   0  0  0  0  0  0  0  0  0  0  0  0
   -3.6230   -1.9766    1.0682 H   0  0  0  0  0  0  0  0  0  0  0  0
   -3.7720   -0.3986   -1.5170 H   0  0  0  0  0  0  0  0  0  0  0  0
   -5.6597   -0.1044   -0.1951 H   0  0  0  0  0  0  0  0  0  0  0  0
    0.2229    1.7160   -3.0231 H   0  0  0  0  0  0  0  0  0  0  0  0
    0.8954    0.2499   -3.7521 H   0  0  0  0  0  0  0  0  0  0  0  0
    1.8788    1.0636   -2.5114 H   0  0  0  0  0  0  0  0  0  0  0  0
   -3.5029   -2.5640    1.6013 H   0  0  0  0  0  0  0  0  0  0  0  0
   -5.0293   -3.1886   -0.2084 H   0  0  0  0  0  0  0  0  0  0  0  0
   -5.8275   -1.9100   -1.2850 H   0  0  0  0  0  0  0  0  0  0  0  0
    5.4986   -1.2179    1.1727 H   0  0  0  0  0  0  0  0  0  0  0  0
    3.1934    1.0684    0.0896 H   0  0  0  0  0  0  0  0  0  0  0  0
    3.5014   -0.5282    1.6193 H   0  0  0  0  0  0  0  0  0  0  0  0
    1.6914    0.4470   -1.6962 H   0  0  0  0  0  0  0  0  0  0  0  0
    2.3601   -1.1656   -1.9087 H   0  0  0  0  0  0  0  0  0  0  0  0
    2.6123   -2.6786   -0.2760 H   0  0  0  0  0  0  0  0  0  0  0  0
    2.1185   -2.2936    1.4618 H   0  0  0  0  0  0  0  0  0  0  0  0
    4.0961   -0.0310   -2.4918 H   0  0  0  0  0  0  0  0  0  0  0  0
    4.6504    1.3746   -1.5787 H   0  0  0  0  0  0  0  0  0  0  0  0
   -4.3461    2.0026    0.3891 H   0  0  0  0  0  0  0  0  0  0  0  0
    6.2792   -0.4891   -2.1704 H   0  0  0  0  0  0  0  0  0  0  0  0
    6.3884    0.1260   -0.5072 H   0  0  0  0  0  0  0  0  0  0  0  0
   -3.6028    4.2810    1.0331 H   0  0  0  0  0  0  0  0  0  0  0  0
   -1.8503    3.9522    0.5946 H   0  0  0  0  0  0  0  0  0  0  0  0
   -4.4212    3.8507   -1.2726 H   0  0  0  0  0  0  0  0  0  0  0  0
   -2.7272    3.4346   -1.8610 H   0  0  0  0  0  0  0  0  0  0  0  0
    4.7556   -2.2628   -1.5073 H   0  0  0  0  0  0  0  0  0  0  0  0
    6.3356   -2.4181   -0.6313 H   0  0  0  0  0  0  0  0  0  0  0  0
    1.6876    0.3513    1.3618 H   0  0  0  0  0  0  0  0  0  0  0  0
   -1.6503    1.7639    1.5084 H   0  0  0  0  0  0  0  0  0  0  0  0
   -0.0062    0.9379   -0.7753 H   0  0  0  0  0  0  0  0  0  0  0  0
   -2.9473   -0.0268    1.9910 H   0  0  0  0  0  0  0  0  0  0  0  0
    0.9902   -1.2192    2.6952 H   0  0  0  0  0  0  0  0  0  0  0  0
   -4.0610    0.7037   -1.4388 H   0  0  0  0  0  0  0  0  0  0  0  0
   -2.5153    0.0087   -1.9432 H   0  0  0  0  0  0  0  0  0  0  0  0
   -0.7983    0.2517    3.2110 H   0  0  0  0  0  0  0  0  0  0  0  0
   -1.4171   -1.4830    3.1487 H   0  0  0  0  0  0  0  0  0  0  0  0
   -4.2517   -0.8201    0.3863 H   0  0  0  0  0  0  0  0  0  0  0  0
   -1.4265   -1.6605   -0.1427 H   0  0  0  0  0  0  0  0  0  0  0  0
   -3.1229   -2.2328   -2.0863 H   0  0  0  0  0  0  0  0  0  0  0  0
    1.6326    2.6153   -0.8949 H   0  0  0  0  0  0  0  0  0  0  0  0
   -0.0219    3.4150   -0.8570 H   0  0  0  0  0  0  0  0  0  0  0  0
    1.2536    3.8943    0.2490 H   0  0  0  0  0  0  0  0  0  0  0  0
   -3.4855   -2.7263    1.7599 H   0  0  0  0  0  0  0  0  0  0  0  0
   -5.4489   -3.0434   -0.4189 H   0  0  0  0  0  0  0  0  0  0  0  0
   -6.2035   -1.6534    0.4137 H   0  0  0  0  0  0  0  0  0  0  0  0
    6.2258   -0.8565    1.2125 H   0  0  0  0  0  0  0  0  0  0  0  0
    4.8311    1.3627   -0.4494 H   0  0  0  0  0  0  0  0  0  0  0  0
    4.5018    0.4434    1.5724 H   0  0  0  0  0  0  0  0  0  0  0  0
    2.6410    1.7137    0.0080 H   0  0  0  0  0  0  0  0  0  0  0  0
    2.4900    0.8985   -1.6521 H   0  0  0  0  0  0  0  0  0  0  0  0
    2.9485   -2.0247    0.8943 H   0  0  0  0  0  0  0  0  0  0  0  0
    2.5910   -0.6541    1.9923 H   0  0  0  0  0  0  0  0  0  0  0  0
    3.8944   -0.9474   -2.2062 H   0  0  0  0  0  0  0  0  0  0  0  0
    4.9497    0.4671   -2.5155 H   0  0  0  0  0  0  0  0  0  0  0  0
   -3.9115    2.3309    1.6230 H   0  0  0  0  0  0  0  0  0  0  0  0
    6.3392   -1.5978   -2.2963 H   0  0  0  0  0  0  0  0  0  0  0  0
    6.6565   -0.3573   -0.9949 H   0  0  0  0  0  0  0  0  0  0  0  0
   -2.3573    4.2482    2.2270 H   0  0  0  0  0  0  0  0  0  0  0  0
   -1.0777    3.6482    1.0453 H   0  0  0  0  0  0  0  0  0  0  0  0
   -2.7182    3.9358   -0.8075 H   0  0  0  0  0  0  0  0  0  0  0  0
   -4.0542    4.4827    0.3621 H   0  0  0  0  0  0  0  0  0  0  0  0
    4.5593   -2.4808   -0.6231 H   0  0  0  0  0  0  0  0  0  0  0  0
    6.3159   -2.8115   -0.1445 H   0  0  0  0  0  0  0  0  0  0  0  0
    0.9339    0.5207    1.5013 H   0  0  0  0  0  0  0  0  0  0  0  0
   -1.0797    1.3495    1.5370 H   0  0  0  0  0  0  0  0  0  0  0  0
   -0.6709   -0.3567   -0.9227 H   0  0  0  0  0  0  0  0  0  0  0  0
   -2.6727   -0.1693    2.1861 H   0  0  0  0  0  0  0  0  0  0  0  0
    1.0757   -1.9684    1.6948 H   0  0  0  0  0  0  0  0  0  0  0  0
   -3.5277    1.2441   -1.6752 H   0  0  0  0  0  0  0  0  0  0  0  0
   -4.5322    1.0741   -0.2380 H   0  0  0  0  0  0  0  0  0  0  0  0
   -0.5929   -0.8984    2.9310 H   0  0  0  0  0  0  0  0  0  0  0  0
   -1.3116   -2.3363    2.1309 H   0  0  0  0  0  0  0  0  0  0  0  0
   -2.8609   -0.9758   -1.6783 H   0  0  0  0  0  0  0  0  0  0  0  0
   -2.1939   -2.2297    0.1126 H   0  0  0  0  0  0  0  0  0  0  0  0
   -5.2711   -0.7936   -1.8938 H   0  0  0  0  0  0  0  0  0  0  0  0
   -1.3293    1.1580   -2.6078 H   0  0  0  0  0  0  0  0  0  0  0  0
    0.4359    0.6973   -2.8568 H   0  0  0  0  0  0  0  0  0  0  0  0
   -0.0749    2.3924   -2.8210 H   0  0  0  0  0  0  0  0  0  0  0  0
  7 10  1  0
  9 10  1  0
  6 11  1  0
  9 11  1  0
  6 12  1  0
 10 12  1  0
  9 13  1  0
  8 14  1  0
 13 15  1  0
 14 16  1  0
 14 17  1  0
 16 17  1  0
  7 18  1  0
 15 18  1  0
  6 19  1  0
  8 20  1  0
  2 21  1  0
 19 21  1  0
 20 21  1  0
 20 22  1  0
  1 23  1  0
 19 23  1  0
  8 24  1  0
 22 25  1  0
 23 25  1  0
 24 26  1  0
 22 27  1  0
 26 27  1  0
 27  3  1  0
  4 28  1  0
 26 28  1  0
 28  5  1  0
  2 29  1  0
 36 39  1  0
 38 39  1  0
 35 40  1  0
 38 40  1  0
 35 41  1  0
 39 41  1  0
 38 42  1  0
 37 43  1  0
 42 44  1  0
 43 45  1  0
 43 46  1  0
 45 46  1  0
 36 47  1  0
 44 47  1  0
 35 48  1  0
 37 49  1  0
 31 50  1  0
 48 50  1  0
 49 50  1  0
 49 51  1  0
 30 52  1  0
 48 52  1  0
 37 53  1  0
 51 54  1  0
 52 54  1  0
 53 55  1  0
 51 56  1  0
 55 56  1  0
 56 32  1  0
 33 57  1  0
 55 57  1  0
 57 34  1  0
 31 58  1  0
 65 68  1  0
 67 68  1  0
 64 69  1  0
 67 69  1  0
 64 70  1  0
 68 70  1  0
 67 71  1  0
 66 72  1  0
 71 73  1  0
 72 74  1  0
 72 75  1  0
 74 75  1  0
 65 76  1  0
 73 76  1  0
 64 77  1  0
 66 78  1  0
 60 79  1  0
 77 79  1  0
 78 79  1  0
 78 80  1  0
 59 81  1  0
 77 81  1  0
 66 82  1  0
 80 83  1  0
 81 83  1  0
 82 84  1  0
 80 85  1  0
 84 85  1  0
 85 61  1  0
 62 86  1  0
 84 86  1  0
 86 63  1  0
 60 87  1  0
 94 97  1  0
 96 97  1  0
 93 98  1  0
 96 98  1  0
 93 99  1  0
 97 99  1  0
 96100  1  0
 95101  1  0
100102  1  0
101103  1  0
101104  1  0
103104  1  0
 94105  1  0
102105  1  0
 93106  1  0
 95107  1  0
 89108  1  0
106108  1  0
107108  1  0
107109  1  0
 88110  1  0
106110  1  0
 95111  1  0
109112  1  0
110112  1  0
111113  1  0
109114  1  0
113114  1  0
114 90  1  0
 91115  1  0
113115  1  0
115 92  1  0
 89116  1  0
123126  1  0
125126  1  0
122127  1  0
125127  1  0
122128  1  0
126128  1  0
125129  1  0
124130  1  0
129131  1  0
130132  1  0
130133  1  0
132133  1  0
123134  1  0
131134  1  0
122135  1  0
124136  1  0
118137  1  0
135137  1  0
136137  1  0
136138  1  0
117139  1  0
135139  1  0
124140  1  0
138141  1  0
139141  1  0
140142  1  0
138143  1  0
142143  1  0
143119  1  0
120144  1  0
142144  1  0
144121  1  0
118145  1  0
152155  1  0
154155  1  0
151156  1  0
154156  1  0
151157  1  0
155157  1  0
154158  1  0
153159  1  0
158160  1  0
159161  1  0
159162  1  0
161162  1  0
152163  1  0
160163  1  0
151164  1  0
153165  1  0
147166  1  0
164166  1  0
165166  1  0
165167  1  0
146168  1  0
164168  1  0
153169  1  0
167170  1  0
168170  1  0
169171  1  0
167172  1  0
171172  1  0
172148  1  0
149173  1  0
171173  1  0
173150  1  0
147174  1  0
  3175  1  0
  4176  1  0
  5177  1  0
  7178  1  0
  9179  1  1
 10180  1  1
 11181  1  0
 11182  1  0
 12183  1  0
 12184  1  0
 13185  1  0
 13186  1  0
 14187  1  0
 15188  1  0
 15189  1  0
 16190  1  0
 16191  1  0
 17192  1  0
 17193  1  0
 18194  1  0
 18195  1  0
 19196  1  1
 20197  1  6
 21198  1  1
 22199  1  0
 23200  1  0
 24201  1  0
 24202  1  0
 25203  1  0
 25204  1  0
 26205  1  1
 27206  1  0
 28207  1  0
 29208  1  0
 29209  1  0
 29210  1  0
 32211  1  0
 33212  1  0
 34213  1  0
 36214  1  0
 38215  1  6
 39216  1  1
 40217  1  0
 40218  1  0
 41219  1  0
 41220  1  0
 42221  1  0
 42222  1  0
 43223  1  0
 44224  1  0
 44225  1  0
 45226  1  0
 45227  1  0
 46228  1  0
 46229  1  0
 47230  1  0
 47231  1  0
 48232  1  1
 49233  1  0
 50234  1  1
 51235  1  1
 52236  1  0
 53237  1  0
 53238  1  0
 54239  1  0
 54240  1  0
 55241  1  1
 56242  1  0
 57243  1  0
 58244  1  0
 58245  1  0
 58246  1  0
 61247  1  0
 62248  1  0
 63249  1  0
 65250  1  0
 67251  1  6
 68252  1  1
 69253  1  0
 69254  1  0
 70255  1  0
 70256  1  0
 71257  1  0
 71258  1  0
 72259  1  0
 73260  1  0
 73261  1  0
 74262  1  0
 74263  1  0
 75264  1  0
 75265  1  0
 76266  1  0
 76267  1  0
 77268  1  6
 78269  1  1
 79270  1  0
 80271  1  1
 81272  1  0
 82273  1  0
 82274  1  0
 83275  1  0
 83276  1  0
 84277  1  0
 85278  1  0
 86279  1  0
 87280  1  0
 87281  1  0
 87282  1  0
 90283  1  0
 91284  1  0
 92285  1  0
 94286  1  0
 96287  1  1
 97288  1  1
 98289  1  0
 98290  1  0
 99291  1  0
 99292  1  0
100293  1  0
100294  1  0
101295  1  0
102296  1  0
102297  1  0
103298  1  0
103299  1  0
104300  1  0
104301  1  0
105302  1  0
105303  1  0
106304  1  1
107305  1  6
108306  1  6
109307  1  0
110308  1  6
111309  1  0
111310  1  0
112311  1  0
112312  1  0
113313  1  1
114314  1  0
115315  1  0
116316  1  0
116317  1  0
116318  1  0
119319  1  0
120320  1  0
121321  1  0
123322  1  0
125323  1  1
126324  1  1
127325  1  0
127326  1  0
128327  1  0
128328  1  0
129329  1  0
129330  1  0
130331  1  0
131332  1  0
131333  1  0
132334  1  0
132335  1  0
133336  1  0
133337  1  0
134338  1  0
134339  1  0
135340  1  1
136341  1  0
137342  1  0
138343  1  1
139344  1  0
140345  1  0
140346  1  0
141347  1  0
141348  1  0
142349  1  1
143350  1  0
144351  1  0
145352  1  0
145353  1  0
145354  1  0
148355  1  0
149356  1  0
150357  1  0
152358  1  0
154359  1  1
155360  1  1
156361  1  0
156362  1  0
157363  1  0
157364  1  0
158365  1  0
158366  1  0
159367  1  0
160368  1  0
160369  1  0
161370  1  0
161371  1  0
162372  1  0
162373  1  0
163374  1  0
163375  1  0
164376  1  0
165377  1  1
166378  1  6
167379  1  0
168380  1  0
169381  1  0
169382  1  0
170383  1  0
170384  1  0
171385  1  0
172386  1  6
173387  1  0
174388  1  0
174389  1  0
174390  1  0
M  END
>  <PDBID>  (1) 
5CDQ

>  <PDB ID>  (1) 
5CDQ

>  <Generic Name>  (1) 
Moxifloxacin

>  <Brand Name>  (1) 
Act Moxifloxacin#Apo-moxifloxacin#Auro-moxifloxacin#Avelox#Avelox Abc Pack#Avelox I.V.#Bio-moxifloxacin#Dom-moxifloxacin#Ipg-moxifloxacin#Jamp-moxifloxacin#Jamp-moxifloxacin Tablets#Mar-moxifloxacin#Med-moxifloxacin#Moxeza#Moxifloxacin#Moxifloxacin Hydrochloride#Moxifloxacin Injection#Mylan-moxifloxacin#Mylan-moxifloxacin HCl Ophthalmic Solution#PHL-moxifloxacin#PMS-moxifloxacin#Priva-moxifloxacin#Riva-moxifloxacin#Sandoz Moxifloxacin#Teva-moxifloxacin#Torrent-moxifloxacin#Vigamox

>  <DrugBank ID>  (1) 
DB00218

>  <ATC Codes>  (1) 
J01MA14#S01AE07

>  <Ligand ID>  (1) 
MFX

>  <Target Name>  (1) 
DNA gyrase subunit A

>  <UniProt ID>  (1) 
P43700

>  <PDB ID.1>  (1) 
5CDQ

>  <Seq. Identity>  (1) 
53%

$$$$
