PDB_DB04786_01
     RDKit          3D

192199  0  0  0  0  0  0  0  0999 V2000
  -17.2952    1.9495   -0.3749 O   0  0  0  0  0  0  0  0  0  0  0  0
  -16.6061    0.4147    0.0823 S   0  0  0  0  0  0  0  0  0  0  0  0
  -16.7364   -0.5809   -0.8129 O   0  0  0  0  0  0  0  0  0  0  0  0
  -17.6529    0.1296    1.5476 O   0  0  0  0  0  0  0  0  0  0  0  0
  -15.0933    0.8559    0.8766 C   0  0  0  0  0  0  0  0  0  0  0  0
  -14.2147    1.5313   -0.1325 C   0  0  0  0  0  0  0  0  0  0  0  0
  -12.7123    1.3358    0.1846 C   0  0  2  0  0  0  0  0  0  0  0  0
  -11.8271    2.5540   -0.6137 S   0  0  0  0  0  0  0  0  0  0  0  0
  -11.8850    2.3073   -2.2361 O   0  0  0  0  0  0  0  0  0  0  0  0
  -13.2245    3.9055   -0.6771 O   0  0  0  0  0  0  0  0  0  0  0  0
  -10.7997    3.3342    0.0224 O   0  0  0  0  0  0  0  0  0  0  0  0
  -14.4184   -0.4155    1.2709 C   0  0  0  0  0  0  0  0  0  0  0  0
  -13.6303   -0.8992    0.0607 C   0  0  0  0  0  0  0  0  0  0  0  0
  -13.3603   -2.3617    0.3102 C   0  0  1  0  0  0  0  0  0  0  0  0
  -13.1536   -3.3156   -1.0975 S   0  0  0  0  0  0  0  0  0  0  0  0
  -13.0259   -4.8665   -0.7645 O   0  0  0  0  0  0  0  0  0  0  0  0
  -12.3297   -2.7051   -2.2438 O   0  0  0  0  0  0  0  0  0  0  0  0
  -14.8221   -3.3107   -1.8164 O   0  0  0  0  0  0  0  0  0  0  0  0
  -12.3445   -2.5500    1.3857 C   0  0  0  0  0  0  0  0  0  0  0  0
  -11.3286   -1.4842    1.5195 C   0  0  0  0  0  0  0  0  0  0  0  0
  -12.4136   -0.0659   -0.2342 C   0  0  0  0  0  0  0  0  0  0  0  0
  -11.1257   -0.6631    0.2702 C   0  0  1  0  0  0  0  0  0  0  0  0
  -10.1605    0.3687    0.4320 N   0  0  0  0  0  0  0  0  0  0  0  0
   -8.8327    0.0454    0.7806 C   0  0  0  0  0  0  0  0  0  0  0  0
   -8.7326   -0.4186    2.1271 O   0  0  0  0  0  0  0  0  0  0  0  0
   -7.9416   -0.6778   -0.1175 C   0  0  2  0  0  0  0  0  0  0  0  0
   -7.6703    0.0664   -1.4445 C   0  0  0  0  0  0  0  0  0  0  0  0
   -8.2128   -2.0829   -0.4986 C   0  0  0  0  0  0  0  0  0  0  0  0
   -6.8455   -2.6296   -1.0021 C   0  0  0  0  0  0  0  0  0  0  0  0
   -6.5906   -1.9160   -2.3352 C   0  0  0  0  0  0  0  0  0  0  0  0
   -5.3824   -2.5461   -2.9604 C   0  0  0  0  0  0  0  0  0  0  0  0
   -6.3443   -0.4475   -1.9835 C   0  0  0  0  0  0  0  0  0  0  0  0
   -5.2903   -0.4443   -0.9965 N   0  0  0  0  0  0  0  0  0  0  0  0
   -4.9334    0.8391   -0.4949 C   0  0  0  0  0  0  0  0  0  0  0  0
   -4.2847    1.5540   -1.5149 O   0  0  0  0  0  0  0  0  0  0  0  0
   -3.9528    0.6926    0.6382 C   0  0  0  0  0  0  0  0  0  0  0  0
   -2.7091   -0.0087    0.1323 C   0  0  0  0  0  0  0  0  0  0  0  0
   -4.4949   -0.1356    1.7763 C   0  0  0  0  0  0  0  0  0  0  0  0
   -3.4926   -0.2347    2.8750 C   0  0  0  0  0  0  0  0  0  0  0  0
   -2.1438   -0.7196    2.3992 C   0  0  0  0  0  0  0  0  0  0  0  0
   -1.6408    0.0729    1.2270 C   0  0  0  0  0  0  0  0  0  0  0  0
   -1.4832    1.4249    1.6268 N   0  0  0  0  0  0  0  0  0  0  0  0
   -0.9730    2.3338    0.6465 C   0  0  0  0  0  0  0  0  0  0  0  0
   -1.7178    3.5576    0.9376 O   0  0  0  0  0  0  0  0  0  0  0  0
    0.3578    2.7464    0.7548 N   0  0  0  0  0  0  0  0  0  0  0  0
    1.4746    1.9561    0.8312 C   0  0  0  0  0  0  0  0  0  0  0  0
    1.8230    1.0114   -0.2830 C   0  0  0  0  0  0  0  0  0  0  0  0
    1.6656    1.2295    2.1390 C   0  0  0  0  0  0  0  0  0  0  0  0
    2.8510    0.2732    2.0103 C   0  0  0  0  0  0  0  0  0  0  0  0
    3.8775    0.9779    1.1068 C   0  0  0  0  0  0  0  0  0  0  0  0
    3.3953    0.9711   -0.2864 C   0  0  2  0  0  0  0  0  0  0  0  0
    3.8385    2.0243   -1.2185 C   0  0  0  0  0  0  0  0  0  0  0  0
    3.2943    1.6764   -2.5226 O   0  0  0  0  0  0  0  0  0  0  0  0
    5.0828    2.5325   -1.3907 N   0  0  0  0  0  0  0  0  0  0  0  0
    6.2484    1.9158   -1.8286 C   0  0  0  0  0  0  0  0  0  0  0  0
    6.8048    0.9205   -0.8651 C   0  0  0  0  0  0  0  0  0  0  0  0
    7.2608    3.0139   -2.1643 C   0  0  0  0  0  0  0  0  0  0  0  0
    8.0734    2.7190   -3.3783 C   0  0  0  0  0  0  0  0  0  0  0  0
    8.0406    3.3788   -0.9466 C   0  0  0  0  0  0  0  0  0  0  0  0
    8.8691    2.2211   -0.4262 C   0  0  0  0  0  0  0  0  0  0  0  0
    8.3642    0.8844   -0.9155 C   0  0  0  0  0  0  0  0  0  0  0  0
    8.7572   -0.1671    0.0573 C   0  0  0  0  0  0  0  0  0  0  0  0
    8.2191   -1.4304   -0.3116 O   0  0  0  0  0  0  0  0  0  0  0  0
   10.0703   -0.2845    0.5058 N   0  0  0  0  0  0  0  0  0  0  0  0
   11.1639   -0.6313   -0.2743 C   0  0  0  0  0  0  0  0  0  0  0  0
   11.6205    0.2324   -1.3820 C   0  0  0  0  0  0  0  0  0  0  0  0
   12.5414   -0.5956   -2.2896 C   0  0  0  0  0  0  0  0  0  0  0  0
   13.6658   -1.2402   -1.5731 C   0  0  2  0  0  0  0  0  0  0  0  0
   14.0561   -2.7337   -2.6351 S   0  0  0  0  0  0  0  0  0  0  0  0
   12.4164   -3.4811   -2.5563 O   0  0  0  0  0  0  0  0  0  0  0  0
   14.2885   -2.2145   -3.9899 O   0  0  0  0  0  0  0  0  0  0  0  0
   14.9256   -3.5913   -1.8364 O   0  0  0  0  0  0  0  0  0  0  0  0
   12.3978   -0.9719    0.5695 C   0  0  0  0  0  0  0  0  0  0  0  0
   13.2627   -1.8779   -0.2666 C   0  0  0  0  0  0  0  0  0  0  0  0
   14.5228   -2.2635    0.4767 C   0  0  0  0  0  0  0  0  0  0  0  0
   13.1780    0.1832    1.0280 C   0  0  1  0  0  0  0  0  0  0  0  0
   12.3136    1.4445    1.8246 S   0  0  0  0  0  0  0  0  0  0  0  0
   11.4794    2.3116    1.4942 O   0  0  0  0  0  0  0  0  0  0  0  0
   14.0301    2.4909    2.0071 O   0  0  0  0  0  0  0  0  0  0  0  0
   12.4043    0.9952    3.5429 O   0  0  0  0  0  0  0  0  0  0  0  0
   14.2192   -0.3237    2.0391 C   0  0  0  0  0  0  0  0  0  0  0  0
   14.5236   -1.7754    1.8879 C   0  0  2  0  0  0  0  0  0  0  0  0
   16.2358   -1.9848    2.4668 S   0  0  0  0  0  0  0  0  0  0  0  0
   16.6550   -3.4870    2.3228 O   0  0  0  0  0  0  0  0  0  0  0  0
   16.2158   -1.5245    4.0188 O   0  0  0  0  0  0  0  0  0  0  0  0
   17.1362   -1.0176    1.5729 O   0  0  0  0  0  0  0  0  0  0  0  0
  -16.5967    2.3896   -0.9452 H   0  0  0  0  0  0  0  0  0  0  0  0
  -16.9364   -0.7194   -1.7769 H   0  0  0  0  0  0  0  0  0  0  0  0
  -17.9312   -0.8109    1.4127 H   0  0  0  0  0  0  0  0  0  0  0  0
  -15.2722    1.4975    1.7669 H   0  0  0  0  0  0  0  0  0  0  0  0
  -14.3520    1.1314   -1.1560 H   0  0  0  0  0  0  0  0  0  0  0  0
  -14.4850    2.5976   -0.1761 H   0  0  0  0  0  0  0  0  0  0  0  0
  -12.6522    1.5089    1.2864 H   0  0  0  0  0  0  0  0  0  0  0  0
  -12.7549    1.8381   -2.4415 H   0  0  0  0  0  0  0  0  0  0  0  0
  -13.1805    4.0809    0.2935 H   0  0  0  0  0  0  0  0  0  0  0  0
  -10.6726    4.3274   -0.0044 H   0  0  0  0  0  0  0  0  0  0  0  0
  -13.8109   -0.3290    2.1667 H   0  0  0  0  0  0  0  0  0  0  0  0
  -15.1686   -1.2282    1.4695 H   0  0  0  0  0  0  0  0  0  0  0  0
  -14.2987   -0.8531   -0.8271 H   0  0  0  0  0  0  0  0  0  0  0  0
  -14.3354   -2.7367    0.7805 H   0  0  0  0  0  0  0  0  0  0  0  0
  -12.9682   -5.0265    0.2252 H   0  0  0  0  0  0  0  0  0  0  0  0
  -11.6337   -3.2854   -2.6493 H   0  0  0  0  0  0  0  0  0  0  0  0
  -15.2996   -3.6318   -1.0123 H   0  0  0  0  0  0  0  0  0  0  0  0
  -12.8472   -2.7054    2.3893 H   0  0  0  0  0  0  0  0  0  0  0  0
  -11.8988   -3.5761    1.1953 H   0  0  0  0  0  0  0  0  0  0  0  0
  -11.5325   -0.8147    2.3511 H   0  0  0  0  0  0  0  0  0  0  0  0
  -10.3406   -2.0338    1.6590 H   0  0  0  0  0  0  0  0  0  0  0  0
  -12.2912   -0.0159   -1.3650 H   0  0  0  0  0  0  0  0  0  0  0  0
  -10.7707   -1.3632   -0.4985 H   0  0  0  0  0  0  0  0  0  0  0  0
  -10.0762    0.8142   -0.5385 H   0  0  0  0  0  0  0  0  0  0  0  0
   -8.3357    1.0732    0.9073 H   0  0  0  0  0  0  0  0  0  0  0  0
   -8.9412    0.3034    2.7587 H   0  0  0  0  0  0  0  0  0  0  0  0
   -6.9050   -0.6580    0.3740 H   0  0  0  0  0  0  0  0  0  0  0  0
   -8.4614   -0.2701   -2.1368 H   0  0  0  0  0  0  0  0  0  0  0  0
   -7.7228    1.1469   -1.3366 H   0  0  0  0  0  0  0  0  0  0  0  0
   -8.5089   -2.7613    0.3025 H   0  0  0  0  0  0  0  0  0  0  0  0
   -8.8279   -2.1415   -1.4278 H   0  0  0  0  0  0  0  0  0  0  0  0
   -6.1109   -2.2816   -0.2493 H   0  0  0  0  0  0  0  0  0  0  0  0
   -6.8664   -3.7122   -1.1020 H   0  0  0  0  0  0  0  0  0  0  0  0
   -7.5161   -2.0348   -2.9282 H   0  0  0  0  0  0  0  0  0  0  0  0
   -4.8313   -1.8318   -3.6197 H   0  0  0  0  0  0  0  0  0  0  0  0
   -4.7399   -3.0392   -2.2193 H   0  0  0  0  0  0  0  0  0  0  0  0
   -5.7536   -3.3378   -3.6557 H   0  0  0  0  0  0  0  0  0  0  0  0
   -6.1253    0.0926   -2.9022 H   0  0  0  0  0  0  0  0  0  0  0  0
   -4.4544   -0.8514   -1.4647 H   0  0  0  0  0  0  0  0  0  0  0  0
   -5.7920    1.4173   -0.0928 H   0  0  0  0  0  0  0  0  0  0  0  0
   -3.8607    0.9484   -2.1715 H   0  0  0  0  0  0  0  0  0  0  0  0
   -3.7058    1.6845    1.0821 H   0  0  0  0  0  0  0  0  0  0  0  0
   -2.9616   -1.0811    0.0173 H   0  0  0  0  0  0  0  0  0  0  0  0
   -2.3811    0.3851   -0.8283 H   0  0  0  0  0  0  0  0  0  0  0  0
   -5.3943    0.3670    2.1738 H   0  0  0  0  0  0  0  0  0  0  0  0
   -4.7682   -1.1347    1.3749 H   0  0  0  0  0  0  0  0  0  0  0  0
   -3.3805    0.7267    3.3940 H   0  0  0  0  0  0  0  0  0  0  0  0
   -3.8722   -1.0251    3.5858 H   0  0  0  0  0  0  0  0  0  0  0  0
   -1.4325   -0.6146    3.2298 H   0  0  0  0  0  0  0  0  0  0  0  0
   -2.2071   -1.8041    2.1512 H   0  0  0  0  0  0  0  0  0  0  0  0
   -0.7180   -0.3903    0.8384 H   0  0  0  0  0  0  0  0  0  0  0  0
   -1.3369    1.6283    2.5958 H   0  0  0  0  0  0  0  0  0  0  0  0
   -1.3354    2.0742   -0.3573 H   0  0  0  0  0  0  0  0  0  0  0  0
   -1.3949    3.8992    1.8105 H   0  0  0  0  0  0  0  0  0  0  0  0
    0.5109    3.7865    0.6595 H   0  0  0  0  0  0  0  0  0  0  0  0
    2.3712    2.7292    0.7829 H   0  0  0  0  0  0  0  0  0  0  0  0
    1.4985   -0.0007   -0.0291 H   0  0  0  0  0  0  0  0  0  0  0  0
    1.5522    1.3510   -1.2786 H   0  0  0  0  0  0  0  0  0  0  0  0
    0.8094    0.6600    2.4428 H   0  0  0  0  0  0  0  0  0  0  0  0
    1.9291    1.9545    2.9594 H   0  0  0  0  0  0  0  0  0  0  0  0
    3.3575    0.1274    2.9893 H   0  0  0  0  0  0  0  0  0  0  0  0
    2.5866   -0.6689    1.5233 H   0  0  0  0  0  0  0  0  0  0  0  0
    4.0815    1.9406    1.5702 H   0  0  0  0  0  0  0  0  0  0  0  0
    4.7969    0.3375    1.1676 H   0  0  0  0  0  0  0  0  0  0  0  0
    3.6442   -0.0333   -0.7390 H   0  0  0  0  0  0  0  0  0  0  0  0
    3.1388    2.9635   -1.0246 H   0  0  0  0  0  0  0  0  0  0  0  0
    3.3626    0.6760   -2.5527 H   0  0  0  0  0  0  0  0  0  0  0  0
    5.2236    3.5561   -1.1351 H   0  0  0  0  0  0  0  0  0  0  0  0
    6.1107    1.3553   -2.8116 H   0  0  0  0  0  0  0  0  0  0  0  0
    6.5449    1.2679    0.1628 H   0  0  0  0  0  0  0  0  0  0  0  0
    6.4144   -0.0808   -1.0166 H   0  0  0  0  0  0  0  0  0  0  0  0
    6.6361    3.9255   -2.4185 H   0  0  0  0  0  0  0  0  0  0  0  0
    7.7655    1.7886   -3.9176 H   0  0  0  0  0  0  0  0  0  0  0  0
    9.1581    2.7208   -3.1468 H   0  0  0  0  0  0  0  0  0  0  0  0
    7.9642    3.5202   -4.1722 H   0  0  0  0  0  0  0  0  0  0  0  0
    7.3579    3.6981   -0.1499 H   0  0  0  0  0  0  0  0  0  0  0  0
    8.6888    4.2520   -1.1769 H   0  0  0  0  0  0  0  0  0  0  0  0
    8.9078    2.2396    0.6985 H   0  0  0  0  0  0  0  0  0  0  0  0
    9.8880    2.3809   -0.7860 H   0  0  0  0  0  0  0  0  0  0  0  0
    8.5934    0.7470   -1.9504 H   0  0  0  0  0  0  0  0  0  0  0  0
    8.1278    0.0718    1.0031 H   0  0  0  0  0  0  0  0  0  0  0  0
    8.8906   -2.1288   -0.1208 H   0  0  0  0  0  0  0  0  0  0  0  0
   10.0950   -0.7770    1.4248 H   0  0  0  0  0  0  0  0  0  0  0  0
   10.9235   -1.6448   -0.7595 H   0  0  0  0  0  0  0  0  0  0  0  0
   12.2529    1.0905   -1.0550 H   0  0  0  0  0  0  0  0  0  0  0  0
   10.8671    0.6561   -2.0469 H   0  0  0  0  0  0  0  0  0  0  0  0
   12.9543    0.1224   -3.0327 H   0  0  0  0  0  0  0  0  0  0  0  0
   11.8941   -1.2810   -2.8421 H   0  0  0  0  0  0  0  0  0  0  0  0
   14.6021   -0.6808   -1.5356 H   0  0  0  0  0  0  0  0  0  0  0  0
   12.0414   -3.2785   -3.4536 H   0  0  0  0  0  0  0  0  0  0  0  0
   13.8404   -1.4284   -4.3551 H   0  0  0  0  0  0  0  0  0  0  0  0
   14.9559   -4.5761   -1.7356 H   0  0  0  0  0  0  0  0  0  0  0  0
   11.9999   -1.5991    1.4035 H   0  0  0  0  0  0  0  0  0  0  0  0
   12.6462   -2.7690   -0.5220 H   0  0  0  0  0  0  0  0  0  0  0  0
   15.4248   -1.8892   -0.0547 H   0  0  0  0  0  0  0  0  0  0  0  0
   14.5717   -3.3674    0.4868 H   0  0  0  0  0  0  0  0  0  0  0  0
   13.8201    0.5730    0.1812 H   0  0  0  0  0  0  0  0  0  0  0  0
   11.1113    3.1750    1.1226 H   0  0  0  0  0  0  0  0  0  0  0  0
   13.9679    2.7420    1.0532 H   0  0  0  0  0  0  0  0  0  0  0  0
   12.3570    1.8541    4.0313 H   0  0  0  0  0  0  0  0  0  0  0  0
   13.8788   -0.1272    3.0823 H   0  0  0  0  0  0  0  0  0  0  0  0
   15.1683    0.2549    1.9410 H   0  0  0  0  0  0  0  0  0  0  0  0
   13.9084   -2.4337    2.5414 H   0  0  0  0  0  0  0  0  0  0  0  0
   15.9689   -4.1616    2.1653 H   0  0  0  0  0  0  0  0  0  0  0  0
   16.3019   -2.2826    4.6279 H   0  0  0  0  0  0  0  0  0  0  0  0
   17.4930   -1.4493    0.7600 H   0  0  0  0  0  0  0  0  0  0  0  0
  2  1  1  0
  2  3  1  0
  2  4  1  0
  2  5  1  0
  5  6  1  0
  6  7  1  0
  7  8  1  0
  8  9  1  0
  8 10  1  0
  8 11  1  0
  5 12  1  0
 12 13  1  0
 13 14  1  0
 14 15  1  0
 15 16  1  0
 15 17  1  0
 15 18  1  0
 14 19  1  0
 19 20  1  0
  7 21  1  0
 13 21  1  0
 20 22  1  0
 21 22  1  0
 22 23  1  0
 23 24  1  0
 24 25  1  0
 24 26  1  0
 26 27  1  0
 26 28  1  0
 28 29  1  0
 29 30  1  0
 30 31  1  0
 27 32  1  0
 30 32  1  0
 32 33  1  0
 33 34  1  0
 34 35  1  0
 34 36  1  0
 36 37  1  0
 36 38  1  0
 38 39  1  0
 39 40  1  0
 37 41  1  0
 40 41  1  0
 41 42  1  0
 42 43  1  0
 43 44  1  0
 43 45  1  0
 45 46  1  0
 46 47  1  0
 46 48  1  0
 48 49  1  0
 49 50  1  0
 47 51  1  0
 50 51  1  0
 51 52  1  0
 52 53  1  0
 52 54  1  0
 54 55  1  0
 55 56  1  0
 55 57  1  0
 57 58  1  0
 57 59  1  0
 59 60  1  0
 56 61  1  0
 60 61  1  0
 61 62  1  0
 62 63  1  0
 62 64  1  0
 64 65  1  0
 65 66  1  0
 66 67  1  0
 67 68  1  0
 68 69  1  0
 69 70  1  0
 69 71  1  0
 69 72  1  0
 65 73  1  0
 68 74  1  0
 73 74  1  0
 74 75  1  0
 73 76  1  0
 76 77  1  0
 77 78  1  0
 77 79  1  0
 77 80  1  0
 76 81  1  0
 75 82  1  0
 81 82  1  0
 82 83  1  0
 83 84  1  0
 83 85  1  0
 83 86  1  0
  1 87  1  0
  3 88  1  0
  4 89  1  0
  5 90  1  0
  6 91  1  0
  6 92  1  0
  7 93  1  1
  9 94  1  0
 10 95  1  0
 11 96  1  0
 12 97  1  0
 12 98  1  0
 13 99  1  0
 14100  1  1
 16101  1  0
 17102  1  0
 18103  1  0
 19104  1  0
 19105  1  0
 20106  1  0
 20107  1  0
 21108  1  0
 22109  1  6
 23110  1  0
 24111  1  0
 25112  1  0
 26113  1  1
 27114  1  0
 27115  1  0
 28116  1  0
 28117  1  0
 29118  1  0
 29119  1  0
 30120  1  0
 31121  1  0
 31122  1  0
 31123  1  0
 32124  1  0
 33125  1  0
 34126  1  0
 35127  1  0
 36128  1  0
 37129  1  0
 37130  1  0
 38131  1  0
 38132  1  0
 39133  1  0
 39134  1  0
 40135  1  0
 40136  1  0
 41137  1  0
 42138  1  0
 43139  1  0
 44140  1  0
 45141  1  0
 46142  1  0
 47143  1  0
 47144  1  0
 48145  1  0
 48146  1  0
 49147  1  0
 49148  1  0
 50149  1  0
 50150  1  0
 51151  1  6
 52152  1  0
 53153  1  0
 54154  1  0
 55155  1  0
 56156  1  0
 56157  1  0
 57158  1  0
 58159  1  0
 58160  1  0
 58161  1  0
 59162  1  0
 59163  1  0
 60164  1  0
 60165  1  0
 61166  1  0
 62167  1  0
 63168  1  0
 64169  1  0
 65170  1  0
 66171  1  0
 66172  1  0
 67173  1  0
 67174  1  0
 68175  1  1
 70176  1  0
 71177  1  0
 72178  1  0
 73179  1  0
 74180  1  0
 75181  1  0
 75182  1  0
 76183  1  6
 78184  1  0
 79185  1  0
 80186  1  0
 81187  1  0
 81188  1  0
 82189  1  1
 84190  1  0
 85191  1  0
 86192  1  0
M  END
>  <PDBID>  (1) 
2NYR

>  <PDB ID>  (1) 
2NYR

>  <Generic Name>  (1) 
Suramin

>  <Brand Name>  (1) 
309 Fourneau#Antrypol#Bayer 205#Belganyl#Germanin#Moranyl#Naganin#Naganine#Naganol#Naphuride

>  <DrugBank ID>  (1) 
DB04786

>  <ATC Codes>  (1) 
P01CX02

>  <Ligand ID>  (1) 
SVR

>  <Target Name>  (1) 
NAD-dependent protein deacylase sirtuin-5, mitochondrial

>  <UniProt ID>  (1) 
Q9NXA8

>  <PDB ID.1>  (1) 
2NYR

>  <Seq. Identity>  (1) 
100%

$$$$
