PDB_DB01095_02
     RDKit          3D

296304  0  0  0  0  0  0  0  0999 V2000
   -2.5095   -0.9869   -1.0959 C   0  0  0  0  0  0  0  0  0  0  0  0
   -2.5712   -1.7616    0.2628 C   0  0  0  0  0  0  0  0  0  0  0  0
   -3.4561   -2.9140    0.1603 C   0  0  0  0  0  0  0  0  0  0  0  0
   -4.8886   -2.4085   -0.1033 C   0  0  0  0  0  0  0  0  0  0  0  0
   -4.8862   -0.9319   -0.4529 C   0  0  0  0  0  0  0  0  0  0  0  0
   -3.8431   -0.7702   -1.5777 C   0  0  0  0  0  0  0  0  0  0  0  0
   -1.5693    0.0516   -0.6790 C   0  0  0  0  0  0  0  0  0  0  0  0
   -0.7250   -0.6188    0.4639 C   0  0  0  0  0  0  0  0  0  0  0  0
   -1.1203   -2.0264    0.2570 N   0  0  0  0  0  0  0  0  0  0  0  0
   -1.9050    3.5996    0.7087 C   0  0  0  0  0  0  0  0  0  0  0  0
   -1.0992    2.3361    0.3124 C   0  0  0  0  0  0  0  0  0  0  0  0
   -2.1109    1.3759   -0.2750 C   0  0  0  0  0  0  0  0  0  0  0  0
   -2.6277    2.0741   -1.5306 C   0  0  0  0  0  0  0  0  0  0  0  0
   -2.0549    3.4656   -1.7131 C   0  0  0  0  0  0  0  0  0  0  0  0
   -2.4091    4.2871   -0.5208 C   0  0  0  0  0  0  0  0  0  0  0  0
   -1.9063    5.5604   -0.6690 F   0  0  0  0  0  0  0  0  0  0  0  0
    7.4581    1.1123   -0.2185 O   0  0  0  0  0  0  0  0  0  0  0  0
    7.0760    0.9782   -2.4249 O   0  0  0  0  0  0  0  0  0  0  0  0
    5.6353    0.9927    1.3559 O   0  0  0  0  0  0  0  0  0  0  0  0
    6.5804    1.4905   -1.2144 C   0  0  0  0  0  0  0  0  0  0  0  0
    5.2141    0.8742   -0.9520 C   0  0  0  0  0  0  0  0  0  0  0  0
    4.7480    1.3750    0.3709 C   0  0  1  0  0  0  0  0  0  0  0  0
    3.3203    0.9962    0.6976 C   0  0  0  0  0  0  0  0  0  0  0  0
    3.1473   -0.4730    0.8717 C   0  0  1  0  0  0  0  0  0  0  0  0
    1.6972   -0.7614    1.2221 C   0  0  0  0  0  0  0  0  0  0  0  0
    0.7148   -0.3339    0.2086 C   0  0  0  0  0  0  0  0  0  0  0  0
   -0.7900   -2.9853    1.2073 C   0  0  0  0  0  0  0  0  0  0  0  0
   -0.9282   -2.6415    2.6575 C   0  0  0  0  0  0  0  0  0  0  0  0
    0.3573   -3.9029    0.9462 C   0  0  0  0  0  0  0  0  0  0  0  0
    3.4210   -1.2053   -0.2638 O   0  0  0  0  0  0  0  0  0  0  0  0
   -2.5095   -0.9869   -1.0959 C   0  0  0  0  0  0  0  0  0  0  0  0
   -2.5712   -1.7616    0.2628 C   0  0  0  0  0  0  0  0  0  0  0  0
   -3.4561   -2.9140    0.1603 C   0  0  0  0  0  0  0  0  0  0  0  0
   -4.8886   -2.4085   -0.1033 C   0  0  0  0  0  0  0  0  0  0  0  0
   -4.8862   -0.9319   -0.4529 C   0  0  0  0  0  0  0  0  0  0  0  0
   -3.8431   -0.7702   -1.5777 C   0  0  0  0  0  0  0  0  0  0  0  0
   -1.5693    0.0516   -0.6790 C   0  0  0  0  0  0  0  0  0  0  0  0
   -0.7250   -0.6188    0.4639 C   0  0  0  0  0  0  0  0  0  0  0  0
   -1.1203   -2.0264    0.2570 N   0  0  0  0  0  0  0  0  0  0  0  0
   -1.9050    3.5996    0.7087 C   0  0  0  0  0  0  0  0  0  0  0  0
   -1.0992    2.3361    0.3124 C   0  0  0  0  0  0  0  0  0  0  0  0
   -2.1109    1.3759   -0.2750 C   0  0  0  0  0  0  0  0  0  0  0  0
   -2.6277    2.0741   -1.5306 C   0  0  0  0  0  0  0  0  0  0  0  0
   -2.0549    3.4656   -1.7131 C   0  0  0  0  0  0  0  0  0  0  0  0
   -2.4091    4.2871   -0.5208 C   0  0  0  0  0  0  0  0  0  0  0  0
   -1.9063    5.5604   -0.6690 F   0  0  0  0  0  0  0  0  0  0  0  0
    7.4581    1.1123   -0.2185 O   0  0  0  0  0  0  0  0  0  0  0  0
    7.0760    0.9782   -2.4249 O   0  0  0  0  0  0  0  0  0  0  0  0
    5.6353    0.9927    1.3559 O   0  0  0  0  0  0  0  0  0  0  0  0
    6.5804    1.4905   -1.2144 C   0  0  0  0  0  0  0  0  0  0  0  0
    5.2141    0.8742   -0.9520 C   0  0  0  0  0  0  0  0  0  0  0  0
    4.7480    1.3750    0.3709 C   0  0  1  0  0  0  0  0  0  0  0  0
    3.3203    0.9962    0.6976 C   0  0  0  0  0  0  0  0  0  0  0  0
    3.1473   -0.4730    0.8717 C   0  0  1  0  0  0  0  0  0  0  0  0
    1.6972   -0.7614    1.2221 C   0  0  0  0  0  0  0  0  0  0  0  0
    0.7148   -0.3339    0.2086 C   0  0  0  0  0  0  0  0  0  0  0  0
   -0.7900   -2.9853    1.2073 C   0  0  0  0  0  0  0  0  0  0  0  0
   -0.9282   -2.6415    2.6575 C   0  0  0  0  0  0  0  0  0  0  0  0
    0.3573   -3.9029    0.9462 C   0  0  0  0  0  0  0  0  0  0  0  0
    3.4210   -1.2053   -0.2638 O   0  0  0  0  0  0  0  0  0  0  0  0
   -2.5095   -0.9869   -1.0959 C   0  0  0  0  0  0  0  0  0  0  0  0
   -2.5712   -1.7616    0.2628 C   0  0  0  0  0  0  0  0  0  0  0  0
   -3.4561   -2.9140    0.1603 C   0  0  0  0  0  0  0  0  0  0  0  0
   -4.8886   -2.4085   -0.1033 C   0  0  0  0  0  0  0  0  0  0  0  0
   -4.8862   -0.9319   -0.4529 C   0  0  0  0  0  0  0  0  0  0  0  0
   -3.8431   -0.7702   -1.5777 C   0  0  0  0  0  0  0  0  0  0  0  0
   -1.5693    0.0516   -0.6790 C   0  0  0  0  0  0  0  0  0  0  0  0
   -0.7250   -0.6188    0.4639 C   0  0  0  0  0  0  0  0  0  0  0  0
   -1.1203   -2.0264    0.2570 N   0  0  0  0  0  0  0  0  0  0  0  0
   -1.9050    3.5996    0.7087 C   0  0  0  0  0  0  0  0  0  0  0  0
   -1.0992    2.3361    0.3124 C   0  0  0  0  0  0  0  0  0  0  0  0
   -2.1109    1.3759   -0.2750 C   0  0  0  0  0  0  0  0  0  0  0  0
   -2.6277    2.0741   -1.5306 C   0  0  0  0  0  0  0  0  0  0  0  0
   -2.0549    3.4656   -1.7131 C   0  0  0  0  0  0  0  0  0  0  0  0
   -2.4091    4.2871   -0.5208 C   0  0  0  0  0  0  0  0  0  0  0  0
   -1.9063    5.5604   -0.6690 F   0  0  0  0  0  0  0  0  0  0  0  0
    7.4581    1.1123   -0.2185 O   0  0  0  0  0  0  0  0  0  0  0  0
    7.0760    0.9782   -2.4249 O   0  0  0  0  0  0  0  0  0  0  0  0
    5.6353    0.9927    1.3559 O   0  0  0  0  0  0  0  0  0  0  0  0
    6.5804    1.4905   -1.2144 C   0  0  0  0  0  0  0  0  0  0  0  0
    5.2141    0.8742   -0.9520 C   0  0  0  0  0  0  0  0  0  0  0  0
    4.7480    1.3750    0.3709 C   0  0  1  0  0  0  0  0  0  0  0  0
    3.3203    0.9962    0.6976 C   0  0  0  0  0  0  0  0  0  0  0  0
    3.1473   -0.4730    0.8717 C   0  0  1  0  0  0  0  0  0  0  0  0
    1.6972   -0.7614    1.2221 C   0  0  0  0  0  0  0  0  0  0  0  0
    0.7148   -0.3339    0.2086 C   0  0  0  0  0  0  0  0  0  0  0  0
   -0.7900   -2.9853    1.2073 C   0  0  0  0  0  0  0  0  0  0  0  0
   -0.9282   -2.6415    2.6575 C   0  0  0  0  0  0  0  0  0  0  0  0
    0.3573   -3.9029    0.9462 C   0  0  0  0  0  0  0  0  0  0  0  0
    3.4210   -1.2053   -0.2638 O   0  0  0  0  0  0  0  0  0  0  0  0
   -2.5095   -0.9869   -1.0959 C   0  0  0  0  0  0  0  0  0  0  0  0
   -2.5712   -1.7616    0.2628 C   0  0  0  0  0  0  0  0  0  0  0  0
   -3.4561   -2.9140    0.1603 C   0  0  0  0  0  0  0  0  0  0  0  0
   -4.8886   -2.4085   -0.1033 C   0  0  0  0  0  0  0  0  0  0  0  0
   -4.8862   -0.9319   -0.4529 C   0  0  0  0  0  0  0  0  0  0  0  0
   -3.8431   -0.7702   -1.5777 C   0  0  0  0  0  0  0  0  0  0  0  0
   -1.5693    0.0516   -0.6790 C   0  0  0  0  0  0  0  0  0  0  0  0
   -0.7250   -0.6188    0.4639 C   0  0  0  0  0  0  0  0  0  0  0  0
   -1.1203   -2.0264    0.2570 N   0  0  0  0  0  0  0  0  0  0  0  0
   -1.9050    3.5996    0.7087 C   0  0  0  0  0  0  0  0  0  0  0  0
   -1.0992    2.3361    0.3124 C   0  0  0  0  0  0  0  0  0  0  0  0
   -2.1109    1.3759   -0.2750 C   0  0  0  0  0  0  0  0  0  0  0  0
   -2.6277    2.0741   -1.5306 C   0  0  0  0  0  0  0  0  0  0  0  0
   -2.0549    3.4656   -1.7131 C   0  0  0  0  0  0  0  0  0  0  0  0
   -2.4091    4.2871   -0.5208 C   0  0  0  0  0  0  0  0  0  0  0  0
   -1.9063    5.5604   -0.6690 F   0  0  0  0  0  0  0  0  0  0  0  0
    7.4581    1.1123   -0.2185 O   0  0  0  0  0  0  0  0  0  0  0  0
    7.0760    0.9782   -2.4249 O   0  0  0  0  0  0  0  0  0  0  0  0
    5.6353    0.9927    1.3559 O   0  0  0  0  0  0  0  0  0  0  0  0
    6.5804    1.4905   -1.2144 C   0  0  0  0  0  0  0  0  0  0  0  0
    5.2141    0.8742   -0.9520 C   0  0  0  0  0  0  0  0  0  0  0  0
    4.7480    1.3750    0.3709 C   0  0  1  0  0  0  0  0  0  0  0  0
    3.3203    0.9962    0.6976 C   0  0  0  0  0  0  0  0  0  0  0  0
    3.1473   -0.4730    0.8717 C   0  0  1  0  0  0  0  0  0  0  0  0
    1.6972   -0.7614    1.2221 C   0  0  0  0  0  0  0  0  0  0  0  0
    0.7148   -0.3339    0.2086 C   0  0  0  0  0  0  0  0  0  0  0  0
   -0.7900   -2.9853    1.2073 C   0  0  0  0  0  0  0  0  0  0  0  0
   -0.9282   -2.6415    2.6575 C   0  0  0  0  0  0  0  0  0  0  0  0
    0.3573   -3.9029    0.9462 C   0  0  0  0  0  0  0  0  0  0  0  0
    3.4210   -1.2053   -0.2638 O   0  0  0  0  0  0  0  0  0  0  0  0
   -1.9449   -1.7257   -1.7646 H   0  0  0  0  0  0  0  0  0  0  0  0
   -2.7789   -1.0309    1.0352 H   0  0  0  0  0  0  0  0  0  0  0  0
   -3.5644   -3.4477    1.1361 H   0  0  0  0  0  0  0  0  0  0  0  0
   -3.1431   -3.5895   -0.6340 H   0  0  0  0  0  0  0  0  0  0  0  0
   -5.3150   -2.9504   -0.9554 H   0  0  0  0  0  0  0  0  0  0  0  0
   -5.5490   -2.5283    0.7512 H   0  0  0  0  0  0  0  0  0  0  0  0
   -5.8582   -0.7005   -0.9003 H   0  0  0  0  0  0  0  0  0  0  0  0
   -4.7076   -0.2737    0.3912 H   0  0  0  0  0  0  0  0  0  0  0  0
   -4.1180   -1.6596   -2.2591 H   0  0  0  0  0  0  0  0  0  0  0  0
   -4.1529    0.0815   -2.1479 H   0  0  0  0  0  0  0  0  0  0  0  0
   -0.8263    0.2297   -1.4849 H   0  0  0  0  0  0  0  0  0  0  0  0
   -1.0780   -0.3368    1.4402 H   0  0  0  0  0  0  0  0  0  0  0  0
   -1.1419    4.2710    1.1799 H   0  0  0  0  0  0  0  0  0  0  0  0
   -2.6559    3.3750    1.4639 H   0  0  0  0  0  0  0  0  0  0  0  0
   -0.7116    1.9926    1.3135 H   0  0  0  0  0  0  0  0  0  0  0  0
   -0.3506    2.7093   -0.3712 H   0  0  0  0  0  0  0  0  0  0  0  0
   -2.9142    1.2954    0.4996 H   0  0  0  0  0  0  0  0  0  0  0  0
   -3.7231    2.2424   -1.4879 H   0  0  0  0  0  0  0  0  0  0  0  0
   -2.3726    1.5319   -2.4594 H   0  0  0  0  0  0  0  0  0  0  0  0
   -2.6707    3.8960   -2.5660 H   0  0  0  0  0  0  0  0  0  0  0  0
   -1.0333    3.5087   -2.0675 H   0  0  0  0  0  0  0  0  0  0  0  0
   -3.5276    4.3763   -0.4998 H   0  0  0  0  0  0  0  0  0  0  0  0
    7.4281    0.1624    0.0115 H   0  0  0  0  0  0  0  0  0  0  0  0
    7.0157    0.0036   -2.4566 H   0  0  0  0  0  0  0  0  0  0  0  0
    5.5851    1.5513    2.1677 H   0  0  0  0  0  0  0  0  0  0  0  0
    6.5312    2.5787   -1.2906 H   0  0  0  0  0  0  0  0  0  0  0  0
    4.4893    1.1063   -1.7455 H   0  0  0  0  0  0  0  0  0  0  0  0
    5.3834   -0.2388   -0.9513 H   0  0  0  0  0  0  0  0  0  0  0  0
    4.7801    2.5079    0.3487 H   0  0  0  0  0  0  0  0  0  0  0  0
    2.6800    1.3145   -0.1592 H   0  0  0  0  0  0  0  0  0  0  0  0
    3.0430    1.5810    1.5981 H   0  0  0  0  0  0  0  0  0  0  0  0
    3.7438   -0.8759    1.7322 H   0  0  0  0  0  0  0  0  0  0  0  0
    1.5443   -0.1189    2.1795 H   0  0  0  0  0  0  0  0  0  0  0  0
    1.6427   -1.7695    1.6152 H   0  0  0  0  0  0  0  0  0  0  0  0
    0.8147    0.7609    0.0484 H   0  0  0  0  0  0  0  0  0  0  0  0
    1.0461   -0.7600   -0.7871 H   0  0  0  0  0  0  0  0  0  0  0  0
   -1.6981   -3.7546    1.1022 H   0  0  0  0  0  0  0  0  0  0  0  0
   -0.2956   -1.8382    3.0242 H   0  0  0  0  0  0  0  0  0  0  0  0
   -1.9857   -2.4397    2.9362 H   0  0  0  0  0  0  0  0  0  0  0  0
   -0.6510   -3.5679    3.2341 H   0  0  0  0  0  0  0  0  0  0  0  0
    1.0249   -3.5198    0.1156 H   0  0  0  0  0  0  0  0  0  0  0  0
    0.0265   -4.8893    0.5787 H   0  0  0  0  0  0  0  0  0  0  0  0
    0.9622   -4.1149    1.8632 H   0  0  0  0  0  0  0  0  0  0  0  0
    3.0578   -0.7937   -1.0647 H   0  0  0  0  0  0  0  0  0  0  0  0
   -1.9449   -1.7257   -1.7646 H   0  0  0  0  0  0  0  0  0  0  0  0
   -2.7789   -1.0309    1.0352 H   0  0  0  0  0  0  0  0  0  0  0  0
   -3.5644   -3.4477    1.1361 H   0  0  0  0  0  0  0  0  0  0  0  0
   -3.1431   -3.5895   -0.6340 H   0  0  0  0  0  0  0  0  0  0  0  0
   -5.3150   -2.9504   -0.9554 H   0  0  0  0  0  0  0  0  0  0  0  0
   -5.5490   -2.5283    0.7512 H   0  0  0  0  0  0  0  0  0  0  0  0
   -5.8582   -0.7005   -0.9003 H   0  0  0  0  0  0  0  0  0  0  0  0
   -4.7076   -0.2737    0.3912 H   0  0  0  0  0  0  0  0  0  0  0  0
   -4.1180   -1.6596   -2.2591 H   0  0  0  0  0  0  0  0  0  0  0  0
   -4.1529    0.0815   -2.1479 H   0  0  0  0  0  0  0  0  0  0  0  0
   -0.8263    0.2297   -1.4849 H   0  0  0  0  0  0  0  0  0  0  0  0
   -1.0780   -0.3368    1.4402 H   0  0  0  0  0  0  0  0  0  0  0  0
   -1.1419    4.2710    1.1799 H   0  0  0  0  0  0  0  0  0  0  0  0
   -2.6559    3.3750    1.4639 H   0  0  0  0  0  0  0  0  0  0  0  0
   -0.7116    1.9926    1.3135 H   0  0  0  0  0  0  0  0  0  0  0  0
   -0.3506    2.7093   -0.3712 H   0  0  0  0  0  0  0  0  0  0  0  0
   -2.9142    1.2954    0.4996 H   0  0  0  0  0  0  0  0  0  0  0  0
   -3.7231    2.2424   -1.4879 H   0  0  0  0  0  0  0  0  0  0  0  0
   -2.3726    1.5319   -2.4594 H   0  0  0  0  0  0  0  0  0  0  0  0
   -2.6707    3.8960   -2.5660 H   0  0  0  0  0  0  0  0  0  0  0  0
   -1.0333    3.5087   -2.0675 H   0  0  0  0  0  0  0  0  0  0  0  0
   -3.5276    4.3763   -0.4998 H   0  0  0  0  0  0  0  0  0  0  0  0
    7.4281    0.1624    0.0115 H   0  0  0  0  0  0  0  0  0  0  0  0
    7.0157    0.0036   -2.4566 H   0  0  0  0  0  0  0  0  0  0  0  0
    5.5851    1.5513    2.1677 H   0  0  0  0  0  0  0  0  0  0  0  0
    6.5312    2.5787   -1.2906 H   0  0  0  0  0  0  0  0  0  0  0  0
    4.4893    1.1063   -1.7455 H   0  0  0  0  0  0  0  0  0  0  0  0
    5.3834   -0.2388   -0.9513 H   0  0  0  0  0  0  0  0  0  0  0  0
    4.7801    2.5079    0.3487 H   0  0  0  0  0  0  0  0  0  0  0  0
    2.6800    1.3145   -0.1592 H   0  0  0  0  0  0  0  0  0  0  0  0
    3.0430    1.5810    1.5981 H   0  0  0  0  0  0  0  0  0  0  0  0
    3.7438   -0.8759    1.7322 H   0  0  0  0  0  0  0  0  0  0  0  0
    1.5443   -0.1189    2.1795 H   0  0  0  0  0  0  0  0  0  0  0  0
    1.6427   -1.7695    1.6152 H   0  0  0  0  0  0  0  0  0  0  0  0
    0.8147    0.7609    0.0484 H   0  0  0  0  0  0  0  0  0  0  0  0
    1.0461   -0.7600   -0.7871 H   0  0  0  0  0  0  0  0  0  0  0  0
   -1.6981   -3.7546    1.1022 H   0  0  0  0  0  0  0  0  0  0  0  0
   -0.2956   -1.8382    3.0242 H   0  0  0  0  0  0  0  0  0  0  0  0
   -1.9857   -2.4397    2.9362 H   0  0  0  0  0  0  0  0  0  0  0  0
   -0.6510   -3.5679    3.2341 H   0  0  0  0  0  0  0  0  0  0  0  0
    1.0249   -3.5198    0.1156 H   0  0  0  0  0  0  0  0  0  0  0  0
    0.0265   -4.8893    0.5787 H   0  0  0  0  0  0  0  0  0  0  0  0
    0.9622   -4.1149    1.8632 H   0  0  0  0  0  0  0  0  0  0  0  0
    3.0578   -0.7937   -1.0647 H   0  0  0  0  0  0  0  0  0  0  0  0
   -1.9449   -1.7257   -1.7646 H   0  0  0  0  0  0  0  0  0  0  0  0
   -2.7789   -1.0309    1.0352 H   0  0  0  0  0  0  0  0  0  0  0  0
   -3.5644   -3.4477    1.1361 H   0  0  0  0  0  0  0  0  0  0  0  0
   -3.1431   -3.5895   -0.6340 H   0  0  0  0  0  0  0  0  0  0  0  0
   -5.3150   -2.9504   -0.9554 H   0  0  0  0  0  0  0  0  0  0  0  0
   -5.5490   -2.5283    0.7512 H   0  0  0  0  0  0  0  0  0  0  0  0
   -5.8582   -0.7005   -0.9003 H   0  0  0  0  0  0  0  0  0  0  0  0
   -4.7076   -0.2737    0.3912 H   0  0  0  0  0  0  0  0  0  0  0  0
   -4.1180   -1.6596   -2.2591 H   0  0  0  0  0  0  0  0  0  0  0  0
   -4.1529    0.0815   -2.1479 H   0  0  0  0  0  0  0  0  0  0  0  0
   -0.8263    0.2297   -1.4849 H   0  0  0  0  0  0  0  0  0  0  0  0
   -1.0780   -0.3368    1.4402 H   0  0  0  0  0  0  0  0  0  0  0  0
   -1.1419    4.2710    1.1799 H   0  0  0  0  0  0  0  0  0  0  0  0
   -2.6559    3.3750    1.4639 H   0  0  0  0  0  0  0  0  0  0  0  0
   -0.7116    1.9926    1.3135 H   0  0  0  0  0  0  0  0  0  0  0  0
   -0.3506    2.7093   -0.3712 H   0  0  0  0  0  0  0  0  0  0  0  0
   -2.9142    1.2954    0.4996 H   0  0  0  0  0  0  0  0  0  0  0  0
   -3.7231    2.2424   -1.4879 H   0  0  0  0  0  0  0  0  0  0  0  0
   -2.3726    1.5319   -2.4594 H   0  0  0  0  0  0  0  0  0  0  0  0
   -2.6707    3.8960   -2.5660 H   0  0  0  0  0  0  0  0  0  0  0  0
   -1.0333    3.5087   -2.0675 H   0  0  0  0  0  0  0  0  0  0  0  0
   -3.5276    4.3763   -0.4998 H   0  0  0  0  0  0  0  0  0  0  0  0
    7.4281    0.1624    0.0115 H   0  0  0  0  0  0  0  0  0  0  0  0
    7.0157    0.0036   -2.4566 H   0  0  0  0  0  0  0  0  0  0  0  0
    5.5851    1.5513    2.1677 H   0  0  0  0  0  0  0  0  0  0  0  0
    6.5312    2.5787   -1.2906 H   0  0  0  0  0  0  0  0  0  0  0  0
    4.4893    1.1063   -1.7455 H   0  0  0  0  0  0  0  0  0  0  0  0
    5.3834   -0.2388   -0.9513 H   0  0  0  0  0  0  0  0  0  0  0  0
    4.7801    2.5079    0.3487 H   0  0  0  0  0  0  0  0  0  0  0  0
    2.6800    1.3145   -0.1592 H   0  0  0  0  0  0  0  0  0  0  0  0
    3.0430    1.5810    1.5981 H   0  0  0  0  0  0  0  0  0  0  0  0
    3.7438   -0.8759    1.7322 H   0  0  0  0  0  0  0  0  0  0  0  0
    1.5443   -0.1189    2.1795 H   0  0  0  0  0  0  0  0  0  0  0  0
    1.6427   -1.7695    1.6152 H   0  0  0  0  0  0  0  0  0  0  0  0
    0.8147    0.7609    0.0484 H   0  0  0  0  0  0  0  0  0  0  0  0
    1.0461   -0.7600   -0.7871 H   0  0  0  0  0  0  0  0  0  0  0  0
   -1.6981   -3.7546    1.1022 H   0  0  0  0  0  0  0  0  0  0  0  0
   -0.2956   -1.8382    3.0242 H   0  0  0  0  0  0  0  0  0  0  0  0
   -1.9857   -2.4397    2.9362 H   0  0  0  0  0  0  0  0  0  0  0  0
   -0.6510   -3.5679    3.2341 H   0  0  0  0  0  0  0  0  0  0  0  0
    1.0249   -3.5198    0.1156 H   0  0  0  0  0  0  0  0  0  0  0  0
    0.0265   -4.8893    0.5787 H   0  0  0  0  0  0  0  0  0  0  0  0
    0.9622   -4.1149    1.8632 H   0  0  0  0  0  0  0  0  0  0  0  0
    3.0578   -0.7937   -1.0647 H   0  0  0  0  0  0  0  0  0  0  0  0
   -1.9449   -1.7257   -1.7646 H   0  0  0  0  0  0  0  0  0  0  0  0
   -2.7789   -1.0309    1.0352 H   0  0  0  0  0  0  0  0  0  0  0  0
   -3.5644   -3.4477    1.1361 H   0  0  0  0  0  0  0  0  0  0  0  0
   -3.1431   -3.5895   -0.6340 H   0  0  0  0  0  0  0  0  0  0  0  0
   -5.3150   -2.9504   -0.9554 H   0  0  0  0  0  0  0  0  0  0  0  0
   -5.5490   -2.5283    0.7512 H   0  0  0  0  0  0  0  0  0  0  0  0
   -5.8582   -0.7005   -0.9003 H   0  0  0  0  0  0  0  0  0  0  0  0
   -4.7076   -0.2737    0.3912 H   0  0  0  0  0  0  0  0  0  0  0  0
   -4.1180   -1.6596   -2.2591 H   0  0  0  0  0  0  0  0  0  0  0  0
   -4.1529    0.0815   -2.1479 H   0  0  0  0  0  0  0  0  0  0  0  0
   -0.8263    0.2297   -1.4849 H   0  0  0  0  0  0  0  0  0  0  0  0
   -1.0780   -0.3368    1.4402 H   0  0  0  0  0  0  0  0  0  0  0  0
   -1.1419    4.2710    1.1799 H   0  0  0  0  0  0  0  0  0  0  0  0
   -2.6559    3.3750    1.4639 H   0  0  0  0  0  0  0  0  0  0  0  0
   -0.7116    1.9926    1.3135 H   0  0  0  0  0  0  0  0  0  0  0  0
   -0.3506    2.7093   -0.3712 H   0  0  0  0  0  0  0  0  0  0  0  0
   -2.9142    1.2954    0.4996 H   0  0  0  0  0  0  0  0  0  0  0  0
   -3.7231    2.2424   -1.4879 H   0  0  0  0  0  0  0  0  0  0  0  0
   -2.3726    1.5319   -2.4594 H   0  0  0  0  0  0  0  0  0  0  0  0
   -2.6707    3.8960   -2.5660 H   0  0  0  0  0  0  0  0  0  0  0  0
   -1.0333    3.5087   -2.0675 H   0  0  0  0  0  0  0  0  0  0  0  0
   -3.5276    4.3763   -0.4998 H   0  0  0  0  0  0  0  0  0  0  0  0
    7.4281    0.1624    0.0115 H   0  0  0  0  0  0  0  0  0  0  0  0
    7.0157    0.0036   -2.4566 H   0  0  0  0  0  0  0  0  0  0  0  0
    5.5851    1.5513    2.1677 H   0  0  0  0  0  0  0  0  0  0  0  0
    6.5312    2.5787   -1.2906 H   0  0  0  0  0  0  0  0  0  0  0  0
    4.4893    1.1063   -1.7455 H   0  0  0  0  0  0  0  0  0  0  0  0
    5.3834   -0.2388   -0.9513 H   0  0  0  0  0  0  0  0  0  0  0  0
    4.7801    2.5079    0.3487 H   0  0  0  0  0  0  0  0  0  0  0  0
    2.6800    1.3145   -0.1592 H   0  0  0  0  0  0  0  0  0  0  0  0
    3.0430    1.5810    1.5981 H   0  0  0  0  0  0  0  0  0  0  0  0
    3.7438   -0.8759    1.7322 H   0  0  0  0  0  0  0  0  0  0  0  0
    1.5443   -0.1189    2.1795 H   0  0  0  0  0  0  0  0  0  0  0  0
    1.6427   -1.7695    1.6152 H   0  0  0  0  0  0  0  0  0  0  0  0
    0.8147    0.7609    0.0484 H   0  0  0  0  0  0  0  0  0  0  0  0
    1.0461   -0.7600   -0.7871 H   0  0  0  0  0  0  0  0  0  0  0  0
   -1.6981   -3.7546    1.1022 H   0  0  0  0  0  0  0  0  0  0  0  0
   -0.2956   -1.8382    3.0242 H   0  0  0  0  0  0  0  0  0  0  0  0
   -1.9857   -2.4397    2.9362 H   0  0  0  0  0  0  0  0  0  0  0  0
   -0.6510   -3.5679    3.2341 H   0  0  0  0  0  0  0  0  0  0  0  0
    1.0249   -3.5198    0.1156 H   0  0  0  0  0  0  0  0  0  0  0  0
    0.0265   -4.8893    0.5787 H   0  0  0  0  0  0  0  0  0  0  0  0
    0.9622   -4.1149    1.8632 H   0  0  0  0  0  0  0  0  0  0  0  0
    3.0578   -0.7937   -1.0647 H   0  0  0  0  0  0  0  0  0  0  0  0
  1  2  1  0
  2  3  1  0
  3  4  1  0
  4  5  1  0
  1  6  1  0
  5  6  1  0
  1  7  1  0
  7  8  1  0
  2  9  1  0
  8  9  1  0
 10 11  1  0
  7 12  1  0
 11 12  1  0
 12 13  1  0
 13 14  1  0
 10 15  1  0
 14 15  1  0
 15 16  1  0
 17 20  1  0
 18 20  1  0
 20 21  1  0
 19 22  1  0
 21 22  1  0
 22 23  1  0
 23 24  1  0
 24 25  1  0
  8 26  1  0
 25 26  1  0
  9 27  1  0
 27 28  1  0
 27 29  1  0
 24 30  1  0
 31 32  1  0
 32 33  1  0
 33 34  1  0
 34 35  1  0
 31 36  1  0
 35 36  1  0
 31 37  1  0
 37 38  1  0
 32 39  1  0
 38 39  1  0
 40 41  1  0
 37 42  1  0
 41 42  1  0
 42 43  1  0
 43 44  1  0
 40 45  1  0
 44 45  1  0
 45 46  1  0
 47 50  1  0
 48 50  1  0
 50 51  1  0
 49 52  1  0
 51 52  1  0
 52 53  1  0
 53 54  1  0
 54 55  1  0
 38 56  1  0
 55 56  1  0
 39 57  1  0
 57 58  1  0
 57 59  1  0
 54 60  1  0
 61 62  1  0
 62 63  1  0
 63 64  1  0
 64 65  1  0
 61 66  1  0
 65 66  1  0
 61 67  1  0
 67 68  1  0
 62 69  1  0
 68 69  1  0
 70 71  1  0
 67 72  1  0
 71 72  1  0
 72 73  1  0
 73 74  1  0
 70 75  1  0
 74 75  1  0
 75 76  1  0
 77 80  1  0
 78 80  1  0
 80 81  1  0
 79 82  1  0
 81 82  1  0
 82 83  1  0
 83 84  1  0
 84 85  1  0
 68 86  1  0
 85 86  1  0
 69 87  1  0
 87 88  1  0
 87 89  1  0
 84 90  1  0
 91 92  1  0
 92 93  1  0
 93 94  1  0
 94 95  1  0
 91 96  1  0
 95 96  1  0
 91 97  1  0
 97 98  1  0
 92 99  1  0
 98 99  1  0
100101  1  0
 97102  1  0
101102  1  0
102103  1  0
103104  1  0
100105  1  0
104105  1  0
105106  1  0
107110  1  0
108110  1  0
110111  1  0
109112  1  0
111112  1  0
112113  1  0
113114  1  0
114115  1  0
 98116  1  0
115116  1  0
 99117  1  0
117118  1  0
117119  1  0
114120  1  0
  1121  1  0
  2122  1  0
  3123  1  0
  3124  1  0
  4125  1  0
  4126  1  0
  5127  1  0
  5128  1  0
  6129  1  0
  6130  1  0
  7131  1  0
  8132  1  0
 10133  1  0
 10134  1  0
 11135  1  0
 11136  1  0
 12137  1  0
 13138  1  0
 13139  1  0
 14140  1  0
 14141  1  0
 15142  1  0
 17143  1  0
 18144  1  0
 19145  1  0
 20146  1  0
 21147  1  0
 21148  1  0
 22149  1  6
 23150  1  0
 23151  1  0
 24152  1  1
 25153  1  0
 25154  1  0
 26155  1  0
 26156  1  0
 27157  1  0
 28158  1  0
 28159  1  0
 28160  1  0
 29161  1  0
 29162  1  0
 29163  1  0
 30164  1  0
 31165  1  0
 32166  1  0
 33167  1  0
 33168  1  0
 34169  1  0
 34170  1  0
 35171  1  0
 35172  1  0
 36173  1  0
 36174  1  0
 37175  1  0
 38176  1  0
 40177  1  0
 40178  1  0
 41179  1  0
 41180  1  0
 42181  1  0
 43182  1  0
 43183  1  0
 44184  1  0
 44185  1  0
 45186  1  0
 47187  1  0
 48188  1  0
 49189  1  0
 50190  1  0
 51191  1  0
 51192  1  0
 52193  1  6
 53194  1  0
 53195  1  0
 54196  1  1
 55197  1  0
 55198  1  0
 56199  1  0
 56200  1  0
 57201  1  0
 58202  1  0
 58203  1  0
 58204  1  0
 59205  1  0
 59206  1  0
 59207  1  0
 60208  1  0
 61209  1  0
 62210  1  0
 63211  1  0
 63212  1  0
 64213  1  0
 64214  1  0
 65215  1  0
 65216  1  0
 66217  1  0
 66218  1  0
 67219  1  0
 68220  1  0
 70221  1  0
 70222  1  0
 71223  1  0
 71224  1  0
 72225  1  0
 73226  1  0
 73227  1  0
 74228  1  0
 74229  1  0
 75230  1  0
 77231  1  0
 78232  1  0
 79233  1  0
 80234  1  0
 81235  1  0
 81236  1  0
 82237  1  6
 83238  1  0
 83239  1  0
 84240  1  1
 85241  1  0
 85242  1  0
 86243  1  0
 86244  1  0
 87245  1  0
 88246  1  0
 88247  1  0
 88248  1  0
 89249  1  0
 89250  1  0
 89251  1  0
 90252  1  0
 91253  1  0
 92254  1  0
 93255  1  0
 93256  1  0
 94257  1  0
 94258  1  0
 95259  1  0
 95260  1  0
 96261  1  0
 96262  1  0
 97263  1  0
 98264  1  0
100265  1  0
100266  1  0
101267  1  0
101268  1  0
102269  1  0
103270  1  0
103271  1  0
104272  1  0
104273  1  0
105274  1  0
107275  1  0
108276  1  0
109277  1  0
110278  1  0
111279  1  0
111280  1  0
112281  1  6
113282  1  0
113283  1  0
114284  1  1
115285  1  0
115286  1  0
116287  1  0
116288  1  0
117289  1  0
118290  1  0
118291  1  0
118292  1  0
119293  1  0
119294  1  0
119295  1  0
120296  1  0
M  END
>  <PDBID>  (1) 
1HWI

>  <PDB ID>  (1) 
1HWI

>  <Generic Name>  (1) 
Fluvastatin

>  <Brand Name>  (1) 
Fluvastatin#Fluvastatin Sodium#Fluvastatin Sodium ER#Lescol#Lescol 20mg#Lescol 40mg#Lescol XL#Sandoz Fluvastatin#Teva-fluvastatin#Canef#Cranoc

>  <DrugBank ID>  (1) 
DB01095

>  <ATC Codes>  (1) 
C10AA04

>  <Ligand ID>  (1) 
115

>  <Target Name>  (1) 
3-hydroxy-3-methylglutaryl-coenzyme A reductase

>  <UniProt ID>  (1) 
P04035

>  <PDB ID.1>  (1) 
1HWI

>  <Seq. Identity>  (1) 
97%

$$$$
