PDB_DB00730_02
     RDKit          3D

 33 35  0  0  0  0  0  0  0  0999 V2000
   -1.0268   -0.0952    1.2325 C   0  0  0  0  0  0  0  0  0  0  0  0
    0.4164   -0.3723    1.3284 N   0  0  0  0  0  0  0  0  0  0  0  0
    0.8209   -0.2901   -0.0622 C   0  0  0  0  0  0  0  0  0  0  0  0
    2.0694   -1.0696   -0.3403 C   0  0  0  0  0  0  0  0  0  0  0  0
    2.3995   -0.9004   -1.8116 C   0  0  0  0  0  0  0  0  0  0  0  0
    3.0184    0.8316   -1.7219 S   0  0  0  0  0  0  0  0  0  0  0  0
    3.2940    0.8690    0.0957 C   0  0  0  0  0  0  0  0  0  0  0  0
    3.1537   -0.5177    0.4150 N   0  0  0  0  0  0  0  0  0  0  0  0
   -0.3004   -0.7784   -0.8389 N   0  0  0  0  0  0  0  0  0  0  0  0
   -1.3998   -0.9572    0.0565 C   0  0  0  0  0  0  0  0  0  0  0  0
   -2.7349   -0.6120   -0.5385 C   0  0  0  0  0  0  0  0  0  0  0  0
   -3.2462    0.7350   -0.1407 C   0  0  0  0  0  0  0  0  0  0  0  0
   -2.0614    1.6992   -0.1909 C   0  0  0  0  0  0  0  0  0  0  0  0
   -1.1807    1.3742    0.9730 C   0  0  0  0  0  0  0  0  0  0  0  0
   -1.5496   -0.4158    2.1586 H   0  0  0  0  0  0  0  0  0  0  0  0
    0.5154   -1.3481    1.6885 H   0  0  0  0  0  0  0  0  0  0  0  0
    0.9785    0.7567   -0.3279 H   0  0  0  0  0  0  0  0  0  0  0  0
    1.9874   -2.1374   -0.0577 H   0  0  0  0  0  0  0  0  0  0  0  0
    1.5302   -0.9780   -2.4535 H   0  0  0  0  0  0  0  0  0  0  0  0
    3.2398   -1.5658   -2.0932 H   0  0  0  0  0  0  0  0  0  0  0  0
    4.3748    1.1694    0.2140 H   0  0  0  0  0  0  0  0  0  0  0  0
    2.6137    1.5464    0.5998 H   0  0  0  0  0  0  0  0  0  0  0  0
    4.0242   -1.0601    0.3984 H   0  0  0  0  0  0  0  0  0  0  0  0
   -0.0366   -1.6534   -1.3522 H   0  0  0  0  0  0  0  0  0  0  0  0
   -1.3604   -2.0167    0.4195 H   0  0  0  0  0  0  0  0  0  0  0  0
   -2.6335   -0.6801   -1.6608 H   0  0  0  0  0  0  0  0  0  0  0  0
   -3.4425   -1.4398   -0.2729 H   0  0  0  0  0  0  0  0  0  0  0  0
   -3.5989    0.7028    0.9088 H   0  0  0  0  0  0  0  0  0  0  0  0
   -3.9895    1.1031   -0.8492 H   0  0  0  0  0  0  0  0  0  0  0  0
   -1.5249    1.6332   -1.1359 H   0  0  0  0  0  0  0  0  0  0  0  0
   -2.4923    2.7113   -0.1037 H   0  0  0  0  0  0  0  0  0  0  0  0
   -0.1997    1.9069    0.8754 H   0  0  0  0  0  0  0  0  0  0  0  0
   -1.6580    1.8492    1.8793 H   0  0  0  0  0  0  0  0  0  0  0  0
  1  2  1  0
  2  3  1  0
  3  4  1  0
  4  5  1  0
  5  6  1  0
  6  7  1  0
  4  8  1  0
  7  8  1  0
  3  9  1  0
  1 10  1  0
  9 10  1  0
 10 11  1  0
 11 12  1  0
 12 13  1  0
  1 14  1  0
 13 14  1  0
  1 15  1  0
  2 16  1  0
  3 17  1  0
  4 18  1  0
  5 19  1  0
  5 20  1  0
  7 21  1  0
  7 22  1  0
  8 23  1  0
  9 24  1  0
 10 25  1  0
 11 26  1  0
 11 27  1  0
 12 28  1  0
 12 29  1  0
 13 30  1  0
 13 31  1  0
 14 32  1  0
 14 33  1  0
M  END
>  <PDBID>  (1) 
3SFE

>  <PDB ID>  (1) 
3SFE

>  <Generic Name>  (1) 
Thiabendazole

>  <Brand Name>  (1) 
Mintezol Chewable Tab 500mg#Mintezol

>  <DrugBank ID>  (1) 
DB00730

>  <ATC Codes>  (1) 
D01AC06#P02CA02

>  <Ligand ID>  (1) 
TMG

>  <Target Name>  (1) 
Fumarate reductase flavoprotein subunit

>  <UniProt ID>  (1) 
P00363

>  <PDB ID.1>  (1) 
3SFE

>  <Seq. Identity>  (1) 
38%

$$$$
