PDB_DB09063_09
     RDKit          3D

 94 97  0  0  0  0  0  0  0  0999 V2000
    4.6372    3.2223    0.4046 C   0  0  0  0  0  0  0  0  0  0  0  0
    3.3078    2.5281    0.7501 C   0  0  0  0  0  0  0  0  0  0  0  0
    2.6899    3.1417    1.9635 C   0  0  0  0  0  0  0  0  0  0  0  0
    3.4846    1.1536    0.8201 O   0  0  0  0  0  0  0  0  0  0  0  0
    2.8497    0.4572   -0.1893 C   0  0  0  0  0  0  0  0  0  0  0  0
    3.8842   -0.0755   -1.1938 C   0  0  0  0  0  0  0  0  0  0  0  0
    4.7369   -1.1945   -0.6484 C   0  0  1  0  0  0  0  0  0  0  0  0
    6.1087   -0.7564   -0.2043 C   0  0  0  0  0  0  0  0  0  0  0  0
    6.9359   -1.9305    0.1876 C   0  0  0  0  0  0  0  0  0  0  0  0
    8.4057   -1.6124    0.4110 C   0  0  0  0  0  0  0  0  0  0  0  0
    8.9354   -0.7891   -0.6394 N   0  0  0  0  0  0  0  0  0  0  0  0
    8.2103    0.4628   -0.5883 C   0  0  0  0  0  0  0  0  0  0  0  0
    6.8019    0.1965   -1.1116 C   0  0  0  0  0  0  0  0  0  0  0  0
    3.9537   -1.9326    0.4150 C   0  0  0  0  0  0  0  0  0  0  0  0
    4.3358   -3.3413    0.6699 C   0  0  0  0  0  0  0  0  0  0  0  0
    2.5044   -1.9523   -0.1178 C   0  0  0  0  0  0  0  0  0  0  0  0
    1.9263   -0.5923    0.2690 C   0  0  0  0  0  0  0  0  0  0  0  0
    0.5438   -0.5050   -0.0130 N   0  0  0  0  0  0  0  0  0  0  0  0
   -0.2295    0.5238    0.5886 C   0  0  0  0  0  0  0  0  0  0  0  0
    0.1199    1.8642    0.2893 N   0  0  0  0  0  0  0  0  0  0  0  0
   -0.5205    2.4641   -0.8598 C   0  0  0  0  0  0  0  0  0  0  0  0
   -1.7765    1.7654   -1.3003 C   0  0  1  0  0  0  0  0  0  0  0  0
   -1.5076    0.4711   -2.4579 Cl  0  0  0  0  0  0  0  0  0  0  0  0
   -2.4452    1.2678   -0.0140 C   0  0  0  0  0  0  0  0  0  0  0  0
   -3.7839    0.9127   -0.3077 N   0  0  0  0  0  0  0  0  0  0  0  0
   -4.3716   -0.2375    0.2558 C   0  0  2  0  0  0  0  0  0  0  0  0
   -3.8476   -1.5519   -0.2058 C   0  0  0  0  0  0  0  0  0  0  0  0
   -4.3759   -2.6326    0.7279 C   0  0  0  0  0  0  0  0  0  0  0  0
   -5.3708   -2.1144    1.7170 C   0  0  0  0  0  0  0  0  0  0  0  0
   -6.4447   -1.2775    1.0480 C   0  0  0  0  0  0  0  0  0  0  0  0
   -5.8844   -0.1352    0.2397 C   0  0  2  0  0  0  0  0  0  0  0  0
   -6.6107   -0.0261   -1.2902 S   0  0  0  0  0  0  0  0  0  0  0  0
   -5.8387    1.4986   -1.8999 O   0  0  0  0  0  0  0  0  0  0  0  0
   -6.4003   -1.0342   -2.2989 O   0  0  0  0  0  0  0  0  0  0  0  0
   -8.2077    0.5696   -1.1344 C   0  0  0  0  0  0  0  0  0  0  0  0
   -9.1172   -0.4052   -0.4238 C   0  0  0  0  0  0  0  0  0  0  0  0
   -8.3457    1.9143   -0.4818 C   0  0  0  0  0  0  0  0  0  0  0  0
   -1.6634    0.2366    0.5474 N   0  0  0  0  0  0  0  0  0  0  0  0
    4.7276    3.3944   -0.6831 H   0  0  0  0  0  0  0  0  0  0  0  0
    4.6374    4.1757    0.9539 H   0  0  0  0  0  0  0  0  0  0  0  0
    5.4808    2.6013    0.7110 H   0  0  0  0  0  0  0  0  0  0  0  0
    2.6586    2.7752   -0.1363 H   0  0  0  0  0  0  0  0  0  0  0  0
    2.1750    2.3399    2.5578 H   0  0  0  0  0  0  0  0  0  0  0  0
    3.4765    3.6333    2.5625 H   0  0  0  0  0  0  0  0  0  0  0  0
    1.8895    3.8821    1.6639 H   0  0  0  0  0  0  0  0  0  0  0  0
    2.2882    1.2169   -0.7986 H   0  0  0  0  0  0  0  0  0  0  0  0
    4.4481    0.8137   -1.5248 H   0  0  0  0  0  0  0  0  0  0  0  0
    3.2993   -0.3927   -2.0819 H   0  0  0  0  0  0  0  0  0  0  0  0
    4.8789   -1.9298   -1.4909 H   0  0  0  0  0  0  0  0  0  0  0  0
    5.9291   -0.1856    0.7627 H   0  0  0  0  0  0  0  0  0  0  0  0
    6.5874   -2.3895    1.1216 H   0  0  0  0  0  0  0  0  0  0  0  0
    6.8721   -2.6681   -0.6411 H   0  0  0  0  0  0  0  0  0  0  0  0
    8.9516   -2.5973    0.3335 H   0  0  0  0  0  0  0  0  0  0  0  0
    8.6258   -1.2017    1.4002 H   0  0  0  0  0  0  0  0  0  0  0  0
    8.7691   -1.2402   -1.5617 H   0  0  0  0  0  0  0  0  0  0  0  0
    8.7363    1.1940   -1.2488 H   0  0  0  0  0  0  0  0  0  0  0  0
    8.2007    0.7705    0.4737 H   0  0  0  0  0  0  0  0  0  0  0  0
    6.9303   -0.1385   -2.1565 H   0  0  0  0  0  0  0  0  0  0  0  0
    6.3157    1.2063   -1.0587 H   0  0  0  0  0  0  0  0  0  0  0  0
    3.9572   -1.3243    1.3583 H   0  0  0  0  0  0  0  0  0  0  0  0
    4.6182   -3.4546    1.7536 H   0  0  0  0  0  0  0  0  0  0  0  0
    5.0081   -3.8215   -0.0304 H   0  0  0  0  0  0  0  0  0  0  0  0
    3.3906   -3.9917    0.6268 H   0  0  0  0  0  0  0  0  0  0  0  0
    2.5240   -2.0054   -1.2156 H   0  0  0  0  0  0  0  0  0  0  0  0
    1.9349   -2.7952    0.2903 H   0  0  0  0  0  0  0  0  0  0  0  0
    1.9922   -0.6232    1.4187 H   0  0  0  0  0  0  0  0  0  0  0  0
    0.1049   -1.4401    0.1933 H   0  0  0  0  0  0  0  0  0  0  0  0
   -0.0056    0.4216    1.7143 H   0  0  0  0  0  0  0  0  0  0  0  0
    0.0442    2.5002    1.1385 H   0  0  0  0  0  0  0  0  0  0  0  0
   -0.8567    3.4956   -0.5352 H   0  0  0  0  0  0  0  0  0  0  0  0
    0.1179    2.6088   -1.7353 H   0  0  0  0  0  0  0  0  0  0  0  0
   -2.5038    2.4839   -1.7282 H   0  0  0  0  0  0  0  0  0  0  0  0
   -2.4902    2.1865    0.6572 H   0  0  0  0  0  0  0  0  0  0  0  0
   -3.7911    0.8135   -1.4031 H   0  0  0  0  0  0  0  0  0  0  0  0
   -4.1250   -0.1931    1.3713 H   0  0  0  0  0  0  0  0  0  0  0  0
   -4.1885   -1.7934   -1.2495 H   0  0  0  0  0  0  0  0  0  0  0  0
   -2.7573   -1.5392   -0.2551 H   0  0  0  0  0  0  0  0  0  0  0  0
   -3.5246   -3.0711    1.2687 H   0  0  0  0  0  0  0  0  0  0  0  0
   -4.7990   -3.4754    0.1149 H   0  0  0  0  0  0  0  0  0  0  0  0
   -4.9237   -1.6417    2.5873 H   0  0  0  0  0  0  0  0  0  0  0  0
   -5.9157   -3.0277    2.1079 H   0  0  0  0  0  0  0  0  0  0  0  0
   -7.0938   -0.9266    1.8894 H   0  0  0  0  0  0  0  0  0  0  0  0
   -7.0542   -1.9707    0.4587 H   0  0  0  0  0  0  0  0  0  0  0  0
   -6.1205    0.7982    0.8152 H   0  0  0  0  0  0  0  0  0  0  0  0
   -5.7703    2.0632   -1.0880 H   0  0  0  0  0  0  0  0  0  0  0  0
   -7.0590   -1.6609   -2.7263 H   0  0  0  0  0  0  0  0  0  0  0  0
   -8.6267    0.6702   -2.1867 H   0  0  0  0  0  0  0  0  0  0  0  0
   -8.9629   -1.4239   -0.8487 H   0  0  0  0  0  0  0  0  0  0  0  0
   -9.0254   -0.3253    0.6572 H   0  0  0  0  0  0  0  0  0  0  0  0
  -10.1906   -0.1572   -0.7042 H   0  0  0  0  0  0  0  0  0  0  0  0
   -9.3814    2.3151   -0.6843 H   0  0  0  0  0  0  0  0  0  0  0  0
   -7.6597    2.6881   -0.8367 H   0  0  0  0  0  0  0  0  0  0  0  0
   -8.3137    1.8303    0.6358 H   0  0  0  0  0  0  0  0  0  0  0  0
   -2.0615   -0.0273    1.4664 H   0  0  0  0  0  0  0  0  0  0  0  0
  1  2  1  0
  2  3  1  0
  2  4  1  0
  4  5  1  0
  5  6  1  0
  6  7  1  0
  7  8  1  0
  8  9  1  0
  9 10  1  0
 10 11  1  0
 11 12  1  0
  8 13  1  0
 12 13  1  0
  7 14  1  0
 14 15  1  0
 14 16  1  0
  5 17  1  0
 16 17  1  0
 17 18  1  0
 18 19  1  0
 19 20  1  0
 20 21  1  0
 21 22  1  0
 22 23  1  0
 22 24  1  0
 24 25  1  0
 25 26  1  0
 26 27  1  0
 27 28  1  0
 28 29  1  0
 29 30  1  0
 26 31  1  0
 30 31  1  0
 31 32  1  0
 32 33  1  0
 32 34  1  0
 32 35  1  0
 35 36  1  0
 35 37  1  0
 19 38  1  0
 24 38  1  0
  1 39  1  0
  1 40  1  0
  1 41  1  0
  2 42  1  0
  3 43  1  0
  3 44  1  0
  3 45  1  0
  5 46  1  0
  6 47  1  0
  6 48  1  0
  7 49  1  6
  8 50  1  0
  9 51  1  0
  9 52  1  0
 10 53  1  0
 10 54  1  0
 11 55  1  0
 12 56  1  0
 12 57  1  0
 13 58  1  0
 13 59  1  0
 14 60  1  0
 15 61  1  0
 15 62  1  0
 15 63  1  0
 16 64  1  0
 16 65  1  0
 17 66  1  0
 18 67  1  0
 19 68  1  0
 20 69  1  0
 21 70  1  0
 21 71  1  0
 22 72  1  6
 24 73  1  0
 25 74  1  0
 26 75  1  1
 27 76  1  0
 27 77  1  0
 28 78  1  0
 28 79  1  0
 29 80  1  0
 29 81  1  0
 30 82  1  0
 30 83  1  0
 31 84  1  1
 33 85  1  0
 34 86  1  0
 35 87  1  0
 36 88  1  0
 36 89  1  0
 36 90  1  0
 37 91  1  0
 37 92  1  0
 37 93  1  0
 38 94  1  0
M  END
>  <PDBID>  (1) 
4MKC

>  <PDB ID>  (1) 
4MKC

>  <Generic Name>  (1) 
Ceritinib

>  <Brand Name>  (1) 
Zykadia

>  <DrugBank ID>  (1) 
DB09063

>  <ATC Codes>  (1) 
L01XE28

>  <Ligand ID>  (1) 
4MK

>  <Target Name>  (1) 
ALK tyrosine kinase receptor

>  <UniProt ID>  (1) 
Q9UM73

>  <PDB ID.1>  (1) 
4MKC

>  <Seq. Identity>  (1) 
99%

$$$$
