PDB_DB01010_09
     RDKit          3D

 34 34  0  0  0  0  0  0  0  0999 V2000
    1.0023   -1.0673   -0.9156 C   0  0  0  0  0  0  0  0  0  0  0  0
    0.2746   -0.1807    0.0352 C   0  0  0  0  0  0  0  0  0  0  0  0
    0.8823    1.2226   -0.0992 C   0  0  0  0  0  0  0  0  0  0  0  0
    2.3813    1.1015   -0.2084 C   0  0  2  0  0  0  0  0  0  0  0  0
    2.8991   -0.1526    0.4296 C   0  0  0  0  0  0  0  0  0  0  0  0
    2.3687   -1.3788   -0.2876 C   0  0  0  0  0  0  0  0  0  0  0  0
    2.9895    2.2082    0.3702 O   0  0  0  0  0  0  0  0  0  0  0  0
   -1.1522   -0.1601   -0.1253 N   0  0  0  0  0  0  0  0  0  0  0  0
   -1.6044    1.0999   -0.7384 C   0  0  0  0  0  0  0  0  0  0  0  0
   -1.6399   -1.1948   -1.0157 C   0  0  0  0  0  0  0  0  0  0  0  0
   -1.7433   -0.2451    1.1715 C   0  0  0  0  0  0  0  0  0  0  0  0
   -3.2214   -0.0075    1.2114 C   0  0  0  0  0  0  0  0  0  0  0  0
    1.2292   -0.5818   -1.8905 H   0  0  0  0  0  0  0  0  0  0  0  0
    0.5309   -2.0232   -1.1227 H   0  0  0  0  0  0  0  0  0  0  0  0
    0.5735   -0.4994    1.0761 H   0  0  0  0  0  0  0  0  0  0  0  0
    0.5246    1.7493   -0.9802 H   0  0  0  0  0  0  0  0  0  0  0  0
    0.6474    1.7731    0.8156 H   0  0  0  0  0  0  0  0  0  0  0  0
    2.7019    1.0971   -1.2869 H   0  0  0  0  0  0  0  0  0  0  0  0
    3.9883   -0.1512    0.4186 H   0  0  0  0  0  0  0  0  0  0  0  0
    2.5911   -0.1456    1.5111 H   0  0  0  0  0  0  0  0  0  0  0  0
    2.1327   -2.1269    0.5251 H   0  0  0  0  0  0  0  0  0  0  0  0
    3.0638   -1.8039   -1.0073 H   0  0  0  0  0  0  0  0  0  0  0  0
    2.9386    2.1717    1.3642 H   0  0  0  0  0  0  0  0  0  0  0  0
   -1.3227    1.9671   -0.1425 H   0  0  0  0  0  0  0  0  0  0  0  0
   -2.7191    0.9783   -0.8506 H   0  0  0  0  0  0  0  0  0  0  0  0
   -1.2443    1.1570   -1.8061 H   0  0  0  0  0  0  0  0  0  0  0  0
   -2.7391   -1.0475   -1.1018 H   0  0  0  0  0  0  0  0  0  0  0  0
   -1.2340   -0.9995   -2.0393 H   0  0  0  0  0  0  0  0  0  0  0  0
   -1.4688   -2.2044   -0.6567 H   0  0  0  0  0  0  0  0  0  0  0  0
   -1.2625    0.5194    1.8211 H   0  0  0  0  0  0  0  0  0  0  0  0
   -1.5420   -1.2385    1.6060 H   0  0  0  0  0  0  0  0  0  0  0  0
   -3.8037   -0.7070    0.6047 H   0  0  0  0  0  0  0  0  0  0  0  0
   -3.5307   -0.1939    2.2787 H   0  0  0  0  0  0  0  0  0  0  0  0
   -3.4917    1.0645    1.0357 H   0  0  0  0  0  0  0  0  0  0  0  0
  1  2  1  0
  2  3  1  0
  3  4  1  0
  4  5  1  0
  1  6  1  0
  5  6  1  0
  4  7  1  0
  2  8  1  0
  8  9  1  0
  8 10  1  0
  8 11  1  0
 11 12  1  0
  1 13  1  0
  1 14  1  0
  2 15  1  0
  3 16  1  0
  3 17  1  0
  4 18  1  6
  5 19  1  0
  5 20  1  0
  6 21  1  0
  6 22  1  0
  7 23  1  0
  9 24  1  0
  9 25  1  0
  9 26  1  0
 10 27  1  0
 10 28  1  0
 10 29  1  0
 11 30  1  0
 11 31  1  0
 12 32  1  0
 12 33  1  0
 12 34  1  0
M  CHG  1   8   1
M  END
>  <PDBID>  (1) 
2ACK

>  <PDB ID>  (1) 
2ACK

>  <Generic Name>  (1) 
Edrophonium

>  <Brand Name>  (1) 
Enlon#Enlon 10mg/ml#Enlon Liq IV 10mg/ml#Enlon Plus#Tensilon#Antirex#Reversol

>  <DrugBank ID>  (1) 
DB01010

>  <ATC Codes>  (1) 
nan

>  <Ligand ID>  (1) 
EDR

>  <Target Name>  (1) 
Acetylcholinesterase

>  <UniProt ID>  (1) 
P22303

>  <PDB ID.1>  (1) 
2ACK

>  <Seq. Identity>  (1) 
57%

$$$$
