PDB_DB00755_02
     RDKit          3D

124124  0  0  0  0  0  0  0  0999 V2000
   -3.6297   -0.5502   -0.5759 C   0  0  0  0  0  0  0  0  0  0  0  0
   -4.4406    0.4114   -1.4335 C   0  0  0  0  0  0  0  0  0  0  0  0
   -5.0488    1.5388   -0.6880 C   0  0  0  0  0  0  0  0  0  0  0  0
   -3.9945    2.2753    0.1083 C   0  0  0  0  0  0  0  0  0  0  0  0
   -3.4207    1.3213    1.0873 C   0  0  0  0  0  0  0  0  0  0  0  0
   -2.7331    0.1541    0.3847 C   0  0  0  0  0  0  0  0  0  0  0  0
   -1.4358    0.6579   -0.0871 C   0  0  0  0  0  0  0  0  0  0  0  0
   -0.3885   -0.2230   -0.5903 C   0  0  0  0  0  0  0  0  0  0  0  0
    0.1414   -1.2463    0.3725 C   0  0  1  0  0  0  0  0  0  0  0  0
    1.1933   -2.0546   -0.3148 C   0  0  0  0  0  0  0  0  0  0  0  0
    2.3691   -1.3380   -0.8656 C   0  0  0  0  0  0  0  0  0  0  0  0
    3.2149   -0.5817    0.0976 C   0  0  0  0  0  0  0  0  0  0  0  0
    4.4088    0.1271   -0.5499 C   0  0  0  0  0  0  0  0  0  0  0  0
    5.1400    0.8782    0.5702 C   0  0  0  0  0  0  0  0  0  0  0  0
    6.3291    1.6344    0.0923 C   0  0  0  0  0  0  0  0  0  0  0  0
   -2.9425   -1.4473   -1.5632 C   0  0  0  0  0  0  0  0  0  0  0  0
   -4.6242   -1.4494    0.1641 C   0  0  0  0  0  0  0  0  0  0  0  0
   -4.3754    0.8909    2.1600 C   0  0  0  0  0  0  0  0  0  0  0  0
    0.5591   -0.7730    1.7012 C   0  0  0  0  0  0  0  0  0  0  0  0
    5.3659   -0.9265   -1.0349 C   0  0  0  0  0  0  0  0  0  0  0  0
    6.9310    2.2997    1.1904 O   0  0  0  0  0  0  0  0  0  0  0  0
    7.2514    0.7905   -0.4841 O   0  0  0  0  0  0  0  0  0  0  0  0
   -2.7276   -0.0509   -1.0858 C   0  0  0  0  0  0  0  0  0  0  0  0
   -3.6179    0.9691   -1.7848 C   0  0  0  0  0  0  0  0  0  0  0  0
   -5.0114    1.0227   -1.3388 C   0  0  0  0  0  0  0  0  0  0  0  0
   -5.1420    0.5028    0.0465 C   0  0  0  0  0  0  0  0  0  0  0  0
   -3.9532    0.7290    0.9116 C   0  0  0  0  0  0  0  0  0  0  0  0
   -2.6769    0.1070    0.3781 C   0  0  0  0  0  0  0  0  0  0  0  0
   -1.5375    0.7388    1.0240 C   0  0  0  0  0  0  0  0  0  0  0  0
   -0.1720    0.2447    0.9807 C   0  0  0  0  0  0  0  0  0  0  0  0
    0.1755   -1.0661    1.5549 C   0  0  0  0  0  0  0  0  0  0  0  0
    1.6683   -1.2755    1.3245 C   0  0  0  0  0  0  0  0  0  0  0  0
    2.5455   -0.2554    1.9483 C   0  0  0  0  0  0  0  0  0  0  0  0
    3.9839   -0.6055    1.6594 C   0  0  0  0  0  0  0  0  0  0  0  0
    4.3449   -0.6773    0.2161 C   0  0  0  0  0  0  0  0  0  0  0  0
    4.0972    0.6549   -0.4448 C   0  0  0  0  0  0  0  0  0  0  0  0
    4.4730    0.6050   -1.9207 C   0  0  0  0  0  0  0  0  0  0  0  0
   -1.4199    0.1219   -1.8298 C   0  0  0  0  0  0  0  0  0  0  0  0
   -3.2149   -1.4681   -1.4220 C   0  0  0  0  0  0  0  0  0  0  0  0
   -3.8424    2.2066    1.1956 C   0  0  0  0  0  0  0  0  0  0  0  0
   -0.5021   -2.2853    1.0520 C   0  0  0  0  0  0  0  0  0  0  0  0
    5.7898   -1.1254    0.0165 C   0  0  0  0  0  0  0  0  0  0  0  0
    4.2074    1.8771   -2.4328 O   0  0  0  0  0  0  0  0  0  0  0  0
    5.8347    0.3647   -2.0794 O   0  0  0  0  0  0  0  0  0  0  0  0
   -5.2806   -0.2122   -1.8561 H   0  0  0  0  0  0  0  0  0  0  0  0
   -3.8603    0.7618   -2.2925 H   0  0  0  0  0  0  0  0  0  0  0  0
   -5.9191    1.2459   -0.0610 H   0  0  0  0  0  0  0  0  0  0  0  0
   -5.4413    2.2625   -1.4320 H   0  0  0  0  0  0  0  0  0  0  0  0
   -4.4490    3.1604    0.5992 H   0  0  0  0  0  0  0  0  0  0  0  0
   -3.2247    2.6369   -0.5728 H   0  0  0  0  0  0  0  0  0  0  0  0
   -2.5910    1.8646    1.6310 H   0  0  0  0  0  0  0  0  0  0  0  0
   -2.5949   -0.5973    1.2413 H   0  0  0  0  0  0  0  0  0  0  0  0
   -1.6653    1.4000   -0.9249 H   0  0  0  0  0  0  0  0  0  0  0  0
   -0.9460    1.3542    0.6725 H   0  0  0  0  0  0  0  0  0  0  0  0
   -0.5023   -0.7050   -1.5695 H   0  0  0  0  0  0  0  0  0  0  0  0
    0.5191    0.4628   -0.7746 H   0  0  0  0  0  0  0  0  0  0  0  0
   -0.7051   -1.9936    0.5640 H   0  0  0  0  0  0  0  0  0  0  0  0
    0.6662   -2.5377   -1.1991 H   0  0  0  0  0  0  0  0  0  0  0  0
    1.5198   -2.9347    0.2908 H   0  0  0  0  0  0  0  0  0  0  0  0
    3.0253   -2.0806   -1.4106 H   0  0  0  0  0  0  0  0  0  0  0  0
    2.0972   -0.6189   -1.6825 H   0  0  0  0  0  0  0  0  0  0  0  0
    3.5905   -1.2837    0.8772 H   0  0  0  0  0  0  0  0  0  0  0  0
    2.6649    0.2517    0.6023 H   0  0  0  0  0  0  0  0  0  0  0  0
    4.0936    0.7911   -1.3532 H   0  0  0  0  0  0  0  0  0  0  0  0
    5.3704    0.1888    1.3877 H   0  0  0  0  0  0  0  0  0  0  0  0
    4.3983    1.6150    0.9558 H   0  0  0  0  0  0  0  0  0  0  0  0
    6.0351    2.4585   -0.5999 H   0  0  0  0  0  0  0  0  0  0  0  0
   -2.6089   -0.9076   -2.4749 H   0  0  0  0  0  0  0  0  0  0  0  0
   -3.8033   -2.0852   -1.9897 H   0  0  0  0  0  0  0  0  0  0  0  0
   -2.2701   -2.1885   -1.1559 H   0  0  0  0  0  0  0  0  0  0  0  0
   -5.6313   -0.9856    0.1268 H   0  0  0  0  0  0  0  0  0  0  0  0
   -4.7424   -2.4406   -0.3218 H   0  0  0  0  0  0  0  0  0  0  0  0
   -4.2818   -1.6672    1.1988 H   0  0  0  0  0  0  0  0  0  0  0  0
   -5.3897    0.6803    1.8271 H   0  0  0  0  0  0  0  0  0  0  0  0
   -4.4708    1.7704    2.8660 H   0  0  0  0  0  0  0  0  0  0  0  0
   -3.9016    0.1003    2.7707 H   0  0  0  0  0  0  0  0  0  0  0  0
   -0.1514   -1.0589    2.5237 H   0  0  0  0  0  0  0  0  0  0  0  0
    0.6882    0.3159    1.8339 H   0  0  0  0  0  0  0  0  0  0  0  0
    1.5072   -1.2611    1.9955 H   0  0  0  0  0  0  0  0  0  0  0  0
    4.9124   -1.8391   -1.4176 H   0  0  0  0  0  0  0  0  0  0  0  0
    6.0592   -1.1655   -0.1764 H   0  0  0  0  0  0  0  0  0  0  0  0
    6.0102   -0.5352   -1.8784 H   0  0  0  0  0  0  0  0  0  0  0  0
    7.5420    3.0027    0.8934 H   0  0  0  0  0  0  0  0  0  0  0  0
    7.8610    0.3848    0.2098 H   0  0  0  0  0  0  0  0  0  0  0  0
   -3.5732    0.6633   -2.8745 H   0  0  0  0  0  0  0  0  0  0  0  0
   -3.0993    1.9382   -1.7417 H   0  0  0  0  0  0  0  0  0  0  0  0
   -5.4259    2.0451   -1.4321 H   0  0  0  0  0  0  0  0  0  0  0  0
   -5.6473    0.3823   -2.0039 H   0  0  0  0  0  0  0  0  0  0  0  0
   -5.9893    1.0782    0.5281 H   0  0  0  0  0  0  0  0  0  0  0  0
   -5.5087   -0.5631    0.0751 H   0  0  0  0  0  0  0  0  0  0  0  0
   -4.2291    0.2837    1.9188 H   0  0  0  0  0  0  0  0  0  0  0  0
   -2.7341   -0.9530    0.8106 H   0  0  0  0  0  0  0  0  0  0  0  0
   -1.4997    1.8160    0.6679 H   0  0  0  0  0  0  0  0  0  0  0  0
   -1.8043    0.8739    2.1195 H   0  0  0  0  0  0  0  0  0  0  0  0
    0.4066    0.9769    1.6576 H   0  0  0  0  0  0  0  0  0  0  0  0
    0.4115    0.3760    0.0389 H   0  0  0  0  0  0  0  0  0  0  0  0
    0.0613   -1.0538    2.6886 H   0  0  0  0  0  0  0  0  0  0  0  0
    1.7942   -1.2744    0.2003 H   0  0  0  0  0  0  0  0  0  0  0  0
    1.9462   -2.3172    1.6218 H   0  0  0  0  0  0  0  0  0  0  0  0
    2.3709    0.7381    1.4917 H   0  0  0  0  0  0  0  0  0  0  0  0
    2.3681   -0.1927    3.0502 H   0  0  0  0  0  0  0  0  0  0  0  0
    4.6334    0.0966    2.2306 H   0  0  0  0  0  0  0  0  0  0  0  0
    4.2241   -1.6240    2.0905 H   0  0  0  0  0  0  0  0  0  0  0  0
    3.7313   -1.4339   -0.3246 H   0  0  0  0  0  0  0  0  0  0  0  0
    4.6738    1.4286    0.0846 H   0  0  0  0  0  0  0  0  0  0  0  0
    2.9958    0.8595   -0.3729 H   0  0  0  0  0  0  0  0  0  0  0  0
    3.8813   -0.1313   -2.4673 H   0  0  0  0  0  0  0  0  0  0  0  0
   -1.0054    1.1425   -1.7095 H   0  0  0  0  0  0  0  0  0  0  0  0
   -1.7135    0.1117   -2.9309 H   0  0  0  0  0  0  0  0  0  0  0  0
   -0.7215   -0.7024   -1.7454 H   0  0  0  0  0  0  0  0  0  0  0  0
   -3.5360   -1.9925   -0.4776 H   0  0  0  0  0  0  0  0  0  0  0  0
   -4.0084   -1.4547   -2.1844 H   0  0  0  0  0  0  0  0  0  0  0  0
   -2.3918   -2.0925   -1.8269 H   0  0  0  0  0  0  0  0  0  0  0  0
   -3.5284    2.3965    2.2598 H   0  0  0  0  0  0  0  0  0  0  0  0
   -3.2763    2.7865    0.4747 H   0  0  0  0  0  0  0  0  0  0  0  0
   -4.8937    2.6251    1.1653 H   0  0  0  0  0  0  0  0  0  0  0  0
    0.1826   -3.1931    1.0607 H   0  0  0  0  0  0  0  0  0  0  0  0
   -0.8529   -2.2598    0.0067 H   0  0  0  0  0  0  0  0  0  0  0  0
   -1.3153   -2.6198    1.7652 H   0  0  0  0  0  0  0  0  0  0  0  0
    5.9281   -1.6711   -0.9348 H   0  0  0  0  0  0  0  0  0  0  0  0
    6.4883   -0.2804    0.0701 H   0  0  0  0  0  0  0  0  0  0  0  0
    6.0185   -1.8045    0.8518 H   0  0  0  0  0  0  0  0  0  0  0  0
    4.9533    2.4964   -2.3225 H   0  0  0  0  0  0  0  0  0  0  0  0
    6.3828    1.1642   -1.8836 H   0  0  0  0  0  0  0  0  0  0  0  0
  1  2  1  0
  2  3  1  0
  3  4  1  0
  4  5  1  0
  1  6  1  0
  5  6  1  0
  6  7  1  0
  7  8  1  0
  8  9  1  0
  9 10  1  0
 10 11  1  0
 11 12  1  0
 12 13  1  0
 13 14  1  0
 14 15  1  0
  1 16  1  0
  1 17  1  0
  5 18  1  0
  9 19  1  0
 13 20  1  0
 15 21  1  0
 15 22  1  0
 23 24  1  0
 24 25  1  0
 25 26  1  0
 26 27  1  0
 23 28  1  0
 27 28  1  0
 28 29  1  0
 29 30  1  0
 30 31  1  0
 31 32  1  0
 32 33  1  0
 33 34  1  0
 34 35  1  0
 35 36  1  0
 36 37  1  0
 23 38  1  0
 23 39  1  0
 27 40  1  0
 31 41  1  0
 35 42  1  0
 37 43  1  0
 37 44  1  0
  2 45  1  0
  2 46  1  0
  3 47  1  0
  3 48  1  0
  4 49  1  0
  4 50  1  0
  5 51  1  0
  6 52  1  0
  7 53  1  0
  7 54  1  0
  8 55  1  0
  8 56  1  0
  9 57  1  1
 10 58  1  0
 10 59  1  0
 11 60  1  0
 11 61  1  0
 12 62  1  0
 12 63  1  0
 13 64  1  0
 14 65  1  0
 14 66  1  0
 15 67  1  0
 16 68  1  0
 16 69  1  0
 16 70  1  0
 17 71  1  0
 17 72  1  0
 17 73  1  0
 18 74  1  0
 18 75  1  0
 18 76  1  0
 19 77  1  0
 19 78  1  0
 19 79  1  0
 20 80  1  0
 20 81  1  0
 20 82  1  0
 21 83  1  0
 22 84  1  0
 24 85  1  0
 24 86  1  0
 25 87  1  0
 25 88  1  0
 26 89  1  0
 26 90  1  0
 27 91  1  0
 28 92  1  0
 29 93  1  0
 29 94  1  0
 30 95  1  0
 30 96  1  0
 31 97  1  0
 32 98  1  0
 32 99  1  0
 33100  1  0
 33101  1  0
 34102  1  0
 34103  1  0
 35104  1  0
 36105  1  0
 36106  1  0
 37107  1  0
 38108  1  0
 38109  1  0
 38110  1  0
 39111  1  0
 39112  1  0
 39113  1  0
 40114  1  0
 40115  1  0
 40116  1  0
 41117  1  0
 41118  1  0
 41119  1  0
 42120  1  0
 42121  1  0
 42122  1  0
 43123  1  0
 44124  1  0
M  END
>  <PDBID>  (1) 
3FC6

>  <PDB ID>  (1) 
3FC6

>  <Generic Name>  (1) 
Tretinoin

>  <Brand Name>  (1) 
Atralin#Avita#Biacna Topical Gel#Clindamycin Phosphate and Tretinoin#Dr. Throwers Hydrotet#Dr. Throwers Pbc No. 1#Obagi#Refissa#Rejuva-A#Renova#Retin-A#Retin-A Micro#Retisol-A#Solagé#Stie Vaa Sol 0.05%#Stieva-A Cream#Stieva-A Gel#Stieva-A Solution#Stievaa Gel 0.01%#Stievamycin Forte#Stievamycin Mild#Stievamycin Regular#Tretin.x#Tretinoin#Tretinoin Cream#Tretinoin Gel#Tretinoin Gel Microsphere#Tretinx#Tri-luma#Veltin#Vesanoid#Vitamin A Acid 0.01% Cream#Vitamin A Acid 0.01% Gel#Vitamin A Acid 0.025% Cream#Vitamin A Acid 0.025% Gel#Vitamin A Acid 0.05% Cream#Vitamin A Acid 0.05% Gel#Vitamin A Acid 0.1% Cream#Vitinoin - Crm 0.025%#Vitinoin - Crm 0.05%#Vitinoin - Crm 0.1%#Vitinoin Gel - 0.025%#Ziana#Aberel#Aberela#Airol#Dermairol#Eudyna#Kétrel#Retisol-A#Sotret#Stieva-A#Vitinoin

>  <DrugBank ID>  (1) 
DB00755

>  <ATC Codes>  (1) 
L01XX14#D10AD01#D10AD51

>  <Ligand ID>  (1) 
3KV,REA

>  <Target Name>  (1) 
Retinoic acid receptor RXR-beta

>  <UniProt ID>  (1) 
P28702

>  <PDB ID.1>  (1) 
3FC6

>  <Seq. Identity>  (1) 
87%

$$$$
