PDB_DB08881_00
     RDKit          3D

 75 78  0  0  0  0  0  0  0  0999 V2000
    7.0571    0.2133    1.0351 C   0  0  0  0  0  0  0  0  0  0  0  0
    1.0387    2.5275   -1.7840 C   0  0  0  0  0  0  0  0  0  0  0  0
   -0.6533    1.3461   -0.3195 C   0  0  0  0  0  0  0  0  0  0  0  0
   -2.9865    0.7077   -0.6007 C   0  0  0  0  0  0  0  0  0  0  0  0
   -3.7301   -0.4463   -1.2078 C   0  0  0  0  0  0  0  0  0  0  0  0
   -2.9970   -1.7116   -0.9087 C   0  0  0  0  0  0  0  0  0  0  0  0
   -1.2910   -0.3455   -2.1262 C   0  0  0  0  0  0  0  0  0  0  0  0
    3.9618   -0.2578   -0.3239 C   0  0  0  0  0  0  0  0  0  0  0  0
    3.5828   -1.1300   -1.4874 C   0  0  0  0  0  0  0  0  0  0  0  0
    2.9693   -0.3791   -2.5897 N   0  0  0  0  0  0  0  0  0  0  0  0
    2.7647    0.4352    0.3133 C   0  0  0  0  0  0  0  0  0  0  0  0
    1.6041    1.6196   -2.7975 N   0  0  0  0  0  0  0  0  0  0  0  0
    0.7515    1.5806   -0.6470 C   0  0  0  0  0  0  0  0  0  0  0  0
    1.6976    0.4679   -0.7895 C   0  0  0  0  0  0  0  0  0  0  0  0
    2.5230    0.8621   -2.0250 C   0  0  0  0  0  0  0  0  0  0  0  0
    4.5850   -1.1077    0.7313 C   0  0  0  0  0  0  0  0  0  0  0  0
   -1.6191    0.8290   -1.3036 C   0  0  0  0  0  0  0  0  0  0  0  0
   -1.6049   -1.6715   -1.4773 C   0  0  0  0  0  0  0  0  0  0  0  0
   -1.9587   -0.2827   -3.3759 F   0  0  0  0  0  0  0  0  0  0  0  0
   -2.7911    0.3868    0.7379 F   0  0  0  0  0  0  0  0  0  0  0  0
   -5.0963   -0.5128   -0.6839 N   0  0  0  0  0  0  0  0  0  0  0  0
   -5.3404   -0.6767    0.8647 S   0  0  0  0  0  0  0  0  0  0  0  0
   -6.9751   -1.6127    0.8429 O   0  0  0  0  0  0  0  0  0  0  0  0
   -4.4870   -1.2778    1.7582 O   0  0  0  0  0  0  0  0  0  0  0  0
   -6.0277    0.8933    1.4593 C   0  0  0  0  0  0  0  0  0  0  0  0
   -7.2800    1.2052    0.7456 C   0  0  0  0  0  0  0  0  0  0  0  0
   -8.4274    0.2916    0.9395 C   0  0  0  0  0  0  0  0  0  0  0  0
    5.8271   -1.8275    0.3023 C   0  0  0  0  0  0  0  0  0  0  0  0
    6.9825   -0.8983    0.0321 C   0  0  0  0  0  0  0  0  0  0  0  0
    6.3122   -0.1868    2.2888 C   0  0  0  0  0  0  0  0  0  0  0  0
    4.8469   -0.3237    2.0036 C   0  0  0  0  0  0  0  0  0  0  0  0
    8.7524    0.5062    1.5125 Cl  0  0  0  0  0  0  0  0  0  0  0  0
   -1.1553    2.5513    0.2331 O   0  0  0  0  0  0  0  0  0  0  0  0
    6.6772    1.1884    0.6438 H   0  0  0  0  0  0  0  0  0  0  0  0
    0.1779    3.0811   -2.1470 H   0  0  0  0  0  0  0  0  0  0  0  0
    1.8742    3.2053   -1.5350 H   0  0  0  0  0  0  0  0  0  0  0  0
   -0.6646    0.6317    0.5741 H   0  0  0  0  0  0  0  0  0  0  0  0
   -3.5934    1.6229   -0.7140 H   0  0  0  0  0  0  0  0  0  0  0  0
   -3.8946   -0.3051   -2.3201 H   0  0  0  0  0  0  0  0  0  0  0  0
   -2.8789   -1.7997    0.1890 H   0  0  0  0  0  0  0  0  0  0  0  0
   -3.5568   -2.6216   -1.2393 H   0  0  0  0  0  0  0  0  0  0  0  0
   -0.2311   -0.3477   -2.4152 H   0  0  0  0  0  0  0  0  0  0  0  0
    4.7277    0.4684   -0.6711 H   0  0  0  0  0  0  0  0  0  0  0  0
    2.9446   -1.9510   -1.1319 H   0  0  0  0  0  0  0  0  0  0  0  0
    4.5283   -1.5319   -1.9063 H   0  0  0  0  0  0  0  0  0  0  0  0
    2.0925   -0.9228   -2.8426 H   0  0  0  0  0  0  0  0  0  0  0  0
    2.4162   -0.0446    1.2241 H   0  0  0  0  0  0  0  0  0  0  0  0
    3.0451    1.4822    0.5276 H   0  0  0  0  0  0  0  0  0  0  0  0
    2.0371    2.1807   -3.5548 H   0  0  0  0  0  0  0  0  0  0  0  0
    1.1665    2.1804    0.2774 H   0  0  0  0  0  0  0  0  0  0  0  0
    1.3265   -0.5472   -0.8601 H   0  0  0  0  0  0  0  0  0  0  0  0
    3.3698    1.5273   -1.7456 H   0  0  0  0  0  0  0  0  0  0  0  0
    3.8363   -1.9012    1.0061 H   0  0  0  0  0  0  0  0  0  0  0  0
   -1.8224    1.6726   -2.0561 H   0  0  0  0  0  0  0  0  0  0  0  0
   -1.5383   -2.4502   -2.2667 H   0  0  0  0  0  0  0  0  0  0  0  0
   -0.8248   -1.9220   -0.7257 H   0  0  0  0  0  0  0  0  0  0  0  0
   -5.6100   -1.1772   -1.3281 H   0  0  0  0  0  0  0  0  0  0  0  0
   -6.6118   -2.5365    0.9737 H   0  0  0  0  0  0  0  0  0  0  0  0
   -4.3298   -2.1166    2.2572 H   0  0  0  0  0  0  0  0  0  0  0  0
   -6.1683    0.7826    2.5663 H   0  0  0  0  0  0  0  0  0  0  0  0
   -5.2214    1.6502    1.2819 H   0  0  0  0  0  0  0  0  0  0  0  0
   -7.6142    2.2336    1.0954 H   0  0  0  0  0  0  0  0  0  0  0  0
   -7.1078    1.3681   -0.3642 H   0  0  0  0  0  0  0  0  0  0  0  0
   -9.3946    0.9140    1.0657 H   0  0  0  0  0  0  0  0  0  0  0  0
   -8.3697   -0.2627    1.8933 H   0  0  0  0  0  0  0  0  0  0  0  0
   -8.6233   -0.3775    0.0675 H   0  0  0  0  0  0  0  0  0  0  0  0
    6.1395   -2.4606    1.1816 H   0  0  0  0  0  0  0  0  0  0  0  0
    5.6346   -2.5193   -0.5124 H   0  0  0  0  0  0  0  0  0  0  0  0
    6.9973   -0.4858   -0.9846 H   0  0  0  0  0  0  0  0  0  0  0  0
    7.9287   -1.5000    0.1339 H   0  0  0  0  0  0  0  0  0  0  0  0
    6.7756   -1.1182    2.6567 H   0  0  0  0  0  0  0  0  0  0  0  0
    6.4623    0.5933    3.0568 H   0  0  0  0  0  0  0  0  0  0  0  0
    4.4395    0.7206    1.9057 H   0  0  0  0  0  0  0  0  0  0  0  0
    4.3525   -0.7716    2.8882 H   0  0  0  0  0  0  0  0  0  0  0  0
   -1.7299    2.3927    0.9925 H   0  0  0  0  0  0  0  0  0  0  0  0
  4  5  1  0
  5  6  1  0
  8  9  1  0
  9 10  1  0
  8 11  1  0
  2 12  1  0
  2 13  1  0
  3 13  1  0
 11 14  1  0
 13 14  1  0
 10 15  1  0
 12 15  1  0
 14 15  1  0
  8 16  1  0
  3 17  1  0
  4 17  1  0
  7 17  1  0
  6 18  1  0
  7 18  1  0
  7 19  1  0
  4 20  1  0
  5 21  1  0
 21 22  1  0
 22 23  1  0
 22 24  1  0
 22 25  1  0
 25 26  1  0
 26 27  1  0
 16 28  1  0
  1 29  1  0
 28 29  1  0
  1 30  1  0
 16 31  1  0
 30 31  1  0
  1 32  1  0
  3 33  1  0
  1 34  1  0
  2 35  1  0
  2 36  1  0
  3 37  1  0
  4 38  1  0
  5 39  1  0
  6 40  1  0
  6 41  1  0
  7 42  1  0
  8 43  1  0
  9 44  1  0
  9 45  1  0
 10 46  1  0
 11 47  1  0
 11 48  1  0
 12 49  1  0
 13 50  1  0
 14 51  1  0
 15 52  1  0
 16 53  1  0
 17 54  1  0
 18 55  1  0
 18 56  1  0
 21 57  1  0
 23 58  1  0
 24 59  1  0
 25 60  1  0
 25 61  1  0
 26 62  1  0
 26 63  1  0
 27 64  1  0
 27 65  1  0
 27 66  1  0
 28 67  1  0
 28 68  1  0
 29 69  1  0
 29 70  1  0
 30 71  1  0
 30 72  1  0
 31 73  1  0
 31 74  1  0
 33 75  1  0
M  END
>  <PDBID>  (1) 
3OG7

>  <PDB ID>  (1) 
3OG7

>  <Generic Name>  (1) 
Vemurafenib

>  <Brand Name>  (1) 
Zelboraf

>  <DrugBank ID>  (1) 
DB08881

>  <ATC Codes>  (1) 
L01XE15

>  <Ligand ID>  (1) 
32

>  <Target Name>  (1) 
Serine/threonine-protein kinase B-raf

>  <UniProt ID>  (1) 
P15056

>  <PDB ID.1>  (1) 
3OG7

>  <Seq. Identity>  (1) 
94%

$$$$
