PDB_DB08916_02
     RDKit          3D

158164  0  0  0  0  0  0  0  0999 V2000
   -3.3925    0.8383    2.5619 C   0  0  0  0  0  0  0  0  0  0  0  0
   -3.5592   -0.3474    1.7868 N   0  0  0  0  0  0  0  0  0  0  0  0
   -2.1599    1.5321    2.3638 N   0  0  0  0  0  0  0  0  0  0  0  0
   -3.2865   -0.1021    0.4073 C   0  0  0  0  0  0  0  0  0  0  0  0
   -1.9917    1.8791    0.9746 C   0  0  0  0  0  0  0  0  0  0  0  0
   -1.9431    0.5933    0.1798 C   0  0  0  0  0  0  0  0  0  0  0  0
    0.3783    0.5287    1.1518 C   0  0  0  0  0  0  0  0  0  0  0  0
   -0.8005   -0.2579    0.6253 C   0  0  0  0  0  0  0  0  0  0  0  0
    0.5218    1.9143    0.6776 C   0  0  0  0  0  0  0  0  0  0  0  0
   -0.7850    2.6954    0.6834 C   0  0  0  0  0  0  0  0  0  0  0  0
   -3.3640   -1.2536   -0.4372 N   0  0  0  0  0  0  0  0  0  0  0  0
   -6.9811   -2.1116   -0.7004 C   0  0  0  0  0  0  0  0  0  0  0  0
   -6.7748   -3.4844   -0.1158 C   0  0  0  0  0  0  0  0  0  0  0  0
   -5.7619   -1.2246   -0.4992 C   0  0  0  0  0  0  0  0  0  0  0  0
   -5.6516   -4.1648   -0.8601 C   0  0  0  0  0  0  0  0  0  0  0  0
   -4.5363   -2.0318   -0.1951 C   0  0  0  0  0  0  0  0  0  0  0  0
   -4.4594   -3.2668   -1.0714 C   0  0  0  0  0  0  0  0  0  0  0  0
   -6.5238   -3.4200    1.2420 F   0  0  0  0  0  0  0  0  0  0  0  0
   -8.4263   -1.3349   -0.0415 Cl  0  0  0  0  0  0  0  0  0  0  0  0
    1.4555    2.5676    1.5047 O   0  0  0  0  0  0  0  0  0  0  0  0
    2.5382    3.0682    0.8472 C   0  0  2  0  0  0  0  0  0  0  0  0
    3.8804    2.7047    1.4379 C   0  0  0  0  0  0  0  0  0  0  0  0
    4.7214    3.5599    0.7332 O   0  0  0  0  0  0  0  0  0  0  0  0
    4.1081    4.7781    0.6258 C   0  0  0  0  0  0  0  0  0  0  0  0
    2.6394    4.6009    0.9925 C   0  0  0  0  0  0  0  0  0  0  0  0
    1.5618   -0.2016    1.2731 N   0  0  0  0  0  0  0  0  0  0  0  0
    2.1800   -0.8857    0.2307 C   0  0  0  0  0  0  0  0  0  0  0  0
    2.6607   -0.1108   -0.9581 C   0  0  0  0  0  0  0  0  0  0  0  0
    3.3642   -1.4781    0.7822 O   0  0  0  0  0  0  0  0  0  0  0  0
    3.3222   -0.9880   -2.0052 C   0  0  0  0  0  0  0  0  0  0  0  0
    4.5095   -1.7485   -1.5576 C   0  0  0  0  0  0  0  0  0  0  0  0
    5.5922   -0.9249   -1.0495 N   0  0  0  0  0  0  0  0  0  0  0  0
    6.7020   -1.7926   -0.6239 C   0  0  0  0  0  0  0  0  0  0  0  0
    6.1238   -0.0157   -2.0233 C   0  0  0  0  0  0  0  0  0  0  0  0
   -3.3925    0.8383    2.5619 C   0  0  0  0  0  0  0  0  0  0  0  0
   -3.5592   -0.3474    1.7868 N   0  0  0  0  0  0  0  0  0  0  0  0
   -2.1599    1.5321    2.3638 N   0  0  0  0  0  0  0  0  0  0  0  0
   -3.2865   -0.1021    0.4073 C   0  0  0  0  0  0  0  0  0  0  0  0
   -1.9917    1.8791    0.9746 C   0  0  0  0  0  0  0  0  0  0  0  0
   -1.9431    0.5933    0.1798 C   0  0  0  0  0  0  0  0  0  0  0  0
    0.3783    0.5287    1.1518 C   0  0  0  0  0  0  0  0  0  0  0  0
   -0.8005   -0.2579    0.6253 C   0  0  0  0  0  0  0  0  0  0  0  0
    0.5218    1.9143    0.6776 C   0  0  0  0  0  0  0  0  0  0  0  0
   -0.7850    2.6954    0.6834 C   0  0  0  0  0  0  0  0  0  0  0  0
   -3.3640   -1.2536   -0.4372 N   0  0  0  0  0  0  0  0  0  0  0  0
   -6.9811   -2.1116   -0.7004 C   0  0  0  0  0  0  0  0  0  0  0  0
   -6.7748   -3.4844   -0.1158 C   0  0  0  0  0  0  0  0  0  0  0  0
   -5.7619   -1.2246   -0.4992 C   0  0  0  0  0  0  0  0  0  0  0  0
   -5.6516   -4.1648   -0.8601 C   0  0  0  0  0  0  0  0  0  0  0  0
   -4.5363   -2.0318   -0.1951 C   0  0  0  0  0  0  0  0  0  0  0  0
   -4.4594   -3.2668   -1.0714 C   0  0  0  0  0  0  0  0  0  0  0  0
   -6.5238   -3.4200    1.2420 F   0  0  0  0  0  0  0  0  0  0  0  0
   -8.4263   -1.3349   -0.0415 Cl  0  0  0  0  0  0  0  0  0  0  0  0
    1.4555    2.5676    1.5047 O   0  0  0  0  0  0  0  0  0  0  0  0
    2.5382    3.0682    0.8472 C   0  0  2  0  0  0  0  0  0  0  0  0
    3.8804    2.7047    1.4379 C   0  0  0  0  0  0  0  0  0  0  0  0
    4.7214    3.5599    0.7332 O   0  0  0  0  0  0  0  0  0  0  0  0
    4.1081    4.7781    0.6258 C   0  0  0  0  0  0  0  0  0  0  0  0
    2.6394    4.6009    0.9925 C   0  0  0  0  0  0  0  0  0  0  0  0
    1.5618   -0.2016    1.2731 N   0  0  0  0  0  0  0  0  0  0  0  0
    2.1800   -0.8857    0.2307 C   0  0  0  0  0  0  0  0  0  0  0  0
    2.6607   -0.1108   -0.9581 C   0  0  0  0  0  0  0  0  0  0  0  0
    3.3642   -1.4781    0.7822 O   0  0  0  0  0  0  0  0  0  0  0  0
    3.3222   -0.9880   -2.0052 C   0  0  0  0  0  0  0  0  0  0  0  0
    4.5095   -1.7485   -1.5576 C   0  0  0  0  0  0  0  0  0  0  0  0
    5.5922   -0.9249   -1.0495 N   0  0  0  0  0  0  0  0  0  0  0  0
    6.7020   -1.7926   -0.6239 C   0  0  0  0  0  0  0  0  0  0  0  0
    6.1238   -0.0157   -2.0233 C   0  0  0  0  0  0  0  0  0  0  0  0
   -3.4031    0.5172    3.6454 H   0  0  0  0  0  0  0  0  0  0  0  0
   -4.2863    1.5061    2.4682 H   0  0  0  0  0  0  0  0  0  0  0  0
   -3.1831   -1.2099    2.1868 H   0  0  0  0  0  0  0  0  0  0  0  0
   -2.1529    2.3922    2.9272 H   0  0  0  0  0  0  0  0  0  0  0  0
   -4.0532    0.6295    0.0427 H   0  0  0  0  0  0  0  0  0  0  0  0
   -2.8949    2.4213    0.6148 H   0  0  0  0  0  0  0  0  0  0  0  0
   -1.9019    0.7957   -0.9196 H   0  0  0  0  0  0  0  0  0  0  0  0
    0.0366    0.6702    2.2906 H   0  0  0  0  0  0  0  0  0  0  0  0
   -0.4795   -0.8472   -0.2822 H   0  0  0  0  0  0  0  0  0  0  0  0
   -1.0665   -1.0316    1.3714 H   0  0  0  0  0  0  0  0  0  0  0  0
    0.9255    1.9747   -0.3311 H   0  0  0  0  0  0  0  0  0  0  0  0
   -0.9280    3.2243   -0.2798 H   0  0  0  0  0  0  0  0  0  0  0  0
   -0.7405    3.5099    1.4564 H   0  0  0  0  0  0  0  0  0  0  0  0
   -2.4942   -1.7763   -0.5709 H   0  0  0  0  0  0  0  0  0  0  0  0
   -7.1287   -2.2298   -1.7932 H   0  0  0  0  0  0  0  0  0  0  0  0
   -7.7046   -4.0596   -0.3212 H   0  0  0  0  0  0  0  0  0  0  0  0
   -5.9844   -0.6224    0.4164 H   0  0  0  0  0  0  0  0  0  0  0  0
   -5.6413   -0.5201   -1.3231 H   0  0  0  0  0  0  0  0  0  0  0  0
   -6.0587   -4.4599   -1.8494 H   0  0  0  0  0  0  0  0  0  0  0  0
   -5.3484   -5.1227   -0.3641 H   0  0  0  0  0  0  0  0  0  0  0  0
   -4.5350   -2.3434    0.8690 H   0  0  0  0  0  0  0  0  0  0  0  0
   -4.3409   -2.9364   -2.1104 H   0  0  0  0  0  0  0  0  0  0  0  0
   -3.5568   -3.8244   -0.7939 H   0  0  0  0  0  0  0  0  0  0  0  0
    2.5580    2.8818   -0.2430 H   0  0  0  0  0  0  0  0  0  0  0  0
    3.8884    2.9774    2.5299 H   0  0  0  0  0  0  0  0  0  0  0  0
    4.2034    1.6808    1.2662 H   0  0  0  0  0  0  0  0  0  0  0  0
    4.5724    5.6058    1.1576 H   0  0  0  0  0  0  0  0  0  0  0  0
    4.0902    5.0387   -0.4745 H   0  0  0  0  0  0  0  0  0  0  0  0
    1.9666    5.0940    0.2852 H   0  0  0  0  0  0  0  0  0  0  0  0
    2.5144    4.9135    2.0462 H   0  0  0  0  0  0  0  0  0  0  0  0
    1.8991   -0.4200    2.2345 H   0  0  0  0  0  0  0  0  0  0  0  0
    1.5895   -1.7699   -0.1470 H   0  0  0  0  0  0  0  0  0  0  0  0
    3.3663    0.6902   -0.7312 H   0  0  0  0  0  0  0  0  0  0  0  0
    1.7286    0.2678   -1.5043 H   0  0  0  0  0  0  0  0  0  0  0  0
    3.3193   -1.4799    1.7611 H   0  0  0  0  0  0  0  0  0  0  0  0
    3.5629   -0.4146   -2.9202 H   0  0  0  0  0  0  0  0  0  0  0  0
    2.5468   -1.7351   -2.3190 H   0  0  0  0  0  0  0  0  0  0  0  0
    4.3117   -2.5949   -0.9069 H   0  0  0  0  0  0  0  0  0  0  0  0
    4.9475   -2.2203   -2.5001 H   0  0  0  0  0  0  0  0  0  0  0  0
    6.8364   -2.6453   -1.3089 H   0  0  0  0  0  0  0  0  0  0  0  0
    6.4993   -2.1578    0.4203 H   0  0  0  0  0  0  0  0  0  0  0  0
    7.6415   -1.2085   -0.5527 H   0  0  0  0  0  0  0  0  0  0  0  0
    5.6325    0.9853   -2.0229 H   0  0  0  0  0  0  0  0  0  0  0  0
    6.1904   -0.4573   -3.0431 H   0  0  0  0  0  0  0  0  0  0  0  0
    7.1939    0.1960   -1.7290 H   0  0  0  0  0  0  0  0  0  0  0  0
   -3.4031    0.5172    3.6454 H   0  0  0  0  0  0  0  0  0  0  0  0
   -4.2863    1.5061    2.4682 H   0  0  0  0  0  0  0  0  0  0  0  0
   -3.1831   -1.2099    2.1868 H   0  0  0  0  0  0  0  0  0  0  0  0
   -2.1529    2.3922    2.9272 H   0  0  0  0  0  0  0  0  0  0  0  0
   -4.0532    0.6295    0.0427 H   0  0  0  0  0  0  0  0  0  0  0  0
   -2.8949    2.4213    0.6148 H   0  0  0  0  0  0  0  0  0  0  0  0
   -1.9019    0.7957   -0.9196 H   0  0  0  0  0  0  0  0  0  0  0  0
    0.0366    0.6702    2.2906 H   0  0  0  0  0  0  0  0  0  0  0  0
   -0.4795   -0.8472   -0.2822 H   0  0  0  0  0  0  0  0  0  0  0  0
   -1.0665   -1.0316    1.3714 H   0  0  0  0  0  0  0  0  0  0  0  0
    0.9255    1.9747   -0.3311 H   0  0  0  0  0  0  0  0  0  0  0  0
   -0.9280    3.2243   -0.2798 H   0  0  0  0  0  0  0  0  0  0  0  0
   -0.7405    3.5099    1.4564 H   0  0  0  0  0  0  0  0  0  0  0  0
   -2.4942   -1.7763   -0.5709 H   0  0  0  0  0  0  0  0  0  0  0  0
   -7.1287   -2.2298   -1.7932 H   0  0  0  0  0  0  0  0  0  0  0  0
   -7.7046   -4.0596   -0.3212 H   0  0  0  0  0  0  0  0  0  0  0  0
   -5.9844   -0.6224    0.4164 H   0  0  0  0  0  0  0  0  0  0  0  0
   -5.6413   -0.5201   -1.3231 H   0  0  0  0  0  0  0  0  0  0  0  0
   -6.0587   -4.4599   -1.8494 H   0  0  0  0  0  0  0  0  0  0  0  0
   -5.3484   -5.1227   -0.3641 H   0  0  0  0  0  0  0  0  0  0  0  0
   -4.5350   -2.3434    0.8690 H   0  0  0  0  0  0  0  0  0  0  0  0
   -4.3409   -2.9364   -2.1104 H   0  0  0  0  0  0  0  0  0  0  0  0
   -3.5568   -3.8244   -0.7939 H   0  0  0  0  0  0  0  0  0  0  0  0
    2.5580    2.8818   -0.2430 H   0  0  0  0  0  0  0  0  0  0  0  0
    3.8884    2.9774    2.5299 H   0  0  0  0  0  0  0  0  0  0  0  0
    4.2034    1.6808    1.2662 H   0  0  0  0  0  0  0  0  0  0  0  0
    4.5724    5.6058    1.1576 H   0  0  0  0  0  0  0  0  0  0  0  0
    4.0902    5.0387   -0.4745 H   0  0  0  0  0  0  0  0  0  0  0  0
    1.9666    5.0940    0.2852 H   0  0  0  0  0  0  0  0  0  0  0  0
    2.5144    4.9135    2.0462 H   0  0  0  0  0  0  0  0  0  0  0  0
    1.8991   -0.4200    2.2345 H   0  0  0  0  0  0  0  0  0  0  0  0
    1.5895   -1.7699   -0.1470 H   0  0  0  0  0  0  0  0  0  0  0  0
    3.3663    0.6902   -0.7312 H   0  0  0  0  0  0  0  0  0  0  0  0
    1.7286    0.2678   -1.5043 H   0  0  0  0  0  0  0  0  0  0  0  0
    3.3193   -1.4799    1.7611 H   0  0  0  0  0  0  0  0  0  0  0  0
    3.5629   -0.4146   -2.9202 H   0  0  0  0  0  0  0  0  0  0  0  0
    2.5468   -1.7351   -2.3190 H   0  0  0  0  0  0  0  0  0  0  0  0
    4.3117   -2.5949   -0.9069 H   0  0  0  0  0  0  0  0  0  0  0  0
    4.9475   -2.2203   -2.5001 H   0  0  0  0  0  0  0  0  0  0  0  0
    6.8364   -2.6453   -1.3089 H   0  0  0  0  0  0  0  0  0  0  0  0
    6.4993   -2.1578    0.4203 H   0  0  0  0  0  0  0  0  0  0  0  0
    7.6415   -1.2085   -0.5527 H   0  0  0  0  0  0  0  0  0  0  0  0
    5.6325    0.9853   -2.0229 H   0  0  0  0  0  0  0  0  0  0  0  0
    6.1904   -0.4573   -3.0431 H   0  0  0  0  0  0  0  0  0  0  0  0
    7.1939    0.1960   -1.7290 H   0  0  0  0  0  0  0  0  0  0  0  0
  1  2  1  0
  1  3  1  0
  2  4  1  0
  3  5  1  0
  4  6  1  0
  5  6  1  0
  6  8  1  0
  7  8  1  0
  7  9  1  0
  5 10  1  0
  9 10  1  0
  4 11  1  0
 12 13  1  0
 12 14  1  0
 13 15  1  0
 11 16  1  0
 14 16  1  0
 15 17  1  0
 16 17  1  0
 13 18  1  0
 12 19  1  0
  9 20  1  0
 20 21  1  0
 21 22  1  0
 22 23  1  0
 23 24  1  0
 21 25  1  0
 24 25  1  0
  7 26  1  0
 26 27  1  0
 27 28  1  0
 27 29  1  0
 28 30  1  0
 30 31  1  0
 31 32  1  0
 32 33  1  0
 32 34  1  0
 35 36  1  0
 35 37  1  0
 36 38  1  0
 37 39  1  0
 38 40  1  0
 39 40  1  0
 40 42  1  0
 41 42  1  0
 41 43  1  0
 39 44  1  0
 43 44  1  0
 38 45  1  0
 46 47  1  0
 46 48  1  0
 47 49  1  0
 45 50  1  0
 48 50  1  0
 49 51  1  0
 50 51  1  0
 47 52  1  0
 46 53  1  0
 43 54  1  0
 54 55  1  0
 55 56  1  0
 56 57  1  0
 57 58  1  0
 55 59  1  0
 58 59  1  0
 41 60  1  0
 60 61  1  0
 61 62  1  0
 61 63  1  0
 62 64  1  0
 64 65  1  0
 65 66  1  0
 66 67  1  0
 66 68  1  0
  1 69  1  0
  1 70  1  0
  2 71  1  0
  3 72  1  0
  4 73  1  0
  5 74  1  0
  6 75  1  0
  7 76  1  0
  8 77  1  0
  8 78  1  0
  9 79  1  0
 10 80  1  0
 10 81  1  0
 11 82  1  0
 12 83  1  0
 13 84  1  0
 14 85  1  0
 14 86  1  0
 15 87  1  0
 15 88  1  0
 16 89  1  0
 17 90  1  0
 17 91  1  0
 21 92  1  6
 22 93  1  0
 22 94  1  0
 24 95  1  0
 24 96  1  0
 25 97  1  0
 25 98  1  0
 26 99  1  0
 27100  1  0
 28101  1  0
 28102  1  0
 29103  1  0
 30104  1  0
 30105  1  0
 31106  1  0
 31107  1  0
 33108  1  0
 33109  1  0
 33110  1  0
 34111  1  0
 34112  1  0
 34113  1  0
 35114  1  0
 35115  1  0
 36116  1  0
 37117  1  0
 38118  1  0
 39119  1  0
 40120  1  0
 41121  1  0
 42122  1  0
 42123  1  0
 43124  1  0
 44125  1  0
 44126  1  0
 45127  1  0
 46128  1  0
 47129  1  0
 48130  1  0
 48131  1  0
 49132  1  0
 49133  1  0
 50134  1  0
 51135  1  0
 51136  1  0
 55137  1  6
 56138  1  0
 56139  1  0
 58140  1  0
 58141  1  0
 59142  1  0
 59143  1  0
 60144  1  0
 61145  1  0
 62146  1  0
 62147  1  0
 63148  1  0
 64149  1  0
 64150  1  0
 65151  1  0
 65152  1  0
 67153  1  0
 67154  1  0
 67155  1  0
 68156  1  0
 68157  1  0
 68158  1  0
M  END
>  <PDBID>  (1) 
4G5J

>  <PDB ID>  (1) 
4G5J

>  <Generic Name>  (1) 
Afatinib

>  <Brand Name>  (1) 
Gilotrif#Giotrif

>  <DrugBank ID>  (1) 
DB08916

>  <ATC Codes>  (1) 
L01XE13

>  <Ligand ID>  (1) 
0WM

>  <Target Name>  (1) 
Receptor tyrosine-protein kinase erbB-2

>  <UniProt ID>  (1) 
P04626

>  <PDB ID.1>  (1) 
4G5J

>  <Seq. Identity>  (1) 
78%

$$$$
