PDB_DB00552_04
     RDKit          3D

164172  0  0  0  0  0  0  0  0999 V2000
    1.7164   -2.2184   -1.1314 N   0  0  0  0  0  0  0  0  0  0  0  0
    0.3257   -2.0847   -0.7170 C   0  0  0  0  0  0  0  0  0  0  0  0
   -0.0417   -0.8408   -1.3012 N   0  0  0  0  0  0  0  0  0  0  0  0
    2.2961   -0.8676   -1.0329 C   0  0  1  0  0  0  0  0  0  0  0  0
    1.1088   -0.0002   -1.1971 C   0  0  2  0  0  0  0  0  0  0  0  0
    0.9629    1.0260   -0.1921 N   0  0  0  0  0  0  0  0  0  0  0  0
    1.9219    2.0539   -0.4625 C   0  0  0  0  0  0  0  0  0  0  0  0
    3.2943    1.5776   -0.3064 N   0  0  0  0  0  0  0  0  0  0  0  0
    3.3921    0.5730    0.7128 C   0  0  0  0  0  0  0  0  0  0  0  0
    2.9873   -0.7881    0.2786 C   0  0  1  0  0  0  0  0  0  0  0  0
    2.2330   -1.3946    1.3071 O   0  0  0  0  0  0  0  0  0  0  0  0
   -2.4864   -0.9918   -1.0728 C   0  0  0  0  0  0  0  0  0  0  0  0
   -3.4725   -0.1538   -0.2572 C   0  0  2  0  0  0  0  0  0  0  0  0
   -4.1959    0.7031   -1.0662 O   0  0  0  0  0  0  0  0  0  0  0  0
   -3.3194   -0.2225    2.6165 O   0  0  0  0  0  0  0  0  0  0  0  0
   -3.0160    0.9537    1.9311 C   0  0  0  0  0  0  0  0  0  0  0  0
   -2.5040    0.7028    0.5634 C   0  0  1  0  0  0  0  0  0  0  0  0
   -1.3010   -0.0454    0.5538 O   0  0  0  0  0  0  0  0  0  0  0  0
   -1.2173   -0.2354   -0.8318 C   0  0  1  0  0  0  0  0  0  0  0  0
    1.7181   -2.2133   -1.0816 N   0  0  0  0  0  0  0  0  0  0  0  0
    0.2947   -2.1075   -0.7118 C   0  0  0  0  0  0  0  0  0  0  0  0
   -0.0651   -0.8722   -1.3033 N   0  0  0  0  0  0  0  0  0  0  0  0
    2.2475   -0.8511   -0.9866 C   0  0  0  0  0  0  0  0  0  0  0  0
    1.0617   -0.0013   -1.2550 C   0  0  2  0  0  0  0  0  0  0  0  0
    0.9026    1.1315   -0.3961 N   0  0  0  0  0  0  0  0  0  0  0  0
    2.0536    1.9885   -0.5164 C   0  0  0  0  0  0  0  0  0  0  0  0
    2.9479    1.7464    0.5353 N   0  0  0  0  0  0  0  0  0  0  0  0
    3.6607    0.5520    0.5563 C   0  0  0  0  0  0  0  0  0  0  0  0
    2.8644   -0.7114    0.3641 C   0  0  1  0  0  0  0  0  0  0  0  0
    1.9648   -0.9468    1.4026 O   0  0  0  0  0  0  0  0  0  0  0  0
   -2.5264   -1.0064   -1.1285 C   0  0  0  0  0  0  0  0  0  0  0  0
   -3.4833   -0.1656   -0.2668 C   0  0  2  0  0  0  0  0  0  0  0  0
   -4.2086    0.7009   -1.0729 O   0  0  0  0  0  0  0  0  0  0  0  0
   -3.3651   -0.2684    2.5364 O   0  0  0  0  0  0  0  0  0  0  0  0
   -3.0066    0.9313    1.9292 C   0  0  0  0  0  0  0  0  0  0  0  0
   -2.5125    0.7015    0.5462 C   0  0  1  0  0  0  0  0  0  0  0  0
   -1.3498   -0.1093    0.5197 O   0  0  0  0  0  0  0  0  0  0  0  0
   -1.2433   -0.2515   -0.8678 C   0  0  1  0  0  0  0  0  0  0  0  0
    1.7164   -2.2184   -1.1314 N   0  0  0  0  0  0  0  0  0  0  0  0
    0.3257   -2.0847   -0.7170 C   0  0  0  0  0  0  0  0  0  0  0  0
   -0.0417   -0.8408   -1.3012 N   0  0  0  0  0  0  0  0  0  0  0  0
    2.2961   -0.8676   -1.0329 C   0  0  1  0  0  0  0  0  0  0  0  0
    1.1088   -0.0002   -1.1971 C   0  0  2  0  0  0  0  0  0  0  0  0
    0.9629    1.0260   -0.1921 N   0  0  0  0  0  0  0  0  0  0  0  0
    1.9219    2.0539   -0.4625 C   0  0  0  0  0  0  0  0  0  0  0  0
    3.2943    1.5776   -0.3064 N   0  0  0  0  0  0  0  0  0  0  0  0
    3.3921    0.5730    0.7128 C   0  0  0  0  0  0  0  0  0  0  0  0
    2.9873   -0.7881    0.2786 C   0  0  1  0  0  0  0  0  0  0  0  0
    2.2330   -1.3946    1.3071 O   0  0  0  0  0  0  0  0  0  0  0  0
   -2.4864   -0.9918   -1.0728 C   0  0  0  0  0  0  0  0  0  0  0  0
   -3.4725   -0.1538   -0.2572 C   0  0  2  0  0  0  0  0  0  0  0  0
   -4.1959    0.7031   -1.0662 O   0  0  0  0  0  0  0  0  0  0  0  0
   -3.3194   -0.2225    2.6165 O   0  0  0  0  0  0  0  0  0  0  0  0
   -3.0160    0.9537    1.9311 C   0  0  0  0  0  0  0  0  0  0  0  0
   -2.5040    0.7028    0.5634 C   0  0  1  0  0  0  0  0  0  0  0  0
   -1.3010   -0.0454    0.5538 O   0  0  0  0  0  0  0  0  0  0  0  0
   -1.2173   -0.2354   -0.8318 C   0  0  1  0  0  0  0  0  0  0  0  0
    1.7164   -2.2184   -1.1314 N   0  0  0  0  0  0  0  0  0  0  0  0
    0.3257   -2.0847   -0.7170 C   0  0  0  0  0  0  0  0  0  0  0  0
   -0.0417   -0.8408   -1.3012 N   0  0  0  0  0  0  0  0  0  0  0  0
    2.2961   -0.8676   -1.0329 C   0  0  1  0  0  0  0  0  0  0  0  0
    1.1088   -0.0002   -1.1971 C   0  0  2  0  0  0  0  0  0  0  0  0
    0.9629    1.0260   -0.1921 N   0  0  0  0  0  0  0  0  0  0  0  0
    1.9219    2.0539   -0.4625 C   0  0  0  0  0  0  0  0  0  0  0  0
    3.2943    1.5776   -0.3064 N   0  0  0  0  0  0  0  0  0  0  0  0
    3.3921    0.5730    0.7128 C   0  0  0  0  0  0  0  0  0  0  0  0
    2.9873   -0.7881    0.2786 C   0  0  1  0  0  0  0  0  0  0  0  0
    2.2330   -1.3946    1.3071 O   0  0  0  0  0  0  0  0  0  0  0  0
   -2.4864   -0.9918   -1.0728 C   0  0  0  0  0  0  0  0  0  0  0  0
   -3.4725   -0.1538   -0.2572 C   0  0  2  0  0  0  0  0  0  0  0  0
   -4.1959    0.7031   -1.0662 O   0  0  0  0  0  0  0  0  0  0  0  0
   -3.3194   -0.2225    2.6165 O   0  0  0  0  0  0  0  0  0  0  0  0
   -3.0160    0.9537    1.9311 C   0  0  0  0  0  0  0  0  0  0  0  0
   -2.5040    0.7028    0.5634 C   0  0  1  0  0  0  0  0  0  0  0  0
   -1.3010   -0.0454    0.5538 O   0  0  0  0  0  0  0  0  0  0  0  0
   -1.2173   -0.2354   -0.8318 C   0  0  1  0  0  0  0  0  0  0  0  0
    2.1999   -2.8740   -0.4934 H   0  0  0  0  0  0  0  0  0  0  0  0
    0.2086   -2.1189    0.3848 H   0  0  0  0  0  0  0  0  0  0  0  0
   -0.2475   -2.8821   -1.2000 H   0  0  0  0  0  0  0  0  0  0  0  0
    3.0221   -0.8104   -1.8757 H   0  0  0  0  0  0  0  0  0  0  0  0
    1.2181    0.5418   -2.1751 H   0  0  0  0  0  0  0  0  0  0  0  0
    1.0210    0.5995    0.7394 H   0  0  0  0  0  0  0  0  0  0  0  0
    1.8261    2.3032   -1.5586 H   0  0  0  0  0  0  0  0  0  0  0  0
    1.7449    2.9826    0.1286 H   0  0  0  0  0  0  0  0  0  0  0  0
    3.9355    2.3722   -0.0406 H   0  0  0  0  0  0  0  0  0  0  0  0
    4.4679    0.5782    1.0578 H   0  0  0  0  0  0  0  0  0  0  0  0
    2.8309    0.9261    1.6266 H   0  0  0  0  0  0  0  0  0  0  0  0
    3.9149   -1.4286    0.1977 H   0  0  0  0  0  0  0  0  0  0  0  0
    2.6357   -1.0907    2.1582 H   0  0  0  0  0  0  0  0  0  0  0  0
   -2.4516   -2.0005   -0.6005 H   0  0  0  0  0  0  0  0  0  0  0  0
   -2.8410   -1.0049   -2.1013 H   0  0  0  0  0  0  0  0  0  0  0  0
   -4.0964   -0.7827    0.4137 H   0  0  0  0  0  0  0  0  0  0  0  0
   -3.9590    1.6471   -1.0013 H   0  0  0  0  0  0  0  0  0  0  0  0
   -4.3049   -0.2556    2.8300 H   0  0  0  0  0  0  0  0  0  0  0  0
   -2.2826    1.5808    2.4798 H   0  0  0  0  0  0  0  0  0  0  0  0
   -3.9442    1.5526    1.8674 H   0  0  0  0  0  0  0  0  0  0  0  0
   -2.2652    1.6556    0.0542 H   0  0  0  0  0  0  0  0  0  0  0  0
   -1.3176    0.7618   -1.2865 H   0  0  0  0  0  0  0  0  0  0  0  0
    2.2411   -2.8298   -0.4372 H   0  0  0  0  0  0  0  0  0  0  0  0
    0.1916   -2.1365    0.3924 H   0  0  0  0  0  0  0  0  0  0  0  0
   -0.2420   -2.9418   -1.2054 H   0  0  0  0  0  0  0  0  0  0  0  0
    3.0678   -0.6968   -1.7340 H   0  0  0  0  0  0  0  0  0  0  0  0
    1.1876    0.4172   -2.2975 H   0  0  0  0  0  0  0  0  0  0  0  0
    0.7706    0.9041    0.6047 H   0  0  0  0  0  0  0  0  0  0  0  0
    2.4744    1.8576   -1.5361 H   0  0  0  0  0  0  0  0  0  0  0  0
    1.6741    3.0423   -0.4407 H   0  0  0  0  0  0  0  0  0  0  0  0
    3.1942    2.4991    1.1646 H   0  0  0  0  0  0  0  0  0  0  0  0
    4.5113    0.5009   -0.1830 H   0  0  0  0  0  0  0  0  0  0  0  0
    4.1696    0.4442    1.5566 H   0  0  0  0  0  0  0  0  0  0  0  0
    3.6194   -1.5530    0.4494 H   0  0  0  0  0  0  0  0  0  0  0  0
    2.4628   -0.7620    2.2443 H   0  0  0  0  0  0  0  0  0  0  0  0
   -2.4856   -2.0052   -0.6489 H   0  0  0  0  0  0  0  0  0  0  0  0
   -2.8424   -1.0341   -2.1716 H   0  0  0  0  0  0  0  0  0  0  0  0
   -4.1152   -0.7940    0.3654 H   0  0  0  0  0  0  0  0  0  0  0  0
   -3.9620    1.6489   -0.9598 H   0  0  0  0  0  0  0  0  0  0  0  0
   -4.2776   -0.2241    2.9099 H   0  0  0  0  0  0  0  0  0  0  0  0
   -2.1535    1.4026    2.4974 H   0  0  0  0  0  0  0  0  0  0  0  0
   -3.8376    1.6493    1.9113 H   0  0  0  0  0  0  0  0  0  0  0  0
   -2.2517    1.6201    0.0294 H   0  0  0  0  0  0  0  0  0  0  0  0
   -1.3523    0.7439   -1.3141 H   0  0  0  0  0  0  0  0  0  0  0  0
    2.1999   -2.8740   -0.4934 H   0  0  0  0  0  0  0  0  0  0  0  0
    0.2086   -2.1189    0.3848 H   0  0  0  0  0  0  0  0  0  0  0  0
   -0.2475   -2.8821   -1.2000 H   0  0  0  0  0  0  0  0  0  0  0  0
    3.0221   -0.8104   -1.8757 H   0  0  0  0  0  0  0  0  0  0  0  0
    1.2181    0.5418   -2.1751 H   0  0  0  0  0  0  0  0  0  0  0  0
    1.0210    0.5995    0.7394 H   0  0  0  0  0  0  0  0  0  0  0  0
    1.8261    2.3032   -1.5586 H   0  0  0  0  0  0  0  0  0  0  0  0
    1.7449    2.9826    0.1286 H   0  0  0  0  0  0  0  0  0  0  0  0
    3.9355    2.3722   -0.0406 H   0  0  0  0  0  0  0  0  0  0  0  0
    4.4679    0.5782    1.0578 H   0  0  0  0  0  0  0  0  0  0  0  0
    2.8309    0.9261    1.6266 H   0  0  0  0  0  0  0  0  0  0  0  0
    3.9149   -1.4286    0.1977 H   0  0  0  0  0  0  0  0  0  0  0  0
    2.6357   -1.0907    2.1582 H   0  0  0  0  0  0  0  0  0  0  0  0
   -2.4516   -2.0005   -0.6005 H   0  0  0  0  0  0  0  0  0  0  0  0
   -2.8410   -1.0049   -2.1013 H   0  0  0  0  0  0  0  0  0  0  0  0
   -4.0964   -0.7827    0.4137 H   0  0  0  0  0  0  0  0  0  0  0  0
   -3.9590    1.6471   -1.0013 H   0  0  0  0  0  0  0  0  0  0  0  0
   -4.3049   -0.2556    2.8300 H   0  0  0  0  0  0  0  0  0  0  0  0
   -2.2826    1.5808    2.4798 H   0  0  0  0  0  0  0  0  0  0  0  0
   -3.9442    1.5526    1.8674 H   0  0  0  0  0  0  0  0  0  0  0  0
   -2.2652    1.6556    0.0542 H   0  0  0  0  0  0  0  0  0  0  0  0
   -1.3176    0.7618   -1.2865 H   0  0  0  0  0  0  0  0  0  0  0  0
    2.1999   -2.8740   -0.4934 H   0  0  0  0  0  0  0  0  0  0  0  0
    0.2086   -2.1189    0.3848 H   0  0  0  0  0  0  0  0  0  0  0  0
   -0.2475   -2.8821   -1.2000 H   0  0  0  0  0  0  0  0  0  0  0  0
    3.0221   -0.8104   -1.8757 H   0  0  0  0  0  0  0  0  0  0  0  0
    1.2181    0.5418   -2.1751 H   0  0  0  0  0  0  0  0  0  0  0  0
    1.0210    0.5995    0.7394 H   0  0  0  0  0  0  0  0  0  0  0  0
    1.8261    2.3032   -1.5586 H   0  0  0  0  0  0  0  0  0  0  0  0
    1.7449    2.9826    0.1286 H   0  0  0  0  0  0  0  0  0  0  0  0
    3.9355    2.3722   -0.0406 H   0  0  0  0  0  0  0  0  0  0  0  0
    4.4679    0.5782    1.0578 H   0  0  0  0  0  0  0  0  0  0  0  0
    2.8309    0.9261    1.6266 H   0  0  0  0  0  0  0  0  0  0  0  0
    3.9149   -1.4286    0.1977 H   0  0  0  0  0  0  0  0  0  0  0  0
    2.6357   -1.0907    2.1582 H   0  0  0  0  0  0  0  0  0  0  0  0
   -2.4516   -2.0005   -0.6005 H   0  0  0  0  0  0  0  0  0  0  0  0
   -2.8410   -1.0049   -2.1013 H   0  0  0  0  0  0  0  0  0  0  0  0
   -4.0964   -0.7827    0.4137 H   0  0  0  0  0  0  0  0  0  0  0  0
   -3.9590    1.6471   -1.0013 H   0  0  0  0  0  0  0  0  0  0  0  0
   -4.3049   -0.2556    2.8300 H   0  0  0  0  0  0  0  0  0  0  0  0
   -2.2826    1.5808    2.4798 H   0  0  0  0  0  0  0  0  0  0  0  0
   -3.9442    1.5526    1.8674 H   0  0  0  0  0  0  0  0  0  0  0  0
   -2.2652    1.6556    0.0542 H   0  0  0  0  0  0  0  0  0  0  0  0
   -1.3176    0.7618   -1.2865 H   0  0  0  0  0  0  0  0  0  0  0  0
  1  2  1  0
  2  3  1  0
  1  4  1  0
  3  5  1  0
  4  5  1  0
  5  6  1  0
  6  7  1  0
  7  8  1  0
  8  9  1  0
  4 10  1  0
  9 10  1  0
 10 11  1  0
 12 13  1  0
 13 14  1  0
 15 16  1  0
 13 17  1  0
 16 17  1  0
 17 18  1  0
  3 19  1  0
 12 19  1  0
 18 19  1  0
 20 21  1  0
 21 22  1  0
 20 23  1  0
 22 24  1  0
 23 24  1  0
 24 25  1  0
 25 26  1  0
 26 27  1  0
 27 28  1  0
 23 29  1  0
 28 29  1  0
 29 30  1  0
 31 32  1  0
 32 33  1  0
 34 35  1  0
 32 36  1  0
 35 36  1  0
 36 37  1  0
 22 38  1  0
 31 38  1  0
 37 38  1  0
 39 40  1  0
 40 41  1  0
 39 42  1  0
 41 43  1  0
 42 43  1  0
 43 44  1  0
 44 45  1  0
 45 46  1  0
 46 47  1  0
 42 48  1  0
 47 48  1  0
 48 49  1  0
 50 51  1  0
 51 52  1  0
 53 54  1  0
 51 55  1  0
 54 55  1  0
 55 56  1  0
 41 57  1  0
 50 57  1  0
 56 57  1  0
 58 59  1  0
 59 60  1  0
 58 61  1  0
 60 62  1  0
 61 62  1  0
 62 63  1  0
 63 64  1  0
 64 65  1  0
 65 66  1  0
 61 67  1  0
 66 67  1  0
 67 68  1  0
 69 70  1  0
 70 71  1  0
 72 73  1  0
 70 74  1  0
 73 74  1  0
 74 75  1  0
 60 76  1  0
 69 76  1  0
 75 76  1  0
  1 77  1  0
  2 78  1  0
  2 79  1  0
  4 80  1  6
  5 81  1  6
  6 82  1  0
  7 83  1  0
  7 84  1  0
  8 85  1  0
  9 86  1  0
  9 87  1  0
 10 88  1  6
 11 89  1  0
 12 90  1  0
 12 91  1  0
 13 92  1  1
 14 93  1  0
 15 94  1  0
 16 95  1  0
 16 96  1  0
 17 97  1  6
 19 98  1  6
 20 99  1  0
 21100  1  0
 21101  1  0
 23102  1  0
 24103  1  6
 25104  1  0
 26105  1  0
 26106  1  0
 27107  1  0
 28108  1  0
 28109  1  0
 29110  1  6
 30111  1  0
 31112  1  0
 31113  1  0
 32114  1  1
 33115  1  0
 34116  1  0
 35117  1  0
 35118  1  0
 36119  1  6
 38120  1  6
 39121  1  0
 40122  1  0
 40123  1  0
 42124  1  6
 43125  1  6
 44126  1  0
 45127  1  0
 45128  1  0
 46129  1  0
 47130  1  0
 47131  1  0
 48132  1  6
 49133  1  0
 50134  1  0
 50135  1  0
 51136  1  1
 52137  1  0
 53138  1  0
 54139  1  0
 54140  1  0
 55141  1  6
 57142  1  6
 58143  1  0
 59144  1  0
 59145  1  0
 61146  1  6
 62147  1  6
 63148  1  0
 64149  1  0
 64150  1  0
 65151  1  0
 66152  1  0
 66153  1  0
 67154  1  6
 68155  1  0
 69156  1  0
 69157  1  0
 70158  1  1
 71159  1  0
 72160  1  0
 73161  1  0
 73162  1  0
 74163  1  6
 76164  1  6
M  END
>  <PDBID>  (1) 
1A4L

>  <PDB ID>  (1) 
1A4L

>  <Generic Name>  (1) 
Pentostatin

>  <Brand Name>  (1) 
Nipent#Nipent Pws 10mg/vial

>  <DrugBank ID>  (1) 
DB00552

>  <ATC Codes>  (1) 
L01XX08

>  <Ligand ID>  (1) 
DCF

>  <Target Name>  (1) 
Adenosine deaminase

>  <UniProt ID>  (1) 
P00813

>  <PDB ID.1>  (1) 
1A4L

>  <Seq. Identity>  (1) 
83%

$$$$
