PDB_DB00755_08
     RDKit          3D

124124  0  0  0  0  0  0  0  0999 V2000
   -3.6566   -0.3474   -0.5427 C   0  0  0  0  0  0  0  0  0  0  0  0
   -4.5545    0.4630   -1.4385 C   0  0  0  0  0  0  0  0  0  0  0  0
   -4.7116    1.8916   -1.1042 C   0  0  0  0  0  0  0  0  0  0  0  0
   -3.3845    2.5874   -0.8704 C   0  0  0  0  0  0  0  0  0  0  0  0
   -2.7561    1.8726    0.2749 C   0  0  0  0  0  0  0  0  0  0  0  0
   -2.5173    0.3914    0.0319 C   0  0  0  0  0  0  0  0  0  0  0  0
   -1.9423   -0.1231    1.3129 C   0  0  0  0  0  0  0  0  0  0  0  0
   -1.3756   -1.4882    1.3207 C   0  0  0  0  0  0  0  0  0  0  0  0
   -0.2067   -1.7233    0.4003 C   0  0  1  0  0  0  0  0  0  0  0  0
    0.9454   -0.7887    0.7946 C   0  0  0  0  0  0  0  0  0  0  0  0
    2.1291   -1.0483   -0.1521 C   0  0  0  0  0  0  0  0  0  0  0  0
    3.2799   -0.1173    0.2387 C   0  0  0  0  0  0  0  0  0  0  0  0
    4.4220   -0.3723   -0.6810 C   0  0  0  0  0  0  0  0  0  0  0  0
    5.6511    0.4435   -0.4437 C   0  0  0  0  0  0  0  0  0  0  0  0
    5.4076    1.9183   -0.5696 C   0  0  0  0  0  0  0  0  0  0  0  0
   -3.1311   -1.4710   -1.4469 C   0  0  0  0  0  0  0  0  0  0  0  0
   -4.5024   -1.0104    0.5254 C   0  0  0  0  0  0  0  0  0  0  0  0
   -1.3989    2.5250    0.5120 C   0  0  0  0  0  0  0  0  0  0  0  0
    0.3211   -3.1230    0.7656 C   0  0  0  0  0  0  0  0  0  0  0  0
    4.8110   -1.8486   -0.5443 C   0  0  0  0  0  0  0  0  0  0  0  0
    6.6277    2.5778   -0.3413 O   0  0  0  0  0  0  0  0  0  0  0  0
    4.5409    2.3810    0.4292 O   0  0  0  0  0  0  0  0  0  0  0  0
   -4.0904   -0.4816    0.2281 C   0  0  0  0  0  0  0  0  0  0  0  0
   -5.2896    0.3866    0.3081 C   0  0  0  0  0  0  0  0  0  0  0  0
   -4.8608    1.8496    0.4587 C   0  0  0  0  0  0  0  0  0  0  0  0
   -4.2375    2.2200   -0.8378 C   0  0  0  0  0  0  0  0  0  0  0  0
   -3.0363    1.3932   -1.1274 C   0  0  0  0  0  0  0  0  0  0  0  0
   -3.0751   -0.0426   -0.7678 C   0  0  0  0  0  0  0  0  0  0  0  0
   -1.6830   -0.4847   -0.3397 C   0  0  0  0  0  0  0  0  0  0  0  0
   -0.6001   -0.0829   -1.3041 C   0  0  0  0  0  0  0  0  0  0  0  0
    0.7591   -0.5687   -0.7683 C   0  0  0  0  0  0  0  0  0  0  0  0
    1.8642   -0.1839   -1.7087 C   0  0  0  0  0  0  0  0  0  0  0  0
    3.2168   -0.6122   -1.2724 C   0  0  0  0  0  0  0  0  0  0  0  0
    3.5719    0.0106    0.0869 C   0  0  0  0  0  0  0  0  0  0  0  0
    4.9358   -0.4612    0.4597 C   0  0  0  0  0  0  0  0  0  0  0  0
    5.4631    0.0360    1.7633 C   0  0  0  0  0  0  0  0  0  0  0  0
    5.5855    1.5278    1.8712 C   0  0  0  0  0  0  0  0  0  0  0  0
   -4.5757   -1.8805   -0.1757 C   0  0  0  0  0  0  0  0  0  0  0  0
   -3.5307   -0.6087    1.6291 C   0  0  0  0  0  0  0  0  0  0  0  0
   -2.8113    1.5086   -2.6447 C   0  0  0  0  0  0  0  0  0  0  0  0
    0.6811   -2.0128   -0.4567 C   0  0  0  0  0  0  0  0  0  0  0  0
    4.8651   -1.9920    0.5339 C   0  0  0  0  0  0  0  0  0  0  0  0
    6.0977    1.8063    3.1515 O   0  0  0  0  0  0  0  0  0  0  0  0
    4.3760    2.2030    1.7393 O   0  0  0  0  0  0  0  0  0  0  0  0
   -5.5738   -0.0143   -1.3996 H   0  0  0  0  0  0  0  0  0  0  0  0
   -4.2443    0.3701   -2.5035 H   0  0  0  0  0  0  0  0  0  0  0  0
   -5.3304    2.0427   -0.2137 H   0  0  0  0  0  0  0  0  0  0  0  0
   -5.1837    2.4008   -1.9673 H   0  0  0  0  0  0  0  0  0  0  0  0
   -2.7250    2.5692   -1.7462 H   0  0  0  0  0  0  0  0  0  0  0  0
   -3.6120    3.6145   -0.5419 H   0  0  0  0  0  0  0  0  0  0  0  0
   -3.3457    2.0140    1.2138 H   0  0  0  0  0  0  0  0  0  0  0  0
   -1.6907    0.3722   -0.7428 H   0  0  0  0  0  0  0  0  0  0  0  0
   -2.6399    0.0100    2.1787 H   0  0  0  0  0  0  0  0  0  0  0  0
   -1.0838    0.5654    1.6050 H   0  0  0  0  0  0  0  0  0  0  0  0
   -0.9207   -1.6103    2.3657 H   0  0  0  0  0  0  0  0  0  0  0  0
   -2.1054   -2.3229    1.2871 H   0  0  0  0  0  0  0  0  0  0  0  0
   -0.4127   -1.6468   -0.6626 H   0  0  0  0  0  0  0  0  0  0  0  0
    1.2290   -1.0865    1.8245 H   0  0  0  0  0  0  0  0  0  0  0  0
    0.6835    0.2637    0.7162 H   0  0  0  0  0  0  0  0  0  0  0  0
    2.4958   -2.0704   -0.0579 H   0  0  0  0  0  0  0  0  0  0  0  0
    1.8421   -0.8377   -1.1805 H   0  0  0  0  0  0  0  0  0  0  0  0
    3.5589   -0.3355    1.2725 H   0  0  0  0  0  0  0  0  0  0  0  0
    2.8425    0.9049    0.0994 H   0  0  0  0  0  0  0  0  0  0  0  0
    4.1459   -0.2510   -1.7600 H   0  0  0  0  0  0  0  0  0  0  0  0
    6.4194    0.0876   -1.1708 H   0  0  0  0  0  0  0  0  0  0  0  0
    6.0146    0.2611    0.5914 H   0  0  0  0  0  0  0  0  0  0  0  0
    5.0510    2.2088   -1.5707 H   0  0  0  0  0  0  0  0  0  0  0  0
   -3.9149   -1.7220   -2.2256 H   0  0  0  0  0  0  0  0  0  0  0  0
   -2.2827   -1.0972   -2.0393 H   0  0  0  0  0  0  0  0  0  0  0  0
   -2.9716   -2.4131   -0.9147 H   0  0  0  0  0  0  0  0  0  0  0  0
   -4.3401   -2.1295    0.5328 H   0  0  0  0  0  0  0  0  0  0  0  0
   -5.5821   -0.9315    0.2046 H   0  0  0  0  0  0  0  0  0  0  0  0
   -4.4336   -0.5574    1.5126 H   0  0  0  0  0  0  0  0  0  0  0  0
   -1.1225    2.5892    1.5676 H   0  0  0  0  0  0  0  0  0  0  0  0
   -0.6777    2.0229   -0.1487 H   0  0  0  0  0  0  0  0  0  0  0  0
   -1.4458    3.5947    0.1558 H   0  0  0  0  0  0  0  0  0  0  0  0
    0.9080   -3.5141   -0.0741 H   0  0  0  0  0  0  0  0  0  0  0  0
   -0.5369   -3.8065    0.9263 H   0  0  0  0  0  0  0  0  0  0  0  0
    0.8761   -3.0744    1.7240 H   0  0  0  0  0  0  0  0  0  0  0  0
    4.6871   -2.1579    0.5195 H   0  0  0  0  0  0  0  0  0  0  0  0
    5.8569   -1.9577   -0.8672 H   0  0  0  0  0  0  0  0  0  0  0  0
    4.1445   -2.4266   -1.2007 H   0  0  0  0  0  0  0  0  0  0  0  0
    6.8904    3.1082   -1.1328 H   0  0  0  0  0  0  0  0  0  0  0  0
    4.5324    3.3731    0.3485 H   0  0  0  0  0  0  0  0  0  0  0  0
   -5.9043    0.1601    1.1853 H   0  0  0  0  0  0  0  0  0  0  0  0
   -5.9278    0.3484   -0.5932 H   0  0  0  0  0  0  0  0  0  0  0  0
   -5.7647    2.4460    0.6819 H   0  0  0  0  0  0  0  0  0  0  0  0
   -4.1394    1.9832    1.2706 H   0  0  0  0  0  0  0  0  0  0  0  0
   -4.9872    2.0123   -1.6412 H   0  0  0  0  0  0  0  0  0  0  0  0
   -3.9332    3.2865   -0.8839 H   0  0  0  0  0  0  0  0  0  0  0  0
   -2.1342    1.8526   -0.6164 H   0  0  0  0  0  0  0  0  0  0  0  0
   -3.2650   -0.6322   -1.7166 H   0  0  0  0  0  0  0  0  0  0  0  0
   -1.6227   -1.5864   -0.2292 H   0  0  0  0  0  0  0  0  0  0  0  0
   -1.4330   -0.0648    0.6565 H   0  0  0  0  0  0  0  0  0  0  0  0
   -0.6998   -0.6367   -2.2855 H   0  0  0  0  0  0  0  0  0  0  0  0
   -0.5602    0.9826   -1.5493 H   0  0  0  0  0  0  0  0  0  0  0  0
    0.9186   -0.0061    0.1748 H   0  0  0  0  0  0  0  0  0  0  0  0
    1.6285   -0.6395   -2.6926 H   0  0  0  0  0  0  0  0  0  0  0  0
    1.8875    0.9115   -1.8816 H   0  0  0  0  0  0  0  0  0  0  0  0
    3.4075   -1.6894   -1.2933 H   0  0  0  0  0  0  0  0  0  0  0  0
    3.9554   -0.1540   -1.9853 H   0  0  0  0  0  0  0  0  0  0  0  0
    2.8642   -0.2692    0.8647 H   0  0  0  0  0  0  0  0  0  0  0  0
    3.4865    1.1028   -0.0866 H   0  0  0  0  0  0  0  0  0  0  0  0
    5.7042   -0.2494   -0.3139 H   0  0  0  0  0  0  0  0  0  0  0  0
    4.9434   -0.4139    2.6369 H   0  0  0  0  0  0  0  0  0  0  0  0
    6.5202   -0.3563    1.8393 H   0  0  0  0  0  0  0  0  0  0  0  0
    6.3401    1.8622    1.1382 H   0  0  0  0  0  0  0  0  0  0  0  0
   -5.6233   -2.0225    0.1590 H   0  0  0  0  0  0  0  0  0  0  0  0
   -4.5185   -1.9154   -1.2828 H   0  0  0  0  0  0  0  0  0  0  0  0
   -3.8656   -2.5918    0.2635 H   0  0  0  0  0  0  0  0  0  0  0  0
   -4.4005   -0.7294    2.3093 H   0  0  0  0  0  0  0  0  0  0  0  0
   -3.0236    0.3214    1.9274 H   0  0  0  0  0  0  0  0  0  0  0  0
   -2.8871   -1.4766    1.7641 H   0  0  0  0  0  0  0  0  0  0  0  0
   -2.6227    0.4994   -3.0379 H   0  0  0  0  0  0  0  0  0  0  0  0
   -2.0478    2.2577   -2.8994 H   0  0  0  0  0  0  0  0  0  0  0  0
   -3.7664    1.8689   -3.1078 H   0  0  0  0  0  0  0  0  0  0  0  0
   -0.0246   -2.5867   -1.0859 H   0  0  0  0  0  0  0  0  0  0  0  0
    0.3316   -2.1390    0.5894 H   0  0  0  0  0  0  0  0  0  0  0  0
    1.7098   -2.4676   -0.4745 H   0  0  0  0  0  0  0  0  0  0  0  0
    3.8407   -2.2675    0.8570 H   0  0  0  0  0  0  0  0  0  0  0  0
    5.5417   -2.3559    1.3446 H   0  0  0  0  0  0  0  0  0  0  0  0
    5.1349   -2.4328   -0.4419 H   0  0  0  0  0  0  0  0  0  0  0  0
    6.8397    1.1666    3.2906 H   0  0  0  0  0  0  0  0  0  0  0  0
    4.4712    3.0909    1.3161 H   0  0  0  0  0  0  0  0  0  0  0  0
  1  2  1  0
  2  3  1  0
  3  4  1  0
  4  5  1  0
  1  6  1  0
  5  6  1  0
  6  7  1  0
  7  8  1  0
  8  9  1  0
  9 10  1  0
 10 11  1  0
 11 12  1  0
 12 13  1  0
 13 14  1  0
 14 15  1  0
  1 16  1  0
  1 17  1  0
  5 18  1  0
  9 19  1  0
 13 20  1  0
 15 21  1  0
 15 22  1  0
 23 24  1  0
 24 25  1  0
 25 26  1  0
 26 27  1  0
 23 28  1  0
 27 28  1  0
 28 29  1  0
 29 30  1  0
 30 31  1  0
 31 32  1  0
 32 33  1  0
 33 34  1  0
 34 35  1  0
 35 36  1  0
 36 37  1  0
 23 38  1  0
 23 39  1  0
 27 40  1  0
 31 41  1  0
 35 42  1  0
 37 43  1  0
 37 44  1  0
  2 45  1  0
  2 46  1  0
  3 47  1  0
  3 48  1  0
  4 49  1  0
  4 50  1  0
  5 51  1  0
  6 52  1  0
  7 53  1  0
  7 54  1  0
  8 55  1  0
  8 56  1  0
  9 57  1  6
 10 58  1  0
 10 59  1  0
 11 60  1  0
 11 61  1  0
 12 62  1  0
 12 63  1  0
 13 64  1  0
 14 65  1  0
 14 66  1  0
 15 67  1  0
 16 68  1  0
 16 69  1  0
 16 70  1  0
 17 71  1  0
 17 72  1  0
 17 73  1  0
 18 74  1  0
 18 75  1  0
 18 76  1  0
 19 77  1  0
 19 78  1  0
 19 79  1  0
 20 80  1  0
 20 81  1  0
 20 82  1  0
 21 83  1  0
 22 84  1  0
 24 85  1  0
 24 86  1  0
 25 87  1  0
 25 88  1  0
 26 89  1  0
 26 90  1  0
 27 91  1  0
 28 92  1  0
 29 93  1  0
 29 94  1  0
 30 95  1  0
 30 96  1  0
 31 97  1  0
 32 98  1  0
 32 99  1  0
 33100  1  0
 33101  1  0
 34102  1  0
 34103  1  0
 35104  1  0
 36105  1  0
 36106  1  0
 37107  1  0
 38108  1  0
 38109  1  0
 38110  1  0
 39111  1  0
 39112  1  0
 39113  1  0
 40114  1  0
 40115  1  0
 40116  1  0
 41117  1  0
 41118  1  0
 41119  1  0
 42120  1  0
 42121  1  0
 42122  1  0
 43123  1  0
 44124  1  0
M  END
>  <PDBID>  (1) 
3FC6

>  <PDB ID>  (1) 
3FC6

>  <Generic Name>  (1) 
Tretinoin

>  <Brand Name>  (1) 
Atralin#Avita#Biacna Topical Gel#Clindamycin Phosphate and Tretinoin#Dr. Throwers Hydrotet#Dr. Throwers Pbc No. 1#Obagi#Refissa#Rejuva-A#Renova#Retin-A#Retin-A Micro#Retisol-A#Solagé#Stie Vaa Sol 0.05%#Stieva-A Cream#Stieva-A Gel#Stieva-A Solution#Stievaa Gel 0.01%#Stievamycin Forte#Stievamycin Mild#Stievamycin Regular#Tretin.x#Tretinoin#Tretinoin Cream#Tretinoin Gel#Tretinoin Gel Microsphere#Tretinx#Tri-luma#Veltin#Vesanoid#Vitamin A Acid 0.01% Cream#Vitamin A Acid 0.01% Gel#Vitamin A Acid 0.025% Cream#Vitamin A Acid 0.025% Gel#Vitamin A Acid 0.05% Cream#Vitamin A Acid 0.05% Gel#Vitamin A Acid 0.1% Cream#Vitinoin - Crm 0.025%#Vitinoin - Crm 0.05%#Vitinoin - Crm 0.1%#Vitinoin Gel - 0.025%#Ziana#Aberel#Aberela#Airol#Dermairol#Eudyna#Kétrel#Retisol-A#Sotret#Stieva-A#Vitinoin

>  <DrugBank ID>  (1) 
DB00755

>  <ATC Codes>  (1) 
L01XX14#D10AD01#D10AD51

>  <Ligand ID>  (1) 
3KV,REA

>  <Target Name>  (1) 
Retinoic acid receptor RXR-beta

>  <UniProt ID>  (1) 
P28702

>  <PDB ID.1>  (1) 
3FC6

>  <Seq. Identity>  (1) 
87%

$$$$
