PDB_DB13139_02
     RDKit          3D

 88 88  0  0  0  0  0  0  0  0999 V2000
    5.5456   -1.2179   -0.8399 O   0  0  0  0  0  0  0  0  0  0  0  0
    4.1821   -1.4314   -0.8364 C   0  0  0  0  0  0  0  0  0  0  0  0
    3.3589   -0.1548   -0.8673 C   0  0  0  0  0  0  0  0  0  0  0  0
    3.6746    0.6513    0.3254 C   0  0  0  0  0  0  0  0  0  0  0  0
    4.7450    1.5165   -0.0100 O   0  0  0  0  0  0  0  0  0  0  0  0
    2.6098    1.4605    0.9320 C   0  0  0  0  0  0  0  0  0  0  0  0
    1.1952    1.0471    0.7219 C   0  0  0  0  0  0  0  0  0  0  0  0
    1.9280   -0.5274   -1.0565 C   0  0  0  0  0  0  0  0  0  0  0  0
    1.0535   -0.2955    0.1207 C   0  0  0  0  0  0  0  0  0  0  0  0
   -0.4165   -0.4552   -0.3692 C   0  0  1  0  0  0  0  0  0  0  0  0
   -0.5283   -1.7217   -0.9583 O   0  0  0  0  0  0  0  0  0  0  0  0
   -1.3378   -0.4152    0.8220 C   0  0  0  0  0  0  0  0  0  0  0  0
   -2.6851   -0.6777    0.6499 N   0  0  0  0  0  0  0  0  0  0  0  0
   -3.6144    0.1093    0.0039 C   0  0  0  0  0  0  0  0  0  0  0  0
   -3.7825    1.5128    0.5950 C   0  0  0  0  0  0  0  0  0  0  0  0
   -5.0133   -0.5762    0.3068 C   0  0  0  0  0  0  0  0  0  0  0  0
   -3.6212    0.2326   -1.4839 C   0  0  0  0  0  0  0  0  0  0  0  0
    5.5456   -1.2179   -0.8399 O   0  0  0  0  0  0  0  0  0  0  0  0
    4.1821   -1.4314   -0.8364 C   0  0  0  0  0  0  0  0  0  0  0  0
    3.3589   -0.1548   -0.8673 C   0  0  0  0  0  0  0  0  0  0  0  0
    3.6746    0.6513    0.3254 C   0  0  0  0  0  0  0  0  0  0  0  0
    4.7450    1.5165   -0.0100 O   0  0  0  0  0  0  0  0  0  0  0  0
    2.6098    1.4605    0.9320 C   0  0  0  0  0  0  0  0  0  0  0  0
    1.1952    1.0471    0.7219 C   0  0  0  0  0  0  0  0  0  0  0  0
    1.9280   -0.5274   -1.0565 C   0  0  0  0  0  0  0  0  0  0  0  0
    1.0535   -0.2955    0.1207 C   0  0  0  0  0  0  0  0  0  0  0  0
   -0.4165   -0.4552   -0.3692 C   0  0  1  0  0  0  0  0  0  0  0  0
   -0.5283   -1.7217   -0.9583 O   0  0  0  0  0  0  0  0  0  0  0  0
   -1.3378   -0.4152    0.8220 C   0  0  0  0  0  0  0  0  0  0  0  0
   -2.6851   -0.6777    0.6499 N   0  0  0  0  0  0  0  0  0  0  0  0
   -3.6144    0.1093    0.0039 C   0  0  0  0  0  0  0  0  0  0  0  0
   -3.7825    1.5128    0.5950 C   0  0  0  0  0  0  0  0  0  0  0  0
   -5.0133   -0.5762    0.3068 C   0  0  0  0  0  0  0  0  0  0  0  0
   -3.6212    0.2326   -1.4839 C   0  0  0  0  0  0  0  0  0  0  0  0
    5.9715   -1.6336   -1.6342 H   0  0  0  0  0  0  0  0  0  0  0  0
    3.9554   -2.0214    0.1025 H   0  0  0  0  0  0  0  0  0  0  0  0
    3.8762   -2.1383   -1.6597 H   0  0  0  0  0  0  0  0  0  0  0  0
    3.6818    0.4012   -1.7908 H   0  0  0  0  0  0  0  0  0  0  0  0
    4.1239   -0.0128    1.1202 H   0  0  0  0  0  0  0  0  0  0  0  0
    4.4174    2.0604   -0.7622 H   0  0  0  0  0  0  0  0  0  0  0  0
    2.6778    2.5509    0.6161 H   0  0  0  0  0  0  0  0  0  0  0  0
    2.7845    1.5397    2.0480 H   0  0  0  0  0  0  0  0  0  0  0  0
    0.6988    1.0294    1.7367 H   0  0  0  0  0  0  0  0  0  0  0  0
    0.6207    1.8046    0.1326 H   0  0  0  0  0  0  0  0  0  0  0  0
    1.4746    0.0267   -1.9257 H   0  0  0  0  0  0  0  0  0  0  0  0
    1.8179   -1.6130   -1.3414 H   0  0  0  0  0  0  0  0  0  0  0  0
    1.2157   -1.1009    0.8654 H   0  0  0  0  0  0  0  0  0  0  0  0
   -0.6456    0.3046   -1.1046 H   0  0  0  0  0  0  0  0  0  0  0  0
   -0.2703   -2.4413   -0.3716 H   0  0  0  0  0  0  0  0  0  0  0  0
   -1.1378    0.5607    1.3618 H   0  0  0  0  0  0  0  0  0  0  0  0
   -0.8786   -1.1633    1.5532 H   0  0  0  0  0  0  0  0  0  0  0  0
   -3.0662   -1.3251    1.3725 H   0  0  0  0  0  0  0  0  0  0  0  0
   -3.7201    1.5200    1.6899 H   0  0  0  0  0  0  0  0  0  0  0  0
   -4.8077    1.8391    0.3196 H   0  0  0  0  0  0  0  0  0  0  0  0
   -3.0756    2.1940    0.0981 H   0  0  0  0  0  0  0  0  0  0  0  0
   -4.8934   -1.6647    0.1404 H   0  0  0  0  0  0  0  0  0  0  0  0
   -5.7699   -0.1866   -0.3671 H   0  0  0  0  0  0  0  0  0  0  0  0
   -5.2732   -0.4113    1.3495 H   0  0  0  0  0  0  0  0  0  0  0  0
   -4.2124    1.1662   -1.7619 H   0  0  0  0  0  0  0  0  0  0  0  0
   -2.6792    0.2894   -2.0002 H   0  0  0  0  0  0  0  0  0  0  0  0
   -4.1799   -0.6317   -1.9425 H   0  0  0  0  0  0  0  0  0  0  0  0
    5.9715   -1.6336   -1.6342 H   0  0  0  0  0  0  0  0  0  0  0  0
    3.9554   -2.0214    0.1025 H   0  0  0  0  0  0  0  0  0  0  0  0
    3.8762   -2.1383   -1.6597 H   0  0  0  0  0  0  0  0  0  0  0  0
    3.6818    0.4012   -1.7908 H   0  0  0  0  0  0  0  0  0  0  0  0
    4.1239   -0.0128    1.1202 H   0  0  0  0  0  0  0  0  0  0  0  0
    4.4174    2.0604   -0.7622 H   0  0  0  0  0  0  0  0  0  0  0  0
    2.6778    2.5509    0.6161 H   0  0  0  0  0  0  0  0  0  0  0  0
    2.7845    1.5397    2.0480 H   0  0  0  0  0  0  0  0  0  0  0  0
    0.6988    1.0294    1.7367 H   0  0  0  0  0  0  0  0  0  0  0  0
    0.6207    1.8046    0.1326 H   0  0  0  0  0  0  0  0  0  0  0  0
    1.4746    0.0267   -1.9257 H   0  0  0  0  0  0  0  0  0  0  0  0
    1.8179   -1.6130   -1.3414 H   0  0  0  0  0  0  0  0  0  0  0  0
    1.2157   -1.1009    0.8654 H   0  0  0  0  0  0  0  0  0  0  0  0
   -0.6456    0.3046   -1.1046 H   0  0  0  0  0  0  0  0  0  0  0  0
   -0.2703   -2.4413   -0.3716 H   0  0  0  0  0  0  0  0  0  0  0  0
   -1.1378    0.5607    1.3618 H   0  0  0  0  0  0  0  0  0  0  0  0
   -0.8786   -1.1633    1.5532 H   0  0  0  0  0  0  0  0  0  0  0  0
   -3.0662   -1.3251    1.3725 H   0  0  0  0  0  0  0  0  0  0  0  0
   -3.7201    1.5200    1.6899 H   0  0  0  0  0  0  0  0  0  0  0  0
   -4.8077    1.8391    0.3196 H   0  0  0  0  0  0  0  0  0  0  0  0
   -3.0756    2.1940    0.0981 H   0  0  0  0  0  0  0  0  0  0  0  0
   -4.8934   -1.6647    0.1404 H   0  0  0  0  0  0  0  0  0  0  0  0
   -5.7699   -0.1866   -0.3671 H   0  0  0  0  0  0  0  0  0  0  0  0
   -5.2732   -0.4113    1.3495 H   0  0  0  0  0  0  0  0  0  0  0  0
   -4.2124    1.1662   -1.7619 H   0  0  0  0  0  0  0  0  0  0  0  0
   -2.6792    0.2894   -2.0002 H   0  0  0  0  0  0  0  0  0  0  0  0
   -4.1799   -0.6317   -1.9425 H   0  0  0  0  0  0  0  0  0  0  0  0
  1  2  1  0
  2  3  1  0
  3  4  1  0
  4  5  1  0
  4  6  1  0
  6  7  1  0
  3  8  1  0
  7  9  1  0
  8  9  1  0
  9 10  1  0
 10 11  1  0
 10 12  1  0
 12 13  1  0
 14 13  1  0
 14 15  1  0
 14 16  1  0
 14 17  1  0
 18 19  1  0
 19 20  1  0
 20 21  1  0
 21 22  1  0
 21 23  1  0
 23 24  1  0
 20 25  1  0
 24 26  1  0
 25 26  1  0
 26 27  1  0
 27 28  1  0
 27 29  1  0
 29 30  1  0
 31 30  1  0
 31 32  1  0
 31 33  1  0
 31 34  1  0
  1 35  1  0
  2 36  1  0
  2 37  1  0
  3 38  1  0
  4 39  1  0
  5 40  1  0
  6 41  1  0
  6 42  1  0
  7 43  1  0
  7 44  1  0
  8 45  1  0
  8 46  1  0
  9 47  1  0
 10 48  1  6
 11 49  1  0
 12 50  1  0
 12 51  1  0
 13 52  1  0
 15 53  1  0
 15 54  1  0
 15 55  1  0
 16 56  1  0
 16 57  1  0
 16 58  1  0
 17 59  1  0
 17 60  1  0
 17 61  1  0
 18 62  1  0
 19 63  1  0
 19 64  1  0
 20 65  1  0
 21 66  1  0
 22 67  1  0
 23 68  1  0
 23 69  1  0
 24 70  1  0
 24 71  1  0
 25 72  1  0
 25 73  1  0
 26 74  1  0
 27 75  1  6
 28 76  1  0
 29 77  1  0
 29 78  1  0
 30 79  1  0
 32 80  1  0
 32 81  1  0
 32 82  1  0
 33 83  1  0
 33 84  1  0
 33 85  1  0
 34 86  1  0
 34 87  1  0
 34 88  1  0
M  END
>  <PDBID>  (1) 
2Y04

>  <PDB ID>  (1) 
2Y04

>  <Generic Name>  (1) 
Levosalbutamol

>  <Brand Name>  (1) 
Levalbuterol#Levalbuterol Hydrochloride#Xopenex

>  <DrugBank ID>  (1) 
DB13139

>  <ATC Codes>  (1) 
nan

>  <Ligand ID>  (1) 
68H

>  <Target Name>  (1) 
Beta-2 adrenergic receptor

>  <UniProt ID>  (1) 
P07550

>  <PDB ID.1>  (1) 
2Y04

>  <Seq. Identity>  (1) 
58%

$$$$
