PDB_DB01051_05
     RDKit          3D

408420  0  0  0  0  0  0  0  0999 V2000
   10.3430   -0.0107    0.0705 C   0  0  0  0  0  0  0  0  0  0  0  0
    9.1681    0.3780    0.7332 O   0  0  0  0  0  0  0  0  0  0  0  0
    7.5633    4.1130   -1.3202 N   0  0  0  0  0  0  0  0  0  0  0  0
    8.2184    3.0907   -0.5419 C   0  0  0  0  0  0  0  0  0  0  0  0
    9.5944    3.2785   -0.4196 O   0  0  0  0  0  0  0  0  0  0  0  0
    7.9392    1.8457   -1.1026 O   0  0  0  0  0  0  0  0  0  0  0  0
    8.0399   -0.1495    0.1239 C   0  0  2  0  0  0  0  0  0  0  0  0
    7.1702    1.0532   -0.2854 C   0  0  2  0  0  0  0  0  0  0  0  0
    5.9373    0.4988   -0.9130 C   0  0  1  0  0  0  0  0  0  0  0  0
    6.2841   -0.1306   -2.1327 O   0  0  0  0  0  0  0  0  0  0  0  0
    5.3028   -0.5315   -0.0296 C   0  0  1  0  0  0  0  0  0  0  0  0
    5.9435   -0.5841    1.1960 O   0  0  0  0  0  0  0  0  0  0  0  0
    7.2735   -0.9768    1.1438 C   0  0  0  0  0  0  0  0  0  0  0  0
    7.3167   -2.4135    0.6888 C   0  0  0  0  0  0  0  0  0  0  0  0
    7.9655   -0.8640    2.4562 C   0  0  0  0  0  0  0  0  0  0  0  0
    3.9687   -0.2634    0.2593 O   0  0  0  0  0  0  0  0  0  0  0  0
    3.0932   -1.3050   -0.0920 C   0  0  0  0  0  0  0  0  0  0  0  0
    2.1244   -0.8709   -1.1187 C   0  0  1  0  0  0  0  0  0  0  0  0
    1.9658   -1.9701   -2.1484 C   0  0  0  0  0  0  0  0  0  0  0  0
    0.7504   -0.5104   -0.6218 C   0  0  0  0  0  0  0  0  0  0  0  0
    0.7457   -0.3935    0.8888 C   0  0  0  0  0  0  0  0  0  0  0  0
    1.1470   -1.7993    1.3716 C   0  0  0  0  0  0  0  0  0  0  0  0
    2.6270   -1.9062    1.1683 C   0  0  0  0  0  0  0  0  0  0  0  0
    0.3310    0.6755   -1.1519 O   0  0  0  0  0  0  0  0  0  0  0  0
   -0.8868    1.1501   -0.7704 C   0  0  0  0  0  0  0  0  0  0  0  0
   -1.7163    1.0275   -1.9255 O   0  0  0  0  0  0  0  0  0  0  0  0
   -1.5542    0.3994    0.3271 C   0  0  1  0  0  0  0  0  0  0  0  0
   -0.5934   -0.0213    1.3898 C   0  0  0  0  0  0  0  0  0  0  0  0
   -0.5173    1.0246    2.3356 O   0  0  0  0  0  0  0  0  0  0  0  0
   -2.6413    1.1856    0.9194 N   0  0  0  0  0  0  0  0  0  0  0  0
   -3.8656    0.4828    1.0919 C   0  0  0  0  0  0  0  0  0  0  0  0
   -3.5963   -0.6728    1.8986 O   0  0  0  0  0  0  0  0  0  0  0  0
   -4.6171    0.0586   -0.1362 C   0  0  1  0  0  0  0  0  0  0  0  0
   -5.8371   -0.7075    0.3439 C   0  0  0  0  0  0  0  0  0  0  0  0
   -7.1388   -0.0235    0.2472 C   0  0  0  0  0  0  0  0  0  0  0  0
   -7.1298    1.4600    0.3703 C   0  0  1  0  0  0  0  0  0  0  0  0
   -7.2694    1.8405    1.7337 O   0  0  0  0  0  0  0  0  0  0  0  0
   -5.8938    2.1570   -0.1139 C   0  0  0  0  0  0  0  0  0  0  0  0
   -5.0254    1.2657   -0.9316 C   0  0  0  0  0  0  0  0  0  0  0  0
   -7.8937   -0.5543   -0.9485 C   0  0  0  0  0  0  0  0  0  0  0  0
   -9.2546    0.0415   -1.1415 C   0  0  0  0  0  0  0  0  0  0  0  0
  -10.1669   -0.2203    0.0399 C   0  0  0  0  0  0  0  0  0  0  0  0
  -10.2677   -1.7473    0.1551 C   0  0  0  0  0  0  0  0  0  0  0  0
  -11.5437    0.3337   -0.2633 C   0  0  0  0  0  0  0  0  0  0  0  0
    9.4259   -1.7777   -0.0955 C   0  0  0  0  0  0  0  0  0  0  0  0
    8.1108   -1.4855    0.2396 O   0  0  0  0  0  0  0  0  0  0  0  0
    8.4909    3.5996    2.2125 N   0  0  0  0  0  0  0  0  0  0  0  0
    8.8921    2.4096    1.4850 C   0  0  0  0  0  0  0  0  0  0  0  0
   10.1503    2.5652    0.8849 O   0  0  0  0  0  0  0  0  0  0  0  0
    7.9390    1.9654    0.6030 O   0  0  0  0  0  0  0  0  0  0  0  0
    7.7608   -0.2161   -0.2270 C   0  0  2  0  0  0  0  0  0  0  0  0
    7.4286    0.7040    0.9179 C   0  0  2  0  0  0  0  0  0  0  0  0
    5.9495    0.8141    1.1401 C   0  0  1  0  0  0  0  0  0  0  0  0
    5.7730    1.9115    2.0150 O   0  0  0  0  0  0  0  0  0  0  0  0
    5.1692    1.0920   -0.0900 C   0  0  1  0  0  0  0  0  0  0  0  0
    5.9051    0.8261   -1.2517 O   0  0  0  0  0  0  0  0  0  0  0  0
    6.6357   -0.3274   -1.1939 C   0  0  0  0  0  0  0  0  0  0  0  0
    7.2708   -0.4977   -2.5812 C   0  0  0  0  0  0  0  0  0  0  0  0
    5.8228   -1.5695   -0.9205 C   0  0  0  0  0  0  0  0  0  0  0  0
    3.9699    0.4354   -0.2182 O   0  0  0  0  0  0  0  0  0  0  0  0
    2.8696    1.2337   -0.3897 C   0  0  0  0  0  0  0  0  0  0  0  0
    1.9008    1.0789    0.7319 C   0  0  0  0  0  0  0  0  0  0  0  0
    2.5576    0.3711    1.9098 C   0  0  0  0  0  0  0  0  0  0  0  0
    0.6675    0.3073    0.3833 C   0  0  0  0  0  0  0  0  0  0  0  0
    1.0671   -0.8702   -0.5105 C   0  0  0  0  0  0  0  0  0  0  0  0
    1.4428   -0.2435   -1.8474 C   0  0  0  0  0  0  0  0  0  0  0  0
    2.1756    1.0447   -1.7117 C   0  0  0  0  0  0  0  0  0  0  0  0
   -0.1788    1.0530   -0.3922 O   0  0  0  0  0  0  0  0  0  0  0  0
   -1.4188    0.4633   -0.6309 C   0  0  0  0  0  0  0  0  0  0  0  0
   -1.9240    1.1880   -1.7493 O   0  0  0  0  0  0  0  0  0  0  0  0
   -1.4500   -0.9839   -0.8322 C   0  0  1  0  0  0  0  0  0  0  0  0
   -0.1305   -1.7144   -0.7011 C   0  0  0  0  0  0  0  0  0  0  0  0
   -0.2338   -2.5358    0.4489 O   0  0  0  0  0  0  0  0  0  0  0  0
   -2.4612   -1.7347   -0.1825 N   0  0  0  0  0  0  0  0  0  0  0  0
   -3.8111   -1.6036   -0.4388 C   0  0  0  0  0  0  0  0  0  0  0  0
   -4.4839   -2.6767    0.1934 O   0  0  0  0  0  0  0  0  0  0  0  0
   -4.5596   -0.3662   -0.0774 C   0  0  0  0  0  0  0  0  0  0  0  0
   -6.0019   -0.5539   -0.5296 C   0  0  0  0  0  0  0  0  0  0  0  0
   -6.9158   -0.8691    0.6198 C   0  0  0  0  0  0  0  0  0  0  0  0
   -7.0127    0.1681    1.6723 C   0  0  0  0  0  0  0  0  0  0  0  0
   -7.1131   -0.4139    2.9574 O   0  0  0  0  0  0  0  0  0  0  0  0
   -5.6633    0.8971    1.7026 C   0  0  0  0  0  0  0  0  0  0  0  0
   -4.5722   -0.1203    1.4233 C   0  0  0  0  0  0  0  0  0  0  0  0
   -8.1696   -1.5294    0.1718 C   0  0  0  0  0  0  0  0  0  0  0  0
   -9.0396   -0.8534   -0.8009 C   0  0  0  0  0  0  0  0  0  0  0  0
   -9.6169    0.4717   -0.4313 C   0  0  0  0  0  0  0  0  0  0  0  0
  -10.4590    0.3658    0.8153 C   0  0  0  0  0  0  0  0  0  0  0  0
  -10.5768    0.8596   -1.5837 C   0  0  0  0  0  0  0  0  0  0  0  0
    9.1060   -1.7712    0.3165 C   0  0  0  0  0  0  0  0  0  0  0  0
    7.7349   -1.6816    0.4537 O   0  0  0  0  0  0  0  0  0  0  0  0
    7.0167    2.6971    3.7204 N   0  0  0  0  0  0  0  0  0  0  0  0
    7.7340    1.8278    2.8098 C   0  0  0  0  0  0  0  0  0  0  0  0
    8.9896    2.3399    2.5275 O   0  0  0  0  0  0  0  0  0  0  0  0
    7.0160    1.4939    1.6903 O   0  0  0  0  0  0  0  0  0  0  0  0
    7.3234   -0.3559    0.3031 C   0  0  2  0  0  0  0  0  0  0  0  0
    6.7129    0.1304    1.5850 C   0  0  2  0  0  0  0  0  0  0  0  0
    5.1939    0.0590    1.5390 C   0  0  1  0  0  0  0  0  0  0  0  0
    4.7304    0.5882    2.7388 O   0  0  0  0  0  0  0  0  0  0  0  0
    4.6643    0.8733    0.3841 C   0  0  1  0  0  0  0  0  0  0  0  0
    5.5955    0.9216   -0.6571 O   0  0  0  0  0  0  0  0  0  0  0  0
    6.3355   -0.2096   -0.8039 C   0  0  0  0  0  0  0  0  0  0  0  0
    7.1817    0.0037   -2.0801 C   0  0  0  0  0  0  0  0  0  0  0  0
    5.5762   -1.4884   -1.0002 C   0  0  0  0  0  0  0  0  0  0  0  0
    3.4729    0.5028   -0.1339 O   0  0  0  0  0  0  0  0  0  0  0  0
    2.4260    1.3615   -0.0927 C   0  0  0  0  0  0  0  0  0  0  0  0
    1.2255    0.7838    0.5701 C   0  0  0  0  0  0  0  0  0  0  0  0
    1.6552   -0.3373    1.4967 C   0  0  0  0  0  0  0  0  0  0  0  0
    0.2273    0.1816   -0.3986 C   0  0  0  0  0  0  0  0  0  0  0  0
    1.0194   -0.3985   -1.5812 C   0  0  0  0  0  0  0  0  0  0  0  0
    1.5134    0.8250   -2.3642 C   0  0  0  0  0  0  0  0  0  0  0  0
    2.0071    1.8845   -1.4513 C   0  0  0  0  0  0  0  0  0  0  0  0
   -0.5438    1.1726   -0.9695 O   0  0  0  0  0  0  0  0  0  0  0  0
   -1.6271    0.5890   -1.6333 C   0  0  0  0  0  0  0  0  0  0  0  0
   -2.0186    1.6139   -2.5427 O   0  0  0  0  0  0  0  0  0  0  0  0
   -1.3767   -0.6485   -2.3745 C   0  0  1  0  0  0  0  0  0  0  0  0
    0.0624   -1.1230   -2.4488 C   0  0  0  0  0  0  0  0  0  0  0  0
    0.1797   -2.4902   -2.1637 O   0  0  0  0  0  0  0  0  0  0  0  0
   -2.1524   -1.7477   -1.9637 N   0  0  0  0  0  0  0  0  0  0  0  0
   -3.4910   -1.9575   -2.1115 C   0  0  0  0  0  0  0  0  0  0  0  0
   -3.7981   -3.3568   -1.8215 O   0  0  0  0  0  0  0  0  0  0  0  0
   -4.6042   -1.2037   -1.5406 C   0  0  1  0  0  0  0  0  0  0  0  0
   -4.7267   -1.0794   -0.0726 C   0  0  0  0  0  0  0  0  0  0  0  0
   -6.2415   -0.7236    0.2386 C   0  0  2  0  0  0  0  0  0  0  0  0
   -6.4933    0.6433   -0.3015 C   0  0  0  0  0  0  0  0  0  0  0  0
   -7.5361    0.6466   -1.2719 O   0  0  0  0  0  0  0  0  0  0  0  0
   -5.2872    1.1300   -1.1285 C   0  0  0  0  0  0  0  0  0  0  0  0
   -4.9856    0.1029   -2.1943 C   0  0  0  0  0  0  0  0  0  0  0  0
   -6.4116   -0.9050    1.6933 C   0  0  0  0  0  0  0  0  0  0  0  0
   -7.6458   -0.7613    2.4218 C   0  0  0  0  0  0  0  0  0  0  0  0
   -8.4823    0.4414    2.5107 C   0  0  0  0  0  0  0  0  0  0  0  0
   -9.6497    0.0958    3.5286 C   0  0  0  0  0  0  0  0  0  0  0  0
   -9.3140    0.7357    1.2530 C   0  0  0  0  0  0  0  0  0  0  0  0
    9.8658   -1.4503    0.9138 C   0  0  0  0  0  0  0  0  0  0  0  0
    9.1322   -0.2511    0.8599 O   0  0  0  0  0  0  0  0  0  0  0  0
    8.0303   -0.0814   -3.8108 N   0  0  0  0  0  0  0  0  0  0  0  0
    8.5160    0.1298   -2.4689 C   0  0  0  0  0  0  0  0  0  0  0  0
    9.9123    0.0695   -2.4849 O   0  0  0  0  0  0  0  0  0  0  0  0
    7.9563   -0.7426   -1.5538 O   0  0  0  0  0  0  0  0  0  0  0  0
    7.7942   -0.5883    0.7942 C   0  0  2  0  0  0  0  0  0  0  0  0
    7.2411   -0.1142   -0.5502 C   0  0  2  0  0  0  0  0  0  0  0  0
    5.7888   -0.5944   -0.5828 C   0  0  1  0  0  0  0  0  0  0  0  0
    5.7950   -1.9875   -0.4031 O   0  0  0  0  0  0  0  0  0  0  0  0
    5.0641    0.1094    0.5210 C   0  0  1  0  0  0  0  0  0  0  0  0
    5.9364    0.8457    1.3356 O   0  0  0  0  0  0  0  0  0  0  0  0
    6.9467    0.0513    1.8598 C   0  0  0  0  0  0  0  0  0  0  0  0
    6.4159   -1.0357    2.7583 C   0  0  0  0  0  0  0  0  0  0  0  0
    7.8413    0.9445    2.6940 C   0  0  0  0  0  0  0  0  0  0  0  0
    4.1940    1.0307   -0.0273 O   0  0  0  0  0  0  0  0  0  0  0  0
    2.8579    0.8542    0.4041 C   0  0  0  0  0  0  0  0  0  0  0  0
    2.0205    0.5088   -0.7644 C   0  0  1  0  0  0  0  0  0  0  0  0
    2.0740   -1.0045   -0.9912 C   0  0  0  0  0  0  0  0  0  0  0  0
    0.5789    0.8277   -0.4374 C   0  0  0  0  0  0  0  0  0  0  0  0
    0.4557    2.3256   -0.3472 C   0  0  0  0  0  0  0  0  0  0  0  0
    1.4407    2.9481    0.5860 C   0  0  0  0  0  0  0  0  0  0  0  0
    2.4046    2.0299    1.2206 C   0  0  0  0  0  0  0  0  0  0  0  0
    0.1463    0.1792    0.6792 O   0  0  0  0  0  0  0  0  0  0  0  0
   -0.9692    0.6887    1.2746 C   0  0  0  0  0  0  0  0  0  0  0  0
   -0.6130    1.4289    2.3958 O   0  0  0  0  0  0  0  0  0  0  0  0
   -1.8437    1.5579    0.4044 C   0  0  1  0  0  0  0  0  0  0  0  0
   -0.9749    2.7181   -0.0945 C   0  0  0  0  0  0  0  0  0  0  0  0
   -1.6121    3.1774   -1.2469 O   0  0  0  0  0  0  0  0  0  0  0  0
   -2.4186    0.9212   -0.6835 N   0  0  0  0  0  0  0  0  0  0  0  0
   -3.3036   -0.1380   -0.6271 C   0  0  2  0  0  0  0  0  0  0  0  0
   -3.5946   -0.4967   -1.9878 O   0  0  0  0  0  0  0  0  0  0  0  0
   -4.6573    0.0444    0.0049 C   0  0  1  0  0  0  0  0  0  0  0  0
   -5.4183   -1.2825   -0.0827 C   0  0  0  0  0  0  0  0  0  0  0  0
   -6.9101   -1.0791    0.1378 C   0  0  0  0  0  0  0  0  0  0  0  0
   -7.0900    0.0808    1.0912 C   0  0  0  0  0  0  0  0  0  0  0  0
   -8.2413   -0.0843    1.8562 O   0  0  0  0  0  0  0  0  0  0  0  0
   -5.9283    0.0537    2.0981 C   0  0  0  0  0  0  0  0  0  0  0  0
   -4.6944    0.5976    1.3734 C   0  0  0  0  0  0  0  0  0  0  0  0
   -7.5545   -0.9300   -1.1843 C   0  0  0  0  0  0  0  0  0  0  0  0
   -9.0243   -0.7128   -1.2018 C   0  0  0  0  0  0  0  0  0  0  0  0
   -9.8411   -1.7989   -0.5752 C   0  0  0  0  0  0  0  0  0  0  0  0
   -9.5679   -3.1050   -1.3273 C   0  0  0  0  0  0  0  0  0  0  0  0
  -11.3184   -1.4706   -0.7961 C   0  0  0  0  0  0  0  0  0  0  0  0
   11.1930    0.4459    0.6173 H   0  0  0  0  0  0  0  0  0  0  0  0
   10.2900    0.3861   -0.9677 H   0  0  0  0  0  0  0  0  0  0  0  0
   10.5016   -1.1019    0.0902 H   0  0  0  0  0  0  0  0  0  0  0  0
    8.2344    4.6960   -1.8448 H   0  0  0  0  0  0  0  0  0  0  0  0
    6.8618    4.6003   -0.7571 H   0  0  0  0  0  0  0  0  0  0  0  0
    7.7282    3.0862    0.4718 H   0  0  0  0  0  0  0  0  0  0  0  0
    9.9814    3.4924   -1.3009 H   0  0  0  0  0  0  0  0  0  0  0  0
    8.3442   -0.7518   -0.7475 H   0  0  0  0  0  0  0  0  0  0  0  0
    6.9019    1.5537    0.6719 H   0  0  0  0  0  0  0  0  0  0  0  0
    5.1845    1.2867   -1.1598 H   0  0  0  0  0  0  0  0  0  0  0  0
    5.4946   -0.2371   -2.7290 H   0  0  0  0  0  0  0  0  0  0  0  0
    5.4397   -1.5220   -0.5020 H   0  0  0  0  0  0  0  0  0  0  0  0
    6.5180   -2.9461    1.2409 H   0  0  0  0  0  0  0  0  0  0  0  0
    8.2777   -2.8700    1.0575 H   0  0  0  0  0  0  0  0  0  0  0  0
    7.2145   -2.5217   -0.3936 H   0  0  0  0  0  0  0  0  0  0  0  0
    7.6577    0.0222    3.0498 H   0  0  0  0  0  0  0  0  0  0  0  0
    7.8600   -1.8063    3.0405 H   0  0  0  0  0  0  0  0  0  0  0  0
    9.0531   -0.7446    2.2742 H   0  0  0  0  0  0  0  0  0  0  0  0
    3.7896   -2.0683   -0.5724 H   0  0  0  0  0  0  0  0  0  0  0  0
    2.4879    0.0139   -1.7142 H   0  0  0  0  0  0  0  0  0  0  0  0
    1.2890   -2.7679   -1.8421 H   0  0  0  0  0  0  0  0  0  0  0  0
    1.7107   -1.5544   -3.1546 H   0  0  0  0  0  0  0  0  0  0  0  0
    2.9816   -2.4274   -2.2940 H   0  0  0  0  0  0  0  0  0  0  0  0
    0.0320   -1.3067   -0.8680 H   0  0  0  0  0  0  0  0  0  0  0  0
    1.5504    0.2756    1.2538 H   0  0  0  0  0  0  0  0  0  0  0  0
    0.6352   -2.5291    0.7044 H   0  0  0  0  0  0  0  0  0  0  0  0
    0.8315   -1.9487    2.4290 H   0  0  0  0  0  0  0  0  0  0  0  0
    3.1734   -1.4497    2.0479 H   0  0  0  0  0  0  0  0  0  0  0  0
    2.8577   -3.0059    1.1604 H   0  0  0  0  0  0  0  0  0  0  0  0
   -0.8857    2.2577   -0.5915 H   0  0  0  0  0  0  0  0  0  0  0  0
   -1.4997    0.1093   -2.2798 H   0  0  0  0  0  0  0  0  0  0  0  0
   -2.0464   -0.4989   -0.1607 H   0  0  0  0  0  0  0  0  0  0  0  0
   -1.0822   -0.8841    1.9315 H   0  0  0  0  0  0  0  0  0  0  0  0
   -0.3108    0.5870    3.2009 H   0  0  0  0  0  0  0  0  0  0  0  0
   -2.7911    1.9980    0.2860 H   0  0  0  0  0  0  0  0  0  0  0  0
   -4.5085    1.1067    1.7729 H   0  0  0  0  0  0  0  0  0  0  0  0
   -3.4538   -1.3954    1.2228 H   0  0  0  0  0  0  0  0  0  0  0  0
   -3.9602   -0.5851   -0.7481 H   0  0  0  0  0  0  0  0  0  0  0  0
   -5.6611   -1.0417    1.4037 H   0  0  0  0  0  0  0  0  0  0  0  0
   -5.8759   -1.6536   -0.2802 H   0  0  0  0  0  0  0  0  0  0  0  0
   -7.7574   -0.3907    1.1384 H   0  0  0  0  0  0  0  0  0  0  0  0
   -8.0062    1.9432   -0.1204 H   0  0  0  0  0  0  0  0  0  0  0  0
   -7.7599    1.1195    2.2103 H   0  0  0  0  0  0  0  0  0  0  0  0
   -5.2808    2.5942    0.7057 H   0  0  0  0  0  0  0  0  0  0  0  0
   -6.1824    3.0142   -0.7816 H   0  0  0  0  0  0  0  0  0  0  0  0
   -4.1248    1.8555   -1.2000 H   0  0  0  0  0  0  0  0  0  0  0  0
   -5.4869    0.9892   -1.9058 H   0  0  0  0  0  0  0  0  0  0  0  0
   -7.3486   -0.4783   -1.8928 H   0  0  0  0  0  0  0  0  0  0  0  0
   -8.0387   -1.6389   -0.7602 H   0  0  0  0  0  0  0  0  0  0  0  0
   -9.2667    1.0948   -1.4579 H   0  0  0  0  0  0  0  0  0  0  0  0
   -9.7137   -0.5199   -2.0039 H   0  0  0  0  0  0  0  0  0  0  0  0
   -9.8374    0.2161    0.9778 H   0  0  0  0  0  0  0  0  0  0  0  0
  -11.3068   -2.0133    0.4329 H   0  0  0  0  0  0  0  0  0  0  0  0
   -9.9902   -2.2334   -0.8046 H   0  0  0  0  0  0  0  0  0  0  0  0
   -9.5251   -2.0464    0.9196 H   0  0  0  0  0  0  0  0  0  0  0  0
  -12.0632    0.6719    0.6830 H   0  0  0  0  0  0  0  0  0  0  0  0
  -12.2180   -0.4428   -0.6835 H   0  0  0  0  0  0  0  0  0  0  0  0
  -11.4970    1.2315   -0.9118 H   0  0  0  0  0  0  0  0  0  0  0  0
    9.6949   -2.7761    0.2744 H   0  0  0  0  0  0  0  0  0  0  0  0
   10.1013   -1.0449    0.4283 H   0  0  0  0  0  0  0  0  0  0  0  0
    9.6474   -1.6460   -1.1717 H   0  0  0  0  0  0  0  0  0  0  0  0
    9.3821    4.0188    2.5939 H   0  0  0  0  0  0  0  0  0  0  0  0
    7.9091    3.3293    3.0283 H   0  0  0  0  0  0  0  0  0  0  0  0
    9.0295    1.6188    2.2666 H   0  0  0  0  0  0  0  0  0  0  0  0
    9.9674    2.8062   -0.0737 H   0  0  0  0  0  0  0  0  0  0  0  0
    8.6596    0.2109   -0.7485 H   0  0  0  0  0  0  0  0  0  0  0  0
    7.9657    0.3926    1.8515 H   0  0  0  0  0  0  0  0  0  0  0  0
    5.6150   -0.1128    1.6429 H   0  0  0  0  0  0  0  0  0  0  0  0
    5.6233    2.7445    1.4754 H   0  0  0  0  0  0  0  0  0  0  0  0
    4.9587    2.1812   -0.1479 H   0  0  0  0  0  0  0  0  0  0  0  0
    6.4249   -0.4583   -3.3006 H   0  0  0  0  0  0  0  0  0  0  0  0
    7.7907   -1.4556   -2.6805 H   0  0  0  0  0  0  0  0  0  0  0  0
    7.9236    0.3682   -2.8018 H   0  0  0  0  0  0  0  0  0  0  0  0
    5.8764   -1.9270    0.1167 H   0  0  0  0  0  0  0  0  0  0  0  0
    4.7932   -1.4700   -1.2753 H   0  0  0  0  0  0  0  0  0  0  0  0
    6.2891   -2.4001   -1.5277 H   0  0  0  0  0  0  0  0  0  0  0  0
    3.2239    2.3065   -0.3840 H   0  0  0  0  0  0  0  0  0  0  0  0
    1.5753    2.0687    1.1339 H   0  0  0  0  0  0  0  0  0  0  0  0
    3.1389   -0.4807    1.4720 H   0  0  0  0  0  0  0  0  0  0  0  0
    1.7443   -0.0719    2.5133 H   0  0  0  0  0  0  0  0  0  0  0  0
    3.2051    1.0550    2.4893 H   0  0  0  0  0  0  0  0  0  0  0  0
    0.1591   -0.0705    1.2725 H   0  0  0  0  0  0  0  0  0  0  0  0
    1.9202   -1.3790   -0.0456 H   0  0  0  0  0  0  0  0  0  0  0  0
    1.9916   -1.0105   -2.4384 H   0  0  0  0  0  0  0  0  0  0  0  0
    0.4682   -0.0946   -2.3943 H   0  0  0  0  0  0  0  0  0  0  0  0
    2.8693    1.1316   -2.5720 H   0  0  0  0  0  0  0  0  0  0  0  0
    1.4576    1.8829   -1.8237 H   0  0  0  0  0  0  0  0  0  0  0  0
   -2.0463    0.7762    0.2219 H   0  0  0  0  0  0  0  0  0  0  0  0
   -1.2059    1.6153   -2.2642 H   0  0  0  0  0  0  0  0  0  0  0  0
   -1.6853   -1.1181   -1.9596 H   0  0  0  0  0  0  0  0  0  0  0  0
    0.0503   -2.4227   -1.5335 H   0  0  0  0  0  0  0  0  0  0  0  0
    0.0103   -3.4610    0.2829 H   0  0  0  0  0  0  0  0  0  0  0  0
   -2.1811   -2.6315    0.2289 H   0  0  0  0  0  0  0  0  0  0  0  0
   -4.0063   -1.7461   -1.5543 H   0  0  0  0  0  0  0  0  0  0  0  0
   -3.9883   -3.5246    0.0796 H   0  0  0  0  0  0  0  0  0  0  0  0
   -4.2278    0.5620   -0.5604 H   0  0  0  0  0  0  0  0  0  0  0  0
   -6.0819   -1.3613   -1.2874 H   0  0  0  0  0  0  0  0  0  0  0  0
   -6.4066    0.3588   -1.0196 H   0  0  0  0  0  0  0  0  0  0  0  0
   -6.3551   -1.7476    1.1692 H   0  0  0  0  0  0  0  0  0  0  0  0
   -7.7606    0.9381    1.5898 H   0  0  0  0  0  0  0  0  0  0  0  0
   -6.9460    0.3254    3.5890 H   0  0  0  0  0  0  0  0  0  0  0  0
   -5.5051    1.3715    2.6920 H   0  0  0  0  0  0  0  0  0  0  0  0
   -5.6710    1.6284    0.8713 H   0  0  0  0  0  0  0  0  0  0  0  0
   -4.6974   -1.0634    1.9960 H   0  0  0  0  0  0  0  0  0  0  0  0
   -3.6414    0.3302    1.8012 H   0  0  0  0  0  0  0  0  0  0  0  0
   -7.8631   -2.5509   -0.2210 H   0  0  0  0  0  0  0  0  0  0  0  0
   -8.7795   -1.7759    1.0835 H   0  0  0  0  0  0  0  0  0  0  0  0
   -8.5919   -0.8112   -1.8348 H   0  0  0  0  0  0  0  0  0  0  0  0
   -9.9382   -1.5371   -0.9653 H   0  0  0  0  0  0  0  0  0  0  0  0
   -8.9078    1.2941   -0.3186 H   0  0  0  0  0  0  0  0  0  0  0  0
  -11.5264    0.6494    0.5970 H   0  0  0  0  0  0  0  0  0  0  0  0
  -10.4502   -0.6375    1.2694 H   0  0  0  0  0  0  0  0  0  0  0  0
  -10.1461    1.0859    1.6094 H   0  0  0  0  0  0  0  0  0  0  0  0
  -11.2680    1.6336   -1.2028 H   0  0  0  0  0  0  0  0  0  0  0  0
  -11.1773   -0.0363   -1.8420 H   0  0  0  0  0  0  0  0  0  0  0  0
   -9.9945    1.2563   -2.4235 H   0  0  0  0  0  0  0  0  0  0  0  0
    9.4093   -2.8316    0.4409 H   0  0  0  0  0  0  0  0  0  0  0  0
    9.6221   -1.2011    1.1350 H   0  0  0  0  0  0  0  0  0  0  0  0
    9.4916   -1.3915   -0.6532 H   0  0  0  0  0  0  0  0  0  0  0  0
    7.3804    3.6748    3.6051 H   0  0  0  0  0  0  0  0  0  0  0  0
    7.2004    2.4589    4.7294 H   0  0  0  0  0  0  0  0  0  0  0  0
    7.9120    0.8772    3.3912 H   0  0  0  0  0  0  0  0  0  0  0  0
    9.3069    2.1573    1.6163 H   0  0  0  0  0  0  0  0  0  0  0  0
    8.2338    0.2733    0.1037 H   0  0  0  0  0  0  0  0  0  0  0  0
    7.1284   -0.3724    2.4676 H   0  0  0  0  0  0  0  0  0  0  0  0
    4.9230   -0.9893    1.4937 H   0  0  0  0  0  0  0  0  0  0  0  0
    4.4129    1.5048    2.6724 H   0  0  0  0  0  0  0  0  0  0  0  0
    4.5865    1.9103    0.7685 H   0  0  0  0  0  0  0  0  0  0  0  0
    6.4848    0.2708   -2.8812 H   0  0  0  0  0  0  0  0  0  0  0  0
    7.7902   -0.8830   -2.3157 H   0  0  0  0  0  0  0  0  0  0  0  0
    7.8006    0.9110   -1.8780 H   0  0  0  0  0  0  0  0  0  0  0  0
    4.5113   -1.4110   -0.8063 H   0  0  0  0  0  0  0  0  0  0  0  0
    5.7895   -1.9617   -1.9968 H   0  0  0  0  0  0  0  0  0  0  0  0
    5.9783   -2.2380   -0.2680 H   0  0  0  0  0  0  0  0  0  0  0  0
    2.7271    2.2817    0.4700 H   0  0  0  0  0  0  0  0  0  0  0  0
    0.6919    1.5402    1.2047 H   0  0  0  0  0  0  0  0  0  0  0  0
    2.4489   -0.9087    0.9391 H   0  0  0  0  0  0  0  0  0  0  0  0
    0.8008   -1.0501    1.6117 H   0  0  0  0  0  0  0  0  0  0  0  0
    2.0277    0.0344    2.4701 H   0  0  0  0  0  0  0  0  0  0  0  0
   -0.4106   -0.5885    0.0470 H   0  0  0  0  0  0  0  0  0  0  0  0
    1.8411   -1.0251   -1.2488 H   0  0  0  0  0  0  0  0  0  0  0  0
    2.2577    0.5219   -3.1540 H   0  0  0  0  0  0  0  0  0  0  0  0
    0.6296    1.1582   -2.9735 H   0  0  0  0  0  0  0  0  0  0  0  0
    2.8234    2.4335   -1.9572 H   0  0  0  0  0  0  0  0  0  0  0  0
    1.2078    2.6252   -1.2723 H   0  0  0  0  0  0  0  0  0  0  0  0
   -2.4506    0.4668   -0.9111 H   0  0  0  0  0  0  0  0  0  0  0  0
   -2.1947    2.4637   -2.0595 H   0  0  0  0  0  0  0  0  0  0  0  0
   -1.7119   -0.4725   -3.4798 H   0  0  0  0  0  0  0  0  0  0  0  0
    0.4016   -1.0069   -3.4967 H   0  0  0  0  0  0  0  0  0  0  0  0
    0.7342   -2.9653   -2.8347 H   0  0  0  0  0  0  0  0  0  0  0  0
   -1.6158   -2.4391   -1.3721 H   0  0  0  0  0  0  0  0  0  0  0  0
   -3.7226   -1.9817   -3.2553 H   0  0  0  0  0  0  0  0  0  0  0  0
   -3.1523   -3.6612   -1.1383 H   0  0  0  0  0  0  0  0  0  0  0  0
   -5.5468   -1.8684   -1.8134 H   0  0  0  0  0  0  0  0  0  0  0  0
   -4.1617   -0.3379    0.4577 H   0  0  0  0  0  0  0  0  0  0  0  0
   -4.6293   -2.0667    0.4427 H   0  0  0  0  0  0  0  0  0  0  0  0
   -6.8028   -1.4614   -0.3494 H   0  0  0  0  0  0  0  0  0  0  0  0
   -6.7002    1.4022    0.4494 H   0  0  0  0  0  0  0  0  0  0  0  0
   -7.6591    1.5757   -1.5837 H   0  0  0  0  0  0  0  0  0  0  0  0
   -4.4883    1.4198   -0.4795 H   0  0  0  0  0  0  0  0  0  0  0  0
   -5.6394    2.0433   -1.6870 H   0  0  0  0  0  0  0  0  0  0  0  0
   -4.2284    0.4399   -2.8626 H   0  0  0  0  0  0  0  0  0  0  0  0
   -5.9391    0.0273   -2.7972 H   0  0  0  0  0  0  0  0  0  0  0  0
   -5.8565   -1.8787    2.0168 H   0  0  0  0  0  0  0  0  0  0  0  0
   -5.6770   -0.1102    2.1505 H   0  0  0  0  0  0  0  0  0  0  0  0
   -8.3650   -1.6168    2.0656 H   0  0  0  0  0  0  0  0  0  0  0  0
   -7.4611   -1.0966    3.5276 H   0  0  0  0  0  0  0  0  0  0  0  0
   -8.0337    1.3580    2.8642 H   0  0  0  0  0  0  0  0  0  0  0  0
  -10.1536    1.0280    3.8126 H   0  0  0  0  0  0  0  0  0  0  0  0
  -10.3535   -0.5634    2.9994 H   0  0  0  0  0  0  0  0  0  0  0  0
   -9.2147   -0.4176    4.3898 H   0  0  0  0  0  0  0  0  0  0  0  0
   -8.9657    1.6668    0.7870 H   0  0  0  0  0  0  0  0  0  0  0  0
  -10.3772    0.9779    1.5592 H   0  0  0  0  0  0  0  0  0  0  0  0
   -9.3565   -0.1131    0.5655 H   0  0  0  0  0  0  0  0  0  0  0  0
   10.9395   -1.2646    0.9674 H   0  0  0  0  0  0  0  0  0  0  0  0
    9.6570   -2.0368   -0.0195 H   0  0  0  0  0  0  0  0  0  0  0  0
    9.5543   -2.0838    1.7694 H   0  0  0  0  0  0  0  0  0  0  0  0
    8.7920   -0.1563   -4.5044 H   0  0  0  0  0  0  0  0  0  0  0  0
    7.3239    0.6533   -4.0655 H   0  0  0  0  0  0  0  0  0  0  0  0
    8.2510    1.1826   -2.1802 H   0  0  0  0  0  0  0  0  0  0  0  0
   10.2594    0.7419   -3.1017 H   0  0  0  0  0  0  0  0  0  0  0  0
    7.6432   -1.7052    0.7969 H   0  0  0  0  0  0  0  0  0  0  0  0
    7.2457    0.9763   -0.6549 H   0  0  0  0  0  0  0  0  0  0  0  0
    5.3549   -0.4204   -1.5839 H   0  0  0  0  0  0  0  0  0  0  0  0
    6.4686   -2.3506   -1.0619 H   0  0  0  0  0  0  0  0  0  0  0  0
    4.5608   -0.6160    1.1697 H   0  0  0  0  0  0  0  0  0  0  0  0
    5.4049   -0.7619    3.1760 H   0  0  0  0  0  0  0  0  0  0  0  0
    7.0896   -1.1236    3.6338 H   0  0  0  0  0  0  0  0  0  0  0  0
    6.4020   -2.0396    2.2952 H   0  0  0  0  0  0  0  0  0  0  0  0
    7.8220    1.9677    2.3117 H   0  0  0  0  0  0  0  0  0  0  0  0
    7.4757    0.9582    3.7602 H   0  0  0  0  0  0  0  0  0  0  0  0
    8.8908    0.5817    2.6640 H   0  0  0  0  0  0  0  0  0  0  0  0
    2.8993   -0.0389    1.0829 H   0  0  0  0  0  0  0  0  0  0  0  0
    2.3315    1.0087   -1.7083 H   0  0  0  0  0  0  0  0  0  0  0  0
    1.8297   -1.4931   -0.0390 H   0  0  0  0  0  0  0  0  0  0  0  0
    1.3670   -1.2869   -1.8197 H   0  0  0  0  0  0  0  0  0  0  0  0
    3.0923   -1.2694   -1.3041 H   0  0  0  0  0  0  0  0  0  0  0  0
    0.0028    0.5411   -1.3656 H   0  0  0  0  0  0  0  0  0  0  0  0
    0.6935    2.6970   -1.3870 H   0  0  0  0  0  0  0  0  0  0  0  0
    0.8667    3.4744    1.3817 H   0  0  0  0  0  0  0  0  0  0  0  0
    1.9866    3.7983    0.0759 H   0  0  0  0  0  0  0  0  0  0  0  0
    3.3370    2.6353    1.4460 H   0  0  0  0  0  0  0  0  0  0  0  0
    2.0815    1.6924    2.2282 H   0  0  0  0  0  0  0  0  0  0  0  0
   -1.5734   -0.1754    1.7023 H   0  0  0  0  0  0  0  0  0  0  0  0
   -1.3351    2.0860    2.5598 H   0  0  0  0  0  0  0  0  0  0  0  0
   -2.5762    2.0355    1.0921 H   0  0  0  0  0  0  0  0  0  0  0  0
   -0.9612    3.5376    0.6524 H   0  0  0  0  0  0  0  0  0  0  0  0
   -1.0074    2.9013   -2.0037 H   0  0  0  0  0  0  0  0  0  0  0  0
   -2.3102    1.3897   -1.5689 H   0  0  0  0  0  0  0  0  0  0  0  0
   -2.8524   -1.1039   -0.2424 H   0  0  0  0  0  0  0  0  0  0  0  0
   -4.2864    0.1507   -2.2941 H   0  0  0  0  0  0  0  0  0  0  0  0
   -5.2088    0.7546   -0.6751 H   0  0  0  0  0  0  0  0  0  0  0  0
   -4.9852   -1.9443    0.6851 H   0  0  0  0  0  0  0  0  0  0  0  0
   -5.2885   -1.7602   -1.0672 H   0  0  0  0  0  0  0  0  0  0  0  0
   -7.2815   -1.9987    0.6326 H   0  0  0  0  0  0  0  0  0  0  0  0
   -7.1220    1.0577    0.6187 H   0  0  0  0  0  0  0  0  0  0  0  0
   -8.7602    0.7517    1.8793 H   0  0  0  0  0  0  0  0  0  0  0  0
   -5.6980   -0.9799    2.4266 H   0  0  0  0  0  0  0  0  0  0  0  0
   -6.1261    0.7219    2.9446 H   0  0  0  0  0  0  0  0  0  0  0  0
   -4.8321    1.7057    1.4122 H   0  0  0  0  0  0  0  0  0  0  0  0
   -3.8556    0.3456    2.0366 H   0  0  0  0  0  0  0  0  0  0  0  0
   -7.0881   -0.1627   -1.8387 H   0  0  0  0  0  0  0  0  0  0  0  0
   -7.3689   -1.8969   -1.7417 H   0  0  0  0  0  0  0  0  0  0  0  0
   -9.3210    0.3071   -0.8393 H   0  0  0  0  0  0  0  0  0  0  0  0
   -9.3225   -0.6882   -2.2924 H   0  0  0  0  0  0  0  0  0  0  0  0
   -9.6309   -1.9971    0.4773 H   0  0  0  0  0  0  0  0  0  0  0  0
  -10.3480   -3.8767   -1.0540 H   0  0  0  0  0  0  0  0  0  0  0  0
   -9.6875   -2.9487   -2.4238 H   0  0  0  0  0  0  0  0  0  0  0  0
   -8.5702   -3.5093   -1.1178 H   0  0  0  0  0  0  0  0  0  0  0  0
  -11.9049   -1.6101    0.1313 H   0  0  0  0  0  0  0  0  0  0  0  0
  -11.7487   -2.1119   -1.5792 H   0  0  0  0  0  0  0  0  0  0  0  0
  -11.4059   -0.4184   -1.1003 H   0  0  0  0  0  0  0  0  0  0  0  0
  1  2  1  0
  3  4  1  0
  4  5  1  0
  4  6  1  0
  2  7  1  0
  6  8  1  0
  7  8  1  0
  8  9  1  0
  9 10  1  0
  9 11  1  0
 11 12  1  0
  7 13  1  0
 12 13  1  0
 13 14  1  0
 13 15  1  0
 11 16  1  0
 16 17  1  0
 17 18  1  0
 18 19  1  0
 18 20  1  0
 20 21  1  0
 21 22  1  0
 17 23  1  0
 22 23  1  0
 20 24  1  0
 24 25  1  0
 25 26  1  0
 25 27  1  0
 21 28  1  0
 27 28  1  0
 28 29  1  0
 27 30  1  0
 30 31  1  0
 31 32  1  0
 31 33  1  0
 33 34  1  0
 34 35  1  0
 35 36  1  0
 36 37  1  0
 36 38  1  0
 33 39  1  0
 38 39  1  0
 35 40  1  0
 40 41  1  0
 41 42  1  0
 42 43  1  0
 42 44  1  0
 45 46  1  0
 47 48  1  0
 48 49  1  0
 48 50  1  0
 46 51  1  0
 50 52  1  0
 51 52  1  0
 52 53  1  0
 53 54  1  0
 53 55  1  0
 55 56  1  0
 51 57  1  0
 56 57  1  0
 57 58  1  0
 57 59  1  0
 55 60  1  0
 60 61  1  0
 61 62  1  0
 62 63  1  0
 62 64  1  0
 64 65  1  0
 65 66  1  0
 61 67  1  0
 66 67  1  0
 64 68  1  0
 68 69  1  0
 69 70  1  0
 69 71  1  0
 65 72  1  0
 71 72  1  0
 72 73  1  0
 71 74  1  0
 74 75  1  0
 75 76  1  0
 75 77  1  0
 77 78  1  0
 78 79  1  0
 79 80  1  0
 80 81  1  0
 80 82  1  0
 77 83  1  0
 82 83  1  0
 79 84  1  0
 84 85  1  0
 85 86  1  0
 86 87  1  0
 86 88  1  0
 89 90  1  0
 91 92  1  0
 92 93  1  0
 92 94  1  0
 90 95  1  0
 94 96  1  0
 95 96  1  0
 96 97  1  0
 97 98  1  0
 97 99  1  0
 99100  1  0
 95101  1  0
100101  1  0
101102  1  0
101103  1  0
 99104  1  0
104105  1  0
105106  1  0
106107  1  0
106108  1  0
108109  1  0
109110  1  0
105111  1  0
110111  1  0
108112  1  0
112113  1  0
113114  1  0
113115  1  0
109116  1  0
115116  1  0
116117  1  0
115118  1  0
118119  1  0
119120  1  0
119121  1  0
121122  1  0
122123  1  0
123124  1  0
124125  1  0
124126  1  0
121127  1  0
126127  1  0
123128  1  0
128129  1  0
129130  1  0
130131  1  0
130132  1  0
133134  1  0
135136  1  0
136137  1  0
136138  1  0
134139  1  0
138140  1  0
139140  1  0
140141  1  0
141142  1  0
141143  1  0
143144  1  0
139145  1  0
144145  1  0
145146  1  0
145147  1  0
143148  1  0
148149  1  0
149150  1  0
150151  1  0
150152  1  0
152153  1  0
153154  1  0
149155  1  0
154155  1  0
152156  1  0
156157  1  0
157158  1  0
157159  1  0
153160  1  0
159160  1  0
160161  1  0
159162  1  0
162163  1  0
163164  1  0
163165  1  0
165166  1  0
166167  1  0
167168  1  0
168169  1  0
168170  1  0
165171  1  0
170171  1  0
167172  1  0
172173  1  0
173174  1  0
174175  1  0
174176  1  0
  1177  1  0
  1178  1  0
  1179  1  0
  3180  1  0
  3181  1  0
  4182  1  0
  5183  1  0
  7184  1  6
  8185  1  1
  9186  1  6
 10187  1  0
 11188  1  6
 14189  1  0
 14190  1  0
 14191  1  0
 15192  1  0
 15193  1  0
 15194  1  0
 17195  1  0
 18196  1  6
 19197  1  0
 19198  1  0
 19199  1  0
 20200  1  0
 21201  1  0
 22202  1  0
 22203  1  0
 23204  1  0
 23205  1  0
 25206  1  0
 26207  1  0
 27208  1  6
 28209  1  0
 29210  1  0
 30211  1  0
 31212  1  0
 32213  1  0
 33214  1  6
 34215  1  0
 34216  1  0
 35217  1  0
 36218  1  6
 37219  1  0
 38220  1  0
 38221  1  0
 39222  1  0
 39223  1  0
 40224  1  0
 40225  1  0
 41226  1  0
 41227  1  0
 42228  1  0
 43229  1  0
 43230  1  0
 43231  1  0
 44232  1  0
 44233  1  0
 44234  1  0
 45235  1  0
 45236  1  0
 45237  1  0
 47238  1  0
 47239  1  0
 48240  1  0
 49241  1  0
 51242  1  6
 52243  1  1
 53244  1  1
 54245  1  0
 55246  1  6
 58247  1  0
 58248  1  0
 58249  1  0
 59250  1  0
 59251  1  0
 59252  1  0
 61253  1  0
 62254  1  0
 63255  1  0
 63256  1  0
 63257  1  0
 64258  1  0
 65259  1  0
 66260  1  0
 66261  1  0
 67262  1  0
 67263  1  0
 69264  1  0
 70265  1  0
 71266  1  6
 72267  1  0
 73268  1  0
 74269  1  0
 75270  1  0
 76271  1  0
 77272  1  0
 78273  1  0
 78274  1  0
 79275  1  0
 80276  1  0
 81277  1  0
 82278  1  0
 82279  1  0
 83280  1  0
 83281  1  0
 84282  1  0
 84283  1  0
 85284  1  0
 85285  1  0
 86286  1  0
 87287  1  0
 87288  1  0
 87289  1  0
 88290  1  0
 88291  1  0
 88292  1  0
 89293  1  0
 89294  1  0
 89295  1  0
 91296  1  0
 91297  1  0
 92298  1  0
 93299  1  0
 95300  1  6
 96301  1  1
 97302  1  6
 98303  1  0
 99304  1  1
102305  1  0
102306  1  0
102307  1  0
103308  1  0
103309  1  0
103310  1  0
105311  1  0
106312  1  0
107313  1  0
107314  1  0
107315  1  0
108316  1  0
109317  1  0
110318  1  0
110319  1  0
111320  1  0
111321  1  0
113322  1  0
114323  1  0
115324  1  6
116325  1  0
117326  1  0
118327  1  0
119328  1  0
120329  1  0
121330  1  6
122331  1  0
122332  1  0
123333  1  6
124334  1  0
125335  1  0
126336  1  0
126337  1  0
127338  1  0
127339  1  0
128340  1  0
128341  1  0
129342  1  0
129343  1  0
130344  1  0
131345  1  0
131346  1  0
131347  1  0
132348  1  0
132349  1  0
132350  1  0
133351  1  0
133352  1  0
133353  1  0
135354  1  0
135355  1  0
136356  1  0
137357  1  0
139358  1  6
140359  1  6
141360  1  6
142361  1  0
143362  1  1
146363  1  0
146364  1  0
146365  1  0
147366  1  0
147367  1  0
147368  1  0
149369  1  0
150370  1  6
151371  1  0
151372  1  0
151373  1  0
152374  1  0
153375  1  0
154376  1  0
154377  1  0
155378  1  0
155379  1  0
157380  1  0
158381  1  0
159382  1  1
160383  1  0
161384  1  0
162385  1  0
163386  1  1
164387  1  0
165388  1  6
166389  1  0
166390  1  0
167391  1  0
168392  1  0
169393  1  0
170394  1  0
170395  1  0
171396  1  0
171397  1  0
172398  1  0
172399  1  0
173400  1  0
173401  1  0
174402  1  0
175403  1  0
175404  1  0
175405  1  0
176406  1  0
176407  1  0
176408  1  0
M  END
>  <PDBID>  (1) 
4URO

>  <PDB ID>  (1) 
4URO

>  <Generic Name>  (1) 
Novobiocin

>  <Brand Name>  (1) 
Albamycin

>  <DrugBank ID>  (1) 
DB01051

>  <ATC Codes>  (1) 
nan

>  <Ligand ID>  (1) 
NOV

>  <Target Name>  (1) 
DNA gyrase subunit B

>  <UniProt ID>  (1) 
P0A0K8

>  <PDB ID.1>  (1) 
4URO

>  <Seq. Identity>  (1) 
84%

$$$$
