PDB_DB09053_08
     RDKit          3D

 81 85  0  0  0  0  0  0  0  0999 V2000
   -2.3930    3.3808   -0.2590 N   0  0  0  0  0  0  0  0  0  0  0  0
   -3.1724    3.2910   -1.4606 C   0  0  0  0  0  0  0  0  0  0  0  0
   -3.3356    1.9207   -1.7872 N   0  0  0  0  0  0  0  0  0  0  0  0
   -2.2270    1.0737   -1.6788 C   0  0  0  0  0  0  0  0  0  0  0  0
   -0.9133    1.6521   -1.2485 C   0  0  0  0  0  0  0  0  0  0  0  0
   -1.0377    2.9891   -0.5675 C   0  0  1  0  0  0  0  0  0  0  0  0
   -6.6599   -3.1415    1.7193 C   0  0  0  0  0  0  0  0  0  0  0  0
   -0.4804    4.0753   -1.3638 N   0  0  0  0  0  0  0  0  0  0  0  0
   -7.7408   -0.7285    0.7256 O   0  0  0  0  0  0  0  0  0  0  0  0
   -6.4193   -2.5994    0.3562 C   0  0  0  0  0  0  0  0  0  0  0  0
    8.7224   -1.3400    0.6609 C   0  0  0  0  0  0  0  0  0  0  0  0
    8.1540   -0.0028    1.0663 C   0  0  0  0  0  0  0  0  0  0  0  0
    7.6141   -2.3685    0.8594 C   0  0  0  0  0  0  0  0  0  0  0  0
    7.0201    0.3392    0.1517 C   0  0  0  0  0  0  0  0  0  0  0  0
    6.4448   -2.0912   -0.0504 C   0  0  0  0  0  0  0  0  0  0  0  0
    3.3300    1.2584   -1.0121 C   0  0  0  0  0  0  0  0  0  0  0  0
    2.9146   -1.1352   -1.2467 C   0  0  0  0  0  0  0  0  0  0  0  0
    2.0065    1.4639   -0.2522 C   0  0  0  0  0  0  0  0  0  0  0  0
    1.5248   -0.5718   -1.6058 C   0  0  0  0  0  0  0  0  0  0  0  0
   -3.7141   -1.0010    2.5049 C   0  0  0  0  0  0  0  0  0  0  0  0
   -2.9516   -1.1440    1.2130 C   0  0  0  0  0  0  0  0  0  0  0  0
   -5.1328   -0.4683    2.2516 C   0  0  0  0  0  0  0  0  0  0  0  0
   -4.5671    0.3933    0.0929 C   0  0  0  0  0  0  0  0  0  0  0  0
   -1.1410   -0.5828   -0.7483 N   0  0  0  0  0  0  0  0  0  0  0  0
    5.1182   -0.3811   -1.0087 O   0  0  0  0  0  0  0  0  0  0  0  0
   -6.4443   -1.1100    0.2691 C   0  0  0  0  0  0  0  0  0  0  0  0
    5.9321   -0.6774    0.0960 C   0  0  0  0  0  0  0  0  0  0  0  0
    3.8138   -0.1169   -0.6344 C   0  0  0  0  0  0  0  0  0  0  0  0
    1.0873    0.2798   -0.4612 C   0  0  0  0  0  0  0  0  0  0  0  0
   -0.3485    0.6064   -0.3584 C   0  0  0  0  0  0  0  0  0  0  0  0
   -3.0999    0.1504    0.3979 C   0  0  2  0  0  0  0  0  0  0  0  0
   -2.4459   -0.0816   -0.8358 N   0  0  0  0  0  0  0  0  0  0  0  0
   -5.3869   -0.4684    0.8837 N   0  0  0  0  0  0  0  0  0  0  0  0
   -2.3407    4.3900    0.0353 H   0  0  0  0  0  0  0  0  0  0  0  0
   -4.1951    3.7034   -1.2080 H   0  0  0  0  0  0  0  0  0  0  0  0
   -2.8102    3.9386   -2.2860 H   0  0  0  0  0  0  0  0  0  0  0  0
   -3.8779    1.8431   -2.6762 H   0  0  0  0  0  0  0  0  0  0  0  0
   -2.0517    0.6305   -2.7091 H   0  0  0  0  0  0  0  0  0  0  0  0
   -0.2344    1.7998   -2.1141 H   0  0  0  0  0  0  0  0  0  0  0  0
   -0.4983    2.9931    0.4010 H   0  0  0  0  0  0  0  0  0  0  0  0
   -5.7552   -3.2271    2.3452 H   0  0  0  0  0  0  0  0  0  0  0  0
   -7.0916   -4.2005    1.5929 H   0  0  0  0  0  0  0  0  0  0  0  0
   -7.4375   -2.6011    2.3055 H   0  0  0  0  0  0  0  0  0  0  0  0
   -1.1438    4.8438   -1.5386 H   0  0  0  0  0  0  0  0  0  0  0  0
    0.0082    3.7453   -2.2109 H   0  0  0  0  0  0  0  0  0  0  0  0
   -7.7305   -0.5384    1.6923 H   0  0  0  0  0  0  0  0  0  0  0  0
   -7.1134   -3.0696   -0.3969 H   0  0  0  0  0  0  0  0  0  0  0  0
   -5.4115   -2.9757    0.0305 H   0  0  0  0  0  0  0  0  0  0  0  0
    8.9561   -1.3266   -0.4109 H   0  0  0  0  0  0  0  0  0  0  0  0
    9.5671   -1.6644    1.2991 H   0  0  0  0  0  0  0  0  0  0  0  0
    7.8870    0.0222    2.1380 H   0  0  0  0  0  0  0  0  0  0  0  0
    8.9584    0.7561    0.8799 H   0  0  0  0  0  0  0  0  0  0  0  0
    8.0078   -3.3651    0.5842 H   0  0  0  0  0  0  0  0  0  0  0  0
    7.3351   -2.3859    1.9168 H   0  0  0  0  0  0  0  0  0  0  0  0
    7.4392    0.5811   -0.8465 H   0  0  0  0  0  0  0  0  0  0  0  0
    6.5763    1.2980    0.5347 H   0  0  0  0  0  0  0  0  0  0  0  0
    6.7112   -2.3151   -1.0962 H   0  0  0  0  0  0  0  0  0  0  0  0
    5.6135   -2.7632    0.2969 H   0  0  0  0  0  0  0  0  0  0  0  0
    3.9932    2.0710   -0.6852 H   0  0  0  0  0  0  0  0  0  0  0  0
    3.1488    1.3309   -2.1090 H   0  0  0  0  0  0  0  0  0  0  0  0
    2.7980   -2.0000   -0.5476 H   0  0  0  0  0  0  0  0  0  0  0  0
    3.3563   -1.5280   -2.1788 H   0  0  0  0  0  0  0  0  0  0  0  0
    1.5896    2.4272   -0.5347 H   0  0  0  0  0  0  0  0  0  0  0  0
    2.3319    1.5750    0.8217 H   0  0  0  0  0  0  0  0  0  0  0  0
    0.8933   -1.5031   -1.6210 H   0  0  0  0  0  0  0  0  0  0  0  0
    1.6308   -0.0782   -2.5677 H   0  0  0  0  0  0  0  0  0  0  0  0
   -3.1836   -0.3364    3.2276 H   0  0  0  0  0  0  0  0  0  0  0  0
   -3.8081   -2.0034    2.9590 H   0  0  0  0  0  0  0  0  0  0  0  0
   -3.3705   -1.9588    0.6325 H   0  0  0  0  0  0  0  0  0  0  0  0
   -1.8741   -1.2712    1.4541 H   0  0  0  0  0  0  0  0  0  0  0  0
   -5.1301    0.6218    2.6275 H   0  0  0  0  0  0  0  0  0  0  0  0
   -5.8924   -0.9625    2.8428 H   0  0  0  0  0  0  0  0  0  0  0  0
   -4.7983    1.4622    0.3572 H   0  0  0  0  0  0  0  0  0  0  0  0
   -4.8135    0.1942   -0.9759 H   0  0  0  0  0  0  0  0  0  0  0  0
   -0.8708   -0.7047   -1.7797 H   0  0  0  0  0  0  0  0  0  0  0  0
   -6.4708   -0.8659   -0.8509 H   0  0  0  0  0  0  0  0  0  0  0  0
    5.3246   -0.6203    1.0199 H   0  0  0  0  0  0  0  0  0  0  0  0
    3.6804   -0.1966    0.4848 H   0  0  0  0  0  0  0  0  0  0  0  0
    1.3031   -0.3808    0.4596 H   0  0  0  0  0  0  0  0  0  0  0  0
   -0.6222    0.8246    0.6987 H   0  0  0  0  0  0  0  0  0  0  0  0
   -2.6546    0.9269    1.0373 H   0  0  0  0  0  0  0  0  0  0  0  0
  1  2  1  0
  2  3  1  0
  3  4  1  0
  4  5  1  0
  1  6  1  0
  5  6  1  0
  6  8  1  0
  7 10  1  0
 11 12  1  0
 11 13  1  0
 12 14  1  0
 13 15  1  0
 16 18  1  0
 17 19  1  0
 20 21  1  0
 20 22  1  0
  9 26  1  0
 10 26  1  0
 14 27  1  0
 15 27  1  0
 25 27  1  0
 16 28  1  0
 17 28  1  0
 25 28  1  0
 18 29  1  0
 19 29  1  0
  5 30  1  0
 24 30  1  0
 29 30  1  0
 21 31  1  0
 23 31  1  0
  4 32  1  0
 24 32  1  0
 31 32  1  0
 22 33  1  0
 23 33  1  0
 26 33  1  0
  1 34  1  0
  2 35  1  0
  2 36  1  0
  3 37  1  0
  4 38  1  0
  5 39  1  0
  6 40  1  1
  7 41  1  0
  7 42  1  0
  7 43  1  0
  8 44  1  0
  8 45  1  0
  9 46  1  0
 10 47  1  0
 10 48  1  0
 11 49  1  0
 11 50  1  0
 12 51  1  0
 12 52  1  0
 13 53  1  0
 13 54  1  0
 14 55  1  0
 14 56  1  0
 15 57  1  0
 15 58  1  0
 16 59  1  0
 16 60  1  0
 17 61  1  0
 17 62  1  0
 18 63  1  0
 18 64  1  0
 19 65  1  0
 19 66  1  0
 20 67  1  0
 20 68  1  0
 21 69  1  0
 21 70  1  0
 22 71  1  0
 22 72  1  0
 23 73  1  0
 23 74  1  0
 24 75  1  0
 26 76  1  0
 27 77  1  0
 28 78  1  0
 29 79  1  0
 30 80  1  0
 31 81  1  1
M  END
>  <PDBID>  (1) 
5P9I

>  <PDB ID>  (1) 
5P9I

>  <Generic Name>  (1) 
Ibrutinib

>  <Brand Name>  (1) 
Imbruvica

>  <DrugBank ID>  (1) 
DB09053

>  <ATC Codes>  (1) 
L01XE27

>  <Ligand ID>  (1) 
100000000

>  <Target Name>  (1) 
Tyrosine-protein kinase BTK

>  <UniProt ID>  (1) 
Q06187

>  <PDB ID.1>  (1) 
5P9I

>  <Seq. Identity>  (1) 
100%

$$$$
