PDB_DB01254_07
     RDKit          3D

154160  0  0  0  0  0  0  0  0999 V2000
    2.1583   -0.7995    1.0935 C   0  0  0  0  0  0  0  0  0  0  0  0
    2.4149   -1.0153   -0.3530 C   0  0  0  0  0  0  0  0  0  0  0  0
    3.9049   -1.0970   -0.5675 C   0  0  0  0  0  0  0  0  0  0  0  0
   -7.3789    0.2878   -0.8482 N   0  0  0  0  0  0  0  0  0  0  0  0
    8.6265    1.0092   -0.6330 C   0  0  0  0  0  0  0  0  0  0  0  0
    7.5688    0.7873   -1.6829 C   0  0  0  0  0  0  0  0  0  0  0  0
    6.5858   -0.3122   -1.2732 C   0  0  0  0  0  0  0  0  0  0  0  0
    7.3011   -1.6471   -1.1803 C   0  0  0  0  0  0  0  0  0  0  0  0
   -0.9159    0.4434   -0.2082 C   0  0  0  0  0  0  0  0  0  0  0  0
   -2.3571    0.8098   -0.4646 C   0  0  0  0  0  0  0  0  0  0  0  0
   -3.2843   -0.3638   -0.2031 C   0  0  0  0  0  0  0  0  0  0  0  0
   -1.9030   -0.5699    1.7548 C   0  0  0  0  0  0  0  0  0  0  0  0
   -1.9208    0.6663    2.6121 C   0  0  0  0  0  0  0  0  0  0  0  0
   -5.2404    1.0470    0.0979 C   0  0  0  0  0  0  0  0  0  0  0  0
   -5.3458   -0.8740   -1.3808 C   0  0  0  0  0  0  0  0  0  0  0  0
   -8.1992   -0.8699   -0.5451 C   0  0  0  0  0  0  0  0  0  0  0  0
   -9.4146   -0.5307    0.2917 C   0  0  0  0  0  0  0  0  0  0  0  0
   -0.2230    1.6426    0.2247 N   0  0  0  0  0  0  0  0  0  0  0  0
    1.1797    1.2712    0.4384 C   0  0  1  0  0  0  0  0  0  0  0  0
    1.2147    0.1961    1.3552 N   0  0  0  0  0  0  0  0  0  0  0  0
    1.8205    0.5295   -1.0831 S   0  0  0  0  0  0  0  0  0  0  0  0
    4.5217    0.1166   -0.1331 N   0  0  0  0  0  0  0  0  0  0  0  0
    5.9506   -0.0092    0.0470 C   0  0  2  0  0  0  0  0  0  0  0  0
    6.5192    1.2286    0.6960 C   0  0  0  0  0  0  0  0  0  0  0  0
    8.0349    1.1204    0.7571 C   0  0  0  0  0  0  0  0  0  0  0  0
    5.9397    1.2166    2.3921 Cl  0  0  0  0  0  0  0  0  0  0  0  0
    4.4577   -2.2274    0.0245 O   0  0  0  0  0  0  0  0  0  0  0  0
   -3.1930   -0.8412    1.1600 N   0  0  0  0  0  0  0  0  0  0  0  0
   -0.8137   -0.5600    0.8333 N   0  0  0  0  0  0  0  0  0  0  0  0
   -4.5906    0.0039   -0.5741 N   0  0  0  0  0  0  0  0  0  0  0  0
   -6.7218    0.8260    0.2914 C   0  0  0  0  0  0  0  0  0  0  0  0
   -6.5219   -0.0559   -1.9378 C   0  0  0  0  0  0  0  0  0  0  0  0
  -10.2504    0.3647   -0.3291 O   0  0  0  0  0  0  0  0  0  0  0  0
    2.0170   -1.4631   -1.7513 C   0  0  0  0  0  0  0  0  0  0  0  0
    3.2063   -1.2766   -0.7878 C   0  0  0  0  0  0  0  0  0  0  0  0
    4.4096   -1.1093   -1.6485 C   0  0  0  0  0  0  0  0  0  0  0  0
   -7.1876    0.7862   -0.8296 N   0  0  0  0  0  0  0  0  0  0  0  0
    8.2372    2.1276    0.0037 C   0  0  0  0  0  0  0  0  0  0  0  0
    7.7157    1.2643    1.1284 C   0  0  0  0  0  0  0  0  0  0  0  0
    7.1876   -0.0003    0.5364 C   0  0  0  0  0  0  0  0  0  0  0  0
    7.0508   -1.1099    1.5520 C   0  0  0  0  0  0  0  0  0  0  0  0
   -1.3439    0.0725   -0.0124 C   0  0  0  0  0  0  0  0  0  0  0  0
   -2.4146    0.8516    0.6249 C   0  0  0  0  0  0  0  0  0  0  0  0
   -3.6436    0.1012    1.0488 C   0  0  2  0  0  0  0  0  0  0  0  0
   -2.1388   -1.7192    1.3847 C   0  0  0  0  0  0  0  0  0  0  0  0
   -1.6212   -1.3706    2.7428 C   0  0  0  0  0  0  0  0  0  0  0  0
   -5.2717    1.7573    0.3239 C   0  0  0  0  0  0  0  0  0  0  0  0
   -5.0920   -0.3591   -0.8471 C   0  0  0  0  0  0  0  0  0  0  0  0
   -7.8381   -0.3363   -0.2288 C   0  0  0  0  0  0  0  0  0  0  0  0
   -9.1930   -0.0467    0.3379 C   0  0  0  0  0  0  0  0  0  0  0  0
   -0.0194    0.5630    0.4125 N   0  0  0  0  0  0  0  0  0  0  0  0
    0.9008    0.2238   -0.6527 C   0  0  2  0  0  0  0  0  0  0  0  0
    0.8456   -1.2147   -0.9199 N   0  0  0  0  0  0  0  0  0  0  0  0
    2.6458    0.3231   -0.0690 S   0  0  0  0  0  0  0  0  0  0  0  0
    5.6506   -0.9333   -0.9955 N   0  0  0  0  0  0  0  0  0  0  0  0
    5.8430    0.2078   -0.1821 C   0  0  0  0  0  0  0  0  0  0  0  0
    5.9849    1.4979   -0.9442 C   0  0  0  0  0  0  0  0  0  0  0  0
    7.4352    1.8470   -1.2404 C   0  0  0  0  0  0  0  0  0  0  0  0
    5.3138    2.8025    0.0555 Cl  0  0  0  0  0  0  0  0  0  0  0  0
    4.5406   -2.2683   -2.4552 O   0  0  0  0  0  0  0  0  0  0  0  0
   -3.4879   -1.3186    1.1472 N   0  0  0  0  0  0  0  0  0  0  0  0
   -1.3293   -1.3329    0.2836 N   0  0  0  0  0  0  0  0  0  0  0  0
   -4.8002    0.4270    0.2839 N   0  0  0  0  0  0  0  0  0  0  0  0
   -6.7832    1.7853    0.1098 C   0  0  0  0  0  0  0  0  0  0  0  0
   -6.1329    0.3481   -1.6980 C   0  0  0  0  0  0  0  0  0  0  0  0
  -10.0856    0.4082   -0.6336 O   0  0  0  0  0  0  0  0  0  0  0  0
    1.7852   -1.7455    1.5756 H   0  0  0  0  0  0  0  0  0  0  0  0
    3.0947   -0.5727    1.6479 H   0  0  0  0  0  0  0  0  0  0  0  0
    1.8846   -1.8989   -0.7701 H   0  0  0  0  0  0  0  0  0  0  0  0
    4.0513   -1.1671   -1.6868 H   0  0  0  0  0  0  0  0  0  0  0  0
    9.1110    1.9873   -0.8339 H   0  0  0  0  0  0  0  0  0  0  0  0
    9.3444    0.1922   -0.6439 H   0  0  0  0  0  0  0  0  0  0  0  0
    8.0377    0.4406   -2.6149 H   0  0  0  0  0  0  0  0  0  0  0  0
    6.9394    1.6927   -1.8162 H   0  0  0  0  0  0  0  0  0  0  0  0
    5.8714   -0.3845   -2.1213 H   0  0  0  0  0  0  0  0  0  0  0  0
    6.9229   -2.3892   -1.9210 H   0  0  0  0  0  0  0  0  0  0  0  0
    8.3926   -1.4777   -1.4225 H   0  0  0  0  0  0  0  0  0  0  0  0
    7.1902   -2.1133   -0.1816 H   0  0  0  0  0  0  0  0  0  0  0  0
   -0.4876    0.0537   -1.1523 H   0  0  0  0  0  0  0  0  0  0  0  0
   -2.4925    1.0898   -1.5326 H   0  0  0  0  0  0  0  0  0  0  0  0
   -2.7107    1.6388    0.1511 H   0  0  0  0  0  0  0  0  0  0  0  0
   -2.9176   -1.2055   -0.8463 H   0  0  0  0  0  0  0  0  0  0  0  0
   -1.7036   -1.4239    2.4595 H   0  0  0  0  0  0  0  0  0  0  0  0
   -2.8967    1.2257    2.5201 H   0  0  0  0  0  0  0  0  0  0  0  0
   -1.0828    1.3556    2.4118 H   0  0  0  0  0  0  0  0  0  0  0  0
   -1.8360    0.4372    3.7157 H   0  0  0  0  0  0  0  0  0  0  0  0
   -5.0701    1.9984   -0.4890 H   0  0  0  0  0  0  0  0  0  0  0  0
   -4.8220    1.2649    1.0942 H   0  0  0  0  0  0  0  0  0  0  0  0
   -5.7555   -1.7784   -0.8660 H   0  0  0  0  0  0  0  0  0  0  0  0
   -4.7000   -1.2215   -2.2224 H   0  0  0  0  0  0  0  0  0  0  0  0
   -8.4881   -1.3062   -1.5235 H   0  0  0  0  0  0  0  0  0  0  0  0
   -7.5990   -1.6353   -0.0108 H   0  0  0  0  0  0  0  0  0  0  0  0
   -9.0569   -0.1318    1.2669 H   0  0  0  0  0  0  0  0  0  0  0  0
   -9.9052   -1.5136    0.5201 H   0  0  0  0  0  0  0  0  0  0  0  0
   -0.2540    2.3552   -0.5541 H   0  0  0  0  0  0  0  0  0  0  0  0
    1.7764    2.1580    0.7440 H   0  0  0  0  0  0  0  0  0  0  0  0
    1.3193    0.5424    2.3294 H   0  0  0  0  0  0  0  0  0  0  0  0
    4.2882    0.9386   -0.7157 H   0  0  0  0  0  0  0  0  0  0  0  0
    6.1290   -0.8465    0.7939 H   0  0  0  0  0  0  0  0  0  0  0  0
    6.1897    2.1668    0.2226 H   0  0  0  0  0  0  0  0  0  0  0  0
    8.4093    2.0074    1.3136 H   0  0  0  0  0  0  0  0  0  0  0  0
    8.2619    0.2123    1.3731 H   0  0  0  0  0  0  0  0  0  0  0  0
    4.0748   -3.0469   -0.3919 H   0  0  0  0  0  0  0  0  0  0  0  0
   -3.4210   -1.8569    1.2019 H   0  0  0  0  0  0  0  0  0  0  0  0
   -0.5650   -1.5037    0.4644 H   0  0  0  0  0  0  0  0  0  0  0  0
   -7.1622    1.8270    0.4977 H   0  0  0  0  0  0  0  0  0  0  0  0
   -6.8392    0.2330    1.2277 H   0  0  0  0  0  0  0  0  0  0  0  0
   -7.0487   -0.5731   -2.7347 H   0  0  0  0  0  0  0  0  0  0  0  0
   -6.0358    0.8853   -2.3200 H   0  0  0  0  0  0  0  0  0  0  0  0
  -10.1489    1.2955   -0.0683 H   0  0  0  0  0  0  0  0  0  0  0  0
    2.0623   -0.6153   -2.4737 H   0  0  0  0  0  0  0  0  0  0  0  0
    1.9841   -2.4480   -2.2028 H   0  0  0  0  0  0  0  0  0  0  0  0
    3.2582   -2.0569   -0.0357 H   0  0  0  0  0  0  0  0  0  0  0  0
    4.1685   -0.3072   -2.3889 H   0  0  0  0  0  0  0  0  0  0  0  0
    9.3031    1.9128   -0.2312 H   0  0  0  0  0  0  0  0  0  0  0  0
    8.0622    3.1824    0.2940 H   0  0  0  0  0  0  0  0  0  0  0  0
    6.9289    1.7502    1.7164 H   0  0  0  0  0  0  0  0  0  0  0  0
    8.5725    0.9929    1.7815 H   0  0  0  0  0  0  0  0  0  0  0  0
    7.8746   -0.3834   -0.2710 H   0  0  0  0  0  0  0  0  0  0  0  0
    7.5042   -2.0442    1.2045 H   0  0  0  0  0  0  0  0  0  0  0  0
    7.5269   -0.8457    2.5228 H   0  0  0  0  0  0  0  0  0  0  0  0
    5.9781   -1.3048    1.7765 H   0  0  0  0  0  0  0  0  0  0  0  0
   -1.3593    0.1918   -1.1159 H   0  0  0  0  0  0  0  0  0  0  0  0
   -2.7616    1.6348   -0.1145 H   0  0  0  0  0  0  0  0  0  0  0  0
   -1.9760    1.4670    1.4433 H   0  0  0  0  0  0  0  0  0  0  0  0
   -3.8678    0.4436    2.1056 H   0  0  0  0  0  0  0  0  0  0  0  0
   -2.1643   -2.8545    1.3651 H   0  0  0  0  0  0  0  0  0  0  0  0
   -2.3401   -1.7907    3.4794 H   0  0  0  0  0  0  0  0  0  0  0  0
   -1.4404   -0.3156    2.9415 H   0  0  0  0  0  0  0  0  0  0  0  0
   -0.6357   -1.9032    2.8708 H   0  0  0  0  0  0  0  0  0  0  0  0
   -4.7959    2.3032   -0.5417 H   0  0  0  0  0  0  0  0  0  0  0  0
   -5.0583    2.3158    1.2289 H   0  0  0  0  0  0  0  0  0  0  0  0
   -5.5589   -1.3524   -0.6122 H   0  0  0  0  0  0  0  0  0  0  0  0
   -4.1975   -0.4644   -1.4949 H   0  0  0  0  0  0  0  0  0  0  0  0
   -7.8380   -1.1886   -0.9287 H   0  0  0  0  0  0  0  0  0  0  0  0
   -7.1903   -0.6352    0.6509 H   0  0  0  0  0  0  0  0  0  0  0  0
   -9.0810    0.7206    1.1444 H   0  0  0  0  0  0  0  0  0  0  0  0
   -9.5859   -0.9786    0.7750 H   0  0  0  0  0  0  0  0  0  0  0  0
    0.2542    0.0853    1.2966 H   0  0  0  0  0  0  0  0  0  0  0  0
    0.7251    0.8390   -1.5346 H   0  0  0  0  0  0  0  0  0  0  0  0
    1.0743   -1.6698    0.0171 H   0  0  0  0  0  0  0  0  0  0  0  0
    5.8570   -1.7929   -0.4367 H   0  0  0  0  0  0  0  0  0  0  0  0
    5.0853    0.2448    0.6133 H   0  0  0  0  0  0  0  0  0  0  0  0
    5.4574    1.5043   -1.9036 H   0  0  0  0  0  0  0  0  0  0  0  0
    7.9071    1.0722   -1.8964 H   0  0  0  0  0  0  0  0  0  0  0  0
    7.4171    2.7864   -1.8359 H   0  0  0  0  0  0  0  0  0  0  0  0
    4.3010   -3.0231   -1.8416 H   0  0  0  0  0  0  0  0  0  0  0  0
   -3.7818   -1.7846    0.2454 H   0  0  0  0  0  0  0  0  0  0  0  0
   -1.5966   -1.9151   -0.5465 H   0  0  0  0  0  0  0  0  0  0  0  0
   -7.0405    2.7968   -0.2473 H   0  0  0  0  0  0  0  0  0  0  0  0
   -7.2551    1.5802    1.0887 H   0  0  0  0  0  0  0  0  0  0  0  0
   -6.5060   -0.2879   -2.5156 H   0  0  0  0  0  0  0  0  0  0  0  0
   -5.6207    1.2301   -2.1405 H   0  0  0  0  0  0  0  0  0  0  0  0
  -10.2515    1.3725   -0.5677 H   0  0  0  0  0  0  0  0  0  0  0  0
  1  2  1  0
  2  3  1  0
  5  6  1  0
  6  7  1  0
  7  8  1  0
  9 10  1  0
 10 11  1  0
 12 13  1  0
  4 16  1  0
 16 17  1  0
  9 18  1  0
 18 19  1  0
  1 20  1  0
 19 20  1  0
  2 21  1  0
 19 21  1  0
  3 22  1  0
  7 23  1  0
 22 23  1  0
 23 24  1  0
  5 25  1  0
 24 25  1  0
 24 26  1  0
  3 27  1  0
 11 28  1  0
 12 28  1  0
  9 29  1  0
 12 29  1  0
 11 30  1  0
 14 30  1  0
 15 30  1  0
  4 31  1  0
 14 31  1  0
  4 32  1  0
 15 32  1  0
 17 33  1  0
 34 35  1  0
 35 36  1  0
 38 39  1  0
 39 40  1  0
 40 41  1  0
 42 43  1  0
 43 44  1  0
 45 46  1  0
 37 49  1  0
 49 50  1  0
 42 51  1  0
 51 52  1  0
 34 53  1  0
 52 53  1  0
 35 54  1  0
 52 54  1  0
 36 55  1  0
 40 56  1  0
 55 56  1  0
 56 57  1  0
 38 58  1  0
 57 58  1  0
 57 59  1  0
 36 60  1  0
 44 61  1  0
 45 61  1  0
 42 62  1  0
 45 62  1  0
 44 63  1  0
 47 63  1  0
 48 63  1  0
 37 64  1  0
 47 64  1  0
 37 65  1  0
 48 65  1  0
 50 66  1  0
  1 67  1  0
  1 68  1  0
  2 69  1  0
  3 70  1  0
  5 71  1  0
  5 72  1  0
  6 73  1  0
  6 74  1  0
  7 75  1  0
  8 76  1  0
  8 77  1  0
  8 78  1  0
  9 79  1  0
 10 80  1  0
 10 81  1  0
 11 82  1  0
 12 83  1  0
 13 84  1  0
 13 85  1  0
 13 86  1  0
 14 87  1  0
 14 88  1  0
 15 89  1  0
 15 90  1  0
 16 91  1  0
 16 92  1  0
 17 93  1  0
 17 94  1  0
 18 95  1  0
 19 96  1  1
 20 97  1  0
 22 98  1  0
 23 99  1  1
 24100  1  0
 25101  1  0
 25102  1  0
 27103  1  0
 28104  1  0
 29105  1  0
 31106  1  0
 31107  1  0
 32108  1  0
 32109  1  0
 33110  1  0
 34111  1  0
 34112  1  0
 35113  1  0
 36114  1  0
 38115  1  0
 38116  1  0
 39117  1  0
 39118  1  0
 40119  1  0
 41120  1  0
 41121  1  0
 41122  1  0
 42123  1  0
 43124  1  0
 43125  1  0
 44126  1  1
 45127  1  0
 46128  1  0
 46129  1  0
 46130  1  0
 47131  1  0
 47132  1  0
 48133  1  0
 48134  1  0
 49135  1  0
 49136  1  0
 50137  1  0
 50138  1  0
 51139  1  0
 52140  1  6
 53141  1  0
 55142  1  0
 56143  1  0
 57144  1  0
 58145  1  0
 58146  1  0
 60147  1  0
 61148  1  0
 62149  1  0
 64150  1  0
 64151  1  0
 65152  1  0
 65153  1  0
 66154  1  0
M  END
>  <PDBID>  (1) 
2GQG

>  <PDB ID>  (1) 
2GQG

>  <Generic Name>  (1) 
Dasatinib

>  <Brand Name>  (1) 
Sprycel

>  <DrugBank ID>  (1) 
DB01254

>  <ATC Codes>  (1) 
L01XE06

>  <Ligand ID>  (1) 
1N1

>  <Target Name>  (1) 
Tyrosine-protein kinase ABL1

>  <UniProt ID>  (1) 
P00519

>  <PDB ID.1>  (1) 
2GQG

>  <Seq. Identity>  (1) 
96%

$$$$
