PDB_DB00360_08
     RDKit          3D

 38 39  0  0  0  0  0  0  0  0999 V2000
    2.8059   -0.8456    0.5113 N   0  0  0  0  0  0  0  0  0  0  0  0
    3.5943    0.3243    0.0926 C   0  0  2  0  0  0  0  0  0  0  0  0
    4.9493    0.0653    0.4399 N   0  0  0  0  0  0  0  0  0  0  0  0
    3.0487    1.5086    0.6671 N   0  0  0  0  0  0  0  0  0  0  0  0
    1.6865    1.6964    0.3124 C   0  0  1  0  0  0  0  0  0  0  0  0
    1.5658    2.0809   -1.0314 O   0  0  0  0  0  0  0  0  0  0  0  0
    0.8257    0.4693    0.5287 C   0  0  2  0  0  0  0  0  0  0  0  0
    1.5172   -0.6921   -0.1406 C   0  0  2  0  0  0  0  0  0  0  0  0
   -0.4309    0.6514   -0.1996 N   0  0  0  0  0  0  0  0  0  0  0  0
    0.7745   -1.8846   -0.1718 N   0  0  0  0  0  0  0  0  0  0  0  0
   -1.2502   -0.4843    0.0461 C   0  0  2  0  0  0  0  0  0  0  0  0
   -0.6283   -1.8027   -0.1937 C   0  0  0  0  0  0  0  0  0  0  0  0
   -2.5140   -0.3977   -0.8040 C   0  0  1  0  0  0  0  0  0  0  0  0
   -3.3548   -1.4678   -0.6157 O   0  0  0  0  0  0  0  0  0  0  0  0
   -3.2647    0.8849   -0.5486 C   0  0  2  0  0  0  0  0  0  0  0  0
   -3.8753    0.9149    0.8378 C   0  0  0  0  0  0  0  0  0  0  0  0
   -4.3236    0.9273   -1.4546 O   0  0  0  0  0  0  0  0  0  0  0  0
    2.6505   -0.7103    1.5460 H   0  0  0  0  0  0  0  0  0  0  0  0
    3.4766    0.3791   -1.0113 H   0  0  0  0  0  0  0  0  0  0  0  0
    5.5864   -0.1163   -0.3580 H   0  0  0  0  0  0  0  0  0  0  0  0
    5.3426    0.6362    1.1970 H   0  0  0  0  0  0  0  0  0  0  0  0
    3.2976    1.6956    1.6420 H   0  0  0  0  0  0  0  0  0  0  0  0
    1.2495    2.5030    0.9445 H   0  0  0  0  0  0  0  0  0  0  0  0
    2.4341    2.0756   -1.4926 H   0  0  0  0  0  0  0  0  0  0  0  0
    0.6523    0.2882    1.6099 H   0  0  0  0  0  0  0  0  0  0  0  0
    1.7492   -0.3495   -1.1910 H   0  0  0  0  0  0  0  0  0  0  0  0
   -0.8898    1.4872    0.2683 H   0  0  0  0  0  0  0  0  0  0  0  0
    1.1595   -2.5049   -0.9458 H   0  0  0  0  0  0  0  0  0  0  0  0
   -1.6176   -0.4054    1.1116 H   0  0  0  0  0  0  0  0  0  0  0  0
   -0.9924   -2.2461   -1.1676 H   0  0  0  0  0  0  0  0  0  0  0  0
   -1.0332   -2.5183    0.5826 H   0  0  0  0  0  0  0  0  0  0  0  0
   -2.2011   -0.3833   -1.8685 H   0  0  0  0  0  0  0  0  0  0  0  0
   -3.2062   -1.9483    0.2425 H   0  0  0  0  0  0  0  0  0  0  0  0
   -2.6666    1.7844   -0.6897 H   0  0  0  0  0  0  0  0  0  0  0  0
   -3.6215   -0.0375    1.3774 H   0  0  0  0  0  0  0  0  0  0  0  0
   -4.9718    0.9967    0.8208 H   0  0  0  0  0  0  0  0  0  0  0  0
   -3.4853    1.7382    1.4580 H   0  0  0  0  0  0  0  0  0  0  0  0
   -4.0388    0.5762   -2.3524 H   0  0  0  0  0  0  0  0  0  0  0  0
  1  2  1  0
  2  3  1  0
  2  4  1  0
  4  5  1  0
  5  6  1  0
  5  7  1  0
  1  8  1  0
  7  8  1  0
  7  9  1  0
  8 10  1  0
  9 11  1  0
 10 12  1  0
 11 12  1  0
 11 13  1  0
 13 14  1  0
 13 15  1  0
 15 16  1  0
 15 17  1  0
  1 18  1  0
  2 19  1  6
  3 20  1  0
  3 21  1  0
  4 22  1  0
  5 23  1  1
  6 24  1  0
  7 25  1  1
  8 26  1  6
  9 27  1  0
 10 28  1  0
 11 29  1  1
 12 30  1  0
 12 31  1  0
 13 32  1  6
 14 33  1  0
 15 34  1  6
 16 35  1  0
 16 36  1  0
 16 37  1  0
 17 38  1  0
M  END
>  <PDBID>  (1) 
1J8U

>  <PDB ID>  (1) 
1J8U

>  <Generic Name>  (1) 
Sapropterin

>  <Brand Name>  (1) 
Kuvan#BH4#Biopten

>  <DrugBank ID>  (1) 
DB00360

>  <ATC Codes>  (1) 
A16AX07

>  <Ligand ID>  (1) 
BH4,BHS,H4B,THB

>  <Target Name>  (1) 
Tryptophan 5-hydroxylase 1

>  <UniProt ID>  (1) 
P17752

>  <PDB ID.1>  (1) 
1J8U

>  <Seq. Identity>  (1) 
65%

$$$$
