PDB_DB00715_03
     RDKit          3D

 56 59  0  0  0  0  0  0  0  0999 V2000
   -6.1575    2.0673    1.9050 F   0  0  0  0  0  0  0  0  0  0  0  0
   -4.8999    2.1205   -0.1450 C   0  0  0  0  0  0  0  0  0  0  0  0
   -4.7697    0.1621    1.4237 C   0  0  0  0  0  0  0  0  0  0  0  0
    3.6104   -1.1575   -0.5468 C   0  0  0  0  0  0  0  0  0  0  0  0
   -4.0662    1.1283   -0.9673 C   0  0  0  0  0  0  0  0  0  0  0  0
   -3.2794    0.4269    1.2842 C   0  0  0  0  0  0  0  0  0  0  0  0
    5.0891   -0.8560   -0.6664 C   0  0  0  0  0  0  0  0  0  0  0  0
    3.2870    1.1650    0.3721 C   0  0  0  0  0  0  0  0  0  0  0  0
   -1.7939   -2.4961   -1.7397 C   0  0  0  0  0  0  0  0  0  0  0  0
   -2.7805   -1.5487   -1.0573 C   0  0  0  0  0  0  0  0  0  0  0  0
   -0.7084   -2.0689    0.3692 C   0  0  0  0  0  0  0  0  0  0  0  0
    6.7170    1.8261    0.8955 C   0  0  0  0  0  0  0  0  0  0  0  0
    0.4545   -0.1580   -0.7288 C   0  0  0  0  0  0  0  0  0  0  0  0
   -0.8730   -2.9526   -0.7461 N   0  0  0  0  0  0  0  0  0  0  0  0
    1.5250   -0.3513    0.1280 O   0  0  0  0  0  0  0  0  0  0  0  0
    6.7324    0.4969    0.5000 O   0  0  0  0  0  0  0  0  0  0  0  0
    5.3792    2.2351    0.9607 O   0  0  0  0  0  0  0  0  0  0  0  0
   -5.6091    1.2895    0.9065 C   0  0  0  0  0  0  0  0  0  0  0  0
    2.7447    0.0371   -0.4418 C   0  0  0  0  0  0  0  0  0  0  0  0
   -2.8760    0.7716   -0.1018 C   0  0  0  0  0  0  0  0  0  0  0  0
    5.4377    0.0729    0.4431 C   0  0  0  0  0  0  0  0  0  0  0  0
    4.7279    1.3961    0.0990 C   0  0  0  0  0  0  0  0  0  0  0  0
   -0.7919   -0.6078   -0.0125 C   0  0  1  0  0  0  0  0  0  0  0  0
   -2.0423   -0.2778   -0.7833 C   0  0  1  0  0  0  0  0  0  0  0  0
   -4.1524    2.7978    0.3499 H   0  0  0  0  0  0  0  0  0  0  0  0
   -5.5995    2.6512   -0.7915 H   0  0  0  0  0  0  0  0  0  0  0  0
   -4.9701   -0.8096    0.9677 H   0  0  0  0  0  0  0  0  0  0  0  0
   -4.9479    0.0703    2.5354 H   0  0  0  0  0  0  0  0  0  0  0  0
    3.2745   -1.7810   -1.4021 H   0  0  0  0  0  0  0  0  0  0  0  0
    3.5004   -1.7877    0.3758 H   0  0  0  0  0  0  0  0  0  0  0  0
   -4.6744    0.2651   -1.2514 H   0  0  0  0  0  0  0  0  0  0  0  0
   -3.6613    1.6700   -1.8640 H   0  0  0  0  0  0  0  0  0  0  0  0
   -3.0661    1.2758    1.9987 H   0  0  0  0  0  0  0  0  0  0  0  0
   -2.7663   -0.4482    1.7200 H   0  0  0  0  0  0  0  0  0  0  0  0
    5.2254   -0.3067   -1.6344 H   0  0  0  0  0  0  0  0  0  0  0  0
    5.6278   -1.8122   -0.6336 H   0  0  0  0  0  0  0  0  0  0  0  0
    2.7209    2.0908    0.0659 H   0  0  0  0  0  0  0  0  0  0  0  0
    3.1358    1.0709    1.4547 H   0  0  0  0  0  0  0  0  0  0  0  0
   -2.3643   -3.3746   -2.1510 H   0  0  0  0  0  0  0  0  0  0  0  0
   -1.2362   -1.9793   -2.5457 H   0  0  0  0  0  0  0  0  0  0  0  0
   -3.6145   -1.3980   -1.7712 H   0  0  0  0  0  0  0  0  0  0  0  0
   -3.1024   -2.0769   -0.1366 H   0  0  0  0  0  0  0  0  0  0  0  0
    0.3465   -2.2212    0.7449 H   0  0  0  0  0  0  0  0  0  0  0  0
   -1.3535   -2.3260    1.2332 H   0  0  0  0  0  0  0  0  0  0  0  0
    7.2140    1.8899    1.8780 H   0  0  0  0  0  0  0  0  0  0  0  0
    7.2370    2.4781    0.1580 H   0  0  0  0  0  0  0  0  0  0  0  0
    0.3530    0.9484   -0.8811 H   0  0  0  0  0  0  0  0  0  0  0  0
    0.5750   -0.6563   -1.6919 H   0  0  0  0  0  0  0  0  0  0  0  0
    0.0357   -3.2846   -1.1455 H   0  0  0  0  0  0  0  0  0  0  0  0
   -6.4830    0.8158    0.3697 H   0  0  0  0  0  0  0  0  0  0  0  0
    2.4972    0.4081   -1.4692 H   0  0  0  0  0  0  0  0  0  0  0  0
   -2.2438    1.6982   -0.0577 H   0  0  0  0  0  0  0  0  0  0  0  0
    5.0378   -0.3112    1.4072 H   0  0  0  0  0  0  0  0  0  0  0  0
    4.9558    1.6237   -0.9620 H   0  0  0  0  0  0  0  0  0  0  0  0
   -0.8440   -0.0348    0.9501 H   0  0  0  0  0  0  0  0  0  0  0  0
   -1.7141    0.1335   -1.7651 H   0  0  0  0  0  0  0  0  0  0  0  0
  2  5  1  0
  3  6  1  0
  4  7  1  0
  9 10  1  0
  9 14  1  0
 11 14  1  0
 13 15  1  0
 12 16  1  0
 12 17  1  0
  1 18  1  0
  2 18  1  0
  3 18  1  0
  4 19  1  0
  8 19  1  0
 15 19  1  0
  5 20  1  0
  6 20  1  0
  7 21  1  0
 16 21  1  0
  8 22  1  0
 17 22  1  0
 21 22  1  0
 11 23  1  0
 13 23  1  0
 10 24  1  0
 20 24  1  0
 23 24  1  0
  2 25  1  0
  2 26  1  0
  3 27  1  0
  3 28  1  0
  4 29  1  0
  4 30  1  0
  5 31  1  0
  5 32  1  0
  6 33  1  0
  6 34  1  0
  7 35  1  0
  7 36  1  0
  8 37  1  0
  8 38  1  0
  9 39  1  0
  9 40  1  0
 10 41  1  0
 10 42  1  0
 11 43  1  0
 11 44  1  0
 12 45  1  0
 12 46  1  0
 13 47  1  0
 13 48  1  0
 14 49  1  0
 18 50  1  0
 19 51  1  0
 20 52  1  0
 21 53  1  0
 22 54  1  0
 23 55  1  1
 24 56  1  6
M  END
>  <PDBID>  (1) 
5I6X

>  <PDB ID>  (1) 
5I6X

>  <Generic Name>  (1) 
Paroxetine

>  <Brand Name>  (1) 
Act Paroxetine#Apo-paroxetine#Auro-paroxetine#Bio-paroxetine#Brisdelle#Dom-paroxetine#Ipg-paroxetine#Jamp-paroxetine#Mar-paroxetine#Mint-paroxetine#Mylan-paroxetine#Ntp-paroxetine#Nu-paroxetine#PMS-paroxetine#Paroxetine#Paroxetine Hydrochloride#Paroxetine Hydrochloride Anhydrous#Paroxetine-10#Paroxetine-20#Paroxetine-30#Paxil#Paxil CR#Paxil Tab 10mg#Paxil Tab 20mg#Paxil Tab 30mg#Paxilcr CR#Pexeva#Priva-paroxetine#Q-paroxetine#Ratio-paroxetine#Riva-paroxetine#Sandoz Paroxetine#Sandoz Paroxetine Tablets#Teva-paroxetine#Aropax#PAXILCR#Sereupin#Seroxat#Seroxat CR

>  <DrugBank ID>  (1) 
DB00715

>  <ATC Codes>  (1) 
N06AB05

>  <Ligand ID>  (1) 
8PR

>  <Target Name>  (1) 
Sodium-dependent serotonin transporter

>  <UniProt ID>  (1) 
P31645

>  <PDB ID.1>  (1) 
5I6X

>  <Seq. Identity>  (1) 
99%

$$$$
