PDB_DB05812_03
     RDKit          3D

268284  0  0  0  0  0  0  0  0999 V2000
   -3.5017    1.2600    1.0317 C   0  0  0  0  0  0  0  0  0  0  0  0
   -4.9797    1.1265    1.2443 C   0  0  0  0  0  0  0  0  0  0  0  0
   -5.7051    0.5345    0.0657 C   0  0  2  0  0  0  0  0  0  0  0  0
   -7.0462    0.4042    0.4122 O   0  0  0  0  0  0  0  0  0  0  0  0
   -5.1129   -0.8579   -0.1569 C   0  0  0  0  0  0  0  0  0  0  0  0
   -3.6756   -0.6520   -0.5479 C   0  0  0  0  0  0  0  0  0  0  0  0
   -3.0012   -1.9075   -1.0078 C   0  0  0  0  0  0  0  0  0  0  0  0
   -1.6908   -1.5062   -1.6649 C   0  0  0  0  0  0  0  0  0  0  0  0
   -0.8154   -0.9263   -0.5748 C   0  0  2  0  0  0  0  0  0  0  0  0
   -1.5156    0.3016    0.0194 C   0  0  1  0  0  0  0  0  0  0  0  0
   -2.8602   -0.0335    0.5810 C   0  0  1  0  0  0  0  0  0  0  0  0
   -0.6757    1.0139    0.9957 C   0  0  0  0  0  0  0  0  0  0  0  0
    0.7584    1.1886    0.6428 C   0  0  0  0  0  0  0  0  0  0  0  0
    1.4039   -0.0109    0.0043 C   0  0  1  0  0  0  0  0  0  0  0  0
    0.4499   -0.4161   -1.1492 C   0  0  1  0  0  0  0  0  0  0  0  0
    1.2346   -1.3739   -1.9714 C   0  0  0  0  0  0  0  0  0  0  0  0
    2.6950   -1.0615   -1.5958 C   0  0  0  0  0  0  0  0  0  0  0  0
    2.5714    0.2719   -0.8338 C   0  0  0  0  0  0  0  0  0  0  0  0
    1.4233   -1.1794    0.9101 C   0  0  0  0  0  0  0  0  0  0  0  0
   -2.8081   -0.9508    1.7704 C   0  0  0  0  0  0  0  0  0  0  0  0
    3.8584    0.6959   -0.3389 C   0  0  0  0  0  0  0  0  0  0  0  0
    3.9088    1.9655    0.4684 C   0  0  0  0  0  0  0  0  0  0  0  0
    5.3240    2.3828    0.4752 N   0  0  0  0  0  0  0  0  0  0  0  0
    6.0877    1.3821    1.2203 C   0  0  0  0  0  0  0  0  0  0  0  0
    6.2012    0.1654    0.3068 C   0  0  0  0  0  0  0  0  0  0  0  0
    4.7626   -0.3863    0.2029 C   0  0  0  0  0  0  0  0  0  0  0  0
   -3.5017    1.2600    1.0317 C   0  0  0  0  0  0  0  0  0  0  0  0
   -4.9797    1.1265    1.2443 C   0  0  0  0  0  0  0  0  0  0  0  0
   -5.7051    0.5345    0.0657 C   0  0  2  0  0  0  0  0  0  0  0  0
   -7.0462    0.4042    0.4122 O   0  0  0  0  0  0  0  0  0  0  0  0
   -5.1129   -0.8579   -0.1569 C   0  0  0  0  0  0  0  0  0  0  0  0
   -3.6756   -0.6520   -0.5479 C   0  0  0  0  0  0  0  0  0  0  0  0
   -3.0012   -1.9075   -1.0078 C   0  0  0  0  0  0  0  0  0  0  0  0
   -1.6908   -1.5062   -1.6649 C   0  0  0  0  0  0  0  0  0  0  0  0
   -0.8154   -0.9263   -0.5748 C   0  0  2  0  0  0  0  0  0  0  0  0
   -1.5156    0.3016    0.0194 C   0  0  1  0  0  0  0  0  0  0  0  0
   -2.8602   -0.0335    0.5810 C   0  0  1  0  0  0  0  0  0  0  0  0
   -0.6757    1.0139    0.9957 C   0  0  0  0  0  0  0  0  0  0  0  0
    0.7584    1.1886    0.6428 C   0  0  0  0  0  0  0  0  0  0  0  0
    1.4039   -0.0109    0.0043 C   0  0  1  0  0  0  0  0  0  0  0  0
    0.4499   -0.4161   -1.1492 C   0  0  1  0  0  0  0  0  0  0  0  0
    1.2346   -1.3739   -1.9714 C   0  0  0  0  0  0  0  0  0  0  0  0
    2.6950   -1.0615   -1.5958 C   0  0  0  0  0  0  0  0  0  0  0  0
    2.5714    0.2719   -0.8338 C   0  0  0  0  0  0  0  0  0  0  0  0
    1.4233   -1.1794    0.9101 C   0  0  0  0  0  0  0  0  0  0  0  0
   -2.8081   -0.9508    1.7704 C   0  0  0  0  0  0  0  0  0  0  0  0
    3.8584    0.6959   -0.3389 C   0  0  0  0  0  0  0  0  0  0  0  0
    3.9088    1.9655    0.4684 C   0  0  0  0  0  0  0  0  0  0  0  0
    5.3240    2.3828    0.4752 N   0  0  0  0  0  0  0  0  0  0  0  0
    6.0877    1.3821    1.2203 C   0  0  0  0  0  0  0  0  0  0  0  0
    6.2012    0.1654    0.3068 C   0  0  0  0  0  0  0  0  0  0  0  0
    4.7626   -0.3863    0.2029 C   0  0  0  0  0  0  0  0  0  0  0  0
   -3.1296    1.4717    0.8948 C   0  0  0  0  0  0  0  0  0  0  0  0
   -4.6195    1.5936    1.0850 C   0  0  0  0  0  0  0  0  0  0  0  0
   -5.3656    1.0912   -0.1240 C   0  0  2  0  0  0  0  0  0  0  0  0
   -6.7171    1.2845    0.0003 O   0  0  0  0  0  0  0  0  0  0  0  0
   -4.9983   -0.3932   -0.2574 C   0  0  0  0  0  0  0  0  0  0  0  0
   -3.5387   -0.4497   -0.5477 C   0  0  0  0  0  0  0  0  0  0  0  0
   -3.1267   -1.8221   -1.0085 C   0  0  0  0  0  0  0  0  0  0  0  0
   -1.6714   -1.8639   -1.4008 C   0  0  0  0  0  0  0  0  0  0  0  0
   -0.7752   -1.2598   -0.3622 C   0  0  2  0  0  0  0  0  0  0  0  0
   -1.2916    0.1387    0.0342 C   0  0  1  0  0  0  0  0  0  0  0  0
   -2.6747    0.0793    0.5772 C   0  0  1  0  0  0  0  0  0  0  0  0
   -0.2846    0.8573    0.8548 C   0  0  0  0  0  0  0  0  0  0  0  0
    0.7966   -0.0737    1.4307 C   0  0  0  0  0  0  0  0  0  0  0  0
    1.5108   -0.8634    0.4559 C   0  0  1  0  0  0  0  0  0  0  0  0
    0.5915   -1.0019   -0.7756 C   0  0  1  0  0  0  0  0  0  0  0  0
    1.3632   -1.9960   -1.5286 C   0  0  0  0  0  0  0  0  0  0  0  0
    2.6967   -1.2412   -1.5296 C   0  0  0  0  0  0  0  0  0  0  0  0
    2.7521   -0.4936   -0.1890 C   0  0  1  0  0  0  0  0  0  0  0  0
    1.6966   -2.2920    1.0059 C   0  0  0  0  0  0  0  0  0  0  0  0
   -2.8076   -0.7995    1.7961 C   0  0  0  0  0  0  0  0  0  0  0  0
    3.1300    0.9153   -0.4000 C   0  0  1  0  0  0  0  0  0  0  0  0
    3.2844    1.7360    0.8424 C   0  0  0  0  0  0  0  0  0  0  0  0
    4.3815    2.7147    0.7200 N   0  0  0  0  0  0  0  0  0  0  0  0
    5.6632    2.0673    0.7768 C   0  0  0  0  0  0  0  0  0  0  0  0
    5.6303    0.8805   -0.1591 C   0  0  0  0  0  0  0  0  0  0  0  0
    4.4711    0.9938   -1.1283 C   0  0  0  0  0  0  0  0  0  0  0  0
    3.6586   -0.0756   -1.4439 C   0  0  0  0  0  0  0  0  0  0  0  0
    4.0382    1.3630   -1.5916 C   0  0  0  0  0  0  0  0  0  0  0  0
    4.8413    1.8838   -0.4286 C   0  0  2  0  0  0  0  0  0  0  0  0
    6.1700    2.1501   -0.7666 O   0  0  0  0  0  0  0  0  0  0  0  0
    4.8726    0.9031    0.7218 C   0  0  0  0  0  0  0  0  0  0  0  0
    3.4654    0.4631    0.9861 C   0  0  1  0  0  0  0  0  0  0  0  0
    2.5984    1.6570    1.2634 C   0  0  0  0  0  0  0  0  0  0  0  0
    1.2943    1.1699    1.8133 C   0  0  0  0  0  0  0  0  0  0  0  0
    0.8490   -0.1271    1.1144 C   0  0  2  0  0  0  0  0  0  0  0  0
    1.4501   -0.0853   -0.2627 C   0  0  1  0  0  0  0  0  0  0  0  0
    2.9042   -0.3744   -0.1691 C   0  0  1  0  0  0  0  0  0  0  0  0
    0.7689   -0.9186   -1.2901 C   0  0  0  0  0  0  0  0  0  0  0  0
   -0.7544   -0.6981   -1.2727 C   0  0  0  0  0  0  0  0  0  0  0  0
   -1.1948   -1.1158    0.0925 C   0  0  1  0  0  0  0  0  0  0  0  0
   -0.6317   -0.0546    1.0112 C   0  0  1  0  0  0  0  0  0  0  0  0
   -1.4005   -0.3047    2.2715 C   0  0  0  0  0  0  0  0  0  0  0  0
   -2.8244   -0.3813    1.6722 C   0  0  0  0  0  0  0  0  0  0  0  0
   -2.6392   -1.1412    0.3772 C   0  0  0  0  0  0  0  0  0  0  0  0
   -0.5812   -2.4733    0.3598 C   0  0  0  0  0  0  0  0  0  0  0  0
    3.2249   -1.8132    0.1835 C   0  0  0  0  0  0  0  0  0  0  0  0
   -3.5842   -0.7896   -0.6928 C   0  0  0  0  0  0  0  0  0  0  0  0
   -5.0026   -0.9549   -0.1275 C   0  0  0  0  0  0  0  0  0  0  0  0
   -5.3299    0.2695    0.5604 N   0  0  0  0  0  0  0  0  0  0  0  0
   -5.7461    1.2365   -0.4429 C   0  0  0  0  0  0  0  0  0  0  0  0
   -4.9028    1.0964   -1.6915 C   0  0  0  0  0  0  0  0  0  0  0  0
   -3.5167    0.5246   -1.3375 C   0  0  0  0  0  0  0  0  0  0  0  0
   -3.0507    1.5336    2.0100 H   0  0  0  0  0  0  0  0  0  0  0  0
   -3.2310    2.0490    0.3150 H   0  0  0  0  0  0  0  0  0  0  0  0
   -5.1623    0.4759    2.1152 H   0  0  0  0  0  0  0  0  0  0  0  0
   -5.3801    2.1496    1.4239 H   0  0  0  0  0  0  0  0  0  0  0  0
   -5.5682    1.1232   -0.8637 H   0  0  0  0  0  0  0  0  0  0  0  0
   -7.5933    1.0428   -0.1109 H   0  0  0  0  0  0  0  0  0  0  0  0
   -5.2477   -1.4563    0.7533 H   0  0  0  0  0  0  0  0  0  0  0  0
   -5.6352   -1.3004   -1.0078 H   0  0  0  0  0  0  0  0  0  0  0  0
   -3.6536    0.0774   -1.3834 H   0  0  0  0  0  0  0  0  0  0  0  0
   -2.8398   -2.6375   -0.1889 H   0  0  0  0  0  0  0  0  0  0  0  0
   -3.6266   -2.3895   -1.7880 H   0  0  0  0  0  0  0  0  0  0  0  0
   -1.9174   -0.7245   -2.4029 H   0  0  0  0  0  0  0  0  0  0  0  0
   -1.1617   -2.3742   -2.0955 H   0  0  0  0  0  0  0  0  0  0  0  0
   -0.7372   -1.6866    0.1978 H   0  0  0  0  0  0  0  0  0  0  0  0
   -1.6924    0.9764   -0.8575 H   0  0  0  0  0  0  0  0  0  0  0  0
   -1.1100    2.0224    1.1758 H   0  0  0  0  0  0  0  0  0  0  0  0
   -0.7702    0.4858    1.9898 H   0  0  0  0  0  0  0  0  0  0  0  0
    1.3042    1.3502    1.6199 H   0  0  0  0  0  0  0  0  0  0  0  0
    0.9372    2.1049    0.0441 H   0  0  0  0  0  0  0  0  0  0  0  0
    0.2061    0.5291   -1.7169 H   0  0  0  0  0  0  0  0  0  0  0  0
    0.9913   -2.4254   -1.8310 H   0  0  0  0  0  0  0  0  0  0  0  0
    1.1182   -1.0983   -3.0526 H   0  0  0  0  0  0  0  0  0  0  0  0
    3.3472   -0.9823   -2.4614 H   0  0  0  0  0  0  0  0  0  0  0  0
    2.9544   -1.8647   -0.8701 H   0  0  0  0  0  0  0  0  0  0  0  0
    2.1954    0.9720   -1.6526 H   0  0  0  0  0  0  0  0  0  0  0  0
    1.2762   -2.1403    0.3341 H   0  0  0  0  0  0  0  0  0  0  0  0
    2.2787   -1.3321    1.5511 H   0  0  0  0  0  0  0  0  0  0  0  0
    0.5527   -1.0464    1.6237 H   0  0  0  0  0  0  0  0  0  0  0  0
   -3.4478   -1.8515    1.6281 H   0  0  0  0  0  0  0  0  0  0  0  0
   -1.7977   -1.3106    2.0184 H   0  0  0  0  0  0  0  0  0  0  0  0
   -3.2048   -0.4643    2.7034 H   0  0  0  0  0  0  0  0  0  0  0  0
    4.4513    1.0162   -1.2723 H   0  0  0  0  0  0  0  0  0  0  0  0
    3.3737    2.7469   -0.0844 H   0  0  0  0  0  0  0  0  0  0  0  0
    3.6406    1.8499    1.5179 H   0  0  0  0  0  0  0  0  0  0  0  0
    5.6649    2.4566   -0.5140 H   0  0  0  0  0  0  0  0  0  0  0  0
    5.4687    1.0698    2.0937 H   0  0  0  0  0  0  0  0  0  0  0  0
    7.0661    1.7556    1.5283 H   0  0  0  0  0  0  0  0  0  0  0  0
    6.5577    0.4465   -0.6910 H   0  0  0  0  0  0  0  0  0  0  0  0
    6.7897   -0.6476    0.7673 H   0  0  0  0  0  0  0  0  0  0  0  0
    4.5346   -0.7489    1.1947 H   0  0  0  0  0  0  0  0  0  0  0  0
    4.8277   -1.1827   -0.5893 H   0  0  0  0  0  0  0  0  0  0  0  0
   -3.0507    1.5336    2.0100 H   0  0  0  0  0  0  0  0  0  0  0  0
   -3.2310    2.0490    0.3150 H   0  0  0  0  0  0  0  0  0  0  0  0
   -5.1623    0.4759    2.1152 H   0  0  0  0  0  0  0  0  0  0  0  0
   -5.3801    2.1496    1.4239 H   0  0  0  0  0  0  0  0  0  0  0  0
   -5.5682    1.1232   -0.8637 H   0  0  0  0  0  0  0  0  0  0  0  0
   -7.5933    1.0428   -0.1109 H   0  0  0  0  0  0  0  0  0  0  0  0
   -5.2477   -1.4563    0.7533 H   0  0  0  0  0  0  0  0  0  0  0  0
   -5.6352   -1.3004   -1.0078 H   0  0  0  0  0  0  0  0  0  0  0  0
   -3.6536    0.0774   -1.3834 H   0  0  0  0  0  0  0  0  0  0  0  0
   -2.8398   -2.6375   -0.1889 H   0  0  0  0  0  0  0  0  0  0  0  0
   -3.6266   -2.3895   -1.7880 H   0  0  0  0  0  0  0  0  0  0  0  0
   -1.9174   -0.7245   -2.4029 H   0  0  0  0  0  0  0  0  0  0  0  0
   -1.1617   -2.3742   -2.0955 H   0  0  0  0  0  0  0  0  0  0  0  0
   -0.7372   -1.6866    0.1978 H   0  0  0  0  0  0  0  0  0  0  0  0
   -1.6924    0.9764   -0.8575 H   0  0  0  0  0  0  0  0  0  0  0  0
   -1.1100    2.0224    1.1758 H   0  0  0  0  0  0  0  0  0  0  0  0
   -0.7702    0.4858    1.9898 H   0  0  0  0  0  0  0  0  0  0  0  0
    1.3042    1.3502    1.6199 H   0  0  0  0  0  0  0  0  0  0  0  0
    0.9372    2.1049    0.0441 H   0  0  0  0  0  0  0  0  0  0  0  0
    0.2061    0.5291   -1.7169 H   0  0  0  0  0  0  0  0  0  0  0  0
    0.9913   -2.4254   -1.8310 H   0  0  0  0  0  0  0  0  0  0  0  0
    1.1182   -1.0983   -3.0526 H   0  0  0  0  0  0  0  0  0  0  0  0
    3.3472   -0.9823   -2.4614 H   0  0  0  0  0  0  0  0  0  0  0  0
    2.9544   -1.8647   -0.8701 H   0  0  0  0  0  0  0  0  0  0  0  0
    2.1954    0.9720   -1.6526 H   0  0  0  0  0  0  0  0  0  0  0  0
    1.2762   -2.1403    0.3341 H   0  0  0  0  0  0  0  0  0  0  0  0
    2.2787   -1.3321    1.5511 H   0  0  0  0  0  0  0  0  0  0  0  0
    0.5527   -1.0464    1.6237 H   0  0  0  0  0  0  0  0  0  0  0  0
   -3.4478   -1.8515    1.6281 H   0  0  0  0  0  0  0  0  0  0  0  0
   -1.7977   -1.3106    2.0184 H   0  0  0  0  0  0  0  0  0  0  0  0
   -3.2048   -0.4643    2.7034 H   0  0  0  0  0  0  0  0  0  0  0  0
    4.4513    1.0162   -1.2723 H   0  0  0  0  0  0  0  0  0  0  0  0
    3.3737    2.7469   -0.0844 H   0  0  0  0  0  0  0  0  0  0  0  0
    3.6406    1.8499    1.5179 H   0  0  0  0  0  0  0  0  0  0  0  0
    5.6649    2.4566   -0.5140 H   0  0  0  0  0  0  0  0  0  0  0  0
    5.4687    1.0698    2.0937 H   0  0  0  0  0  0  0  0  0  0  0  0
    7.0661    1.7556    1.5283 H   0  0  0  0  0  0  0  0  0  0  0  0
    6.5577    0.4465   -0.6910 H   0  0  0  0  0  0  0  0  0  0  0  0
    6.7897   -0.6476    0.7673 H   0  0  0  0  0  0  0  0  0  0  0  0
    4.5346   -0.7489    1.1947 H   0  0  0  0  0  0  0  0  0  0  0  0
    4.8277   -1.1827   -0.5893 H   0  0  0  0  0  0  0  0  0  0  0  0
   -2.6703    1.8640    1.8461 H   0  0  0  0  0  0  0  0  0  0  0  0
   -2.8421    2.1445    0.0716 H   0  0  0  0  0  0  0  0  0  0  0  0
   -4.9709    1.0508    1.9809 H   0  0  0  0  0  0  0  0  0  0  0  0
   -4.8430    2.6614    1.2512 H   0  0  0  0  0  0  0  0  0  0  0  0
   -4.9196    1.6284   -1.0088 H   0  0  0  0  0  0  0  0  0  0  0  0
   -7.0160    1.8058   -0.8023 H   0  0  0  0  0  0  0  0  0  0  0  0
   -5.2691   -0.8932    0.6941 H   0  0  0  0  0  0  0  0  0  0  0  0
   -5.5476   -0.7659   -1.1206 H   0  0  0  0  0  0  0  0  0  0  0  0
   -3.3497    0.2403   -1.4215 H   0  0  0  0  0  0  0  0  0  0  0  0
   -3.7123   -2.0429   -1.9253 H   0  0  0  0  0  0  0  0  0  0  0  0
   -3.3778   -2.6123   -0.2784 H   0  0  0  0  0  0  0  0  0  0  0  0
   -1.5005   -1.4308   -2.4085 H   0  0  0  0  0  0  0  0  0  0  0  0
   -1.3961   -2.9404   -1.4863 H   0  0  0  0  0  0  0  0  0  0  0  0
   -0.8936   -1.8632    0.5634 H   0  0  0  0  0  0  0  0  0  0  0  0
   -1.3591    0.6747   -0.9526 H   0  0  0  0  0  0  0  0  0  0  0  0
    0.2669    1.6355    0.2746 H   0  0  0  0  0  0  0  0  0  0  0  0
   -0.6942    1.3859    1.7410 H   0  0  0  0  0  0  0  0  0  0  0  0
    1.3418    0.5206    2.1654 H   0  0  0  0  0  0  0  0  0  0  0  0
    0.1739   -0.7732    2.0778 H   0  0  0  0  0  0  0  0  0  0  0  0
    0.7103   -0.0084   -1.3015 H   0  0  0  0  0  0  0  0  0  0  0  0
    0.9850   -2.1125   -2.5683 H   0  0  0  0  0  0  0  0  0  0  0  0
    1.5415   -2.9610   -1.0517 H   0  0  0  0  0  0  0  0  0  0  0  0
    3.5493   -1.8867   -1.7036 H   0  0  0  0  0  0  0  0  0  0  0  0
    2.5386   -0.4944   -2.3643 H   0  0  0  0  0  0  0  0  0  0  0  0
    3.6229   -0.9793    0.3504 H   0  0  0  0  0  0  0  0  0  0  0  0
    0.8214   -2.9178    0.8544 H   0  0  0  0  0  0  0  0  0  0  0  0
    2.6232   -2.7505    0.6647 H   0  0  0  0  0  0  0  0  0  0  0  0
    1.8036   -2.1675    2.1240 H   0  0  0  0  0  0  0  0  0  0  0  0
   -2.6872   -1.8682    1.5856 H   0  0  0  0  0  0  0  0  0  0  0  0
   -2.1506   -0.5165    2.6140 H   0  0  0  0  0  0  0  0  0  0  0  0
   -3.8631   -0.6575    2.1679 H   0  0  0  0  0  0  0  0  0  0  0  0
    2.3998    1.3989   -1.1010 H   0  0  0  0  0  0  0  0  0  0  0  0
    2.4006    2.3665    1.0812 H   0  0  0  0  0  0  0  0  0  0  0  0
    3.6110    1.1076    1.7226 H   0  0  0  0  0  0  0  0  0  0  0  0
    4.2472    3.3253   -0.1071 H   0  0  0  0  0  0  0  0  0  0  0  0
    5.8376    1.7693    1.8331 H   0  0  0  0  0  0  0  0  0  0  0  0
    6.4271    2.8011    0.4868 H   0  0  0  0  0  0  0  0  0  0  0  0
    6.5498    0.8761   -0.7568 H   0  0  0  0  0  0  0  0  0  0  0  0
    5.5346   -0.0709    0.3811 H   0  0  0  0  0  0  0  0  0  0  0  0
    4.5943    0.2116   -1.8780 H   0  0  0  0  0  0  0  0  0  0  0  0
    4.5148    1.9711   -1.6776 H   0  0  0  0  0  0  0  0  0  0  0  0
    3.1183   -0.4079   -2.3266 H   0  0  0  0  0  0  0  0  0  0  0  0
    4.6229   -0.6619   -1.4221 H   0  0  0  0  0  0  0  0  0  0  0  0
    3.1853    2.0212   -1.8649 H   0  0  0  0  0  0  0  0  0  0  0  0
    4.7266    1.4120   -2.4865 H   0  0  0  0  0  0  0  0  0  0  0  0
    4.4040    2.8405   -0.0983 H   0  0  0  0  0  0  0  0  0  0  0  0
    6.8124    1.8156   -0.0947 H   0  0  0  0  0  0  0  0  0  0  0  0
    5.5470    0.0537    0.5155 H   0  0  0  0  0  0  0  0  0  0  0  0
    5.2444    1.4210    1.6051 H   0  0  0  0  0  0  0  0  0  0  0  0
    3.4819   -0.1473    1.9195 H   0  0  0  0  0  0  0  0  0  0  0  0
    3.1078    2.2404    2.0651 H   0  0  0  0  0  0  0  0  0  0  0  0
    2.4921    2.3435    0.4084 H   0  0  0  0  0  0  0  0  0  0  0  0
    0.4903    1.9485    1.7555 H   0  0  0  0  0  0  0  0  0  0  0  0
    1.4326    0.9888    2.9073 H   0  0  0  0  0  0  0  0  0  0  0  0
    1.2343   -0.9349    1.7528 H   0  0  0  0  0  0  0  0  0  0  0  0
    1.3699    0.9849   -0.6188 H   0  0  0  0  0  0  0  0  0  0  0  0
    1.0832   -0.5168   -2.2980 H   0  0  0  0  0  0  0  0  0  0  0  0
    0.9246   -1.9901   -1.2486 H   0  0  0  0  0  0  0  0  0  0  0  0
   -0.8710    0.4167   -1.4002 H   0  0  0  0  0  0  0  0  0  0  0  0
   -1.1940   -1.2301   -2.1103 H   0  0  0  0  0  0  0  0  0  0  0  0
   -0.8722    0.9385    0.5540 H   0  0  0  0  0  0  0  0  0  0  0  0
   -1.3665    0.5029    3.0012 H   0  0  0  0  0  0  0  0  0  0  0  0
   -1.1035   -1.2963    2.6558 H   0  0  0  0  0  0  0  0  0  0  0  0
   -3.2394    0.6180    1.5704 H   0  0  0  0  0  0  0  0  0  0  0  0
   -3.4193   -0.9250    2.4303 H   0  0  0  0  0  0  0  0  0  0  0  0
   -2.9152   -2.2114    0.6645 H   0  0  0  0  0  0  0  0  0  0  0  0
    0.4555   -2.4654    0.6709 H   0  0  0  0  0  0  0  0  0  0  0  0
   -1.2597   -2.9914    1.0844 H   0  0  0  0  0  0  0  0  0  0  0  0
   -0.6673   -3.0623   -0.5767 H   0  0  0  0  0  0  0  0  0  0  0  0
    2.8213   -2.5382   -0.5301 H   0  0  0  0  0  0  0  0  0  0  0  0
    4.3426   -1.9026    0.1242 H   0  0  0  0  0  0  0  0  0  0  0  0
    2.9672   -2.0468    1.2396 H   0  0  0  0  0  0  0  0  0  0  0  0
   -3.5189   -1.6071   -1.4722 H   0  0  0  0  0  0  0  0  0  0  0  0
   -5.0810   -1.8302    0.5184 H   0  0  0  0  0  0  0  0  0  0  0  0
   -5.7153   -1.0557   -0.9977 H   0  0  0  0  0  0  0  0  0  0  0  0
   -6.0408    0.1392    1.2951 H   0  0  0  0  0  0  0  0  0  0  0  0
   -5.6735    2.2725   -0.0153 H   0  0  0  0  0  0  0  0  0  0  0  0
   -6.8184    1.0806   -0.6803 H   0  0  0  0  0  0  0  0  0  0  0  0
   -4.7120    2.1274   -2.0767 H   0  0  0  0  0  0  0  0  0  0  0  0
   -5.3899    0.5125   -2.4719 H   0  0  0  0  0  0  0  0  0  0  0  0
   -3.0336    0.4069   -2.3545 H   0  0  0  0  0  0  0  0  0  0  0  0
   -3.0001    1.3272   -0.8277 H   0  0  0  0  0  0  0  0  0  0  0  0
  1  2  1  0
  2  3  1  0
  3  4  1  0
  3  5  1  0
  5  6  1  0
  6  7  1  0
  7  8  1  0
  8  9  1  0
  9 10  1  0
  1 11  1  0
  6 11  1  0
 10 11  1  0
 10 12  1  0
 12 13  1  0
 13 14  1  0
  9 15  1  0
 14 15  1  0
 15 16  1  0
 16 17  1  0
 14 18  1  0
 17 18  1  0
 14 19  1  1
 11 20  1  1
 18 21  1  0
 21 22  1  0
 22 23  1  0
 24 23  1  0
 24 25  1  0
 21 26  1  0
 25 26  1  0
 27 28  1  0
 28 29  1  0
 29 30  1  0
 29 31  1  0
 31 32  1  0
 32 33  1  0
 33 34  1  0
 34 35  1  0
 35 36  1  0
 27 37  1  0
 32 37  1  0
 36 37  1  0
 36 38  1  0
 38 39  1  0
 39 40  1  0
 35 41  1  0
 40 41  1  0
 41 42  1  0
 42 43  1  0
 40 44  1  0
 43 44  1  0
 40 45  1  1
 37 46  1  1
 44 47  1  0
 47 48  1  0
 48 49  1  0
 50 49  1  0
 50 51  1  0
 47 52  1  0
 51 52  1  0
 53 54  1  0
 54 55  1  0
 55 56  1  0
 55 57  1  0
 57 58  1  0
 58 59  1  0
 59 60  1  0
 60 61  1  0
 61 62  1  0
 53 63  1  0
 58 63  1  0
 62 63  1  0
 62 64  1  0
 64 65  1  0
 65 66  1  0
 61 67  1  0
 66 67  1  0
 67 68  1  0
 68 69  1  0
 66 70  1  0
 69 70  1  0
 66 71  1  1
 63 72  1  1
 70 73  1  0
 73 74  1  0
 74 75  1  0
 76 75  1  0
 76 77  1  0
 73 78  1  0
 77 78  1  0
 79 80  1  0
 80 81  1  0
 81 82  1  0
 81 83  1  0
 83 84  1  0
 84 85  1  0
 85 86  1  0
 86 87  1  0
 87 88  1  0
 79 89  1  0
 84 89  1  0
 88 89  1  0
 88 90  1  0
 90 91  1  0
 91 92  1  0
 87 93  1  0
 92 93  1  0
 93 94  1  0
 94 95  1  0
 92 96  1  0
 95 96  1  0
 92 97  1  1
 89 98  1  1
 96 99  1  0
 99100  1  0
100101  1  0
102101  1  0
102103  1  0
 99104  1  0
103104  1  0
  1105  1  0
  1106  1  0
  2107  1  0
  2108  1  0
  3109  1  6
  4110  1  0
  5111  1  0
  5112  1  0
  6113  1  0
  7114  1  0
  7115  1  0
  8116  1  0
  8117  1  0
  9118  1  1
 10119  1  6
 12120  1  0
 12121  1  0
 13122  1  0
 13123  1  0
 15124  1  6
 16125  1  0
 16126  1  0
 17127  1  0
 17128  1  0
 18129  1  0
 19130  1  0
 19131  1  0
 19132  1  0
 20133  1  0
 20134  1  0
 20135  1  0
 21136  1  0
 22137  1  0
 22138  1  0
 23139  1  0
 24140  1  0
 24141  1  0
 25142  1  0
 25143  1  0
 26144  1  0
 26145  1  0
 27146  1  0
 27147  1  0
 28148  1  0
 28149  1  0
 29150  1  6
 30151  1  0
 31152  1  0
 31153  1  0
 32154  1  0
 33155  1  0
 33156  1  0
 34157  1  0
 34158  1  0
 35159  1  1
 36160  1  6
 38161  1  0
 38162  1  0
 39163  1  0
 39164  1  0
 41165  1  6
 42166  1  0
 42167  1  0
 43168  1  0
 43169  1  0
 44170  1  0
 45171  1  0
 45172  1  0
 45173  1  0
 46174  1  0
 46175  1  0
 46176  1  0
 47177  1  0
 48178  1  0
 48179  1  0
 49180  1  0
 50181  1  0
 50182  1  0
 51183  1  0
 51184  1  0
 52185  1  0
 52186  1  0
 53187  1  0
 53188  1  0
 54189  1  0
 54190  1  0
 55191  1  6
 56192  1  0
 57193  1  0
 57194  1  0
 58195  1  0
 59196  1  0
 59197  1  0
 60198  1  0
 60199  1  0
 61200  1  1
 62201  1  6
 64202  1  0
 64203  1  0
 65204  1  0
 65205  1  0
 67206  1  6
 68207  1  0
 68208  1  0
 69209  1  0
 69210  1  0
 70211  1  1
 71212  1  0
 71213  1  0
 71214  1  0
 72215  1  0
 72216  1  0
 72217  1  0
 73218  1  6
 74219  1  0
 74220  1  0
 75221  1  0
 76222  1  0
 76223  1  0
 77224  1  0
 77225  1  0
 78226  1  0
 78227  1  0
 79228  1  0
 79229  1  0
 80230  1  0
 80231  1  0
 81232  1  1
 82233  1  0
 83234  1  0
 83235  1  0
 84236  1  1
 85237  1  0
 85238  1  0
 86239  1  0
 86240  1  0
 87241  1  1
 88242  1  6
 90243  1  0
 90244  1  0
 91245  1  0
 91246  1  0
 93247  1  6
 94248  1  0
 94249  1  0
 95250  1  0
 95251  1  0
 96252  1  0
 97253  1  0
 97254  1  0
 97255  1  0
 98256  1  0
 98257  1  0
 98258  1  0
 99259  1  0
100260  1  0
100261  1  0
101262  1  0
102263  1  0
102264  1  0
103265  1  0
103266  1  0
104267  1  0
104268  1  0
M  END
>  <PDBID>  (1) 
3RUK

>  <PDB ID>  (1) 
3RUK

>  <Generic Name>  (1) 
Abiraterone

>  <Brand Name>  (1) 
Zytiga

>  <DrugBank ID>  (1) 
DB05812

>  <ATC Codes>  (1) 
L02BX03

>  <Ligand ID>  (1) 
AER

>  <Target Name>  (1) 
Steroid 17-alpha-hydroxylase/17,20 lyase

>  <UniProt ID>  (1) 
P05093

>  <PDB ID.1>  (1) 
3RUK

>  <Seq. Identity>  (1) 
97%

$$$$
