PDB_DB06228_06
     RDKit          3D

 63 66  0  0  0  0  0  0  0  0999 V2000
    5.0185   -0.2579   -0.6456 C   0  0  0  0  0  0  0  0  0  0  0  0
    4.8029    0.5976    0.4285 N   0  0  0  0  0  0  0  0  0  0  0  0
    6.3826   -0.1128   -1.2701 C   0  0  0  0  0  0  0  0  0  0  0  0
    5.8903    0.9869    1.2472 C   0  0  0  0  0  0  0  0  0  0  0  0
    7.2874    0.6175   -0.5549 O   0  0  0  0  0  0  0  0  0  0  0  0
    7.2121    0.4064    0.8228 C   0  0  0  0  0  0  0  0  0  0  0  0
    1.4499   -0.1725   -0.8886 C   0  0  0  0  0  0  0  0  0  0  0  0
    1.9749   -0.9577    0.2492 C   0  0  0  0  0  0  0  0  0  0  0  0
    1.8315    1.2551   -1.0172 C   0  0  0  0  0  0  0  0  0  0  0  0
    2.6459   -0.1861    1.3283 C   0  0  0  0  0  0  0  0  0  0  0  0
    2.7100    1.8518   -0.0034 C   0  0  0  0  0  0  0  0  0  0  0  0
    3.5145    0.9414    0.8561 C   0  0  0  0  0  0  0  0  0  0  0  0
    5.9962    2.3962    1.1777 O   0  0  0  0  0  0  0  0  0  0  0  0
    0.0294   -0.2930   -1.0936 N   0  0  0  0  0  0  0  0  0  0  0  0
   -0.4464   -1.5945   -1.4409 C   0  0  0  0  0  0  0  0  0  0  0  0
   -0.7857    0.2259   -0.0585 C   0  0  0  0  0  0  0  0  0  0  0  0
   -1.7162   -1.7373   -0.9553 O   0  0  0  0  0  0  0  0  0  0  0  0
   -2.0829   -0.5171   -0.3098 C   0  0  1  0  0  0  0  0  0  0  0  0
    0.4217   -2.6240   -1.1486 O   0  0  0  0  0  0  0  0  0  0  0  0
   -2.7513   -0.9333    0.9591 C   0  0  0  0  0  0  0  0  0  0  0  0
   -3.9143   -1.6680    0.8447 N   0  0  0  0  0  0  0  0  0  0  0  0
   -5.1967   -1.2468    0.6103 C   0  0  0  0  0  0  0  0  0  0  0  0
   -5.0005    1.2350   -0.6471 S   0  0  0  0  0  0  0  0  0  0  0  0
   -6.5061    2.1565   -0.1873 C   0  0  0  0  0  0  0  0  0  0  0  0
   -5.6601   -0.4472   -0.5232 C   0  0  0  0  0  0  0  0  0  0  0  0
   -7.3837    1.0364    0.3082 C   0  0  0  0  0  0  0  0  0  0  0  0
   -7.1532   -0.1855   -0.5305 C   0  0  0  0  0  0  0  0  0  0  0  0
   -6.0106   -2.4501    0.5670 O   0  0  0  0  0  0  0  0  0  0  0  0
   -7.1660    2.9713   -1.6163 Cl  0  0  0  0  0  0  0  0  0  0  0  0
    4.2982   -0.0354   -1.4684 H   0  0  0  0  0  0  0  0  0  0  0  0
    4.9384   -1.3291   -0.3368 H   0  0  0  0  0  0  0  0  0  0  0  0
    6.3252    0.3506   -2.3014 H   0  0  0  0  0  0  0  0  0  0  0  0
    6.8179   -1.1349   -1.4988 H   0  0  0  0  0  0  0  0  0  0  0  0
    5.7575    0.7258    2.3110 H   0  0  0  0  0  0  0  0  0  0  0  0
    8.0529    1.0085    1.2711 H   0  0  0  0  0  0  0  0  0  0  0  0
    7.3620   -0.6340    1.1058 H   0  0  0  0  0  0  0  0  0  0  0  0
    1.8787   -0.6829   -1.8125 H   0  0  0  0  0  0  0  0  0  0  0  0
    2.6160   -1.8251   -0.0164 H   0  0  0  0  0  0  0  0  0  0  0  0
    1.0836   -1.4536    0.7506 H   0  0  0  0  0  0  0  0  0  0  0  0
    0.8821    1.8887   -1.0382 H   0  0  0  0  0  0  0  0  0  0  0  0
    2.2475    1.5013   -2.0464 H   0  0  0  0  0  0  0  0  0  0  0  0
    3.2267   -0.8989    1.9505 H   0  0  0  0  0  0  0  0  0  0  0  0
    1.8618    0.2436    1.9934 H   0  0  0  0  0  0  0  0  0  0  0  0
    2.1224    2.5679    0.6437 H   0  0  0  0  0  0  0  0  0  0  0  0
    3.4515    2.5364   -0.5180 H   0  0  0  0  0  0  0  0  0  0  0  0
    3.6886    1.5424    1.8175 H   0  0  0  0  0  0  0  0  0  0  0  0
    5.2625    2.8079    1.6788 H   0  0  0  0  0  0  0  0  0  0  0  0
   -0.5495   -1.5727   -2.5761 H   0  0  0  0  0  0  0  0  0  0  0  0
   -0.4786    0.0327    0.9609 H   0  0  0  0  0  0  0  0  0  0  0  0
   -0.9218    1.3163   -0.1889 H   0  0  0  0  0  0  0  0  0  0  0  0
   -2.6428    0.0179   -1.0496 H   0  0  0  0  0  0  0  0  0  0  0  0
   -0.0107   -3.3420   -0.6155 H   0  0  0  0  0  0  0  0  0  0  0  0
   -2.8840   -0.0664    1.6631 H   0  0  0  0  0  0  0  0  0  0  0  0
   -1.9832   -1.5761    1.5125 H   0  0  0  0  0  0  0  0  0  0  0  0
   -3.7933   -2.7175    0.9873 H   0  0  0  0  0  0  0  0  0  0  0  0
   -5.6019   -0.7740    1.5869 H   0  0  0  0  0  0  0  0  0  0  0  0
   -6.2982    2.8629    0.6478 H   0  0  0  0  0  0  0  0  0  0  0  0
   -5.4416   -1.0239   -1.4704 H   0  0  0  0  0  0  0  0  0  0  0  0
   -7.1927    0.8567    1.3891 H   0  0  0  0  0  0  0  0  0  0  0  0
   -8.4376    1.3685    0.1287 H   0  0  0  0  0  0  0  0  0  0  0  0
   -7.5179   -0.0190   -1.5446 H   0  0  0  0  0  0  0  0  0  0  0  0
   -7.6934   -1.0201   -0.0809 H   0  0  0  0  0  0  0  0  0  0  0  0
   -5.8204   -2.8168   -0.3441 H   0  0  0  0  0  0  0  0  0  0  0  0
  1  2  1  0
  1  3  1  0
  2  4  1  0
  3  5  1  0
  4  6  1  0
  5  6  1  0
  7  8  1  0
  7  9  1  0
  8 10  1  0
  9 11  1  0
  2 12  1  0
 10 12  1  0
 11 12  1  0
  4 13  1  0
  7 14  1  0
 14 15  1  0
 14 16  1  0
 15 17  1  0
 16 18  1  0
 17 18  1  0
 15 19  1  0
 18 20  1  0
 20 21  1  0
 21 22  1  0
 23 24  1  0
 22 25  1  0
 23 25  1  0
 24 26  1  0
 25 27  1  0
 26 27  1  0
 22 28  1  0
 24 29  1  0
  1 30  1  0
  1 31  1  0
  3 32  1  0
  3 33  1  0
  4 34  1  0
  6 35  1  0
  6 36  1  0
  7 37  1  0
  8 38  1  0
  8 39  1  0
  9 40  1  0
  9 41  1  0
 10 42  1  0
 10 43  1  0
 11 44  1  0
 11 45  1  0
 12 46  1  0
 13 47  1  0
 15 48  1  0
 16 49  1  0
 16 50  1  0
 18 51  1  6
 19 52  1  0
 20 53  1  0
 20 54  1  0
 21 55  1  0
 22 56  1  0
 24 57  1  0
 25 58  1  0
 26 59  1  0
 26 60  1  0
 27 61  1  0
 27 62  1  0
 28 63  1  0
M  END
>  <PDBID>  (1) 
2W26

>  <PDB ID>  (1) 
2W26

>  <Generic Name>  (1) 
Rivaroxaban

>  <Brand Name>  (1) 
Xarelto

>  <DrugBank ID>  (1) 
DB06228

>  <ATC Codes>  (1) 
B01AF01

>  <Ligand ID>  (1) 
RIV

>  <Target Name>  (1) 
Coagulation factor X

>  <UniProt ID>  (1) 
P00742

>  <PDB ID.1>  (1) 
2W26

>  <Seq. Identity>  (1) 
100%

$$$$
