PDB_DB05990_02
     RDKit          3D

 76 79  0  0  0  0  0  0  0  0999 V2000
   -3.4581   -0.9476   -1.8819 C   0  0  0  0  0  0  0  0  0  0  0  0
   -4.1149   -2.0789   -1.1463 C   0  0  0  0  0  0  0  0  0  0  0  0
   -5.1292   -1.4737   -0.1974 C   0  0  1  0  0  0  0  0  0  0  0  0
   -5.9887   -2.3937    0.3455 O   0  0  0  0  0  0  0  0  0  0  0  0
   -4.2771   -0.7715    0.8701 C   0  0  0  0  0  0  0  0  0  0  0  0
   -3.6221    0.3880    0.2005 C   0  0  1  0  0  0  0  0  0  0  0  0
   -2.8680    1.2108    1.2063 C   0  0  2  0  0  0  0  0  0  0  0  0
   -1.5881    0.5548    1.6056 C   0  0  1  0  0  0  0  0  0  0  0  0
   -1.7221   -0.6193    2.2955 O   0  0  0  0  0  0  0  0  0  0  0  0
   -0.7119    0.4519    0.3801 C   0  0  2  0  0  0  0  0  0  0  0  0
   -1.3933   -0.3629   -0.7182 C   0  0  1  0  0  0  0  0  0  0  0  0
   -2.7897    0.0588   -0.9881 C   0  0  1  0  0  0  0  0  0  0  0  0
   -0.5326   -0.1528   -1.9607 C   0  0  0  0  0  0  0  0  0  0  0  0
    0.8898   -0.5666   -1.7469 C   0  0  0  0  0  0  0  0  0  0  0  0
    1.5521    0.0421   -0.5567 C   0  0  1  0  0  0  0  0  0  0  0  0
    0.5790   -0.1855    0.6145 C   0  0  1  0  0  0  0  0  0  0  0  0
    1.3832    0.1705    1.7796 C   0  0  0  0  0  0  0  0  0  0  0  0
    2.7232   -0.4998    1.4740 C   0  0  0  0  0  0  0  0  0  0  0  0
    2.6515   -0.8180    0.0111 C   0  0  2  0  0  0  0  0  0  0  0  0
    1.7756    1.4626   -0.7459 C   0  0  0  0  0  0  0  0  0  0  0  0
   -2.7086    1.3490   -1.8267 C   0  0  0  0  0  0  0  0  0  0  0  0
    3.8374   -1.1043   -0.7543 C   0  0  2  0  0  0  0  0  0  0  0  0
    4.6949   -2.0159    0.1440 C   0  0  0  0  0  0  0  0  0  0  0  0
    4.6602   -0.1491   -1.4430 C   0  0  0  0  0  0  0  0  0  0  0  0
    5.4013    0.9696   -0.8923 C   0  0  0  0  0  0  0  0  0  0  0  0
    6.5309    0.6927    0.0660 C   0  0  0  0  0  0  0  0  0  0  0  0
   -4.9409    2.2542    2.1704 C   0  0  0  0  0  0  0  0  0  0  0  0
   -3.6731    1.4968    2.4310 C   0  0  0  0  0  0  0  0  0  0  0  0
    7.5274   -0.0918   -0.5478 O   0  0  0  0  0  0  0  0  0  0  0  0
    6.1954    0.2916    1.3163 O   0  0  0  0  0  0  0  0  0  0  0  0
   -4.2867   -0.4115   -2.4330 H   0  0  0  0  0  0  0  0  0  0  0  0
   -2.8209   -1.3787   -2.6519 H   0  0  0  0  0  0  0  0  0  0  0  0
   -4.6730   -2.6783   -1.8791 H   0  0  0  0  0  0  0  0  0  0  0  0
   -3.4136   -2.6775   -0.5500 H   0  0  0  0  0  0  0  0  0  0  0  0
   -5.6620   -0.6381   -0.7249 H   0  0  0  0  0  0  0  0  0  0  0  0
   -6.7891   -1.9045    0.6757 H   0  0  0  0  0  0  0  0  0  0  0  0
   -3.6096   -1.5313    1.2684 H   0  0  0  0  0  0  0  0  0  0  0  0
   -5.0045   -0.3763    1.6067 H   0  0  0  0  0  0  0  0  0  0  0  0
   -4.4619    1.0510   -0.1701 H   0  0  0  0  0  0  0  0  0  0  0  0
   -2.6225    2.1764    0.7261 H   0  0  0  0  0  0  0  0  0  0  0  0
   -1.0577    1.2749    2.2913 H   0  0  0  0  0  0  0  0  0  0  0  0
   -1.2327   -1.3836    1.9035 H   0  0  0  0  0  0  0  0  0  0  0  0
   -0.6377    1.4855   -0.0143 H   0  0  0  0  0  0  0  0  0  0  0  0
   -1.2902   -1.4277   -0.4378 H   0  0  0  0  0  0  0  0  0  0  0  0
   -0.9004   -0.7467   -2.8298 H   0  0  0  0  0  0  0  0  0  0  0  0
   -0.6153    0.9119   -2.2879 H   0  0  0  0  0  0  0  0  0  0  0  0
    0.8959   -1.6784   -1.5962 H   0  0  0  0  0  0  0  0  0  0  0  0
    1.4604   -0.2753   -2.6447 H   0  0  0  0  0  0  0  0  0  0  0  0
    0.4379   -1.3011    0.6220 H   0  0  0  0  0  0  0  0  0  0  0  0
    1.5130    1.2492    1.9781 H   0  0  0  0  0  0  0  0  0  0  0  0
    0.9153   -0.2390    2.7114 H   0  0  0  0  0  0  0  0  0  0  0  0
    3.5665    0.0894    1.8038 H   0  0  0  0  0  0  0  0  0  0  0  0
    2.7276   -1.4167    2.1389 H   0  0  0  0  0  0  0  0  0  0  0  0
    2.0954   -1.8240    0.0362 H   0  0  0  0  0  0  0  0  0  0  0  0
    2.5970    1.7621   -1.4191 H   0  0  0  0  0  0  0  0  0  0  0  0
    0.8676    1.8798   -1.2814 H   0  0  0  0  0  0  0  0  0  0  0  0
    1.8725    2.0950    0.1608 H   0  0  0  0  0  0  0  0  0  0  0  0
   -2.5527    1.1268   -2.8896 H   0  0  0  0  0  0  0  0  0  0  0  0
   -3.7411    1.8023   -1.7595 H   0  0  0  0  0  0  0  0  0  0  0  0
   -2.0291    2.0773   -1.3904 H   0  0  0  0  0  0  0  0  0  0  0  0
    3.5067   -1.8410   -1.5790 H   0  0  0  0  0  0  0  0  0  0  0  0
    5.7360   -2.0547   -0.1499 H   0  0  0  0  0  0  0  0  0  0  0  0
    4.5012   -1.8085    1.2263 H   0  0  0  0  0  0  0  0  0  0  0  0
    4.3357   -3.0925    0.0507 H   0  0  0  0  0  0  0  0  0  0  0  0
    5.4734   -0.7688   -1.9822 H   0  0  0  0  0  0  0  0  0  0  0  0
    4.1182    0.2103   -2.3880 H   0  0  0  0  0  0  0  0  0  0  0  0
    5.9643    1.4458   -1.7707 H   0  0  0  0  0  0  0  0  0  0  0  0
    4.7970    1.8505   -0.5613 H   0  0  0  0  0  0  0  0  0  0  0  0
    7.0526    1.7002    0.2025 H   0  0  0  0  0  0  0  0  0  0  0  0
   -5.1313    2.4828    1.1201 H   0  0  0  0  0  0  0  0  0  0  0  0
   -5.8503    1.7182    2.5505 H   0  0  0  0  0  0  0  0  0  0  0  0
   -4.9660    3.2454    2.7116 H   0  0  0  0  0  0  0  0  0  0  0  0
   -3.0326    2.1501    3.0941 H   0  0  0  0  0  0  0  0  0  0  0  0
   -3.8506    0.5790    3.0499 H   0  0  0  0  0  0  0  0  0  0  0  0
    8.1696    0.4397   -1.0522 H   0  0  0  0  0  0  0  0  0  0  0  0
    6.7445   -0.5117    1.5533 H   0  0  0  0  0  0  0  0  0  0  0  0
  1  2  1  0
  2  3  1  0
  3  4  1  0
  3  5  1  0
  5  6  1  0
  6  7  1  0
  7  8  1  0
  8  9  1  0
  8 10  1  0
 10 11  1  0
  1 12  1  0
  6 12  1  0
 11 12  1  0
 11 13  1  0
 13 14  1  0
 14 15  1  0
 10 16  1  0
 15 16  1  0
 16 17  1  0
 17 18  1  0
 15 19  1  0
 18 19  1  0
 15 20  1  6
 12 21  1  6
 19 22  1  0
 22 23  1  0
 22 24  1  0
 24 25  1  0
 25 26  1  0
  7 28  1  0
 27 28  1  0
 26 29  1  0
 26 30  1  0
  1 31  1  0
  1 32  1  0
  2 33  1  0
  2 34  1  0
  3 35  1  6
  4 36  1  0
  5 37  1  0
  5 38  1  0
  6 39  1  6
  7 40  1  6
  8 41  1  1
  9 42  1  0
 10 43  1  6
 11 44  1  1
 13 45  1  0
 13 46  1  0
 14 47  1  0
 14 48  1  0
 16 49  1  1
 17 50  1  0
 17 51  1  0
 18 52  1  0
 18 53  1  0
 19 54  1  1
 20 55  1  0
 20 56  1  0
 20 57  1  0
 21 58  1  0
 21 59  1  0
 21 60  1  0
 22 61  1  6
 23 62  1  0
 23 63  1  0
 23 64  1  0
 24 65  1  0
 24 66  1  0
 25 67  1  0
 25 68  1  0
 26 69  1  0
 27 70  1  0
 27 71  1  0
 27 72  1  0
 28 73  1  0
 28 74  1  0
 29 75  1  0
 30 76  1  0
M  END
>  <PDBID>  (1) 
1OT7

>  <PDB ID>  (1) 
1OT7

>  <Generic Name>  (1) 
Obeticholic acid

>  <Brand Name>  (1) 
Ocaliva

>  <DrugBank ID>  (1) 
DB05990

>  <ATC Codes>  (1) 
A05AA04

>  <Ligand ID>  (1) 
CHC

>  <Target Name>  (1) 
Bile acid receptor

>  <UniProt ID>  (1) 
Q96RI1

>  <PDB ID.1>  (1) 
1OT7

>  <Seq. Identity>  (1) 
95%

$$$$
