PDB_DB01577_07
     RDKit          3D

 32 32  0  0  0  0  0  0  0  0999 V2000
   -1.7024    0.7969    0.8274 N   0  0  0  0  0  0  0  0  0  0  0  0
   -1.6271   -0.6120    0.5833 C   0  0  1  0  0  0  0  0  0  0  0  0
   -3.0624   -1.1124    0.4269 C   0  0  0  0  0  0  0  0  0  0  0  0
   -0.8714   -1.0219   -0.6247 C   0  0  0  0  0  0  0  0  0  0  0  0
    0.5607   -0.6301   -0.6935 C   0  0  0  0  0  0  0  0  0  0  0  0
    1.4136   -1.1685    0.4122 C   0  0  0  0  0  0  0  0  0  0  0  0
    0.8261    0.8324   -0.8383 C   0  0  0  0  0  0  0  0  0  0  0  0
    2.4510   -0.2060    0.9102 C   0  0  0  0  0  0  0  0  0  0  0  0
    2.2806    0.9389   -1.3257 C   0  0  0  0  0  0  0  0  0  0  0  0
    3.1464    0.5771   -0.1464 C   0  0  0  0  0  0  0  0  0  0  0  0
   -2.2814    1.5697   -0.2344 C   0  0  0  0  0  0  0  0  0  0  0  0
   -2.2673    0.9413    1.6843 H   0  0  0  0  0  0  0  0  0  0  0  0
   -1.2341   -1.0968    1.5024 H   0  0  0  0  0  0  0  0  0  0  0  0
   -3.7831   -0.3597    0.8220 H   0  0  0  0  0  0  0  0  0  0  0  0
   -3.2606   -1.2269   -0.6578 H   0  0  0  0  0  0  0  0  0  0  0  0
   -3.2209   -2.0664    0.9706 H   0  0  0  0  0  0  0  0  0  0  0  0
   -0.8807   -2.1549   -0.6274 H   0  0  0  0  0  0  0  0  0  0  0  0
   -1.4263   -0.7493   -1.5383 H   0  0  0  0  0  0  0  0  0  0  0  0
    0.9645   -1.1037   -1.6398 H   0  0  0  0  0  0  0  0  0  0  0  0
    1.8800   -2.1548    0.1295 H   0  0  0  0  0  0  0  0  0  0  0  0
    0.7542   -1.4041    1.2721 H   0  0  0  0  0  0  0  0  0  0  0  0
    0.7104    1.3153    0.1472 H   0  0  0  0  0  0  0  0  0  0  0  0
    0.2356    1.3147   -1.6429 H   0  0  0  0  0  0  0  0  0  0  0  0
    3.2390   -0.8342    1.4240 H   0  0  0  0  0  0  0  0  0  0  0  0
    2.0138    0.4337    1.7292 H   0  0  0  0  0  0  0  0  0  0  0  0
    2.4954    1.9557   -1.7057 H   0  0  0  0  0  0  0  0  0  0  0  0
    2.4510    0.1659   -2.1140 H   0  0  0  0  0  0  0  0  0  0  0  0
    3.4621    1.5551    0.3248 H   0  0  0  0  0  0  0  0  0  0  0  0
    4.1014    0.1026   -0.4803 H   0  0  0  0  0  0  0  0  0  0  0  0
   -3.3928    1.6568   -0.1147 H   0  0  0  0  0  0  0  0  0  0  0  0
   -2.1183    1.1382   -1.2276 H   0  0  0  0  0  0  0  0  0  0  0  0
   -1.8570    2.6075   -0.1518 H   0  0  0  0  0  0  0  0  0  0  0  0
  1  2  1  0
  2  3  1  0
  2  4  1  0
  4  5  1  0
  5  6  1  0
  5  7  1  0
  6  8  1  0
  7  9  1  0
  8 10  1  0
  9 10  1  0
  1 11  1  0
  1 12  1  0
  2 13  1  1
  3 14  1  0
  3 15  1  0
  3 16  1  0
  4 17  1  0
  4 18  1  0
  5 19  1  0
  6 20  1  0
  6 21  1  0
  7 22  1  0
  7 23  1  0
  8 24  1  0
  8 25  1  0
  9 26  1  0
  9 27  1  0
 10 28  1  0
 10 29  1  0
 11 30  1  0
 11 31  1  0
 11 32  1  0
M  END
>  <PDBID>  (1) 
4XP6

>  <PDB ID>  (1) 
4XP6

>  <Generic Name>  (1) 
Methamphetamine

>  <Brand Name>  (1) 
Desoxyn#Methamphetamine Hydrochloride

>  <DrugBank ID>  (1) 
DB01577

>  <ATC Codes>  (1) 
N06BA03

>  <Ligand ID>  (1) 
B40

>  <Target Name>  (1) 
Sodium-dependent noradrenaline transporter

>  <UniProt ID>  (1) 
P23975

>  <PDB ID.1>  (1) 
4XP6

>  <Seq. Identity>  (1) 
59%

$$$$
