PDB_DB01222_04
     RDKit          3D

 73 77  0  0  0  0  0  0  0  0999 V2000
   -4.0677    2.2192    0.1535 C   0  0  0  0  0  0  0  0  0  0  0  0
   -4.6391    1.7190    1.4445 C   0  0  0  0  0  0  0  0  0  0  0  0
   -3.6929    0.7595    2.1521 C   0  0  0  0  0  0  0  0  0  0  0  0
   -2.2674   -2.1803    0.7218 C   0  0  1  0  0  0  0  0  0  0  0  0
   -0.7664   -2.5515    0.8206 C   0  0  0  0  0  0  0  0  0  0  0  0
   -0.2162   -1.2355    0.4718 C   0  0  1  0  0  0  0  0  0  0  0  0
    1.2022   -0.9768    0.3937 C   0  0  2  0  0  0  0  0  0  0  0  0
    2.0333   -1.5126    1.5481 C   0  0  0  0  0  0  0  0  0  0  0  0
    3.4558   -1.1567    1.2303 C   0  0  0  0  0  0  0  0  0  0  0  0
    3.6902    0.2622    0.9059 C   0  0  0  0  0  0  0  0  0  0  0  0
    4.4578    2.6556   -0.3212 C   0  0  0  0  0  0  0  0  0  0  0  0
    3.0179    2.2943   -0.3275 C   0  0  0  0  0  0  0  0  0  0  0  0
    2.7134    0.8339   -0.1210 C   0  0  2  0  0  0  0  0  0  0  0  0
   -0.6233    0.4744   -1.1681 C   0  0  0  0  0  0  0  0  0  0  0  0
   -3.1445   -1.7377   -1.6141 C   0  0  0  0  0  0  0  0  0  0  0  0
   -4.5730   -2.0325   -1.3928 C   0  0  0  0  0  0  0  0  0  0  0  0
   -0.4391   -1.8041   -1.9750 C   0  0  0  0  0  0  0  0  0  0  0  0
   -3.4374   -0.4297    1.2411 C   0  0  2  0  0  0  0  0  0  0  0  0
   -2.5941   -1.3510    1.7945 O   0  0  0  0  0  0  0  0  0  0  0  0
    5.1182    0.4878    0.5373 C   0  0  0  0  0  0  0  0  0  0  0  0
    5.3256    2.0032    0.6795 C   0  0  0  0  0  0  0  0  0  0  0  0
    6.6608    2.2431    0.3287 O   0  0  0  0  0  0  0  0  0  0  0  0
    1.3584    0.5562    0.4150 C   0  0  1  0  0  0  0  0  0  0  0  0
    0.1955    1.2335   -0.1500 C   0  0  1  0  0  0  0  0  0  0  0  0
   -0.8907   -0.9404   -0.8464 C   0  0  1  0  0  0  0  0  0  0  0  0
   -2.3350   -1.2546   -0.4638 C   0  0  2  0  0  0  0  0  0  0  0  0
   -2.8454   -0.0740    0.0643 O   0  0  0  0  0  0  0  0  0  0  0  0
   -3.0989   -0.6862   -2.5705 O   0  0  0  0  0  0  0  0  0  0  0  0
   -4.8847   -3.0356   -0.5129 O   0  0  0  0  0  0  0  0  0  0  0  0
    0.4506    2.4858   -0.7214 O   0  0  0  0  0  0  0  0  0  0  0  0
    3.0336    0.1368   -1.4315 C   0  0  0  0  0  0  0  0  0  0  0  0
   -2.9755    2.3635    0.1845 H   0  0  0  0  0  0  0  0  0  0  0  0
   -4.5686    3.2054   -0.0735 H   0  0  0  0  0  0  0  0  0  0  0  0
   -4.2993    1.5785   -0.7201 H   0  0  0  0  0  0  0  0  0  0  0  0
   -5.5514    1.1101    1.1738 H   0  0  0  0  0  0  0  0  0  0  0  0
   -4.9981    2.5122    2.1050 H   0  0  0  0  0  0  0  0  0  0  0  0
   -2.7354    1.2946    2.2854 H   0  0  0  0  0  0  0  0  0  0  0  0
   -4.0802    0.4586    3.1251 H   0  0  0  0  0  0  0  0  0  0  0  0
   -2.8875   -3.0606    0.6751 H   0  0  0  0  0  0  0  0  0  0  0  0
   -0.5397   -2.9124    1.8419 H   0  0  0  0  0  0  0  0  0  0  0  0
   -0.5988   -3.3147    0.0418 H   0  0  0  0  0  0  0  0  0  0  0  0
   -0.6749   -0.4945    1.1977 H   0  0  0  0  0  0  0  0  0  0  0  0
    1.7325   -1.3415   -0.5115 H   0  0  0  0  0  0  0  0  0  0  0  0
    1.6904   -1.1235    2.5206 H   0  0  0  0  0  0  0  0  0  0  0  0
    1.9499   -2.6204    1.5196 H   0  0  0  0  0  0  0  0  0  0  0  0
    4.0465   -1.3813    2.1667 H   0  0  0  0  0  0  0  0  0  0  0  0
    3.8616   -1.8483    0.4703 H   0  0  0  0  0  0  0  0  0  0  0  0
    3.4987    0.8658    1.8415 H   0  0  0  0  0  0  0  0  0  0  0  0
    4.9273    2.4951   -1.3361 H   0  0  0  0  0  0  0  0  0  0  0  0
    4.5223    3.7643   -0.1700 H   0  0  0  0  0  0  0  0  0  0  0  0
    2.4931    2.8971    0.4227 H   0  0  0  0  0  0  0  0  0  0  0  0
    2.6749    2.5269   -1.3830 H   0  0  0  0  0  0  0  0  0  0  0  0
   -1.6198    1.0016   -1.2514 H   0  0  0  0  0  0  0  0  0  0  0  0
   -0.1673    0.6226   -2.1873 H   0  0  0  0  0  0  0  0  0  0  0  0
   -2.7018   -2.6040   -2.1454 H   0  0  0  0  0  0  0  0  0  0  0  0
   -4.9755   -2.3707   -2.3976 H   0  0  0  0  0  0  0  0  0  0  0  0
   -5.2025   -1.1545   -1.1444 H   0  0  0  0  0  0  0  0  0  0  0  0
    0.6442   -1.7697   -2.1695 H   0  0  0  0  0  0  0  0  0  0  0  0
   -0.9062   -1.3904   -2.9072 H   0  0  0  0  0  0  0  0  0  0  0  0
   -0.7090   -2.8572   -1.9266 H   0  0  0  0  0  0  0  0  0  0  0  0
   -4.4297   -0.9021    1.1092 H   0  0  0  0  0  0  0  0  0  0  0  0
    5.3457    0.1549   -0.4994 H   0  0  0  0  0  0  0  0  0  0  0  0
    5.7513   -0.0620    1.2317 H   0  0  0  0  0  0  0  0  0  0  0  0
    5.1181    2.2458    1.7226 H   0  0  0  0  0  0  0  0  0  0  0  0
    6.6948    3.0972   -0.1712 H   0  0  0  0  0  0  0  0  0  0  0  0
    1.4138    0.8105    1.5202 H   0  0  0  0  0  0  0  0  0  0  0  0
   -0.5492    1.4679    0.6746 H   0  0  0  0  0  0  0  0  0  0  0  0
   -3.8220   -0.0428   -2.4331 H   0  0  0  0  0  0  0  0  0  0  0  0
   -5.2747   -3.8425   -0.9252 H   0  0  0  0  0  0  0  0  0  0  0  0
    0.1922    3.2378   -0.1670 H   0  0  0  0  0  0  0  0  0  0  0  0
    3.5510   -0.8417   -1.2735 H   0  0  0  0  0  0  0  0  0  0  0  0
    2.1653    0.0765   -2.0965 H   0  0  0  0  0  0  0  0  0  0  0  0
    3.7960    0.7426   -2.0085 H   0  0  0  0  0  0  0  0  0  0  0  0
  1  2  1  0
  2  3  1  0
  4  5  1  0
  5  6  1  0
  6  7  1  0
  7  8  1  0
  8  9  1  0
  9 10  1  0
 11 12  1  0
 10 13  1  0
 12 13  1  0
 15 16  1  0
  3 18  1  0
  4 19  1  0
 18 19  1  0
 10 20  1  0
 11 21  1  0
 20 21  1  0
 21 22  1  0
  7 23  1  0
 13 23  1  0
 14 24  1  0
 23 24  1  0
  6 25  1  0
 14 25  1  0
 25 17  1  6
  4 26  1  0
 26 15  1  6
 25 26  1  0
 18 27  1  0
 26 27  1  0
 15 28  1  0
 16 29  1  0
 24 30  1  0
 13 31  1  6
  1 32  1  0
  1 33  1  0
  1 34  1  0
  2 35  1  0
  2 36  1  0
  3 37  1  0
  3 38  1  0
  4 39  1  6
  5 40  1  0
  5 41  1  0
  6 42  1  1
  7 43  1  6
  8 44  1  0
  8 45  1  0
  9 46  1  0
  9 47  1  0
 10 48  1  0
 11 49  1  0
 11 50  1  0
 12 51  1  0
 12 52  1  0
 14 53  1  0
 14 54  1  0
 15 55  1  0
 16 56  1  0
 16 57  1  0
 17 58  1  0
 17 59  1  0
 17 60  1  0
 18 61  1  6
 20 62  1  0
 20 63  1  0
 21 64  1  0
 22 65  1  0
 23 66  1  1
 24 67  1  1
 28 68  1  0
 29 69  1  0
 30 70  1  0
 31 71  1  0
 31 72  1  0
 31 73  1  0
M  END
>  <PDBID>  (1) 
5NFP

>  <PDB ID>  (1) 
5NFP

>  <Generic Name>  (1) 
Budesonide

>  <Brand Name>  (1) 
Budesonide#Budesonide (enteric Coated)#Budesonide Inhalation#Budesonide Nasal#Childrens Rhinocort Allergy#Cortiment#Entocort#Entocort EC#Entocort Enema#Mylan-budesonide AQ#Pulmicort Flexhaler#Pulmicort Nebuamp 0.125 mg/ml#Pulmicort Nebuamp 0.25 mg/ml#Pulmicort Nebuamp 0.5 mg/ml#Pulmicort Respules#Pulmicort Turbuhaler 100 Mcg/dose#Pulmicort Turbuhaler 200 Mcg/dose#Pulmicort Turbuhaler 400 Mcg/dose#Rhinocort Allergy#Rhinocort Aqua#Rhinocort Aqua 100mcg#Rhinocort Turbuhaler 100 Mcg/dose#Symbicort#Symbicort 100 Turbuhaler#Symbicort 200 Turbuhaler#Symbicort Forte Turbuhaler#Uceris#Bidien#Budeson#Budicort#ENTOCORT#Noex#Pulmicort#Rhinocort#Rhinosol#Spirocort

>  <DrugBank ID>  (1) 
DB01222

>  <ATC Codes>  (1) 
R03AK07#A07EA06#R03BA02#D07AC09#R03AK12#R01AD05

>  <Ligand ID>  (1) 
8W5

>  <Target Name>  (1) 
Glucocorticoid receptor

>  <UniProt ID>  (1) 
P04150

>  <PDB ID.1>  (1) 
5NFP

>  <Seq. Identity>  (1) 
98%

$$$$
