PDB_DB09330_09
     RDKit          3D

 94 97  0  0  0  0  0  0  0  0999 V2000
    8.8156    1.9258    1.1050 C   0  0  0  0  0  0  0  0  0  0  0  0
    7.6718    1.1519    0.5123 N   0  0  0  0  0  0  0  0  0  0  0  0
    7.7975    1.4722   -0.9102 C   0  0  0  0  0  0  0  0  0  0  0  0
    6.4896    1.7099    1.1102 C   0  0  0  0  0  0  0  0  0  0  0  0
    5.1947    1.0706    0.8217 C   0  0  0  0  0  0  0  0  0  0  0  0
    4.7543    1.0140   -0.5385 N   0  0  0  0  0  0  0  0  0  0  0  0
    4.4994    2.3801   -1.0450 C   0  0  0  0  0  0  0  0  0  0  0  0
    2.3897    1.2478   -0.0185 C   0  0  0  0  0  0  0  0  0  0  0  0
    1.1638    0.4737    0.4265 C   0  0  0  0  0  0  0  0  0  0  0  0
    1.3890   -0.0360    1.7259 O   0  0  0  0  0  0  0  0  0  0  0  0
    0.4984    0.5211    2.6501 C   0  0  0  0  0  0  0  0  0  0  0  0
    3.4077    0.3877   -0.6491 C   0  0  0  0  0  0  0  0  0  0  0  0
    3.3693   -1.0246   -0.2295 C   0  0  2  0  0  0  0  0  0  0  0  0
    4.3772   -1.7818   -0.9896 N   0  0  0  0  0  0  0  0  0  0  0  0
    5.1185   -2.6264   -0.1329 C   0  0  0  0  0  0  0  0  0  0  0  0
    4.5492   -2.6436    1.1573 O   0  0  0  0  0  0  0  0  0  0  0  0
    5.1819   -4.0859   -0.5837 C   0  0  0  0  0  0  0  0  0  0  0  0
    3.7974   -4.6562   -0.6291 C   0  0  0  0  0  0  0  0  0  0  0  0
    2.0146   -1.6658   -0.3906 C   0  0  0  0  0  0  0  0  0  0  0  0
    0.8977   -0.6511   -0.5301 C   0  0  0  0  0  0  0  0  0  0  0  0
   -0.3993   -1.1688   -0.4789 N   0  0  0  0  0  0  0  0  0  0  0  0
   -1.4785   -0.3560   -0.9827 C   0  0  0  0  0  0  0  0  0  0  0  0
   -2.7220   -0.8391   -0.4778 N   0  0  0  0  0  0  0  0  0  0  0  0
   -1.1833    1.0008   -0.9411 N   0  0  0  0  0  0  0  0  0  0  0  0
   -2.2127    1.9685   -0.8792 C   0  0  0  0  0  0  0  0  0  0  0  0
   -3.4836    1.2695   -1.4043 C   0  0  0  0  0  0  0  0  0  0  0  0
   -3.7418    0.1982   -0.3736 C   0  0  0  0  0  0  0  0  0  0  0  0
   -5.1222   -0.3265   -0.5320 C   0  0  0  0  0  0  0  0  0  0  0  0
   -6.1428    0.7540   -0.3175 C   0  0  0  0  0  0  0  0  0  0  0  0
   -7.1555    0.7438   -1.4324 C   0  0  0  0  0  0  0  0  0  0  0  0
   -8.2876    1.6604   -1.0914 C   0  0  0  0  0  0  0  0  0  0  0  0
   -8.9638    1.0801    0.1260 C   0  0  0  0  0  0  0  0  0  0  0  0
   -8.0567    0.9872    1.2994 C   0  0  0  0  0  0  0  0  0  0  0  0
   -6.7215    0.4195    1.0432 C   0  0  0  0  0  0  0  0  0  0  0  0
   -6.5338   -0.9661    1.2823 N   0  0  0  0  0  0  0  0  0  0  0  0
   -7.6609   -1.8095    1.1167 C   0  0  0  0  0  0  0  0  0  0  0  0
   -5.4526   -1.4303    0.4545 C   0  0  0  0  0  0  0  0  0  0  0  0
    9.6929    1.8202    0.4660 H   0  0  0  0  0  0  0  0  0  0  0  0
    8.9661    1.5036    2.1125 H   0  0  0  0  0  0  0  0  0  0  0  0
    8.4398    2.9760    1.1446 H   0  0  0  0  0  0  0  0  0  0  0  0
    7.7034    2.5768   -1.0982 H   0  0  0  0  0  0  0  0  0  0  0  0
    7.0982    0.9274   -1.5393 H   0  0  0  0  0  0  0  0  0  0  0  0
    8.8752    1.2181   -1.1533 H   0  0  0  0  0  0  0  0  0  0  0  0
    6.6498    1.6817    2.2393 H   0  0  0  0  0  0  0  0  0  0  0  0
    6.5201    2.8019    0.8907 H   0  0  0  0  0  0  0  0  0  0  0  0
    4.4241    1.4108    1.5394 H   0  0  0  0  0  0  0  0  0  0  0  0
    5.3263   -0.0319    1.1213 H   0  0  0  0  0  0  0  0  0  0  0  0
    3.9149    2.9854   -0.3285 H   0  0  0  0  0  0  0  0  0  0  0  0
    5.3837    2.8707   -1.4373 H   0  0  0  0  0  0  0  0  0  0  0  0
    3.8285    2.2302   -1.9402 H   0  0  0  0  0  0  0  0  0  0  0  0
    2.7751    1.8027    0.8388 H   0  0  0  0  0  0  0  0  0  0  0  0
    2.0424    2.0766   -0.7341 H   0  0  0  0  0  0  0  0  0  0  0  0
    0.3383    1.1572    0.5209 H   0  0  0  0  0  0  0  0  0  0  0  0
    0.5951    1.6324    2.7229 H   0  0  0  0  0  0  0  0  0  0  0  0
    0.6867    0.0381    3.6231 H   0  0  0  0  0  0  0  0  0  0  0  0
   -0.5656    0.2911    2.3691 H   0  0  0  0  0  0  0  0  0  0  0  0
    3.2371    0.4334   -1.7767 H   0  0  0  0  0  0  0  0  0  0  0  0
    3.6072   -1.0533    0.8755 H   0  0  0  0  0  0  0  0  0  0  0  0
    3.8870   -2.3072   -1.7686 H   0  0  0  0  0  0  0  0  0  0  0  0
    6.1631   -2.2571    0.0183 H   0  0  0  0  0  0  0  0  0  0  0  0
    4.7923   -3.5259    1.5735 H   0  0  0  0  0  0  0  0  0  0  0  0
    5.6489   -4.0396   -1.6027 H   0  0  0  0  0  0  0  0  0  0  0  0
    5.8465   -4.6463    0.1110 H   0  0  0  0  0  0  0  0  0  0  0  0
    3.8149   -5.7705   -0.4742 H   0  0  0  0  0  0  0  0  0  0  0  0
    3.3573   -4.4123   -1.6250 H   0  0  0  0  0  0  0  0  0  0  0  0
    3.1081   -4.2793    0.1359 H   0  0  0  0  0  0  0  0  0  0  0  0
    1.8169   -2.3326    0.5060 H   0  0  0  0  0  0  0  0  0  0  0  0
    1.9870   -2.3390   -1.2682 H   0  0  0  0  0  0  0  0  0  0  0  0
    1.0741   -0.1968   -1.5639 H   0  0  0  0  0  0  0  0  0  0  0  0
   -0.6280   -1.5134    0.4975 H   0  0  0  0  0  0  0  0  0  0  0  0
   -1.5174   -0.6751   -2.1067 H   0  0  0  0  0  0  0  0  0  0  0  0
   -2.6719   -1.4629    0.3301 H   0  0  0  0  0  0  0  0  0  0  0  0
   -0.5422    1.2672   -1.7512 H   0  0  0  0  0  0  0  0  0  0  0  0
   -2.0330    2.8246   -1.5573 H   0  0  0  0  0  0  0  0  0  0  0  0
   -2.4875    2.3031    0.1458 H   0  0  0  0  0  0  0  0  0  0  0  0
   -4.2707    1.9932   -1.4339 H   0  0  0  0  0  0  0  0  0  0  0  0
   -3.2551    0.8028   -2.4002 H   0  0  0  0  0  0  0  0  0  0  0  0
   -3.6167    0.6553    0.6247 H   0  0  0  0  0  0  0  0  0  0  0  0
   -5.2544   -0.6839   -1.5884 H   0  0  0  0  0  0  0  0  0  0  0  0
   -5.7467    1.7836   -0.2755 H   0  0  0  0  0  0  0  0  0  0  0  0
   -7.4776   -0.2844   -1.6990 H   0  0  0  0  0  0  0  0  0  0  0  0
   -6.6369    1.1542   -2.3331 H   0  0  0  0  0  0  0  0  0  0  0  0
   -9.0236    1.6126   -1.9209 H   0  0  0  0  0  0  0  0  0  0  0  0
   -7.9030    2.6594   -0.8977 H   0  0  0  0  0  0  0  0  0  0  0  0
   -9.4859    0.1584   -0.1442 H   0  0  0  0  0  0  0  0  0  0  0  0
   -9.7744    1.8214    0.4053 H   0  0  0  0  0  0  0  0  0  0  0  0
   -8.5959    0.4264    2.1015 H   0  0  0  0  0  0  0  0  0  0  0  0
   -7.9480    2.0345    1.7151 H   0  0  0  0  0  0  0  0  0  0  0  0
   -6.0090    0.9210    1.7767 H   0  0  0  0  0  0  0  0  0  0  0  0
   -7.3266   -2.8623    1.2548 H   0  0  0  0  0  0  0  0  0  0  0  0
   -8.4690   -1.6615    1.8721 H   0  0  0  0  0  0  0  0  0  0  0  0
   -8.1002   -1.7888    0.0741 H   0  0  0  0  0  0  0  0  0  0  0  0
   -5.7651   -2.3192   -0.1652 H   0  0  0  0  0  0  0  0  0  0  0  0
   -4.5552   -1.7779    1.0221 H   0  0  0  0  0  0  0  0  0  0  0  0
  1  2  1  0
  2  3  1  0
  2  4  1  0
  4  5  1  0
  5  6  1  0
  6  7  1  0
  8  9  1  0
  9 10  1  0
 10 11  1  0
  6 12  1  0
  8 12  1  0
 12 13  1  0
 13 14  1  0
 14 15  1  0
 15 16  1  0
 15 17  1  0
 17 18  1  0
 13 19  1  0
  9 20  1  0
 19 20  1  0
 20 21  1  0
 21 22  1  0
 22 23  1  0
 22 24  1  0
 24 25  1  0
 25 26  1  0
 23 27  1  0
 26 27  1  0
 27 28  1  0
 28 29  1  0
 29 30  1  0
 30 31  1  0
 31 32  1  0
 32 33  1  0
 29 34  1  0
 33 34  1  0
 34 35  1  0
 35 36  1  0
 28 37  1  0
 35 37  1  0
  1 38  1  0
  1 39  1  0
  1 40  1  0
  3 41  1  0
  3 42  1  0
  3 43  1  0
  4 44  1  0
  4 45  1  0
  5 46  1  0
  5 47  1  0
  7 48  1  0
  7 49  1  0
  7 50  1  0
  8 51  1  0
  8 52  1  0
  9 53  1  0
 11 54  1  0
 11 55  1  0
 11 56  1  0
 12 57  1  0
 13 58  1  1
 14 59  1  0
 15 60  1  0
 16 61  1  0
 17 62  1  0
 17 63  1  0
 18 64  1  0
 18 65  1  0
 18 66  1  0
 19 67  1  0
 19 68  1  0
 20 69  1  0
 21 70  1  0
 22 71  1  0
 23 72  1  0
 24 73  1  0
 25 74  1  0
 25 75  1  0
 26 76  1  0
 26 77  1  0
 27 78  1  0
 28 79  1  0
 29 80  1  0
 30 81  1  0
 30 82  1  0
 31 83  1  0
 31 84  1  0
 32 85  1  0
 32 86  1  0
 33 87  1  0
 33 88  1  0
 34 89  1  0
 36 90  1  0
 36 91  1  0
 36 92  1  0
 37 93  1  0
 37 94  1  0
M  END
>  <PDBID>  (1) 
4ZAU

>  <PDB ID>  (1) 
4ZAU

>  <Generic Name>  (1) 
Osimertinib

>  <Brand Name>  (1) 
Tagrisso

>  <DrugBank ID>  (1) 
DB09330

>  <ATC Codes>  (1) 
nan

>  <Ligand ID>  (1) 
YY3

>  <Target Name>  (1) 
Epidermal growth factor receptor

>  <UniProt ID>  (1) 
P00533

>  <PDB ID.1>  (1) 
4ZAU

>  <Seq. Identity>  (1) 
96%

$$$$
