PDB_DB06147_06
     RDKit          3D

 37 38  0  0  0  0  0  0  0  0999 V2000
   -1.0211   -0.7384    2.2958 O   0  0  0  0  0  0  0  0  0  0  0  0
   -0.5038   -0.7691    0.8203 S   0  0  0  0  0  0  0  0  0  0  0  0
    0.4411   -2.2688    0.6405 O   0  0  0  0  0  0  0  0  0  0  0  0
    0.7938    0.4553    0.6500 C   0  0  0  0  0  0  0  0  0  0  0  0
    1.8093    0.1112    1.7178 C   0  0  0  0  0  0  0  0  0  0  0  0
    3.1196    0.8344    1.5025 C   0  0  0  0  0  0  0  0  0  0  0  0
    1.3545    0.3686   -0.7315 C   0  0  0  0  0  0  0  0  0  0  0  0
    2.7481   -0.2224   -0.7448 C   0  0  0  0  0  0  0  0  0  0  0  0
    3.6808    0.5873    0.1232 C   0  0  0  0  0  0  0  0  0  0  0  0
    4.9456   -0.1283    0.2113 N   0  0  0  0  0  0  0  0  0  0  0  0
   -1.4896   -0.7435   -0.3823 N   0  0  0  0  0  0  0  0  0  0  0  0
   -2.8741   -0.5185   -0.1526 C   0  0  0  0  0  0  0  0  0  0  0  0
   -3.1668    1.1095    0.6533 S   0  0  0  0  0  0  0  0  0  0  0  0
   -4.6724    1.5480   -0.3087 C   0  0  0  0  0  0  0  0  0  0  0  0
   -4.8932    0.2211   -1.0426 C   0  0  0  0  0  0  0  0  0  0  0  0
   -3.5936   -0.2648   -1.4116 N   0  0  0  0  0  0  0  0  0  0  0  0
   -0.8043   -1.5472    2.8307 H   0  0  0  0  0  0  0  0  0  0  0  0
    0.1361   -2.8489    1.3682 H   0  0  0  0  0  0  0  0  0  0  0  0
    0.3875    1.4407    0.8878 H   0  0  0  0  0  0  0  0  0  0  0  0
    1.4044    0.4637    2.6884 H   0  0  0  0  0  0  0  0  0  0  0  0
    1.9186   -0.9717    1.7720 H   0  0  0  0  0  0  0  0  0  0  0  0
    3.8325    0.4331    2.2585 H   0  0  0  0  0  0  0  0  0  0  0  0
    3.0019    1.9045    1.6892 H   0  0  0  0  0  0  0  0  0  0  0  0
    0.7246   -0.3187   -1.3651 H   0  0  0  0  0  0  0  0  0  0  0  0
    1.3718    1.3322   -1.2622 H   0  0  0  0  0  0  0  0  0  0  0  0
    3.1194   -0.1619   -1.7855 H   0  0  0  0  0  0  0  0  0  0  0  0
    2.7609   -1.2618   -0.3808 H   0  0  0  0  0  0  0  0  0  0  0  0
    3.9143    1.5646   -0.3574 H   0  0  0  0  0  0  0  0  0  0  0  0
    5.2982   -0.3494   -0.7289 H   0  0  0  0  0  0  0  0  0  0  0  0
    4.8862   -0.9612    0.8447 H   0  0  0  0  0  0  0  0  0  0  0  0
   -1.3880   -1.4831   -1.1156 H   0  0  0  0  0  0  0  0  0  0  0  0
   -3.3818   -1.3154    0.4294 H   0  0  0  0  0  0  0  0  0  0  0  0
   -5.4652    1.7011    0.4205 H   0  0  0  0  0  0  0  0  0  0  0  0
   -4.4769    2.3696   -0.9949 H   0  0  0  0  0  0  0  0  0  0  0  0
   -5.4574    0.4161   -1.9513 H   0  0  0  0  0  0  0  0  0  0  0  0
   -5.3849   -0.5007   -0.3819 H   0  0  0  0  0  0  0  0  0  0  0  0
   -3.0763    0.5126   -1.8800 H   0  0  0  0  0  0  0  0  0  0  0  0
  2  1  1  0
  2  3  1  0
  2  4  1  0
  4  5  1  0
  5  6  1  0
  4  7  1  0
  7  8  1  0
  6  9  1  0
  8  9  1  0
  9 10  1  0
  2 11  1  0
 11 12  1  0
 12 13  1  0
 13 14  1  0
 14 15  1  0
 12 16  1  0
 15 16  1  0
  1 17  1  0
  3 18  1  0
  4 19  1  0
  5 20  1  0
  5 21  1  0
  6 22  1  0
  6 23  1  0
  7 24  1  0
  7 25  1  0
  8 26  1  0
  8 27  1  0
  9 28  1  0
 10 29  1  0
 10 30  1  0
 11 31  1  0
 12 32  1  0
 14 33  1  0
 14 34  1  0
 15 35  1  0
 15 36  1  0
 16 37  1  0
M  END
>  <PDBID>  (1) 
3TYE

>  <PDB ID>  (1) 
3TYE

>  <Generic Name>  (1) 
Sulfathiazole

>  <Brand Name>  (1) 
Norsulfazolum#Sulfatiazol

>  <DrugBank ID>  (1) 
DB06147

>  <ATC Codes>  (1) 
J01EB07#D06BA02

>  <Ligand ID>  (1) 
YTZ

>  <Target Name>  (1) 
Dihydropteroate synthetase

>  <UniProt ID>  (1) 
Q27738

>  <PDB ID.1>  (1) 
3TYE

>  <Seq. Identity>  (1) 
35%

$$$$
