PDB_DB04786_06
     RDKit          3D

192199  0  0  0  0  0  0  0  0999 V2000
   15.2019   -5.4567    2.1401 O   0  0  0  0  0  0  0  0  0  0  0  0
   14.6872   -4.2887    2.6588 S   0  0  0  0  0  0  0  0  0  0  0  0
   13.3207   -4.9125    3.8629 O   0  0  0  0  0  0  0  0  0  0  0  0
   15.3495   -3.2691    3.6911 O   0  0  0  0  0  0  0  0  0  0  0  0
   13.5415   -3.3331    1.7034 C   0  0  0  0  0  0  0  0  0  0  0  0
   13.2061   -2.1087    2.4796 C   0  0  0  0  0  0  0  0  0  0  0  0
   12.7168   -1.0017    1.5101 C   0  0  2  0  0  0  0  0  0  0  0  0
   11.8521    0.1052    2.4166 S   0  0  0  0  0  0  0  0  0  0  0  0
   10.6166   -0.0905    3.0494 O   0  0  0  0  0  0  0  0  0  0  0  0
   13.0750    0.2931    3.8086 O   0  0  0  0  0  0  0  0  0  0  0  0
   12.2136    1.7000    1.7959 O   0  0  0  0  0  0  0  0  0  0  0  0
   14.2488   -2.9171    0.4291 C   0  0  0  0  0  0  0  0  0  0  0  0
   13.2036   -2.3059   -0.4974 C   0  0  0  0  0  0  0  0  0  0  0  0
   13.8225   -1.3710   -1.4834 C   0  0  1  0  0  0  0  0  0  0  0  0
   15.0905   -2.2498   -2.3100 S   0  0  0  0  0  0  0  0  0  0  0  0
   15.5026   -0.8523   -3.5148 O   0  0  0  0  0  0  0  0  0  0  0  0
   16.4039   -2.2661   -1.4904 O   0  0  0  0  0  0  0  0  0  0  0  0
   14.6993   -3.3221   -3.1877 O   0  0  0  0  0  0  0  0  0  0  0  0
   12.7204   -0.9330   -2.4303 C   0  0  0  0  0  0  0  0  0  0  0  0
   11.3705   -1.3348   -1.9458 C   0  0  0  0  0  0  0  0  0  0  0  0
   12.1056   -1.6714    0.3511 C   0  0  0  0  0  0  0  0  0  0  0  0
   11.1431   -0.8638   -0.4915 C   0  0  1  0  0  0  0  0  0  0  0  0
   11.2928    0.5434   -0.3825 N   0  0  0  0  0  0  0  0  0  0  0  0
   10.4037    1.2923   -1.2044 C   0  0  0  0  0  0  0  0  0  0  0  0
   10.6480    2.6724   -0.9949 O   0  0  0  0  0  0  0  0  0  0  0  0
    8.9242    1.0915   -0.8819 C   0  0  2  0  0  0  0  0  0  0  0  0
    8.0628    1.8725   -1.7954 C   0  0  0  0  0  0  0  0  0  0  0  0
    8.7173    1.2101    0.5741 C   0  0  0  0  0  0  0  0  0  0  0  0
    7.4709    1.9267    0.9525 C   0  0  0  0  0  0  0  0  0  0  0  0
    7.4786    3.2619    0.1906 C   0  0  0  0  0  0  0  0  0  0  0  0
    6.4129    4.1226    0.8211 C   0  0  0  0  0  0  0  0  0  0  0  0
    7.1657    2.9090   -1.2622 C   0  0  0  0  0  0  0  0  0  0  0  0
    5.7723    2.5174   -1.2512 N   0  0  0  0  0  0  0  0  0  0  0  0
    5.2087    2.2138   -2.5193 C   0  0  0  0  0  0  0  0  0  0  0  0
    5.6068    3.1766   -3.4385 O   0  0  0  0  0  0  0  0  0  0  0  0
    3.6711    2.1503   -2.4369 C   0  0  0  0  0  0  0  0  0  0  0  0
    3.2468    1.1305   -1.4606 C   0  0  0  0  0  0  0  0  0  0  0  0
    3.1672    3.5236   -2.3634 C   0  0  0  0  0  0  0  0  0  0  0  0
    2.3758    3.8197   -1.1427 C   0  0  0  0  0  0  0  0  0  0  0  0
    1.3357    2.6884   -1.0375 C   0  0  0  0  0  0  0  0  0  0  0  0
    2.1299    1.5037   -0.5523 C   0  0  0  0  0  0  0  0  0  0  0  0
    1.2945    0.4927   -0.0516 N   0  0  0  0  0  0  0  0  0  0  0  0
    0.5302   -0.3109   -0.9189 C   0  0  0  0  0  0  0  0  0  0  0  0
   -0.3411    0.3955   -1.7429 O   0  0  0  0  0  0  0  0  0  0  0  0
   -0.3582   -1.1183   -0.0544 N   0  0  0  0  0  0  0  0  0  0  0  0
   -1.3469   -0.2695    0.5231 C   0  0  0  0  0  0  0  0  0  0  0  0
   -2.6866   -0.9022    0.6711 C   0  0  0  0  0  0  0  0  0  0  0  0
   -1.0083    0.3520    1.8407 C   0  0  0  0  0  0  0  0  0  0  0  0
   -1.9346    1.5565    1.9611 C   0  0  0  0  0  0  0  0  0  0  0  0
   -3.0517    1.5118    0.9753 C   0  0  0  0  0  0  0  0  0  0  0  0
   -3.7521    0.1401    0.9195 C   0  0  2  0  0  0  0  0  0  0  0  0
   -4.4008   -0.0684    2.3005 C   0  0  0  0  0  0  0  0  0  0  0  0
   -4.8368   -1.4186    2.2005 O   0  0  0  0  0  0  0  0  0  0  0  0
   -5.4250    0.8082    2.5317 N   0  0  0  0  0  0  0  0  0  0  0  0
   -6.7182    0.8511    2.0434 C   0  0  0  0  0  0  0  0  0  0  0  0
   -7.5664   -0.3418    2.4830 C   0  0  0  0  0  0  0  0  0  0  0  0
   -7.1281    1.4105    0.7448 C   0  0  0  0  0  0  0  0  0  0  0  0
   -6.2640    2.5336    0.2446 C   0  0  0  0  0  0  0  0  0  0  0  0
   -7.3824    0.4518   -0.3811 C   0  0  0  0  0  0  0  0  0  0  0  0
   -7.8691   -0.8919    0.1250 C   0  0  0  0  0  0  0  0  0  0  0  0
   -8.5475   -0.8468    1.4282 C   0  0  0  0  0  0  0  0  0  0  0  0
   -9.8958   -0.3133    1.6218 C   0  0  0  0  0  0  0  0  0  0  0  0
  -10.2749   -0.7676    2.9541 O   0  0  0  0  0  0  0  0  0  0  0  0
  -10.9867   -0.6840    0.8079 N   0  0  0  0  0  0  0  0  0  0  0  0
  -11.0605   -0.3073   -0.5543 C   0  0  0  0  0  0  0  0  0  0  0  0
  -11.1488    1.2175   -0.6956 C   0  0  0  0  0  0  0  0  0  0  0  0
  -12.4216    1.7495   -0.0808 C   0  0  0  0  0  0  0  0  0  0  0  0
  -13.5524    1.2254   -0.8828 C   0  0  2  0  0  0  0  0  0  0  0  0
  -15.0622    1.0849    0.0288 S   0  0  0  0  0  0  0  0  0  0  0  0
  -16.2114    0.8162   -0.3105 O   0  0  0  0  0  0  0  0  0  0  0  0
  -15.1893    3.1380    0.2047 O   0  0  0  0  0  0  0  0  0  0  0  0
  -14.5518    1.1248    1.7026 O   0  0  0  0  0  0  0  0  0  0  0  0
  -12.2542   -0.9634   -1.2261 C   0  0  0  0  0  0  0  0  0  0  0  0
  -13.2652    0.0181   -1.7051 C   0  0  0  0  0  0  0  0  0  0  0  0
  -14.5228   -0.6544   -2.2100 C   0  0  0  0  0  0  0  0  0  0  0  0
  -12.6796   -2.2347   -0.6169 C   0  0  1  0  0  0  0  0  0  0  0  0
  -13.1937   -2.4153    0.9163 S   0  0  0  0  0  0  0  0  0  0  0  0
  -14.0177   -1.9077    1.7908 O   0  0  0  0  0  0  0  0  0  0  0  0
  -13.8141   -4.2340    0.6939 O   0  0  0  0  0  0  0  0  0  0  0  0
  -11.7233   -3.1843    1.8131 O   0  0  0  0  0  0  0  0  0  0  0  0
  -13.7580   -2.8163   -1.5888 C   0  0  0  0  0  0  0  0  0  0  0  0
  -14.9196   -1.8643   -1.3826 C   0  0  2  0  0  0  0  0  0  0  0  0
  -16.3529   -2.5351   -2.0267 S   0  0  0  0  0  0  0  0  0  0  0  0
  -16.6533   -3.9137   -1.1682 O   0  0  0  0  0  0  0  0  0  0  0  0
  -17.4203   -1.5885   -2.3075 O   0  0  0  0  0  0  0  0  0  0  0  0
  -15.7614   -3.1932   -3.5866 O   0  0  0  0  0  0  0  0  0  0  0  0
   15.0259   -6.4101    2.3402 H   0  0  0  0  0  0  0  0  0  0  0  0
   12.9064   -5.5526    3.2305 H   0  0  0  0  0  0  0  0  0  0  0  0
   15.9577   -3.6444    4.3712 H   0  0  0  0  0  0  0  0  0  0  0  0
   12.6894   -4.0069    1.5200 H   0  0  0  0  0  0  0  0  0  0  0  0
   14.0943   -1.6991    3.0012 H   0  0  0  0  0  0  0  0  0  0  0  0
   12.3765   -2.2597    3.2010 H   0  0  0  0  0  0  0  0  0  0  0  0
   13.6786   -0.5268    1.1434 H   0  0  0  0  0  0  0  0  0  0  0  0
    9.9083   -0.7474    2.9695 H   0  0  0  0  0  0  0  0  0  0  0  0
   13.8625    0.4784    3.2709 H   0  0  0  0  0  0  0  0  0  0  0  0
   12.2194    2.3068    2.5632 H   0  0  0  0  0  0  0  0  0  0  0  0
   14.9440   -2.1003    0.7063 H   0  0  0  0  0  0  0  0  0  0  0  0
   14.7668   -3.7831   -0.0093 H   0  0  0  0  0  0  0  0  0  0  0  0
   12.7323   -3.1454   -1.0600 H   0  0  0  0  0  0  0  0  0  0  0  0
   14.2825   -0.4711   -1.0602 H   0  0  0  0  0  0  0  0  0  0  0  0
   15.7760   -0.1812   -2.8122 H   0  0  0  0  0  0  0  0  0  0  0  0
   16.7691   -1.4924   -1.0109 H   0  0  0  0  0  0  0  0  0  0  0  0
   14.5470   -3.2311   -4.1762 H   0  0  0  0  0  0  0  0  0  0  0  0
   12.9113   -1.4541   -3.3915 H   0  0  0  0  0  0  0  0  0  0  0  0
   12.7584    0.1411   -2.6353 H   0  0  0  0  0  0  0  0  0  0  0  0
   10.6066   -0.8700   -2.6123 H   0  0  0  0  0  0  0  0  0  0  0  0
   11.1696   -2.4141   -1.9775 H   0  0  0  0  0  0  0  0  0  0  0  0
   11.5228   -2.5607    0.7485 H   0  0  0  0  0  0  0  0  0  0  0  0
   10.1099   -1.1647   -0.2706 H   0  0  0  0  0  0  0  0  0  0  0  0
   12.2710    0.7643   -0.7511 H   0  0  0  0  0  0  0  0  0  0  0  0
   10.4836    1.0741   -2.3056 H   0  0  0  0  0  0  0  0  0  0  0  0
   11.2699    3.0018   -1.7067 H   0  0  0  0  0  0  0  0  0  0  0  0
    8.7523   -0.0016   -1.1377 H   0  0  0  0  0  0  0  0  0  0  0  0
    8.7742    2.4021   -2.5134 H   0  0  0  0  0  0  0  0  0  0  0  0
    7.4267    1.1621   -2.4018 H   0  0  0  0  0  0  0  0  0  0  0  0
    9.5745    1.8155    0.9982 H   0  0  0  0  0  0  0  0  0  0  0  0
    8.8015    0.2159    1.0838 H   0  0  0  0  0  0  0  0  0  0  0  0
    7.4089    2.0910    2.0297 H   0  0  0  0  0  0  0  0  0  0  0  0
    6.5975    1.3266    0.6221 H   0  0  0  0  0  0  0  0  0  0  0  0
    8.4444    3.7462    0.3225 H   0  0  0  0  0  0  0  0  0  0  0  0
    5.6096    3.4402    1.2288 H   0  0  0  0  0  0  0  0  0  0  0  0
    6.0060    4.9029    0.1817 H   0  0  0  0  0  0  0  0  0  0  0  0
    6.8746    4.5558    1.7507 H   0  0  0  0  0  0  0  0  0  0  0  0
    7.2461    3.8477   -1.8389 H   0  0  0  0  0  0  0  0  0  0  0  0
    5.2428    3.2771   -0.7680 H   0  0  0  0  0  0  0  0  0  0  0  0
    5.4972    1.2295   -2.9282 H   0  0  0  0  0  0  0  0  0  0  0  0
    4.8611    3.2838   -4.0857 H   0  0  0  0  0  0  0  0  0  0  0  0
    3.4037    1.7779   -3.4917 H   0  0  0  0  0  0  0  0  0  0  0  0
    4.1511    0.8168   -0.8640 H   0  0  0  0  0  0  0  0  0  0  0  0
    2.9562    0.1988   -1.9891 H   0  0  0  0  0  0  0  0  0  0  0  0
    3.9699    4.2972   -2.5028 H   0  0  0  0  0  0  0  0  0  0  0  0
    2.4721    3.7518   -3.2397 H   0  0  0  0  0  0  0  0  0  0  0  0
    2.9570    3.7819   -0.2010 H   0  0  0  0  0  0  0  0  0  0  0  0
    1.8093    4.7718   -1.1923 H   0  0  0  0  0  0  0  0  0  0  0  0
    0.6093    3.0194   -0.2726 H   0  0  0  0  0  0  0  0  0  0  0  0
    0.8080    2.5461   -1.9776 H   0  0  0  0  0  0  0  0  0  0  0  0
    2.6485    1.9318    0.3764 H   0  0  0  0  0  0  0  0  0  0  0  0
    1.8529   -0.1661    0.5774 H   0  0  0  0  0  0  0  0  0  0  0  0
    1.0770   -1.0338   -1.5410 H   0  0  0  0  0  0  0  0  0  0  0  0
   -0.0928    0.3811   -2.6931 H   0  0  0  0  0  0  0  0  0  0  0  0
    0.2004   -1.6538    0.6603 H   0  0  0  0  0  0  0  0  0  0  0  0
   -1.4873    0.5724   -0.2262 H   0  0  0  0  0  0  0  0  0  0  0  0
   -2.6940   -1.6795    1.4891 H   0  0  0  0  0  0  0  0  0  0  0  0
   -2.9024   -1.4773   -0.2572 H   0  0  0  0  0  0  0  0  0  0  0  0
    0.0492    0.6454    1.8948 H   0  0  0  0  0  0  0  0  0  0  0  0
   -1.2542   -0.3978    2.6313 H   0  0  0  0  0  0  0  0  0  0  0  0
   -2.3567    1.5281    2.9861 H   0  0  0  0  0  0  0  0  0  0  0  0
   -1.3676    2.5015    1.7867 H   0  0  0  0  0  0  0  0  0  0  0  0
   -2.8789    1.9501    0.0003 H   0  0  0  0  0  0  0  0  0  0  0  0
   -3.8498    2.1791    1.4464 H   0  0  0  0  0  0  0  0  0  0  0  0
   -4.4803    0.0736    0.1028 H   0  0  0  0  0  0  0  0  0  0  0  0
   -3.6075   -0.0512    3.0360 H   0  0  0  0  0  0  0  0  0  0  0  0
   -4.2744   -2.0080    2.7307 H   0  0  0  0  0  0  0  0  0  0  0  0
   -5.0679    1.7005    3.0016 H   0  0  0  0  0  0  0  0  0  0  0  0
   -7.1825    1.6694    2.7720 H   0  0  0  0  0  0  0  0  0  0  0  0
   -8.2361   -0.0925    3.3571 H   0  0  0  0  0  0  0  0  0  0  0  0
   -6.9864   -1.1933    2.8430 H   0  0  0  0  0  0  0  0  0  0  0  0
   -8.1553    1.9552    0.8562 H   0  0  0  0  0  0  0  0  0  0  0  0
   -5.9264    3.1842    1.0969 H   0  0  0  0  0  0  0  0  0  0  0  0
   -5.4348    2.1948   -0.4057 H   0  0  0  0  0  0  0  0  0  0  0  0
   -6.8425    3.2462   -0.4029 H   0  0  0  0  0  0  0  0  0  0  0  0
   -6.5130    0.3456   -1.0606 H   0  0  0  0  0  0  0  0  0  0  0  0
   -8.1882    0.8559   -1.0268 H   0  0  0  0  0  0  0  0  0  0  0  0
   -6.8474   -1.4157    0.3718 H   0  0  0  0  0  0  0  0  0  0  0  0
   -8.2580   -1.5551   -0.6310 H   0  0  0  0  0  0  0  0  0  0  0  0
   -8.6490   -1.9745    1.7252 H   0  0  0  0  0  0  0  0  0  0  0  0
   -9.9375    0.8199    1.6807 H   0  0  0  0  0  0  0  0  0  0  0  0
  -10.3018   -0.0119    3.5635 H   0  0  0  0  0  0  0  0  0  0  0  0
  -11.8854   -0.3109    1.2619 H   0  0  0  0  0  0  0  0  0  0  0  0
  -10.1161   -0.5408   -1.0721 H   0  0  0  0  0  0  0  0  0  0  0  0
  -10.2806    1.6335   -0.1530 H   0  0  0  0  0  0  0  0  0  0  0  0
  -11.0937    1.5419   -1.7322 H   0  0  0  0  0  0  0  0  0  0  0  0
  -12.4869    1.6016    1.0135 H   0  0  0  0  0  0  0  0  0  0  0  0
  -12.3218    2.8741   -0.1777 H   0  0  0  0  0  0  0  0  0  0  0  0
  -13.7968    2.0572   -1.6275 H   0  0  0  0  0  0  0  0  0  0  0  0
  -17.0770    1.1349   -0.7350 H   0  0  0  0  0  0  0  0  0  0  0  0
  -15.2518    3.1755   -0.7914 H   0  0  0  0  0  0  0  0  0  0  0  0
  -15.3967    1.4543    2.1346 H   0  0  0  0  0  0  0  0  0  0  0  0
  -11.7751   -1.3374   -2.2185 H   0  0  0  0  0  0  0  0  0  0  0  0
  -12.8195    0.4459   -2.6770 H   0  0  0  0  0  0  0  0  0  0  0  0
  -14.3260   -1.0922   -3.2368 H   0  0  0  0  0  0  0  0  0  0  0  0
  -15.3447    0.0531   -2.3433 H   0  0  0  0  0  0  0  0  0  0  0  0
  -11.8533   -3.0013   -0.8189 H   0  0  0  0  0  0  0  0  0  0  0  0
  -13.9780   -1.3828    2.6446 H   0  0  0  0  0  0  0  0  0  0  0  0
  -13.9177   -4.4250    1.6560 H   0  0  0  0  0  0  0  0  0  0  0  0
  -11.9624   -2.9540    2.7386 H   0  0  0  0  0  0  0  0  0  0  0  0
  -13.9901   -3.8405   -1.2185 H   0  0  0  0  0  0  0  0  0  0  0  0
  -13.3260   -2.7945   -2.5882 H   0  0  0  0  0  0  0  0  0  0  0  0
  -14.9848   -1.6375   -0.3176 H   0  0  0  0  0  0  0  0  0  0  0  0
  -15.9287   -4.5637   -1.3280 H   0  0  0  0  0  0  0  0  0  0  0  0
  -18.3645   -1.6468   -2.0308 H   0  0  0  0  0  0  0  0  0  0  0  0
  -15.3697   -4.0861   -3.3466 H   0  0  0  0  0  0  0  0  0  0  0  0
  2  1  1  0
  2  3  1  0
  2  4  1  0
  2  5  1  0
  5  6  1  0
  6  7  1  0
  7  8  1  0
  8  9  1  0
  8 10  1  0
  8 11  1  0
  5 12  1  0
 12 13  1  0
 13 14  1  0
 14 15  1  0
 15 16  1  0
 15 17  1  0
 15 18  1  0
 14 19  1  0
 19 20  1  0
  7 21  1  0
 13 21  1  0
 20 22  1  0
 21 22  1  0
 22 23  1  0
 23 24  1  0
 24 25  1  0
 24 26  1  0
 26 27  1  0
 26 28  1  0
 28 29  1  0
 29 30  1  0
 30 31  1  0
 27 32  1  0
 30 32  1  0
 32 33  1  0
 33 34  1  0
 34 35  1  0
 34 36  1  0
 36 37  1  0
 36 38  1  0
 38 39  1  0
 39 40  1  0
 37 41  1  0
 40 41  1  0
 41 42  1  0
 42 43  1  0
 43 44  1  0
 43 45  1  0
 45 46  1  0
 46 47  1  0
 46 48  1  0
 48 49  1  0
 49 50  1  0
 47 51  1  0
 50 51  1  0
 51 52  1  0
 52 53  1  0
 52 54  1  0
 54 55  1  0
 55 56  1  0
 55 57  1  0
 57 58  1  0
 57 59  1  0
 59 60  1  0
 56 61  1  0
 60 61  1  0
 61 62  1  0
 62 63  1  0
 62 64  1  0
 64 65  1  0
 65 66  1  0
 66 67  1  0
 67 68  1  0
 68 69  1  0
 69 70  1  0
 69 71  1  0
 69 72  1  0
 65 73  1  0
 68 74  1  0
 73 74  1  0
 74 75  1  0
 73 76  1  0
 76 77  1  0
 77 78  1  0
 77 79  1  0
 77 80  1  0
 76 81  1  0
 75 82  1  0
 81 82  1  0
 82 83  1  0
 83 84  1  0
 83 85  1  0
 83 86  1  0
  1 87  1  0
  3 88  1  0
  4 89  1  0
  5 90  1  0
  6 91  1  0
  6 92  1  0
  7 93  1  6
  9 94  1  0
 10 95  1  0
 11 96  1  0
 12 97  1  0
 12 98  1  0
 13 99  1  0
 14100  1  1
 16101  1  0
 17102  1  0
 18103  1  0
 19104  1  0
 19105  1  0
 20106  1  0
 20107  1  0
 21108  1  0
 22109  1  1
 23110  1  0
 24111  1  0
 25112  1  0
 26113  1  6
 27114  1  0
 27115  1  0
 28116  1  0
 28117  1  0
 29118  1  0
 29119  1  0
 30120  1  0
 31121  1  0
 31122  1  0
 31123  1  0
 32124  1  0
 33125  1  0
 34126  1  0
 35127  1  0
 36128  1  0
 37129  1  0
 37130  1  0
 38131  1  0
 38132  1  0
 39133  1  0
 39134  1  0
 40135  1  0
 40136  1  0
 41137  1  0
 42138  1  0
 43139  1  0
 44140  1  0
 45141  1  0
 46142  1  0
 47143  1  0
 47144  1  0
 48145  1  0
 48146  1  0
 49147  1  0
 49148  1  0
 50149  1  0
 50150  1  0
 51151  1  6
 52152  1  0
 53153  1  0
 54154  1  0
 55155  1  0
 56156  1  0
 56157  1  0
 57158  1  0
 58159  1  0
 58160  1  0
 58161  1  0
 59162  1  0
 59163  1  0
 60164  1  0
 60165  1  0
 61166  1  0
 62167  1  0
 63168  1  0
 64169  1  0
 65170  1  0
 66171  1  0
 66172  1  0
 67173  1  0
 67174  1  0
 68175  1  6
 70176  1  0
 71177  1  0
 72178  1  0
 73179  1  0
 74180  1  0
 75181  1  0
 75182  1  0
 76183  1  1
 78184  1  0
 79185  1  0
 80186  1  0
 81187  1  0
 81188  1  0
 82189  1  1
 84190  1  0
 85191  1  0
 86192  1  0
M  END
>  <PDBID>  (1) 
2NYR

>  <PDB ID>  (1) 
2NYR

>  <Generic Name>  (1) 
Suramin

>  <Brand Name>  (1) 
309 Fourneau#Antrypol#Bayer 205#Belganyl#Germanin#Moranyl#Naganin#Naganine#Naganol#Naphuride

>  <DrugBank ID>  (1) 
DB04786

>  <ATC Codes>  (1) 
P01CX02

>  <Ligand ID>  (1) 
SVR

>  <Target Name>  (1) 
NAD-dependent protein deacylase sirtuin-5, mitochondrial

>  <UniProt ID>  (1) 
Q9NXA8

>  <PDB ID.1>  (1) 
2NYR

>  <Seq. Identity>  (1) 
100%

$$$$
