PDB_DB00382_03
     RDKit          3D

 39 41  0  0  0  0  0  0  0  0999 V2000
   -3.6250   -0.7634   -0.2160 C   0  0  0  0  0  0  0  0  0  0  0  0
   -2.3019   -1.4358   -0.2501 C   0  0  0  0  0  0  0  0  0  0  0  0
   -1.2154   -0.7374    0.4965 C   0  0  0  0  0  0  0  0  0  0  0  0
   -1.0819    0.7148    0.1967 C   0  0  0  0  0  0  0  0  0  0  0  0
   -2.3974    1.3253   -0.2158 C   0  0  0  0  0  0  0  0  0  0  0  0
   -3.4804    0.5501    0.5475 C   0  0  0  0  0  0  0  0  0  0  0  0
    0.0287   -1.4530    0.1767 N   0  0  0  0  0  0  0  0  0  0  0  0
    1.1235   -0.6287    0.5662 C   0  0  2  0  0  0  0  0  0  0  0  0
    1.3035    0.4664   -0.4938 C   0  0  1  0  0  0  0  0  0  0  0  0
   -0.0258    1.0145   -0.8532 C   0  0  0  0  0  0  0  0  0  0  0  0
    2.4310   -1.4253    0.5096 C   0  0  0  0  0  0  0  0  0  0  0  0
    3.4943   -0.4908    1.0680 C   0  0  0  0  0  0  0  0  0  0  0  0
    3.5966    0.7700    0.2593 C   0  0  0  0  0  0  0  0  0  0  0  0
    2.2644    1.4639    0.0778 C   0  0  0  0  0  0  0  0  0  0  0  0
   -0.4886    0.3456   -2.0802 N   0  0  0  0  0  0  0  0  0  0  0  0
   -4.4498   -1.3787    0.1547 H   0  0  0  0  0  0  0  0  0  0  0  0
   -3.9023   -0.4535   -1.2659 H   0  0  0  0  0  0  0  0  0  0  0  0
   -2.4292   -2.4491    0.2329 H   0  0  0  0  0  0  0  0  0  0  0  0
   -1.9637   -1.6704   -1.2891 H   0  0  0  0  0  0  0  0  0  0  0  0
   -1.3673   -0.8843    1.5948 H   0  0  0  0  0  0  0  0  0  0  0  0
   -0.7679    1.2606    1.1312 H   0  0  0  0  0  0  0  0  0  0  0  0
   -2.4849    2.3897   -0.0065 H   0  0  0  0  0  0  0  0  0  0  0  0
   -2.5575    1.1300   -1.2978 H   0  0  0  0  0  0  0  0  0  0  0  0
   -3.0656    0.3187    1.5666 H   0  0  0  0  0  0  0  0  0  0  0  0
   -4.4231    1.0921    0.5938 H   0  0  0  0  0  0  0  0  0  0  0  0
    0.0039   -2.3868    0.6078 H   0  0  0  0  0  0  0  0  0  0  0  0
    1.0035   -0.1989    1.5704 H   0  0  0  0  0  0  0  0  0  0  0  0
    1.7880    0.0225   -1.3950 H   0  0  0  0  0  0  0  0  0  0  0  0
   -0.0019    2.0872   -1.0385 H   0  0  0  0  0  0  0  0  0  0  0  0
    2.3672   -2.3249    1.1176 H   0  0  0  0  0  0  0  0  0  0  0  0
    2.6143   -1.6363   -0.5784 H   0  0  0  0  0  0  0  0  0  0  0  0
    3.1322   -0.2106    2.0927 H   0  0  0  0  0  0  0  0  0  0  0  0
    4.4817   -0.9644    1.0852 H   0  0  0  0  0  0  0  0  0  0  0  0
    4.2858    1.4543    0.8148 H   0  0  0  0  0  0  0  0  0  0  0  0
    3.9867    0.5587   -0.7516 H   0  0  0  0  0  0  0  0  0  0  0  0
    2.4197    2.2723   -0.6724 H   0  0  0  0  0  0  0  0  0  0  0  0
    1.9246    1.9367    1.0083 H   0  0  0  0  0  0  0  0  0  0  0  0
   -0.2210    0.8954   -2.9185 H   0  0  0  0  0  0  0  0  0  0  0  0
    0.0011   -0.5762   -2.1461 H   0  0  0  0  0  0  0  0  0  0  0  0
  1  2  1  0
  2  3  1  0
  3  4  1  0
  4  5  1  0
  1  6  1  0
  5  6  1  0
  3  7  1  0
  7  8  1  0
  8  9  1  0
  4 10  1  0
  9 10  1  0
  8 11  1  0
 11 12  1  0
 12 13  1  0
  9 14  1  0
 13 14  1  0
 10 15  1  0
  1 16  1  0
  1 17  1  0
  2 18  1  0
  2 19  1  0
  3 20  1  0
  4 21  1  0
  5 22  1  0
  5 23  1  0
  6 24  1  0
  6 25  1  0
  7 26  1  0
  8 27  1  1
  9 28  1  6
 10 29  1  0
 11 30  1  0
 11 31  1  0
 12 32  1  0
 12 33  1  0
 13 34  1  0
 13 35  1  0
 14 36  1  0
 14 37  1  0
 15 38  1  0
 15 39  1  0
M  END
>  <PDBID>  (1) 
1ACJ

>  <PDB ID>  (1) 
1ACJ

>  <Generic Name>  (1) 
Tacrine

>  <Brand Name>  (1) 
Cognex#Talem

>  <DrugBank ID>  (1) 
DB00382

>  <ATC Codes>  (1) 
N06DA01

>  <Ligand ID>  (1) 
THA

>  <Target Name>  (1) 
Acetylcholinesterase

>  <UniProt ID>  (1) 
P22303

>  <PDB ID.1>  (1) 
1ACJ

>  <Seq. Identity>  (1) 
57%

$$$$
