PDB_DB00939_07
     RDKit          3D

 88 90  0  0  0  0  0  0  0  0999 V2000
   -3.1340   -1.1567   -2.0350 O   0  0  0  0  0  0  0  0  0  0  0  0
   -1.8779   -0.7536   -1.4490 C   0  0  0  0  0  0  0  0  0  0  0  0
   -1.4210    0.2986   -2.1962 O   0  0  0  0  0  0  0  0  0  0  0  0
   -2.1912   -0.3967   -0.0620 C   0  0  0  0  0  0  0  0  0  0  0  0
   -3.1929    0.7607   -0.0540 C   0  0  0  0  0  0  0  0  0  0  0  0
   -3.7596    0.9614    1.3286 C   0  0  0  0  0  0  0  0  0  0  0  0
   -2.7600    0.9281    2.4303 C   0  0  0  0  0  0  0  0  0  0  0  0
   -1.8225   -0.2596    2.3011 C   0  0  0  0  0  0  0  0  0  0  0  0
   -1.1212   -0.0822    0.9259 C   0  0  0  0  0  0  0  0  0  0  0  0
    0.0792   -0.7662    0.9212 N   0  0  0  0  0  0  0  0  0  0  0  0
    1.1011   -0.6156   -0.0269 C   0  0  0  0  0  0  0  0  0  0  0  0
    1.7653    0.7412    0.0929 C   0  0  0  0  0  0  0  0  0  0  0  0
    0.8141    2.0460   -0.6638 Cl  0  0  0  0  0  0  0  0  0  0  0  0
    3.1442    0.8642   -0.4106 C   0  0  0  0  0  0  0  0  0  0  0  0
    3.2310    1.5244   -1.7799 C   0  0  0  0  0  0  0  0  0  0  0  0
    4.0311   -0.3161   -0.4126 C   0  0  0  0  0  0  0  0  0  0  0  0
    3.2856   -1.6099   -0.6953 C   0  0  0  0  0  0  0  0  0  0  0  0
    2.1835   -1.6456    0.3434 C   0  0  0  0  0  0  0  0  0  0  0  0
    1.5446   -3.2662    0.4487 Cl  0  0  0  0  0  0  0  0  0  0  0  0
   -2.7454    1.6438   -0.5070 H   0  0  0  0  0  0  0  0  0  0  0  0
   -4.5503    0.1707    1.4839 H   0  0  0  0  0  0  0  0  0  0  0  0
   -3.2908    0.8027    3.4014 H   0  0  0  0  0  0  0  0  0  0  0  0
   -2.4329   -1.1586    2.2314 H   0  0  0  0  0  0  0  0  0  0  0  0
    0.0777   -1.6964    1.4073 H   0  0  0  0  0  0  0  0  0  0  0  0
    2.6370    1.0436   -2.5540 H   0  0  0  0  0  0  0  0  0  0  0  0
    2.9883    2.6066   -1.6504 H   0  0  0  0  0  0  0  0  0  0  0  0
    4.3173    1.5078   -2.0454 H   0  0  0  0  0  0  0  0  0  0  0  0
    4.7889   -0.2154   -1.2136 H   0  0  0  0  0  0  0  0  0  0  0  0
    3.9753   -2.4401   -0.4564 H   0  0  0  0  0  0  0  0  0  0  0  0
   -3.1340   -1.1567   -2.0350 O   0  0  0  0  0  0  0  0  0  0  0  0
   -1.8779   -0.7536   -1.4490 C   0  0  0  0  0  0  0  0  0  0  0  0
   -1.4210    0.2986   -2.1962 O   0  0  0  0  0  0  0  0  0  0  0  0
   -2.1912   -0.3967   -0.0620 C   0  0  0  0  0  0  0  0  0  0  0  0
   -3.1929    0.7607   -0.0540 C   0  0  0  0  0  0  0  0  0  0  0  0
   -3.7596    0.9614    1.3286 C   0  0  0  0  0  0  0  0  0  0  0  0
   -2.7600    0.9281    2.4303 C   0  0  0  0  0  0  0  0  0  0  0  0
   -1.8225   -0.2596    2.3011 C   0  0  0  0  0  0  0  0  0  0  0  0
   -1.1212   -0.0822    0.9259 C   0  0  0  0  0  0  0  0  0  0  0  0
    0.0792   -0.7662    0.9212 N   0  0  0  0  0  0  0  0  0  0  0  0
    1.1011   -0.6156   -0.0269 C   0  0  0  0  0  0  0  0  0  0  0  0
    1.7653    0.7412    0.0929 C   0  0  0  0  0  0  0  0  0  0  0  0
    0.8141    2.0460   -0.6638 Cl  0  0  0  0  0  0  0  0  0  0  0  0
    3.1442    0.8642   -0.4106 C   0  0  0  0  0  0  0  0  0  0  0  0
    3.2310    1.5244   -1.7799 C   0  0  0  0  0  0  0  0  0  0  0  0
    4.0311   -0.3161   -0.4126 C   0  0  0  0  0  0  0  0  0  0  0  0
    3.2856   -1.6099   -0.6953 C   0  0  0  0  0  0  0  0  0  0  0  0
    2.1835   -1.6456    0.3434 C   0  0  0  0  0  0  0  0  0  0  0  0
    1.5446   -3.2662    0.4487 Cl  0  0  0  0  0  0  0  0  0  0  0  0
   -2.7454    1.6438   -0.5070 H   0  0  0  0  0  0  0  0  0  0  0  0
   -4.5503    0.1707    1.4839 H   0  0  0  0  0  0  0  0  0  0  0  0
   -3.2908    0.8027    3.4014 H   0  0  0  0  0  0  0  0  0  0  0  0
   -2.4329   -1.1586    2.2314 H   0  0  0  0  0  0  0  0  0  0  0  0
    0.0777   -1.6964    1.4073 H   0  0  0  0  0  0  0  0  0  0  0  0
    2.6370    1.0436   -2.5540 H   0  0  0  0  0  0  0  0  0  0  0  0
    2.9883    2.6066   -1.6504 H   0  0  0  0  0  0  0  0  0  0  0  0
    4.3173    1.5078   -2.0454 H   0  0  0  0  0  0  0  0  0  0  0  0
    4.7889   -0.2154   -1.2136 H   0  0  0  0  0  0  0  0  0  0  0  0
    3.9753   -2.4401   -0.4564 H   0  0  0  0  0  0  0  0  0  0  0  0
   -3.5177   -0.3590   -2.4868 H   0  0  0  0  0  0  0  0  0  0  0  0
   -1.2603   -1.6915   -1.5584 H   0  0  0  0  0  0  0  0  0  0  0  0
   -1.9487    0.4005   -3.0230 H   0  0  0  0  0  0  0  0  0  0  0  0
   -2.8052   -1.2831    0.4086 H   0  0  0  0  0  0  0  0  0  0  0  0
   -4.0567    0.4540   -0.6991 H   0  0  0  0  0  0  0  0  0  0  0  0
   -4.2384    1.9853    1.3070 H   0  0  0  0  0  0  0  0  0  0  0  0
   -2.2050    1.8804    2.4251 H   0  0  0  0  0  0  0  0  0  0  0  0
   -1.1182   -0.3503    3.1168 H   0  0  0  0  0  0  0  0  0  0  0  0
   -0.9324    1.0522    0.8781 H   0  0  0  0  0  0  0  0  0  0  0  0
    0.8065   -0.7787   -1.0857 H   0  0  0  0  0  0  0  0  0  0  0  0
    1.8073    0.9107    1.2226 H   0  0  0  0  0  0  0  0  0  0  0  0
    3.6574    1.6266    0.2728 H   0  0  0  0  0  0  0  0  0  0  0  0
    4.6027   -0.4049    0.5457 H   0  0  0  0  0  0  0  0  0  0  0  0
    2.9392   -1.6331   -1.7241 H   0  0  0  0  0  0  0  0  0  0  0  0
    2.6049   -1.3301    1.2961 H   0  0  0  0  0  0  0  0  0  0  0  0
   -3.5177   -0.3590   -2.4868 H   0  0  0  0  0  0  0  0  0  0  0  0
   -1.2603   -1.6915   -1.5584 H   0  0  0  0  0  0  0  0  0  0  0  0
   -1.9487    0.4005   -3.0230 H   0  0  0  0  0  0  0  0  0  0  0  0
   -2.8052   -1.2831    0.4086 H   0  0  0  0  0  0  0  0  0  0  0  0
   -4.0567    0.4540   -0.6991 H   0  0  0  0  0  0  0  0  0  0  0  0
   -4.2384    1.9853    1.3070 H   0  0  0  0  0  0  0  0  0  0  0  0
   -2.2050    1.8804    2.4251 H   0  0  0  0  0  0  0  0  0  0  0  0
   -1.1182   -0.3503    3.1168 H   0  0  0  0  0  0  0  0  0  0  0  0
   -0.9324    1.0522    0.8781 H   0  0  0  0  0  0  0  0  0  0  0  0
    0.8065   -0.7787   -1.0857 H   0  0  0  0  0  0  0  0  0  0  0  0
    1.8073    0.9107    1.2226 H   0  0  0  0  0  0  0  0  0  0  0  0
    3.6574    1.6266    0.2728 H   0  0  0  0  0  0  0  0  0  0  0  0
    4.6027   -0.4049    0.5457 H   0  0  0  0  0  0  0  0  0  0  0  0
    2.9392   -1.6331   -1.7241 H   0  0  0  0  0  0  0  0  0  0  0  0
    2.6049   -1.3301    1.2961 H   0  0  0  0  0  0  0  0  0  0  0  0
  1  2  1  0
  2  3  1  0
  2  4  1  0
  4  5  1  0
  5  6  1  0
  6  7  1  0
  7  8  1  0
  4  9  1  0
  8  9  1  0
  9 10  1  0
 10 11  1  0
 11 12  1  0
 12 13  1  0
 12 14  1  0
 14 15  1  0
 14 16  1  0
 16 17  1  0
 11 18  1  0
 17 18  1  0
 18 19  1  0
  5 20  1  0
  6 21  1  0
  7 22  1  0
  8 23  1  0
 10 24  1  0
 15 25  1  0
 15 26  1  0
 15 27  1  0
 16 28  1  0
 17 29  1  0
 30 31  1  0
 31 32  1  0
 31 33  1  0
 33 34  1  0
 34 35  1  0
 35 36  1  0
 36 37  1  0
 33 38  1  0
 37 38  1  0
 38 39  1  0
 39 40  1  0
 40 41  1  0
 41 42  1  0
 41 43  1  0
 43 44  1  0
 43 45  1  0
 45 46  1  0
 40 47  1  0
 46 47  1  0
 47 48  1  0
 34 49  1  0
 35 50  1  0
 36 51  1  0
 37 52  1  0
 39 53  1  0
 44 54  1  0
 44 55  1  0
 44 56  1  0
 45 57  1  0
 46 58  1  0
  1 59  1  0
  2 60  1  0
  3 61  1  0
  4 62  1  0
  5 63  1  0
  6 64  1  0
  7 65  1  0
  8 66  1  0
  9 67  1  0
 11 68  1  0
 12 69  1  0
 14 70  1  0
 16 71  1  0
 17 72  1  0
 18 73  1  0
 30 74  1  0
 31 75  1  0
 32 76  1  0
 33 77  1  0
 34 78  1  0
 35 79  1  0
 36 80  1  0
 37 81  1  0
 38 82  1  0
 40 83  1  0
 41 84  1  0
 43 85  1  0
 45 86  1  0
 46 87  1  0
 47 88  1  0
M  END
>  <PDBID>  (1) 
5IKQ

>  <PDB ID>  (1) 
5IKQ

>  <Generic Name>  (1) 
Meclofenamic acid

>  <Brand Name>  (1) 
Meclofenamate Sodium#Ethos#Eucome#Meclomen

>  <DrugBank ID>  (1) 
DB00939

>  <ATC Codes>  (1) 
M01AG04#M02AA18

>  <Ligand ID>  (1) 
JMS

>  <Target Name>  (1) 
Prostaglandin G/H synthase 1

>  <UniProt ID>  (1) 
P23219

>  <PDB ID.1>  (1) 
5IKQ

>  <Seq. Identity>  (1) 
61%

$$$$
