PDB_DB00834_04
     RDKit          3D

 83 87  0  0  0  0  0  0  0  0999 V2000
   -2.3435    5.9890   -1.3641 O   0  0  0  0  0  0  0  0  0  0  0  0
   -2.0630    4.7149   -0.8145 C   0  0  0  0  0  0  0  0  0  0  0  0
   -1.7758    3.7958   -1.9307 C   0  0  0  0  0  0  0  0  0  0  0  0
   -0.8442    4.8914    0.0500 C   0  0  0  0  0  0  0  0  0  0  0  0
   -0.5023    3.5555    0.6338 C   0  0  0  0  0  0  0  0  0  0  0  0
   -1.5535    3.1928    1.6363 C   0  0  0  0  0  0  0  0  0  0  0  0
   -0.2484    2.5024   -0.4037 C   0  0  2  0  0  0  0  0  0  0  0  0
   -1.1315    2.5016   -1.5874 C   0  0  0  0  0  0  0  0  0  0  0  0
   -0.1456    1.1515    0.3025 C   0  0  0  0  0  0  0  0  0  0  0  0
    0.3982    0.0615   -0.5653 C   0  0  1  0  0  0  0  0  0  0  0  0
    1.8253   -0.3066   -0.2139 C   0  0  0  0  0  0  0  0  0  0  0  0
    2.7543    0.8829   -0.4090 C   0  0  0  0  0  0  0  0  0  0  0  0
    4.2067    0.4618   -0.3806 C   0  0  0  0  0  0  0  0  0  0  0  0
    4.3327   -0.7096    0.5354 C   0  0  0  0  0  0  0  0  0  0  0  0
    5.7397   -0.9787    0.7875 N   0  0  0  0  0  0  0  0  0  0  0  0
    5.8375   -2.1090    1.6886 C   0  0  0  0  0  0  0  0  0  0  0  0
    6.3917    0.1463    1.3962 C   0  0  0  0  0  0  0  0  0  0  0  0
    3.6480   -1.8878   -0.0966 C   0  0  0  0  0  0  0  0  0  0  0  0
    2.4102   -1.4673   -0.9034 C   0  0  0  0  0  0  0  0  0  0  0  0
   -0.5115   -1.0697   -0.8382 C   0  0  0  0  0  0  0  0  0  0  0  0
   -1.2744   -1.5311    0.3694 C   0  0  2  0  0  0  0  0  0  0  0  0
   -0.3978   -1.9461    1.5227 C   0  0  0  0  0  0  0  0  0  0  0  0
   -2.2480   -2.6340    0.1379 C   0  0  1  0  0  0  0  0  0  0  0  0
   -2.5461   -2.9516   -1.2636 C   0  0  0  0  0  0  0  0  0  0  0  0
   -3.4736   -4.0976   -1.4458 C   0  0  0  0  0  0  0  0  0  0  0  0
   -4.8413   -4.0194   -0.8951 C   0  0  0  0  0  0  0  0  0  0  0  0
   -1.7257   -3.8059    0.7404 O   0  0  0  0  0  0  0  0  0  0  0  0
   -3.4307   -2.2490    0.9931 C   0  0  0  0  0  0  0  0  0  0  0  0
   -3.0441   -0.9571    1.7326 C   0  0  0  0  0  0  0  0  0  0  0  0
   -2.1342   -0.3373    0.7087 C   0  0  1  0  0  0  0  0  0  0  0  0
   -1.3393    0.8248    1.1362 C   0  0  2  0  0  0  0  0  0  0  0  0
   -2.3274    1.9813    1.2859 C   0  0  0  0  0  0  0  0  0  0  0  0
   -2.0573    6.6782   -0.6956 H   0  0  0  0  0  0  0  0  0  0  0  0
   -2.9636    4.4160   -0.2717 H   0  0  0  0  0  0  0  0  0  0  0  0
   -1.2201    4.3839   -2.7211 H   0  0  0  0  0  0  0  0  0  0  0  0
   -2.7577    3.5562   -2.4375 H   0  0  0  0  0  0  0  0  0  0  0  0
   -0.0176    5.2161   -0.5986 H   0  0  0  0  0  0  0  0  0  0  0  0
   -1.0588    5.5883    0.8774 H   0  0  0  0  0  0  0  0  0  0  0  0
    0.4618    3.6938    1.1974 H   0  0  0  0  0  0  0  0  0  0  0  0
   -2.2964    4.0315    1.7880 H   0  0  0  0  0  0  0  0  0  0  0  0
   -1.1140    3.0390    2.6500 H   0  0  0  0  0  0  0  0  0  0  0  0
    0.7978    2.7296   -0.7810 H   0  0  0  0  0  0  0  0  0  0  0  0
   -0.5188    2.2570   -2.5145 H   0  0  0  0  0  0  0  0  0  0  0  0
   -1.8825    1.6553   -1.6063 H   0  0  0  0  0  0  0  0  0  0  0  0
    0.6846    1.3406    1.0506 H   0  0  0  0  0  0  0  0  0  0  0  0
    0.5534    0.5671   -1.5786 H   0  0  0  0  0  0  0  0  0  0  0  0
    1.8204   -0.5397    0.8917 H   0  0  0  0  0  0  0  0  0  0  0  0
    2.6181    1.3395   -1.4127 H   0  0  0  0  0  0  0  0  0  0  0  0
    2.6028    1.6262    0.3952 H   0  0  0  0  0  0  0  0  0  0  0  0
    4.5957    0.2642   -1.4020 H   0  0  0  0  0  0  0  0  0  0  0  0
    4.7877    1.2989    0.0617 H   0  0  0  0  0  0  0  0  0  0  0  0
    3.8562   -0.4840    1.4903 H   0  0  0  0  0  0  0  0  0  0  0  0
    5.1861   -1.9668    2.5967 H   0  0  0  0  0  0  0  0  0  0  0  0
    6.8755   -2.2120    2.0969 H   0  0  0  0  0  0  0  0  0  0  0  0
    5.6038   -3.0583    1.1891 H   0  0  0  0  0  0  0  0  0  0  0  0
    6.9751    0.6816    0.5938 H   0  0  0  0  0  0  0  0  0  0  0  0
    5.7012    0.8573    1.8874 H   0  0  0  0  0  0  0  0  0  0  0  0
    7.1556   -0.1564    2.1444 H   0  0  0  0  0  0  0  0  0  0  0  0
    3.3724   -2.6501    0.6522 H   0  0  0  0  0  0  0  0  0  0  0  0
    4.3476   -2.3346   -0.8359 H   0  0  0  0  0  0  0  0  0  0  0  0
    1.7505   -2.3535   -0.8088 H   0  0  0  0  0  0  0  0  0  0  0  0
    2.7052   -1.2818   -1.9576 H   0  0  0  0  0  0  0  0  0  0  0  0
   -1.3230   -0.6640   -1.5313 H   0  0  0  0  0  0  0  0  0  0  0  0
   -0.0640   -1.8538   -1.4382 H   0  0  0  0  0  0  0  0  0  0  0  0
   -0.9600   -2.6657    2.1955 H   0  0  0  0  0  0  0  0  0  0  0  0
   -0.0894   -1.1331    2.1928 H   0  0  0  0  0  0  0  0  0  0  0  0
    0.4945   -2.5011    1.2242 H   0  0  0  0  0  0  0  0  0  0  0  0
   -3.0798   -2.0486   -1.7017 H   0  0  0  0  0  0  0  0  0  0  0  0
   -1.6587   -3.1723   -1.8924 H   0  0  0  0  0  0  0  0  0  0  0  0
   -3.5795   -4.3661   -2.5511 H   0  0  0  0  0  0  0  0  0  0  0  0
   -2.9869   -4.9984   -0.9563 H   0  0  0  0  0  0  0  0  0  0  0  0
   -5.3935   -4.9147   -1.3655 H   0  0  0  0  0  0  0  0  0  0  0  0
   -5.4623   -3.1685   -1.2543 H   0  0  0  0  0  0  0  0  0  0  0  0
   -4.9417   -4.2391    0.1856 H   0  0  0  0  0  0  0  0  0  0  0  0
   -0.7801   -3.9357    0.5314 H   0  0  0  0  0  0  0  0  0  0  0  0
   -4.3398   -2.0111    0.4011 H   0  0  0  0  0  0  0  0  0  0  0  0
   -3.6835   -2.9848    1.7738 H   0  0  0  0  0  0  0  0  0  0  0  0
   -2.6218   -1.1249    2.7124 H   0  0  0  0  0  0  0  0  0  0  0  0
   -3.9487   -0.3338    1.8123 H   0  0  0  0  0  0  0  0  0  0  0  0
   -2.7213   -0.0950   -0.1918 H   0  0  0  0  0  0  0  0  0  0  0  0
   -1.0623    0.6321    2.2202 H   0  0  0  0  0  0  0  0  0  0  0  0
   -3.0172    2.0799    0.4407 H   0  0  0  0  0  0  0  0  0  0  0  0
   -2.9884    1.7198    2.1523 H   0  0  0  0  0  0  0  0  0  0  0  0
  1  2  1  0
  2  3  1  0
  2  4  1  0
  4  5  1  0
  5  6  1  0
  5  7  1  0
  3  8  1  0
  7  8  1  0
  7  9  1  0
  9 10  1  0
 10 11  1  0
 11 12  1  0
 12 13  1  0
 13 14  1  0
 14 15  1  0
 15 16  1  0
 15 17  1  0
 14 18  1  0
 11 19  1  0
 18 19  1  0
 10 20  1  0
 20 21  1  0
 21 22  1  1
 21 23  1  0
 23 24  1  0
 24 25  1  0
 25 26  1  0
 23 27  1  1
 23 28  1  0
 28 29  1  0
 21 30  1  0
 29 30  1  0
  9 31  1  0
 30 31  1  0
  6 32  1  0
 31 32  1  0
  1 33  1  0
  2 34  1  0
  3 35  1  0
  3 36  1  0
  4 37  1  0
  4 38  1  0
  5 39  1  0
  6 40  1  0
  6 41  1  0
  7 42  1  6
  8 43  1  0
  8 44  1  0
  9 45  1  0
 10 46  1  6
 11 47  1  0
 12 48  1  0
 12 49  1  0
 13 50  1  0
 13 51  1  0
 14 52  1  0
 16 53  1  0
 16 54  1  0
 16 55  1  0
 17 56  1  0
 17 57  1  0
 17 58  1  0
 18 59  1  0
 18 60  1  0
 19 61  1  0
 19 62  1  0
 20 63  1  0
 20 64  1  0
 22 65  1  0
 22 66  1  0
 22 67  1  0
 24 68  1  0
 24 69  1  0
 25 70  1  0
 25 71  1  0
 26 72  1  0
 26 73  1  0
 26 74  1  0
 27 75  1  0
 28 76  1  0
 28 77  1  0
 29 78  1  0
 29 79  1  0
 30 80  1  6
 31 81  1  1
 32 82  1  0
 32 83  1  0
M  END
>  <PDBID>  (1) 
2W8Y

>  <PDB ID>  (1) 
2W8Y

>  <Generic Name>  (1) 
Mifepristone

>  <Brand Name>  (1) 
Korlym#Mifegymiso#Corlux#Mefipil#Mifegyne#Mifeprex

>  <DrugBank ID>  (1) 
DB00834

>  <ATC Codes>  (1) 
G03XB01#G03XB51

>  <Ligand ID>  (1) 
486

>  <Target Name>  (1) 
Progesterone receptor

>  <UniProt ID>  (1) 
P06401

>  <PDB ID.1>  (1) 
2W8Y

>  <Seq. Identity>  (1) 
96%

$$$$
