PDB_DB04573_07
     RDKit          3D

102108  0  0  0  0  0  0  0  0999 V2000
    0.3983    0.5696   -0.3056 C   0  0  1  0  0  0  0  0  0  0  0  0
   -0.3059    0.6905   -1.6305 C   0  0  0  0  0  0  0  0  0  0  0  0
   -1.7326    1.1703   -1.4392 C   0  0  0  0  0  0  0  0  0  0  0  0
   -2.4396    0.1865   -0.5813 C   0  0  2  0  0  0  0  0  0  0  0  0
   -2.5031   -1.1974   -1.1654 C   0  0  0  0  0  0  0  0  0  0  0  0
   -3.8262    0.5852   -0.1721 C   0  0  1  0  0  0  0  0  0  0  0  0
   -4.7732    0.3919   -1.1726 O   0  0  0  0  0  0  0  0  0  0  0  0
   -4.0678   -0.3533    1.0144 C   0  0  2  0  0  0  0  0  0  0  0  0
   -4.9121    0.2166    1.9466 O   0  0  0  0  0  0  0  0  0  0  0  0
   -2.6797   -0.6205    1.6021 C   0  0  0  0  0  0  0  0  0  0  0  0
   -1.7404    0.1916    0.7854 C   0  0  1  0  0  0  0  0  0  0  0  0
   -0.3616   -0.3437    0.6599 C   0  0  2  0  0  0  0  0  0  0  0  0
    0.3130   -0.2572    2.0089 C   0  0  0  0  0  0  0  0  0  0  0  0
    1.7778   -0.4993    1.9701 C   0  0  0  0  0  0  0  0  0  0  0  0
    2.5010    0.1725    0.8495 C   0  0  0  0  0  0  0  0  0  0  0  0
    3.9041   -0.3863    0.7985 C   0  0  0  0  0  0  0  0  0  0  0  0
    4.6350   -0.0486   -0.4564 C   0  0  0  0  0  0  0  0  0  0  0  0
    5.1714    1.2358   -0.4332 O   0  0  0  0  0  0  0  0  0  0  0  0
    3.8305   -0.2885   -1.7023 C   0  0  0  0  0  0  0  0  0  0  0  0
    2.5644    0.5670   -1.5788 C   0  0  0  0  0  0  0  0  0  0  0  0
    1.7630    0.0038   -0.4580 C   0  0  2  0  0  0  0  0  0  0  0  0
    0.3783    0.4823   -0.3943 C   0  0  1  0  0  0  0  0  0  0  0  0
   -0.3425    0.5198   -1.7163 C   0  0  0  0  0  0  0  0  0  0  0  0
   -1.7534    0.9986   -1.5300 C   0  0  0  0  0  0  0  0  0  0  0  0
   -2.4530    0.0901   -0.5857 C   0  0  2  0  0  0  0  0  0  0  0  0
   -2.5320   -1.3351   -1.0604 C   0  0  0  0  0  0  0  0  0  0  0  0
   -3.8221    0.5804   -0.1624 C   0  0  1  0  0  0  0  0  0  0  0  0
   -4.7830    0.4315   -1.1248 O   0  0  0  0  0  0  0  0  0  0  0  0
   -4.0589   -0.3332    1.0487 C   0  0  2  0  0  0  0  0  0  0  0  0
   -4.9270    0.2510    1.9456 O   0  0  0  0  0  0  0  0  0  0  0  0
   -2.6687   -0.5435    1.6568 C   0  0  0  0  0  0  0  0  0  0  0  0
   -1.7363    0.1975    0.7655 C   0  0  1  0  0  0  0  0  0  0  0  0
   -0.3789   -0.3698    0.6320 C   0  0  2  0  0  0  0  0  0  0  0  0
    0.3986   -0.3611    1.9015 C   0  0  0  0  0  0  0  0  0  0  0  0
    1.5993    0.5077    1.9091 C   0  0  0  0  0  0  0  0  0  0  0  0
    2.5035    0.3807    0.7459 C   0  0  1  0  0  0  0  0  0  0  0  0
    3.6721   -0.5168    0.9257 C   0  0  0  0  0  0  0  0  0  0  0  0
    4.4535   -0.6169   -0.3392 C   0  0  0  0  0  0  0  0  0  0  0  0
    5.7882   -0.2615   -0.0314 O   0  0  0  0  0  0  0  0  0  0  0  0
    4.0040    0.2705   -1.4383 C   0  0  0  0  0  0  0  0  0  0  0  0
    2.5250    0.2724   -1.6837 C   0  0  0  0  0  0  0  0  0  0  0  0
    1.7391   -0.1177   -0.4879 C   0  0  2  0  0  0  0  0  0  0  0  0
    0.4317    1.5784    0.1527 H   0  0  0  0  0  0  0  0  0  0  0  0
   -0.2464   -0.2435   -2.2214 H   0  0  0  0  0  0  0  0  0  0  0  0
    0.2141    1.4671   -2.2096 H   0  0  0  0  0  0  0  0  0  0  0  0
   -1.6763    2.1316   -0.9025 H   0  0  0  0  0  0  0  0  0  0  0  0
   -2.2266    1.2736   -2.4137 H   0  0  0  0  0  0  0  0  0  0  0  0
   -1.9862   -1.3040   -2.1279 H   0  0  0  0  0  0  0  0  0  0  0  0
   -2.1220   -1.9752   -0.4602 H   0  0  0  0  0  0  0  0  0  0  0  0
   -3.5717   -1.5053   -1.3637 H   0  0  0  0  0  0  0  0  0  0  0  0
   -3.8623    1.6495    0.1984 H   0  0  0  0  0  0  0  0  0  0  0  0
   -5.6349    0.0546   -0.8056 H   0  0  0  0  0  0  0  0  0  0  0  0
   -4.4514   -1.2988    0.5821 H   0  0  0  0  0  0  0  0  0  0  0  0
   -4.8458   -0.3214    2.7716 H   0  0  0  0  0  0  0  0  0  0  0  0
   -2.4424   -1.7028    1.5530 H   0  0  0  0  0  0  0  0  0  0  0  0
   -2.6904   -0.2857    2.6590 H   0  0  0  0  0  0  0  0  0  0  0  0
   -1.6847    1.2436    1.1086 H   0  0  0  0  0  0  0  0  0  0  0  0
   -0.3124   -1.3773    0.2660 H   0  0  0  0  0  0  0  0  0  0  0  0
    0.0214    0.6846    2.4759 H   0  0  0  0  0  0  0  0  0  0  0  0
   -0.1470   -1.0796    2.6311 H   0  0  0  0  0  0  0  0  0  0  0  0
    2.2101   -0.0862    2.9284 H   0  0  0  0  0  0  0  0  0  0  0  0
    2.0375   -1.5874    2.0007 H   0  0  0  0  0  0  0  0  0  0  0  0
    2.5913    1.2751    1.0269 H   0  0  0  0  0  0  0  0  0  0  0  0
    4.4697    0.0381    1.6529 H   0  0  0  0  0  0  0  0  0  0  0  0
    3.8620   -1.4853    0.9484 H   0  0  0  0  0  0  0  0  0  0  0  0
    5.5213   -0.7446   -0.5162 H   0  0  0  0  0  0  0  0  0  0  0  0
    4.5188    1.9254   -0.2189 H   0  0  0  0  0  0  0  0  0  0  0  0
    3.5055   -1.3563   -1.6792 H   0  0  0  0  0  0  0  0  0  0  0  0
    4.4279   -0.0237   -2.5716 H   0  0  0  0  0  0  0  0  0  0  0  0
    2.0518    0.5662   -2.5380 H   0  0  0  0  0  0  0  0  0  0  0  0
    2.8460    1.6111   -1.3478 H   0  0  0  0  0  0  0  0  0  0  0  0
    1.6753   -1.1080   -0.6172 H   0  0  0  0  0  0  0  0  0  0  0  0
    0.4060    1.5045    0.0174 H   0  0  0  0  0  0  0  0  0  0  0  0
   -0.2639   -0.4638   -2.2068 H   0  0  0  0  0  0  0  0  0  0  0  0
    0.1781    1.2455   -2.3548 H   0  0  0  0  0  0  0  0  0  0  0  0
   -1.7217    2.0072   -1.0982 H   0  0  0  0  0  0  0  0  0  0  0  0
   -2.2650    0.9898   -2.5304 H   0  0  0  0  0  0  0  0  0  0  0  0
   -2.0043   -1.5109   -2.0193 H   0  0  0  0  0  0  0  0  0  0  0  0
   -2.2007   -2.0746   -0.3208 H   0  0  0  0  0  0  0  0  0  0  0  0
   -3.6111   -1.5884   -1.2766 H   0  0  0  0  0  0  0  0  0  0  0  0
   -3.6982    1.6034    0.2103 H   0  0  0  0  0  0  0  0  0  0  0  0
   -5.4872    1.1264   -0.9526 H   0  0  0  0  0  0  0  0  0  0  0  0
   -4.4487   -1.2895    0.6425 H   0  0  0  0  0  0  0  0  0  0  0  0
   -4.9600   -0.3109    2.7454 H   0  0  0  0  0  0  0  0  0  0  0  0
   -2.4256   -1.6215    1.7215 H   0  0  0  0  0  0  0  0  0  0  0  0
   -2.7006   -0.1423    2.6790 H   0  0  0  0  0  0  0  0  0  0  0  0
   -1.6665    1.2661    1.0011 H   0  0  0  0  0  0  0  0  0  0  0  0
   -0.3524   -1.4040    0.2222 H   0  0  0  0  0  0  0  0  0  0  0  0
   -0.2853   -0.0116    2.7195 H   0  0  0  0  0  0  0  0  0  0  0  0
    0.7158   -1.3966    2.2197 H   0  0  0  0  0  0  0  0  0  0  0  0
    1.2449    1.5739    2.0189 H   0  0  0  0  0  0  0  0  0  0  0  0
    2.1757    0.3054    2.8339 H   0  0  0  0  0  0  0  0  0  0  0  0
    2.8735    1.3945    0.4611 H   0  0  0  0  0  0  0  0  0  0  0  0
    4.2728   -0.1429    1.7808 H   0  0  0  0  0  0  0  0  0  0  0  0
    3.2954   -1.5199    1.2399 H   0  0  0  0  0  0  0  0  0  0  0  0
    4.5226   -1.6935   -0.6667 H   0  0  0  0  0  0  0  0  0  0  0  0
    5.7893    0.7424    0.0448 H   0  0  0  0  0  0  0  0  0  0  0  0
    4.4823   -0.1049   -2.3911 H   0  0  0  0  0  0  0  0  0  0  0  0
    4.4037    1.3067   -1.3226 H   0  0  0  0  0  0  0  0  0  0  0  0
    2.2319   -0.3899   -2.5308 H   0  0  0  0  0  0  0  0  0  0  0  0
    2.2293    1.2981   -1.9889 H   0  0  0  0  0  0  0  0  0  0  0  0
    1.6640   -1.2253   -0.3720 H   0  0  0  0  0  0  0  0  0  0  0  0
  1  2  1  0
  2  3  1  0
  3  4  1  0
  4  5  1  6
  4  6  1  0
  6  7  1  0
  6  8  1  0
  8  9  1  0
  8 10  1  0
  4 11  1  0
 10 11  1  0
  1 12  1  0
 11 12  1  0
 12 13  1  0
 13 14  1  0
 14 15  1  0
 15 16  1  0
 16 17  1  0
 17 18  1  0
 17 19  1  0
 19 20  1  0
  1 21  1  0
 15 21  1  0
 20 21  1  0
 22 23  1  0
 23 24  1  0
 24 25  1  0
 25 26  1  6
 25 27  1  0
 27 28  1  0
 27 29  1  0
 29 30  1  0
 29 31  1  0
 25 32  1  0
 31 32  1  0
 22 33  1  0
 32 33  1  0
 33 34  1  0
 34 35  1  0
 35 36  1  0
 36 37  1  0
 37 38  1  0
 38 39  1  0
 38 40  1  0
 40 41  1  0
 22 42  1  0
 36 42  1  0
 41 42  1  0
  1 43  1  1
  2 44  1  0
  2 45  1  0
  3 46  1  0
  3 47  1  0
  5 48  1  0
  5 49  1  0
  5 50  1  0
  6 51  1  1
  7 52  1  0
  8 53  1  6
  9 54  1  0
 10 55  1  0
 10 56  1  0
 11 57  1  1
 12 58  1  6
 13 59  1  0
 13 60  1  0
 14 61  1  0
 14 62  1  0
 15 63  1  0
 16 64  1  0
 16 65  1  0
 17 66  1  0
 18 67  1  0
 19 68  1  0
 19 69  1  0
 20 70  1  0
 20 71  1  0
 21 72  1  6
 22 73  1  1
 23 74  1  0
 23 75  1  0
 24 76  1  0
 24 77  1  0
 26 78  1  0
 26 79  1  0
 26 80  1  0
 27 81  1  1
 28 82  1  0
 29 83  1  6
 30 84  1  0
 31 85  1  0
 31 86  1  0
 32 87  1  1
 33 88  1  6
 34 89  1  0
 34 90  1  0
 35 91  1  0
 35 92  1  0
 36 93  1  6
 37 94  1  0
 37 95  1  0
 38 96  1  0
 39 97  1  0
 40 98  1  0
 40 99  1  0
 41100  1  0
 41101  1  0
 42102  1  1
M  END
>  <PDBID>  (1) 
3Q95

>  <PDB ID>  (1) 
3Q95

>  <Generic Name>  (1) 
Estriol

>  <Brand Name>  (1) 
Aacifemine#Colpoestriol#Ovestin#Synapause E

>  <DrugBank ID>  (1) 
DB04573

>  <ATC Codes>  (1) 
G03CC06#G03CA04

>  <Ligand ID>  (1) 
ESL

>  <Target Name>  (1) 
Estrogen receptor

>  <UniProt ID>  (1) 
P03372

>  <PDB ID.1>  (1) 
3Q95

>  <Seq. Identity>  (1) 
93%

$$$$
