PDB_DB08864_07
     RDKit          3D

 74 76  0  0  0  0  0  0  0  0999 V2000
   -3.4245   -0.5624   -0.9032 C   0  0  0  0  0  0  0  0  0  0  0  0
    2.2094   -1.8408    1.4986 N   0  0  0  0  0  0  0  0  0  0  0  0
   -4.9534    0.9033    0.2227 C   0  0  0  0  0  0  0  0  0  0  0  0
   -3.7363    1.8349    0.5264 C   0  0  0  0  0  0  0  0  0  0  0  0
   -2.5034    0.9516    0.7520 C   0  0  0  0  0  0  0  0  0  0  0  0
   -2.1376    0.1961   -0.4598 C   0  0  0  0  0  0  0  0  0  0  0  0
   -3.1878   -1.4362   -2.0769 C   0  0  0  0  0  0  0  0  0  0  0  0
   -4.5462    0.4158   -1.1817 C   0  0  0  0  0  0  0  0  0  0  0  0
   -2.8182    0.0970    1.9270 C   0  0  0  0  0  0  0  0  0  0  0  0
   -1.1380   -0.7387   -0.4291 N   0  0  0  0  0  0  0  0  0  0  0  0
    1.7698   -0.5538    1.9337 C   0  0  0  0  0  0  0  0  0  0  0  0
    0.3414   -0.3185    1.4245 C   0  0  0  0  0  0  0  0  0  0  0  0
    0.1911   -0.5592   -0.0270 C   0  0  0  0  0  0  0  0  0  0  0  0
    0.9379   -1.7446   -0.4340 N   0  0  0  0  0  0  0  0  0  0  0  0
    2.2802   -1.7573    0.0304 C   0  0  1  0  0  0  0  0  0  0  0  0
    3.0133   -0.5767   -0.3652 N   0  0  0  0  0  0  0  0  0  0  0  0
    7.1050    0.1083    0.1721 C   0  0  0  0  0  0  0  0  0  0  0  0
    6.1480    1.0907   -0.5126 C   0  0  0  0  0  0  0  0  0  0  0  0
    4.8181    0.9213    0.1676 C   0  0  0  0  0  0  0  0  0  0  0  0
    4.3596   -0.5376    0.1102 C   0  0  0  0  0  0  0  0  0  0  0  0
    5.2855   -1.3334   -0.7996 C   0  0  0  0  0  0  0  0  0  0  0  0
    6.7042   -1.2696   -0.2743 C   0  0  0  0  0  0  0  0  0  0  0  0
    8.7220    1.8690    0.1580 N   0  0  0  0  0  0  0  0  0  0  0  0
    8.4996    0.4953   -0.2746 C   0  0  0  0  0  0  0  0  0  0  0  0
   -7.4916    1.0803    0.1258 C   0  0  0  0  0  0  0  0  0  0  0  0
   -6.1716    1.7251    0.2703 C   0  0  0  0  0  0  0  0  0  0  0  0
   -9.1958   -0.1403   -1.0047 N   0  0  0  0  0  0  0  0  0  0  0  0
   -7.7848    0.2907   -1.1033 C   0  0  0  0  0  0  0  0  0  0  0  0
   -3.9450    2.3513    1.4574 H   0  0  0  0  0  0  0  0  0  0  0  0
   -2.3812   -1.1101   -2.7516 H   0  0  0  0  0  0  0  0  0  0  0  0
   -4.1090   -1.4706   -2.6978 H   0  0  0  0  0  0  0  0  0  0  0  0
   -3.0406   -2.5045   -1.7483 H   0  0  0  0  0  0  0  0  0  0  0  0
   -4.1661    1.3120   -1.7293 H   0  0  0  0  0  0  0  0  0  0  0  0
   -2.0773    0.3692    2.7439 H   0  0  0  0  0  0  0  0  0  0  0  0
   -3.7994    0.3012    2.4135 H   0  0  0  0  0  0  0  0  0  0  0  0
   -2.6690   -0.9853    1.7436 H   0  0  0  0  0  0  0  0  0  0  0  0
   -1.3132   -1.5405   -1.0788 H   0  0  0  0  0  0  0  0  0  0  0  0
    2.3675    0.2383    1.4485 H   0  0  0  0  0  0  0  0  0  0  0  0
    0.1023    0.6850    1.7982 H   0  0  0  0  0  0  0  0  0  0  0  0
    3.0285   -0.5577   -1.4128 H   0  0  0  0  0  0  0  0  0  0  0  0
    6.0432    0.8933   -1.5798 H   0  0  0  0  0  0  0  0  0  0  0  0
    4.9432    1.2656    1.2194 H   0  0  0  0  0  0  0  0  0  0  0  0
    4.9754   -2.3934   -0.7308 H   0  0  0  0  0  0  0  0  0  0  0  0
    6.7744   -1.9981    0.5639 H   0  0  0  0  0  0  0  0  0  0  0  0
   -7.7273    0.4199    1.0269 H   0  0  0  0  0  0  0  0  0  0  0  0
   -6.1851    2.2200    1.3062 H   0  0  0  0  0  0  0  0  0  0  0  0
   -3.7135   -1.1533   -0.0107 H   0  0  0  0  0  0  0  0  0  0  0  0
    3.0711   -2.1845    1.9314 H   0  0  0  0  0  0  0  0  0  0  0  0
   -4.9948    0.0423    0.8652 H   0  0  0  0  0  0  0  0  0  0  0  0
   -3.6195    2.4611   -0.3477 H   0  0  0  0  0  0  0  0  0  0  0  0
   -1.6973    1.7238    0.9363 H   0  0  0  0  0  0  0  0  0  0  0  0
   -1.9745    1.0066   -1.2777 H   0  0  0  0  0  0  0  0  0  0  0  0
   -5.2945   -0.0608   -1.7586 H   0  0  0  0  0  0  0  0  0  0  0  0
    1.7118   -0.4497    3.0394 H   0  0  0  0  0  0  0  0  0  0  0  0
   -0.2807   -1.0948    1.9624 H   0  0  0  0  0  0  0  0  0  0  0  0
    0.7102    0.2765   -0.6099 H   0  0  0  0  0  0  0  0  0  0  0  0
    0.8285   -1.8888   -1.4619 H   0  0  0  0  0  0  0  0  0  0  0  0
    2.7737   -2.6611   -0.3158 H   0  0  0  0  0  0  0  0  0  0  0  0
    6.9870    0.1726    1.2554 H   0  0  0  0  0  0  0  0  0  0  0  0
    6.4853    2.1390   -0.3658 H   0  0  0  0  0  0  0  0  0  0  0  0
    4.0941    1.6059   -0.2944 H   0  0  0  0  0  0  0  0  0  0  0  0
    4.4898   -0.9438    1.1237 H   0  0  0  0  0  0  0  0  0  0  0  0
    5.2386   -1.0075   -1.8464 H   0  0  0  0  0  0  0  0  0  0  0  0
    7.3622   -1.6807   -1.0757 H   0  0  0  0  0  0  0  0  0  0  0  0
    9.7083    2.1006    0.3019 H   0  0  0  0  0  0  0  0  0  0  0  0
    8.2476    1.9768    1.0801 H   0  0  0  0  0  0  0  0  0  0  0  0
    8.5194    0.4364   -1.3757 H   0  0  0  0  0  0  0  0  0  0  0  0
    9.2085   -0.1922    0.2050 H   0  0  0  0  0  0  0  0  0  0  0  0
   -8.2892    1.8818    0.2309 H   0  0  0  0  0  0  0  0  0  0  0  0
   -6.1316    2.5879   -0.4639 H   0  0  0  0  0  0  0  0  0  0  0  0
   -9.3897   -0.9836   -1.5596 H   0  0  0  0  0  0  0  0  0  0  0  0
   -9.3763   -0.3695    0.0103 H   0  0  0  0  0  0  0  0  0  0  0  0
   -7.5810    0.8278   -2.0117 H   0  0  0  0  0  0  0  0  0  0  0  0
   -7.2110   -0.6747   -1.0309 H   0  0  0  0  0  0  0  0  0  0  0  0
  3  4  1  0
  4  5  1  0
  1  6  1  0
  5  6  1  0
  1  7  1  0
  1  8  1  0
  3  8  1  0
  5  9  1  0
  6 10  1  0
  2 11  1  0
 11 12  1  0
 10 13  1  0
 12 13  1  0
 13 14  1  0
  2 15  1  0
 14 15  1  0
 15 16  1  0
 17 18  1  0
 18 19  1  0
 16 20  1  0
 19 20  1  0
 20 21  1  0
 17 22  1  0
 21 22  1  0
 17 24  1  0
 23 24  1  0
  3 26  1  0
 25 26  1  0
 25 28  1  0
 27 28  1  0
  4 29  1  0
  7 30  1  0
  7 31  1  0
  7 32  1  0
  8 33  1  0
  9 34  1  0
  9 35  1  0
  9 36  1  0
 10 37  1  0
 11 38  1  0
 12 39  1  0
 16 40  1  0
 18 41  1  0
 19 42  1  0
 21 43  1  0
 22 44  1  0
 25 45  1  0
 26 46  1  0
  1 47  1  0
  2 48  1  0
  3 49  1  0
  4 50  1  0
  5 51  1  0
  6 52  1  0
  8 53  1  0
 11 54  1  0
 12 55  1  0
 13 56  1  0
 14 57  1  0
 15 58  1  6
 17 59  1  0
 18 60  1  0
 19 61  1  0
 20 62  1  0
 21 63  1  0
 22 64  1  0
 23 65  1  0
 23 66  1  0
 24 67  1  0
 24 68  1  0
 25 69  1  0
 26 70  1  0
 27 71  1  0
 27 72  1  0
 28 73  1  0
 28 74  1  0
M  END
>  <PDBID>  (1) 
4G1Q

>  <PDB ID>  (1) 
4G1Q

>  <Generic Name>  (1) 
Rilpivirine

>  <Brand Name>  (1) 
Complera#Edurant#Odefsey

>  <DrugBank ID>  (1) 
DB08864

>  <ATC Codes>  (1) 
nan

>  <Ligand ID>  (1) 
T27

>  <Target Name>  (1) 
Reverse transcriptase/RNaseH

>  <UniProt ID>  (1) 
Q72547

>  <PDB ID.1>  (1) 
4G1Q

>  <Seq. Identity>  (1) 
95%

$$$$
