PDB_DB00127_05
     RDKit          3D

 80 78  0  0  0  0  0  0  0  0999 V2000
    6.0666   -0.5538    0.1232 N   0  0  0  0  0  0  0  0  0  0  0  0
    5.0409   -0.1129   -0.7675 C   0  0  0  0  0  0  0  0  0  0  0  0
    4.2076    0.9530   -0.1131 C   0  0  0  0  0  0  0  0  0  0  0  0
    3.5718    0.4019    1.1213 C   0  0  0  0  0  0  0  0  0  0  0  0
    2.7523   -0.7071    0.7639 N   0  0  0  0  0  0  0  0  0  0  0  0
    1.5816   -0.3892   -0.0104 C   0  0  0  0  0  0  0  0  0  0  0  0
    0.5384    0.3779    0.7345 C   0  0  0  0  0  0  0  0  0  0  0  0
   -0.6081    0.6563   -0.2035 C   0  0  0  0  0  0  0  0  0  0  0  0
   -1.2313   -0.5825   -0.7419 C   0  0  0  0  0  0  0  0  0  0  0  0
   -2.3329   -0.2288   -1.6333 N   0  0  0  0  0  0  0  0  0  0  0  0
   -3.4561    0.3505   -0.9666 C   0  0  0  0  0  0  0  0  0  0  0  0
   -4.2145   -0.5823   -0.0686 C   0  0  0  0  0  0  0  0  0  0  0  0
   -5.3623    0.2165    0.5325 C   0  0  0  0  0  0  0  0  0  0  0  0
   -6.0982   -0.6823    1.4013 N   0  0  0  0  0  0  0  0  0  0  0  0
    6.0666   -0.5538    0.1232 N   0  0  0  0  0  0  0  0  0  0  0  0
    5.0409   -0.1129   -0.7675 C   0  0  0  0  0  0  0  0  0  0  0  0
    4.2076    0.9530   -0.1131 C   0  0  0  0  0  0  0  0  0  0  0  0
    3.5718    0.4019    1.1213 C   0  0  0  0  0  0  0  0  0  0  0  0
    2.7523   -0.7071    0.7639 N   0  0  0  0  0  0  0  0  0  0  0  0
    1.5816   -0.3892   -0.0104 C   0  0  0  0  0  0  0  0  0  0  0  0
    0.5384    0.3779    0.7345 C   0  0  0  0  0  0  0  0  0  0  0  0
   -0.6081    0.6563   -0.2035 C   0  0  0  0  0  0  0  0  0  0  0  0
   -1.2313   -0.5825   -0.7419 C   0  0  0  0  0  0  0  0  0  0  0  0
   -2.3329   -0.2288   -1.6333 N   0  0  0  0  0  0  0  0  0  0  0  0
   -3.4561    0.3505   -0.9666 C   0  0  0  0  0  0  0  0  0  0  0  0
   -4.2145   -0.5823   -0.0686 C   0  0  0  0  0  0  0  0  0  0  0  0
   -5.3623    0.2165    0.5325 C   0  0  0  0  0  0  0  0  0  0  0  0
   -6.0982   -0.6823    1.4013 N   0  0  0  0  0  0  0  0  0  0  0  0
    6.1677   -0.0544    1.0061 H   0  0  0  0  0  0  0  0  0  0  0  0
    6.2862   -1.5519    0.1037 H   0  0  0  0  0  0  0  0  0  0  0  0
    5.4794    0.2992   -1.7036 H   0  0  0  0  0  0  0  0  0  0  0  0
    4.3762   -0.9374   -1.0955 H   0  0  0  0  0  0  0  0  0  0  0  0
    4.9027    1.8002    0.1089 H   0  0  0  0  0  0  0  0  0  0  0  0
    3.4036    1.3297   -0.7790 H   0  0  0  0  0  0  0  0  0  0  0  0
    4.3397    0.0808    1.8536 H   0  0  0  0  0  0  0  0  0  0  0  0
    3.0175    1.2209    1.6243 H   0  0  0  0  0  0  0  0  0  0  0  0
    3.2355   -1.5548    0.4705 H   0  0  0  0  0  0  0  0  0  0  0  0
    1.1193   -1.3836   -0.2969 H   0  0  0  0  0  0  0  0  0  0  0  0
    1.7765    0.1193   -0.9634 H   0  0  0  0  0  0  0  0  0  0  0  0
    0.9345    1.3562    1.0681 H   0  0  0  0  0  0  0  0  0  0  0  0
    0.1150   -0.2084    1.5929 H   0  0  0  0  0  0  0  0  0  0  0  0
   -1.3244    1.3162    0.3306 H   0  0  0  0  0  0  0  0  0  0  0  0
   -0.2581    1.2863   -1.0742 H   0  0  0  0  0  0  0  0  0  0  0  0
   -0.4959   -1.1051   -1.4207 H   0  0  0  0  0  0  0  0  0  0  0  0
   -1.5742   -1.2878    0.0133 H   0  0  0  0  0  0  0  0  0  0  0  0
   -1.9219    0.5476   -2.2370 H   0  0  0  0  0  0  0  0  0  0  0  0
   -3.2062    1.2857   -0.4222 H   0  0  0  0  0  0  0  0  0  0  0  0
   -4.1706    0.6623   -1.7714 H   0  0  0  0  0  0  0  0  0  0  0  0
   -3.6185   -0.9726    0.7789 H   0  0  0  0  0  0  0  0  0  0  0  0
   -4.5816   -1.4520   -0.6430 H   0  0  0  0  0  0  0  0  0  0  0  0
   -5.0298    1.1348    1.0080 H   0  0  0  0  0  0  0  0  0  0  0  0
   -6.0870    0.5273   -0.2770 H   0  0  0  0  0  0  0  0  0  0  0  0
   -6.4925   -1.4371    0.7687 H   0  0  0  0  0  0  0  0  0  0  0  0
   -6.8488   -0.1389    1.8599 H   0  0  0  0  0  0  0  0  0  0  0  0
    6.1677   -0.0544    1.0061 H   0  0  0  0  0  0  0  0  0  0  0  0
    6.2862   -1.5519    0.1037 H   0  0  0  0  0  0  0  0  0  0  0  0
    5.4794    0.2992   -1.7036 H   0  0  0  0  0  0  0  0  0  0  0  0
    4.3762   -0.9374   -1.0955 H   0  0  0  0  0  0  0  0  0  0  0  0
    4.9027    1.8002    0.1089 H   0  0  0  0  0  0  0  0  0  0  0  0
    3.4036    1.3297   -0.7790 H   0  0  0  0  0  0  0  0  0  0  0  0
    4.3397    0.0808    1.8536 H   0  0  0  0  0  0  0  0  0  0  0  0
    3.0175    1.2209    1.6243 H   0  0  0  0  0  0  0  0  0  0  0  0
    3.2355   -1.5548    0.4705 H   0  0  0  0  0  0  0  0  0  0  0  0
    1.1193   -1.3836   -0.2969 H   0  0  0  0  0  0  0  0  0  0  0  0
    1.7765    0.1193   -0.9634 H   0  0  0  0  0  0  0  0  0  0  0  0
    0.9345    1.3562    1.0681 H   0  0  0  0  0  0  0  0  0  0  0  0
    0.1150   -0.2084    1.5929 H   0  0  0  0  0  0  0  0  0  0  0  0
   -1.3244    1.3162    0.3306 H   0  0  0  0  0  0  0  0  0  0  0  0
   -0.2581    1.2863   -1.0742 H   0  0  0  0  0  0  0  0  0  0  0  0
   -0.4959   -1.1051   -1.4207 H   0  0  0  0  0  0  0  0  0  0  0  0
   -1.5742   -1.2878    0.0133 H   0  0  0  0  0  0  0  0  0  0  0  0
   -1.9219    0.5476   -2.2370 H   0  0  0  0  0  0  0  0  0  0  0  0
   -3.2062    1.2857   -0.4222 H   0  0  0  0  0  0  0  0  0  0  0  0
   -4.1706    0.6623   -1.7714 H   0  0  0  0  0  0  0  0  0  0  0  0
   -3.6185   -0.9726    0.7789 H   0  0  0  0  0  0  0  0  0  0  0  0
   -4.5816   -1.4520   -0.6430 H   0  0  0  0  0  0  0  0  0  0  0  0
   -5.0298    1.1348    1.0080 H   0  0  0  0  0  0  0  0  0  0  0  0
   -6.0870    0.5273   -0.2770 H   0  0  0  0  0  0  0  0  0  0  0  0
   -6.4925   -1.4371    0.7687 H   0  0  0  0  0  0  0  0  0  0  0  0
   -6.8488   -0.1389    1.8599 H   0  0  0  0  0  0  0  0  0  0  0  0
  1  2  1  0
  2  3  1  0
  3  4  1  0
  4  5  1  0
  5  6  1  0
  6  7  1  0
  7  8  1  0
  8  9  1  0
  9 10  1  0
 10 11  1  0
 11 12  1  0
 12 13  1  0
 13 14  1  0
 15 16  1  0
 16 17  1  0
 17 18  1  0
 18 19  1  0
 19 20  1  0
 20 21  1  0
 21 22  1  0
 22 23  1  0
 23 24  1  0
 24 25  1  0
 25 26  1  0
 26 27  1  0
 27 28  1  0
  1 29  1  0
  1 30  1  0
  2 31  1  0
  2 32  1  0
  3 33  1  0
  3 34  1  0
  4 35  1  0
  4 36  1  0
  5 37  1  0
  6 38  1  0
  6 39  1  0
  7 40  1  0
  7 41  1  0
  8 42  1  0
  8 43  1  0
  9 44  1  0
  9 45  1  0
 10 46  1  0
 11 47  1  0
 11 48  1  0
 12 49  1  0
 12 50  1  0
 13 51  1  0
 13 52  1  0
 14 53  1  0
 14 54  1  0
 15 55  1  0
 15 56  1  0
 16 57  1  0
 16 58  1  0
 17 59  1  0
 17 60  1  0
 18 61  1  0
 18 62  1  0
 19 63  1  0
 20 64  1  0
 20 65  1  0
 21 66  1  0
 21 67  1  0
 22 68  1  0
 22 69  1  0
 23 70  1  0
 23 71  1  0
 24 72  1  0
 25 73  1  0
 25 74  1  0
 26 75  1  0
 26 76  1  0
 27 77  1  0
 27 78  1  0
 28 79  1  0
 28 80  1  0
M  END
>  <PDBID>  (1) 
3KU9

>  <PDB ID>  (1) 
3KU9

>  <Generic Name>  (1) 
Spermine

>  <Brand Name>  (1) 
nan

>  <DrugBank ID>  (1) 
DB00127

>  <ATC Codes>  (1) 
nan

>  <Ligand ID>  (1) 
SPM

>  <Target Name>  (1) 
Spermine oxidase

>  <UniProt ID>  (1) 
Q9NWM0

>  <PDB ID.1>  (1) 
3KU9

>  <Seq. Identity>  (1) 
31%

$$$$
