PDB_DB05990_01
     RDKit          3D

 76 79  0  0  0  0  0  0  0  0999 V2000
   -3.3280    0.1259   -1.9283 C   0  0  0  0  0  0  0  0  0  0  0  0
   -4.1989    1.2863   -2.4294 C   0  0  0  0  0  0  0  0  0  0  0  0
   -5.0147    1.8131   -1.2973 C   0  0  1  0  0  0  0  0  0  0  0  0
   -6.3713    1.6185   -1.6569 O   0  0  0  0  0  0  0  0  0  0  0  0
   -4.8318    0.9208   -0.0568 C   0  0  0  0  0  0  0  0  0  0  0  0
   -3.3791    0.9310    0.3842 C   0  0  1  0  0  0  0  0  0  0  0  0
   -3.2175    0.2373    1.6632 C   0  0  2  0  0  0  0  0  0  0  0  0
   -1.8740   -0.4125    1.9028 C   0  0  1  0  0  0  0  0  0  0  0  0
   -2.0794   -1.8127    1.9145 O   0  0  0  0  0  0  0  0  0  0  0  0
   -0.8251   -0.0775    0.9053 C   0  0  2  0  0  0  0  0  0  0  0  0
   -1.4249   -0.3783   -0.4820 C   0  0  1  0  0  0  0  0  0  0  0  0
   -2.4882    0.6110   -0.7570 C   0  0  1  0  0  0  0  0  0  0  0  0
   -0.3717   -0.4955   -1.5221 C   0  0  0  0  0  0  0  0  0  0  0  0
    0.9726    0.0666   -1.2060 C   0  0  0  0  0  0  0  0  0  0  0  0
    1.4810   -0.1444    0.1549 C   0  0  1  0  0  0  0  0  0  0  0  0
    0.3841   -0.8941    0.9428 C   0  0  1  0  0  0  0  0  0  0  0  0
    1.0774   -1.1682    2.2022 C   0  0  0  0  0  0  0  0  0  0  0  0
    2.5558   -1.3492    1.7989 C   0  0  0  0  0  0  0  0  0  0  0  0
    2.5271   -1.2189    0.3094 C   0  0  2  0  0  0  0  0  0  0  0  0
    1.7692    1.0957    0.9505 C   0  0  0  0  0  0  0  0  0  0  0  0
   -1.7827    1.8634   -1.3101 C   0  0  0  0  0  0  0  0  0  0  0  0
    3.7648   -1.0983   -0.4155 C   0  0  2  0  0  0  0  0  0  0  0  0
    4.6461   -2.3054   -0.0830 C   0  0  0  0  0  0  0  0  0  0  0  0
    4.5894    0.1171   -0.3109 C   0  0  0  0  0  0  0  0  0  0  0  0
    5.8501   -0.0239   -1.1812 C   0  0  0  0  0  0  0  0  0  0  0  0
    6.7014    1.2205   -1.0786 C   0  0  0  0  0  0  0  0  0  0  0  0
   -4.6152   -1.8709    1.2665 C   0  0  0  0  0  0  0  0  0  0  0  0
   -4.3114   -0.7025    2.1090 C   0  0  0  0  0  0  0  0  0  0  0  0
    7.8160    1.0146   -1.8900 O   0  0  0  0  0  0  0  0  0  0  0  0
    5.9894    2.3095   -1.5775 O   0  0  0  0  0  0  0  0  0  0  0  0
   -2.6792   -0.1239   -2.8181 H   0  0  0  0  0  0  0  0  0  0  0  0
   -3.9100   -0.7696   -1.7286 H   0  0  0  0  0  0  0  0  0  0  0  0
   -3.5651    2.0582   -2.8704 H   0  0  0  0  0  0  0  0  0  0  0  0
   -4.8069    0.8495   -3.2520 H   0  0  0  0  0  0  0  0  0  0  0  0
   -4.9257    2.8733   -1.0781 H   0  0  0  0  0  0  0  0  0  0  0  0
   -6.9695    2.0856   -1.0143 H   0  0  0  0  0  0  0  0  0  0  0  0
   -5.4453    1.4258    0.7393 H   0  0  0  0  0  0  0  0  0  0  0  0
   -5.2245   -0.0405   -0.3534 H   0  0  0  0  0  0  0  0  0  0  0  0
   -3.2224    2.0604    0.5479 H   0  0  0  0  0  0  0  0  0  0  0  0
   -3.2689    1.0310    2.4844 H   0  0  0  0  0  0  0  0  0  0  0  0
   -1.4509   -0.1980    2.9098 H   0  0  0  0  0  0  0  0  0  0  0  0
   -1.4242   -2.2971    1.3960 H   0  0  0  0  0  0  0  0  0  0  0  0
   -0.6425    1.0058    0.9222 H   0  0  0  0  0  0  0  0  0  0  0  0
   -1.9007   -1.3737   -0.3594 H   0  0  0  0  0  0  0  0  0  0  0  0
   -0.6716   -0.0374   -2.5124 H   0  0  0  0  0  0  0  0  0  0  0  0
   -0.2059   -1.5807   -1.8015 H   0  0  0  0  0  0  0  0  0  0  0  0
    1.6932   -0.3946   -1.9480 H   0  0  0  0  0  0  0  0  0  0  0  0
    1.0653    1.1680   -1.4472 H   0  0  0  0  0  0  0  0  0  0  0  0
    0.2853   -1.8660    0.3732 H   0  0  0  0  0  0  0  0  0  0  0  0
    0.9568   -0.4558    3.0168 H   0  0  0  0  0  0  0  0  0  0  0  0
    0.7061   -2.1568    2.6039 H   0  0  0  0  0  0  0  0  0  0  0  0
    3.0982   -0.5702    2.3318 H   0  0  0  0  0  0  0  0  0  0  0  0
    2.8864   -2.3664    2.1030 H   0  0  0  0  0  0  0  0  0  0  0  0
    2.0025   -2.1632   -0.0472 H   0  0  0  0  0  0  0  0  0  0  0  0
    2.8132    1.1709    1.3209 H   0  0  0  0  0  0  0  0  0  0  0  0
    1.1411    1.2109    1.8589 H   0  0  0  0  0  0  0  0  0  0  0  0
    1.6017    1.9729    0.2985 H   0  0  0  0  0  0  0  0  0  0  0  0
   -1.5792    1.7805   -2.3807 H   0  0  0  0  0  0  0  0  0  0  0  0
   -0.9547    2.1902   -0.6850 H   0  0  0  0  0  0  0  0  0  0  0  0
   -2.5553    2.6813   -1.2144 H   0  0  0  0  0  0  0  0  0  0  0  0
    3.5465   -1.2461   -1.5189 H   0  0  0  0  0  0  0  0  0  0  0  0
    5.3122   -2.0815    0.7755 H   0  0  0  0  0  0  0  0  0  0  0  0
    5.2317   -2.6379   -0.9599 H   0  0  0  0  0  0  0  0  0  0  0  0
    4.0103   -3.1729    0.2272 H   0  0  0  0  0  0  0  0  0  0  0  0
    4.1160    1.0494   -0.6690 H   0  0  0  0  0  0  0  0  0  0  0  0
    4.9748    0.3350    0.7068 H   0  0  0  0  0  0  0  0  0  0  0  0
    6.4408   -0.8865   -0.8163 H   0  0  0  0  0  0  0  0  0  0  0  0
    5.4893   -0.2058   -2.2036 H   0  0  0  0  0  0  0  0  0  0  0  0
    6.9721    1.4034   -0.0396 H   0  0  0  0  0  0  0  0  0  0  0  0
   -4.5492   -2.8491    1.8607 H   0  0  0  0  0  0  0  0  0  0  0  0
   -5.7225   -1.8765    1.0282 H   0  0  0  0  0  0  0  0  0  0  0  0
   -4.0892   -1.9738    0.3212 H   0  0  0  0  0  0  0  0  0  0  0  0
   -3.9533   -1.0921    3.1134 H   0  0  0  0  0  0  0  0  0  0  0  0
   -5.2332   -0.1400    2.3823 H   0  0  0  0  0  0  0  0  0  0  0  0
    8.3457    1.8268   -2.0148 H   0  0  0  0  0  0  0  0  0  0  0  0
    6.2502    3.0980   -1.0437 H   0  0  0  0  0  0  0  0  0  0  0  0
  1  2  1  0
  2  3  1  0
  3  4  1  0
  3  5  1  0
  5  6  1  0
  6  7  1  0
  7  8  1  0
  8  9  1  0
  8 10  1  0
 10 11  1  0
  1 12  1  0
  6 12  1  0
 11 12  1  0
 11 13  1  0
 13 14  1  0
 14 15  1  0
 10 16  1  0
 15 16  1  0
 16 17  1  0
 17 18  1  0
 15 19  1  0
 18 19  1  0
 15 20  1  1
 12 21  1  6
 19 22  1  0
 22 23  1  0
 22 24  1  0
 24 25  1  0
 25 26  1  0
  7 28  1  0
 27 28  1  0
 26 29  1  0
 26 30  1  0
  1 31  1  0
  1 32  1  0
  2 33  1  0
  2 34  1  0
  3 35  1  1
  4 36  1  0
  5 37  1  0
  5 38  1  0
  6 39  1  1
  7 40  1  1
  8 41  1  1
  9 42  1  0
 10 43  1  6
 11 44  1  1
 13 45  1  0
 13 46  1  0
 14 47  1  0
 14 48  1  0
 16 49  1  6
 17 50  1  0
 17 51  1  0
 18 52  1  0
 18 53  1  0
 19 54  1  6
 20 55  1  0
 20 56  1  0
 20 57  1  0
 21 58  1  0
 21 59  1  0
 21 60  1  0
 22 61  1  6
 23 62  1  0
 23 63  1  0
 23 64  1  0
 24 65  1  0
 24 66  1  0
 25 67  1  0
 25 68  1  0
 26 69  1  0
 27 70  1  0
 27 71  1  0
 27 72  1  0
 28 73  1  0
 28 74  1  0
 29 75  1  0
 30 76  1  0
M  END
>  <PDBID>  (1) 
1OT7

>  <PDB ID>  (1) 
1OT7

>  <Generic Name>  (1) 
Obeticholic acid

>  <Brand Name>  (1) 
Ocaliva

>  <DrugBank ID>  (1) 
DB05990

>  <ATC Codes>  (1) 
A05AA04

>  <Ligand ID>  (1) 
CHC

>  <Target Name>  (1) 
Bile acid receptor

>  <UniProt ID>  (1) 
Q96RI1

>  <PDB ID.1>  (1) 
1OT7

>  <Seq. Identity>  (1) 
95%

$$$$
