PDB_DB00907_05
     RDKit          3D

 53 55  0  0  0  0  0  0  0  0999 V2000
   -3.3635    2.4955   -1.1003 C   0  0  0  0  0  0  0  0  0  0  0  0
   -2.1080    2.0439   -1.3673 O   0  0  0  0  0  0  0  0  0  0  0  0
   -1.5319    1.4221   -0.3009 C   0  0  0  0  0  0  0  0  0  0  0  0
   -0.5034    2.1891    0.2759 O   0  0  0  0  0  0  0  0  0  0  0  0
   -1.0956   -0.0016   -0.5236 C   0  0  2  0  0  0  0  0  0  0  0  0
   -2.3724   -0.7879   -0.8592 C   0  0  2  0  0  0  0  0  0  0  0  0
   -3.2295   -0.6055    0.2981 N   0  0  0  0  0  0  0  0  0  0  0  0
   -4.5945   -0.9991    0.0312 C   0  0  0  0  0  0  0  0  0  0  0  0
   -2.0692   -2.2741   -0.8973 C   0  0  0  0  0  0  0  0  0  0  0  0
   -2.4495   -2.7560    0.4793 C   0  0  0  0  0  0  0  0  0  0  0  0
   -2.6173   -1.4874    1.2579 C   0  0  1  0  0  0  0  0  0  0  0  0
   -1.3327   -0.9167    1.7925 C   0  0  0  0  0  0  0  0  0  0  0  0
   -0.3925   -0.4948    0.6821 C   0  0  2  0  0  0  0  0  0  0  0  0
    0.5257    0.4580    1.0981 O   0  0  0  0  0  0  0  0  0  0  0  0
    1.8135    0.0193    1.1401 C   0  0  0  0  0  0  0  0  0  0  0  0
    2.1668   -0.0326    2.5227 O   0  0  0  0  0  0  0  0  0  0  0  0
    2.8032    0.9621    0.5277 C   0  0  0  0  0  0  0  0  0  0  0  0
    4.2258    0.3970    0.6415 C   0  0  0  0  0  0  0  0  0  0  0  0
    5.0921    0.8618   -0.4883 C   0  0  0  0  0  0  0  0  0  0  0  0
    4.6935    0.0973   -1.7563 C   0  0  0  0  0  0  0  0  0  0  0  0
    3.1710   -0.0007   -1.7425 C   0  0  0  0  0  0  0  0  0  0  0  0
    2.5834    1.1624   -0.9456 C   0  0  0  0  0  0  0  0  0  0  0  0
   -3.7314    2.9994   -2.0362 H   0  0  0  0  0  0  0  0  0  0  0  0
   -3.2661    3.2684   -0.2846 H   0  0  0  0  0  0  0  0  0  0  0  0
   -4.0742    1.7230   -0.7828 H   0  0  0  0  0  0  0  0  0  0  0  0
   -2.3110    1.3941    0.5236 H   0  0  0  0  0  0  0  0  0  0  0  0
   -0.8611    2.8785    0.8921 H   0  0  0  0  0  0  0  0  0  0  0  0
   -0.4142   -0.0806   -1.4181 H   0  0  0  0  0  0  0  0  0  0  0  0
   -2.7757   -0.3884   -1.7857 H   0  0  0  0  0  0  0  0  0  0  0  0
   -4.7079   -1.1512   -1.0683 H   0  0  0  0  0  0  0  0  0  0  0  0
   -5.2275   -0.1002    0.2910 H   0  0  0  0  0  0  0  0  0  0  0  0
   -4.9408   -1.8509    0.6168 H   0  0  0  0  0  0  0  0  0  0  0  0
   -0.9864   -2.4605   -1.0338 H   0  0  0  0  0  0  0  0  0  0  0  0
   -2.6587   -2.7682   -1.6976 H   0  0  0  0  0  0  0  0  0  0  0  0
   -3.4559   -3.2324    0.3979 H   0  0  0  0  0  0  0  0  0  0  0  0
   -1.7012   -3.4436    0.9142 H   0  0  0  0  0  0  0  0  0  0  0  0
   -3.3172   -1.5910    2.1211 H   0  0  0  0  0  0  0  0  0  0  0  0
   -0.8322   -1.6988    2.3899 H   0  0  0  0  0  0  0  0  0  0  0  0
   -1.5451   -0.0626    2.4539 H   0  0  0  0  0  0  0  0  0  0  0  0
    0.2367   -1.3977    0.4076 H   0  0  0  0  0  0  0  0  0  0  0  0
    1.9418   -1.0362    0.8106 H   0  0  0  0  0  0  0  0  0  0  0  0
    1.8335    0.8338    2.8937 H   0  0  0  0  0  0  0  0  0  0  0  0
    2.8384    1.9300    1.0631 H   0  0  0  0  0  0  0  0  0  0  0  0
    4.1009   -0.7090    0.5236 H   0  0  0  0  0  0  0  0  0  0  0  0
    4.6520    0.5618    1.6414 H   0  0  0  0  0  0  0  0  0  0  0  0
    6.1405    0.5651   -0.2287 H   0  0  0  0  0  0  0  0  0  0  0  0
    5.0939    1.9477   -0.6487 H   0  0  0  0  0  0  0  0  0  0  0  0
    5.0932   -0.9315   -1.7186 H   0  0  0  0  0  0  0  0  0  0  0  0
    5.0702    0.6190   -2.6521 H   0  0  0  0  0  0  0  0  0  0  0  0
    2.8341    0.1043   -2.7772 H   0  0  0  0  0  0  0  0  0  0  0  0
    2.8716   -0.9565   -1.2844 H   0  0  0  0  0  0  0  0  0  0  0  0
    3.1536    2.0668   -1.2622 H   0  0  0  0  0  0  0  0  0  0  0  0
    1.5305    1.2155   -1.1856 H   0  0  0  0  0  0  0  0  0  0  0  0
  1  2  1  0
  2  3  1  0
  3  4  1  0
  3  5  1  0
  5  6  1  0
  6  7  1  0
  7  8  1  0
  6  9  1  0
  9 10  1  0
  7 11  1  0
 10 11  1  0
 11 12  1  0
  5 13  1  0
 12 13  1  0
 13 14  1  0
 14 15  1  0
 15 16  1  0
 15 17  1  0
 17 18  1  0
 18 19  1  0
 19 20  1  0
 20 21  1  0
 17 22  1  0
 21 22  1  0
  1 23  1  0
  1 24  1  0
  1 25  1  0
  3 26  1  0
  4 27  1  0
  5 28  1  6
  6 29  1  6
  8 30  1  0
  8 31  1  0
  8 32  1  0
  9 33  1  0
  9 34  1  0
 10 35  1  0
 10 36  1  0
 11 37  1  1
 12 38  1  0
 12 39  1  0
 13 40  1  6
 15 41  1  0
 16 42  1  0
 17 43  1  0
 18 44  1  0
 18 45  1  0
 19 46  1  0
 19 47  1  0
 20 48  1  0
 20 49  1  0
 21 50  1  0
 21 51  1  0
 22 52  1  0
 22 53  1  0
M  END
>  <PDBID>  (1) 
4XP4

>  <PDB ID>  (1) 
4XP4

>  <Generic Name>  (1) 
Cocaine

>  <Brand Name>  (1) 
Cocaine Hydrochloride#Cocaine Hydrochloride Top Sol 40mg/ml#Cocaine Hydrochloride Topical Sol 10%#PMS-cocaine Hydrochloride  Topical Sol 4%#PMS-cocaine Hydrochloride Topical Sol 10%

>  <DrugBank ID>  (1) 
DB00907

>  <ATC Codes>  (1) 
S01HA01#N01BC01#R02AD03#S02DA02

>  <Ligand ID>  (1) 
COC

>  <Target Name>  (1) 
Sodium-dependent noradrenaline transporter

>  <UniProt ID>  (1) 
P23975

>  <PDB ID.1>  (1) 
4XP4

>  <Seq. Identity>  (1) 
58%

$$$$
