PDB_DB01011_09
     RDKit          3D

 45 46  0  0  0  0  0  0  0  0999 V2000
    4.0903   -1.1547    0.3640 N   0  0  0  0  0  0  0  0  0  0  0  0
    2.7119   -1.4807    0.0788 C   0  0  0  0  0  0  0  0  0  0  0  0
    1.8208   -0.2241    0.2831 C   0  0  0  0  0  0  0  0  0  0  0  0
    2.0579    0.5729   -0.9428 C   0  0  0  0  0  0  0  0  0  0  0  0
    3.5236    0.4965   -1.3544 C   0  0  0  0  0  0  0  0  0  0  0  0
    4.4411    0.1252   -0.2174 C   0  0  0  0  0  0  0  0  0  0  0  0
    0.4996   -0.8036    0.5412 C   0  0  0  0  0  0  0  0  0  0  0  0
    0.6773   -1.6284    1.6994 O   0  0  0  0  0  0  0  0  0  0  0  0
   -0.5132    1.0079    1.8979 C   0  0  0  0  0  0  0  0  0  0  0  0
   -0.7021    0.0639    0.7310 C   0  0  0  0  0  0  0  0  0  0  0  0
   -1.7246   -0.9484    1.3277 C   0  0  0  0  0  0  0  0  0  0  0  0
   -1.2286    0.6923   -0.4910 C   0  0  0  0  0  0  0  0  0  0  0  0
   -1.6756   -0.2047   -1.5920 C   0  0  0  0  0  0  0  0  0  0  0  0
   -2.9564   -0.7545   -1.5065 N   0  0  0  0  0  0  0  0  0  0  0  0
   -3.9696   -0.1261   -0.7853 C   0  0  0  0  0  0  0  0  0  0  0  0
   -3.7018    1.1789   -0.1643 C   0  0  0  0  0  0  0  0  0  0  0  0
   -2.3263    1.7110   -0.2730 C   0  0  0  0  0  0  0  0  0  0  0  0
    4.7079   -1.9206    0.0657 H   0  0  0  0  0  0  0  0  0  0  0  0
    2.6202   -1.7361   -0.9911 H   0  0  0  0  0  0  0  0  0  0  0  0
    2.3430   -2.3358    0.6583 H   0  0  0  0  0  0  0  0  0  0  0  0
    2.2812    0.2606    1.1794 H   0  0  0  0  0  0  0  0  0  0  0  0
    1.4288    0.1968   -1.7779 H   0  0  0  0  0  0  0  0  0  0  0  0
    1.8663    1.6601   -0.8522 H   0  0  0  0  0  0  0  0  0  0  0  0
    3.8979    1.4555   -1.7652 H   0  0  0  0  0  0  0  0  0  0  0  0
    3.6035   -0.2419   -2.1782 H   0  0  0  0  0  0  0  0  0  0  0  0
    5.4535    0.0173   -0.6570 H   0  0  0  0  0  0  0  0  0  0  0  0
    4.4727    0.9001    0.5458 H   0  0  0  0  0  0  0  0  0  0  0  0
    0.2758   -1.5522   -0.2596 H   0  0  0  0  0  0  0  0  0  0  0  0
    1.2819   -1.1819    2.3325 H   0  0  0  0  0  0  0  0  0  0  0  0
    0.1075    0.4624    2.6488 H   0  0  0  0  0  0  0  0  0  0  0  0
   -0.0501    1.9582    1.6281 H   0  0  0  0  0  0  0  0  0  0  0  0
   -1.4757    1.2337    2.4135 H   0  0  0  0  0  0  0  0  0  0  0  0
   -1.2111   -1.5038    2.1673 H   0  0  0  0  0  0  0  0  0  0  0  0
   -2.5980   -0.4939    1.7431 H   0  0  0  0  0  0  0  0  0  0  0  0
   -1.9961   -1.7210    0.5995 H   0  0  0  0  0  0  0  0  0  0  0  0
   -0.4127    1.3243   -0.9208 H   0  0  0  0  0  0  0  0  0  0  0  0
   -1.6667    0.4085   -2.5525 H   0  0  0  0  0  0  0  0  0  0  0  0
   -0.8801   -0.9548   -1.7887 H   0  0  0  0  0  0  0  0  0  0  0  0
   -3.0565   -1.7667   -1.5420 H   0  0  0  0  0  0  0  0  0  0  0  0
   -4.3072   -0.8281    0.0385 H   0  0  0  0  0  0  0  0  0  0  0  0
   -4.8882   -0.0968   -1.4501 H   0  0  0  0  0  0  0  0  0  0  0  0
   -4.0041    1.2320    0.9263 H   0  0  0  0  0  0  0  0  0  0  0  0
   -4.4282    1.9237   -0.6241 H   0  0  0  0  0  0  0  0  0  0  0  0
   -2.3153    2.3485   -1.2104 H   0  0  0  0  0  0  0  0  0  0  0  0
   -2.0744    2.4285    0.5356 H   0  0  0  0  0  0  0  0  0  0  0  0
  1  2  1  0
  2  3  1  0
  3  4  1  0
  4  5  1  0
  1  6  1  0
  5  6  1  0
  3  7  1  0
  7  8  1  0
 10  7  1  0
  9 10  1  0
 10 11  1  0
 10 12  1  0
 12 13  1  0
 13 14  1  0
 14 15  1  0
 15 16  1  0
 12 17  1  0
 16 17  1  0
  1 18  1  0
  2 19  1  0
  2 20  1  0
  3 21  1  0
  4 22  1  0
  4 23  1  0
  5 24  1  0
  5 25  1  0
  6 26  1  0
  6 27  1  0
  7 28  1  0
  8 29  1  0
  9 30  1  0
  9 31  1  0
  9 32  1  0
 11 33  1  0
 11 34  1  0
 11 35  1  0
 12 36  1  0
 13 37  1  0
 13 38  1  0
 14 39  1  0
 15 40  1  0
 15 41  1  0
 16 42  1  0
 16 43  1  0
 17 44  1  0
 17 45  1  0
M  END
>  <PDBID>  (1) 
1W0G

>  <PDB ID>  (1) 
1W0G

>  <Generic Name>  (1) 
Metyrapone

>  <Brand Name>  (1) 
Metopirone#Metopiron

>  <DrugBank ID>  (1) 
DB01011

>  <ATC Codes>  (1) 
V04CD01

>  <Ligand ID>  (1) 
MYT

>  <Target Name>  (1) 
Cytochrome P450 11B1, mitochondrial

>  <UniProt ID>  (1) 
P15538

>  <PDB ID.1>  (1) 
1W0G

>  <Seq. Identity>  (1) 
32%

$$$$
