PDB_DB05015_02
     RDKit          3D

108110  0  0  0  0  0  0  0  0999 V2000
    3.7553    3.1464   -0.7461 O   0  0  0  0  0  0  0  0  0  0  0  0
    3.8920    2.1134   -1.6634 C   0  0  0  0  0  0  0  0  0  0  0  0
    5.2584    1.7341   -1.9134 N   0  0  0  0  0  0  0  0  0  0  0  0
    5.9586    1.3595   -0.8470 O   0  0  0  0  0  0  0  0  0  0  0  0
    2.9621    0.9633   -1.4112 C   0  0  0  0  0  0  0  0  0  0  0  0
    3.2118    0.3943   -0.0594 C   0  0  0  0  0  0  0  0  0  0  0  0
    2.2867   -0.7738    0.2604 C   0  0  0  0  0  0  0  0  0  0  0  0
    0.8849   -0.2986    0.2123 C   0  0  0  0  0  0  0  0  0  0  0  0
    2.7397   -1.4000    1.5398 C   0  0  0  0  0  0  0  0  0  0  0  0
    1.7738   -2.4017    2.1073 C   0  0  0  0  0  0  0  0  0  0  0  0
    0.3595   -2.1854    1.6213 C   0  0  0  0  0  0  0  0  0  0  0  0
    0.1583   -0.6949    1.4817 C   0  0  2  0  0  0  0  0  0  0  0  0
   -1.3758   -0.0980    1.4879 S   0  0  0  0  0  0  0  0  0  0  0  0
   -1.8869   -0.6200    3.3088 O   0  0  0  0  0  0  0  0  0  0  0  0
   -1.4546    1.4486    1.7850 O   0  0  0  0  0  0  0  0  0  0  0  0
   -2.5290   -0.7322    0.7480 N   0  0  0  0  0  0  0  0  0  0  0  0
   -3.6592    0.1551    0.4314 C   0  0  0  0  0  0  0  0  0  0  0  0
   -3.2376    1.2948   -0.4352 C   0  0  0  0  0  0  0  0  0  0  0  0
   -3.8222    1.2425   -1.8082 C   0  0  0  0  0  0  0  0  0  0  0  0
   -3.7382   -0.1358   -2.4318 C   0  0  0  0  0  0  0  0  0  0  0  0
   -4.2993   -1.1942   -1.5073 C   0  0  0  0  0  0  0  0  0  0  0  0
   -4.7833   -0.5846   -0.2072 C   0  0  0  0  0  0  0  0  0  0  0  0
    3.6684    3.1878   -0.6863 O   0  0  0  0  0  0  0  0  0  0  0  0
    3.8156    2.1828   -1.6469 C   0  0  0  0  0  0  0  0  0  0  0  0
    5.1773    1.8406   -1.9301 N   0  0  0  0  0  0  0  0  0  0  0  0
    5.9070    1.4400   -0.8948 O   0  0  0  0  0  0  0  0  0  0  0  0
    2.9042    1.0128   -1.4128 C   0  0  0  0  0  0  0  0  0  0  0  0
    3.1847    0.4115   -0.0791 C   0  0  0  0  0  0  0  0  0  0  0  0
    2.2896   -0.7757    0.2307 C   0  0  0  0  0  0  0  0  0  0  0  0
    0.8774   -0.3320    0.2217 C   0  0  0  0  0  0  0  0  0  0  0  0
    2.7776   -1.4128    1.4937 C   0  0  0  0  0  0  0  0  0  0  0  0
    1.8495   -2.4554    2.0478 C   0  0  0  0  0  0  0  0  0  0  0  0
    0.4129   -2.2421    1.6271 C   0  0  0  0  0  0  0  0  0  0  0  0
    0.2001   -0.7506    1.5104 C   0  0  2  0  0  0  0  0  0  0  0  0
   -1.3428   -0.1660    1.5753 S   0  0  0  0  0  0  0  0  0  0  0  0
   -1.7973   -0.7164    3.3902 O   0  0  0  0  0  0  0  0  0  0  0  0
   -1.4182    1.3801    1.8880 O   0  0  0  0  0  0  0  0  0  0  0  0
   -2.5107   -0.7839    0.8462 N   0  0  0  0  0  0  0  0  0  0  0  0
   -3.5883    0.1336    0.4396 C   0  0  0  0  0  0  0  0  0  0  0  0
   -3.0880    1.1930   -0.4811 C   0  0  0  0  0  0  0  0  0  0  0  0
   -3.8737    1.2858   -1.7537 C   0  0  0  0  0  0  0  0  0  0  0  0
   -3.9420   -0.0418   -2.4812 C   0  0  0  0  0  0  0  0  0  0  0  0
   -4.3032   -1.1627   -1.5257 C   0  0  0  0  0  0  0  0  0  0  0  0
   -4.7304   -0.5970   -0.1797 C   0  0  0  0  0  0  0  0  0  0  0  0
    4.2750    3.0282    0.0685 H   0  0  0  0  0  0  0  0  0  0  0  0
    3.5482    2.5775   -2.6532 H   0  0  0  0  0  0  0  0  0  0  0  0
    5.7345    2.3948   -2.5387 H   0  0  0  0  0  0  0  0  0  0  0  0
    6.5630    0.5891   -1.0185 H   0  0  0  0  0  0  0  0  0  0  0  0
    1.9037    1.3210   -1.4605 H   0  0  0  0  0  0  0  0  0  0  0  0
    3.1257    0.1496   -2.1533 H   0  0  0  0  0  0  0  0  0  0  0  0
    3.0876    1.2170    0.6878 H   0  0  0  0  0  0  0  0  0  0  0  0
    4.2781    0.0822    0.0352 H   0  0  0  0  0  0  0  0  0  0  0  0
    2.4497   -1.5203   -0.5692 H   0  0  0  0  0  0  0  0  0  0  0  0
    0.7767    0.8067    0.1378 H   0  0  0  0  0  0  0  0  0  0  0  0
    0.3311   -0.7549   -0.6379 H   0  0  0  0  0  0  0  0  0  0  0  0
    2.9873   -0.6102    2.2813 H   0  0  0  0  0  0  0  0  0  0  0  0
    3.6890   -1.9409    1.3366 H   0  0  0  0  0  0  0  0  0  0  0  0
    1.7561   -2.2579    3.2080 H   0  0  0  0  0  0  0  0  0  0  0  0
    2.0893   -3.4512    1.9352 H   0  0  0  0  0  0  0  0  0  0  0  0
   -0.3873   -2.7020    2.2184 H   0  0  0  0  0  0  0  0  0  0  0  0
    0.3155   -2.6189    0.5850 H   0  0  0  0  0  0  0  0  0  0  0  0
    0.7791   -0.2223    2.3024 H   0  0  0  0  0  0  0  0  0  0  0  0
   -1.8463   -1.5621    3.0348 H   0  0  0  0  0  0  0  0  0  0  0  0
   -0.6731    1.9614    1.5331 H   0  0  0  0  0  0  0  0  0  0  0  0
   -2.9798   -1.6068    1.1214 H   0  0  0  0  0  0  0  0  0  0  0  0
   -3.9963    0.5281    1.4350 H   0  0  0  0  0  0  0  0  0  0  0  0
   -3.6136    2.2397    0.0404 H   0  0  0  0  0  0  0  0  0  0  0  0
   -2.1278    1.4185   -0.4503 H   0  0  0  0  0  0  0  0  0  0  0  0
   -3.2177    1.9251   -2.4661 H   0  0  0  0  0  0  0  0  0  0  0  0
   -4.8561    1.6357   -1.8537 H   0  0  0  0  0  0  0  0  0  0  0  0
   -2.7096   -0.3701   -2.7641 H   0  0  0  0  0  0  0  0  0  0  0  0
   -4.3776   -0.1100   -3.3365 H   0  0  0  0  0  0  0  0  0  0  0  0
   -3.4633   -1.8844   -1.2532 H   0  0  0  0  0  0  0  0  0  0  0  0
   -5.0830   -1.8090   -1.9904 H   0  0  0  0  0  0  0  0  0  0  0  0
   -5.2507   -1.3401    0.4358 H   0  0  0  0  0  0  0  0  0  0  0  0
   -5.5623    0.1539   -0.4780 H   0  0  0  0  0  0  0  0  0  0  0  0
    4.1924    3.0220    0.1302 H   0  0  0  0  0  0  0  0  0  0  0  0
    3.4414    2.6849   -2.6061 H   0  0  0  0  0  0  0  0  0  0  0  0
    5.6350    2.5641   -2.5326 H   0  0  0  0  0  0  0  0  0  0  0  0
    6.5483    0.7330   -1.1113 H   0  0  0  0  0  0  0  0  0  0  0  0
    1.8407    1.3486   -1.4403 H   0  0  0  0  0  0  0  0  0  0  0  0
    3.0785    0.2296   -2.1837 H   0  0  0  0  0  0  0  0  0  0  0  0
    3.0646    1.2167    0.6854 H   0  0  0  0  0  0  0  0  0  0  0  0
    4.2645    0.1162   -0.0102 H   0  0  0  0  0  0  0  0  0  0  0  0
    2.4551   -1.5028   -0.6173 H   0  0  0  0  0  0  0  0  0  0  0  0
    0.7289    0.7654    0.1448 H   0  0  0  0  0  0  0  0  0  0  0  0
    0.3078   -0.8116   -0.6113 H   0  0  0  0  0  0  0  0  0  0  0  0
    3.0065   -0.6359    2.2561 H   0  0  0  0  0  0  0  0  0  0  0  0
    3.7425   -1.9152    1.2679 H   0  0  0  0  0  0  0  0  0  0  0  0
    1.8733   -2.3648    3.1547 H   0  0  0  0  0  0  0  0  0  0  0  0
    2.1819   -3.4874    1.8120 H   0  0  0  0  0  0  0  0  0  0  0  0
   -0.3024   -2.7615    2.2581 H   0  0  0  0  0  0  0  0  0  0  0  0
    0.3295   -2.6792    0.5900 H   0  0  0  0  0  0  0  0  0  0  0  0
    0.8429   -0.2838    2.3166 H   0  0  0  0  0  0  0  0  0  0  0  0
   -1.7780   -1.6587    3.1063 H   0  0  0  0  0  0  0  0  0  0  0  0
   -0.7025    1.9060    1.4862 H   0  0  0  0  0  0  0  0  0  0  0  0
   -2.9904   -1.6410    1.1997 H   0  0  0  0  0  0  0  0  0  0  0  0
   -3.9367    0.5817    1.4084 H   0  0  0  0  0  0  0  0  0  0  0  0
   -3.1830    2.1767    0.0310 H   0  0  0  0  0  0  0  0  0  0  0  0
   -1.9842    1.0938   -0.6813 H   0  0  0  0  0  0  0  0  0  0  0  0
   -3.3305    1.9892   -2.4325 H   0  0  0  0  0  0  0  0  0  0  0  0
   -4.8788    1.7197   -1.6113 H   0  0  0  0  0  0  0  0  0  0  0  0
   -3.0121   -0.2547   -3.0466 H   0  0  0  0  0  0  0  0  0  0  0  0
   -4.7624    0.0324   -3.2200 H   0  0  0  0  0  0  0  0  0  0  0  0
   -3.3791   -1.7478   -1.3467 H   0  0  0  0  0  0  0  0  0  0  0  0
   -5.0605   -1.8437   -1.9375 H   0  0  0  0  0  0  0  0  0  0  0  0
   -5.1783   -1.3679    0.4647 H   0  0  0  0  0  0  0  0  0  0  0  0
   -5.5249    0.1448   -0.3961 H   0  0  0  0  0  0  0  0  0  0  0  0
  1  2  1  0
  2  3  1  0
  3  4  1  0
  2  5  1  0
  5  6  1  0
  6  7  1  0
  7  8  1  0
  7  9  1  0
  9 10  1  0
 10 11  1  0
  8 12  1  0
 11 12  1  0
 12 13  1  0
 13 14  1  0
 13 15  1  0
 13 16  1  0
 16 17  1  0
 17 18  1  0
 18 19  1  0
 19 20  1  0
 20 21  1  0
 17 22  1  0
 21 22  1  0
 24 23  1  0
 24 25  1  0
 26 25  1  0
 24 27  1  0
 27 28  1  0
 28 29  1  0
 29 30  1  0
 29 31  1  0
 31 32  1  0
 32 33  1  0
 30 34  1  0
 33 34  1  0
 34 35  1  0
 35 36  1  0
 35 37  1  0
 35 38  1  0
 38 39  1  0
 39 40  1  0
 40 41  1  0
 41 42  1  0
 42 43  1  0
 39 44  1  0
 43 44  1  0
  1 45  1  0
  2 46  1  0
  3 47  1  0
  4 48  1  0
  5 49  1  0
  5 50  1  0
  6 51  1  0
  6 52  1  0
  7 53  1  0
  8 54  1  0
  8 55  1  0
  9 56  1  0
  9 57  1  0
 10 58  1  0
 10 59  1  0
 11 60  1  0
 11 61  1  0
 12 62  1  1
 14 63  1  0
 15 64  1  0
 16 65  1  0
 17 66  1  0
 18 67  1  0
 18 68  1  0
 19 69  1  0
 19 70  1  0
 20 71  1  0
 20 72  1  0
 21 73  1  0
 21 74  1  0
 22 75  1  0
 22 76  1  0
 23 77  1  0
 24 78  1  0
 25 79  1  0
 26 80  1  0
 27 81  1  0
 27 82  1  0
 28 83  1  0
 28 84  1  0
 29 85  1  0
 30 86  1  0
 30 87  1  0
 31 88  1  0
 31 89  1  0
 32 90  1  0
 32 91  1  0
 33 92  1  0
 33 93  1  0
 34 94  1  1
 36 95  1  0
 37 96  1  0
 38 97  1  0
 39 98  1  0
 40 99  1  0
 40100  1  0
 41101  1  0
 41102  1  0
 42103  1  0
 42104  1  0
 43105  1  0
 43106  1  0
 44107  1  0
 44108  1  0
M  END
>  <PDBID>  (1) 
5EEN

>  <PDB ID>  (1) 
5EEN

>  <Generic Name>  (1) 
Belinostat

>  <Brand Name>  (1) 
Beleodaq

>  <DrugBank ID>  (1) 
DB05015

>  <ATC Codes>  (1) 
L01XX49

>  <Ligand ID>  (1) 
5OG

>  <Target Name>  (1) 
Histone deacetylase 9

>  <UniProt ID>  (1) 
Q9UKV0

>  <PDB ID.1>  (1) 
5EEN

>  <Seq. Identity>  (1) 
46%

$$$$
