PDB_DB01137_00
     RDKit          3D

116122  0  0  0  0  0  0  0  0999 V2000
    4.6992    1.7156   -0.2774 C   0  0  0  0  0  0  0  0  0  0  0  0
   -0.5643    2.0516   -0.1286 F   0  0  0  0  0  0  0  0  0  0  0  0
   -5.2461   -0.3246   -0.0100 N   0  0  0  0  0  0  0  0  0  0  0  0
    3.9540    2.8060   -0.6693 O   0  0  0  0  0  0  0  0  0  0  0  0
   -3.1536   -1.3373    0.7712 C   0  0  0  0  0  0  0  0  0  0  0  0
   -2.5520   -0.0509    0.8151 N   0  0  0  0  0  0  0  0  0  0  0  0
   -0.5198   -1.8410   -0.4116 O   0  0  0  0  0  0  0  0  0  0  0  0
   -3.1946    0.9177   -0.0012 C   0  0  0  0  0  0  0  0  0  0  0  0
    2.0264   -0.8570   -0.7415 N   0  0  0  0  0  0  0  0  0  0  0  0
    3.3874    1.9304    1.9498 O   0  0  0  0  0  0  0  0  0  0  0  0
    1.3953   -1.4986   -1.8525 C   0  0  2  0  0  0  0  0  0  0  0  0
    5.5690    1.3247   -1.3023 O   0  0  0  0  0  0  0  0  0  0  0  0
   -1.1769    0.0520    0.9077 C   0  0  0  0  0  0  0  0  0  0  0  0
    1.1341   -0.3839    0.2677 C   0  0  0  0  0  0  0  0  0  0  0  0
   -0.3137   -0.4774   -0.1902 C   0  0  0  0  0  0  0  0  0  0  0  0
   -4.6608   -1.2661    0.8886 C   0  0  0  0  0  0  0  0  0  0  0  0
   -4.6942    0.9794    0.1649 C   0  0  0  0  0  0  0  0  0  0  0  0
    0.1716   -2.2787   -1.5139 C   0  0  0  0  0  0  0  0  0  0  0  0
    1.5447    0.9734    0.7081 C   0  0  0  0  0  0  0  0  0  0  0  0
   -0.7808    1.4903    1.1395 C   0  0  0  0  0  0  0  0  0  0  0  0
    3.0182    0.0839   -1.1552 C   0  0  0  0  0  0  0  0  0  0  0  0
    0.6081    1.4424    1.8064 C   0  0  0  0  0  0  0  0  0  0  0  0
    2.4305   -2.4448   -2.4687 C   0  0  0  0  0  0  0  0  0  0  0  0
    2.9744    0.8342    1.2458 C   0  0  0  0  0  0  0  0  0  0  0  0
   -5.2894   -0.7295   -1.3803 C   0  0  0  0  0  0  0  0  0  0  0  0
    3.8350    0.5149    0.0434 C   0  0  0  0  0  0  0  0  0  0  0  0
   -2.9432   -1.7720   -0.2438 H   0  0  0  0  0  0  0  0  0  0  0  0
   -2.7759   -2.0367    1.5023 H   0  0  0  0  0  0  0  0  0  0  0  0
   -2.7978    1.9262    0.2127 H   0  0  0  0  0  0  0  0  0  0  0  0
   -2.9926    0.6692   -1.0737 H   0  0  0  0  0  0  0  0  0  0  0  0
    1.1699   -0.7629   -2.6788 H   0  0  0  0  0  0  0  0  0  0  0  0
   -5.1173   -2.2644    0.7085 H   0  0  0  0  0  0  0  0  0  0  0  0
   -4.9798   -0.9760    1.9241 H   0  0  0  0  0  0  0  0  0  0  0  0
   -4.9937    1.4240    1.1341 H   0  0  0  0  0  0  0  0  0  0  0  0
   -5.0847    1.6363   -0.6440 H   0  0  0  0  0  0  0  0  0  0  0  0
    0.4804   -3.3533   -1.3645 H   0  0  0  0  0  0  0  0  0  0  0  0
   -0.4721   -2.3056   -2.4356 H   0  0  0  0  0  0  0  0  0  0  0  0
    2.6269    0.9418   -1.7274 H   0  0  0  0  0  0  0  0  0  0  0  0
    0.8133    2.4859    2.1150 H   0  0  0  0  0  0  0  0  0  0  0  0
    3.0994   -1.8788   -3.1810 H   0  0  0  0  0  0  0  0  0  0  0  0
    3.1032   -2.7930   -1.6495 H   0  0  0  0  0  0  0  0  0  0  0  0
    1.9605   -3.3001   -2.9689 H   0  0  0  0  0  0  0  0  0  0  0  0
   -5.7859    0.1096   -1.9453 H   0  0  0  0  0  0  0  0  0  0  0  0
   -5.9464   -1.6164   -1.5342 H   0  0  0  0  0  0  0  0  0  0  0  0
   -4.3040   -0.8755   -1.8531 H   0  0  0  0  0  0  0  0  0  0  0  0
    4.6992    1.7156   -0.2774 C   0  0  0  0  0  0  0  0  0  0  0  0
   -0.5643    2.0516   -0.1286 F   0  0  0  0  0  0  0  0  0  0  0  0
   -5.2461   -0.3246   -0.0100 N   0  0  0  0  0  0  0  0  0  0  0  0
    3.9540    2.8060   -0.6693 O   0  0  0  0  0  0  0  0  0  0  0  0
   -3.1536   -1.3373    0.7712 C   0  0  0  0  0  0  0  0  0  0  0  0
   -2.5520   -0.0509    0.8151 N   0  0  0  0  0  0  0  0  0  0  0  0
   -0.5198   -1.8410   -0.4116 O   0  0  0  0  0  0  0  0  0  0  0  0
   -3.1946    0.9177   -0.0012 C   0  0  0  0  0  0  0  0  0  0  0  0
    2.0264   -0.8570   -0.7415 N   0  0  0  0  0  0  0  0  0  0  0  0
    3.3874    1.9304    1.9498 O   0  0  0  0  0  0  0  0  0  0  0  0
    1.3953   -1.4986   -1.8525 C   0  0  2  0  0  0  0  0  0  0  0  0
    5.5690    1.3247   -1.3023 O   0  0  0  0  0  0  0  0  0  0  0  0
   -1.1769    0.0520    0.9077 C   0  0  0  0  0  0  0  0  0  0  0  0
    1.1341   -0.3839    0.2677 C   0  0  0  0  0  0  0  0  0  0  0  0
   -0.3137   -0.4774   -0.1902 C   0  0  0  0  0  0  0  0  0  0  0  0
   -4.6608   -1.2661    0.8886 C   0  0  0  0  0  0  0  0  0  0  0  0
   -4.6942    0.9794    0.1649 C   0  0  0  0  0  0  0  0  0  0  0  0
    0.1716   -2.2787   -1.5139 C   0  0  0  0  0  0  0  0  0  0  0  0
    1.5447    0.9734    0.7081 C   0  0  0  0  0  0  0  0  0  0  0  0
   -0.7808    1.4903    1.1395 C   0  0  0  0  0  0  0  0  0  0  0  0
    3.0182    0.0839   -1.1552 C   0  0  0  0  0  0  0  0  0  0  0  0
    0.6081    1.4424    1.8064 C   0  0  0  0  0  0  0  0  0  0  0  0
    2.4305   -2.4448   -2.4687 C   0  0  0  0  0  0  0  0  0  0  0  0
    2.9744    0.8342    1.2458 C   0  0  0  0  0  0  0  0  0  0  0  0
   -5.2894   -0.7295   -1.3803 C   0  0  0  0  0  0  0  0  0  0  0  0
    3.8350    0.5149    0.0434 C   0  0  0  0  0  0  0  0  0  0  0  0
   -2.9432   -1.7720   -0.2438 H   0  0  0  0  0  0  0  0  0  0  0  0
   -2.7759   -2.0367    1.5023 H   0  0  0  0  0  0  0  0  0  0  0  0
   -2.7978    1.9262    0.2127 H   0  0  0  0  0  0  0  0  0  0  0  0
   -2.9926    0.6692   -1.0737 H   0  0  0  0  0  0  0  0  0  0  0  0
    1.1699   -0.7629   -2.6788 H   0  0  0  0  0  0  0  0  0  0  0  0
   -5.1173   -2.2644    0.7085 H   0  0  0  0  0  0  0  0  0  0  0  0
   -4.9798   -0.9760    1.9241 H   0  0  0  0  0  0  0  0  0  0  0  0
   -4.9937    1.4240    1.1341 H   0  0  0  0  0  0  0  0  0  0  0  0
   -5.0847    1.6363   -0.6440 H   0  0  0  0  0  0  0  0  0  0  0  0
    0.4804   -3.3533   -1.3645 H   0  0  0  0  0  0  0  0  0  0  0  0
   -0.4721   -2.3056   -2.4356 H   0  0  0  0  0  0  0  0  0  0  0  0
    2.6269    0.9418   -1.7274 H   0  0  0  0  0  0  0  0  0  0  0  0
    0.8133    2.4859    2.1150 H   0  0  0  0  0  0  0  0  0  0  0  0
    3.0994   -1.8788   -3.1810 H   0  0  0  0  0  0  0  0  0  0  0  0
    3.1032   -2.7930   -1.6495 H   0  0  0  0  0  0  0  0  0  0  0  0
    1.9605   -3.3001   -2.9689 H   0  0  0  0  0  0  0  0  0  0  0  0
   -5.7859    0.1096   -1.9453 H   0  0  0  0  0  0  0  0  0  0  0  0
   -5.9464   -1.6164   -1.5342 H   0  0  0  0  0  0  0  0  0  0  0  0
   -4.3040   -0.8755   -1.8531 H   0  0  0  0  0  0  0  0  0  0  0  0
    5.3043    2.0114    0.5835 H   0  0  0  0  0  0  0  0  0  0  0  0
    4.3909    3.6767   -0.4536 H   0  0  0  0  0  0  0  0  0  0  0  0
    2.8256    2.7166    1.8929 H   0  0  0  0  0  0  0  0  0  0  0  0
    6.0638    0.5165   -1.0770 H   0  0  0  0  0  0  0  0  0  0  0  0
   -0.8362   -0.4893    1.8462 H   0  0  0  0  0  0  0  0  0  0  0  0
    1.2321   -1.0720    1.1452 H   0  0  0  0  0  0  0  0  0  0  0  0
   -0.4568    0.0796   -1.1229 H   0  0  0  0  0  0  0  0  0  0  0  0
    1.5262    1.7381   -0.0766 H   0  0  0  0  0  0  0  0  0  0  0  0
   -1.4818    2.0673    1.7405 H   0  0  0  0  0  0  0  0  0  0  0  0
    3.7122   -0.4498   -1.8510 H   0  0  0  0  0  0  0  0  0  0  0  0
    0.5320    0.7305    2.6333 H   0  0  0  0  0  0  0  0  0  0  0  0
    2.9824   -0.0844    1.8943 H   0  0  0  0  0  0  0  0  0  0  0  0
    4.5434   -0.3264    0.2590 H   0  0  0  0  0  0  0  0  0  0  0  0
    5.3043    2.0114    0.5835 H   0  0  0  0  0  0  0  0  0  0  0  0
    4.3909    3.6767   -0.4536 H   0  0  0  0  0  0  0  0  0  0  0  0
    2.8256    2.7166    1.8929 H   0  0  0  0  0  0  0  0  0  0  0  0
    6.0638    0.5165   -1.0770 H   0  0  0  0  0  0  0  0  0  0  0  0
   -0.8362   -0.4893    1.8462 H   0  0  0  0  0  0  0  0  0  0  0  0
    1.2321   -1.0720    1.1452 H   0  0  0  0  0  0  0  0  0  0  0  0
   -0.4568    0.0796   -1.1229 H   0  0  0  0  0  0  0  0  0  0  0  0
    1.5262    1.7381   -0.0766 H   0  0  0  0  0  0  0  0  0  0  0  0
   -1.4818    2.0673    1.7405 H   0  0  0  0  0  0  0  0  0  0  0  0
    3.7122   -0.4498   -1.8510 H   0  0  0  0  0  0  0  0  0  0  0  0
    0.5320    0.7305    2.6333 H   0  0  0  0  0  0  0  0  0  0  0  0
    2.9824   -0.0844    1.8943 H   0  0  0  0  0  0  0  0  0  0  0  0
    4.5434   -0.3264    0.2590 H   0  0  0  0  0  0  0  0  0  0  0  0
  1  4  1  0
  5  6  1  0
  6  8  1  0
  9 11  1  0
  1 12  1  0
  6 13  1  0
  9 14  1  0
  7 15  1  0
 13 15  1  0
 14 15  1  0
  3 16  1  0
  5 16  1  0
  3 17  1  0
  8 17  1  0
  7 18  1  0
 11 18  1  0
 14 19  1  0
  2 20  1  0
 13 20  1  0
  9 21  1  0
 19 22  1  0
 20 22  1  0
 11 23  1  0
 19 24  1  0
 24 10  1  0
  3 25  1  0
  1 26  1  0
 21 26  1  0
 24 26  1  0
  5 27  1  0
  5 28  1  0
  8 29  1  0
  8 30  1  0
 11 31  1  6
 16 32  1  0
 16 33  1  0
 17 34  1  0
 17 35  1  0
 18 36  1  0
 18 37  1  0
 21 38  1  0
 22 39  1  0
 23 40  1  0
 23 41  1  0
 23 42  1  0
 25 43  1  0
 25 44  1  0
 25 45  1  0
 46 49  1  0
 50 51  1  0
 51 53  1  0
 54 56  1  0
 46 57  1  0
 51 58  1  0
 54 59  1  0
 52 60  1  0
 58 60  1  0
 59 60  1  0
 48 61  1  0
 50 61  1  0
 48 62  1  0
 53 62  1  0
 52 63  1  0
 56 63  1  0
 59 64  1  0
 47 65  1  0
 58 65  1  0
 54 66  1  0
 64 67  1  0
 65 67  1  0
 56 68  1  0
 64 69  1  0
 69 55  1  0
 48 70  1  0
 46 71  1  0
 66 71  1  0
 69 71  1  0
 50 72  1  0
 50 73  1  0
 53 74  1  0
 53 75  1  0
 56 76  1  6
 61 77  1  0
 61 78  1  0
 62 79  1  0
 62 80  1  0
 63 81  1  0
 63 82  1  0
 66 83  1  0
 67 84  1  0
 68 85  1  0
 68 86  1  0
 68 87  1  0
 70 88  1  0
 70 89  1  0
 70 90  1  0
  1 91  1  0
  4 92  1  0
 10 93  1  0
 12 94  1  0
 13 95  1  0
 14 96  1  0
 15 97  1  0
 19 98  1  0
 20 99  1  0
 21100  1  0
 22101  1  0
 24102  1  0
 26103  1  0
 46104  1  0
 49105  1  0
 55106  1  0
 57107  1  0
 58108  1  0
 59109  1  0
 60110  1  0
 64111  1  0
 65112  1  0
 66113  1  0
 67114  1  0
 69115  1  0
 71116  1  0
M  END
>  <PDBID>  (1) 
4Z2D

>  <PDB ID>  (1) 
4Z2D

>  <Generic Name>  (1) 
Levofloxacin

>  <Brand Name>  (1) 
Act Levofloxacin#Apo-levofloxacin#Auro-levofloxacin#Ava-levofloxacin#Dom-levofloxacin#Iquix#Levaquin#Levaquin 25mg/ml#Levaquin 500mg#Levaquin 5mg/ml#Levaquin 750mg#Levofloxacin#Levofloxacin In 5% Dextrose Injection#Levofloxacin Injection#Mylan-levofloxacin#Ntp-levofloxacin#PHL-levofloxacin#PMS-levofloxacin#Quinsair#Quixin#Sandoz Levofloxacin#Teva-levofloxacin#Cravit#Elequine#Floxel#Leroxacin#Levokacin#Levox#Levoxacin#Mosardal#Nofaxin#Reskuin#Tavanic

>  <DrugBank ID>  (1) 
DB01137

>  <ATC Codes>  (1) 
A02BD10#J01RA05#S01AE05#J01MA12

>  <Ligand ID>  (1) 
LFX

>  <Target Name>  (1) 
DNA gyrase subunit A

>  <UniProt ID>  (1) 
P43700

>  <PDB ID.1>  (1) 
4Z2D

>  <Seq. Identity>  (1) 
50%

$$$$
