PDB_DB00773_01
     RDKit          3D

176188  0  0  0  0  0  0  0  0999 V2000
   -0.4438   -3.8790    3.5717 C   0  0  0  0  0  0  0  0  0  0  0  0
    0.1698   -4.1145    2.3448 O   0  0  0  0  0  0  0  0  0  0  0  0
   -1.6927   -2.8932    2.0114 C   0  0  0  0  0  0  0  0  0  0  0  0
   -1.7623   -3.5565    3.2597 O   0  0  0  0  0  0  0  0  0  0  0  0
   -1.9511   -1.4526    2.2867 C   0  0  0  0  0  0  0  0  0  0  0  0
    0.0620   -0.6813   -3.2010 O   0  0  0  0  0  0  0  0  0  0  0  0
   -1.4501   -0.5391    1.1798 C   0  0  0  0  0  0  0  0  0  0  0  0
   -1.8438   -1.8429   -3.1771 O   0  0  0  0  0  0  0  0  0  0  0  0
   -1.9680   -0.8709   -0.1762 C   0  0  2  0  0  0  0  0  0  0  0  0
   -4.3094    3.3607   -0.0571 O   0  0  0  0  0  0  0  0  0  0  0  0
   -0.9097   -0.8631   -1.1848 C   0  0  1  0  0  0  0  0  0  0  0  0
   -5.2327    1.7649   -2.3084 O   0  0  0  0  0  0  0  0  0  0  0  0
   -1.2299   -0.7260   -2.6194 C   0  0  1  0  0  0  0  0  0  0  0  0
   -6.8592   -0.3751   -0.3567 O   0  0  0  0  0  0  0  0  0  0  0  0
    0.9233   -0.0979   -2.3047 C   0  0  0  0  0  0  0  0  0  0  0  0
    2.0018   -0.5744    0.0047 O   0  0  0  0  0  0  0  0  0  0  0  0
    0.0974    0.2733   -1.0668 C   0  0  2  0  0  0  0  0  0  0  0  0
    3.8368    0.3023   -0.9746 O   0  0  0  0  0  0  0  0  0  0  0  0
    0.8065    0.1221    0.2125 C   0  0  1  0  0  0  0  0  0  0  0  0
    6.9195    0.8109   -1.9841 O   0  0  0  0  0  0  0  0  0  0  0  0
    0.0529   -0.5797    1.3103 C   0  0  0  0  0  0  0  0  0  0  0  0
    6.9002    1.6970    0.1578 O   0  0  0  0  0  0  0  0  0  0  0  0
    0.6135   -1.9333    1.6234 C   0  0  0  0  0  0  0  0  0  0  0  0
    6.0410    0.1921    2.4833 O   0  0  0  0  0  0  0  0  0  0  0  0
   -0.3141   -3.0849    1.4960 C   0  0  0  0  0  0  0  0  0  0  0  0
    3.5008   -0.6985    2.4463 O   0  0  0  0  0  0  0  0  0  0  0  0
   -3.1874   -0.1078   -0.6001 C   0  0  0  0  0  0  0  0  0  0  0  0
   -3.0753    1.3674   -0.6284 C   0  0  0  0  0  0  0  0  0  0  0  0
   -4.3735    1.9842   -0.1230 C   0  0  0  0  0  0  0  0  0  0  0  0
   -5.4913    1.4639   -0.9585 C   0  0  0  0  0  0  0  0  0  0  0  0
   -5.6081   -0.0216   -0.8287 C   0  0  0  0  0  0  0  0  0  0  0  0
   -4.4840   -0.6124    0.0216 C   0  0  0  0  0  0  0  0  0  0  0  0
   -4.4232    3.8834    1.2077 C   0  0  0  0  0  0  0  0  0  0  0  0
   -7.5465   -1.2129   -1.2295 C   0  0  0  0  0  0  0  0  0  0  0  0
    3.1374    0.1929    0.2272 C   0  0  2  0  0  0  0  0  0  0  0  0
    4.8652    1.2053   -0.8725 C   0  0  2  0  0  0  0  0  0  0  0  0
    5.6378    1.2842   -2.1642 C   0  0  0  0  0  0  0  0  0  0  0  0
    7.6463    1.4566   -1.0199 C   0  0  2  0  0  0  0  0  0  0  0  0
    5.8955    0.7685    0.1796 C   0  0  2  0  0  0  0  0  0  0  0  0
    5.1817    0.6102    1.4745 C   0  0  1  0  0  0  0  0  0  0  0  0
    4.0770   -0.4278    1.2254 C   0  0  1  0  0  0  0  0  0  0  0  0
    8.3532    2.6851   -1.4990 C   0  0  0  0  0  0  0  0  0  0  0  0
   -0.4438   -3.8790    3.5717 C   0  0  0  0  0  0  0  0  0  0  0  0
    0.1698   -4.1145    2.3448 O   0  0  0  0  0  0  0  0  0  0  0  0
   -1.6927   -2.8932    2.0114 C   0  0  0  0  0  0  0  0  0  0  0  0
   -1.7623   -3.5565    3.2597 O   0  0  0  0  0  0  0  0  0  0  0  0
   -1.9511   -1.4526    2.2867 C   0  0  0  0  0  0  0  0  0  0  0  0
    0.0620   -0.6813   -3.2010 O   0  0  0  0  0  0  0  0  0  0  0  0
   -1.4501   -0.5391    1.1798 C   0  0  0  0  0  0  0  0  0  0  0  0
   -1.8438   -1.8429   -3.1771 O   0  0  0  0  0  0  0  0  0  0  0  0
   -1.9680   -0.8709   -0.1762 C   0  0  2  0  0  0  0  0  0  0  0  0
   -4.3094    3.3607   -0.0571 O   0  0  0  0  0  0  0  0  0  0  0  0
   -0.9097   -0.8631   -1.1848 C   0  0  1  0  0  0  0  0  0  0  0  0
   -5.2327    1.7649   -2.3084 O   0  0  0  0  0  0  0  0  0  0  0  0
   -1.2299   -0.7260   -2.6194 C   0  0  1  0  0  0  0  0  0  0  0  0
   -6.8592   -0.3751   -0.3567 O   0  0  0  0  0  0  0  0  0  0  0  0
    0.9233   -0.0979   -2.3047 C   0  0  0  0  0  0  0  0  0  0  0  0
    2.0018   -0.5744    0.0047 O   0  0  0  0  0  0  0  0  0  0  0  0
    0.0974    0.2733   -1.0668 C   0  0  2  0  0  0  0  0  0  0  0  0
    3.8368    0.3023   -0.9746 O   0  0  0  0  0  0  0  0  0  0  0  0
    0.8065    0.1221    0.2125 C   0  0  1  0  0  0  0  0  0  0  0  0
    6.9195    0.8109   -1.9841 O   0  0  0  0  0  0  0  0  0  0  0  0
    0.0529   -0.5797    1.3103 C   0  0  0  0  0  0  0  0  0  0  0  0
    6.9002    1.6970    0.1578 O   0  0  0  0  0  0  0  0  0  0  0  0
    0.6135   -1.9333    1.6234 C   0  0  0  0  0  0  0  0  0  0  0  0
    6.0410    0.1921    2.4833 O   0  0  0  0  0  0  0  0  0  0  0  0
   -0.3141   -3.0849    1.4960 C   0  0  0  0  0  0  0  0  0  0  0  0
    3.5008   -0.6985    2.4463 O   0  0  0  0  0  0  0  0  0  0  0  0
   -3.1874   -0.1078   -0.6001 C   0  0  0  0  0  0  0  0  0  0  0  0
   -3.0753    1.3674   -0.6284 C   0  0  0  0  0  0  0  0  0  0  0  0
   -4.3735    1.9842   -0.1230 C   0  0  0  0  0  0  0  0  0  0  0  0
   -5.4913    1.4639   -0.9585 C   0  0  0  0  0  0  0  0  0  0  0  0
   -5.6081   -0.0216   -0.8287 C   0  0  0  0  0  0  0  0  0  0  0  0
   -4.4840   -0.6124    0.0216 C   0  0  0  0  0  0  0  0  0  0  0  0
   -4.4232    3.8834    1.2077 C   0  0  0  0  0  0  0  0  0  0  0  0
   -7.5465   -1.2129   -1.2295 C   0  0  0  0  0  0  0  0  0  0  0  0
    3.1374    0.1929    0.2272 C   0  0  2  0  0  0  0  0  0  0  0  0
    4.8652    1.2053   -0.8725 C   0  0  2  0  0  0  0  0  0  0  0  0
    5.6378    1.2842   -2.1642 C   0  0  0  0  0  0  0  0  0  0  0  0
    7.6463    1.4566   -1.0199 C   0  0  2  0  0  0  0  0  0  0  0  0
    5.8955    0.7685    0.1796 C   0  0  2  0  0  0  0  0  0  0  0  0
    5.1817    0.6102    1.4745 C   0  0  1  0  0  0  0  0  0  0  0  0
    4.0770   -0.4278    1.2254 C   0  0  1  0  0  0  0  0  0  0  0  0
    8.3532    2.6851   -1.4990 C   0  0  0  0  0  0  0  0  0  0  0  0
    0.0238   -3.0893    4.1599 H   0  0  0  0  0  0  0  0  0  0  0  0
   -0.3741   -4.8265    4.1602 H   0  0  0  0  0  0  0  0  0  0  0  0
   -2.4777   -3.3774    1.3946 H   0  0  0  0  0  0  0  0  0  0  0  0
   -1.3238   -1.2000    3.1982 H   0  0  0  0  0  0  0  0  0  0  0  0
   -2.9773   -1.2295    2.6113 H   0  0  0  0  0  0  0  0  0  0  0  0
   -1.8209    0.4832    1.4989 H   0  0  0  0  0  0  0  0  0  0  0  0
   -2.5041   -1.5405   -3.8461 H   0  0  0  0  0  0  0  0  0  0  0  0
   -2.3282   -1.9474   -0.0935 H   0  0  0  0  0  0  0  0  0  0  0  0
   -0.2704   -1.7944   -1.1012 H   0  0  0  0  0  0  0  0  0  0  0  0
   -5.5136    2.6893   -2.5264 H   0  0  0  0  0  0  0  0  0  0  0  0
   -1.7007    0.2205   -2.9350 H   0  0  0  0  0  0  0  0  0  0  0  0
    1.5903   -0.9348   -1.9408 H   0  0  0  0  0  0  0  0  0  0  0  0
    1.4879    0.7556   -2.6796 H   0  0  0  0  0  0  0  0  0  0  0  0
   -0.3284    1.2535   -1.2765 H   0  0  0  0  0  0  0  0  0  0  0  0
    1.1391    1.1615    0.5165 H   0  0  0  0  0  0  0  0  0  0  0  0
    0.2517    0.0474    2.2391 H   0  0  0  0  0  0  0  0  0  0  0  0
    1.5027   -2.1768    0.9663 H   0  0  0  0  0  0  0  0  0  0  0  0
    1.0733   -1.9818    2.6572 H   0  0  0  0  0  0  0  0  0  0  0  0
    5.5625    0.2674    3.3503 H   0  0  0  0  0  0  0  0  0  0  0  0
   -0.2807   -3.5587    0.4838 H   0  0  0  0  0  0  0  0  0  0  0  0
    3.7829   -1.5551    2.8301 H   0  0  0  0  0  0  0  0  0  0  0  0
   -3.3370   -0.4209   -1.6857 H   0  0  0  0  0  0  0  0  0  0  0  0
   -2.2793    1.7983    0.0012 H   0  0  0  0  0  0  0  0  0  0  0  0
   -2.9371    1.7937   -1.6437 H   0  0  0  0  0  0  0  0  0  0  0  0
   -4.5077    1.6193    0.9165 H   0  0  0  0  0  0  0  0  0  0  0  0
   -6.4368    1.9966   -0.7155 H   0  0  0  0  0  0  0  0  0  0  0  0
   -5.4949   -0.5344   -1.8297 H   0  0  0  0  0  0  0  0  0  0  0  0
   -4.5378   -1.7088   -0.1379 H   0  0  0  0  0  0  0  0  0  0  0  0
   -4.5988   -0.4060    1.0706 H   0  0  0  0  0  0  0  0  0  0  0  0
   -5.4271    3.5555    1.6051 H   0  0  0  0  0  0  0  0  0  0  0  0
   -3.6395    3.6217    1.9071 H   0  0  0  0  0  0  0  0  0  0  0  0
   -4.4588    4.9880    1.1119 H   0  0  0  0  0  0  0  0  0  0  0  0
   -7.7158   -0.7580   -2.2218 H   0  0  0  0  0  0  0  0  0  0  0  0
   -8.5393   -1.4119   -0.7817 H   0  0  0  0  0  0  0  0  0  0  0  0
   -7.0253   -2.1813   -1.3648 H   0  0  0  0  0  0  0  0  0  0  0  0
    2.8167    1.2111    0.5264 H   0  0  0  0  0  0  0  0  0  0  0  0
    4.4971    2.2301   -0.6450 H   0  0  0  0  0  0  0  0  0  0  0  0
    5.7144    2.3169   -2.5536 H   0  0  0  0  0  0  0  0  0  0  0  0
    5.1504    0.6442   -2.9276 H   0  0  0  0  0  0  0  0  0  0  0  0
    8.4518    0.7365   -0.6856 H   0  0  0  0  0  0  0  0  0  0  0  0
    6.3002   -0.1985   -0.1676 H   0  0  0  0  0  0  0  0  0  0  0  0
    4.6467    1.5493    1.7346 H   0  0  0  0  0  0  0  0  0  0  0  0
    4.5398   -1.3104    0.7537 H   0  0  0  0  0  0  0  0  0  0  0  0
    7.7483    3.3098   -2.1846 H   0  0  0  0  0  0  0  0  0  0  0  0
    9.3101    2.3564   -2.0008 H   0  0  0  0  0  0  0  0  0  0  0  0
    8.6821    3.2571   -0.6061 H   0  0  0  0  0  0  0  0  0  0  0  0
    0.0238   -3.0893    4.1599 H   0  0  0  0  0  0  0  0  0  0  0  0
   -0.3741   -4.8265    4.1602 H   0  0  0  0  0  0  0  0  0  0  0  0
   -2.4777   -3.3774    1.3946 H   0  0  0  0  0  0  0  0  0  0  0  0
   -1.3238   -1.2000    3.1982 H   0  0  0  0  0  0  0  0  0  0  0  0
   -2.9773   -1.2295    2.6113 H   0  0  0  0  0  0  0  0  0  0  0  0
   -1.8209    0.4832    1.4989 H   0  0  0  0  0  0  0  0  0  0  0  0
   -2.5041   -1.5405   -3.8461 H   0  0  0  0  0  0  0  0  0  0  0  0
   -2.3282   -1.9474   -0.0935 H   0  0  0  0  0  0  0  0  0  0  0  0
   -0.2704   -1.7944   -1.1012 H   0  0  0  0  0  0  0  0  0  0  0  0
   -5.5136    2.6893   -2.5264 H   0  0  0  0  0  0  0  0  0  0  0  0
   -1.7007    0.2205   -2.9350 H   0  0  0  0  0  0  0  0  0  0  0  0
    1.5903   -0.9348   -1.9408 H   0  0  0  0  0  0  0  0  0  0  0  0
    1.4879    0.7556   -2.6796 H   0  0  0  0  0  0  0  0  0  0  0  0
   -0.3284    1.2535   -1.2765 H   0  0  0  0  0  0  0  0  0  0  0  0
    1.1391    1.1615    0.5165 H   0  0  0  0  0  0  0  0  0  0  0  0
    0.2517    0.0474    2.2391 H   0  0  0  0  0  0  0  0  0  0  0  0
    1.5027   -2.1768    0.9663 H   0  0  0  0  0  0  0  0  0  0  0  0
    1.0733   -1.9818    2.6572 H   0  0  0  0  0  0  0  0  0  0  0  0
    5.5625    0.2674    3.3503 H   0  0  0  0  0  0  0  0  0  0  0  0
   -0.2807   -3.5587    0.4838 H   0  0  0  0  0  0  0  0  0  0  0  0
    3.7829   -1.5551    2.8301 H   0  0  0  0  0  0  0  0  0  0  0  0
   -3.3370   -0.4209   -1.6857 H   0  0  0  0  0  0  0  0  0  0  0  0
   -2.2793    1.7983    0.0012 H   0  0  0  0  0  0  0  0  0  0  0  0
   -2.9371    1.7937   -1.6437 H   0  0  0  0  0  0  0  0  0  0  0  0
   -4.5077    1.6193    0.9165 H   0  0  0  0  0  0  0  0  0  0  0  0
   -6.4368    1.9966   -0.7155 H   0  0  0  0  0  0  0  0  0  0  0  0
   -5.4949   -0.5344   -1.8297 H   0  0  0  0  0  0  0  0  0  0  0  0
   -4.5378   -1.7088   -0.1379 H   0  0  0  0  0  0  0  0  0  0  0  0
   -4.5988   -0.4060    1.0706 H   0  0  0  0  0  0  0  0  0  0  0  0
   -5.4271    3.5555    1.6051 H   0  0  0  0  0  0  0  0  0  0  0  0
   -3.6395    3.6217    1.9071 H   0  0  0  0  0  0  0  0  0  0  0  0
   -4.4588    4.9880    1.1119 H   0  0  0  0  0  0  0  0  0  0  0  0
   -7.7158   -0.7580   -2.2218 H   0  0  0  0  0  0  0  0  0  0  0  0
   -8.5393   -1.4119   -0.7817 H   0  0  0  0  0  0  0  0  0  0  0  0
   -7.0253   -2.1813   -1.3648 H   0  0  0  0  0  0  0  0  0  0  0  0
    2.8167    1.2111    0.5264 H   0  0  0  0  0  0  0  0  0  0  0  0
    4.4971    2.2301   -0.6450 H   0  0  0  0  0  0  0  0  0  0  0  0
    5.7144    2.3169   -2.5536 H   0  0  0  0  0  0  0  0  0  0  0  0
    5.1504    0.6442   -2.9276 H   0  0  0  0  0  0  0  0  0  0  0  0
    8.4518    0.7365   -0.6856 H   0  0  0  0  0  0  0  0  0  0  0  0
    6.3002   -0.1985   -0.1676 H   0  0  0  0  0  0  0  0  0  0  0  0
    4.6467    1.5493    1.7346 H   0  0  0  0  0  0  0  0  0  0  0  0
    4.5398   -1.3104    0.7537 H   0  0  0  0  0  0  0  0  0  0  0  0
    7.7483    3.3098   -2.1846 H   0  0  0  0  0  0  0  0  0  0  0  0
    9.3101    2.3564   -2.0008 H   0  0  0  0  0  0  0  0  0  0  0  0
    8.6821    3.2571   -0.6061 H   0  0  0  0  0  0  0  0  0  0  0  0
  1  2  1  0
  1  4  1  0
  3  4  1  0
  3  5  1  0
  5  7  1  0
  7  9  1  0
  9 11  1  0
  6 13  1  0
  8 13  1  0
 11 13  1  0
  6 15  1  0
 11 17  1  0
 15 17  1  0
 16 19  1  0
 17 19  1  0
  7 21  1  0
 19 21  1  0
 21 23  1  0
  2 25  1  0
  3 25  1  0
 23 25  1  0
  9 27  1  0
 27 28  1  0
 10 29  1  0
 28 29  1  0
 12 30  1  0
 29 30  1  0
 14 31  1  0
 30 31  1  0
 27 32  1  0
 31 32  1  0
 10 33  1  0
 14 34  1  0
 16 35  1  0
 18 35  1  0
 18 36  1  0
 20 37  1  0
 36 37  1  0
 20 38  1  0
 22 38  1  0
 22 39  1  0
 36 39  1  0
 24 40  1  0
 39 40  1  0
 26 41  1  0
 35 41  1  0
 40 41  1  0
 38 42  1  0
 43 44  1  0
 43 46  1  0
 45 46  1  0
 45 47  1  0
 47 49  1  0
 49 51  1  0
 51 53  1  0
 48 55  1  0
 50 55  1  0
 53 55  1  0
 48 57  1  0
 53 59  1  0
 57 59  1  0
 58 61  1  0
 59 61  1  0
 49 63  1  0
 61 63  1  0
 63 65  1  0
 44 67  1  0
 45 67  1  0
 65 67  1  0
 51 69  1  0
 69 70  1  0
 52 71  1  0
 70 71  1  0
 54 72  1  0
 71 72  1  0
 56 73  1  0
 72 73  1  0
 69 74  1  0
 73 74  1  0
 52 75  1  0
 56 76  1  0
 58 77  1  0
 60 77  1  0
 60 78  1  0
 62 79  1  0
 78 79  1  0
 62 80  1  0
 64 80  1  0
 64 81  1  0
 78 81  1  0
 66 82  1  0
 81 82  1  0
 68 83  1  0
 77 83  1  0
 82 83  1  0
 80 84  1  0
  1 85  1  0
  1 86  1  0
  3 87  1  0
  5 88  1  0
  5 89  1  0
  7 90  1  0
  8 91  1  0
  9 92  1  1
 11 93  1  6
 12 94  1  0
 13 95  1  1
 15 96  1  0
 15 97  1  0
 17 98  1  6
 19 99  1  1
 21100  1  0
 23101  1  0
 23102  1  0
 24103  1  0
 25104  1  0
 26105  1  0
 27106  1  0
 28107  1  0
 28108  1  0
 29109  1  0
 30110  1  0
 31111  1  0
 32112  1  0
 32113  1  0
 33114  1  0
 33115  1  0
 33116  1  0
 34117  1  0
 34118  1  0
 34119  1  0
 35120  1  1
 36121  1  1
 37122  1  0
 37123  1  0
 38124  1  1
 39125  1  6
 40126  1  1
 41127  1  6
 42128  1  0
 42129  1  0
 42130  1  0
 43131  1  0
 43132  1  0
 45133  1  0
 47134  1  0
 47135  1  0
 49136  1  0
 50137  1  0
 51138  1  1
 53139  1  6
 54140  1  0
 55141  1  1
 57142  1  0
 57143  1  0
 59144  1  6
 61145  1  1
 63146  1  0
 65147  1  0
 65148  1  0
 66149  1  0
 67150  1  0
 68151  1  0
 69152  1  0
 70153  1  0
 70154  1  0
 71155  1  0
 72156  1  0
 73157  1  0
 74158  1  0
 74159  1  0
 75160  1  0
 75161  1  0
 75162  1  0
 76163  1  0
 76164  1  0
 76165  1  0
 77166  1  1
 78167  1  1
 79168  1  0
 79169  1  0
 80170  1  1
 81171  1  6
 82172  1  1
 83173  1  6
 84174  1  0
 84175  1  0
 84176  1  0
M  END
>  <PDBID>  (1) 
5GWK

>  <PDB ID>  (1) 
5GWK

>  <Generic Name>  (1) 
Etoposide

>  <Brand Name>  (1) 
Dom-etoposide#Eposin#Etopophos#Etoposide#Etoposide - Liq IV 20mg/ml#Etoposide Injection#Etoposide Injection USP#Etoposide Injection, USP#PMS-etoposide#Toposar#Vepesid#Vepesid Inj 20mg/ml#Etopofos#Lastet#Nexvep#Vepesid K#Vépéside

>  <DrugBank ID>  (1) 
DB00773

>  <ATC Codes>  (1) 
L01CB01

>  <Ligand ID>  (1) 
EVP

>  <Target Name>  (1) 
DNA topoisomerase 2-alpha

>  <UniProt ID>  (1) 
P11388

>  <PDB ID.1>  (1) 
5GWK

>  <Seq. Identity>  (1) 
96%

$$$$
