PDB_DB09079_03
     RDKit          3D

 99103  0  0  0  0  0  0  0  0999 V2000
   -2.9928    0.8008    1.2001 C   0  0  0  0  0  0  0  0  0  0  0  0
   -4.4135    0.9847    1.2234 C   0  0  0  0  0  0  0  0  0  0  0  0
   -2.1900    0.0783    0.1710 C   0  0  0  0  0  0  0  0  0  0  0  0
   -2.9630   -0.1581    2.4187 C   0  0  0  0  0  0  0  0  0  0  0  0
   -4.9950   -0.3881    1.2736 C   0  0  0  0  0  0  0  0  0  0  0  0
   -5.1446    2.0213    0.4842 C   0  0  0  0  0  0  0  0  0  0  0  0
   -2.1948    0.4879   -1.2172 C   0  0  0  0  0  0  0  0  0  0  0  0
   -6.3856   -0.2352    1.8752 C   0  0  0  0  0  0  0  0  0  0  0  0
   -6.3890    1.3650   -0.0836 C   0  0  0  0  0  0  0  0  0  0  0  0
    0.1886   -0.7442    0.4119 C   0  0  0  0  0  0  0  0  0  0  0  0
   -7.1484    0.8399    1.1447 C   0  0  1  0  0  0  0  0  0  0  0  0
   -1.6464    2.0408   -2.9831 C   0  0  0  0  0  0  0  0  0  0  0  0
   -3.1802    0.0802   -3.4763 C   0  0  0  0  0  0  0  0  0  0  0  0
    0.9357   -0.2388   -0.7659 C   0  0  0  0  0  0  0  0  0  0  0  0
   -8.4845    0.3737    0.6160 C   0  0  2  0  0  0  0  0  0  0  0  0
    2.0455   -1.2005   -1.2106 C   0  0  0  0  0  0  0  0  0  0  0  0
    2.6402   -0.6894    1.0736 C   0  0  0  0  0  0  0  0  0  0  0  0
   -8.2960   -0.6762   -0.2730 O   0  0  0  0  0  0  0  0  0  0  0  0
   -9.0185    1.4322   -0.1551 O   0  0  0  0  0  0  0  0  0  0  0  0
    2.8023   -1.7027    0.0020 C   0  0  0  0  0  0  0  0  0  0  0  0
    5.1212   -1.4770   -0.7810 C   0  0  1  0  0  0  0  0  0  0  0  0
    4.4516   -3.3778    0.4746 C   0  0  0  0  0  0  0  0  0  0  0  0
    5.7318   -0.4868    0.1585 C   0  0  0  0  0  0  0  0  0  0  0  0
    7.7192    0.1078   -1.1202 C   0  0  0  0  0  0  0  0  0  0  0  0
    6.9092    1.5352    0.5162 C   0  0  0  0  0  0  0  0  0  0  0  0
    8.7153   -0.5065   -0.1635 C   0  0  0  0  0  0  0  0  0  0  0  0
    7.9368    1.0063    1.4813 C   0  0  0  0  0  0  0  0  0  0  0  0
   10.1767    1.2579    0.6155 C   0  0  0  0  0  0  0  0  0  0  0  0
    6.1562   -2.1817   -1.4056 O   0  0  0  0  0  0  0  0  0  0  0  0
    6.5237    0.5403   -0.4928 N   0  0  0  0  0  0  0  0  0  0  0  0
    9.0731    0.3881    0.8849 N   0  0  0  0  0  0  0  0  0  0  0  0
    4.0611   -2.1942   -0.2650 N   0  0  0  0  0  0  0  0  0  0  0  0
    1.2061   -0.6817    1.5871 C   0  0  0  0  0  0  0  0  0  0  0  0
   -0.9167   -0.0532    0.7871 N   0  0  0  0  0  0  0  0  0  0  0  0
   -3.5299    0.4105   -1.9897 C   0  0  0  0  0  0  0  0  0  0  0  0
   -1.8653    0.7661   -3.7409 C   0  0  0  0  0  0  0  0  0  0  0  0
   -1.6550    1.8858   -1.4817 C   0  0  0  0  0  0  0  0  0  0  0  0
   -9.0894   -1.7724   -0.0129 C   0  0  0  0  0  0  0  0  0  0  0  0
   -4.0774   -1.0470    2.1879 N   0  0  0  0  0  0  0  0  0  0  0  0
   -1.7902   -0.7483    2.6618 O   0  0  0  0  0  0  0  0  0  0  0  0
   -2.4276    1.7099    1.5836 H   0  0  0  0  0  0  0  0  0  0  0  0
   -4.6214    1.3341    2.3364 H   0  0  0  0  0  0  0  0  0  0  0  0
   -2.6071   -0.9937    0.1744 H   0  0  0  0  0  0  0  0  0  0  0  0
   -3.2632    0.4476    3.3301 H   0  0  0  0  0  0  0  0  0  0  0  0
   -5.1356   -0.9224    0.3472 H   0  0  0  0  0  0  0  0  0  0  0  0
   -4.6468    2.5761   -0.2973 H   0  0  0  0  0  0  0  0  0  0  0  0
   -5.5841    2.8489    1.1457 H   0  0  0  0  0  0  0  0  0  0  0  0
   -1.5806   -0.2008   -1.7984 H   0  0  0  0  0  0  0  0  0  0  0  0
   -6.2740    0.0815    2.9287 H   0  0  0  0  0  0  0  0  0  0  0  0
   -6.9519   -1.1950    1.8343 H   0  0  0  0  0  0  0  0  0  0  0  0
   -7.0612    2.1555   -0.5010 H   0  0  0  0  0  0  0  0  0  0  0  0
   -6.1938    0.5841   -0.8057 H   0  0  0  0  0  0  0  0  0  0  0  0
    0.0572   -1.8816    0.3440 H   0  0  0  0  0  0  0  0  0  0  0  0
   -7.3225    1.7440    1.7676 H   0  0  0  0  0  0  0  0  0  0  0  0
   -0.6371    2.4079   -3.2767 H   0  0  0  0  0  0  0  0  0  0  0  0
   -2.3573    2.8118   -3.3267 H   0  0  0  0  0  0  0  0  0  0  0  0
   -4.0016    0.3849   -4.1188 H   0  0  0  0  0  0  0  0  0  0  0  0
   -3.0662   -1.0413   -3.5119 H   0  0  0  0  0  0  0  0  0  0  0  0
    1.4263    0.7343   -0.4144 H   0  0  0  0  0  0  0  0  0  0  0  0
    0.4502    0.0411   -1.6740 H   0  0  0  0  0  0  0  0  0  0  0  0
   -9.2265    0.1691    1.4014 H   0  0  0  0  0  0  0  0  0  0  0  0
    2.6534   -0.6509   -1.9309 H   0  0  0  0  0  0  0  0  0  0  0  0
    1.5310   -2.0203   -1.7449 H   0  0  0  0  0  0  0  0  0  0  0  0
    3.2465   -0.9847    1.9488 H   0  0  0  0  0  0  0  0  0  0  0  0
    2.9435    0.3491    0.8055 H   0  0  0  0  0  0  0  0  0  0  0  0
   -8.9039    2.2888    0.3255 H   0  0  0  0  0  0  0  0  0  0  0  0
    2.1626   -2.5959    0.3571 H   0  0  0  0  0  0  0  0  0  0  0  0
    4.6746   -0.7717   -1.6062 H   0  0  0  0  0  0  0  0  0  0  0  0
    5.4383   -3.7621    0.1693 H   0  0  0  0  0  0  0  0  0  0  0  0
    4.4674   -3.0594    1.5545 H   0  0  0  0  0  0  0  0  0  0  0  0
    3.6552   -4.1220    0.3471 H   0  0  0  0  0  0  0  0  0  0  0  0
    5.0951   -0.0126    0.8793 H   0  0  0  0  0  0  0  0  0  0  0  0
    6.5231   -1.0458    0.7949 H   0  0  0  0  0  0  0  0  0  0  0  0
    8.2334    1.0513   -1.4909 H   0  0  0  0  0  0  0  0  0  0  0  0
    7.6237   -0.5106   -2.0136 H   0  0  0  0  0  0  0  0  0  0  0  0
    7.3310    2.4109    0.0004 H   0  0  0  0  0  0  0  0  0  0  0  0
    6.0312    1.8700    1.1089 H   0  0  0  0  0  0  0  0  0  0  0  0
    8.4267   -1.5105    0.1765 H   0  0  0  0  0  0  0  0  0  0  0  0
    9.6510   -0.6728   -0.7735 H   0  0  0  0  0  0  0  0  0  0  0  0
    8.3114    1.9097    2.0435 H   0  0  0  0  0  0  0  0  0  0  0  0
    7.5057    0.3073    2.2411 H   0  0  0  0  0  0  0  0  0  0  0  0
    9.8735    2.2771    0.2758 H   0  0  0  0  0  0  0  0  0  0  0  0
   10.7751    0.8312   -0.2410 H   0  0  0  0  0  0  0  0  0  0  0  0
   10.9035    1.3112    1.4742 H   0  0  0  0  0  0  0  0  0  0  0  0
    5.9112   -2.4170   -2.3316 H   0  0  0  0  0  0  0  0  0  0  0  0
    1.0894    0.2688    2.1387 H   0  0  0  0  0  0  0  0  0  0  0  0
    1.0983   -1.5067    2.2812 H   0  0  0  0  0  0  0  0  0  0  0  0
   -0.6847    0.8009    1.3889 H   0  0  0  0  0  0  0  0  0  0  0  0
   -3.9886    1.4017   -2.1259 H   0  0  0  0  0  0  0  0  0  0  0  0
   -4.1821   -0.3622   -1.6033 H   0  0  0  0  0  0  0  0  0  0  0  0
   -0.9849    0.0896   -3.6807 H   0  0  0  0  0  0  0  0  0  0  0  0
   -1.9121    1.0745   -4.8230 H   0  0  0  0  0  0  0  0  0  0  0  0
   -2.3824    2.6438   -1.0950 H   0  0  0  0  0  0  0  0  0  0  0  0
   -0.6685    2.0615   -1.0651 H   0  0  0  0  0  0  0  0  0  0  0  0
  -10.1542   -1.4157   -0.0860 H   0  0  0  0  0  0  0  0  0  0  0  0
   -8.9022   -2.2692    0.9488 H   0  0  0  0  0  0  0  0  0  0  0  0
   -8.9695   -2.5063   -0.8255 H   0  0  0  0  0  0  0  0  0  0  0  0
   -4.6256   -1.2144    3.0893 H   0  0  0  0  0  0  0  0  0  0  0  0
   -1.8002   -1.1759    3.5524 H   0  0  0  0  0  0  0  0  0  0  0  0
  1  2  1  0
  1  3  1  0
  1  4  1  0
  2  5  1  0
  2  6  1  0
  3  7  1  0
  5  8  1  0
  6  9  1  0
  8 11  1  0
  9 11  1  0
 10 14  1  0
 11 15  1  0
 14 16  1  0
 15 18  1  0
 15 19  1  0
 16 20  1  0
 17 20  1  0
 21 23  1  0
 24 26  1  0
 25 27  1  0
 21 29  1  0
 23 30  1  0
 24 30  1  0
 25 30  1  0
 26 31  1  0
 27 31  1  0
 28 31  1  0
 20 32  1  0
 21 32  1  0
 22 32  1  0
 10 33  1  0
 17 33  1  0
  3 34  1  0
 10 34  1  0
  7 35  1  0
 13 35  1  0
 12 36  1  0
 13 36  1  0
  7 37  1  0
 12 37  1  0
 18 38  1  0
  4 39  1  0
  5 39  1  0
  4 40  1  0
  1 41  1  0
  2 42  1  0
  3 43  1  0
  4 44  1  0
  5 45  1  0
  6 46  1  0
  6 47  1  0
  7 48  1  0
  8 49  1  0
  8 50  1  0
  9 51  1  0
  9 52  1  0
 10 53  1  0
 11 54  1  1
 12 55  1  0
 12 56  1  0
 13 57  1  0
 13 58  1  0
 14 59  1  0
 14 60  1  0
 15 61  1  1
 16 62  1  0
 16 63  1  0
 17 64  1  0
 17 65  1  0
 19 66  1  0
 20 67  1  0
 21 68  1  6
 22 69  1  0
 22 70  1  0
 22 71  1  0
 23 72  1  0
 23 73  1  0
 24 74  1  0
 24 75  1  0
 25 76  1  0
 25 77  1  0
 26 78  1  0
 26 79  1  0
 27 80  1  0
 27 81  1  0
 28 82  1  0
 28 83  1  0
 28 84  1  0
 29 85  1  0
 33 86  1  0
 33 87  1  0
 34 88  1  0
 35 89  1  0
 35 90  1  0
 36 91  1  0
 36 92  1  0
 37 93  1  0
 37 94  1  0
 38 95  1  0
 38 96  1  0
 38 97  1  0
 39 98  1  0
 40 99  1  0
M  END
>  <PDBID>  (1) 
3C7Q

>  <PDB ID>  (1) 
3C7Q

>  <Generic Name>  (1) 
Nintedanib

>  <Brand Name>  (1) 
Ofev#Vargatef

>  <DrugBank ID>  (1) 
DB09079

>  <ATC Codes>  (1) 
L01XE31

>  <Ligand ID>  (1) 
XIN

>  <Target Name>  (1) 
Vascular endothelial growth factor receptor 3

>  <UniProt ID>  (1) 
P35916

>  <PDB ID.1>  (1) 
3C7Q

>  <Seq. Identity>  (1) 
67%

$$$$
