PDB_DB00834_07
     RDKit          3D

 83 87  0  0  0  0  0  0  0  0999 V2000
    0.1197    6.0612   -1.5932 O   0  0  0  0  0  0  0  0  0  0  0  0
    0.0034    5.5608   -0.3176 C   0  0  0  0  0  0  0  0  0  0  0  0
    1.2097    4.7635    0.1083 C   0  0  0  0  0  0  0  0  0  0  0  0
   -1.1594    4.5839   -0.2606 C   0  0  0  0  0  0  0  0  0  0  0  0
   -0.8927    3.6645    0.9225 C   0  0  0  0  0  0  0  0  0  0  0  0
   -2.1973    3.3100    1.5054 C   0  0  0  0  0  0  0  0  0  0  0  0
    0.0609    2.5400    0.5854 C   0  0  2  0  0  0  0  0  0  0  0  0
    1.0682    3.2902   -0.2912 C   0  0  0  0  0  0  0  0  0  0  0  0
   -0.5986    1.4147   -0.1334 C   0  0  0  0  0  0  0  0  0  0  0  0
    0.0886    0.2373   -0.5905 C   0  0  1  0  0  0  0  0  0  0  0  0
    1.5690    0.0686   -0.5253 C   0  0  0  0  0  0  0  0  0  0  0  0
    1.8378   -1.2636   -1.2881 C   0  0  0  0  0  0  0  0  0  0  0  0
    3.3651   -1.3203   -1.4866 C   0  0  0  0  0  0  0  0  0  0  0  0
    3.8498   -1.7373   -0.1069 C   0  0  0  0  0  0  0  0  0  0  0  0
    5.2469   -2.0273   -0.1322 N   0  0  0  0  0  0  0  0  0  0  0  0
    5.7080   -2.5360    1.1465 C   0  0  0  0  0  0  0  0  0  0  0  0
    6.0781   -0.9256   -0.5560 C   0  0  0  0  0  0  0  0  0  0  0  0
    3.5568   -0.6646    0.8487 C   0  0  0  0  0  0  0  0  0  0  0  0
    2.2049   -0.0186    0.8197 C   0  0  0  0  0  0  0  0  0  0  0  0
   -0.4352   -1.1410   -0.1582 C   0  0  0  0  0  0  0  0  0  0  0  0
   -1.7690   -1.1969    0.4259 C   0  0  2  0  0  0  0  0  0  0  0  0
   -1.6527   -1.0906    1.9407 C   0  0  0  0  0  0  0  0  0  0  0  0
   -2.6830   -2.3392    0.1556 C   0  0  1  0  0  0  0  0  0  0  0  0
   -2.0534   -3.5805   -0.3358 C   0  0  0  0  0  0  0  0  0  0  0  0
   -2.9737   -4.7508   -0.5683 C   0  0  0  0  0  0  0  0  0  0  0  0
   -4.0380   -4.5919   -1.5779 C   0  0  0  0  0  0  0  0  0  0  0  0
   -3.3511   -2.7223    1.3511 O   0  0  0  0  0  0  0  0  0  0  0  0
   -3.8080   -1.7853   -0.7116 C   0  0  0  0  0  0  0  0  0  0  0  0
   -3.9073   -0.3726   -0.0543 C   0  0  0  0  0  0  0  0  0  0  0  0
   -2.5023   -0.0129   -0.1642 C   0  0  1  0  0  0  0  0  0  0  0  0
   -1.9358    1.1476    0.5522 C   0  0  2  0  0  0  0  0  0  0  0  0
   -2.8497    2.3527    0.4927 C   0  0  0  0  0  0  0  0  0  0  0  0
    0.4068    5.3390   -2.1967 H   0  0  0  0  0  0  0  0  0  0  0  0
   -0.1508    6.3592    0.4423 H   0  0  0  0  0  0  0  0  0  0  0  0
    1.5085    4.8972    1.1454 H   0  0  0  0  0  0  0  0  0  0  0  0
    2.0635    5.1295   -0.5176 H   0  0  0  0  0  0  0  0  0  0  0  0
   -2.0568    5.1814   -0.0217 H   0  0  0  0  0  0  0  0  0  0  0  0
   -1.3232    4.0531   -1.1949 H   0  0  0  0  0  0  0  0  0  0  0  0
   -0.3583    4.2968    1.6905 H   0  0  0  0  0  0  0  0  0  0  0  0
   -2.8287    4.1948    1.5367 H   0  0  0  0  0  0  0  0  0  0  0  0
   -2.1353    2.7487    2.4657 H   0  0  0  0  0  0  0  0  0  0  0  0
    0.4600    2.2029    1.5354 H   0  0  0  0  0  0  0  0  0  0  0  0
    0.7613    3.2960   -1.3424 H   0  0  0  0  0  0  0  0  0  0  0  0
    2.0877    2.9089   -0.1151 H   0  0  0  0  0  0  0  0  0  0  0  0
   -1.0083    2.0115   -1.0410 H   0  0  0  0  0  0  0  0  0  0  0  0
   -0.0915    0.1919   -1.7231 H   0  0  0  0  0  0  0  0  0  0  0  0
    2.1398    0.7657   -1.1730 H   0  0  0  0  0  0  0  0  0  0  0  0
    1.3098   -1.2152   -2.2509 H   0  0  0  0  0  0  0  0  0  0  0  0
    1.5930   -2.1440   -0.7232 H   0  0  0  0  0  0  0  0  0  0  0  0
    3.6489   -0.3035   -1.7606 H   0  0  0  0  0  0  0  0  0  0  0  0
    3.5978   -2.0801   -2.2421 H   0  0  0  0  0  0  0  0  0  0  0  0
    3.3206   -2.6912    0.1207 H   0  0  0  0  0  0  0  0  0  0  0  0
    6.6248   -3.1433    0.9350 H   0  0  0  0  0  0  0  0  0  0  0  0
    4.9107   -3.2068    1.5360 H   0  0  0  0  0  0  0  0  0  0  0  0
    5.8921   -1.6855    1.8129 H   0  0  0  0  0  0  0  0  0  0  0  0
    6.4980   -0.3790    0.3244 H   0  0  0  0  0  0  0  0  0  0  0  0
    5.5935   -0.1856   -1.1848 H   0  0  0  0  0  0  0  0  0  0  0  0
    6.9312   -1.3554   -1.1261 H   0  0  0  0  0  0  0  0  0  0  0  0
    3.6939   -1.0841    1.8912 H   0  0  0  0  0  0  0  0  0  0  0  0
    4.4104    0.0770    0.7737 H   0  0  0  0  0  0  0  0  0  0  0  0
    1.5600   -0.4294    1.6225 H   0  0  0  0  0  0  0  0  0  0  0  0
    2.4282    1.0088    1.1798 H   0  0  0  0  0  0  0  0  0  0  0  0
    0.2542   -1.5925    0.6212 H   0  0  0  0  0  0  0  0  0  0  0  0
   -0.3686   -1.8624   -0.9988 H   0  0  0  0  0  0  0  0  0  0  0  0
   -1.5777   -2.1699    2.2840 H   0  0  0  0  0  0  0  0  0  0  0  0
   -0.7086   -0.6492    2.2849 H   0  0  0  0  0  0  0  0  0  0  0  0
   -2.5617   -0.7142    2.4174 H   0  0  0  0  0  0  0  0  0  0  0  0
   -1.4877   -3.4134   -1.3017 H   0  0  0  0  0  0  0  0  0  0  0  0
   -1.3319   -3.9487    0.4534 H   0  0  0  0  0  0  0  0  0  0  0  0
   -2.3762   -5.6974   -0.7250 H   0  0  0  0  0  0  0  0  0  0  0  0
   -3.4518   -4.9430    0.4442 H   0  0  0  0  0  0  0  0  0  0  0  0
   -5.0708   -4.5178   -1.1610 H   0  0  0  0  0  0  0  0  0  0  0  0
   -4.0854   -5.5939   -2.1334 H   0  0  0  0  0  0  0  0  0  0  0  0
   -3.8084   -3.8794   -2.3741 H   0  0  0  0  0  0  0  0  0  0  0  0
   -4.2855   -2.4296    1.3630 H   0  0  0  0  0  0  0  0  0  0  0  0
   -3.5328   -1.6528   -1.7622 H   0  0  0  0  0  0  0  0  0  0  0  0
   -4.7639   -2.2742   -0.5836 H   0  0  0  0  0  0  0  0  0  0  0  0
   -4.5153    0.2226   -0.7942 H   0  0  0  0  0  0  0  0  0  0  0  0
   -4.3567   -0.4443    0.9288 H   0  0  0  0  0  0  0  0  0  0  0  0
   -2.2390    0.0681   -1.2465 H   0  0  0  0  0  0  0  0  0  0  0  0
   -1.7297    0.9482    1.5981 H   0  0  0  0  0  0  0  0  0  0  0  0
   -2.8004    2.8228   -0.5146 H   0  0  0  0  0  0  0  0  0  0  0  0
   -3.8491    2.0442    0.7981 H   0  0  0  0  0  0  0  0  0  0  0  0
  1  2  1  0
  2  3  1  0
  2  4  1  0
  4  5  1  0
  5  6  1  0
  5  7  1  0
  3  8  1  0
  7  8  1  0
  7  9  1  0
  9 10  1  0
 10 11  1  0
 11 12  1  0
 12 13  1  0
 13 14  1  0
 14 15  1  0
 15 16  1  0
 15 17  1  0
 14 18  1  0
 11 19  1  0
 18 19  1  0
 10 20  1  0
 20 21  1  0
 21 22  1  1
 21 23  1  0
 23 24  1  0
 24 25  1  0
 25 26  1  0
 23 27  1  1
 23 28  1  0
 28 29  1  0
 21 30  1  0
 29 30  1  0
  9 31  1  0
 30 31  1  0
  6 32  1  0
 31 32  1  0
  1 33  1  0
  2 34  1  0
  3 35  1  0
  3 36  1  0
  4 37  1  0
  4 38  1  0
  5 39  1  0
  6 40  1  0
  6 41  1  0
  7 42  1  1
  8 43  1  0
  8 44  1  0
  9 45  1  0
 10 46  1  6
 11 47  1  0
 12 48  1  0
 12 49  1  0
 13 50  1  0
 13 51  1  0
 14 52  1  0
 16 53  1  0
 16 54  1  0
 16 55  1  0
 17 56  1  0
 17 57  1  0
 17 58  1  0
 18 59  1  0
 18 60  1  0
 19 61  1  0
 19 62  1  0
 20 63  1  0
 20 64  1  0
 22 65  1  0
 22 66  1  0
 22 67  1  0
 24 68  1  0
 24 69  1  0
 25 70  1  0
 25 71  1  0
 26 72  1  0
 26 73  1  0
 26 74  1  0
 27 75  1  0
 28 76  1  0
 28 77  1  0
 29 78  1  0
 29 79  1  0
 30 80  1  6
 31 81  1  1
 32 82  1  0
 32 83  1  0
M  END
>  <PDBID>  (1) 
2W8Y

>  <PDB ID>  (1) 
2W8Y

>  <Generic Name>  (1) 
Mifepristone

>  <Brand Name>  (1) 
Korlym#Mifegymiso#Corlux#Mefipil#Mifegyne#Mifeprex

>  <DrugBank ID>  (1) 
DB00834

>  <ATC Codes>  (1) 
G03XB01#G03XB51

>  <Ligand ID>  (1) 
486

>  <Target Name>  (1) 
Progesterone receptor

>  <UniProt ID>  (1) 
P06401

>  <PDB ID.1>  (1) 
2W8Y

>  <Seq. Identity>  (1) 
96%

$$$$
