PDB_DB00238_02
     RDKit          3D

 48 51  0  0  0  0  0  0  0  0999 V2000
    0.3583    0.7553    0.3639 N   0  0  0  0  0  0  0  0  0  0  0  0
    0.4123    2.1325    0.6476 C   0  0  0  0  0  0  0  0  0  0  0  0
    0.4523    3.0794   -0.5258 C   0  0  0  0  0  0  0  0  0  0  0  0
    1.4466    3.1049    0.6695 C   0  0  0  0  0  0  0  0  0  0  0  0
   -1.8110    1.6653   -0.1795 N   0  0  0  0  0  0  0  0  0  0  0  0
   -3.1466    1.4573    0.2819 C   0  0  0  0  0  0  0  0  0  0  0  0
   -3.7132    0.2009   -0.3919 C   0  0  0  0  0  0  0  0  0  0  0  0
   -2.9886   -0.9532    0.2537 C   0  0  0  0  0  0  0  0  0  0  0  0
   -3.2524   -2.2073   -0.5329 C   0  0  0  0  0  0  0  0  0  0  0  0
   -0.9797    0.5101   -0.2202 C   0  0  2  0  0  0  0  0  0  0  0  0
   -1.5541   -0.6829    0.5008 C   0  0  2  0  0  0  0  0  0  0  0  0
   -0.8093   -1.8537    0.0261 N   0  0  0  0  0  0  0  0  0  0  0  0
    0.4593   -1.7948    0.6828 C   0  0  0  0  0  0  0  0  0  0  0  0
    0.8693   -3.1010    0.9603 O   0  0  0  0  0  0  0  0  0  0  0  0
    1.4641   -1.2648   -0.3537 C   0  0  1  0  0  0  0  0  0  0  0  0
    1.3393    0.2132   -0.5341 C   0  0  2  0  0  0  0  0  0  0  0  0
    2.7838   -1.7607    0.1111 C   0  0  0  0  0  0  0  0  0  0  0  0
    3.9622   -0.9717   -0.3676 C   0  0  0  0  0  0  0  0  0  0  0  0
    3.6696    0.4473    0.0922 C   0  0  0  0  0  0  0  0  0  0  0  0
    2.5611    0.9248   -0.6482 N   0  0  0  0  0  0  0  0  0  0  0  0
   -0.5073    2.3829    1.2928 H   0  0  0  0  0  0  0  0  0  0  0  0
    0.8679    2.7320   -1.4960 H   0  0  0  0  0  0  0  0  0  0  0  0
   -0.1779    3.9589   -0.6024 H   0  0  0  0  0  0  0  0  0  0  0  0
    1.3252    3.9915    1.3668 H   0  0  0  0  0  0  0  0  0  0  0  0
    2.4757    3.0549    0.3477 H   0  0  0  0  0  0  0  0  0  0  0  0
   -1.7970    2.2328   -1.0522 H   0  0  0  0  0  0  0  0  0  0  0  0
   -3.2470    1.2954    1.3656 H   0  0  0  0  0  0  0  0  0  0  0  0
   -3.8072    2.2757   -0.0071 H   0  0  0  0  0  0  0  0  0  0  0  0
   -4.7833    0.0687   -0.1931 H   0  0  0  0  0  0  0  0  0  0  0  0
   -3.5479    0.2310   -1.4818 H   0  0  0  0  0  0  0  0  0  0  0  0
   -3.4821   -1.1091    1.2587 H   0  0  0  0  0  0  0  0  0  0  0  0
   -3.3186   -3.0971    0.1398 H   0  0  0  0  0  0  0  0  0  0  0  0
   -4.2789   -2.0996   -0.9663 H   0  0  0  0  0  0  0  0  0  0  0  0
   -2.5456   -2.3605   -1.3636 H   0  0  0  0  0  0  0  0  0  0  0  0
   -0.8477    0.2127   -1.2796 H   0  0  0  0  0  0  0  0  0  0  0  0
   -1.2978   -0.5610    1.5788 H   0  0  0  0  0  0  0  0  0  0  0  0
   -1.2976   -2.7471    0.3157 H   0  0  0  0  0  0  0  0  0  0  0  0
    0.4670   -1.1860    1.5987 H   0  0  0  0  0  0  0  0  0  0  0  0
    0.6884   -3.3393    1.8938 H   0  0  0  0  0  0  0  0  0  0  0  0
    1.2120   -1.8487   -1.2890 H   0  0  0  0  0  0  0  0  0  0  0  0
    0.8598    0.3476   -1.5573 H   0  0  0  0  0  0  0  0  0  0  0  0
    2.8127   -1.7301    1.2354 H   0  0  0  0  0  0  0  0  0  0  0  0
    2.9177   -2.8067   -0.1696 H   0  0  0  0  0  0  0  0  0  0  0  0
    4.1597   -1.0481   -1.4409 H   0  0  0  0  0  0  0  0  0  0  0  0
    4.8480   -1.3085    0.2219 H   0  0  0  0  0  0  0  0  0  0  0  0
    3.3624    0.3669    1.1615 H   0  0  0  0  0  0  0  0  0  0  0  0
    4.5193    1.1275   -0.0639 H   0  0  0  0  0  0  0  0  0  0  0  0
    2.8971    1.0624   -1.6504 H   0  0  0  0  0  0  0  0  0  0  0  0
  1  2  1  0
  2  3  1  0
  2  4  1  0
  3  4  1  0
  5  6  1  0
  6  7  1  0
  7  8  1  0
  8  9  1  0
  1 10  1  0
  5 10  1  0
  8 11  1  0
 10 11  1  0
 11 12  1  0
 12 13  1  0
 13 14  1  0
 13 15  1  0
  1 16  1  0
 15 16  1  0
 15 17  1  0
 17 18  1  0
 18 19  1  0
 16 20  1  0
 19 20  1  0
  2 21  1  0
  3 22  1  0
  3 23  1  0
  4 24  1  0
  4 25  1  0
  5 26  1  0
  6 27  1  0
  6 28  1  0
  7 29  1  0
  7 30  1  0
  8 31  1  0
  9 32  1  0
  9 33  1  0
  9 34  1  0
 10 35  1  6
 11 36  1  1
 12 37  1  0
 13 38  1  0
 14 39  1  0
 15 40  1  6
 16 41  1  6
 17 42  1  0
 17 43  1  0
 18 44  1  0
 18 45  1  0
 19 46  1  0
 19 47  1  0
 20 48  1  0
M  END
>  <PDBID>  (1) 
2HND

>  <PDB ID>  (1) 
2HND

>  <Generic Name>  (1) 
Nevirapine

>  <Brand Name>  (1) 
Apo-nevirapine#Apo-nevirapine XR#Apo-zidovudine-lamivudine-nevirapine#Auro-nevirapine#Mylan-nevirapine#Nevirapine#Nevirapine Extended Release#PMS-nevirapine#Teva-nevirapine#Viramune#Viramune XR

>  <DrugBank ID>  (1) 
DB00238

>  <ATC Codes>  (1) 
J05AR05#J05AG01#J05AR07

>  <Ligand ID>  (1) 
NVP

>  <Target Name>  (1) 
Reverse transcriptase/RNaseH

>  <UniProt ID>  (1) 
Q72547

>  <PDB ID.1>  (1) 
2HND

>  <Seq. Identity>  (1) 
96%

$$$$
