PDB_DB00615_03
     RDKit          3D

294304  0  0  0  0  0  0  0  0999 V2000
    2.5021   -0.4642   -3.1573 C   0  0  0  0  0  0  0  0  0  0  0  0
    2.7673   -1.4322   -1.9911 C   0  0  0  0  0  0  0  0  0  0  0  0
    3.5489   -0.6443   -1.0132 C   0  0  0  0  0  0  0  0  0  0  0  0
    2.5389    0.2987   -0.3316 C   0  0  2  0  0  0  0  0  0  0  0  0
    1.2651    2.3681   -0.9164 C   0  0  0  0  0  0  0  0  0  0  0  0
    1.2541    3.5159   -1.9340 C   0  0  0  0  0  0  0  0  0  0  0  0
    0.9169    2.9961   -3.2894 C   0  0  0  0  0  0  0  0  0  0  0  0
    1.5926    1.7287   -3.6796 C   0  0  0  0  0  0  0  0  0  0  0  0
    1.6175    0.6594   -2.6115 C   0  0  0  0  0  0  0  0  0  0  0  0
    2.1624    1.2975   -1.3733 C   0  0  0  0  0  0  0  0  0  0  0  0
   -0.2126    2.0600   -0.9319 C   0  0  2  0  0  0  0  0  0  0  0  0
   -0.7557    3.4974   -0.9168 C   0  0  2  0  0  0  0  0  0  0  0  0
   -1.9194    3.6620   -1.8826 C   0  0  0  0  0  0  0  0  0  0  0  0
    1.3711    4.0699   -4.2893 C   0  0  0  0  0  0  0  0  0  0  0  0
    2.8814   -3.7243   -1.5136 C   0  0  0  0  0  0  0  0  0  0  0  0
    1.4843   -4.1739   -1.7748 C   0  0  0  0  0  0  0  0  0  0  0  0
    0.8128   -4.4605   -0.4294 C   0  0  0  0  0  0  0  0  0  0  0  0
   -0.6494   -4.1691   -0.5509 C   0  0  0  0  0  0  0  0  0  0  0  0
   -1.3545   -4.1904    0.7864 C   0  0  0  0  0  0  0  0  0  0  0  0
   -2.6678   -3.3861    0.7034 C   0  0  1  0  0  0  0  0  0  0  0  0
   -2.3136   -1.9829    0.9830 C   0  0  1  0  0  0  0  0  0  0  0  0
   -3.1967   -0.9074    0.4925 C   0  0  2  0  0  0  0  0  0  0  0  0
   -4.6222   -0.9538    0.9807 C   0  0  2  0  0  0  0  0  0  0  0  0
   -5.4729    0.0603    0.2530 C   0  0  2  0  0  0  0  0  0  0  0  0
   -6.0805    1.0852    1.1655 C   0  0  1  0  0  0  0  0  0  0  0  0
   -5.1211    2.0828    1.7207 C   0  0  1  0  0  0  0  0  0  0  0  0
   -4.7441    3.1987    0.8056 C   0  0  2  0  0  0  0  0  0  0  0  0
   -3.4266    3.8402    1.2765 C   0  0  0  0  0  0  0  0  0  0  0  0
   -2.2235    3.0594    0.8075 C   0  0  0  0  0  0  0  0  0  0  0  0
    1.4433   -5.4837   -2.5697 C   0  0  0  0  0  0  0  0  0  0  0  0
   -3.2614   -3.6916   -0.6250 C   0  0  0  0  0  0  0  0  0  0  0  0
   -3.0633   -0.6891   -0.9922 C   0  0  0  0  0  0  0  0  0  0  0  0
   -6.6477   -0.7144   -0.3669 C   0  0  0  0  0  0  0  0  0  0  0  0
   -5.7568    2.6925    2.9555 C   0  0  0  0  0  0  0  0  0  0  0  0
   -8.3918    1.5471    1.2245 C   0  0  0  0  0  0  0  0  0  0  0  0
   -8.8798    2.8788    1.7835 C   0  0  0  0  0  0  0  0  0  0  0  0
   -6.0360    4.5443   -0.4791 C   0  0  0  0  0  0  0  0  0  0  0  0
    4.4240   -0.1598    0.9690 C   0  0  0  0  0  0  0  0  0  0  0  0
    4.6098   -0.5371    2.3947 C   0  0  0  0  0  0  0  0  0  0  0  0
    5.6769    0.5501    0.5052 C   0  0  0  0  0  0  0  0  0  0  0  0
    5.9855   -0.3618    2.9301 C   0  0  0  0  0  0  0  0  0  0  0  0
    6.8709   -0.3448    0.6721 C   0  0  0  0  0  0  0  0  0  0  0  0
    7.9279   -1.7034    2.3757 C   0  0  0  0  0  0  0  0  0  0  0  0
    8.7689   -1.4386    3.6115 C   0  0  0  0  0  0  0  0  0  0  0  0
    9.6484   -0.2251    3.4549 C   0  0  0  0  0  0  0  0  0  0  0  0
    9.6988   -2.6222    3.8529 C   0  0  0  0  0  0  0  0  0  0  0  0
    3.3331   -2.6682   -2.4012 N   0  0  0  0  0  0  0  0  0  0  0  0
    4.0976   -1.3077    0.1108 N   0  0  0  0  0  0  0  0  0  0  0  0
    3.3282    0.7899    0.7445 N   0  0  0  0  0  0  0  0  0  0  0  0
    7.0593   -0.6277    2.0505 N   0  0  0  0  0  0  0  0  0  0  0  0
    3.6874    0.0928   -3.6006 O   0  0  0  0  0  0  0  0  0  0  0  0
    0.9043    1.1817   -4.7722 O   0  0  0  0  0  0  0  0  0  0  0  0
    0.2555    4.3048   -1.3596 O   0  0  0  0  0  0  0  0  0  0  0  0
   -0.5051    1.3508    0.2000 O   0  0  0  0  0  0  0  0  0  0  0  0
   -1.1797    3.8576    0.3507 O   0  0  0  0  0  0  0  0  0  0  0  0
   -5.6699    4.2380    0.8272 O   0  0  0  0  0  0  0  0  0  0  0  0
   -7.1874    1.7020    0.6791 O   0  0  0  0  0  0  0  0  0  0  0  0
   -9.4022    1.0681    0.4158 O   0  0  0  0  0  0  0  0  0  0  0  0
   -4.5652   -0.6526    2.3644 O   0  0  0  0  0  0  0  0  0  0  0  0
   -2.1436   -1.8388    2.3628 O   0  0  0  0  0  0  0  0  0  0  0  0
    3.7134   -4.8570   -1.6493 O   0  0  0  0  0  0  0  0  0  0  0  0
    2.3761   -0.7232   -3.1842 C   0  0  0  0  0  0  0  0  0  0  0  0
    3.5450   -1.2416   -2.3440 C   0  0  0  0  0  0  0  0  0  0  0  0
    4.0657   -0.1402   -1.5559 C   0  0  1  0  0  0  0  0  0  0  0  0
    3.0372    0.6886   -0.7689 C   0  0  2  0  0  0  0  0  0  0  0  0
    1.1762    2.3189   -1.3392 C   0  0  0  0  0  0  0  0  0  0  0  0
   -0.0575    2.4126   -2.1939 C   0  0  0  0  0  0  0  0  0  0  0  0
   -0.1202    1.3359   -3.2740 C   0  0  0  0  0  0  0  0  0  0  0  0
    1.1570    1.1973   -4.0138 C   0  0  0  0  0  0  0  0  0  0  0  0
    2.2443    0.8015   -3.0431 C   0  0  0  0  0  0  0  0  0  0  0  0
    1.8732    1.0306   -1.5929 C   0  0  1  0  0  0  0  0  0  0  0  0
    0.6284    2.4363    0.0299 C   0  0  0  0  0  0  0  0  0  0  0  0
   -0.8362    2.0853   -0.1207 C   0  0  2  0  0  0  0  0  0  0  0  0
   -1.0336    0.6108    0.2612 C   0  0  0  0  0  0  0  0  0  0  0  0
   -1.2026    1.7785   -4.2522 C   0  0  0  0  0  0  0  0  0  0  0  0
    2.3722   -2.6752   -0.7364 C   0  0  0  0  0  0  0  0  0  0  0  0
    1.5250   -3.9416   -0.9558 C   0  0  0  0  0  0  0  0  0  0  0  0
    0.7670   -4.1558    0.3537 C   0  0  0  0  0  0  0  0  0  0  0  0
   -0.7110   -4.3387    0.1282 C   0  0  0  0  0  0  0  0  0  0  0  0
   -1.5227   -3.1430    0.6260 C   0  0  0  0  0  0  0  0  0  0  0  0
   -2.7343   -3.7125    1.3194 C   0  0  1  0  0  0  0  0  0  0  0  0
   -3.8125   -2.7526    1.6062 C   0  0  1  0  0  0  0  0  0  0  0  0
   -4.1772   -1.7651    0.5641 C   0  0  2  0  0  0  0  0  0  0  0  0
   -5.1017   -0.7399    1.2278 C   0  0  2  0  0  0  0  0  0  0  0  0
   -5.7294    0.1904    0.2951 C   0  0  2  0  0  0  0  0  0  0  0  0
   -6.1446    1.5349    0.6844 C   0  0  1  0  0  0  0  0  0  0  0  0
   -5.5135    2.3159    1.7388 C   0  0  1  0  0  0  0  0  0  0  0  0
   -4.3049    3.1481    1.4084 C   0  0  2  0  0  0  0  0  0  0  0  0
   -3.9077    3.2427   -0.0052 C   0  0  0  0  0  0  0  0  0  0  0  0
   -2.4630    3.7564   -0.0650 C   0  0  0  0  0  0  0  0  0  0  0  0
    2.3539   -5.1190   -1.3444 C   0  0  0  0  0  0  0  0  0  0  0  0
   -3.2303   -4.9726    0.6206 C   0  0  0  0  0  0  0  0  0  0  0  0
   -4.7466   -2.4410   -0.6243 C   0  0  0  0  0  0  0  0  0  0  0  0
   -6.9708   -0.5254   -0.2873 C   0  0  0  0  0  0  0  0  0  0  0  0
   -6.5652    3.3622    2.1919 C   0  0  0  0  0  0  0  0  0  0  0  0
   -7.4561    2.6924   -0.8650 C   0  0  0  0  0  0  0  0  0  0  0  0
   -7.6406    4.1901   -0.9657 C   0  0  0  0  0  0  0  0  0  0  0  0
   -2.7663    3.5351    3.1167 C   0  0  0  0  0  0  0  0  0  0  0  0
    5.0712    0.9232    0.1272 C   0  0  0  0  0  0  0  0  0  0  0  0
    5.0008    0.7429    1.6049 C   0  0  0  0  0  0  0  0  0  0  0  0
    6.3240    1.6195   -0.3552 C   0  0  0  0  0  0  0  0  0  0  0  0
    6.3305    0.9394    2.2705 C   0  0  0  0  0  0  0  0  0  0  0  0
    7.5651    0.9930    0.1882 C   0  0  0  0  0  0  0  0  0  0  0  0
    7.9194   -0.8015    1.6827 C   0  0  0  0  0  0  0  0  0  0  0  0
    8.4991   -1.0183    3.0458 C   0  0  0  0  0  0  0  0  0  0  0  0
    9.6676   -0.0777    3.2707 C   0  0  0  0  0  0  0  0  0  0  0  0
    9.0453   -2.4500    3.1149 C   0  0  0  0  0  0  0  0  0  0  0  0
    3.3097   -2.4888   -1.7423 N   0  0  0  0  0  0  0  0  0  0  0  0
    4.9607   -0.4172   -0.4770 N   0  0  0  0  0  0  0  0  0  0  0  0
    3.9457    1.6995   -0.3683 N   0  0  0  0  0  0  0  0  0  0  0  0
    7.4612    0.5328    1.5282 N   0  0  0  0  0  0  0  0  0  0  0  0
    1.1734   -1.2862   -2.8058 O   0  0  0  0  0  0  0  0  0  0  0  0
    0.9829    0.2859   -5.0402 O   0  0  0  0  0  0  0  0  0  0  0  0
   -1.1719    2.2337   -1.4250 O   0  0  0  0  0  0  0  0  0  0  0  0
    1.1458    1.5896    0.9766 O   0  0  0  0  0  0  0  0  0  0  0  0
   -1.6383    2.9043    0.6607 O   0  0  0  0  0  0  0  0  0  0  0  0
   -3.2344    2.6650    2.1707 O   0  0  0  0  0  0  0  0  0  0  0  0
   -6.1950    2.3240   -0.4802 O   0  0  0  0  0  0  0  0  0  0  0  0
   -7.7741    2.1844   -2.1520 O   0  0  0  0  0  0  0  0  0  0  0  0
   -4.3314   -0.2338    2.2508 O   0  0  0  0  0  0  0  0  0  0  0  0
   -4.9745   -3.4818    1.9239 O   0  0  0  0  0  0  0  0  0  0  0  0
    3.0681   -2.9375    0.4719 O   0  0  0  0  0  0  0  0  0  0  0  0
    1.9161   -0.9552   -3.9596 H   0  0  0  0  0  0  0  0  0  0  0  0
    1.7477   -1.6251   -1.5589 H   0  0  0  0  0  0  0  0  0  0  0  0
    4.2738   -0.0218   -1.5768 H   0  0  0  0  0  0  0  0  0  0  0  0
    1.6861   -0.2907    0.0456 H   0  0  0  0  0  0  0  0  0  0  0  0
    1.5086    2.8056    0.0616 H   0  0  0  0  0  0  0  0  0  0  0  0
    2.1997    4.0636   -1.9293 H   0  0  0  0  0  0  0  0  0  0  0  0
   -0.1636    2.8606   -3.4838 H   0  0  0  0  0  0  0  0  0  0  0  0
    2.6202    1.9146   -4.0215 H   0  0  0  0  0  0  0  0  0  0  0  0
    0.6324    0.1614   -2.4669 H   0  0  0  0  0  0  0  0  0  0  0  0
    3.1324    1.7873   -1.6939 H   0  0  0  0  0  0  0  0  0  0  0  0
   -0.5954    1.6392   -1.8585 H   0  0  0  0  0  0  0  0  0  0  0  0
   -1.7136    4.4693   -2.6468 H   0  0  0  0  0  0  0  0  0  0  0  0
   -2.8099    4.0867   -1.3311 H   0  0  0  0  0  0  0  0  0  0  0  0
   -2.2531    2.7231   -2.3270 H   0  0  0  0  0  0  0  0  0  0  0  0
    2.4930    3.9911   -4.3250 H   0  0  0  0  0  0  0  0  0  0  0  0
    1.0314    5.0646   -3.9826 H   0  0  0  0  0  0  0  0  0  0  0  0
    1.0173    3.8702   -5.3039 H   0  0  0  0  0  0  0  0  0  0  0  0
    3.0487   -3.3618   -0.4738 H   0  0  0  0  0  0  0  0  0  0  0  0
    0.8814   -3.4517   -2.3565 H   0  0  0  0  0  0  0  0  0  0  0  0
    1.2940   -3.8705    0.3710 H   0  0  0  0  0  0  0  0  0  0  0  0
    1.0111   -5.5352   -0.1629 H   0  0  0  0  0  0  0  0  0  0  0  0
   -0.7281   -3.1068   -0.9159 H   0  0  0  0  0  0  0  0  0  0  0  0
   -1.0903   -4.8788   -1.2767 H   0  0  0  0  0  0  0  0  0  0  0  0
   -1.5476   -5.2291    1.1243 H   0  0  0  0  0  0  0  0  0  0  0  0
   -0.6955   -3.7258    1.5501 H   0  0  0  0  0  0  0  0  0  0  0  0
   -3.3250   -3.8574    1.4737 H   0  0  0  0  0  0  0  0  0  0  0  0
   -1.2904   -1.7918    0.5478 H   0  0  0  0  0  0  0  0  0  0  0  0
   -2.7880    0.0528    0.9469 H   0  0  0  0  0  0  0  0  0  0  0  0
   -5.0635   -1.9705    0.9581 H   0  0  0  0  0  0  0  0  0  0  0  0
   -4.9079    0.4569   -0.5796 H   0  0  0  0  0  0  0  0  0  0  0  0
   -6.4260    0.4927    2.0460 H   0  0  0  0  0  0  0  0  0  0  0  0
   -4.1654    1.6301    2.0870 H   0  0  0  0  0  0  0  0  0  0  0  0
   -4.5692    2.9124   -0.2273 H   0  0  0  0  0  0  0  0  0  0  0  0
   -3.3225    4.8625    0.8976 H   0  0  0  0  0  0  0  0  0  0  0  0
   -3.4995    3.8958    2.3746 H   0  0  0  0  0  0  0  0  0  0  0  0
   -1.8520    2.5100    1.7022 H   0  0  0  0  0  0  0  0  0  0  0  0
   -2.5770    2.3996   -0.0039 H   0  0  0  0  0  0  0  0  0  0  0  0
    0.3933   -5.7507   -2.7335 H   0  0  0  0  0  0  0  0  0  0  0  0
    1.9763   -6.2857   -2.0516 H   0  0  0  0  0  0  0  0  0  0  0  0
    1.9430   -5.3091   -3.5601 H   0  0  0  0  0  0  0  0  0  0  0  0
   -3.2549   -4.8211   -0.7244 H   0  0  0  0  0  0  0  0  0  0  0  0
   -4.3003   -3.4059   -0.7812 H   0  0  0  0  0  0  0  0  0  0  0  0
   -2.6667   -3.3511   -1.4940 H   0  0  0  0  0  0  0  0  0  0  0  0
   -2.9990    0.4067   -1.2636 H   0  0  0  0  0  0  0  0  0  0  0  0
   -3.7754   -1.2266   -1.6125 H   0  0  0  0  0  0  0  0  0  0  0  0
   -2.0335   -1.0624   -1.2748 H   0  0  0  0  0  0  0  0  0  0  0  0
   -6.2895   -1.6710   -0.8224 H   0  0  0  0  0  0  0  0  0  0  0  0
   -7.1053   -0.1404   -1.2035 H   0  0  0  0  0  0  0  0  0  0  0  0
   -7.3849   -1.0042    0.4073 H   0  0  0  0  0  0  0  0  0  0  0  0
   -6.2626    3.6434    2.7584 H   0  0  0  0  0  0  0  0  0  0  0  0
   -6.5351    1.9962    3.3831 H   0  0  0  0  0  0  0  0  0  0  0  0
   -5.0231    2.8474    3.7743 H   0  0  0  0  0  0  0  0  0  0  0  0
   -8.3632    0.8555    2.1183 H   0  0  0  0  0  0  0  0  0  0  0  0
   -8.6352    3.0146    2.8421 H   0  0  0  0  0  0  0  0  0  0  0  0
   -9.9710    3.0336    1.5778 H   0  0  0  0  0  0  0  0  0  0  0  0
   -8.3763    3.6896    1.1794 H   0  0  0  0  0  0  0  0  0  0  0  0
   -6.7729    5.3771   -0.4195 H   0  0  0  0  0  0  0  0  0  0  0  0
   -5.1738    4.9491   -1.0665 H   0  0  0  0  0  0  0  0  0  0  0  0
   -6.4203    3.6903   -1.0516 H   0  0  0  0  0  0  0  0  0  0  0  0
    3.9260    0.1174    3.0120 H   0  0  0  0  0  0  0  0  0  0  0  0
    4.2430   -1.5797    2.6196 H   0  0  0  0  0  0  0  0  0  0  0  0
    5.5988    1.0387   -0.4630 H   0  0  0  0  0  0  0  0  0  0  0  0
    5.8176    1.3853    1.2535 H   0  0  0  0  0  0  0  0  0  0  0  0
    6.0849   -1.0576    3.8150 H   0  0  0  0  0  0  0  0  0  0  0  0
    6.1446    0.6576    3.3735 H   0  0  0  0  0  0  0  0  0  0  0  0
    6.8467   -1.2620    0.0815 H   0  0  0  0  0  0  0  0  0  0  0  0
    7.7527    0.2421    0.2779 H   0  0  0  0  0  0  0  0  0  0  0  0
    8.6411   -1.8306    1.5292 H   0  0  0  0  0  0  0  0  0  0  0  0
    7.4257   -2.6804    2.5246 H   0  0  0  0  0  0  0  0  0  0  0  0
    8.1021   -1.3539    4.4799 H   0  0  0  0  0  0  0  0  0  0  0  0
   10.7344   -0.4999    3.3252 H   0  0  0  0  0  0  0  0  0  0  0  0
    9.3958    0.4012    2.5992 H   0  0  0  0  0  0  0  0  0  0  0  0
    9.6122    0.3563    4.3971 H   0  0  0  0  0  0  0  0  0  0  0  0
   10.6865   -2.4341    3.3594 H   0  0  0  0  0  0  0  0  0  0  0  0
    9.9158   -2.7577    4.9267 H   0  0  0  0  0  0  0  0  0  0  0  0
    9.3050   -3.5556    3.4200 H   0  0  0  0  0  0  0  0  0  0  0  0
    3.0860   -2.9498   -3.3791 H   0  0  0  0  0  0  0  0  0  0  0  0
    4.9158   -1.8614   -0.1527 H   0  0  0  0  0  0  0  0  0  0  0  0
    2.7544    0.8504    1.6317 H   0  0  0  0  0  0  0  0  0  0  0  0
    3.8003   -0.0817   -4.5834 H   0  0  0  0  0  0  0  0  0  0  0  0
    0.4700    1.8541   -5.3208 H   0  0  0  0  0  0  0  0  0  0  0  0
    0.2076    1.4238    0.8802 H   0  0  0  0  0  0  0  0  0  0  0  0
   -9.5060    0.1088    0.5245 H   0  0  0  0  0  0  0  0  0  0  0  0
   -5.3526   -1.0565    2.8249 H   0  0  0  0  0  0  0  0  0  0  0  0
   -2.8756   -2.3115    2.8401 H   0  0  0  0  0  0  0  0  0  0  0  0
    3.4897   -5.4822   -0.9099 H   0  0  0  0  0  0  0  0  0  0  0  0
    2.5008   -0.9076   -4.2651 H   0  0  0  0  0  0  0  0  0  0  0  0
    4.3448   -1.4587   -3.1306 H   0  0  0  0  0  0  0  0  0  0  0  0
    4.6373    0.5721   -2.2258 H   0  0  0  0  0  0  0  0  0  0  0  0
    2.8134    0.0817    0.1400 H   0  0  0  0  0  0  0  0  0  0  0  0
    1.8767    3.1438   -1.5446 H   0  0  0  0  0  0  0  0  0  0  0  0
   -0.0462    3.3855   -2.7149 H   0  0  0  0  0  0  0  0  0  0  0  0
   -0.4702    0.3707   -2.8547 H   0  0  0  0  0  0  0  0  0  0  0  0
    1.3827    2.1840   -4.4976 H   0  0  0  0  0  0  0  0  0  0  0  0
    3.1452    1.3355   -3.3607 H   0  0  0  0  0  0  0  0  0  0  0  0
    1.0830    0.2390   -1.3877 H   0  0  0  0  0  0  0  0  0  0  0  0
    0.7202    3.4704    0.3823 H   0  0  0  0  0  0  0  0  0  0  0  0
   -0.1119    0.1712    0.6942 H   0  0  0  0  0  0  0  0  0  0  0  0
   -1.2837   -0.0087   -0.6260 H   0  0  0  0  0  0  0  0  0  0  0  0
   -1.8119    0.5267    1.0609 H   0  0  0  0  0  0  0  0  0  0  0  0
   -0.7995    2.6308   -4.8617 H   0  0  0  0  0  0  0  0  0  0  0  0
   -2.1462    2.0236   -3.7506 H   0  0  0  0  0  0  0  0  0  0  0  0
   -1.4309    0.9676   -4.9850 H   0  0  0  0  0  0  0  0  0  0  0  0
    1.6535   -1.9015   -0.5057 H   0  0  0  0  0  0  0  0  0  0  0  0
    0.7582   -3.7785   -1.7267 H   0  0  0  0  0  0  0  0  0  0  0  0
    0.9043   -3.3393    1.0648 H   0  0  0  0  0  0  0  0  0  0  0  0
    1.2446   -5.0643    0.8147 H   0  0  0  0  0  0  0  0  0  0  0  0
   -0.8647   -4.4400   -0.9708 H   0  0  0  0  0  0  0  0  0  0  0  0
   -0.9951   -5.2710    0.6714 H   0  0  0  0  0  0  0  0  0  0  0  0
   -0.8935   -2.6077    1.3921 H   0  0  0  0  0  0  0  0  0  0  0  0
   -1.7384   -2.4265   -0.1604 H   0  0  0  0  0  0  0  0  0  0  0  0
   -2.3462   -4.0699    2.3236 H   0  0  0  0  0  0  0  0  0  0  0  0
   -3.5706   -2.1786    2.5443 H   0  0  0  0  0  0  0  0  0  0  0  0
   -3.2993   -1.1693    0.2060 H   0  0  0  0  0  0  0  0  0  0  0  0
   -5.9120   -1.3497    1.7273 H   0  0  0  0  0  0  0  0  0  0  0  0
   -5.0487    0.2708   -0.6062 H   0  0  0  0  0  0  0  0  0  0  0  0
   -7.2480    1.4544    0.9716 H   0  0  0  0  0  0  0  0  0  0  0  0
   -5.3672    1.7557    2.7141 H   0  0  0  0  0  0  0  0  0  0  0  0
   -4.4262    4.2092    1.7939 H   0  0  0  0  0  0  0  0  0  0  0  0
   -3.8726    2.3125   -0.5779 H   0  0  0  0  0  0  0  0  0  0  0  0
   -4.4946    4.0304   -0.5395 H   0  0  0  0  0  0  0  0  0  0  0  0
   -2.1358    3.8531   -1.1240 H   0  0  0  0  0  0  0  0  0  0  0  0
   -2.3897    4.7748    0.3515 H   0  0  0  0  0  0  0  0  0  0  0  0
    1.9553   -6.0530   -0.8689 H   0  0  0  0  0  0  0  0  0  0  0  0
    3.4399   -4.9979   -1.1549 H   0  0  0  0  0  0  0  0  0  0  0  0
    2.2647   -5.2911   -2.4513 H   0  0  0  0  0  0  0  0  0  0  0  0
   -4.3455   -5.0600    0.6742 H   0  0  0  0  0  0  0  0  0  0  0  0
   -2.8445   -5.0512   -0.4150 H   0  0  0  0  0  0  0  0  0  0  0  0
   -2.8706   -5.9066    1.1380 H   0  0  0  0  0  0  0  0  0  0  0  0
   -5.0753   -1.7316   -1.4298 H   0  0  0  0  0  0  0  0  0  0  0  0
   -5.4573   -3.2551   -0.4367 H   0  0  0  0  0  0  0  0  0  0  0  0
   -3.8678   -2.9642   -1.1153 H   0  0  0  0  0  0  0  0  0  0  0  0
   -7.0546   -1.5657    0.0883 H   0  0  0  0  0  0  0  0  0  0  0  0
   -7.0551   -0.4030   -1.3665 H   0  0  0  0  0  0  0  0  0  0  0  0
   -7.8996   -0.0305    0.1321 H   0  0  0  0  0  0  0  0  0  0  0  0
   -6.3876    3.6495    3.2590 H   0  0  0  0  0  0  0  0  0  0  0  0
   -6.3857    4.3217    1.6330 H   0  0  0  0  0  0  0  0  0  0  0  0
   -7.5746    2.9728    2.0851 H   0  0  0  0  0  0  0  0  0  0  0  0
   -8.2608    2.3175   -0.1782 H   0  0  0  0  0  0  0  0  0  0  0  0
   -8.0687    4.6307   -0.0371 H   0  0  0  0  0  0  0  0  0  0  0  0
   -8.3718    4.4292   -1.7930 H   0  0  0  0  0  0  0  0  0  0  0  0
   -6.6937    4.6659   -1.2796 H   0  0  0  0  0  0  0  0  0  0  0  0
   -2.4115    4.4906    2.7053 H   0  0  0  0  0  0  0  0  0  0  0  0
   -3.4476    3.6634    3.9836 H   0  0  0  0  0  0  0  0  0  0  0  0
   -1.8427    3.0618    3.5632 H   0  0  0  0  0  0  0  0  0  0  0  0
    4.2822    1.4640    2.0903 H   0  0  0  0  0  0  0  0  0  0  0  0
    4.5882   -0.2678    1.8811 H   0  0  0  0  0  0  0  0  0  0  0  0
    6.2698    2.6656   -0.0018 H   0  0  0  0  0  0  0  0  0  0  0  0
    6.3162    1.5826   -1.4500 H   0  0  0  0  0  0  0  0  0  0  0  0
    6.3397    0.4362    3.2616 H   0  0  0  0  0  0  0  0  0  0  0  0
    6.4303    2.0312    2.4757 H   0  0  0  0  0  0  0  0  0  0  0  0
    7.9205    0.2190   -0.5275 H   0  0  0  0  0  0  0  0  0  0  0  0
    8.3653    1.7847    0.1663 H   0  0  0  0  0  0  0  0  0  0  0  0
    8.6908   -1.0622    0.9098 H   0  0  0  0  0  0  0  0  0  0  0  0
    7.1083   -1.5495    1.5267 H   0  0  0  0  0  0  0  0  0  0  0  0
    7.7207   -0.9163    3.8122 H   0  0  0  0  0  0  0  0  0  0  0  0
   10.6304   -0.5626    2.9880 H   0  0  0  0  0  0  0  0  0  0  0  0
    9.5622    0.8755    2.7268 H   0  0  0  0  0  0  0  0  0  0  0  0
    9.6844    0.1866    4.3630 H   0  0  0  0  0  0  0  0  0  0  0  0
    9.9623   -2.4326    2.4606 H   0  0  0  0  0  0  0  0  0  0  0  0
    9.3639   -2.6175    4.1598 H   0  0  0  0  0  0  0  0  0  0  0  0
    8.3096   -3.1759    2.7633 H   0  0  0  0  0  0  0  0  0  0  0  0
    3.2743   -3.2403   -2.4884 H   0  0  0  0  0  0  0  0  0  0  0  0
    5.9128   -0.6915   -0.8148 H   0  0  0  0  0  0  0  0  0  0  0  0
    3.6394    2.4284    0.2650 H   0  0  0  0  0  0  0  0  0  0  0  0
    0.9579   -2.0607   -3.3941 H   0  0  0  0  0  0  0  0  0  0  0  0
    0.2037   -0.3169   -4.8876 H   0  0  0  0  0  0  0  0  0  0  0  0
    1.6274    2.0807    1.7110 H   0  0  0  0  0  0  0  0  0  0  0  0
   -7.2261    2.6047   -2.8401 H   0  0  0  0  0  0  0  0  0  0  0  0
   -4.6005   -0.4914    3.1471 H   0  0  0  0  0  0  0  0  0  0  0  0
   -5.1873   -3.4700    2.8704 H   0  0  0  0  0  0  0  0  0  0  0  0
    3.2230   -3.9110    0.5721 H   0  0  0  0  0  0  0  0  0  0  0  0
  1  2  1  0
  2  3  1  0
  3  4  1  0
  5  6  1  0
  6  7  1  0
  7  8  1  0
  1  9  1  0
  8  9  1  0
  4 10  1  0
  5 10  1  0
  9 10  1  0
  5 11  1  0
 11 12  1  0
 12 13  1  6
  7 14  1  0
 15 16  1  0
 16 17  1  0
 17 18  1  0
 18 19  1  0
 19 20  1  0
 20 21  1  0
 21 22  1  0
 22 23  1  0
 23 24  1  0
 24 25  1  0
 25 26  1  0
 26 27  1  0
 27 28  1  0
 28 29  1  0
 16 30  1  0
 20 31  1  0
 22 32  1  0
 24 33  1  0
 26 34  1  0
 35 36  1  0
 38 39  1  0
 38 40  1  0
 39 41  1  0
 40 42  1  0
 43 44  1  0
 44 45  1  0
 44 46  1  0
  2 47  1  0
 15 47  1  0
  3 48  1  0
 38 48  1  0
  4 49  1  0
 38 49  1  0
 41 50  1  0
 42 50  1  0
 43 50  1  0
  1 51  1  0
  8 52  1  0
  6 53  1  0
 12 53  1  0
 11 54  1  0
 12 55  1  0
 29 55  1  0
 27 56  1  0
 37 56  1  0
 25 57  1  0
 35 57  1  0
 35 58  1  0
 23 59  1  0
 21 60  1  0
 15 61  1  0
 62 63  1  0
 63 64  1  0
 64 65  1  0
 66 67  1  0
 67 68  1  0
 68 69  1  0
 62 70  1  0
 69 70  1  0
 65 71  1  0
 66 71  1  0
 70 71  1  0
 66 72  1  0
 72 73  1  0
 73 74  1  1
 68 75  1  0
 76 77  1  0
 77 78  1  0
 78 79  1  0
 79 80  1  0
 80 81  1  0
 81 82  1  0
 82 83  1  0
 83 84  1  0
 84 85  1  0
 85 86  1  0
 86 87  1  0
 87 88  1  0
 88 89  1  0
 89 90  1  0
 77 91  1  0
 81 92  1  0
 83 93  1  0
 85 94  1  0
 87 95  1  0
 96 97  1  0
 99100  1  0
 99101  1  0
100102  1  0
101103  1  0
104105  1  0
105106  1  0
105107  1  0
 63108  1  0
 76108  1  0
 64109  1  0
 99109  1  0
 65110  1  0
 99110  1  0
102111  1  0
103111  1  0
104111  1  0
 62112  1  0
 69113  1  0
 67114  1  0
 73114  1  0
 72115  1  0
 73116  1  0
 90116  1  0
 88117  1  0
 98117  1  0
 86118  1  0
 96118  1  0
 96119  1  0
 84120  1  0
 82121  1  0
 76122  1  0
  1123  1  0
  2124  1  0
  3125  1  0
  4126  1  1
  5127  1  0
  6128  1  0
  7129  1  0
  8130  1  0
  9131  1  0
 10132  1  0
 11133  1  6
 13134  1  0
 13135  1  0
 13136  1  0
 14137  1  0
 14138  1  0
 14139  1  0
 15140  1  0
 16141  1  0
 17142  1  0
 17143  1  0
 18144  1  0
 18145  1  0
 19146  1  0
 19147  1  0
 20148  1  1
 21149  1  6
 22150  1  1
 23151  1  1
 24152  1  6
 25153  1  1
 26154  1  1
 27155  1  6
 28156  1  0
 28157  1  0
 29158  1  0
 29159  1  0
 30160  1  0
 30161  1  0
 30162  1  0
 31163  1  0
 31164  1  0
 31165  1  0
 32166  1  0
 32167  1  0
 32168  1  0
 33169  1  0
 33170  1  0
 33171  1  0
 34172  1  0
 34173  1  0
 34174  1  0
 35175  1  0
 36176  1  0
 36177  1  0
 36178  1  0
 37179  1  0
 37180  1  0
 37181  1  0
 39182  1  0
 39183  1  0
 40184  1  0
 40185  1  0
 41186  1  0
 41187  1  0
 42188  1  0
 42189  1  0
 43190  1  0
 43191  1  0
 44192  1  0
 45193  1  0
 45194  1  0
 45195  1  0
 46196  1  0
 46197  1  0
 46198  1  0
 47199  1  0
 48200  1  0
 49201  1  0
 51202  1  0
 52203  1  0
 54204  1  0
 58205  1  0
 59206  1  0
 60207  1  0
 61208  1  0
 62209  1  0
 63210  1  0
 64211  1  6
 65212  1  1
 66213  1  0
 67214  1  0
 68215  1  0
 69216  1  0
 70217  1  0
 71218  1  1
 72219  1  0
 74220  1  0
 74221  1  0
 74222  1  0
 75223  1  0
 75224  1  0
 75225  1  0
 76226  1  0
 77227  1  0
 78228  1  0
 78229  1  0
 79230  1  0
 79231  1  0
 80232  1  0
 80233  1  0
 81234  1  1
 82235  1  1
 83236  1  6
 84237  1  1
 85238  1  6
 86239  1  1
 87240  1  1
 88241  1  1
 89242  1  0
 89243  1  0
 90244  1  0
 90245  1  0
 91246  1  0
 91247  1  0
 91248  1  0
 92249  1  0
 92250  1  0
 92251  1  0
 93252  1  0
 93253  1  0
 93254  1  0
 94255  1  0
 94256  1  0
 94257  1  0
 95258  1  0
 95259  1  0
 95260  1  0
 96261  1  0
 97262  1  0
 97263  1  0
 97264  1  0
 98265  1  0
 98266  1  0
 98267  1  0
100268  1  0
100269  1  0
101270  1  0
101271  1  0
102272  1  0
102273  1  0
103274  1  0
103275  1  0
104276  1  0
104277  1  0
105278  1  0
106279  1  0
106280  1  0
106281  1  0
107282  1  0
107283  1  0
107284  1  0
108285  1  0
109286  1  0
110287  1  0
112288  1  0
113289  1  0
115290  1  0
119291  1  0
120292  1  0
121293  1  0
122294  1  0
M  END
>  <PDBID>  (1) 
2A68

>  <PDB ID>  (1) 
2A68

>  <Generic Name>  (1) 
Rifabutin

>  <Brand Name>  (1) 
Mycobutin#Rifabutin#Ansatipin#Ansatipine#Ributin

>  <DrugBank ID>  (1) 
DB00615

>  <ATC Codes>  (1) 
J04AB04

>  <Ligand ID>  (1) 
RBT

>  <Target Name>  (1) 
DNA-directed RNA polymerase subunit beta

>  <UniProt ID>  (1) 
P0A8V2

>  <PDB ID.1>  (1) 
2A68

>  <Seq. Identity>  (1) 
51%

$$$$
