PDB_DB01597_04
     RDKit          3D

 82 82  0  0  0  0  0  0  0  0999 V2000
   -2.7060    0.1835    1.1783 C   0  0  0  0  0  0  0  0  0  0  0  0
   -2.7845   -0.8416    0.1003 C   0  0  1  0  0  0  0  0  0  0  0  0
   -3.2049    0.4948   -0.2283 C   0  0  0  0  0  0  0  0  0  0  0  0
   -2.4442    1.5454   -0.9426 C   0  0  0  0  0  0  0  0  0  0  0  0
   -4.7347    0.7169   -0.3092 C   0  0  0  0  0  0  0  0  0  0  0  0
   -1.6634   -1.6664   -0.3648 C   0  0  0  0  0  0  0  0  0  0  0  0
   -0.4882   -1.1683   -0.8844 N   0  0  0  0  0  0  0  0  0  0  0  0
    0.4314   -0.4203   -0.0939 C   0  0  0  0  0  0  0  0  0  0  0  0
    1.7461   -0.2372   -0.8757 C   0  0  0  0  0  0  0  0  0  0  0  0
   -2.2215   -2.5146   -1.3891 O   0  0  0  0  0  0  0  0  0  0  0  0
    0.7405   -1.0036    1.2371 C   0  0  0  0  0  0  0  0  0  0  0  0
    1.3617   -2.2195    1.2484 O   0  0  0  0  0  0  0  0  0  0  0  0
    1.4459   -0.1001    2.0023 O   0  0  0  0  0  0  0  0  0  0  0  0
    2.7949    0.5171   -0.1541 C   0  0  0  0  0  0  0  0  0  0  0  0
    4.0258    0.6652   -1.0795 C   0  0  0  0  0  0  0  0  0  0  0  0
    5.1019    1.4302   -0.3578 C   0  0  0  0  0  0  0  0  0  0  0  0
   -2.7060    0.1835    1.1783 C   0  0  0  0  0  0  0  0  0  0  0  0
   -2.7845   -0.8416    0.1003 C   0  0  1  0  0  0  0  0  0  0  0  0
   -3.2049    0.4948   -0.2283 C   0  0  0  0  0  0  0  0  0  0  0  0
   -2.4442    1.5454   -0.9426 C   0  0  0  0  0  0  0  0  0  0  0  0
   -4.7347    0.7169   -0.3092 C   0  0  0  0  0  0  0  0  0  0  0  0
   -1.6634   -1.6664   -0.3648 C   0  0  0  0  0  0  0  0  0  0  0  0
   -0.4882   -1.1683   -0.8844 N   0  0  0  0  0  0  0  0  0  0  0  0
    0.4314   -0.4203   -0.0939 C   0  0  0  0  0  0  0  0  0  0  0  0
    1.7461   -0.2372   -0.8757 C   0  0  0  0  0  0  0  0  0  0  0  0
   -2.2215   -2.5146   -1.3891 O   0  0  0  0  0  0  0  0  0  0  0  0
    0.7405   -1.0036    1.2371 C   0  0  0  0  0  0  0  0  0  0  0  0
    1.3617   -2.2195    1.2484 O   0  0  0  0  0  0  0  0  0  0  0  0
    1.4459   -0.1001    2.0023 O   0  0  0  0  0  0  0  0  0  0  0  0
    2.7949    0.5171   -0.1541 C   0  0  0  0  0  0  0  0  0  0  0  0
    4.0258    0.6652   -1.0795 C   0  0  0  0  0  0  0  0  0  0  0  0
    5.1019    1.4302   -0.3578 C   0  0  0  0  0  0  0  0  0  0  0  0
   -3.4625    0.2197    2.0035 H   0  0  0  0  0  0  0  0  0  0  0  0
   -1.7541    0.6050    1.4768 H   0  0  0  0  0  0  0  0  0  0  0  0
   -3.6862   -1.5582    0.3277 H   0  0  0  0  0  0  0  0  0  0  0  0
   -1.7051    2.1087   -0.3326 H   0  0  0  0  0  0  0  0  0  0  0  0
   -3.1644    2.3478   -1.2888 H   0  0  0  0  0  0  0  0  0  0  0  0
   -2.0196    1.1332   -1.8874 H   0  0  0  0  0  0  0  0  0  0  0  0
   -4.9807    1.7630   -0.5113 H   0  0  0  0  0  0  0  0  0  0  0  0
   -5.0567    0.0384   -1.1502 H   0  0  0  0  0  0  0  0  0  0  0  0
   -5.1715    0.3036    0.6113 H   0  0  0  0  0  0  0  0  0  0  0  0
   -1.4886   -2.4019    0.5100 H   0  0  0  0  0  0  0  0  0  0  0  0
   -0.5780   -0.7630   -1.8375 H   0  0  0  0  0  0  0  0  0  0  0  0
    0.0649    0.6026    0.0359 H   0  0  0  0  0  0  0  0  0  0  0  0
    2.1432   -1.2455   -1.1315 H   0  0  0  0  0  0  0  0  0  0  0  0
    1.5404    0.3058   -1.8343 H   0  0  0  0  0  0  0  0  0  0  0  0
   -2.0518   -2.0424   -2.2392 H   0  0  0  0  0  0  0  0  0  0  0  0
   -0.2220   -1.1551    1.8405 H   0  0  0  0  0  0  0  0  0  0  0  0
    2.1771   -2.3111    0.7398 H   0  0  0  0  0  0  0  0  0  0  0  0
    1.9368   -0.6034    2.7030 H   0  0  0  0  0  0  0  0  0  0  0  0
    3.2296   -0.0158    0.7269 H   0  0  0  0  0  0  0  0  0  0  0  0
    2.5250    1.5345    0.1709 H   0  0  0  0  0  0  0  0  0  0  0  0
    4.3997   -0.3113   -1.3995 H   0  0  0  0  0  0  0  0  0  0  0  0
    3.7344    1.2486   -1.9594 H   0  0  0  0  0  0  0  0  0  0  0  0
    5.2328    1.0317    0.6891 H   0  0  0  0  0  0  0  0  0  0  0  0
    4.8677    2.5108   -0.2771 H   0  0  0  0  0  0  0  0  0  0  0  0
    6.0887    1.2727   -0.8787 H   0  0  0  0  0  0  0  0  0  0  0  0
   -3.4625    0.2197    2.0035 H   0  0  0  0  0  0  0  0  0  0  0  0
   -1.7541    0.6050    1.4768 H   0  0  0  0  0  0  0  0  0  0  0  0
   -3.6862   -1.5582    0.3277 H   0  0  0  0  0  0  0  0  0  0  0  0
   -1.7051    2.1087   -0.3326 H   0  0  0  0  0  0  0  0  0  0  0  0
   -3.1644    2.3478   -1.2888 H   0  0  0  0  0  0  0  0  0  0  0  0
   -2.0196    1.1332   -1.8874 H   0  0  0  0  0  0  0  0  0  0  0  0
   -4.9807    1.7630   -0.5113 H   0  0  0  0  0  0  0  0  0  0  0  0
   -5.0567    0.0384   -1.1502 H   0  0  0  0  0  0  0  0  0  0  0  0
   -5.1715    0.3036    0.6113 H   0  0  0  0  0  0  0  0  0  0  0  0
   -1.4886   -2.4019    0.5100 H   0  0  0  0  0  0  0  0  0  0  0  0
   -0.5780   -0.7630   -1.8375 H   0  0  0  0  0  0  0  0  0  0  0  0
    0.0649    0.6026    0.0359 H   0  0  0  0  0  0  0  0  0  0  0  0
    2.1432   -1.2455   -1.1315 H   0  0  0  0  0  0  0  0  0  0  0  0
    1.5404    0.3058   -1.8343 H   0  0  0  0  0  0  0  0  0  0  0  0
   -2.0518   -2.0424   -2.2392 H   0  0  0  0  0  0  0  0  0  0  0  0
   -0.2220   -1.1551    1.8405 H   0  0  0  0  0  0  0  0  0  0  0  0
    2.1771   -2.3111    0.7398 H   0  0  0  0  0  0  0  0  0  0  0  0
    1.9368   -0.6034    2.7030 H   0  0  0  0  0  0  0  0  0  0  0  0
    3.2296   -0.0158    0.7269 H   0  0  0  0  0  0  0  0  0  0  0  0
    2.5250    1.5345    0.1709 H   0  0  0  0  0  0  0  0  0  0  0  0
    4.3997   -0.3113   -1.3995 H   0  0  0  0  0  0  0  0  0  0  0  0
    3.7344    1.2486   -1.9594 H   0  0  0  0  0  0  0  0  0  0  0  0
    5.2328    1.0317    0.6891 H   0  0  0  0  0  0  0  0  0  0  0  0
    4.8677    2.5108   -0.2771 H   0  0  0  0  0  0  0  0  0  0  0  0
    6.0887    1.2727   -0.8787 H   0  0  0  0  0  0  0  0  0  0  0  0
  1  2  1  0
  1  3  1  0
  2  3  1  0
  3  4  1  0
  3  5  1  0
  2  6  1  0
  6  7  1  0
  7  8  1  0
  8  9  1  0
  6 10  1  0
  8 11  1  0
 11 12  1  0
 11 13  1  0
  9 14  1  0
 14 15  1  0
 15 16  1  0
 17 18  1  0
 17 19  1  0
 18 19  1  0
 19 20  1  0
 19 21  1  0
 18 22  1  0
 22 23  1  0
 23 24  1  0
 24 25  1  0
 22 26  1  0
 24 27  1  0
 27 28  1  0
 27 29  1  0
 25 30  1  0
 30 31  1  0
 31 32  1  0
  1 33  1  0
  1 34  1  0
  2 35  1  1
  4 36  1  0
  4 37  1  0
  4 38  1  0
  5 39  1  0
  5 40  1  0
  5 41  1  0
  6 42  1  0
  7 43  1  0
  8 44  1  0
  9 45  1  0
  9 46  1  0
 10 47  1  0
 11 48  1  0
 12 49  1  0
 13 50  1  0
 14 51  1  0
 14 52  1  0
 15 53  1  0
 15 54  1  0
 16 55  1  0
 16 56  1  0
 16 57  1  0
 17 58  1  0
 17 59  1  0
 18 60  1  1
 20 61  1  0
 20 62  1  0
 20 63  1  0
 21 64  1  0
 21 65  1  0
 21 66  1  0
 22 67  1  0
 23 68  1  0
 24 69  1  0
 25 70  1  0
 25 71  1  0
 26 72  1  0
 27 73  1  0
 28 74  1  0
 29 75  1  0
 30 76  1  0
 30 77  1  0
 31 78  1  0
 31 79  1  0
 32 80  1  0
 32 81  1  0
 32 82  1  0
M  END
>  <PDBID>  (1) 
1ITU

>  <PDB ID>  (1) 
1ITU

>  <Generic Name>  (1) 
Cilastatin

>  <Brand Name>  (1) 
Imipenem and Cilastatin#Imipenem and Cilastatin for Injection#Imipenem and Cilastatin for Injection USP#Imipenem and Cilastatin for Injection, USP#Primaxin 250#Primaxin 500#Primaxin IV#Primaxin IV 250/250 Add-vantage Vial#Primaxin IV 500#Ran-imipenem-cilastatin

>  <DrugBank ID>  (1) 
DB01597

>  <ATC Codes>  (1) 
nan

>  <Ligand ID>  (1) 
CIL

>  <Target Name>  (1) 
Dipeptidase 1

>  <UniProt ID>  (1) 
P16444

>  <PDB ID.1>  (1) 
1ITU

>  <Seq. Identity>  (1) 
100%

$$$$
