PDB_DB00513_09
     RDKit          3D

 25 24  0  0  0  0  0  0  0  0999 V2000
    3.1825    0.1032    0.2641 C   0  0  0  0  0  0  0  0  0  0  0  0
    4.2651   -0.7709    0.3738 O   0  0  0  0  0  0  0  0  0  0  0  0
    3.2950    0.8009   -0.9183 O   0  0  0  0  0  0  0  0  0  0  0  0
    1.8736   -0.6515    0.3623 C   0  0  0  0  0  0  0  0  0  0  0  0
    0.7537    0.3553    0.2358 C   0  0  0  0  0  0  0  0  0  0  0  0
   -0.6082   -0.3109    0.3227 C   0  0  0  0  0  0  0  0  0  0  0  0
   -1.6338    0.8117    0.1813 C   0  0  0  0  0  0  0  0  0  0  0  0
   -3.0264    0.2541    0.2545 C   0  0  0  0  0  0  0  0  0  0  0  0
   -3.2018   -0.6898   -0.8098 N   0  0  0  0  0  0  0  0  0  0  0  0
    1.8243   -1.1436    1.3432 H   0  0  0  0  0  0  0  0  0  0  0  0
    1.8583   -1.4110   -0.4212 H   0  0  0  0  0  0  0  0  0  0  0  0
    0.7802    0.9013   -0.7142 H   0  0  0  0  0  0  0  0  0  0  0  0
    0.7985    1.0746    1.0788 H   0  0  0  0  0  0  0  0  0  0  0  0
   -0.7501   -0.7304    1.3394 H   0  0  0  0  0  0  0  0  0  0  0  0
   -0.7332   -1.0924   -0.4319 H   0  0  0  0  0  0  0  0  0  0  0  0
   -1.4520    1.4871    1.0657 H   0  0  0  0  0  0  0  0  0  0  0  0
   -1.4137    1.3269   -0.7608 H   0  0  0  0  0  0  0  0  0  0  0  0
   -3.1316   -0.2372    1.2460 H   0  0  0  0  0  0  0  0  0  0  0  0
   -3.7288    1.1200    0.2044 H   0  0  0  0  0  0  0  0  0  0  0  0
   -2.4253   -0.7015   -1.5041 H   0  0  0  0  0  0  0  0  0  0  0  0
   -4.1144   -0.4488   -1.2899 H   0  0  0  0  0  0  0  0  0  0  0  0
   -3.2498   -1.6599   -0.3926 H   0  0  0  0  0  0  0  0  0  0  0  0
    3.2212    0.8415    1.1158 H   0  0  0  0  0  0  0  0  0  0  0  0
    4.6057   -0.9565   -0.5452 H   0  0  0  0  0  0  0  0  0  0  0  0
    3.0110    1.7280   -0.8764 H   0  0  0  0  0  0  0  0  0  0  0  0
  1  2  1  0
  1  3  1  0
  1  4  1  0
  4  5  1  0
  5  6  1  0
  6  7  1  0
  7  8  1  0
  8  9  1  0
  4 10  1  0
  4 11  1  0
  5 12  1  0
  5 13  1  0
  6 14  1  0
  6 15  1  0
  7 16  1  0
  7 17  1  0
  8 18  1  0
  8 19  1  0
  9 20  1  0
  9 21  1  0
 22  9  1  0
  1 23  1  0
  2 24  1  0
  3 25  1  0
M  CHG  1   9   1
M  END
>  <PDBID>  (1) 
1HPK

>  <PDB ID>  (1) 
1HPK

>  <Generic Name>  (1) 
Aminocaproic Acid

>  <Brand Name>  (1) 
Amicar#Aminocaproic Acid#Exoden White Tooth#Acepramin#Amocap#Caproamin#Caprocat#Caprolisin#E-Capro#Epsicaprom#Hemocid#Inselon#Ipron#Ipsilon#Kai Nai Yin#Minocap#Plaslloid#Resplamin

>  <DrugBank ID>  (1) 
DB00513

>  <ATC Codes>  (1) 
B02AA01

>  <Ligand ID>  (1) 
ACA

>  <Target Name>  (1) 
Plasminogen

>  <UniProt ID>  (1) 
P00747

>  <PDB ID.1>  (1) 
1HPK

>  <Seq. Identity>  (1) 
100%

$$$$
