PDB_DB01586_09
     RDKit          3D

140146  0  0  0  0  0  0  0  0999 V2000
   -3.7749    1.1696   -1.3065 C   0  0  0  0  0  0  0  0  0  0  0  0
   -3.1507    0.5438   -0.0655 C   0  0  1  0  0  0  0  0  0  0  0  0
   -0.9295    0.9750   -1.0818 C   0  0  0  0  0  0  0  0  0  0  0  0
    0.4730    0.4014   -1.3272 C   0  0  0  0  0  0  0  0  0  0  0  0
    1.0899    0.1031   -0.0095 C   0  0  1  0  0  0  0  0  0  0  0  0
    0.1667   -0.9088    0.6704 C   0  0  1  0  0  0  0  0  0  0  0  0
    0.9134   -1.5654    1.7515 C   0  0  0  0  0  0  0  0  0  0  0  0
    2.3535   -1.2277    1.4529 C   0  0  0  0  0  0  0  0  0  0  0  0
    2.3457   -0.6612    0.0245 C   0  0  2  0  0  0  0  0  0  0  0  0
    1.1894    1.3809    0.7781 C   0  0  0  0  0  0  0  0  0  0  0  0
   -3.1300    1.6504    0.9896 C   0  0  0  0  0  0  0  0  0  0  0  0
   -2.4345   -1.0821    2.9413 O   0  0  0  0  0  0  0  0  0  0  0  0
   -5.9467   -0.2755   -2.6940 O   0  0  0  0  0  0  0  0  0  0  0  0
   -5.2638    1.2647   -1.0481 C   0  0  0  0  0  0  0  0  0  0  0  0
    3.6286    0.0905   -0.2329 C   0  0  2  0  0  0  0  0  0  0  0  0
    3.5817    0.6806   -1.6121 C   0  0  0  0  0  0  0  0  0  0  0  0
    4.7663   -0.8684   -0.1343 C   0  0  0  0  0  0  0  0  0  0  0  0
    6.1310   -0.3257   -0.3651 C   0  0  0  0  0  0  0  0  0  0  0  0
    6.4775    0.7499    0.6170 C   0  0  0  0  0  0  0  0  0  0  0  0
   -5.8243   -0.1416   -1.2988 C   0  0  2  0  0  0  0  0  0  0  0  0
   -4.7741   -1.1093   -0.8545 C   0  0  0  0  0  0  0  0  0  0  0  0
    6.4235    0.3156    1.9322 O   0  0  0  0  0  0  0  0  0  0  0  0
    5.7194    1.8893    0.4776 O   0  0  0  0  0  0  0  0  0  0  0  0
   -4.0210   -0.6114    0.3880 C   0  0  1  0  0  0  0  0  0  0  0  0
   -3.2110   -1.7893    0.8551 C   0  0  0  0  0  0  0  0  0  0  0  0
   -2.0043   -1.4355    1.6408 C   0  0  1  0  0  0  0  0  0  0  0  0
   -1.1577   -0.3433    1.0262 C   0  0  2  0  0  0  0  0  0  0  0  0
   -1.7903    0.0218   -0.3262 C   0  0  1  0  0  0  0  0  0  0  0  0
   -3.7749    1.1696   -1.3065 C   0  0  0  0  0  0  0  0  0  0  0  0
   -3.1507    0.5438   -0.0655 C   0  0  1  0  0  0  0  0  0  0  0  0
   -0.9295    0.9750   -1.0818 C   0  0  0  0  0  0  0  0  0  0  0  0
    0.4730    0.4014   -1.3272 C   0  0  0  0  0  0  0  0  0  0  0  0
    1.0899    0.1031   -0.0095 C   0  0  1  0  0  0  0  0  0  0  0  0
    0.1667   -0.9088    0.6704 C   0  0  1  0  0  0  0  0  0  0  0  0
    0.9134   -1.5654    1.7515 C   0  0  0  0  0  0  0  0  0  0  0  0
    2.3535   -1.2277    1.4529 C   0  0  0  0  0  0  0  0  0  0  0  0
    2.3457   -0.6612    0.0245 C   0  0  2  0  0  0  0  0  0  0  0  0
    1.1894    1.3809    0.7781 C   0  0  0  0  0  0  0  0  0  0  0  0
   -3.1300    1.6504    0.9896 C   0  0  0  0  0  0  0  0  0  0  0  0
   -2.4345   -1.0821    2.9413 O   0  0  0  0  0  0  0  0  0  0  0  0
   -5.9467   -0.2755   -2.6940 O   0  0  0  0  0  0  0  0  0  0  0  0
   -5.2638    1.2647   -1.0481 C   0  0  0  0  0  0  0  0  0  0  0  0
    3.6286    0.0905   -0.2329 C   0  0  2  0  0  0  0  0  0  0  0  0
    3.5817    0.6806   -1.6121 C   0  0  0  0  0  0  0  0  0  0  0  0
    4.7663   -0.8684   -0.1343 C   0  0  0  0  0  0  0  0  0  0  0  0
    6.1310   -0.3257   -0.3651 C   0  0  0  0  0  0  0  0  0  0  0  0
    6.4775    0.7499    0.6170 C   0  0  0  0  0  0  0  0  0  0  0  0
   -5.8243   -0.1416   -1.2988 C   0  0  2  0  0  0  0  0  0  0  0  0
   -4.7741   -1.1093   -0.8545 C   0  0  0  0  0  0  0  0  0  0  0  0
    6.4235    0.3156    1.9322 O   0  0  0  0  0  0  0  0  0  0  0  0
    5.7194    1.8893    0.4776 O   0  0  0  0  0  0  0  0  0  0  0  0
   -4.0210   -0.6114    0.3880 C   0  0  1  0  0  0  0  0  0  0  0  0
   -3.2110   -1.7893    0.8551 C   0  0  0  0  0  0  0  0  0  0  0  0
   -2.0043   -1.4355    1.6408 C   0  0  1  0  0  0  0  0  0  0  0  0
   -1.1577   -0.3433    1.0262 C   0  0  2  0  0  0  0  0  0  0  0  0
   -1.7903    0.0218   -0.3262 C   0  0  1  0  0  0  0  0  0  0  0  0
   -3.4128    2.2241   -1.4133 H   0  0  0  0  0  0  0  0  0  0  0  0
   -3.5326    0.5944   -2.1994 H   0  0  0  0  0  0  0  0  0  0  0  0
   -0.8572    1.9760   -0.6284 H   0  0  0  0  0  0  0  0  0  0  0  0
   -1.3686    1.1103   -2.0867 H   0  0  0  0  0  0  0  0  0  0  0  0
    0.3793   -0.4646   -2.0054 H   0  0  0  0  0  0  0  0  0  0  0  0
    1.0255    1.2515   -1.8253 H   0  0  0  0  0  0  0  0  0  0  0  0
   -0.0232   -1.6834   -0.1332 H   0  0  0  0  0  0  0  0  0  0  0  0
    0.8392   -2.6843    1.6975 H   0  0  0  0  0  0  0  0  0  0  0  0
    0.6109   -1.2959    2.7808 H   0  0  0  0  0  0  0  0  0  0  0  0
    3.0142   -2.1167    1.5157 H   0  0  0  0  0  0  0  0  0  0  0  0
    2.6765   -0.4839    2.1908 H   0  0  0  0  0  0  0  0  0  0  0  0
    2.2859   -1.5568   -0.6325 H   0  0  0  0  0  0  0  0  0  0  0  0
    1.8238    1.2959    1.6826 H   0  0  0  0  0  0  0  0  0  0  0  0
    1.6857    2.1316    0.1279 H   0  0  0  0  0  0  0  0  0  0  0  0
    0.2405    1.8155    1.0830 H   0  0  0  0  0  0  0  0  0  0  0  0
   -3.8474    2.4715    0.7291 H   0  0  0  0  0  0  0  0  0  0  0  0
   -2.1345    2.1464    1.0360 H   0  0  0  0  0  0  0  0  0  0  0  0
   -3.4627    1.2787    1.9798 H   0  0  0  0  0  0  0  0  0  0  0  0
   -2.6114   -1.9053    3.4585 H   0  0  0  0  0  0  0  0  0  0  0  0
   -5.8897    0.5967   -3.1491 H   0  0  0  0  0  0  0  0  0  0  0  0
   -5.4792    1.4819    0.0111 H   0  0  0  0  0  0  0  0  0  0  0  0
   -5.7563    2.0070   -1.6976 H   0  0  0  0  0  0  0  0  0  0  0  0
    3.7245    0.9508    0.4687 H   0  0  0  0  0  0  0  0  0  0  0  0
    3.2994    1.7525   -1.5920 H   0  0  0  0  0  0  0  0  0  0  0  0
    2.9782    0.0661   -2.3183 H   0  0  0  0  0  0  0  0  0  0  0  0
    4.6198    0.6756   -2.0678 H   0  0  0  0  0  0  0  0  0  0  0  0
    4.8091   -1.3597    0.8857 H   0  0  0  0  0  0  0  0  0  0  0  0
    4.5300   -1.7323   -0.8140 H   0  0  0  0  0  0  0  0  0  0  0  0
    6.3524   -0.0257   -1.4148 H   0  0  0  0  0  0  0  0  0  0  0  0
    6.8368   -1.1942   -0.1120 H   0  0  0  0  0  0  0  0  0  0  0  0
    7.5669    1.0545    0.4781 H   0  0  0  0  0  0  0  0  0  0  0  0
   -6.7776   -0.2910   -0.7886 H   0  0  0  0  0  0  0  0  0  0  0  0
   -5.1833   -2.1020   -0.5734 H   0  0  0  0  0  0  0  0  0  0  0  0
   -3.9954   -1.3056   -1.6194 H   0  0  0  0  0  0  0  0  0  0  0  0
    7.2844    0.0944    2.3266 H   0  0  0  0  0  0  0  0  0  0  0  0
    5.8221    2.2572   -0.4360 H   0  0  0  0  0  0  0  0  0  0  0  0
   -4.7194   -0.2919    1.1824 H   0  0  0  0  0  0  0  0  0  0  0  0
   -3.8741   -2.4061    1.4962 H   0  0  0  0  0  0  0  0  0  0  0  0
   -2.8972   -2.4394   -0.0125 H   0  0  0  0  0  0  0  0  0  0  0  0
   -1.4060   -2.3618    1.7851 H   0  0  0  0  0  0  0  0  0  0  0  0
   -1.1589    0.4933    1.7260 H   0  0  0  0  0  0  0  0  0  0  0  0
   -1.8643   -0.9164   -0.9073 H   0  0  0  0  0  0  0  0  0  0  0  0
   -3.4128    2.2241   -1.4133 H   0  0  0  0  0  0  0  0  0  0  0  0
   -3.5326    0.5944   -2.1994 H   0  0  0  0  0  0  0  0  0  0  0  0
   -0.8572    1.9760   -0.6284 H   0  0  0  0  0  0  0  0  0  0  0  0
   -1.3686    1.1103   -2.0867 H   0  0  0  0  0  0  0  0  0  0  0  0
    0.3793   -0.4646   -2.0054 H   0  0  0  0  0  0  0  0  0  0  0  0
    1.0255    1.2515   -1.8253 H   0  0  0  0  0  0  0  0  0  0  0  0
   -0.0232   -1.6834   -0.1332 H   0  0  0  0  0  0  0  0  0  0  0  0
    0.8392   -2.6843    1.6975 H   0  0  0  0  0  0  0  0  0  0  0  0
    0.6109   -1.2959    2.7808 H   0  0  0  0  0  0  0  0  0  0  0  0
    3.0142   -2.1167    1.5157 H   0  0  0  0  0  0  0  0  0  0  0  0
    2.6765   -0.4839    2.1908 H   0  0  0  0  0  0  0  0  0  0  0  0
    2.2859   -1.5568   -0.6325 H   0  0  0  0  0  0  0  0  0  0  0  0
    1.8238    1.2959    1.6826 H   0  0  0  0  0  0  0  0  0  0  0  0
    1.6857    2.1316    0.1279 H   0  0  0  0  0  0  0  0  0  0  0  0
    0.2405    1.8155    1.0830 H   0  0  0  0  0  0  0  0  0  0  0  0
   -3.8474    2.4715    0.7291 H   0  0  0  0  0  0  0  0  0  0  0  0
   -2.1345    2.1464    1.0360 H   0  0  0  0  0  0  0  0  0  0  0  0
   -3.4627    1.2787    1.9798 H   0  0  0  0  0  0  0  0  0  0  0  0
   -2.6114   -1.9053    3.4585 H   0  0  0  0  0  0  0  0  0  0  0  0
   -5.8897    0.5967   -3.1491 H   0  0  0  0  0  0  0  0  0  0  0  0
   -5.4792    1.4819    0.0111 H   0  0  0  0  0  0  0  0  0  0  0  0
   -5.7563    2.0070   -1.6976 H   0  0  0  0  0  0  0  0  0  0  0  0
    3.7245    0.9508    0.4687 H   0  0  0  0  0  0  0  0  0  0  0  0
    3.2994    1.7525   -1.5920 H   0  0  0  0  0  0  0  0  0  0  0  0
    2.9782    0.0661   -2.3183 H   0  0  0  0  0  0  0  0  0  0  0  0
    4.6198    0.6756   -2.0678 H   0  0  0  0  0  0  0  0  0  0  0  0
    4.8091   -1.3597    0.8857 H   0  0  0  0  0  0  0  0  0  0  0  0
    4.5300   -1.7323   -0.8140 H   0  0  0  0  0  0  0  0  0  0  0  0
    6.3524   -0.0257   -1.4148 H   0  0  0  0  0  0  0  0  0  0  0  0
    6.8368   -1.1942   -0.1120 H   0  0  0  0  0  0  0  0  0  0  0  0
    7.5669    1.0545    0.4781 H   0  0  0  0  0  0  0  0  0  0  0  0
   -6.7776   -0.2910   -0.7886 H   0  0  0  0  0  0  0  0  0  0  0  0
   -5.1833   -2.1020   -0.5734 H   0  0  0  0  0  0  0  0  0  0  0  0
   -3.9954   -1.3056   -1.6194 H   0  0  0  0  0  0  0  0  0  0  0  0
    7.2844    0.0944    2.3266 H   0  0  0  0  0  0  0  0  0  0  0  0
    5.8221    2.2572   -0.4360 H   0  0  0  0  0  0  0  0  0  0  0  0
   -4.7194   -0.2919    1.1824 H   0  0  0  0  0  0  0  0  0  0  0  0
   -3.8741   -2.4061    1.4962 H   0  0  0  0  0  0  0  0  0  0  0  0
   -2.8972   -2.4394   -0.0125 H   0  0  0  0  0  0  0  0  0  0  0  0
   -1.4060   -2.3618    1.7851 H   0  0  0  0  0  0  0  0  0  0  0  0
   -1.1589    0.4933    1.7260 H   0  0  0  0  0  0  0  0  0  0  0  0
   -1.8643   -0.9164   -0.9073 H   0  0  0  0  0  0  0  0  0  0  0  0
  1  2  1  0
  3  4  1  0
  4  5  1  0
  5  6  1  0
  6  7  1  0
  7  8  1  0
  5  9  1  0
  8  9  1  0
  5 10  1  1
  2 11  1  1
  1 14  1  0
  9 15  1  0
 15 16  1  0
 15 17  1  0
 17 18  1  0
 18 19  1  0
 13 20  1  0
 14 20  1  0
 20 21  1  0
 19 22  1  0
 19 23  1  0
  2 24  1  0
 21 24  1  0
 24 25  1  0
 12 26  1  0
 25 26  1  0
  6 27  1  0
 26 27  1  0
  2 28  1  0
  3 28  1  0
 27 28  1  0
 29 30  1  0
 31 32  1  0
 32 33  1  0
 33 34  1  0
 34 35  1  0
 35 36  1  0
 33 37  1  0
 36 37  1  0
 33 38  1  1
 30 39  1  1
 29 42  1  0
 37 43  1  0
 43 44  1  0
 43 45  1  0
 45 46  1  0
 46 47  1  0
 41 48  1  0
 42 48  1  0
 48 49  1  0
 47 50  1  0
 47 51  1  0
 30 52  1  0
 49 52  1  0
 52 53  1  0
 40 54  1  0
 53 54  1  0
 34 55  1  0
 54 55  1  0
 30 56  1  0
 31 56  1  0
 55 56  1  0
  1 57  1  0
  1 58  1  0
  3 59  1  0
  3 60  1  0
  4 61  1  0
  4 62  1  0
  6 63  1  6
  7 64  1  0
  7 65  1  0
  8 66  1  0
  8 67  1  0
  9 68  1  6
 10 69  1  0
 10 70  1  0
 10 71  1  0
 11 72  1  0
 11 73  1  0
 11 74  1  0
 12 75  1  0
 13 76  1  0
 14 77  1  0
 14 78  1  0
 15 79  1  1
 16 80  1  0
 16 81  1  0
 16 82  1  0
 17 83  1  0
 17 84  1  0
 18 85  1  0
 18 86  1  0
 19 87  1  0
 20 88  1  1
 21 89  1  0
 21 90  1  0
 22 91  1  0
 23 92  1  0
 24 93  1  1
 25 94  1  0
 25 95  1  0
 26 96  1  1
 27 97  1  1
 28 98  1  6
 29 99  1  0
 29100  1  0
 31101  1  0
 31102  1  0
 32103  1  0
 32104  1  0
 34105  1  6
 35106  1  0
 35107  1  0
 36108  1  0
 36109  1  0
 37110  1  6
 38111  1  0
 38112  1  0
 38113  1  0
 39114  1  0
 39115  1  0
 39116  1  0
 40117  1  0
 41118  1  0
 42119  1  0
 42120  1  0
 43121  1  1
 44122  1  0
 44123  1  0
 44124  1  0
 45125  1  0
 45126  1  0
 46127  1  0
 46128  1  0
 47129  1  0
 48130  1  1
 49131  1  0
 49132  1  0
 50133  1  0
 51134  1  0
 52135  1  1
 53136  1  0
 53137  1  0
 54138  1  1
 55139  1  1
 56140  1  6
M  END
>  <PDBID>  (1) 
1IHI

>  <PDB ID>  (1) 
1IHI

>  <Generic Name>  (1) 
Ursodeoxycholic acid

>  <Brand Name>  (1) 
Actigall#Dom-ursodiol C#Mint-ursodiol#Novo-ursodiol#PHL-ursodiol C#PMS-ursodiol#PMS-ursodiol C#Pendo-ursodiol C#Urso#Urso 250#Urso DS#Urso Forte#Ursodiol#Ursodiol Tablets USP#Ursodiol Tablets, 250 mg#Ursodiol Tablets, 500 mg#Ursofalk#Cholit-ursan#Delursan#Destolit#Deursil#Litursol#Solutrat#Ursacol#Ursochol#Ursolvan

>  <DrugBank ID>  (1) 
DB01586

>  <ATC Codes>  (1) 
A05AA02

>  <Ligand ID>  (1) 
IU5,JN3

>  <Target Name>  (1) 
Aldo-keto reductase family 1 member C2

>  <UniProt ID>  (1) 
P52895

>  <PDB ID.1>  (1) 
1IHI

>  <Seq. Identity>  (1) 
100%

$$$$
