PDB_DB00320_09
     RDKit          3D

100107  0  0  0  0  0  0  0  0999 V2000
   -3.1482   -0.3548   -0.2126 C   0  0  0  0  0  0  0  0  0  0  0  0
   -4.5036    0.1215    0.3323 C   0  0  2  0  0  0  0  0  0  0  0  0
   -5.6024   -0.7639   -0.0840 C   0  0  2  0  0  0  0  0  0  0  0  0
   -6.8273   -0.2679    0.6608 C   0  0  2  0  0  0  0  0  0  0  0  0
   -5.4802   -2.2119    0.2071 C   0  0  0  0  0  0  0  0  0  0  0  0
   -6.7214   -2.9522   -0.1637 C   0  0  0  0  0  0  0  0  0  0  0  0
   -7.9955   -2.3325    0.3994 C   0  0  0  0  0  0  0  0  0  0  0  0
   -7.9884   -0.9075   -0.0779 C   0  0  0  0  0  0  0  0  0  0  0  0
   -9.0671   -0.0835    0.3793 N   0  0  0  0  0  0  0  0  0  0  0  0
   -8.5136    1.2563    0.1134 C   0  0  0  0  0  0  0  0  0  0  0  0
   -7.0601    1.1971    0.5497 C   0  0  0  0  0  0  0  0  0  0  0  0
   -6.1284    1.9165   -0.3618 C   0  0  0  0  0  0  0  0  0  0  0  0
   -4.7318    1.4613   -0.3919 C   0  0  1  0  0  0  0  0  0  0  0  0
   -3.7662    2.4088    0.0939 N   0  0  0  0  0  0  0  0  0  0  0  0
   -3.4207    3.4597   -0.7912 C   0  0  0  0  0  0  0  0  0  0  0  0
   -2.7541    1.8643    0.9082 C   0  0  0  0  0  0  0  0  0  0  0  0
   -2.1280    0.5605    0.4112 C   0  0  2  0  0  0  0  0  0  0  0  0
   -0.9312    0.8252   -0.4163 C   0  0  0  0  0  0  0  0  0  0  0  0
   -1.3919    1.4139   -1.6418 O   0  0  0  0  0  0  0  0  0  0  0  0
    0.0366   -0.0948   -0.7301 N   0  0  0  0  0  0  0  0  0  0  0  0
    0.8840   -0.7051    0.2375 C   0  0  2  0  0  0  0  0  0  0  0  0
    0.0844   -1.6470    1.1156 C   0  0  0  0  0  0  0  0  0  0  0  0
    1.4238    0.3189    1.0618 O   0  0  0  0  0  0  0  0  0  0  0  0
    2.0775   -1.3474   -0.3979 C   0  0  0  0  0  0  0  0  0  0  0  0
    2.1828   -2.6661    0.0927 O   0  0  0  0  0  0  0  0  0  0  0  0
    3.2185   -0.5463   -0.0075 N   0  0  0  0  0  0  0  0  0  0  0  0
    2.6335    0.6594    0.4649 C   0  0  1  0  0  0  0  0  0  0  0  0
    2.3658    1.4846   -0.6201 O   0  0  0  0  0  0  0  0  0  0  0  0
    3.4131    1.4300    1.4696 C   0  0  2  0  0  0  0  0  0  0  0  0
    4.6767    2.0531    1.0021 C   0  0  0  0  0  0  0  0  0  0  0  0
    5.3749    2.3443    2.3410 C   0  0  0  0  0  0  0  0  0  0  0  0
    4.6096    1.4929    3.3543 C   0  0  0  0  0  0  0  0  0  0  0  0
    3.8275    0.5585    2.5547 N   0  0  0  0  0  0  0  0  0  0  0  0
    4.6749   -0.4403    2.0057 C   0  0  0  0  0  0  0  0  0  0  0  0
    4.9410   -1.3688    3.0312 O   0  0  0  0  0  0  0  0  0  0  0  0
    4.0987   -1.2232    0.8517 C   0  0  2  0  0  0  0  0  0  0  0  0
    5.1746   -1.9148    0.0905 C   0  0  0  0  0  0  0  0  0  0  0  0
    6.0834   -1.1163   -0.7447 C   0  0  0  0  0  0  0  0  0  0  0  0
    5.5236   -0.3252   -1.8634 C   0  0  0  0  0  0  0  0  0  0  0  0
    6.6123    0.6084   -2.3811 C   0  0  0  0  0  0  0  0  0  0  0  0
    7.9414    0.2060   -1.8430 C   0  0  0  0  0  0  0  0  0  0  0  0
    8.2299   -1.2602   -1.8480 C   0  0  0  0  0  0  0  0  0  0  0  0
    7.0816   -2.1054   -1.3840 C   0  0  0  0  0  0  0  0  0  0  0  0
   -3.0033   -1.4126   -0.0203 H   0  0  0  0  0  0  0  0  0  0  0  0
   -3.2270   -0.1815   -1.3266 H   0  0  0  0  0  0  0  0  0  0  0  0
   -4.4581    0.2756    1.4369 H   0  0  0  0  0  0  0  0  0  0  0  0
   -5.8056   -0.6412   -1.1602 H   0  0  0  0  0  0  0  0  0  0  0  0
   -6.7760   -0.6078    1.7086 H   0  0  0  0  0  0  0  0  0  0  0  0
   -5.2099   -2.4550    1.2525 H   0  0  0  0  0  0  0  0  0  0  0  0
   -4.6696   -2.6116   -0.4510 H   0  0  0  0  0  0  0  0  0  0  0  0
   -6.7083   -4.0143    0.1464 H   0  0  0  0  0  0  0  0  0  0  0  0
   -6.8815   -2.9636   -1.2702 H   0  0  0  0  0  0  0  0  0  0  0  0
   -8.8413   -2.8997   -0.0119 H   0  0  0  0  0  0  0  0  0  0  0  0
   -7.9989   -2.4122    1.5067 H   0  0  0  0  0  0  0  0  0  0  0  0
   -7.8389   -0.9139   -1.1641 H   0  0  0  0  0  0  0  0  0  0  0  0
   -9.8873   -0.1660   -0.2609 H   0  0  0  0  0  0  0  0  0  0  0  0
   -9.0882    2.0104    0.6906 H   0  0  0  0  0  0  0  0  0  0  0  0
   -8.6241    1.4421   -0.9787 H   0  0  0  0  0  0  0  0  0  0  0  0
   -7.0359    1.6325    1.5760 H   0  0  0  0  0  0  0  0  0  0  0  0
   -6.1545    3.0016   -0.1034 H   0  0  0  0  0  0  0  0  0  0  0  0
   -6.6012    1.8658   -1.3875 H   0  0  0  0  0  0  0  0  0  0  0  0
   -4.4505    1.2441   -1.4590 H   0  0  0  0  0  0  0  0  0  0  0  0
   -2.3710    3.8061   -0.7268 H   0  0  0  0  0  0  0  0  0  0  0  0
   -4.0418    4.3841   -0.6037 H   0  0  0  0  0  0  0  0  0  0  0  0
   -3.6250    3.2070   -1.8584 H   0  0  0  0  0  0  0  0  0  0  0  0
   -3.1285    1.7302    1.9418 H   0  0  0  0  0  0  0  0  0  0  0  0
   -1.9119    2.6008    0.9946 H   0  0  0  0  0  0  0  0  0  0  0  0
   -1.8149    0.0542    1.3537 H   0  0  0  0  0  0  0  0  0  0  0  0
   -0.3925    1.6874    0.1403 H   0  0  0  0  0  0  0  0  0  0  0  0
   -1.5134    0.6340   -2.2507 H   0  0  0  0  0  0  0  0  0  0  0  0
   -0.0833   -0.6389   -1.6125 H   0  0  0  0  0  0  0  0  0  0  0  0
   -0.1098   -1.2680    2.1270 H   0  0  0  0  0  0  0  0  0  0  0  0
   -0.8683   -1.9704    0.6669 H   0  0  0  0  0  0  0  0  0  0  0  0
    0.6527   -2.6474    1.1973 H   0  0  0  0  0  0  0  0  0  0  0  0
    1.9462   -1.3623   -1.5044 H   0  0  0  0  0  0  0  0  0  0  0  0
    2.3573   -3.2791   -0.6479 H   0  0  0  0  0  0  0  0  0  0  0  0
    2.0800    0.9984   -1.4269 H   0  0  0  0  0  0  0  0  0  0  0  0
    2.7618    2.2100    1.8958 H   0  0  0  0  0  0  0  0  0  0  0  0
    5.3105    1.4344    0.3618 H   0  0  0  0  0  0  0  0  0  0  0  0
    4.4988    3.0476    0.5266 H   0  0  0  0  0  0  0  0  0  0  0  0
    5.3025    3.4174    2.6106 H   0  0  0  0  0  0  0  0  0  0  0  0
    6.4443    2.0682    2.2825 H   0  0  0  0  0  0  0  0  0  0  0  0
    3.8408    2.1736    3.8190 H   0  0  0  0  0  0  0  0  0  0  0  0
    5.2484    1.0237    4.0985 H   0  0  0  0  0  0  0  0  0  0  0  0
    5.6600    0.0160    1.7854 H   0  0  0  0  0  0  0  0  0  0  0  0
    5.7171   -1.1044    3.5865 H   0  0  0  0  0  0  0  0  0  0  0  0
    3.5031   -2.0623    1.3297 H   0  0  0  0  0  0  0  0  0  0  0  0
    4.6981   -2.6940   -0.5804 H   0  0  0  0  0  0  0  0  0  0  0  0
    5.8181   -2.5387    0.7756 H   0  0  0  0  0  0  0  0  0  0  0  0
    6.7740   -0.4923   -0.0851 H   0  0  0  0  0  0  0  0  0  0  0  0
    4.5841    0.2012   -1.6929 H   0  0  0  0  0  0  0  0  0  0  0  0
    5.3174   -1.0204   -2.7366 H   0  0  0  0  0  0  0  0  0  0  0  0
    6.5881    0.7083   -3.4801 H   0  0  0  0  0  0  0  0  0  0  0  0
    6.3769    1.6212   -1.9515 H   0  0  0  0  0  0  0  0  0  0  0  0
    8.2127    0.6786   -0.8633 H   0  0  0  0  0  0  0  0  0  0  0  0
    8.7062    0.6617   -2.5504 H   0  0  0  0  0  0  0  0  0  0  0  0
    9.0649   -1.4376   -1.1076 H   0  0  0  0  0  0  0  0  0  0  0  0
    8.6449   -1.5870   -2.8334 H   0  0  0  0  0  0  0  0  0  0  0  0
    6.6120   -2.5696   -2.2673 H   0  0  0  0  0  0  0  0  0  0  0  0
    7.3899   -2.8901   -0.6630 H   0  0  0  0  0  0  0  0  0  0  0  0
  1  2  1  0
  2  3  1  0
  3  4  1  0
  3  5  1  0
  5  6  1  0
  6  7  1  0
  4  8  1  0
  7  8  1  0
  8  9  1  0
  9 10  1  0
  4 11  1  0
 10 11  1  0
 11 12  1  0
  2 13  1  0
 12 13  1  0
 13 14  1  0
 14 15  1  0
 14 16  1  0
  1 17  1  0
 16 17  1  0
 17 18  1  0
 18 19  1  0
 18 20  1  0
 21 20  1  6
 21 22  1  0
 21 23  1  0
 21 24  1  0
 24 25  1  0
 24 26  1  0
 23 27  1  0
 26 27  1  0
 27 28  1  6
 27 29  1  0
 29 30  1  0
 30 31  1  0
 31 32  1  0
 29 33  1  0
 32 33  1  0
 33 34  1  0
 34 35  1  0
 26 36  1  0
 34 36  1  0
 36 37  1  0
 37 38  1  0
 38 39  1  0
 39 40  1  0
 40 41  1  0
 41 42  1  0
 38 43  1  0
 42 43  1  0
  1 44  1  0
  1 45  1  0
  2 46  1  1
  3 47  1  6
  4 48  1  1
  5 49  1  0
  5 50  1  0
  6 51  1  0
  6 52  1  0
  7 53  1  0
  7 54  1  0
  8 55  1  0
  9 56  1  0
 10 57  1  0
 10 58  1  0
 11 59  1  0
 12 60  1  0
 12 61  1  0
 13 62  1  6
 15 63  1  0
 15 64  1  0
 15 65  1  0
 16 66  1  0
 16 67  1  0
 17 68  1  1
 18 69  1  0
 19 70  1  0
 20 71  1  0
 22 72  1  0
 22 73  1  0
 22 74  1  0
 24 75  1  0
 25 76  1  0
 28 77  1  0
 29 78  1  1
 30 79  1  0
 30 80  1  0
 31 81  1  0
 31 82  1  0
 32 83  1  0
 32 84  1  0
 34 85  1  0
 35 86  1  0
 36 87  1  1
 37 88  1  0
 37 89  1  0
 38 90  1  0
 39 91  1  0
 39 92  1  0
 40 93  1  0
 40 94  1  0
 41 95  1  0
 41 96  1  0
 42 97  1  0
 42 98  1  0
 43 99  1  0
 43100  1  0
M  END
>  <PDBID>  (1) 
4IAQ

>  <PDB ID>  (1) 
4IAQ

>  <Generic Name>  (1) 
Dihydroergotamine

>  <Brand Name>  (1) 
D.H.E. 45#Dihydroergotamine (dhe), 1mg/ml#Dihydroergotamine Mesylate#Dihydroergotamine Mesylate Injection USP#Migranal#Migranal Nasal Spray 4mg/ml#PMS-dihydroergotamine#Dihydergot#Ergont#Ergotonin#Ikaran#Orstanorm#Verladyn

>  <DrugBank ID>  (1) 
DB00320

>  <ATC Codes>  (1) 
N02CA01#N02CA51

>  <Ligand ID>  (1) 
2GM

>  <Target Name>  (1) 
5-hydroxytryptamine receptor 1D

>  <UniProt ID>  (1) 
P28221

>  <PDB ID.1>  (1) 
4IAQ

>  <Seq. Identity>  (1) 
55%

$$$$
