PDB_DB06616_02
     RDKit          3D

170176  0  0  0  0  0  0  0  0999 V2000
    1.0786   -3.6818   -2.4401 C   0  0  0  0  0  0  0  0  0  0  0  0
   -6.7776    2.2848   -0.1010 O   0  0  0  0  0  0  0  0  0  0  0  0
    5.2427   -0.8948   -0.6254 C   0  0  0  0  0  0  0  0  0  0  0  0
   -4.6421   -0.2389    3.4241 N   0  0  0  0  0  0  0  0  0  0  0  0
   -7.3352    0.2191   -3.2355 Cl  0  0  0  0  0  0  0  0  0  0  0  0
   -7.0908   -0.1930    1.1734 Cl  0  0  0  0  0  0  0  0  0  0  0  0
   -3.4060   -0.9405    3.4143 C   0  0  0  0  0  0  0  0  0  0  0  0
   -1.9148    0.8582    2.4220 C   0  0  0  0  0  0  0  0  0  0  0  0
   -6.0841   -0.8680   -1.1575 C   0  0  0  0  0  0  0  0  0  0  0  0
   -4.8098    1.2908   -0.9322 C   0  0  0  0  0  0  0  0  0  0  0  0
    0.9662    0.0056    0.2297 C   0  0  0  0  0  0  0  0  0  0  0  0
   -1.0918   -1.6725   -0.8763 C   0  0  0  0  0  0  0  0  0  0  0  0
    4.6694   -1.0586   -2.0011 C   0  0  0  0  0  0  0  0  0  0  0  0
    3.2962   -0.4497   -2.0596 C   0  0  0  0  0  0  0  0  0  0  0  0
    8.6364    1.9494    0.7908 C   0  0  0  0  0  0  0  0  0  0  0  0
    6.3312    1.1957   -1.0777 C   0  0  0  0  0  0  0  0  0  0  0  0
    5.7633    0.6245    1.1039 C   0  0  0  0  0  0  0  0  0  0  0  0
    7.7008    0.6058   -0.9457 C   0  0  0  0  0  0  0  0  0  0  0  0
    7.1616    0.1093    1.3092 C   0  0  0  0  0  0  0  0  0  0  0  0
   -0.5672    0.8709    1.8403 N   0  0  0  0  0  0  0  0  0  0  0  0
   -3.2416   -0.0309    0.2013 N   0  0  0  0  0  0  0  0  0  0  0  0
    0.8743   -2.9726   -1.2644 O   0  0  0  0  0  0  0  0  0  0  0  0
    2.4988   -1.0961   -1.1417 O   0  0  0  0  0  0  0  0  0  0  0  0
   -6.2572    1.5597   -1.1488 C   0  0  0  0  0  0  0  0  0  0  0  0
   -7.0081    0.3119   -1.4955 C   0  0  0  0  0  0  0  0  0  0  0  0
   -5.6134   -0.6455    0.2913 C   0  0  0  0  0  0  0  0  0  0  0  0
   -2.3997   -0.5545    2.4088 C   0  0  0  0  0  0  0  0  0  0  0  0
   -4.5471    0.4292    0.3384 C   0  0  0  0  0  0  0  0  0  0  0  0
    0.2768   -1.7329   -1.4840 C   0  0  0  0  0  0  0  0  0  0  0  0
    1.1905   -0.6095   -1.1064 C   0  0  0  0  0  0  0  0  0  0  0  0
   -2.6035   -0.9742    0.9859 C   0  0  0  0  0  0  0  0  0  0  0  0
   -0.4993    0.2347    0.5458 C   0  0  0  0  0  0  0  0  0  0  0  0
   -1.1375   -1.1109    0.4793 C   0  0  0  0  0  0  0  0  0  0  0  0
    5.3422    0.5103   -0.2805 N   0  0  0  0  0  0  0  0  0  0  0  0
    8.1308    0.6650    0.4167 N   0  0  0  0  0  0  0  0  0  0  0  0
   -7.1874    3.5478   -0.5077 C   0  0  0  0  0  0  0  0  0  0  0  0
    1.0786   -3.6818   -2.4401 C   0  0  0  0  0  0  0  0  0  0  0  0
   -6.7776    2.2848   -0.1010 O   0  0  0  0  0  0  0  0  0  0  0  0
    5.2427   -0.8948   -0.6254 C   0  0  0  0  0  0  0  0  0  0  0  0
   -4.6421   -0.2389    3.4241 N   0  0  0  0  0  0  0  0  0  0  0  0
   -7.3352    0.2191   -3.2355 Cl  0  0  0  0  0  0  0  0  0  0  0  0
   -7.0908   -0.1930    1.1734 Cl  0  0  0  0  0  0  0  0  0  0  0  0
   -3.4060   -0.9405    3.4143 C   0  0  0  0  0  0  0  0  0  0  0  0
   -1.9148    0.8582    2.4220 C   0  0  0  0  0  0  0  0  0  0  0  0
   -6.0841   -0.8680   -1.1575 C   0  0  0  0  0  0  0  0  0  0  0  0
   -4.8098    1.2908   -0.9322 C   0  0  0  0  0  0  0  0  0  0  0  0
    0.9662    0.0056    0.2297 C   0  0  0  0  0  0  0  0  0  0  0  0
   -1.0918   -1.6725   -0.8763 C   0  0  0  0  0  0  0  0  0  0  0  0
    4.6694   -1.0586   -2.0011 C   0  0  0  0  0  0  0  0  0  0  0  0
    3.2962   -0.4497   -2.0596 C   0  0  0  0  0  0  0  0  0  0  0  0
    8.6364    1.9494    0.7908 C   0  0  0  0  0  0  0  0  0  0  0  0
    6.3312    1.1957   -1.0777 C   0  0  0  0  0  0  0  0  0  0  0  0
    5.7633    0.6245    1.1039 C   0  0  0  0  0  0  0  0  0  0  0  0
    7.7008    0.6058   -0.9457 C   0  0  0  0  0  0  0  0  0  0  0  0
    7.1616    0.1093    1.3092 C   0  0  0  0  0  0  0  0  0  0  0  0
   -0.5672    0.8709    1.8403 N   0  0  0  0  0  0  0  0  0  0  0  0
   -3.2416   -0.0309    0.2013 N   0  0  0  0  0  0  0  0  0  0  0  0
    0.8743   -2.9726   -1.2644 O   0  0  0  0  0  0  0  0  0  0  0  0
    2.4988   -1.0961   -1.1417 O   0  0  0  0  0  0  0  0  0  0  0  0
   -6.2572    1.5597   -1.1488 C   0  0  0  0  0  0  0  0  0  0  0  0
   -7.0081    0.3119   -1.4955 C   0  0  0  0  0  0  0  0  0  0  0  0
   -5.6134   -0.6455    0.2913 C   0  0  0  0  0  0  0  0  0  0  0  0
   -2.3997   -0.5545    2.4088 C   0  0  0  0  0  0  0  0  0  0  0  0
   -4.5471    0.4292    0.3384 C   0  0  0  0  0  0  0  0  0  0  0  0
    0.2768   -1.7329   -1.4840 C   0  0  0  0  0  0  0  0  0  0  0  0
    1.1905   -0.6095   -1.1064 C   0  0  0  0  0  0  0  0  0  0  0  0
   -2.6035   -0.9742    0.9859 C   0  0  0  0  0  0  0  0  0  0  0  0
   -0.4993    0.2347    0.5458 C   0  0  0  0  0  0  0  0  0  0  0  0
   -1.1375   -1.1109    0.4793 C   0  0  0  0  0  0  0  0  0  0  0  0
    5.3422    0.5103   -0.2805 N   0  0  0  0  0  0  0  0  0  0  0  0
    8.1308    0.6650    0.4167 N   0  0  0  0  0  0  0  0  0  0  0  0
   -7.1874    3.5478   -0.5077 C   0  0  0  0  0  0  0  0  0  0  0  0
    1.7502   -3.0456   -3.0755 H   0  0  0  0  0  0  0  0  0  0  0  0
    0.1281   -3.7607   -3.0355 H   0  0  0  0  0  0  0  0  0  0  0  0
    1.5850   -4.6326   -2.2950 H   0  0  0  0  0  0  0  0  0  0  0  0
    4.5293   -1.3421    0.1204 H   0  0  0  0  0  0  0  0  0  0  0  0
    6.1872   -1.4476   -0.4944 H   0  0  0  0  0  0  0  0  0  0  0  0
   -4.6301    0.6531    3.9658 H   0  0  0  0  0  0  0  0  0  0  0  0
   -5.3682   -0.8478    3.8806 H   0  0  0  0  0  0  0  0  0  0  0  0
   -3.5576   -2.0676    3.4575 H   0  0  0  0  0  0  0  0  0  0  0  0
   -2.9459   -0.7525    4.4392 H   0  0  0  0  0  0  0  0  0  0  0  0
   -2.5111    1.5266    1.8042 H   0  0  0  0  0  0  0  0  0  0  0  0
   -1.7898    1.2018    3.4680 H   0  0  0  0  0  0  0  0  0  0  0  0
   -6.7463   -1.7621   -1.1272 H   0  0  0  0  0  0  0  0  0  0  0  0
   -5.2637   -0.9750   -1.8618 H   0  0  0  0  0  0  0  0  0  0  0  0
   -4.2931    0.8034   -1.7623 H   0  0  0  0  0  0  0  0  0  0  0  0
   -4.2574    2.2470   -0.7402 H   0  0  0  0  0  0  0  0  0  0  0  0
    1.3928   -0.5659    1.0789 H   0  0  0  0  0  0  0  0  0  0  0  0
    1.4474    1.0058    0.2506 H   0  0  0  0  0  0  0  0  0  0  0  0
   -1.8049   -1.1806   -1.5486 H   0  0  0  0  0  0  0  0  0  0  0  0
   -1.4480   -2.7450   -0.8163 H   0  0  0  0  0  0  0  0  0  0  0  0
    5.3662   -0.6788   -2.7522 H   0  0  0  0  0  0  0  0  0  0  0  0
    4.5334   -2.1601   -2.1647 H   0  0  0  0  0  0  0  0  0  0  0  0
    3.3165    0.6352   -1.7566 H   0  0  0  0  0  0  0  0  0  0  0  0
    2.8845   -0.4733   -3.0849 H   0  0  0  0  0  0  0  0  0  0  0  0
    9.0622    2.4232   -0.1325 H   0  0  0  0  0  0  0  0  0  0  0  0
    7.8904    2.6171    1.2521 H   0  0  0  0  0  0  0  0  0  0  0  0
    9.4780    1.8565    1.5088 H   0  0  0  0  0  0  0  0  0  0  0  0
    6.0021    1.2921   -2.1351 H   0  0  0  0  0  0  0  0  0  0  0  0
    6.3871    2.2397   -0.6809 H   0  0  0  0  0  0  0  0  0  0  0  0
    5.0896    0.0737    1.7731 H   0  0  0  0  0  0  0  0  0  0  0  0
    5.7167    1.6888    1.3686 H   0  0  0  0  0  0  0  0  0  0  0  0
    7.7558   -0.4417   -1.3211 H   0  0  0  0  0  0  0  0  0  0  0  0
    8.3826    1.1895   -1.6035 H   0  0  0  0  0  0  0  0  0  0  0  0
    7.2087   -0.9948    1.2866 H   0  0  0  0  0  0  0  0  0  0  0  0
    7.4614    0.4091    2.3487 H   0  0  0  0  0  0  0  0  0  0  0  0
   -0.2988    1.8736    1.7259 H   0  0  0  0  0  0  0  0  0  0  0  0
   -2.7160    0.3512   -0.6158 H   0  0  0  0  0  0  0  0  0  0  0  0
   -6.3154    2.2177   -2.0598 H   0  0  0  0  0  0  0  0  0  0  0  0
   -7.9278    0.2082   -0.8880 H   0  0  0  0  0  0  0  0  0  0  0  0
   -5.2703   -1.6199    0.6493 H   0  0  0  0  0  0  0  0  0  0  0  0
   -1.4229   -1.1434    2.7263 H   0  0  0  0  0  0  0  0  0  0  0  0
   -4.7736    1.1522    1.1475 H   0  0  0  0  0  0  0  0  0  0  0  0
    0.1311   -1.6700   -2.5868 H   0  0  0  0  0  0  0  0  0  0  0  0
    1.1590    0.2143   -1.8742 H   0  0  0  0  0  0  0  0  0  0  0  0
   -3.0328   -2.0086    0.9505 H   0  0  0  0  0  0  0  0  0  0  0  0
   -0.8490    0.9648   -0.2124 H   0  0  0  0  0  0  0  0  0  0  0  0
   -0.6468   -1.7470    1.2464 H   0  0  0  0  0  0  0  0  0  0  0  0
   -7.6027    4.1267    0.3282 H   0  0  0  0  0  0  0  0  0  0  0  0
   -6.3513    4.1058   -1.0149 H   0  0  0  0  0  0  0  0  0  0  0  0
   -7.9674    3.4377   -1.3045 H   0  0  0  0  0  0  0  0  0  0  0  0
    1.7502   -3.0456   -3.0755 H   0  0  0  0  0  0  0  0  0  0  0  0
    0.1281   -3.7607   -3.0355 H   0  0  0  0  0  0  0  0  0  0  0  0
    1.5850   -4.6326   -2.2950 H   0  0  0  0  0  0  0  0  0  0  0  0
    4.5293   -1.3421    0.1204 H   0  0  0  0  0  0  0  0  0  0  0  0
    6.1872   -1.4476   -0.4944 H   0  0  0  0  0  0  0  0  0  0  0  0
   -4.6301    0.6531    3.9658 H   0  0  0  0  0  0  0  0  0  0  0  0
   -5.3682   -0.8478    3.8806 H   0  0  0  0  0  0  0  0  0  0  0  0
   -3.5576   -2.0676    3.4575 H   0  0  0  0  0  0  0  0  0  0  0  0
   -2.9459   -0.7525    4.4392 H   0  0  0  0  0  0  0  0  0  0  0  0
   -2.5111    1.5266    1.8042 H   0  0  0  0  0  0  0  0  0  0  0  0
   -1.7898    1.2018    3.4680 H   0  0  0  0  0  0  0  0  0  0  0  0
   -6.7463   -1.7621   -1.1272 H   0  0  0  0  0  0  0  0  0  0  0  0
   -5.2637   -0.9750   -1.8618 H   0  0  0  0  0  0  0  0  0  0  0  0
   -4.2931    0.8034   -1.7623 H   0  0  0  0  0  0  0  0  0  0  0  0
   -4.2574    2.2470   -0.7402 H   0  0  0  0  0  0  0  0  0  0  0  0
    1.3928   -0.5659    1.0789 H   0  0  0  0  0  0  0  0  0  0  0  0
    1.4474    1.0058    0.2506 H   0  0  0  0  0  0  0  0  0  0  0  0
   -1.8049   -1.1806   -1.5486 H   0  0  0  0  0  0  0  0  0  0  0  0
   -1.4480   -2.7450   -0.8163 H   0  0  0  0  0  0  0  0  0  0  0  0
    5.3662   -0.6788   -2.7522 H   0  0  0  0  0  0  0  0  0  0  0  0
    4.5334   -2.1601   -2.1647 H   0  0  0  0  0  0  0  0  0  0  0  0
    3.3165    0.6352   -1.7566 H   0  0  0  0  0  0  0  0  0  0  0  0
    2.8845   -0.4733   -3.0849 H   0  0  0  0  0  0  0  0  0  0  0  0
    9.0622    2.4232   -0.1325 H   0  0  0  0  0  0  0  0  0  0  0  0
    7.8904    2.6171    1.2521 H   0  0  0  0  0  0  0  0  0  0  0  0
    9.4780    1.8565    1.5088 H   0  0  0  0  0  0  0  0  0  0  0  0
    6.0021    1.2921   -2.1351 H   0  0  0  0  0  0  0  0  0  0  0  0
    6.3871    2.2397   -0.6809 H   0  0  0  0  0  0  0  0  0  0  0  0
    5.0896    0.0737    1.7731 H   0  0  0  0  0  0  0  0  0  0  0  0
    5.7167    1.6888    1.3686 H   0  0  0  0  0  0  0  0  0  0  0  0
    7.7558   -0.4417   -1.3211 H   0  0  0  0  0  0  0  0  0  0  0  0
    8.3826    1.1895   -1.6035 H   0  0  0  0  0  0  0  0  0  0  0  0
    7.2087   -0.9948    1.2866 H   0  0  0  0  0  0  0  0  0  0  0  0
    7.4614    0.4091    2.3487 H   0  0  0  0  0  0  0  0  0  0  0  0
   -0.2988    1.8736    1.7259 H   0  0  0  0  0  0  0  0  0  0  0  0
   -2.7160    0.3512   -0.6158 H   0  0  0  0  0  0  0  0  0  0  0  0
   -6.3154    2.2177   -2.0598 H   0  0  0  0  0  0  0  0  0  0  0  0
   -7.9278    0.2082   -0.8880 H   0  0  0  0  0  0  0  0  0  0  0  0
   -5.2703   -1.6199    0.6493 H   0  0  0  0  0  0  0  0  0  0  0  0
   -1.4229   -1.1434    2.7263 H   0  0  0  0  0  0  0  0  0  0  0  0
   -4.7736    1.1522    1.1475 H   0  0  0  0  0  0  0  0  0  0  0  0
    0.1311   -1.6700   -2.5868 H   0  0  0  0  0  0  0  0  0  0  0  0
    1.1590    0.2143   -1.8742 H   0  0  0  0  0  0  0  0  0  0  0  0
   -3.0328   -2.0086    0.9505 H   0  0  0  0  0  0  0  0  0  0  0  0
   -0.8490    0.9648   -0.2124 H   0  0  0  0  0  0  0  0  0  0  0  0
   -0.6468   -1.7470    1.2464 H   0  0  0  0  0  0  0  0  0  0  0  0
   -7.6027    4.1267    0.3282 H   0  0  0  0  0  0  0  0  0  0  0  0
   -6.3513    4.1058   -1.0149 H   0  0  0  0  0  0  0  0  0  0  0  0
   -7.9674    3.4377   -1.3045 H   0  0  0  0  0  0  0  0  0  0  0  0
  4  7  1  0
  3 13  1  0
 13 14  1  0
 16 18  1  0
 17 19  1  0
  8 20  1  0
  1 22  1  0
 14 23  1  0
  2 24  1  0
 10 24  1  0
  5 25  1  0
  9 25  1  0
 24 25  1  0
  6 26  1  0
  9 26  1  0
  7 27  1  0
  8 27  1  0
 10 28  1  0
 21 28  1  0
 26 28  1  0
 12 29  1  0
 22 29  1  0
 11 30  1  0
 23 30  1  0
 29 30  1  0
 21 31  1  0
 27 31  1  0
 11 32  1  0
 20 32  1  0
 12 33  1  0
 31 33  1  0
 32 33  1  0
  3 34  1  0
 16 34  1  0
 17 34  1  0
 15 35  1  0
 18 35  1  0
 19 35  1  0
  2 36  1  0
 40 43  1  0
 39 49  1  0
 49 50  1  0
 52 54  1  0
 53 55  1  0
 44 56  1  0
 37 58  1  0
 50 59  1  0
 38 60  1  0
 46 60  1  0
 41 61  1  0
 45 61  1  0
 60 61  1  0
 42 62  1  0
 45 62  1  0
 43 63  1  0
 44 63  1  0
 46 64  1  0
 57 64  1  0
 62 64  1  0
 48 65  1  0
 58 65  1  0
 47 66  1  0
 59 66  1  0
 65 66  1  0
 57 67  1  0
 63 67  1  0
 47 68  1  0
 56 68  1  0
 48 69  1  0
 67 69  1  0
 68 69  1  0
 39 70  1  0
 52 70  1  0
 53 70  1  0
 51 71  1  0
 54 71  1  0
 55 71  1  0
 38 72  1  0
  1 73  1  0
  1 74  1  0
  1 75  1  0
  3 76  1  0
  3 77  1  0
  4 78  1  0
  4 79  1  0
  7 80  1  0
  7 81  1  0
  8 82  1  0
  8 83  1  0
  9 84  1  0
  9 85  1  0
 10 86  1  0
 10 87  1  0
 11 88  1  0
 11 89  1  0
 12 90  1  0
 12 91  1  0
 13 92  1  0
 13 93  1  0
 14 94  1  0
 14 95  1  0
 15 96  1  0
 15 97  1  0
 15 98  1  0
 16 99  1  0
 16100  1  0
 17101  1  0
 17102  1  0
 18103  1  0
 18104  1  0
 19105  1  0
 19106  1  0
 20107  1  0
 21108  1  0
 24109  1  0
 25110  1  0
 26111  1  0
 27112  1  0
 28113  1  0
 29114  1  0
 30115  1  0
 31116  1  0
 32117  1  0
 33118  1  0
 36119  1  0
 36120  1  0
 36121  1  0
 37122  1  0
 37123  1  0
 37124  1  0
 39125  1  0
 39126  1  0
 40127  1  0
 40128  1  0
 43129  1  0
 43130  1  0
 44131  1  0
 44132  1  0
 45133  1  0
 45134  1  0
 46135  1  0
 46136  1  0
 47137  1  0
 47138  1  0
 48139  1  0
 48140  1  0
 49141  1  0
 49142  1  0
 50143  1  0
 50144  1  0
 51145  1  0
 51146  1  0
 51147  1  0
 52148  1  0
 52149  1  0
 53150  1  0
 53151  1  0
 54152  1  0
 54153  1  0
 55154  1  0
 55155  1  0
 56156  1  0
 57157  1  0
 60158  1  0
 61159  1  0
 62160  1  0
 63161  1  0
 64162  1  0
 65163  1  0
 66164  1  0
 67165  1  0
 68166  1  0
 69167  1  0
 72168  1  0
 72169  1  0
 72170  1  0
M  END
>  <PDBID>  (1) 
3UE4

>  <PDB ID>  (1) 
3UE4

>  <Generic Name>  (1) 
Bosutinib

>  <Brand Name>  (1) 
Bosulif

>  <DrugBank ID>  (1) 
DB06616

>  <ATC Codes>  (1) 
L01XE14

>  <Ligand ID>  (1) 
DB8

>  <Target Name>  (1) 
Tyrosine-protein kinase ABL1

>  <UniProt ID>  (1) 
P00519

>  <PDB ID.1>  (1) 
3UE4

>  <Seq. Identity>  (1) 
95%

$$$$
