PDB_DB08864_03
     RDKit          3D

 74 76  0  0  0  0  0  0  0  0999 V2000
   -2.7837    0.3760    1.3150 C   0  0  0  0  0  0  0  0  0  0  0  0
    2.3544   -0.4352   -1.8011 N   0  0  0  0  0  0  0  0  0  0  0  0
   -5.1224    0.0032    0.6978 C   0  0  0  0  0  0  0  0  0  0  0  0
   -4.6313   -0.7187   -0.5060 C   0  0  0  0  0  0  0  0  0  0  0  0
   -3.3370   -1.5004   -0.2059 C   0  0  0  0  0  0  0  0  0  0  0  0
   -2.3138   -0.4454    0.1231 C   0  0  0  0  0  0  0  0  0  0  0  0
   -2.9391    1.8349    0.9819 C   0  0  0  0  0  0  0  0  0  0  0  0
   -4.1105   -0.1340    1.8300 C   0  0  0  0  0  0  0  0  0  0  0  0
   -2.9782   -2.1631   -1.5326 C   0  0  0  0  0  0  0  0  0  0  0  0
   -1.0237   -0.9331    0.4195 N   0  0  0  0  0  0  0  0  0  0  0  0
    1.3236    0.5641   -2.1112 C   0  0  0  0  0  0  0  0  0  0  0  0
    0.2664    0.6119   -1.0220 C   0  0  0  0  0  0  0  0  0  0  0  0
   -0.0209   -0.7912   -0.5947 C   0  0  0  0  0  0  0  0  0  0  0  0
    1.2155   -1.3214    0.0010 N   0  0  0  0  0  0  0  0  0  0  0  0
    2.3709   -0.5135   -0.3551 C   0  0  1  0  0  0  0  0  0  0  0  0
    3.5306   -1.1261    0.1978 N   0  0  0  0  0  0  0  0  0  0  0  0
    7.2456    0.6950    0.9760 C   0  0  0  0  0  0  0  0  0  0  0  0
    6.3557    1.3198   -0.0810 C   0  0  0  0  0  0  0  0  0  0  0  0
    4.9018    0.9155    0.1747 C   0  0  0  0  0  0  0  0  0  0  0  0
    4.7736   -0.5284   -0.2175 C   0  0  0  0  0  0  0  0  0  0  0  0
    5.8829   -1.3394    0.4654 C   0  0  0  0  0  0  0  0  0  0  0  0
    6.5501   -0.5135    1.5671 C   0  0  0  0  0  0  0  0  0  0  0  0
    9.1250    1.4034   -0.3210 N   0  0  0  0  0  0  0  0  0  0  0  0
    8.5011    0.2241    0.2802 C   0  0  0  0  0  0  0  0  0  0  0  0
   -7.4705   -0.2355   -0.0083 C   0  0  0  0  0  0  0  0  0  0  0  0
   -6.4747   -0.4687    1.0896 C   0  0  0  0  0  0  0  0  0  0  0  0
   -8.5554    1.3971   -1.3695 N   0  0  0  0  0  0  0  0  0  0  0  0
   -7.5568    1.2334   -0.3126 C   0  0  0  0  0  0  0  0  0  0  0  0
   -5.3200   -1.4708   -0.9245 H   0  0  0  0  0  0  0  0  0  0  0  0
   -3.0421    2.0498   -0.0899 H   0  0  0  0  0  0  0  0  0  0  0  0
   -3.8307    2.2775    1.5102 H   0  0  0  0  0  0  0  0  0  0  0  0
   -2.0600    2.4188    1.3469 H   0  0  0  0  0  0  0  0  0  0  0  0
   -4.0647   -1.1445    2.2448 H   0  0  0  0  0  0  0  0  0  0  0  0
   -3.9001   -2.6986   -1.8830 H   0  0  0  0  0  0  0  0  0  0  0  0
   -2.7889   -1.3708   -2.2584 H   0  0  0  0  0  0  0  0  0  0  0  0
   -2.1640   -2.8976   -1.4064 H   0  0  0  0  0  0  0  0  0  0  0  0
   -0.6891   -0.8741    1.3766 H   0  0  0  0  0  0  0  0  0  0  0  0
    0.8425    0.2945   -3.0882 H   0  0  0  0  0  0  0  0  0  0  0  0
    0.5040    1.3145   -0.2028 H   0  0  0  0  0  0  0  0  0  0  0  0
    3.5555   -2.1487    0.2187 H   0  0  0  0  0  0  0  0  0  0  0  0
    6.4366    2.4184    0.0441 H   0  0  0  0  0  0  0  0  0  0  0  0
    4.6798    1.1440    1.2166 H   0  0  0  0  0  0  0  0  0  0  0  0
    5.4806   -2.2350    0.9912 H   0  0  0  0  0  0  0  0  0  0  0  0
    7.2882   -1.1561    2.0450 H   0  0  0  0  0  0  0  0  0  0  0  0
   -8.4757   -0.6609    0.2563 H   0  0  0  0  0  0  0  0  0  0  0  0
   -6.8450   -0.0086    2.0399 H   0  0  0  0  0  0  0  0  0  0  0  0
   -2.0663    0.3052    2.1766 H   0  0  0  0  0  0  0  0  0  0  0  0
    2.0987   -1.3776   -2.1702 H   0  0  0  0  0  0  0  0  0  0  0  0
   -5.1719    1.1162    0.5080 H   0  0  0  0  0  0  0  0  0  0  0  0
   -4.3484   -0.0174   -1.3149 H   0  0  0  0  0  0  0  0  0  0  0  0
   -3.4865   -2.2233    0.6021 H   0  0  0  0  0  0  0  0  0  0  0  0
   -2.3415    0.2628   -0.7450 H   0  0  0  0  0  0  0  0  0  0  0  0
   -4.4507    0.5467    2.6330 H   0  0  0  0  0  0  0  0  0  0  0  0
    1.8545    1.5341   -2.1707 H   0  0  0  0  0  0  0  0  0  0  0  0
   -0.6249    1.0822   -1.5287 H   0  0  0  0  0  0  0  0  0  0  0  0
   -0.2495   -1.3889   -1.4716 H   0  0  0  0  0  0  0  0  0  0  0  0
    1.1337   -1.5299    0.9928 H   0  0  0  0  0  0  0  0  0  0  0  0
    2.2883    0.5082    0.0763 H   0  0  0  0  0  0  0  0  0  0  0  0
    7.4537    1.3868    1.7970 H   0  0  0  0  0  0  0  0  0  0  0  0
    6.6701    1.0802   -1.1058 H   0  0  0  0  0  0  0  0  0  0  0  0
    4.3138    1.5177   -0.5513 H   0  0  0  0  0  0  0  0  0  0  0  0
    4.9398   -0.6077   -1.3048 H   0  0  0  0  0  0  0  0  0  0  0  0
    6.6269   -1.7116   -0.2743 H   0  0  0  0  0  0  0  0  0  0  0  0
    5.7614   -0.2305    2.2715 H   0  0  0  0  0  0  0  0  0  0  0  0
    9.0555    1.3704   -1.3655 H   0  0  0  0  0  0  0  0  0  0  0  0
    8.6458    2.2839   -0.0338 H   0  0  0  0  0  0  0  0  0  0  0  0
    8.1903   -0.4250   -0.5392 H   0  0  0  0  0  0  0  0  0  0  0  0
    9.1945   -0.2685    0.9930 H   0  0  0  0  0  0  0  0  0  0  0  0
   -7.1706   -0.7602   -0.9428 H   0  0  0  0  0  0  0  0  0  0  0  0
   -6.4434   -1.5911    1.2421 H   0  0  0  0  0  0  0  0  0  0  0  0
   -8.8670    2.3889   -1.4478 H   0  0  0  0  0  0  0  0  0  0  0  0
   -9.3178    0.7193   -1.1789 H   0  0  0  0  0  0  0  0  0  0  0  0
   -7.7791    1.8148    0.5879 H   0  0  0  0  0  0  0  0  0  0  0  0
   -6.5955    1.5516   -0.7805 H   0  0  0  0  0  0  0  0  0  0  0  0
  3  4  1  0
  4  5  1  0
  1  6  1  0
  5  6  1  0
  1  7  1  0
  1  8  1  0
  3  8  1  0
  5  9  1  0
  6 10  1  0
  2 11  1  0
 11 12  1  0
 10 13  1  0
 12 13  1  0
 13 14  1  0
  2 15  1  0
 14 15  1  0
 15 16  1  0
 17 18  1  0
 18 19  1  0
 16 20  1  0
 19 20  1  0
 20 21  1  0
 17 22  1  0
 21 22  1  0
 17 24  1  0
 23 24  1  0
  3 26  1  0
 25 26  1  0
 25 28  1  0
 27 28  1  0
  4 29  1  0
  7 30  1  0
  7 31  1  0
  7 32  1  0
  8 33  1  0
  9 34  1  0
  9 35  1  0
  9 36  1  0
 10 37  1  0
 11 38  1  0
 12 39  1  0
 16 40  1  0
 18 41  1  0
 19 42  1  0
 21 43  1  0
 22 44  1  0
 25 45  1  0
 26 46  1  0
  1 47  1  0
  2 48  1  0
  3 49  1  0
  4 50  1  0
  5 51  1  0
  6 52  1  0
  8 53  1  0
 11 54  1  0
 12 55  1  0
 13 56  1  0
 14 57  1  0
 15 58  1  1
 17 59  1  0
 18 60  1  0
 19 61  1  0
 20 62  1  0
 21 63  1  0
 22 64  1  0
 23 65  1  0
 23 66  1  0
 24 67  1  0
 24 68  1  0
 25 69  1  0
 26 70  1  0
 27 71  1  0
 27 72  1  0
 28 73  1  0
 28 74  1  0
M  END
>  <PDBID>  (1) 
4G1Q

>  <PDB ID>  (1) 
4G1Q

>  <Generic Name>  (1) 
Rilpivirine

>  <Brand Name>  (1) 
Complera#Edurant#Odefsey

>  <DrugBank ID>  (1) 
DB08864

>  <ATC Codes>  (1) 
nan

>  <Ligand ID>  (1) 
T27

>  <Target Name>  (1) 
Reverse transcriptase/RNaseH

>  <UniProt ID>  (1) 
Q72547

>  <PDB ID.1>  (1) 
4G1Q

>  <Seq. Identity>  (1) 
95%

$$$$
