PDB_DB00559_08
     RDKit          3D

 94 97  0  0  0  0  0  0  0  0999 V2000
    5.2354    0.4150   -0.1989 C   0  0  0  0  0  0  0  0  0  0  0  0
   -0.6756    1.1293    0.3670 C   0  0  0  0  0  0  0  0  0  0  0  0
   -2.4964    1.1998    1.9589 C   0  0  0  0  0  0  0  0  0  0  0  0
   -3.2962    3.5770   -0.4190 C   0  0  0  0  0  0  0  0  0  0  0  0
   -5.2120    4.1792   -2.2848 C   0  0  0  0  0  0  0  0  0  0  0  0
   -3.1897    0.5819    4.0715 C   0  0  0  0  0  0  0  0  0  0  0  0
    7.5288   -1.4583   -0.1113 C   0  0  0  0  0  0  0  0  0  0  0  0
    6.9481   -0.8994   -1.3614 C   0  0  0  0  0  0  0  0  0  0  0  0
    7.6761    0.3838   -1.7002 C   0  0  0  0  0  0  0  0  0  0  0  0
    7.2332   -1.8787   -2.5028 C   0  0  0  0  0  0  0  0  0  0  0  0
    5.4774   -0.5889   -1.2777 C   0  0  0  0  0  0  0  0  0  0  0  0
    4.6250   -1.8064   -1.1481 C   0  0  0  0  0  0  0  0  0  0  0  0
    3.1654   -1.3397   -1.1602 C   0  0  0  0  0  0  0  0  0  0  0  0
    2.9917   -0.4998    0.0889 C   0  0  0  0  0  0  0  0  0  0  0  0
    3.7716    0.7775   -0.1410 C   0  0  0  0  0  0  0  0  0  0  0  0
    1.4400   -0.2359    0.5051 S   0  0  0  0  0  0  0  0  0  0  0  0
    1.7160    0.7629    2.0529 O   0  0  0  0  0  0  0  0  0  0  0  0
    0.8298   -1.6534    1.3253 O   0  0  0  0  0  0  0  0  0  0  0  0
    0.4238    0.4843   -0.2681 N   0  0  0  0  0  0  0  0  0  0  0  0
   -1.6168    0.2608    1.1277 C   0  0  0  0  0  0  0  0  0  0  0  0
   -2.4085    2.5594    1.6228 N   0  0  0  0  0  0  0  0  0  0  0  0
   -2.1222    2.9456    0.2982 C   0  0  0  0  0  0  0  0  0  0  0  0
   -1.4704    1.9486   -0.5258 N   0  0  0  0  0  0  0  0  0  0  0  0
   -4.4429    2.7012   -0.5245 N   0  0  0  0  0  0  0  0  0  0  0  0
   -5.5595    3.5449   -0.9786 C   0  0  0  0  0  0  0  0  0  0  0  0
   -3.8879    4.9062   -2.2336 C   0  0  0  0  0  0  0  0  0  0  0  0
   -2.8975    3.9555   -1.7608 N   0  0  0  0  0  0  0  0  0  0  0  0
   -2.1500    1.0410    3.2949 O   0  0  0  0  0  0  0  0  0  0  0  0
   -2.7847    0.4206    5.5213 C   0  0  0  0  0  0  0  0  0  0  0  0
   -3.8621   -0.0455    6.2736 O   0  0  0  0  0  0  0  0  0  0  0  0
   -2.4784   -0.3616    0.2483 O   0  0  0  0  0  0  0  0  0  0  0  0
   -2.5652   -1.7085    0.2885 C   0  0  0  0  0  0  0  0  0  0  0  0
   -3.9177   -2.2547    0.6792 C   0  0  0  0  0  0  0  0  0  0  0  0
   -3.7749   -3.7583    0.7927 C   0  0  0  0  0  0  0  0  0  0  0  0
   -2.3717   -4.2393    0.5821 C   0  0  0  0  0  0  0  0  0  0  0  0
   -1.7350   -3.7846   -0.6887 C   0  0  0  0  0  0  0  0  0  0  0  0
   -2.2071   -2.3882   -1.0232 C   0  0  0  0  0  0  0  0  0  0  0  0
   -1.2889   -1.6819   -1.7680 O   0  0  0  0  0  0  0  0  0  0  0  0
   -1.8459   -1.3734   -3.0048 C   0  0  0  0  0  0  0  0  0  0  0  0
    5.5284    0.0280    0.7888 H   0  0  0  0  0  0  0  0  0  0  0  0
    5.7937    1.3458   -0.4009 H   0  0  0  0  0  0  0  0  0  0  0  0
   -0.2328    1.8516    1.1165 H   0  0  0  0  0  0  0  0  0  0  0  0
   -3.5816    0.8934    1.8960 H   0  0  0  0  0  0  0  0  0  0  0  0
   -3.6361    4.4989    0.0930 H   0  0  0  0  0  0  0  0  0  0  0  0
   -5.9879    4.9266   -2.5517 H   0  0  0  0  0  0  0  0  0  0  0  0
   -5.1641    3.4107   -3.0591 H   0  0  0  0  0  0  0  0  0  0  0  0
   -3.4425   -0.4487    3.7031 H   0  0  0  0  0  0  0  0  0  0  0  0
   -4.0828    1.2487    4.0694 H   0  0  0  0  0  0  0  0  0  0  0  0
    6.8101   -1.7646    0.6526 H   0  0  0  0  0  0  0  0  0  0  0  0
    8.2352   -0.7356    0.3930 H   0  0  0  0  0  0  0  0  0  0  0  0
    8.1642   -2.3563   -0.3230 H   0  0  0  0  0  0  0  0  0  0  0  0
    7.1198    0.9943   -2.4383 H   0  0  0  0  0  0  0  0  0  0  0  0
    7.8291    0.9322   -0.7516 H   0  0  0  0  0  0  0  0  0  0  0  0
    8.6931    0.1564   -2.1293 H   0  0  0  0  0  0  0  0  0  0  0  0
    7.0081   -2.9126   -2.1617 H   0  0  0  0  0  0  0  0  0  0  0  0
    6.6557   -1.6172   -3.4017 H   0  0  0  0  0  0  0  0  0  0  0  0
    8.3118   -1.8295   -2.7325 H   0  0  0  0  0  0  0  0  0  0  0  0
    5.2067   -0.1110   -2.2595 H   0  0  0  0  0  0  0  0  0  0  0  0
    4.7511   -2.3247   -0.1683 H   0  0  0  0  0  0  0  0  0  0  0  0
    4.8447   -2.5306   -1.9320 H   0  0  0  0  0  0  0  0  0  0  0  0
    2.9246   -0.7909   -2.0869 H   0  0  0  0  0  0  0  0  0  0  0  0
    2.5462   -2.2582   -1.0611 H   0  0  0  0  0  0  0  0  0  0  0  0
    3.5631   -1.0590    0.8909 H   0  0  0  0  0  0  0  0  0  0  0  0
    3.4992    1.1112   -1.1854 H   0  0  0  0  0  0  0  0  0  0  0  0
    3.5517    1.5631    0.5916 H   0  0  0  0  0  0  0  0  0  0  0  0
    2.3790    0.1760    2.4919 H   0  0  0  0  0  0  0  0  0  0  0  0
    1.6147   -2.2177    1.4136 H   0  0  0  0  0  0  0  0  0  0  0  0
    0.4291    0.6953   -1.2978 H   0  0  0  0  0  0  0  0  0  0  0  0
   -1.0568   -0.3881    1.7917 H   0  0  0  0  0  0  0  0  0  0  0  0
   -2.3077    3.2483    2.3663 H   0  0  0  0  0  0  0  0  0  0  0  0
   -1.3608    3.7855    0.3655 H   0  0  0  0  0  0  0  0  0  0  0  0
   -2.1578    1.3337   -1.0118 H   0  0  0  0  0  0  0  0  0  0  0  0
   -4.7169    2.4369    0.4625 H   0  0  0  0  0  0  0  0  0  0  0  0
   -5.7092    4.2933   -0.1693 H   0  0  0  0  0  0  0  0  0  0  0  0
   -6.4524    2.9093   -1.1322 H   0  0  0  0  0  0  0  0  0  0  0  0
   -3.6060    5.2354   -3.2329 H   0  0  0  0  0  0  0  0  0  0  0  0
   -3.9972    5.7654   -1.5261 H   0  0  0  0  0  0  0  0  0  0  0  0
   -2.9983    3.0910   -2.3592 H   0  0  0  0  0  0  0  0  0  0  0  0
   -2.5238    1.4179    5.9665 H   0  0  0  0  0  0  0  0  0  0  0  0
   -1.8883   -0.2254    5.5958 H   0  0  0  0  0  0  0  0  0  0  0  0
   -4.1346   -0.9649    5.9974 H   0  0  0  0  0  0  0  0  0  0  0  0
   -1.8642   -2.0806    1.0877 H   0  0  0  0  0  0  0  0  0  0  0  0
   -4.6741   -2.0706   -0.1205 H   0  0  0  0  0  0  0  0  0  0  0  0
   -4.2283   -1.8804    1.6656 H   0  0  0  0  0  0  0  0  0  0  0  0
   -4.4273   -4.3028    0.0740 H   0  0  0  0  0  0  0  0  0  0  0  0
   -4.0884   -4.1258    1.8029 H   0  0  0  0  0  0  0  0  0  0  0  0
   -2.4481   -5.3654    0.5080 H   0  0  0  0  0  0  0  0  0  0  0  0
   -1.7375   -4.0739    1.4808 H   0  0  0  0  0  0  0  0  0  0  0  0
   -0.6200   -3.8048   -0.5361 H   0  0  0  0  0  0  0  0  0  0  0  0
   -1.9325   -4.4783   -1.5413 H   0  0  0  0  0  0  0  0  0  0  0  0
   -3.1681   -2.5346   -1.6010 H   0  0  0  0  0  0  0  0  0  0  0  0
   -2.1308   -2.3013   -3.5662 H   0  0  0  0  0  0  0  0  0  0  0  0
   -2.7750   -0.7850   -2.8868 H   0  0  0  0  0  0  0  0  0  0  0  0
   -1.1323   -0.8286   -3.6581 H   0  0  0  0  0  0  0  0  0  0  0  0
  8  7  1  0
  8  9  1  0
  8 10  1  0
  1 11  1  0
  8 11  1  0
 11 12  1  0
 12 13  1  0
 13 14  1  0
  1 15  1  0
 14 15  1  0
 14 16  1  0
 16 17  1  0
 16 18  1  0
  2 19  1  0
 16 19  1  0
  2 20  1  0
  3 20  1  0
  3 21  1  0
  4 22  1  0
 21 22  1  0
  2 23  1  0
 22 23  1  0
  4 24  1  0
  5 25  1  0
 24 25  1  0
  5 26  1  0
  4 27  1  0
 26 27  1  0
  3 28  1  0
  6 28  1  0
  6 29  1  0
 29 30  1  0
 20 31  1  0
 31 32  1  0
 32 33  1  0
 33 34  1  0
 34 35  1  0
 35 36  1  0
 32 37  1  0
 36 37  1  0
 37 38  1  0
 38 39  1  0
  1 40  1  0
  1 41  1  0
  2 42  1  0
  3 43  1  0
  4 44  1  0
  5 45  1  0
  5 46  1  0
  6 47  1  0
  6 48  1  0
  7 49  1  0
  7 50  1  0
  7 51  1  0
  9 52  1  0
  9 53  1  0
  9 54  1  0
 10 55  1  0
 10 56  1  0
 10 57  1  0
 11 58  1  0
 12 59  1  0
 12 60  1  0
 13 61  1  0
 13 62  1  0
 14 63  1  0
 15 64  1  0
 15 65  1  0
 17 66  1  0
 18 67  1  0
 19 68  1  0
 20 69  1  0
 21 70  1  0
 22 71  1  0
 23 72  1  0
 24 73  1  0
 25 74  1  0
 25 75  1  0
 26 76  1  0
 26 77  1  0
 27 78  1  0
 29 79  1  0
 29 80  1  0
 30 81  1  0
 32 82  1  0
 33 83  1  0
 33 84  1  0
 34 85  1  0
 34 86  1  0
 35 87  1  0
 35 88  1  0
 36 89  1  0
 36 90  1  0
 37 91  1  0
 39 92  1  0
 39 93  1  0
 39 94  1  0
M  END
>  <PDBID>  (1) 
5XPR

>  <PDB ID>  (1) 
5XPR

>  <Generic Name>  (1) 
Bosentan

>  <Brand Name>  (1) 
Accel-bosentan#Act Bosentan#Apo-bosentan#Bosentan Tablets#Ipg-bosentan#Mar-bosentan#Mylan-bosentan#PMS-bosentan#Sandoz Bosentan#Teva-bosentan#Tracleer

>  <DrugBank ID>  (1) 
DB00559

>  <ATC Codes>  (1) 
C02KX01

>  <Ligand ID>  (1) 
K86

>  <Target Name>  (1) 
Endothelin B receptor

>  <UniProt ID>  (1) 
P24530

>  <PDB ID.1>  (1) 
5XPR

>  <Seq. Identity>  (1) 
85%

$$$$
