PDB_DB00951_05
     RDKit          3D

 25 25  0  0  0  0  0  0  0  0999 V2000
   -1.2918   -0.8513    0.0513 C   0  0  2  0  0  0  0  0  0  0  0  0
   -0.1591   -0.0704    0.7082 C   0  0  0  0  0  0  0  0  0  0  0  0
    2.5688    0.2504   -0.3401 N   0  0  0  0  0  0  0  0  0  0  0  0
   -0.8821   -1.3496   -1.2027 O   0  0  0  0  0  0  0  0  0  0  0  0
    0.2641    1.0899   -0.1348 C   0  0  0  0  0  0  0  0  0  0  0  0
   -2.3741    0.0571   -0.1989 N   0  0  0  0  0  0  0  0  0  0  0  0
    1.7307    1.3719   -0.0924 C   0  0  0  0  0  0  0  0  0  0  0  0
   -2.8919    0.6681    0.9126 N   0  0  0  0  0  0  0  0  0  0  0  0
    1.9042   -1.0236   -0.2298 C   0  0  0  0  0  0  0  0  0  0  0  0
    0.9749   -1.0505    0.9419 C   0  0  0  0  0  0  0  0  0  0  0  0
   -1.5451   -1.7127    0.6713 H   0  0  0  0  0  0  0  0  0  0  0  0
   -0.5305    0.2197    1.7120 H   0  0  0  0  0  0  0  0  0  0  0  0
    3.4503    0.3047    0.1925 H   0  0  0  0  0  0  0  0  0  0  0  0
   -1.2336   -0.8234   -1.9455 H   0  0  0  0  0  0  0  0  0  0  0  0
   -0.0927    0.9995   -1.1710 H   0  0  0  0  0  0  0  0  0  0  0  0
   -0.2552    2.0018    0.2832 H   0  0  0  0  0  0  0  0  0  0  0  0
   -3.0769   -0.3059   -0.8712 H   0  0  0  0  0  0  0  0  0  0  0  0
    1.9403    2.1336   -0.8927 H   0  0  0  0  0  0  0  0  0  0  0  0
    2.0346    1.8917    0.8610 H   0  0  0  0  0  0  0  0  0  0  0  0
   -3.8729    0.3657    1.1524 H   0  0  0  0  0  0  0  0  0  0  0  0
   -2.9885    1.7030    0.6856 H   0  0  0  0  0  0  0  0  0  0  0  0
    1.4538   -1.2598   -1.1895 H   0  0  0  0  0  0  0  0  0  0  0  0
    2.7053   -1.7992   -0.0529 H   0  0  0  0  0  0  0  0  0  0  0  0
    1.5593   -0.7402    1.8387 H   0  0  0  0  0  0  0  0  0  0  0  0
    0.6080   -2.0704    1.1448 H   0  0  0  0  0  0  0  0  0  0  0  0
  1  2  1  0
  1  4  1  0
  2  5  1  0
  1  6  1  0
  3  7  1  0
  5  7  1  0
  6  8  1  0
  3  9  1  0
  2 10  1  0
  9 10  1  0
  1 11  1  1
  2 12  1  0
  3 13  1  0
  4 14  1  0
  5 15  1  0
  5 16  1  0
  6 17  1  0
  7 18  1  0
  7 19  1  0
  8 20  1  0
  8 21  1  0
  9 22  1  0
  9 23  1  0
 10 24  1  0
 10 25  1  0
M  END
>  <PDBID>  (1) 
5KSG

>  <PDB ID>  (1) 
5KSG

>  <Generic Name>  (1) 
Isoniazid

>  <Brand Name>  (1) 
Dom-isoniazid 300mg Tablets#Isonarif#Isoniazid#Isoniazid Syrup 50mg/5ml#Isoniazid Tab 100mg#Isoniazid Tab 300mg#Isoniazid Tab 50mg#Isoniazide 100mg Tablets#Isotamine B 300#Isotamine Powder#Isotamine Syr Pediatric 50mg/5ml#Isotamine-100#Isotamine-300#Pdp-isoniazid#Rifamate#Rifater#Nicozid#Nidrazid#Nydrazid#Rimicid#Rimifon#Servizid#Tibinide

>  <DrugBank ID>  (1) 
DB00951

>  <ATC Codes>  (1) 
J04AM04#J04AM02#J04AM06#J04AM03#J04AM05#J04AM01#J04AC51#J04AC01

>  <Ligand ID>  (1) 
NIZ

>  <Target Name>  (1) 
Catalase-peroxidase

>  <UniProt ID>  (1) 
Q08129

>  <PDB ID.1>  (1) 
5KSG

>  <Seq. Identity>  (1) 
66%

$$$$
