PDB_DB00148_04
     RDKit          3D

 22 21  0  0  0  0  0  0  0  0999 V2000
    3.0500    0.2747   -0.4788 O   0  0  0  0  0  0  0  0  0  0  0  0
    1.7608    0.4066    0.1304 C   0  0  0  0  0  0  0  0  0  0  0  0
    1.3251    1.6396   -0.3633 O   0  0  0  0  0  0  0  0  0  0  0  0
    0.9377   -0.7605   -0.2628 C   0  0  0  0  0  0  0  0  0  0  0  0
   -0.3644   -0.8911    0.2291 N   0  0  0  0  0  0  0  0  0  0  0  0
   -1.0181   -2.1254   -0.1800 C   0  0  0  0  0  0  0  0  0  0  0  0
   -1.2430    0.2105    0.2859 C   0  0  0  0  0  0  0  0  0  0  0  0
   -0.7819    1.2877    1.1353 N   0  0  0  0  0  0  0  0  0  0  0  0
   -1.7125    0.7126   -0.9875 N   0  0  0  0  0  0  0  0  0  0  0  0
    3.7446    0.4501    0.2337 H   0  0  0  0  0  0  0  0  0  0  0  0
    1.9126    0.4749    1.2096 H   0  0  0  0  0  0  0  0  0  0  0  0
    2.0156    2.2966   -0.0420 H   0  0  0  0  0  0  0  0  0  0  0  0
    0.9931   -0.8424   -1.3927 H   0  0  0  0  0  0  0  0  0  0  0  0
    1.5146   -1.6780    0.0865 H   0  0  0  0  0  0  0  0  0  0  0  0
   -0.5983   -2.5939   -1.0657 H   0  0  0  0  0  0  0  0  0  0  0  0
   -2.0930   -1.9173   -0.2910 H   0  0  0  0  0  0  0  0  0  0  0  0
   -0.9214   -2.8674    0.6538 H   0  0  0  0  0  0  0  0  0  0  0  0
   -2.1852   -0.1753    0.8055 H   0  0  0  0  0  0  0  0  0  0  0  0
   -1.2298    1.2653    2.0890 H   0  0  0  0  0  0  0  0  0  0  0  0
   -1.1217    2.2044    0.7217 H   0  0  0  0  0  0  0  0  0  0  0  0
   -1.2533    1.6503   -1.1414 H   0  0  0  0  0  0  0  0  0  0  0  0
   -2.7316    0.9781   -0.8759 H   0  0  0  0  0  0  0  0  0  0  0  0
  1  2  1  0
  2  3  1  0
  2  4  1  0
  4  5  1  0
  5  6  1  0
  5  7  1  0
  7  8  1  0
  7  9  1  0
  1 10  1  0
  2 11  1  0
  3 12  1  0
  4 13  1  0
  4 14  1  0
  6 15  1  0
  6 16  1  0
  6 17  1  0
  7 18  1  0
  8 19  1  0
  8 20  1  0
  9 21  1  0
  9 22  1  0
M  END
>  <PDBID>  (1) 
3B6R

>  <PDB ID>  (1) 
3B6R

>  <Generic Name>  (1) 
Creatine

>  <Brand Name>  (1) 
nan

>  <DrugBank ID>  (1) 
DB00148

>  <ATC Codes>  (1) 
nan

>  <Ligand ID>  (1) 
CRN

>  <Target Name>  (1) 
Creatine kinase B-type

>  <UniProt ID>  (1) 
P12277

>  <PDB ID.1>  (1) 
3B6R

>  <Seq. Identity>  (1) 
96%

$$$$
