PDB_DB00320_00
     RDKit          3D

100107  0  0  0  0  0  0  0  0999 V2000
   -3.4773   -0.8091   -0.6132 C   0  0  0  0  0  0  0  0  0  0  0  0
   -4.6896   -0.4947    0.2236 C   0  0  2  0  0  0  0  0  0  0  0  0
   -5.3874    0.6847   -0.3369 C   0  0  2  0  0  0  0  0  0  0  0  0
   -6.6544    0.8625    0.4557 C   0  0  2  0  0  0  0  0  0  0  0  0
   -5.7796    0.6333   -1.7649 C   0  0  0  0  0  0  0  0  0  0  0  0
   -7.1609    1.1584   -2.0533 C   0  0  0  0  0  0  0  0  0  0  0  0
   -7.5786    2.3244   -1.2002 C   0  0  0  0  0  0  0  0  0  0  0  0
   -7.0214    2.3301    0.1698 C   0  0  0  0  0  0  0  0  0  0  0  0
   -7.9022    2.5863    1.2490 N   0  0  0  0  0  0  0  0  0  0  0  0
   -7.1097    2.0785    2.3881 C   0  0  0  0  0  0  0  0  0  0  0  0
   -6.5611    0.7237    1.9073 C   0  0  0  0  0  0  0  0  0  0  0  0
   -5.2741    0.3610    2.5100 C   0  0  0  0  0  0  0  0  0  0  0  0
   -4.1702   -0.0251    1.5948 C   0  0  1  0  0  0  0  0  0  0  0  0
   -3.2003   -0.9345    2.1005 N   0  0  0  0  0  0  0  0  0  0  0  0
   -3.3481   -1.2397    3.5046 C   0  0  0  0  0  0  0  0  0  0  0  0
   -3.0630   -2.1635    1.3791 C   0  0  0  0  0  0  0  0  0  0  0  0
   -2.7436   -2.0388   -0.0628 C   0  0  2  0  0  0  0  0  0  0  0  0
   -1.3139   -2.0043   -0.4462 C   0  0  0  0  0  0  0  0  0  0  0  0
   -0.6638   -3.1284    0.0643 O   0  0  0  0  0  0  0  0  0  0  0  0
   -0.6142   -0.7873   -0.1851 N   0  0  0  0  0  0  0  0  0  0  0  0
    0.7430   -0.9838   -0.7231 C   0  0  2  0  0  0  0  0  0  0  0  0
    0.6043   -1.1987   -2.2159 C   0  0  0  0  0  0  0  0  0  0  0  0
    1.2958   -2.0411   -0.0677 O   0  0  0  0  0  0  0  0  0  0  0  0
    1.6523    0.1644   -0.4649 C   0  0  0  0  0  0  0  0  0  0  0  0
    1.8162    0.9852   -1.5731 O   0  0  0  0  0  0  0  0  0  0  0  0
    2.8507   -0.3933    0.0684 N   0  0  0  0  0  0  0  0  0  0  0  0
    2.6619   -1.7721    0.0872 C   0  0  1  0  0  0  0  0  0  0  0  0
    2.9954   -2.3328    1.3446 O   0  0  0  0  0  0  0  0  0  0  0  0
    3.3583   -2.5894   -0.9589 C   0  0  2  0  0  0  0  0  0  0  0  0
    3.3069   -4.0517   -0.5906 C   0  0  0  0  0  0  0  0  0  0  0  0
    4.6176   -4.3685    0.0698 C   0  0  0  0  0  0  0  0  0  0  0  0
    5.5349   -3.3145   -0.4896 C   0  0  0  0  0  0  0  0  0  0  0  0
    4.7354   -2.2973   -1.0879 N   0  0  0  0  0  0  0  0  0  0  0  0
    5.0388   -1.0482   -0.3569 C   0  0  0  0  0  0  0  0  0  0  0  0
    6.3595   -0.8407   -0.5628 O   0  0  0  0  0  0  0  0  0  0  0  0
    4.0570    0.0105   -0.6842 C   0  0  2  0  0  0  0  0  0  0  0  0
    4.4309    1.3776   -0.3238 C   0  0  0  0  0  0  0  0  0  0  0  0
    5.5112    2.1724   -0.8655 C   0  0  0  0  0  0  0  0  0  0  0  0
    5.4086    3.5918   -0.1715 C   0  0  0  0  0  0  0  0  0  0  0  0
    6.2434    3.5545    1.0700 C   0  0  0  0  0  0  0  0  0  0  0  0
    7.7001    3.7223    0.6522 C   0  0  0  0  0  0  0  0  0  0  0  0
    7.8118    3.1448   -0.7457 C   0  0  0  0  0  0  0  0  0  0  0  0
    6.9414    1.8400   -0.6992 C   0  0  0  0  0  0  0  0  0  0  0  0
   -3.6857   -0.8957   -1.6789 H   0  0  0  0  0  0  0  0  0  0  0  0
   -2.7696    0.0366   -0.4834 H   0  0  0  0  0  0  0  0  0  0  0  0
   -5.3851   -1.3313    0.3154 H   0  0  0  0  0  0  0  0  0  0  0  0
   -4.7419    1.5858   -0.1153 H   0  0  0  0  0  0  0  0  0  0  0  0
   -7.4219    0.1979   -0.0200 H   0  0  0  0  0  0  0  0  0  0  0  0
   -5.7416   -0.4102   -2.1630 H   0  0  0  0  0  0  0  0  0  0  0  0
   -5.0471    1.2560   -2.3463 H   0  0  0  0  0  0  0  0  0  0  0  0
   -7.9307    0.3318   -2.0311 H   0  0  0  0  0  0  0  0  0  0  0  0
   -7.1645    1.5104   -3.1133 H   0  0  0  0  0  0  0  0  0  0  0  0
   -8.7010    2.2840   -1.1196 H   0  0  0  0  0  0  0  0  0  0  0  0
   -7.3835    3.3132   -1.7061 H   0  0  0  0  0  0  0  0  0  0  0  0
   -6.1007    2.9651    0.1678 H   0  0  0  0  0  0  0  0  0  0  0  0
   -7.9987    3.6175    1.3688 H   0  0  0  0  0  0  0  0  0  0  0  0
   -6.2368    2.7375    2.5055 H   0  0  0  0  0  0  0  0  0  0  0  0
   -7.7291    1.9703    3.2868 H   0  0  0  0  0  0  0  0  0  0  0  0
   -7.3608   -0.0087    2.2349 H   0  0  0  0  0  0  0  0  0  0  0  0
   -4.9282    1.2255    3.1512 H   0  0  0  0  0  0  0  0  0  0  0  0
   -5.4096   -0.4749    3.2451 H   0  0  0  0  0  0  0  0  0  0  0  0
   -3.6120    0.9291    1.3448 H   0  0  0  0  0  0  0  0  0  0  0  0
   -2.4003   -1.7244    3.8285 H   0  0  0  0  0  0  0  0  0  0  0  0
   -3.4857   -0.3618    4.1430 H   0  0  0  0  0  0  0  0  0  0  0  0
   -4.1405   -2.0248    3.6851 H   0  0  0  0  0  0  0  0  0  0  0  0
   -4.0684   -2.6761    1.4650 H   0  0  0  0  0  0  0  0  0  0  0  0
   -2.3762   -2.8303    1.9409 H   0  0  0  0  0  0  0  0  0  0  0  0
   -3.2457   -2.8980   -0.6041 H   0  0  0  0  0  0  0  0  0  0  0  0
   -1.2797   -2.1432   -1.5691 H   0  0  0  0  0  0  0  0  0  0  0  0
   -0.5871   -3.8568   -0.5863 H   0  0  0  0  0  0  0  0  0  0  0  0
   -0.5896   -0.4857    0.7987 H   0  0  0  0  0  0  0  0  0  0  0  0
    1.4651   -0.6764   -2.7260 H   0  0  0  0  0  0  0  0  0  0  0  0
    0.5364   -2.2593   -2.4993 H   0  0  0  0  0  0  0  0  0  0  0  0
   -0.3031   -0.6959   -2.6249 H   0  0  0  0  0  0  0  0  0  0  0  0
    1.1878    0.7994    0.3303 H   0  0  0  0  0  0  0  0  0  0  0  0
    1.1767    1.7307   -1.6045 H   0  0  0  0  0  0  0  0  0  0  0  0
    2.5976   -1.7965    2.0833 H   0  0  0  0  0  0  0  0  0  0  0  0
    2.8875   -2.4987   -1.9602 H   0  0  0  0  0  0  0  0  0  0  0  0
    3.2581   -4.6733   -1.5172 H   0  0  0  0  0  0  0  0  0  0  0  0
    2.4740   -4.2823    0.1060 H   0  0  0  0  0  0  0  0  0  0  0  0
    4.9897   -5.3720   -0.2307 H   0  0  0  0  0  0  0  0  0  0  0  0
    4.5786   -4.3666    1.1670 H   0  0  0  0  0  0  0  0  0  0  0  0
    6.2603   -2.9344    0.2424 H   0  0  0  0  0  0  0  0  0  0  0  0
    6.1514   -3.7728   -1.3168 H   0  0  0  0  0  0  0  0  0  0  0  0
    4.9300   -1.2918    0.7468 H   0  0  0  0  0  0  0  0  0  0  0  0
    6.6457   -1.1393   -1.4629 H   0  0  0  0  0  0  0  0  0  0  0  0
    3.8440   -0.0831   -1.7891 H   0  0  0  0  0  0  0  0  0  0  0  0
    4.5648    1.4423    0.8401 H   0  0  0  0  0  0  0  0  0  0  0  0
    3.4694    2.0247   -0.3901 H   0  0  0  0  0  0  0  0  0  0  0  0
    5.3820    2.4528   -1.9615 H   0  0  0  0  0  0  0  0  0  0  0  0
    4.3495    3.7187    0.1204 H   0  0  0  0  0  0  0  0  0  0  0  0
    5.6685    4.3749   -0.8782 H   0  0  0  0  0  0  0  0  0  0  0  0
    6.1145    2.5581    1.5439 H   0  0  0  0  0  0  0  0  0  0  0  0
    5.9392    4.3526    1.7637 H   0  0  0  0  0  0  0  0  0  0  0  0
    8.0490    4.7624    0.7268 H   0  0  0  0  0  0  0  0  0  0  0  0
    8.3316    3.0972    1.3142 H   0  0  0  0  0  0  0  0  0  0  0  0
    7.4984    3.8018   -1.5452 H   0  0  0  0  0  0  0  0  0  0  0  0
    8.8495    2.7767   -0.8464 H   0  0  0  0  0  0  0  0  0  0  0  0
    7.3964    1.2644   -1.5521 H   0  0  0  0  0  0  0  0  0  0  0  0
    7.2673    1.3980    0.2342 H   0  0  0  0  0  0  0  0  0  0  0  0
  1  2  1  0
  2  3  1  0
  3  4  1  0
  3  5  1  0
  5  6  1  0
  6  7  1  0
  4  8  1  0
  7  8  1  0
  8  9  1  0
  9 10  1  0
  4 11  1  0
 10 11  1  0
 11 12  1  0
  2 13  1  0
 12 13  1  0
 13 14  1  0
 14 15  1  0
 14 16  1  0
  1 17  1  0
 16 17  1  0
 17 18  1  0
 18 19  1  0
 18 20  1  0
 21 20  1  1
 21 22  1  0
 21 23  1  0
 21 24  1  0
 24 25  1  0
 24 26  1  0
 23 27  1  0
 26 27  1  0
 27 28  1  1
 27 29  1  0
 29 30  1  0
 30 31  1  0
 31 32  1  0
 29 33  1  0
 32 33  1  0
 33 34  1  0
 34 35  1  0
 26 36  1  0
 34 36  1  0
 36 37  1  0
 37 38  1  0
 38 39  1  0
 39 40  1  0
 40 41  1  0
 41 42  1  0
 38 43  1  0
 42 43  1  0
  1 44  1  0
  1 45  1  0
  2 46  1  1
  3 47  1  6
  4 48  1  6
  5 49  1  0
  5 50  1  0
  6 51  1  0
  6 52  1  0
  7 53  1  0
  7 54  1  0
  8 55  1  0
  9 56  1  0
 10 57  1  0
 10 58  1  0
 11 59  1  0
 12 60  1  0
 12 61  1  0
 13 62  1  6
 15 63  1  0
 15 64  1  0
 15 65  1  0
 16 66  1  0
 16 67  1  0
 17 68  1  6
 18 69  1  0
 19 70  1  0
 20 71  1  0
 22 72  1  0
 22 73  1  0
 22 74  1  0
 24 75  1  0
 25 76  1  0
 28 77  1  0
 29 78  1  6
 30 79  1  0
 30 80  1  0
 31 81  1  0
 31 82  1  0
 32 83  1  0
 32 84  1  0
 34 85  1  0
 35 86  1  0
 36 87  1  6
 37 88  1  0
 37 89  1  0
 38 90  1  0
 39 91  1  0
 39 92  1  0
 40 93  1  0
 40 94  1  0
 41 95  1  0
 41 96  1  0
 42 97  1  0
 42 98  1  0
 43 99  1  0
 43100  1  0
M  END
>  <PDBID>  (1) 
4IAQ

>  <PDB ID>  (1) 
4IAQ

>  <Generic Name>  (1) 
Dihydroergotamine

>  <Brand Name>  (1) 
D.H.E. 45#Dihydroergotamine (dhe), 1mg/ml#Dihydroergotamine Mesylate#Dihydroergotamine Mesylate Injection USP#Migranal#Migranal Nasal Spray 4mg/ml#PMS-dihydroergotamine#Dihydergot#Ergont#Ergotonin#Ikaran#Orstanorm#Verladyn

>  <DrugBank ID>  (1) 
DB00320

>  <ATC Codes>  (1) 
N02CA01#N02CA51

>  <Ligand ID>  (1) 
2GM

>  <Target Name>  (1) 
5-hydroxytryptamine receptor 1D

>  <UniProt ID>  (1) 
P28221

>  <PDB ID.1>  (1) 
4IAQ

>  <Seq. Identity>  (1) 
55%

$$$$
