PDB_DB01361_04
     RDKit          3D

134137  0  0  0  0  0  0  0  0999 V2000
   -6.2859    3.1890   -2.2416 C   0  0  0  0  0  0  0  0  0  0  0  0
   -5.2930    3.0228   -1.2893 O   0  0  0  0  0  0  0  0  0  0  0  0
   -4.7806    1.7342   -1.3884 C   0  0  1  0  0  0  0  0  0  0  0  0
   -3.3252    1.7633   -1.7027 C   0  0  0  0  0  0  0  0  0  0  0  0
   -2.5550    0.5818   -1.1418 C   0  0  1  0  0  0  0  0  0  0  0  0
   -3.3360   -0.5550   -1.0637 O   0  0  0  0  0  0  0  0  0  0  0  0
   -4.4687   -0.4244   -0.2965 C   0  0  1  0  0  0  0  0  0  0  0  0
   -4.3426   -1.0988    1.0526 C   0  0  0  0  0  0  0  0  0  0  0  0
   -4.9620    0.9655   -0.0892 C   0  0  2  0  0  0  0  0  0  0  0  0
   -6.3375    0.9191    0.1336 O   0  0  0  0  0  0  0  0  0  0  0  0
   -6.7444    1.5087    1.2977 C   0  0  1  0  0  0  0  0  0  0  0  0
   -7.4948    2.6507    0.9180 O   0  0  0  0  0  0  0  0  0  0  0  0
   -7.6286    0.6868    2.1706 C   0  0  0  0  0  0  0  0  0  0  0  0
   -1.4851    0.3781   -1.9785 O   0  0  0  0  0  0  0  0  0  0  0  0
   -0.2344    0.4731   -1.4278 C   0  0  2  0  0  0  0  0  0  0  0  0
    0.4194    1.6962   -2.0894 C   0  0  2  0  0  0  0  0  0  0  0  0
    0.6363    2.7916   -1.1042 C   0  0  0  0  0  0  0  0  0  0  0  0
   -0.1217    2.5695    0.0538 O   0  0  0  0  0  0  0  0  0  0  0  0
    1.9697    3.0274   -0.7732 O   0  0  0  0  0  0  0  0  0  0  0  0
    2.0442    3.7392    0.4509 C   0  0  2  0  0  0  0  0  0  0  0  0
    1.4998    5.1273    0.2471 C   0  0  0  0  0  0  0  0  0  0  0  0
    3.4281    3.7854    0.9809 C   0  0  2  0  0  0  0  0  0  0  0  0
    3.9019    5.2211    0.9624 C   0  0  0  0  0  0  0  0  0  0  0  0
    4.4460    2.9825    0.2245 C   0  0  1  0  0  0  0  0  0  0  0  0
    5.1145    3.8641   -0.6213 O   0  0  0  0  0  0  0  0  0  0  0  0
    4.9164    3.6602   -1.9584 C   0  0  2  0  0  0  0  0  0  0  0  0
    6.1850    3.3414   -2.4980 O   0  0  0  0  0  0  0  0  0  0  0  0
    4.4838    4.9138   -2.6917 C   0  0  0  0  0  0  0  0  0  0  0  0
    5.3723    2.1472    1.0611 C   0  0  2  0  0  0  0  0  0  0  0  0
    5.2719    0.6800    0.8467 C   0  0  2  0  0  0  0  0  0  0  0  0
    5.4758    0.4917   -0.5518 O   0  0  0  0  0  0  0  0  0  0  0  0
    4.0910   -0.0715    1.2581 C   0  0  2  0  0  0  0  0  0  0  0  0
    2.8238    0.7044    1.2427 O   0  0  0  0  0  0  0  0  0  0  0  0
    3.2330   -0.0188    2.3615 C   0  0  0  0  0  0  0  0  0  0  0  0
    3.8517   -1.2286    0.2611 C   0  0  0  0  0  0  0  0  0  0  0  0
    2.8901   -0.9090   -0.8121 C   0  0  1  0  0  0  0  0  0  0  0  0
    3.3627   -1.5741   -2.0893 C   0  0  0  0  0  0  0  0  0  0  0  0
    1.4283   -1.2161   -0.5477 C   0  0  2  0  0  0  0  0  0  0  0  0
    1.2908   -2.5829   -0.3472 O   0  0  0  0  0  0  0  0  0  0  0  0
    0.6554   -2.9237    0.7968 C   0  0  2  0  0  0  0  0  0  0  0  0
    1.5413   -3.3414    1.8266 O   0  0  0  0  0  0  0  0  0  0  0  0
    0.8335   -3.4158    3.0246 C   0  0  2  0  0  0  0  0  0  0  0  0
    1.0619   -4.7216    3.7650 C   0  0  0  0  0  0  0  0  0  0  0  0
   -0.6003   -3.0277    2.9434 C   0  0  0  0  0  0  0  0  0  0  0  0
   -1.3848   -3.6470    1.7990 C   0  0  2  0  0  0  0  0  0  0  0  0
   -2.2091   -4.7302    2.2782 N   0  0  0  0  0  0  0  0  0  0  0  0
   -3.1722   -4.2645    3.2697 C   0  0  0  0  0  0  0  0  0  0  0  0
   -2.9973   -5.3103    1.2143 C   0  0  0  0  0  0  0  0  0  0  0  0
   -0.3706   -4.0329    0.7561 C   0  0  1  0  0  0  0  0  0  0  0  0
   -0.8227   -4.3111   -0.4988 O   0  0  0  0  0  0  0  0  0  0  0  0
   -0.4867   -5.5599   -0.9772 C   0  0  2  0  0  0  0  0  0  0  0  0
    0.5426   -5.3272   -1.9492 O   0  0  0  0  0  0  0  0  0  0  0  0
   -1.5689   -6.3368   -1.6374 C   0  0  0  0  0  0  0  0  0  0  0  0
    0.5822   -0.7700   -1.7200 C   0  0  1  0  0  0  0  0  0  0  0  0
   -0.2322   -1.8351   -2.3745 C   0  0  0  0  0  0  0  0  0  0  0  0
    5.5561    2.5789    2.4743 C   0  0  0  0  0  0  0  0  0  0  0  0
   -0.3721    2.1445   -3.2997 C   0  0  0  0  0  0  0  0  0  0  0  0
   -6.7282    4.2090   -2.2026 H   0  0  0  0  0  0  0  0  0  0  0  0
   -7.1061    2.4709   -2.0399 H   0  0  0  0  0  0  0  0  0  0  0  0
   -5.9178    2.9584   -3.2689 H   0  0  0  0  0  0  0  0  0  0  0  0
   -5.3032    1.1749   -2.2040 H   0  0  0  0  0  0  0  0  0  0  0  0
   -3.1934    1.8530   -2.8058 H   0  0  0  0  0  0  0  0  0  0  0  0
   -2.8900    2.6784   -1.2570 H   0  0  0  0  0  0  0  0  0  0  0  0
   -2.1841    0.7908   -0.1220 H   0  0  0  0  0  0  0  0  0  0  0  0
   -5.2823   -0.9928   -0.8378 H   0  0  0  0  0  0  0  0  0  0  0  0
   -4.4435   -2.2009    0.9909 H   0  0  0  0  0  0  0  0  0  0  0  0
   -3.3622   -0.8866    1.5299 H   0  0  0  0  0  0  0  0  0  0  0  0
   -5.1269   -0.7391    1.7484 H   0  0  0  0  0  0  0  0  0  0  0  0
   -4.4231    1.4791    0.7271 H   0  0  0  0  0  0  0  0  0  0  0  0
   -5.9097    1.9305    1.9010 H   0  0  0  0  0  0  0  0  0  0  0  0
   -8.2876    2.2802    0.4570 H   0  0  0  0  0  0  0  0  0  0  0  0
   -8.6920    0.8378    1.8238 H   0  0  0  0  0  0  0  0  0  0  0  0
   -7.6273    0.9854    3.2234 H   0  0  0  0  0  0  0  0  0  0  0  0
   -7.4706   -0.4147    2.0346 H   0  0  0  0  0  0  0  0  0  0  0  0
   -0.1943    0.6731   -0.3591 H   0  0  0  0  0  0  0  0  0  0  0  0
    1.4038    1.3518   -2.4596 H   0  0  0  0  0  0  0  0  0  0  0  0
    0.2336    3.7374   -1.5603 H   0  0  0  0  0  0  0  0  0  0  0  0
   -0.9504    3.1074    0.0758 H   0  0  0  0  0  0  0  0  0  0  0  0
    1.3221    3.2427    1.1474 H   0  0  0  0  0  0  0  0  0  0  0  0
    1.7386    5.5662   -0.7485 H   0  0  0  0  0  0  0  0  0  0  0  0
    1.7996    5.7700    1.0975 H   0  0  0  0  0  0  0  0  0  0  0  0
    0.3647    5.0948    0.3001 H   0  0  0  0  0  0  0  0  0  0  0  0
    3.4376    3.5100    2.0810 H   0  0  0  0  0  0  0  0  0  0  0  0
    5.0220    5.2013    0.9220 H   0  0  0  0  0  0  0  0  0  0  0  0
    3.6129    5.7097    1.9188 H   0  0  0  0  0  0  0  0  0  0  0  0
    3.5447    5.7692    0.0699 H   0  0  0  0  0  0  0  0  0  0  0  0
    3.8723    2.2972   -0.4540 H   0  0  0  0  0  0  0  0  0  0  0  0
    4.2647    2.8326   -2.2326 H   0  0  0  0  0  0  0  0  0  0  0  0
    6.6672    4.1798   -2.7655 H   0  0  0  0  0  0  0  0  0  0  0  0
    5.2820    5.6957   -2.6592 H   0  0  0  0  0  0  0  0  0  0  0  0
    4.3487    4.6566   -3.7617 H   0  0  0  0  0  0  0  0  0  0  0  0
    3.4982    5.3007   -2.3455 H   0  0  0  0  0  0  0  0  0  0  0  0
    6.4025    2.4005    0.6081 H   0  0  0  0  0  0  0  0  0  0  0  0
    6.1739    0.1404    1.2801 H   0  0  0  0  0  0  0  0  0  0  0  0
    6.3488    0.8131   -0.8364 H   0  0  0  0  0  0  0  0  0  0  0  0
    3.2391    0.6094    3.2673 H   0  0  0  0  0  0  0  0  0  0  0  0
    2.5681   -0.9147    2.5646 H   0  0  0  0  0  0  0  0  0  0  0  0
    3.5746   -2.1500    0.7789 H   0  0  0  0  0  0  0  0  0  0  0  0
    4.8564   -1.4816   -0.2108 H   0  0  0  0  0  0  0  0  0  0  0  0
    2.8803    0.2027   -1.0487 H   0  0  0  0  0  0  0  0  0  0  0  0
    4.3256   -2.1229   -1.8709 H   0  0  0  0  0  0  0  0  0  0  0  0
    3.6322   -0.7935   -2.8190 H   0  0  0  0  0  0  0  0  0  0  0  0
    2.6279   -2.2997   -2.5031 H   0  0  0  0  0  0  0  0  0  0  0  0
    1.0409   -0.7573    0.3952 H   0  0  0  0  0  0  0  0  0  0  0  0
    0.2403   -1.9754    1.2374 H   0  0  0  0  0  0  0  0  0  0  0  0
    1.3239   -2.6283    3.6777 H   0  0  0  0  0  0  0  0  0  0  0  0
    0.1329   -5.0264    4.3318 H   0  0  0  0  0  0  0  0  0  0  0  0
    1.3021   -5.5704    3.1031 H   0  0  0  0  0  0  0  0  0  0  0  0
    1.8359   -4.6072    4.5782 H   0  0  0  0  0  0  0  0  0  0  0  0
   -0.6838   -1.9278    2.9691 H   0  0  0  0  0  0  0  0  0  0  0  0
   -1.0531   -3.3444    3.9362 H   0  0  0  0  0  0  0  0  0  0  0  0
   -2.0279   -2.8587    1.3750 H   0  0  0  0  0  0  0  0  0  0  0  0
   -2.7621   -4.3537    4.3000 H   0  0  0  0  0  0  0  0  0  0  0  0
   -3.6017   -3.2930    3.0196 H   0  0  0  0  0  0  0  0  0  0  0  0
   -4.0173   -4.9902    3.2473 H   0  0  0  0  0  0  0  0  0  0  0  0
   -2.6753   -6.3496    0.9850 H   0  0  0  0  0  0  0  0  0  0  0  0
   -2.9389   -4.6938    0.3016 H   0  0  0  0  0  0  0  0  0  0  0  0
   -4.1001   -5.3004    1.4760 H   0  0  0  0  0  0  0  0  0  0  0  0
    0.1704   -4.9880    1.0778 H   0  0  0  0  0  0  0  0  0  0  0  0
    0.0419   -6.2085   -0.2378 H   0  0  0  0  0  0  0  0  0  0  0  0
    0.8445   -6.2305   -2.2623 H   0  0  0  0  0  0  0  0  0  0  0  0
   -1.8788   -7.2558   -1.0768 H   0  0  0  0  0  0  0  0  0  0  0  0
   -2.4965   -5.7537   -1.8326 H   0  0  0  0  0  0  0  0  0  0  0  0
   -1.2258   -6.7517   -2.6325 H   0  0  0  0  0  0  0  0  0  0  0  0
    1.3268   -0.4420   -2.5171 H   0  0  0  0  0  0  0  0  0  0  0  0
    0.3211   -2.7351   -2.6369 H   0  0  0  0  0  0  0  0  0  0  0  0
   -0.5422   -1.3967   -3.3804 H   0  0  0  0  0  0  0  0  0  0  0  0
   -1.1576   -1.9865   -1.8073 H   0  0  0  0  0  0  0  0  0  0  0  0
    6.5122    2.0836    2.8311 H   0  0  0  0  0  0  0  0  0  0  0  0
    5.8207    3.6684    2.5618 H   0  0  0  0  0  0  0  0  0  0  0  0
    4.7341    2.4241    3.1614 H   0  0  0  0  0  0  0  0  0  0  0  0
   -1.0421    2.9838   -3.0792 H   0  0  0  0  0  0  0  0  0  0  0  0
    0.3251    2.3543   -4.1339 H   0  0  0  0  0  0  0  0  0  0  0  0
   -1.0163    1.2912   -3.6421 H   0  0  0  0  0  0  0  0  0  0  0  0
  1  2  1  0
  2  3  1  0
  3  4  1  0
  4  5  1  0
  5  6  1  0
  6  7  1  0
  7  8  1  0
  3  9  1  0
  7  9  1  0
  9 10  1  0
 10 11  1  0
 11 12  1  0
 11 13  1  0
  5 14  1  0
 14 15  1  0
 15 16  1  0
 16 17  1  0
 17 18  1  0
 17 19  1  0
 19 20  1  0
 20 21  1  0
 20 22  1  0
 22 23  1  0
 22 24  1  0
 24 25  1  0
 25 26  1  0
 26 27  1  0
 26 28  1  0
 24 29  1  0
 29 30  1  0
 30 31  1  0
 30 32  1  0
 32 33  1  6
 32 34  1  0
 33 34  1  0
 32 35  1  0
 35 36  1  0
 36 37  1  0
 36 38  1  0
 38 39  1  0
 39 40  1  0
 40 41  1  0
 41 42  1  0
 42 43  1  0
 42 44  1  0
 44 45  1  0
 45 46  1  0
 46 47  1  0
 46 48  1  0
 40 49  1  0
 45 49  1  0
 49 50  1  0
 50 51  1  0
 51 52  1  0
 51 53  1  0
 15 54  1  0
 38 54  1  0
 54 55  1  0
 29 56  1  0
 16 57  1  0
  1 58  1  0
  1 59  1  0
  1 60  1  0
  3 61  1  6
  4 62  1  0
  4 63  1  0
  5 64  1  1
  7 65  1  6
  8 66  1  0
  8 67  1  0
  8 68  1  0
  9 69  1  1
 11 70  1  1
 12 71  1  0
 13 72  1  0
 13 73  1  0
 13 74  1  0
 15 75  1  1
 16 76  1  6
 17 77  1  0
 18 78  1  0
 20 79  1  1
 21 80  1  0
 21 81  1  0
 21 82  1  0
 22 83  1  1
 23 84  1  0
 23 85  1  0
 23 86  1  0
 24 87  1  6
 26 88  1  1
 27 89  1  0
 28 90  1  0
 28 91  1  0
 28 92  1  0
 29 93  1  6
 30 94  1  1
 31 95  1  0
 34 96  1  0
 34 97  1  0
 35 98  1  0
 35 99  1  0
 36100  1  6
 37101  1  0
 37102  1  0
 37103  1  0
 38104  1  1
 40105  1  1
 42106  1  1
 43107  1  0
 43108  1  0
 43109  1  0
 44110  1  0
 44111  1  0
 45112  1  6
 47113  1  0
 47114  1  0
 47115  1  0
 48116  1  0
 48117  1  0
 48118  1  0
 49119  1  1
 51120  1  1
 52121  1  0
 53122  1  0
 53123  1  0
 53124  1  0
 54125  1  6
 55126  1  0
 55127  1  0
 55128  1  0
 56129  1  0
 56130  1  0
 56131  1  0
 57132  1  0
 57133  1  0
 57134  1  0
M  END
>  <PDBID>  (1) 
1OND

>  <PDB ID>  (1) 
1OND

>  <Generic Name>  (1) 
Troleandomycin

>  <Brand Name>  (1) 
Tao#Triocetin

>  <DrugBank ID>  (1) 
DB01361

>  <ATC Codes>  (1) 
J01FA08

>  <Ligand ID>  (1) 
TAO

>  <Target Name>  (1) 
50S ribosomal protein L32

>  <UniProt ID>  (1) 
P49228

>  <PDB ID.1>  (1) 
1OND

>  <Seq. Identity>  (1) 
100%

$$$$
