PDB_DB01076_01
     RDKit          3D

408420  0  0  0  0  0  0  0  0999 V2000
   -2.4546   -2.1684    2.2723 C   0  0  0  0  0  0  0  0  0  0  0  0
   -1.8616   -0.8552    1.8804 C   0  0  0  0  0  0  0  0  0  0  0  0
   -0.9935   -0.4075    3.0321 C   0  0  0  0  0  0  0  0  0  0  0  0
   -1.6877   -0.8165    4.3216 C   0  0  0  0  0  0  0  0  0  0  0  0
   -1.3756   -2.3098    4.5084 C   0  0  0  0  0  0  0  0  0  0  0  0
   -1.5985   -3.0171    3.1718 C   0  0  0  0  0  0  0  0  0  0  0  0
   -0.9356   -4.8454   -1.4398 C   0  0  0  0  0  0  0  0  0  0  0  0
   -1.1355   -3.6440   -0.5371 C   0  0  0  0  0  0  0  0  0  0  0  0
   -0.0886   -2.6222   -0.7673 C   0  0  0  0  0  0  0  0  0  0  0  0
    1.2517   -3.3951   -0.5554 C   0  0  0  0  0  0  0  0  0  0  0  0
    1.4869   -4.3009   -1.7447 C   0  0  0  0  0  0  0  0  0  0  0  0
    0.1858   -4.6883   -2.4143 C   0  0  0  0  0  0  0  0  0  0  0  0
    0.3855   -5.9470   -2.9984 F   0  0  0  0  0  0  0  0  0  0  0  0
   -0.0382   -1.4878    0.2071 C   0  0  0  0  0  0  0  0  0  0  0  0
   -4.1345    2.5547    0.2534 C   0  0  0  0  0  0  0  0  0  0  0  0
   -4.8239    2.0725   -0.9661 C   0  0  0  0  0  0  0  0  0  0  0  0
   -6.0563    2.9083   -1.2449 C   0  0  0  0  0  0  0  0  0  0  0  0
   -6.9937    3.0063   -0.0926 C   0  0  0  0  0  0  0  0  0  0  0  0
   -6.2469    3.6177    1.0731 C   0  0  0  0  0  0  0  0  0  0  0  0
   -5.1115    2.6777    1.4073 C   0  0  0  0  0  0  0  0  0  0  0  0
    7.0641    3.6051    0.0094 O   0  0  0  0  0  0  0  0  0  0  0  0
    8.0185    1.5244    0.1716 O   0  0  0  0  0  0  0  0  0  0  0  0
    4.6775    2.6393   -0.6478 O   0  0  0  0  0  0  0  0  0  0  0  0
    7.6153    2.5267   -0.6844 C   0  0  0  0  0  0  0  0  0  0  0  0
    6.7068    2.0774   -1.7887 C   0  0  0  0  0  0  0  0  0  0  0  0
    5.3428    1.6279   -1.3044 C   0  0  1  0  0  0  0  0  0  0  0  0
    5.4059    0.3355   -0.5904 C   0  0  0  0  0  0  0  0  0  0  0  0
    4.1043   -0.3303   -0.2793 C   0  0  1  0  0  0  0  0  0  0  0  0
    3.1625    0.4313    0.5933 C   0  0  0  0  0  0  0  0  0  0  0  0
    1.8796   -0.2608    0.8926 C   0  0  0  0  0  0  0  0  0  0  0  0
    1.0096   -0.5292   -0.2431 N   0  0  0  0  0  0  0  0  0  0  0  0
   -1.2571   -0.7330    0.5212 C   0  0  0  0  0  0  0  0  0  0  0  0
   -0.8787    0.6978    0.2779 C   0  0  0  0  0  0  0  0  0  0  0  0
   -1.9595    1.6167   -0.1937 C   0  0  0  0  0  0  0  0  0  0  0  0
   -3.0535    1.7386    0.7119 N   0  0  0  0  0  0  0  0  0  0  0  0
   -1.3713    2.9046   -0.2230 O   0  0  0  0  0  0  0  0  0  0  0  0
    0.3103    0.6644   -0.6286 C   0  0  0  0  0  0  0  0  0  0  0  0
    0.1056    0.9905   -2.0263 C   0  0  0  0  0  0  0  0  0  0  0  0
   -0.6341    0.1284   -2.9557 C   0  0  0  0  0  0  0  0  0  0  0  0
    1.4318    1.2866   -2.6973 C   0  0  0  0  0  0  0  0  0  0  0  0
    3.5242   -0.7472   -1.4837 O   0  0  0  0  0  0  0  0  0  0  0  0
   -2.4546   -2.1684    2.2723 C   0  0  0  0  0  0  0  0  0  0  0  0
   -1.8616   -0.8552    1.8804 C   0  0  0  0  0  0  0  0  0  0  0  0
   -0.9935   -0.4075    3.0321 C   0  0  0  0  0  0  0  0  0  0  0  0
   -1.6877   -0.8165    4.3216 C   0  0  0  0  0  0  0  0  0  0  0  0
   -1.3756   -2.3098    4.5084 C   0  0  0  0  0  0  0  0  0  0  0  0
   -1.5985   -3.0171    3.1718 C   0  0  0  0  0  0  0  0  0  0  0  0
   -0.9356   -4.8454   -1.4398 C   0  0  0  0  0  0  0  0  0  0  0  0
   -1.1355   -3.6440   -0.5371 C   0  0  0  0  0  0  0  0  0  0  0  0
   -0.0886   -2.6222   -0.7673 C   0  0  0  0  0  0  0  0  0  0  0  0
    1.2517   -3.3951   -0.5554 C   0  0  0  0  0  0  0  0  0  0  0  0
    1.4869   -4.3009   -1.7447 C   0  0  0  0  0  0  0  0  0  0  0  0
    0.1858   -4.6883   -2.4143 C   0  0  0  0  0  0  0  0  0  0  0  0
    0.3855   -5.9470   -2.9984 F   0  0  0  0  0  0  0  0  0  0  0  0
   -0.0382   -1.4878    0.2071 C   0  0  0  0  0  0  0  0  0  0  0  0
   -4.1345    2.5547    0.2534 C   0  0  0  0  0  0  0  0  0  0  0  0
   -4.8239    2.0725   -0.9661 C   0  0  0  0  0  0  0  0  0  0  0  0
   -6.0563    2.9083   -1.2449 C   0  0  0  0  0  0  0  0  0  0  0  0
   -6.9937    3.0063   -0.0926 C   0  0  0  0  0  0  0  0  0  0  0  0
   -6.2469    3.6177    1.0731 C   0  0  0  0  0  0  0  0  0  0  0  0
   -5.1115    2.6777    1.4073 C   0  0  0  0  0  0  0  0  0  0  0  0
    7.0641    3.6051    0.0094 O   0  0  0  0  0  0  0  0  0  0  0  0
    8.0185    1.5244    0.1716 O   0  0  0  0  0  0  0  0  0  0  0  0
    4.6775    2.6393   -0.6478 O   0  0  0  0  0  0  0  0  0  0  0  0
    7.6153    2.5267   -0.6844 C   0  0  0  0  0  0  0  0  0  0  0  0
    6.7068    2.0774   -1.7887 C   0  0  0  0  0  0  0  0  0  0  0  0
    5.3428    1.6279   -1.3044 C   0  0  1  0  0  0  0  0  0  0  0  0
    5.4059    0.3355   -0.5904 C   0  0  0  0  0  0  0  0  0  0  0  0
    4.1043   -0.3303   -0.2793 C   0  0  1  0  0  0  0  0  0  0  0  0
    3.1625    0.4313    0.5933 C   0  0  0  0  0  0  0  0  0  0  0  0
    1.8796   -0.2608    0.8926 C   0  0  0  0  0  0  0  0  0  0  0  0
    1.0096   -0.5292   -0.2431 N   0  0  0  0  0  0  0  0  0  0  0  0
   -1.2571   -0.7330    0.5212 C   0  0  0  0  0  0  0  0  0  0  0  0
   -0.8787    0.6978    0.2779 C   0  0  0  0  0  0  0  0  0  0  0  0
   -1.9595    1.6167   -0.1937 C   0  0  0  0  0  0  0  0  0  0  0  0
   -3.0535    1.7386    0.7119 N   0  0  0  0  0  0  0  0  0  0  0  0
   -1.3713    2.9046   -0.2230 O   0  0  0  0  0  0  0  0  0  0  0  0
    0.3103    0.6644   -0.6286 C   0  0  0  0  0  0  0  0  0  0  0  0
    0.1056    0.9905   -2.0263 C   0  0  0  0  0  0  0  0  0  0  0  0
   -0.6341    0.1284   -2.9557 C   0  0  0  0  0  0  0  0  0  0  0  0
    1.4318    1.2866   -2.6973 C   0  0  0  0  0  0  0  0  0  0  0  0
    3.5242   -0.7472   -1.4837 O   0  0  0  0  0  0  0  0  0  0  0  0
   -2.4546   -2.1684    2.2723 C   0  0  0  0  0  0  0  0  0  0  0  0
   -1.8616   -0.8552    1.8804 C   0  0  0  0  0  0  0  0  0  0  0  0
   -0.9935   -0.4075    3.0321 C   0  0  0  0  0  0  0  0  0  0  0  0
   -1.6877   -0.8165    4.3216 C   0  0  0  0  0  0  0  0  0  0  0  0
   -1.3756   -2.3098    4.5084 C   0  0  0  0  0  0  0  0  0  0  0  0
   -1.5985   -3.0171    3.1718 C   0  0  0  0  0  0  0  0  0  0  0  0
   -0.9356   -4.8454   -1.4398 C   0  0  0  0  0  0  0  0  0  0  0  0
   -1.1355   -3.6440   -0.5371 C   0  0  0  0  0  0  0  0  0  0  0  0
   -0.0886   -2.6222   -0.7673 C   0  0  0  0  0  0  0  0  0  0  0  0
    1.2517   -3.3951   -0.5554 C   0  0  0  0  0  0  0  0  0  0  0  0
    1.4869   -4.3009   -1.7447 C   0  0  0  0  0  0  0  0  0  0  0  0
    0.1858   -4.6883   -2.4143 C   0  0  0  0  0  0  0  0  0  0  0  0
    0.3855   -5.9470   -2.9984 F   0  0  0  0  0  0  0  0  0  0  0  0
   -0.0382   -1.4878    0.2071 C   0  0  0  0  0  0  0  0  0  0  0  0
   -4.1345    2.5547    0.2534 C   0  0  0  0  0  0  0  0  0  0  0  0
   -4.8239    2.0725   -0.9661 C   0  0  0  0  0  0  0  0  0  0  0  0
   -6.0563    2.9083   -1.2449 C   0  0  0  0  0  0  0  0  0  0  0  0
   -6.9937    3.0063   -0.0926 C   0  0  0  0  0  0  0  0  0  0  0  0
   -6.2469    3.6177    1.0731 C   0  0  0  0  0  0  0  0  0  0  0  0
   -5.1115    2.6777    1.4073 C   0  0  0  0  0  0  0  0  0  0  0  0
    7.0641    3.6051    0.0094 O   0  0  0  0  0  0  0  0  0  0  0  0
    8.0185    1.5244    0.1716 O   0  0  0  0  0  0  0  0  0  0  0  0
    4.6775    2.6393   -0.6478 O   0  0  0  0  0  0  0  0  0  0  0  0
    7.6153    2.5267   -0.6844 C   0  0  0  0  0  0  0  0  0  0  0  0
    6.7068    2.0774   -1.7887 C   0  0  0  0  0  0  0  0  0  0  0  0
    5.3428    1.6279   -1.3044 C   0  0  1  0  0  0  0  0  0  0  0  0
    5.4059    0.3355   -0.5904 C   0  0  0  0  0  0  0  0  0  0  0  0
    4.1043   -0.3303   -0.2793 C   0  0  1  0  0  0  0  0  0  0  0  0
    3.1625    0.4313    0.5933 C   0  0  0  0  0  0  0  0  0  0  0  0
    1.8796   -0.2608    0.8926 C   0  0  0  0  0  0  0  0  0  0  0  0
    1.0096   -0.5292   -0.2431 N   0  0  0  0  0  0  0  0  0  0  0  0
   -1.2571   -0.7330    0.5212 C   0  0  0  0  0  0  0  0  0  0  0  0
   -0.8787    0.6978    0.2779 C   0  0  0  0  0  0  0  0  0  0  0  0
   -1.9595    1.6167   -0.1937 C   0  0  0  0  0  0  0  0  0  0  0  0
   -3.0535    1.7386    0.7119 N   0  0  0  0  0  0  0  0  0  0  0  0
   -1.3713    2.9046   -0.2230 O   0  0  0  0  0  0  0  0  0  0  0  0
    0.3103    0.6644   -0.6286 C   0  0  0  0  0  0  0  0  0  0  0  0
    0.1056    0.9905   -2.0263 C   0  0  0  0  0  0  0  0  0  0  0  0
   -0.6341    0.1284   -2.9557 C   0  0  0  0  0  0  0  0  0  0  0  0
    1.4318    1.2866   -2.6973 C   0  0  0  0  0  0  0  0  0  0  0  0
    3.5242   -0.7472   -1.4837 O   0  0  0  0  0  0  0  0  0  0  0  0
   -2.4546   -2.1684    2.2723 C   0  0  0  0  0  0  0  0  0  0  0  0
   -1.8616   -0.8552    1.8804 C   0  0  0  0  0  0  0  0  0  0  0  0
   -0.9935   -0.4075    3.0321 C   0  0  0  0  0  0  0  0  0  0  0  0
   -1.6877   -0.8165    4.3216 C   0  0  0  0  0  0  0  0  0  0  0  0
   -1.3756   -2.3098    4.5084 C   0  0  0  0  0  0  0  0  0  0  0  0
   -1.5985   -3.0171    3.1718 C   0  0  0  0  0  0  0  0  0  0  0  0
   -0.9356   -4.8454   -1.4398 C   0  0  0  0  0  0  0  0  0  0  0  0
   -1.1355   -3.6440   -0.5371 C   0  0  0  0  0  0  0  0  0  0  0  0
   -0.0886   -2.6222   -0.7673 C   0  0  0  0  0  0  0  0  0  0  0  0
    1.2517   -3.3951   -0.5554 C   0  0  0  0  0  0  0  0  0  0  0  0
    1.4869   -4.3009   -1.7447 C   0  0  0  0  0  0  0  0  0  0  0  0
    0.1858   -4.6883   -2.4143 C   0  0  0  0  0  0  0  0  0  0  0  0
    0.3855   -5.9470   -2.9984 F   0  0  0  0  0  0  0  0  0  0  0  0
   -0.0382   -1.4878    0.2071 C   0  0  0  0  0  0  0  0  0  0  0  0
   -4.1345    2.5547    0.2534 C   0  0  0  0  0  0  0  0  0  0  0  0
   -4.8239    2.0725   -0.9661 C   0  0  0  0  0  0  0  0  0  0  0  0
   -6.0563    2.9083   -1.2449 C   0  0  0  0  0  0  0  0  0  0  0  0
   -6.9937    3.0063   -0.0926 C   0  0  0  0  0  0  0  0  0  0  0  0
   -6.2469    3.6177    1.0731 C   0  0  0  0  0  0  0  0  0  0  0  0
   -5.1115    2.6777    1.4073 C   0  0  0  0  0  0  0  0  0  0  0  0
    7.0641    3.6051    0.0094 O   0  0  0  0  0  0  0  0  0  0  0  0
    8.0185    1.5244    0.1716 O   0  0  0  0  0  0  0  0  0  0  0  0
    4.6775    2.6393   -0.6478 O   0  0  0  0  0  0  0  0  0  0  0  0
    7.6153    2.5267   -0.6844 C   0  0  0  0  0  0  0  0  0  0  0  0
    6.7068    2.0774   -1.7887 C   0  0  0  0  0  0  0  0  0  0  0  0
    5.3428    1.6279   -1.3044 C   0  0  1  0  0  0  0  0  0  0  0  0
    5.4059    0.3355   -0.5904 C   0  0  0  0  0  0  0  0  0  0  0  0
    4.1043   -0.3303   -0.2793 C   0  0  1  0  0  0  0  0  0  0  0  0
    3.1625    0.4313    0.5933 C   0  0  0  0  0  0  0  0  0  0  0  0
    1.8796   -0.2608    0.8926 C   0  0  0  0  0  0  0  0  0  0  0  0
    1.0096   -0.5292   -0.2431 N   0  0  0  0  0  0  0  0  0  0  0  0
   -1.2571   -0.7330    0.5212 C   0  0  0  0  0  0  0  0  0  0  0  0
   -0.8787    0.6978    0.2779 C   0  0  0  0  0  0  0  0  0  0  0  0
   -1.9595    1.6167   -0.1937 C   0  0  0  0  0  0  0  0  0  0  0  0
   -3.0535    1.7386    0.7119 N   0  0  0  0  0  0  0  0  0  0  0  0
   -1.3713    2.9046   -0.2230 O   0  0  0  0  0  0  0  0  0  0  0  0
    0.3103    0.6644   -0.6286 C   0  0  0  0  0  0  0  0  0  0  0  0
    0.1056    0.9905   -2.0263 C   0  0  0  0  0  0  0  0  0  0  0  0
   -0.6341    0.1284   -2.9557 C   0  0  0  0  0  0  0  0  0  0  0  0
    1.4318    1.2866   -2.6973 C   0  0  0  0  0  0  0  0  0  0  0  0
    3.5242   -0.7472   -1.4837 O   0  0  0  0  0  0  0  0  0  0  0  0
   -2.8227   -2.7427    1.4394 H   0  0  0  0  0  0  0  0  0  0  0  0
   -3.3990   -1.9894    2.9177 H   0  0  0  0  0  0  0  0  0  0  0  0
   -2.7397   -0.1315    1.9158 H   0  0  0  0  0  0  0  0  0  0  0  0
   -0.0260   -0.9677    3.0638 H   0  0  0  0  0  0  0  0  0  0  0  0
   -0.8486    0.6823    3.1070 H   0  0  0  0  0  0  0  0  0  0  0  0
   -2.7682   -0.6936    4.3104 H   0  0  0  0  0  0  0  0  0  0  0  0
   -1.2718   -0.2411    5.1860 H   0  0  0  0  0  0  0  0  0  0  0  0
   -0.2870   -2.3450    4.7057 H   0  0  0  0  0  0  0  0  0  0  0  0
   -1.8964   -2.7621    5.3430 H   0  0  0  0  0  0  0  0  0  0  0  0
   -2.1903   -3.9270    3.4040 H   0  0  0  0  0  0  0  0  0  0  0  0
   -0.6551   -3.3556    2.7321 H   0  0  0  0  0  0  0  0  0  0  0  0
   -0.7289   -5.7618   -0.8131 H   0  0  0  0  0  0  0  0  0  0  0  0
   -1.8605   -5.0925   -1.9927 H   0  0  0  0  0  0  0  0  0  0  0  0
   -2.1623   -3.2969   -0.7213 H   0  0  0  0  0  0  0  0  0  0  0  0
   -1.0695   -3.9926    0.5092 H   0  0  0  0  0  0  0  0  0  0  0  0
   -0.1036   -2.2730   -1.8226 H   0  0  0  0  0  0  0  0  0  0  0  0
    2.0825   -2.7202   -0.3638 H   0  0  0  0  0  0  0  0  0  0  0  0
    1.0630   -4.0379    0.3250 H   0  0  0  0  0  0  0  0  0  0  0  0
    2.0217   -5.2266   -1.4723 H   0  0  0  0  0  0  0  0  0  0  0  0
    2.0828   -3.7588   -2.4944 H   0  0  0  0  0  0  0  0  0  0  0  0
   -0.1059   -3.9933   -3.2222 H   0  0  0  0  0  0  0  0  0  0  0  0
    0.3956   -1.9491    1.1527 H   0  0  0  0  0  0  0  0  0  0  0  0
   -3.7434    3.5778    0.0637 H   0  0  0  0  0  0  0  0  0  0  0  0
   -5.1269    1.0209   -0.9524 H   0  0  0  0  0  0  0  0  0  0  0  0
   -4.1809    2.1968   -1.8678 H   0  0  0  0  0  0  0  0  0  0  0  0
   -6.5477    2.4842   -2.1465 H   0  0  0  0  0  0  0  0  0  0  0  0
   -5.7741    3.9650   -1.5300 H   0  0  0  0  0  0  0  0  0  0  0  0
   -7.4426    2.0277    0.1720 H   0  0  0  0  0  0  0  0  0  0  0  0
   -7.8174    3.6833   -0.3975 H   0  0  0  0  0  0  0  0  0  0  0  0
   -5.8889    4.6093    0.7365 H   0  0  0  0  0  0  0  0  0  0  0  0
   -6.8767    3.7031    1.9681 H   0  0  0  0  0  0  0  0  0  0  0  0
   -5.5681    1.6536    1.5194 H   0  0  0  0  0  0  0  0  0  0  0  0
   -4.6213    2.8981    2.3539 H   0  0  0  0  0  0  0  0  0  0  0  0
    6.7668    3.2554    0.9006 H   0  0  0  0  0  0  0  0  0  0  0  0
    8.0237    1.9121    1.0926 H   0  0  0  0  0  0  0  0  0  0  0  0
    4.5284    3.3850   -1.2767 H   0  0  0  0  0  0  0  0  0  0  0  0
    8.5350    2.9464   -1.1811 H   0  0  0  0  0  0  0  0  0  0  0  0
    7.1762    1.2624   -2.3606 H   0  0  0  0  0  0  0  0  0  0  0  0
    6.5477    2.9545   -2.4568 H   0  0  0  0  0  0  0  0  0  0  0  0
    4.7579    1.4398   -2.2603 H   0  0  0  0  0  0  0  0  0  0  0  0
    6.0301   -0.3813   -1.1750 H   0  0  0  0  0  0  0  0  0  0  0  0
    5.9242    0.5299    0.3927 H   0  0  0  0  0  0  0  0  0  0  0  0
    4.3956   -1.2712    0.3132 H   0  0  0  0  0  0  0  0  0  0  0  0
    3.0340    1.4731    0.2657 H   0  0  0  0  0  0  0  0  0  0  0  0
    3.6887    0.5355    1.5973 H   0  0  0  0  0  0  0  0  0  0  0  0
    1.2899    0.3628    1.6331 H   0  0  0  0  0  0  0  0  0  0  0  0
    2.0625   -1.2066    1.4168 H   0  0  0  0  0  0  0  0  0  0  0  0
   -2.0852   -1.0518   -0.1859 H   0  0  0  0  0  0  0  0  0  0  0  0
   -0.5355    1.0958    1.2505 H   0  0  0  0  0  0  0  0  0  0  0  0
   -2.3745    1.3505   -1.1836 H   0  0  0  0  0  0  0  0  0  0  0  0
   -2.6427    2.2063    1.5865 H   0  0  0  0  0  0  0  0  0  0  0  0
   -0.7838    2.9654    0.5762 H   0  0  0  0  0  0  0  0  0  0  0  0
    0.9930    1.5086   -0.2387 H   0  0  0  0  0  0  0  0  0  0  0  0
   -0.4184    2.0236   -2.1000 H   0  0  0  0  0  0  0  0  0  0  0  0
   -1.4879   -0.4330   -2.5383 H   0  0  0  0  0  0  0  0  0  0  0  0
    0.0215   -0.6059   -3.5161 H   0  0  0  0  0  0  0  0  0  0  0  0
   -1.0497    0.7496   -3.7783 H   0  0  0  0  0  0  0  0  0  0  0  0
    1.7826    0.3733   -3.2316 H   0  0  0  0  0  0  0  0  0  0  0  0
    1.3185    2.1418   -3.4051 H   0  0  0  0  0  0  0  0  0  0  0  0
    2.1504    1.5803   -1.9243 H   0  0  0  0  0  0  0  0  0  0  0  0
    4.2505   -0.8726   -2.1400 H   0  0  0  0  0  0  0  0  0  0  0  0
   -2.8227   -2.7427    1.4394 H   0  0  0  0  0  0  0  0  0  0  0  0
   -3.3990   -1.9894    2.9177 H   0  0  0  0  0  0  0  0  0  0  0  0
   -2.7397   -0.1315    1.9158 H   0  0  0  0  0  0  0  0  0  0  0  0
   -0.0260   -0.9677    3.0638 H   0  0  0  0  0  0  0  0  0  0  0  0
   -0.8486    0.6823    3.1070 H   0  0  0  0  0  0  0  0  0  0  0  0
   -2.7682   -0.6936    4.3104 H   0  0  0  0  0  0  0  0  0  0  0  0
   -1.2718   -0.2411    5.1860 H   0  0  0  0  0  0  0  0  0  0  0  0
   -0.2870   -2.3450    4.7057 H   0  0  0  0  0  0  0  0  0  0  0  0
   -1.8964   -2.7621    5.3430 H   0  0  0  0  0  0  0  0  0  0  0  0
   -2.1903   -3.9270    3.4040 H   0  0  0  0  0  0  0  0  0  0  0  0
   -0.6551   -3.3556    2.7321 H   0  0  0  0  0  0  0  0  0  0  0  0
   -0.7289   -5.7618   -0.8131 H   0  0  0  0  0  0  0  0  0  0  0  0
   -1.8605   -5.0925   -1.9927 H   0  0  0  0  0  0  0  0  0  0  0  0
   -2.1623   -3.2969   -0.7213 H   0  0  0  0  0  0  0  0  0  0  0  0
   -1.0695   -3.9926    0.5092 H   0  0  0  0  0  0  0  0  0  0  0  0
   -0.1036   -2.2730   -1.8226 H   0  0  0  0  0  0  0  0  0  0  0  0
    2.0825   -2.7202   -0.3638 H   0  0  0  0  0  0  0  0  0  0  0  0
    1.0630   -4.0379    0.3250 H   0  0  0  0  0  0  0  0  0  0  0  0
    2.0217   -5.2266   -1.4723 H   0  0  0  0  0  0  0  0  0  0  0  0
    2.0828   -3.7588   -2.4944 H   0  0  0  0  0  0  0  0  0  0  0  0
   -0.1059   -3.9933   -3.2222 H   0  0  0  0  0  0  0  0  0  0  0  0
    0.3956   -1.9491    1.1527 H   0  0  0  0  0  0  0  0  0  0  0  0
   -3.7434    3.5778    0.0637 H   0  0  0  0  0  0  0  0  0  0  0  0
   -5.1269    1.0209   -0.9524 H   0  0  0  0  0  0  0  0  0  0  0  0
   -4.1809    2.1968   -1.8678 H   0  0  0  0  0  0  0  0  0  0  0  0
   -6.5477    2.4842   -2.1465 H   0  0  0  0  0  0  0  0  0  0  0  0
   -5.7741    3.9650   -1.5300 H   0  0  0  0  0  0  0  0  0  0  0  0
   -7.4426    2.0277    0.1720 H   0  0  0  0  0  0  0  0  0  0  0  0
   -7.8174    3.6833   -0.3975 H   0  0  0  0  0  0  0  0  0  0  0  0
   -5.8889    4.6093    0.7365 H   0  0  0  0  0  0  0  0  0  0  0  0
   -6.8767    3.7031    1.9681 H   0  0  0  0  0  0  0  0  0  0  0  0
   -5.5681    1.6536    1.5194 H   0  0  0  0  0  0  0  0  0  0  0  0
   -4.6213    2.8981    2.3539 H   0  0  0  0  0  0  0  0  0  0  0  0
    6.7668    3.2554    0.9006 H   0  0  0  0  0  0  0  0  0  0  0  0
    8.0237    1.9121    1.0926 H   0  0  0  0  0  0  0  0  0  0  0  0
    4.5284    3.3850   -1.2767 H   0  0  0  0  0  0  0  0  0  0  0  0
    8.5350    2.9464   -1.1811 H   0  0  0  0  0  0  0  0  0  0  0  0
    7.1762    1.2624   -2.3606 H   0  0  0  0  0  0  0  0  0  0  0  0
    6.5477    2.9545   -2.4568 H   0  0  0  0  0  0  0  0  0  0  0  0
    4.7579    1.4398   -2.2603 H   0  0  0  0  0  0  0  0  0  0  0  0
    6.0301   -0.3813   -1.1750 H   0  0  0  0  0  0  0  0  0  0  0  0
    5.9242    0.5299    0.3927 H   0  0  0  0  0  0  0  0  0  0  0  0
    4.3956   -1.2712    0.3132 H   0  0  0  0  0  0  0  0  0  0  0  0
    3.0340    1.4731    0.2657 H   0  0  0  0  0  0  0  0  0  0  0  0
    3.6887    0.5355    1.5973 H   0  0  0  0  0  0  0  0  0  0  0  0
    1.2899    0.3628    1.6331 H   0  0  0  0  0  0  0  0  0  0  0  0
    2.0625   -1.2066    1.4168 H   0  0  0  0  0  0  0  0  0  0  0  0
   -2.0852   -1.0518   -0.1859 H   0  0  0  0  0  0  0  0  0  0  0  0
   -0.5355    1.0958    1.2505 H   0  0  0  0  0  0  0  0  0  0  0  0
   -2.3745    1.3505   -1.1836 H   0  0  0  0  0  0  0  0  0  0  0  0
   -2.6427    2.2063    1.5865 H   0  0  0  0  0  0  0  0  0  0  0  0
   -0.7838    2.9654    0.5762 H   0  0  0  0  0  0  0  0  0  0  0  0
    0.9930    1.5086   -0.2387 H   0  0  0  0  0  0  0  0  0  0  0  0
   -0.4184    2.0236   -2.1000 H   0  0  0  0  0  0  0  0  0  0  0  0
   -1.4879   -0.4330   -2.5383 H   0  0  0  0  0  0  0  0  0  0  0  0
    0.0215   -0.6059   -3.5161 H   0  0  0  0  0  0  0  0  0  0  0  0
   -1.0497    0.7496   -3.7783 H   0  0  0  0  0  0  0  0  0  0  0  0
    1.7826    0.3733   -3.2316 H   0  0  0  0  0  0  0  0  0  0  0  0
    1.3185    2.1418   -3.4051 H   0  0  0  0  0  0  0  0  0  0  0  0
    2.1504    1.5803   -1.9243 H   0  0  0  0  0  0  0  0  0  0  0  0
    4.2505   -0.8726   -2.1400 H   0  0  0  0  0  0  0  0  0  0  0  0
   -2.8227   -2.7427    1.4394 H   0  0  0  0  0  0  0  0  0  0  0  0
   -3.3990   -1.9894    2.9177 H   0  0  0  0  0  0  0  0  0  0  0  0
   -2.7397   -0.1315    1.9158 H   0  0  0  0  0  0  0  0  0  0  0  0
   -0.0260   -0.9677    3.0638 H   0  0  0  0  0  0  0  0  0  0  0  0
   -0.8486    0.6823    3.1070 H   0  0  0  0  0  0  0  0  0  0  0  0
   -2.7682   -0.6936    4.3104 H   0  0  0  0  0  0  0  0  0  0  0  0
   -1.2718   -0.2411    5.1860 H   0  0  0  0  0  0  0  0  0  0  0  0
   -0.2870   -2.3450    4.7057 H   0  0  0  0  0  0  0  0  0  0  0  0
   -1.8964   -2.7621    5.3430 H   0  0  0  0  0  0  0  0  0  0  0  0
   -2.1903   -3.9270    3.4040 H   0  0  0  0  0  0  0  0  0  0  0  0
   -0.6551   -3.3556    2.7321 H   0  0  0  0  0  0  0  0  0  0  0  0
   -0.7289   -5.7618   -0.8131 H   0  0  0  0  0  0  0  0  0  0  0  0
   -1.8605   -5.0925   -1.9927 H   0  0  0  0  0  0  0  0  0  0  0  0
   -2.1623   -3.2969   -0.7213 H   0  0  0  0  0  0  0  0  0  0  0  0
   -1.0695   -3.9926    0.5092 H   0  0  0  0  0  0  0  0  0  0  0  0
   -0.1036   -2.2730   -1.8226 H   0  0  0  0  0  0  0  0  0  0  0  0
    2.0825   -2.7202   -0.3638 H   0  0  0  0  0  0  0  0  0  0  0  0
    1.0630   -4.0379    0.3250 H   0  0  0  0  0  0  0  0  0  0  0  0
    2.0217   -5.2266   -1.4723 H   0  0  0  0  0  0  0  0  0  0  0  0
    2.0828   -3.7588   -2.4944 H   0  0  0  0  0  0  0  0  0  0  0  0
   -0.1059   -3.9933   -3.2222 H   0  0  0  0  0  0  0  0  0  0  0  0
    0.3956   -1.9491    1.1527 H   0  0  0  0  0  0  0  0  0  0  0  0
   -3.7434    3.5778    0.0637 H   0  0  0  0  0  0  0  0  0  0  0  0
   -5.1269    1.0209   -0.9524 H   0  0  0  0  0  0  0  0  0  0  0  0
   -4.1809    2.1968   -1.8678 H   0  0  0  0  0  0  0  0  0  0  0  0
   -6.5477    2.4842   -2.1465 H   0  0  0  0  0  0  0  0  0  0  0  0
   -5.7741    3.9650   -1.5300 H   0  0  0  0  0  0  0  0  0  0  0  0
   -7.4426    2.0277    0.1720 H   0  0  0  0  0  0  0  0  0  0  0  0
   -7.8174    3.6833   -0.3975 H   0  0  0  0  0  0  0  0  0  0  0  0
   -5.8889    4.6093    0.7365 H   0  0  0  0  0  0  0  0  0  0  0  0
   -6.8767    3.7031    1.9681 H   0  0  0  0  0  0  0  0  0  0  0  0
   -5.5681    1.6536    1.5194 H   0  0  0  0  0  0  0  0  0  0  0  0
   -4.6213    2.8981    2.3539 H   0  0  0  0  0  0  0  0  0  0  0  0
    6.7668    3.2554    0.9006 H   0  0  0  0  0  0  0  0  0  0  0  0
    8.0237    1.9121    1.0926 H   0  0  0  0  0  0  0  0  0  0  0  0
    4.5284    3.3850   -1.2767 H   0  0  0  0  0  0  0  0  0  0  0  0
    8.5350    2.9464   -1.1811 H   0  0  0  0  0  0  0  0  0  0  0  0
    7.1762    1.2624   -2.3606 H   0  0  0  0  0  0  0  0  0  0  0  0
    6.5477    2.9545   -2.4568 H   0  0  0  0  0  0  0  0  0  0  0  0
    4.7579    1.4398   -2.2603 H   0  0  0  0  0  0  0  0  0  0  0  0
    6.0301   -0.3813   -1.1750 H   0  0  0  0  0  0  0  0  0  0  0  0
    5.9242    0.5299    0.3927 H   0  0  0  0  0  0  0  0  0  0  0  0
    4.3956   -1.2712    0.3132 H   0  0  0  0  0  0  0  0  0  0  0  0
    3.0340    1.4731    0.2657 H   0  0  0  0  0  0  0  0  0  0  0  0
    3.6887    0.5355    1.5973 H   0  0  0  0  0  0  0  0  0  0  0  0
    1.2899    0.3628    1.6331 H   0  0  0  0  0  0  0  0  0  0  0  0
    2.0625   -1.2066    1.4168 H   0  0  0  0  0  0  0  0  0  0  0  0
   -2.0852   -1.0518   -0.1859 H   0  0  0  0  0  0  0  0  0  0  0  0
   -0.5355    1.0958    1.2505 H   0  0  0  0  0  0  0  0  0  0  0  0
   -2.3745    1.3505   -1.1836 H   0  0  0  0  0  0  0  0  0  0  0  0
   -2.6427    2.2063    1.5865 H   0  0  0  0  0  0  0  0  0  0  0  0
   -0.7838    2.9654    0.5762 H   0  0  0  0  0  0  0  0  0  0  0  0
    0.9930    1.5086   -0.2387 H   0  0  0  0  0  0  0  0  0  0  0  0
   -0.4184    2.0236   -2.1000 H   0  0  0  0  0  0  0  0  0  0  0  0
   -1.4879   -0.4330   -2.5383 H   0  0  0  0  0  0  0  0  0  0  0  0
    0.0215   -0.6059   -3.5161 H   0  0  0  0  0  0  0  0  0  0  0  0
   -1.0497    0.7496   -3.7783 H   0  0  0  0  0  0  0  0  0  0  0  0
    1.7826    0.3733   -3.2316 H   0  0  0  0  0  0  0  0  0  0  0  0
    1.3185    2.1418   -3.4051 H   0  0  0  0  0  0  0  0  0  0  0  0
    2.1504    1.5803   -1.9243 H   0  0  0  0  0  0  0  0  0  0  0  0
    4.2505   -0.8726   -2.1400 H   0  0  0  0  0  0  0  0  0  0  0  0
   -2.8227   -2.7427    1.4394 H   0  0  0  0  0  0  0  0  0  0  0  0
   -3.3990   -1.9894    2.9177 H   0  0  0  0  0  0  0  0  0  0  0  0
   -2.7397   -0.1315    1.9158 H   0  0  0  0  0  0  0  0  0  0  0  0
   -0.0260   -0.9677    3.0638 H   0  0  0  0  0  0  0  0  0  0  0  0
   -0.8486    0.6823    3.1070 H   0  0  0  0  0  0  0  0  0  0  0  0
   -2.7682   -0.6936    4.3104 H   0  0  0  0  0  0  0  0  0  0  0  0
   -1.2718   -0.2411    5.1860 H   0  0  0  0  0  0  0  0  0  0  0  0
   -0.2870   -2.3450    4.7057 H   0  0  0  0  0  0  0  0  0  0  0  0
   -1.8964   -2.7621    5.3430 H   0  0  0  0  0  0  0  0  0  0  0  0
   -2.1903   -3.9270    3.4040 H   0  0  0  0  0  0  0  0  0  0  0  0
   -0.6551   -3.3556    2.7321 H   0  0  0  0  0  0  0  0  0  0  0  0
   -0.7289   -5.7618   -0.8131 H   0  0  0  0  0  0  0  0  0  0  0  0
   -1.8605   -5.0925   -1.9927 H   0  0  0  0  0  0  0  0  0  0  0  0
   -2.1623   -3.2969   -0.7213 H   0  0  0  0  0  0  0  0  0  0  0  0
   -1.0695   -3.9926    0.5092 H   0  0  0  0  0  0  0  0  0  0  0  0
   -0.1036   -2.2730   -1.8226 H   0  0  0  0  0  0  0  0  0  0  0  0
    2.0825   -2.7202   -0.3638 H   0  0  0  0  0  0  0  0  0  0  0  0
    1.0630   -4.0379    0.3250 H   0  0  0  0  0  0  0  0  0  0  0  0
    2.0217   -5.2266   -1.4723 H   0  0  0  0  0  0  0  0  0  0  0  0
    2.0828   -3.7588   -2.4944 H   0  0  0  0  0  0  0  0  0  0  0  0
   -0.1059   -3.9933   -3.2222 H   0  0  0  0  0  0  0  0  0  0  0  0
    0.3956   -1.9491    1.1527 H   0  0  0  0  0  0  0  0  0  0  0  0
   -3.7434    3.5778    0.0637 H   0  0  0  0  0  0  0  0  0  0  0  0
   -5.1269    1.0209   -0.9524 H   0  0  0  0  0  0  0  0  0  0  0  0
   -4.1809    2.1968   -1.8678 H   0  0  0  0  0  0  0  0  0  0  0  0
   -6.5477    2.4842   -2.1465 H   0  0  0  0  0  0  0  0  0  0  0  0
   -5.7741    3.9650   -1.5300 H   0  0  0  0  0  0  0  0  0  0  0  0
   -7.4426    2.0277    0.1720 H   0  0  0  0  0  0  0  0  0  0  0  0
   -7.8174    3.6833   -0.3975 H   0  0  0  0  0  0  0  0  0  0  0  0
   -5.8889    4.6093    0.7365 H   0  0  0  0  0  0  0  0  0  0  0  0
   -6.8767    3.7031    1.9681 H   0  0  0  0  0  0  0  0  0  0  0  0
   -5.5681    1.6536    1.5194 H   0  0  0  0  0  0  0  0  0  0  0  0
   -4.6213    2.8981    2.3539 H   0  0  0  0  0  0  0  0  0  0  0  0
    6.7668    3.2554    0.9006 H   0  0  0  0  0  0  0  0  0  0  0  0
    8.0237    1.9121    1.0926 H   0  0  0  0  0  0  0  0  0  0  0  0
    4.5284    3.3850   -1.2767 H   0  0  0  0  0  0  0  0  0  0  0  0
    8.5350    2.9464   -1.1811 H   0  0  0  0  0  0  0  0  0  0  0  0
    7.1762    1.2624   -2.3606 H   0  0  0  0  0  0  0  0  0  0  0  0
    6.5477    2.9545   -2.4568 H   0  0  0  0  0  0  0  0  0  0  0  0
    4.7579    1.4398   -2.2603 H   0  0  0  0  0  0  0  0  0  0  0  0
    6.0301   -0.3813   -1.1750 H   0  0  0  0  0  0  0  0  0  0  0  0
    5.9242    0.5299    0.3927 H   0  0  0  0  0  0  0  0  0  0  0  0
    4.3956   -1.2712    0.3132 H   0  0  0  0  0  0  0  0  0  0  0  0
    3.0340    1.4731    0.2657 H   0  0  0  0  0  0  0  0  0  0  0  0
    3.6887    0.5355    1.5973 H   0  0  0  0  0  0  0  0  0  0  0  0
    1.2899    0.3628    1.6331 H   0  0  0  0  0  0  0  0  0  0  0  0
    2.0625   -1.2066    1.4168 H   0  0  0  0  0  0  0  0  0  0  0  0
   -2.0852   -1.0518   -0.1859 H   0  0  0  0  0  0  0  0  0  0  0  0
   -0.5355    1.0958    1.2505 H   0  0  0  0  0  0  0  0  0  0  0  0
   -2.3745    1.3505   -1.1836 H   0  0  0  0  0  0  0  0  0  0  0  0
   -2.6427    2.2063    1.5865 H   0  0  0  0  0  0  0  0  0  0  0  0
   -0.7838    2.9654    0.5762 H   0  0  0  0  0  0  0  0  0  0  0  0
    0.9930    1.5086   -0.2387 H   0  0  0  0  0  0  0  0  0  0  0  0
   -0.4184    2.0236   -2.1000 H   0  0  0  0  0  0  0  0  0  0  0  0
   -1.4879   -0.4330   -2.5383 H   0  0  0  0  0  0  0  0  0  0  0  0
    0.0215   -0.6059   -3.5161 H   0  0  0  0  0  0  0  0  0  0  0  0
   -1.0497    0.7496   -3.7783 H   0  0  0  0  0  0  0  0  0  0  0  0
    1.7826    0.3733   -3.2316 H   0  0  0  0  0  0  0  0  0  0  0  0
    1.3185    2.1418   -3.4051 H   0  0  0  0  0  0  0  0  0  0  0  0
    2.1504    1.5803   -1.9243 H   0  0  0  0  0  0  0  0  0  0  0  0
    4.2505   -0.8726   -2.1400 H   0  0  0  0  0  0  0  0  0  0  0  0
  1  2  1  0
  2  3  1  0
  3  4  1  0
  4  5  1  0
  1  6  1  0
  5  6  1  0
  7  8  1  0
  8  9  1  0
  9 10  1  0
 10 11  1  0
  7 12  1  0
 11 12  1  0
 12 13  1  0
  9 14  1  0
 15 16  1  0
 16 17  1  0
 17 18  1  0
 18 19  1  0
 15 20  1  0
 19 20  1  0
 21 24  1  0
 22 24  1  0
 24 25  1  0
 23 26  1  0
 25 26  1  0
 26 27  1  0
 27 28  1  0
 28 29  1  0
 29 30  1  0
 14 31  1  0
 30 31  1  0
  2 32  1  0
 14 32  1  0
 32 33  1  0
 33 34  1  0
 15 35  1  0
 34 35  1  0
 34 36  1  0
 31 37  1  0
 33 37  1  0
 37 38  1  0
 38 39  1  0
 38 40  1  0
 28 41  1  0
 42 43  1  0
 43 44  1  0
 44 45  1  0
 45 46  1  0
 42 47  1  0
 46 47  1  0
 48 49  1  0
 49 50  1  0
 50 51  1  0
 51 52  1  0
 48 53  1  0
 52 53  1  0
 53 54  1  0
 50 55  1  0
 56 57  1  0
 57 58  1  0
 58 59  1  0
 59 60  1  0
 56 61  1  0
 60 61  1  0
 62 65  1  0
 63 65  1  0
 65 66  1  0
 64 67  1  0
 66 67  1  0
 67 68  1  0
 68 69  1  0
 69 70  1  0
 70 71  1  0
 55 72  1  0
 71 72  1  0
 43 73  1  0
 55 73  1  0
 73 74  1  0
 74 75  1  0
 56 76  1  0
 75 76  1  0
 75 77  1  0
 72 78  1  0
 74 78  1  0
 78 79  1  0
 79 80  1  0
 79 81  1  0
 69 82  1  0
 83 84  1  0
 84 85  1  0
 85 86  1  0
 86 87  1  0
 83 88  1  0
 87 88  1  0
 89 90  1  0
 90 91  1  0
 91 92  1  0
 92 93  1  0
 89 94  1  0
 93 94  1  0
 94 95  1  0
 91 96  1  0
 97 98  1  0
 98 99  1  0
 99100  1  0
100101  1  0
 97102  1  0
101102  1  0
103106  1  0
104106  1  0
106107  1  0
105108  1  0
107108  1  0
108109  1  0
109110  1  0
110111  1  0
111112  1  0
 96113  1  0
112113  1  0
 84114  1  0
 96114  1  0
114115  1  0
115116  1  0
 97117  1  0
116117  1  0
116118  1  0
113119  1  0
115119  1  0
119120  1  0
120121  1  0
120122  1  0
110123  1  0
124125  1  0
125126  1  0
126127  1  0
127128  1  0
124129  1  0
128129  1  0
130131  1  0
131132  1  0
132133  1  0
133134  1  0
130135  1  0
134135  1  0
135136  1  0
132137  1  0
138139  1  0
139140  1  0
140141  1  0
141142  1  0
138143  1  0
142143  1  0
144147  1  0
145147  1  0
147148  1  0
146149  1  0
148149  1  0
149150  1  0
150151  1  0
151152  1  0
152153  1  0
137154  1  0
153154  1  0
125155  1  0
137155  1  0
155156  1  0
156157  1  0
138158  1  0
157158  1  0
157159  1  0
154160  1  0
156160  1  0
160161  1  0
161162  1  0
161163  1  0
151164  1  0
  1165  1  0
  1166  1  0
  2167  1  0
  3168  1  0
  3169  1  0
  4170  1  0
  4171  1  0
  5172  1  0
  5173  1  0
  6174  1  0
  6175  1  0
  7176  1  0
  7177  1  0
  8178  1  0
  8179  1  0
  9180  1  0
 10181  1  0
 10182  1  0
 11183  1  0
 11184  1  0
 12185  1  0
 14186  1  0
 15187  1  0
 16188  1  0
 16189  1  0
 17190  1  0
 17191  1  0
 18192  1  0
 18193  1  0
 19194  1  0
 19195  1  0
 20196  1  0
 20197  1  0
 21198  1  0
 22199  1  0
 23200  1  0
 24201  1  0
 25202  1  0
 25203  1  0
 26204  1  6
 27205  1  0
 27206  1  0
 28207  1  1
 29208  1  0
 29209  1  0
 30210  1  0
 30211  1  0
 32212  1  0
 33213  1  0
 34214  1  0
 35215  1  0
 36216  1  0
 37217  1  0
 38218  1  0
 39219  1  0
 39220  1  0
 39221  1  0
 40222  1  0
 40223  1  0
 40224  1  0
 41225  1  0
 42226  1  0
 42227  1  0
 43228  1  0
 44229  1  0
 44230  1  0
 45231  1  0
 45232  1  0
 46233  1  0
 46234  1  0
 47235  1  0
 47236  1  0
 48237  1  0
 48238  1  0
 49239  1  0
 49240  1  0
 50241  1  0
 51242  1  0
 51243  1  0
 52244  1  0
 52245  1  0
 53246  1  0
 55247  1  0
 56248  1  0
 57249  1  0
 57250  1  0
 58251  1  0
 58252  1  0
 59253  1  0
 59254  1  0
 60255  1  0
 60256  1  0
 61257  1  0
 61258  1  0
 62259  1  0
 63260  1  0
 64261  1  0
 65262  1  0
 66263  1  0
 66264  1  0
 67265  1  6
 68266  1  0
 68267  1  0
 69268  1  1
 70269  1  0
 70270  1  0
 71271  1  0
 71272  1  0
 73273  1  0
 74274  1  0
 75275  1  0
 76276  1  0
 77277  1  0
 78278  1  0
 79279  1  0
 80280  1  0
 80281  1  0
 80282  1  0
 81283  1  0
 81284  1  0
 81285  1  0
 82286  1  0
 83287  1  0
 83288  1  0
 84289  1  0
 85290  1  0
 85291  1  0
 86292  1  0
 86293  1  0
 87294  1  0
 87295  1  0
 88296  1  0
 88297  1  0
 89298  1  0
 89299  1  0
 90300  1  0
 90301  1  0
 91302  1  0
 92303  1  0
 92304  1  0
 93305  1  0
 93306  1  0
 94307  1  0
 96308  1  0
 97309  1  0
 98310  1  0
 98311  1  0
 99312  1  0
 99313  1  0
100314  1  0
100315  1  0
101316  1  0
101317  1  0
102318  1  0
102319  1  0
103320  1  0
104321  1  0
105322  1  0
106323  1  0
107324  1  0
107325  1  0
108326  1  6
109327  1  0
109328  1  0
110329  1  1
111330  1  0
111331  1  0
112332  1  0
112333  1  0
114334  1  0
115335  1  0
116336  1  0
117337  1  0
118338  1  0
119339  1  0
120340  1  0
121341  1  0
121342  1  0
121343  1  0
122344  1  0
122345  1  0
122346  1  0
123347  1  0
124348  1  0
124349  1  0
125350  1  0
126351  1  0
126352  1  0
127353  1  0
127354  1  0
128355  1  0
128356  1  0
129357  1  0
129358  1  0
130359  1  0
130360  1  0
131361  1  0
131362  1  0
132363  1  0
133364  1  0
133365  1  0
134366  1  0
134367  1  0
135368  1  0
137369  1  0
138370  1  0
139371  1  0
139372  1  0
140373  1  0
140374  1  0
141375  1  0
141376  1  0
142377  1  0
142378  1  0
143379  1  0
143380  1  0
144381  1  0
145382  1  0
146383  1  0
147384  1  0
148385  1  0
148386  1  0
149387  1  6
150388  1  0
150389  1  0
151390  1  1
152391  1  0
152392  1  0
153393  1  0
153394  1  0
155395  1  0
156396  1  0
157397  1  0
158398  1  0
159399  1  0
160400  1  0
161401  1  0
162402  1  0
162403  1  0
162404  1  0
163405  1  0
163406  1  0
163407  1  0
164408  1  0
M  END
>  <PDBID>  (1) 
1HWK

>  <PDB ID>  (1) 
1HWK

>  <Generic Name>  (1) 
Atorvastatin

>  <Brand Name>  (1) 
Ach-atorvastatin Calcium#Act Atorvastatin#Amlodipine Besylate and Atorvastatin Calcium#Amlodipine Besylate/atorvastatin Calcium#Apo-amlodipine-atorvastatin#Apo-atorvastatin#Atorvastatin#Atorvastatin Calcium#Atorvastatin-10#Atorvastatin-20#Atorvastatin-40#Atorvastatin-80#Auro-atorvastatin#Ava-atorvastatin#Caduet#Dom-atorvastatin#Gd-amlodipine/atorvastatin#Gd-atorvastatin#Jamp-atorvastatin#Lipitor#Liptruzet#Mar-atorvastatin#Mylan-amlodipine/atorvastatin#Mylan-atorvastatin#Novo-atorvastatin#Ntp-atorvastatin#PMS-amlodipine-atorvastatin#PMS-atorvastatin#Pendo-amlodipine-atorvastatin#Q-gen Atorvastatin#Ran-atorvastatin#Ratio-atorvastatin#Rbx-atorvastatin#Reddy-atorvastatin#Riva-atorvastatin#Sandoz Atorvastatin#Atogal#Cardyl#Faboxim#Hipolixan#Lipotropic#Liprimar#Lowden#Normalip#Sincol#Sortis#Torvacard#Torvast#Totalip#Tulip#Vastina#Xanator#Xarator#Zurinel

>  <DrugBank ID>  (1) 
DB01076

>  <ATC Codes>  (1) 
C10AA05#C10BA05#C10BX06#C10BX11#C10BX03#C10BX08

>  <Ligand ID>  (1) 
117

>  <Target Name>  (1) 
3-hydroxy-3-methylglutaryl-coenzyme A reductase

>  <UniProt ID>  (1) 
P04035

>  <PDB ID.1>  (1) 
1HWK

>  <Seq. Identity>  (1) 
97%

$$$$
