PDB_DB00212_07
     RDKit          3D

220226  0  0  0  0  0  0  0  0999 V2000
    3.9842   -1.6097    2.7233 O   0  0  0  0  0  0  0  0  0  0  0  0
    4.1725   -1.7966    1.2900 S   0  0  0  0  0  0  0  0  0  0  0  0
    3.9670   -3.6364    1.1136 O   0  0  0  0  0  0  0  0  0  0  0  0
    5.6855   -1.6900    0.6150 C   0  0  0  0  0  0  0  0  0  0  0  0
    6.5590   -2.8004    1.2852 C   0  0  0  0  0  0  0  0  0  0  0  0
    6.3959   -0.4158    0.9666 C   0  0  0  0  0  0  0  0  0  0  0  0
    5.8468   -1.9558   -0.8566 C   0  0  0  0  0  0  0  0  0  0  0  0
    2.8670   -1.3152    0.2103 C   0  0  0  0  0  0  0  0  0  0  0  0
    2.4388    0.0997    0.3275 C   0  0  1  0  0  0  0  0  0  0  0  0
    3.3460    1.1995    0.0332 C   0  0  0  0  0  0  0  0  0  0  0  0
    4.0032    1.3971   -1.2570 C   0  0  0  0  0  0  0  0  0  0  0  0
    3.0800    1.5840   -2.4088 C   0  0  0  0  0  0  0  0  0  0  0  0
    3.7537    2.4268   -3.5194 C   0  0  0  0  0  0  0  0  0  0  0  0
    3.7873    3.8806   -3.1046 C   0  0  0  0  0  0  0  0  0  0  0  0
    3.8862    3.8867   -1.5916 C   0  0  0  0  0  0  0  0  0  0  0  0
    4.7765    2.7415   -1.1560 C   0  0  0  0  0  0  0  0  0  0  0  0
    1.0142    0.3370   -0.0700 C   0  0  0  0  0  0  0  0  0  0  0  0
    0.7826   -0.0962   -1.4010 O   0  0  0  0  0  0  0  0  0  0  0  0
   -0.0584    0.2254    0.7820 N   0  0  0  0  0  0  0  0  0  0  0  0
   -0.4998   -0.8403    1.5166 C   0  0  1  0  0  0  0  0  0  0  0  0
    0.2415   -1.2277    2.7564 C   0  0  0  0  0  0  0  0  0  0  0  0
    0.3732   -0.2965    3.8655 C   0  0  0  0  0  0  0  0  0  0  0  0
   -0.8731    0.2268    4.5462 C   0  0  0  0  0  0  0  0  0  0  0  0
   -0.2022    0.9825    5.6612 N   0  0  0  0  0  0  0  0  0  0  0  0
    0.8695    1.6833    4.9355 C   0  0  0  0  0  0  0  0  0  0  0  0
    1.1684    0.8833    3.7516 N   0  0  0  0  0  0  0  0  0  0  0  0
   -1.9930   -0.9816    1.7916 C   0  0  0  0  0  0  0  0  0  0  0  0
   -2.0646   -2.1695    2.5920 O   0  0  0  0  0  0  0  0  0  0  0  0
   -2.7789   -1.3282    0.6408 N   0  0  0  0  0  0  0  0  0  0  0  0
   -2.8608   -0.3789   -0.4298 C   0  0  2  0  0  0  0  0  0  0  0  0
   -3.5482    0.8890   -0.0572 C   0  0  1  0  0  0  0  0  0  0  0  0
   -2.8672    1.5370    1.0018 O   0  0  0  0  0  0  0  0  0  0  0  0
   -3.5926    1.8813   -1.1893 C   0  0  2  0  0  0  0  0  0  0  0  0
   -4.3009    3.1703   -0.7413 C   0  0  0  0  0  0  0  0  0  0  0  0
   -4.4584    4.2803   -1.6802 C   0  0  0  0  0  0  0  0  0  0  0  0
   -5.6587    3.4331   -1.4014 C   0  0  0  0  0  0  0  0  0  0  0  0
   -4.2611    1.4274   -2.2937 O   0  0  0  0  0  0  0  0  0  0  0  0
   -3.3759   -1.0880   -1.6293 C   0  0  0  0  0  0  0  0  0  0  0  0
   -4.7286   -1.6829   -1.5874 C   0  0  0  0  0  0  0  0  0  0  0  0
   -4.9212   -2.3322   -2.9828 C   0  0  0  0  0  0  0  0  0  0  0  0
   -6.3849   -2.5714   -3.1368 C   0  0  0  0  0  0  0  0  0  0  0  0
   -6.9372   -3.4726   -2.0549 C   0  0  0  0  0  0  0  0  0  0  0  0
   -6.5097   -3.0803   -0.6896 C   0  0  0  0  0  0  0  0  0  0  0  0
   -5.0059   -2.7529   -0.6060 C   0  0  0  0  0  0  0  0  0  0  0  0
    3.9842   -1.6097    2.7233 O   0  0  0  0  0  0  0  0  0  0  0  0
    4.1725   -1.7966    1.2900 S   0  0  0  0  0  0  0  0  0  0  0  0
    3.9670   -3.6364    1.1136 O   0  0  0  0  0  0  0  0  0  0  0  0
    5.6855   -1.6900    0.6150 C   0  0  0  0  0  0  0  0  0  0  0  0
    6.5590   -2.8004    1.2852 C   0  0  0  0  0  0  0  0  0  0  0  0
    6.3959   -0.4158    0.9666 C   0  0  0  0  0  0  0  0  0  0  0  0
    5.8468   -1.9558   -0.8566 C   0  0  0  0  0  0  0  0  0  0  0  0
    2.8670   -1.3152    0.2103 C   0  0  0  0  0  0  0  0  0  0  0  0
    2.4388    0.0997    0.3275 C   0  0  1  0  0  0  0  0  0  0  0  0
    3.3460    1.1995    0.0332 C   0  0  0  0  0  0  0  0  0  0  0  0
    4.0032    1.3971   -1.2570 C   0  0  0  0  0  0  0  0  0  0  0  0
    3.0800    1.5840   -2.4088 C   0  0  0  0  0  0  0  0  0  0  0  0
    3.7537    2.4268   -3.5194 C   0  0  0  0  0  0  0  0  0  0  0  0
    3.7873    3.8806   -3.1046 C   0  0  0  0  0  0  0  0  0  0  0  0
    3.8862    3.8867   -1.5916 C   0  0  0  0  0  0  0  0  0  0  0  0
    4.7765    2.7415   -1.1560 C   0  0  0  0  0  0  0  0  0  0  0  0
    1.0142    0.3370   -0.0700 C   0  0  0  0  0  0  0  0  0  0  0  0
    0.7826   -0.0962   -1.4010 O   0  0  0  0  0  0  0  0  0  0  0  0
   -0.0584    0.2254    0.7820 N   0  0  0  0  0  0  0  0  0  0  0  0
   -0.4998   -0.8403    1.5166 C   0  0  1  0  0  0  0  0  0  0  0  0
    0.2415   -1.2277    2.7564 C   0  0  0  0  0  0  0  0  0  0  0  0
    0.3732   -0.2965    3.8655 C   0  0  0  0  0  0  0  0  0  0  0  0
   -0.8731    0.2268    4.5462 C   0  0  0  0  0  0  0  0  0  0  0  0
   -0.2022    0.9825    5.6612 N   0  0  0  0  0  0  0  0  0  0  0  0
    0.8695    1.6833    4.9355 C   0  0  0  0  0  0  0  0  0  0  0  0
    1.1684    0.8833    3.7516 N   0  0  0  0  0  0  0  0  0  0  0  0
   -1.9930   -0.9816    1.7916 C   0  0  0  0  0  0  0  0  0  0  0  0
   -2.0646   -2.1695    2.5920 O   0  0  0  0  0  0  0  0  0  0  0  0
   -2.7789   -1.3282    0.6408 N   0  0  0  0  0  0  0  0  0  0  0  0
   -2.8608   -0.3789   -0.4298 C   0  0  2  0  0  0  0  0  0  0  0  0
   -3.5482    0.8890   -0.0572 C   0  0  1  0  0  0  0  0  0  0  0  0
   -2.8672    1.5370    1.0018 O   0  0  0  0  0  0  0  0  0  0  0  0
   -3.5926    1.8813   -1.1893 C   0  0  2  0  0  0  0  0  0  0  0  0
   -4.3009    3.1703   -0.7413 C   0  0  0  0  0  0  0  0  0  0  0  0
   -4.4584    4.2803   -1.6802 C   0  0  0  0  0  0  0  0  0  0  0  0
   -5.6587    3.4331   -1.4014 C   0  0  0  0  0  0  0  0  0  0  0  0
   -4.2611    1.4274   -2.2937 O   0  0  0  0  0  0  0  0  0  0  0  0
   -3.3759   -1.0880   -1.6293 C   0  0  0  0  0  0  0  0  0  0  0  0
   -4.7286   -1.6829   -1.5874 C   0  0  0  0  0  0  0  0  0  0  0  0
   -4.9212   -2.3322   -2.9828 C   0  0  0  0  0  0  0  0  0  0  0  0
   -6.3849   -2.5714   -3.1368 C   0  0  0  0  0  0  0  0  0  0  0  0
   -6.9372   -3.4726   -2.0549 C   0  0  0  0  0  0  0  0  0  0  0  0
   -6.5097   -3.0803   -0.6896 C   0  0  0  0  0  0  0  0  0  0  0  0
   -5.0059   -2.7529   -0.6060 C   0  0  0  0  0  0  0  0  0  0  0  0
    3.6391   -2.2348    3.3863 H   0  0  0  0  0  0  0  0  0  0  0  0
    3.9412   -3.6495    0.1267 H   0  0  0  0  0  0  0  0  0  0  0  0
    6.3612   -2.7231    2.3676 H   0  0  0  0  0  0  0  0  0  0  0  0
    6.2535   -3.7844    0.9226 H   0  0  0  0  0  0  0  0  0  0  0  0
    7.6258   -2.5518    1.1218 H   0  0  0  0  0  0  0  0  0  0  0  0
    7.4633   -0.6661    1.2076 H   0  0  0  0  0  0  0  0  0  0  0  0
    5.9821   -0.0301    1.9258 H   0  0  0  0  0  0  0  0  0  0  0  0
    6.3941    0.3327    0.1732 H   0  0  0  0  0  0  0  0  0  0  0  0
    5.8817   -3.0845   -0.9750 H   0  0  0  0  0  0  0  0  0  0  0  0
    6.8484   -1.6329   -1.2275 H   0  0  0  0  0  0  0  0  0  0  0  0
    5.0298   -1.6406   -1.4958 H   0  0  0  0  0  0  0  0  0  0  0  0
    3.1498   -1.5888   -0.8479 H   0  0  0  0  0  0  0  0  0  0  0  0
    2.0328   -2.0179    0.4128 H   0  0  0  0  0  0  0  0  0  0  0  0
    2.3369    0.1796    1.5165 H   0  0  0  0  0  0  0  0  0  0  0  0
    4.1408    1.3019    0.8472 H   0  0  0  0  0  0  0  0  0  0  0  0
    2.7685    2.1827    0.2278 H   0  0  0  0  0  0  0  0  0  0  0  0
    4.8219    0.6742   -1.4885 H   0  0  0  0  0  0  0  0  0  0  0  0
    2.8243    0.6488   -2.9394 H   0  0  0  0  0  0  0  0  0  0  0  0
    2.1587    2.1337   -2.1899 H   0  0  0  0  0  0  0  0  0  0  0  0
    4.7392    2.0472   -3.7732 H   0  0  0  0  0  0  0  0  0  0  0  0
    3.0874    2.3431   -4.3938 H   0  0  0  0  0  0  0  0  0  0  0  0
    4.6772    4.3333   -3.5845 H   0  0  0  0  0  0  0  0  0  0  0  0
    2.9092    4.4343   -3.4312 H   0  0  0  0  0  0  0  0  0  0  0  0
    4.3604    4.8183   -1.2896 H   0  0  0  0  0  0  0  0  0  0  0  0
    2.8817    3.7349   -1.1626 H   0  0  0  0  0  0  0  0  0  0  0  0
    5.6716    2.6856   -1.7963 H   0  0  0  0  0  0  0  0  0  0  0  0
    5.0952    2.8642   -0.1172 H   0  0  0  0  0  0  0  0  0  0  0  0
    1.0097    1.5215   -0.3088 H   0  0  0  0  0  0  0  0  0  0  0  0
    0.1853    0.4865   -1.8951 H   0  0  0  0  0  0  0  0  0  0  0  0
   -0.1423    1.1140    1.3789 H   0  0  0  0  0  0  0  0  0  0  0  0
   -0.2737   -1.7727    0.7934 H   0  0  0  0  0  0  0  0  0  0  0  0
   -0.2773   -2.1664    3.2116 H   0  0  0  0  0  0  0  0  0  0  0  0
    1.2594   -1.6977    2.5333 H   0  0  0  0  0  0  0  0  0  0  0  0
    0.8856   -0.8866    4.7320 H   0  0  0  0  0  0  0  0  0  0  0  0
   -1.3932    1.0226    4.0200 H   0  0  0  0  0  0  0  0  0  0  0  0
   -1.5568   -0.5147    4.9178 H   0  0  0  0  0  0  0  0  0  0  0  0
   -0.8567    1.7247    5.9891 H   0  0  0  0  0  0  0  0  0  0  0  0
    0.5523    2.6965    4.6501 H   0  0  0  0  0  0  0  0  0  0  0  0
    1.7146    1.7650    5.6324 H   0  0  0  0  0  0  0  0  0  0  0  0
    2.1986    0.6421    3.8540 H   0  0  0  0  0  0  0  0  0  0  0  0
   -2.3202   -0.1211    2.3560 H   0  0  0  0  0  0  0  0  0  0  0  0
   -3.0096   -2.4223    2.7431 H   0  0  0  0  0  0  0  0  0  0  0  0
   -2.5170   -2.2905    0.2820 H   0  0  0  0  0  0  0  0  0  0  0  0
   -1.8045   -0.0853   -0.6874 H   0  0  0  0  0  0  0  0  0  0  0  0
   -4.5826    0.7509    0.3062 H   0  0  0  0  0  0  0  0  0  0  0  0
   -3.5025    1.9551    1.6124 H   0  0  0  0  0  0  0  0  0  0  0  0
   -2.5608    2.1800   -1.4914 H   0  0  0  0  0  0  0  0  0  0  0  0
   -4.3429    3.3331    0.3739 H   0  0  0  0  0  0  0  0  0  0  0  0
   -3.9469    4.1523   -2.6683 H   0  0  0  0  0  0  0  0  0  0  0  0
   -4.5184    5.3163   -1.3222 H   0  0  0  0  0  0  0  0  0  0  0  0
   -5.9714    2.7525   -2.2355 H   0  0  0  0  0  0  0  0  0  0  0  0
   -6.4743    3.8548   -0.8180 H   0  0  0  0  0  0  0  0  0  0  0  0
   -4.2066    2.0485   -3.0504 H   0  0  0  0  0  0  0  0  0  0  0  0
   -2.6661   -1.9691   -1.8040 H   0  0  0  0  0  0  0  0  0  0  0  0
   -3.2556   -0.5030   -2.5585 H   0  0  0  0  0  0  0  0  0  0  0  0
   -5.5411   -0.8888   -1.6033 H   0  0  0  0  0  0  0  0  0  0  0  0
   -4.5996   -1.6006   -3.7521 H   0  0  0  0  0  0  0  0  0  0  0  0
   -4.3416   -3.2726   -2.9980 H   0  0  0  0  0  0  0  0  0  0  0  0
   -6.9096   -1.5917   -3.1045 H   0  0  0  0  0  0  0  0  0  0  0  0
   -6.6131   -3.0486   -4.1186 H   0  0  0  0  0  0  0  0  0  0  0  0
   -6.7127   -4.5403   -2.2481 H   0  0  0  0  0  0  0  0  0  0  0  0
   -8.0447   -3.3878   -2.1054 H   0  0  0  0  0  0  0  0  0  0  0  0
   -7.0379   -2.2031   -0.2725 H   0  0  0  0  0  0  0  0  0  0  0  0
   -6.7478   -3.9318   -0.0091 H   0  0  0  0  0  0  0  0  0  0  0  0
   -4.8027   -2.5053    0.4595 H   0  0  0  0  0  0  0  0  0  0  0  0
   -4.4686   -3.6800   -0.8794 H   0  0  0  0  0  0  0  0  0  0  0  0
    3.6391   -2.2348    3.3863 H   0  0  0  0  0  0  0  0  0  0  0  0
    3.9412   -3.6495    0.1267 H   0  0  0  0  0  0  0  0  0  0  0  0
    6.3612   -2.7231    2.3676 H   0  0  0  0  0  0  0  0  0  0  0  0
    6.2535   -3.7844    0.9226 H   0  0  0  0  0  0  0  0  0  0  0  0
    7.6258   -2.5518    1.1218 H   0  0  0  0  0  0  0  0  0  0  0  0
    7.4633   -0.6661    1.2076 H   0  0  0  0  0  0  0  0  0  0  0  0
    5.9821   -0.0301    1.9258 H   0  0  0  0  0  0  0  0  0  0  0  0
    6.3941    0.3327    0.1732 H   0  0  0  0  0  0  0  0  0  0  0  0
    5.8817   -3.0845   -0.9750 H   0  0  0  0  0  0  0  0  0  0  0  0
    6.8484   -1.6329   -1.2275 H   0  0  0  0  0  0  0  0  0  0  0  0
    5.0298   -1.6406   -1.4958 H   0  0  0  0  0  0  0  0  0  0  0  0
    3.1498   -1.5888   -0.8479 H   0  0  0  0  0  0  0  0  0  0  0  0
    2.0328   -2.0179    0.4128 H   0  0  0  0  0  0  0  0  0  0  0  0
    2.3369    0.1796    1.5165 H   0  0  0  0  0  0  0  0  0  0  0  0
    4.1408    1.3019    0.8472 H   0  0  0  0  0  0  0  0  0  0  0  0
    2.7685    2.1827    0.2278 H   0  0  0  0  0  0  0  0  0  0  0  0
    4.8219    0.6742   -1.4885 H   0  0  0  0  0  0  0  0  0  0  0  0
    2.8243    0.6488   -2.9394 H   0  0  0  0  0  0  0  0  0  0  0  0
    2.1587    2.1337   -2.1899 H   0  0  0  0  0  0  0  0  0  0  0  0
    4.7392    2.0472   -3.7732 H   0  0  0  0  0  0  0  0  0  0  0  0
    3.0874    2.3431   -4.3938 H   0  0  0  0  0  0  0  0  0  0  0  0
    4.6772    4.3333   -3.5845 H   0  0  0  0  0  0  0  0  0  0  0  0
    2.9092    4.4343   -3.4312 H   0  0  0  0  0  0  0  0  0  0  0  0
    4.3604    4.8183   -1.2896 H   0  0  0  0  0  0  0  0  0  0  0  0
    2.8817    3.7349   -1.1626 H   0  0  0  0  0  0  0  0  0  0  0  0
    5.6716    2.6856   -1.7963 H   0  0  0  0  0  0  0  0  0  0  0  0
    5.0952    2.8642   -0.1172 H   0  0  0  0  0  0  0  0  0  0  0  0
    1.0097    1.5215   -0.3088 H   0  0  0  0  0  0  0  0  0  0  0  0
    0.1853    0.4865   -1.8951 H   0  0  0  0  0  0  0  0  0  0  0  0
   -0.1423    1.1140    1.3789 H   0  0  0  0  0  0  0  0  0  0  0  0
   -0.2737   -1.7727    0.7934 H   0  0  0  0  0  0  0  0  0  0  0  0
   -0.2773   -2.1664    3.2116 H   0  0  0  0  0  0  0  0  0  0  0  0
    1.2594   -1.6977    2.5333 H   0  0  0  0  0  0  0  0  0  0  0  0
    0.8856   -0.8866    4.7320 H   0  0  0  0  0  0  0  0  0  0  0  0
   -1.3932    1.0226    4.0200 H   0  0  0  0  0  0  0  0  0  0  0  0
   -1.5568   -0.5147    4.9178 H   0  0  0  0  0  0  0  0  0  0  0  0
   -0.8567    1.7247    5.9891 H   0  0  0  0  0  0  0  0  0  0  0  0
    0.5523    2.6965    4.6501 H   0  0  0  0  0  0  0  0  0  0  0  0
    1.7146    1.7650    5.6324 H   0  0  0  0  0  0  0  0  0  0  0  0
    2.1986    0.6421    3.8540 H   0  0  0  0  0  0  0  0  0  0  0  0
   -2.3202   -0.1211    2.3560 H   0  0  0  0  0  0  0  0  0  0  0  0
   -3.0096   -2.4223    2.7431 H   0  0  0  0  0  0  0  0  0  0  0  0
   -2.5170   -2.2905    0.2820 H   0  0  0  0  0  0  0  0  0  0  0  0
   -1.8045   -0.0853   -0.6874 H   0  0  0  0  0  0  0  0  0  0  0  0
   -4.5826    0.7509    0.3062 H   0  0  0  0  0  0  0  0  0  0  0  0
   -3.5025    1.9551    1.6124 H   0  0  0  0  0  0  0  0  0  0  0  0
   -2.5608    2.1800   -1.4914 H   0  0  0  0  0  0  0  0  0  0  0  0
   -4.3429    3.3331    0.3739 H   0  0  0  0  0  0  0  0  0  0  0  0
   -3.9469    4.1523   -2.6683 H   0  0  0  0  0  0  0  0  0  0  0  0
   -4.5184    5.3163   -1.3222 H   0  0  0  0  0  0  0  0  0  0  0  0
   -5.9714    2.7525   -2.2355 H   0  0  0  0  0  0  0  0  0  0  0  0
   -6.4743    3.8548   -0.8180 H   0  0  0  0  0  0  0  0  0  0  0  0
   -4.2066    2.0485   -3.0504 H   0  0  0  0  0  0  0  0  0  0  0  0
   -2.6661   -1.9691   -1.8040 H   0  0  0  0  0  0  0  0  0  0  0  0
   -3.2556   -0.5030   -2.5585 H   0  0  0  0  0  0  0  0  0  0  0  0
   -5.5411   -0.8888   -1.6033 H   0  0  0  0  0  0  0  0  0  0  0  0
   -4.5996   -1.6006   -3.7521 H   0  0  0  0  0  0  0  0  0  0  0  0
   -4.3416   -3.2726   -2.9980 H   0  0  0  0  0  0  0  0  0  0  0  0
   -6.9096   -1.5917   -3.1045 H   0  0  0  0  0  0  0  0  0  0  0  0
   -6.6131   -3.0486   -4.1186 H   0  0  0  0  0  0  0  0  0  0  0  0
   -6.7127   -4.5403   -2.2481 H   0  0  0  0  0  0  0  0  0  0  0  0
   -8.0447   -3.3878   -2.1054 H   0  0  0  0  0  0  0  0  0  0  0  0
   -7.0379   -2.2031   -0.2725 H   0  0  0  0  0  0  0  0  0  0  0  0
   -6.7478   -3.9318   -0.0091 H   0  0  0  0  0  0  0  0  0  0  0  0
   -4.8027   -2.5053    0.4595 H   0  0  0  0  0  0  0  0  0  0  0  0
   -4.4686   -3.6800   -0.8794 H   0  0  0  0  0  0  0  0  0  0  0  0
  2  1  1  0
  2  3  1  0
  2  4  1  0
  4  5  1  0
  4  6  1  0
  4  7  1  0
  2  8  1  0
  8  9  1  0
  9 10  1  0
 10 11  1  0
 11 12  1  0
 12 13  1  0
 13 14  1  0
 14 15  1  0
 11 16  1  0
 15 16  1  0
  9 17  1  0
 17 18  1  0
 17 19  1  0
 19 20  1  0
 20 21  1  0
 21 22  1  0
 22 23  1  0
 23 24  1  0
 24 25  1  0
 22 26  1  0
 25 26  1  0
 20 27  1  0
 27 28  1  0
 27 29  1  0
 29 30  1  0
 30 31  1  0
 31 32  1  0
 31 33  1  0
 33 34  1  0
 34 35  1  0
 34 36  1  0
 35 36  1  0
 33 37  1  0
 30 38  1  0
 38 39  1  0
 39 40  1  0
 40 41  1  0
 41 42  1  0
 42 43  1  0
 39 44  1  0
 43 44  1  0
 46 45  1  0
 46 47  1  0
 46 48  1  0
 48 49  1  0
 48 50  1  0
 48 51  1  0
 46 52  1  0
 52 53  1  0
 53 54  1  0
 54 55  1  0
 55 56  1  0
 56 57  1  0
 57 58  1  0
 58 59  1  0
 55 60  1  0
 59 60  1  0
 53 61  1  0
 61 62  1  0
 61 63  1  0
 63 64  1  0
 64 65  1  0
 65 66  1  0
 66 67  1  0
 67 68  1  0
 68 69  1  0
 66 70  1  0
 69 70  1  0
 64 71  1  0
 71 72  1  0
 71 73  1  0
 73 74  1  0
 74 75  1  0
 75 76  1  0
 75 77  1  0
 77 78  1  0
 78 79  1  0
 78 80  1  0
 79 80  1  0
 77 81  1  0
 74 82  1  0
 82 83  1  0
 83 84  1  0
 84 85  1  0
 85 86  1  0
 86 87  1  0
 83 88  1  0
 87 88  1  0
  1 89  1  0
  3 90  1  0
  5 91  1  0
  5 92  1  0
  5 93  1  0
  6 94  1  0
  6 95  1  0
  6 96  1  0
  7 97  1  0
  7 98  1  0
  7 99  1  0
  8100  1  0
  8101  1  0
  9102  1  1
 10103  1  0
 10104  1  0
 11105  1  0
 12106  1  0
 12107  1  0
 13108  1  0
 13109  1  0
 14110  1  0
 14111  1  0
 15112  1  0
 15113  1  0
 16114  1  0
 16115  1  0
 17116  1  0
 18117  1  0
 19118  1  0
 20119  1  6
 21120  1  0
 21121  1  0
 22122  1  0
 23123  1  0
 23124  1  0
 24125  1  0
 25126  1  0
 25127  1  0
 26128  1  0
 27129  1  0
 28130  1  0
 29131  1  0
 30132  1  6
 31133  1  1
 32134  1  0
 33135  1  6
 34136  1  0
 35137  1  0
 35138  1  0
 36139  1  0
 36140  1  0
 37141  1  0
 38142  1  0
 38143  1  0
 39144  1  0
 40145  1  0
 40146  1  0
 41147  1  0
 41148  1  0
 42149  1  0
 42150  1  0
 43151  1  0
 43152  1  0
 44153  1  0
 44154  1  0
 45155  1  0
 47156  1  0
 49157  1  0
 49158  1  0
 49159  1  0
 50160  1  0
 50161  1  0
 50162  1  0
 51163  1  0
 51164  1  0
 51165  1  0
 52166  1  0
 52167  1  0
 53168  1  1
 54169  1  0
 54170  1  0
 55171  1  0
 56172  1  0
 56173  1  0
 57174  1  0
 57175  1  0
 58176  1  0
 58177  1  0
 59178  1  0
 59179  1  0
 60180  1  0
 60181  1  0
 61182  1  0
 62183  1  0
 63184  1  0
 64185  1  6
 65186  1  0
 65187  1  0
 66188  1  0
 67189  1  0
 67190  1  0
 68191  1  0
 69192  1  0
 69193  1  0
 70194  1  0
 71195  1  0
 72196  1  0
 73197  1  0
 74198  1  6
 75199  1  1
 76200  1  0
 77201  1  6
 78202  1  0
 79203  1  0
 79204  1  0
 80205  1  0
 80206  1  0
 81207  1  0
 82208  1  0
 82209  1  0
 83210  1  0
 84211  1  0
 84212  1  0
 85213  1  0
 85214  1  0
 86215  1  0
 86216  1  0
 87217  1  0
 87218  1  0
 88219  1  0
 88220  1  0
M  END
>  <PDBID>  (1) 
3D91

>  <PDB ID>  (1) 
3D91

>  <Generic Name>  (1) 
Remikiren

>  <Brand Name>  (1) 
nan

>  <DrugBank ID>  (1) 
DB00212

>  <ATC Codes>  (1) 
C09XA01

>  <Ligand ID>  (1) 
REM

>  <Target Name>  (1) 
Renin

>  <UniProt ID>  (1) 
P00797

>  <PDB ID.1>  (1) 
3D91

>  <Seq. Identity>  (1) 
100%

$$$$
