PDB_DB01264_02
     RDKit          3D

 91 94  0  0  0  0  0  0  0  0999 V2000
    7.0145   -2.9255   -0.0299 N   0  0  0  0  0  0  0  0  0  0  0  0
    5.8000   -3.2827    0.7297 C   0  0  0  0  0  0  0  0  0  0  0  0
    4.7878   -3.7334   -0.2525 C   0  0  0  0  0  0  0  0  0  0  0  0
    3.3505   -3.4478    0.0999 C   0  0  0  0  0  0  0  0  0  0  0  0
    3.3138   -1.9490    0.5011 C   0  0  0  0  0  0  0  0  0  0  0  0
    3.9925   -1.9311    1.8434 C   0  0  0  0  0  0  0  0  0  0  0  0
    5.4731   -2.0914    1.5562 C   0  0  0  0  0  0  0  0  0  0  0  0
    1.7760   -1.2642    0.4113 S   0  0  0  0  0  0  0  0  0  0  0  0
    0.7784   -1.8400    1.5376 O   0  0  0  0  0  0  0  0  0  0  0  0
    1.1475   -1.8605   -1.0549 O   0  0  0  0  0  0  0  0  0  0  0  0
    1.8540    0.3099    0.2559 N   0  0  0  0  0  0  0  0  0  0  0  0
    3.0956    0.9400    0.0230 C   0  0  0  0  0  0  0  0  0  0  0  0
    3.5792    1.1599   -1.3563 C   0  0  0  0  0  0  0  0  0  0  0  0
    2.7393    2.0204   -2.2515 C   0  0  0  0  0  0  0  0  0  0  0  0
    4.9835    1.8108   -1.3366 C   0  0  0  0  0  0  0  0  0  0  0  0
    0.7009    1.0540   -0.1051 C   0  0  0  0  0  0  0  0  0  0  0  0
   -0.6288    0.4255    0.3055 C   0  0  1  0  0  0  0  0  0  0  0  0
   -0.6755    0.3104    1.6972 O   0  0  0  0  0  0  0  0  0  0  0  0
   -1.6962    1.3739   -0.2191 C   0  0  1  0  0  0  0  0  0  0  0  0
   -3.0240    1.0784    0.1081 N   0  0  0  0  0  0  0  0  0  0  0  0
   -3.6570   -0.0763   -0.3660 C   0  0  0  0  0  0  0  0  0  0  0  0
   -5.0966    0.0739   -0.1139 O   0  0  0  0  0  0  0  0  0  0  0  0
   -3.3533   -1.2987    0.2368 O   0  0  0  0  0  0  0  0  0  0  0  0
   -3.2592   -2.2531   -0.7578 C   0  0  1  0  0  0  0  0  0  0  0  0
   -2.0323   -3.0793   -0.6446 C   0  0  0  0  0  0  0  0  0  0  0  0
   -2.3939   -4.4077   -0.4366 O   0  0  0  0  0  0  0  0  0  0  0  0
   -3.7050   -4.5786   -0.7926 C   0  0  1  0  0  0  0  0  0  0  0  0
   -4.3631   -5.4901    0.0030 O   0  0  0  0  0  0  0  0  0  0  0  0
   -5.1280   -4.8580    0.9403 C   0  0  0  0  0  0  0  0  0  0  0  0
   -4.9503   -3.3553    0.7582 C   0  0  0  0  0  0  0  0  0  0  0  0
   -4.4079   -3.2604   -0.6398 C   0  0  1  0  0  0  0  0  0  0  0  0
   -1.2802    2.8214   -0.1273 C   0  0  0  0  0  0  0  0  0  0  0  0
   -3.5974    3.7499    0.1240 C   0  0  0  0  0  0  0  0  0  0  0  0
   -4.2558    5.1386   -0.0671 C   0  0  0  0  0  0  0  0  0  0  0  0
   -3.4283    6.0784    0.8118 C   0  0  0  0  0  0  0  0  0  0  0  0
   -1.9765    6.0571    0.3904 C   0  0  0  0  0  0  0  0  0  0  0  0
   -1.7463    5.1762   -0.8081 C   0  0  0  0  0  0  0  0  0  0  0  0
   -2.3216    3.7901   -0.6257 C   0  0  0  0  0  0  0  0  0  0  0  0
    7.5262   -2.1357    0.4252 H   0  0  0  0  0  0  0  0  0  0  0  0
    7.6069   -3.7726   -0.1667 H   0  0  0  0  0  0  0  0  0  0  0  0
    6.0927   -4.1119    1.4263 H   0  0  0  0  0  0  0  0  0  0  0  0
    4.9510   -4.8224   -0.4409 H   0  0  0  0  0  0  0  0  0  0  0  0
    4.9675   -3.1816   -1.2238 H   0  0  0  0  0  0  0  0  0  0  0  0
    2.7742   -3.5186   -0.8273 H   0  0  0  0  0  0  0  0  0  0  0  0
    2.9809   -4.0673    0.9338 H   0  0  0  0  0  0  0  0  0  0  0  0
    3.9890   -1.4848   -0.2455 H   0  0  0  0  0  0  0  0  0  0  0  0
    3.8249   -1.0458    2.4478 H   0  0  0  0  0  0  0  0  0  0  0  0
    3.7208   -2.8772    2.4139 H   0  0  0  0  0  0  0  0  0  0  0  0
    5.7972   -1.1415    1.0466 H   0  0  0  0  0  0  0  0  0  0  0  0
    6.0670   -2.1307    2.4993 H   0  0  0  0  0  0  0  0  0  0  0  0
    1.0969   -2.6187    2.0558 H   0  0  0  0  0  0  0  0  0  0  0  0
    0.8895   -2.7889   -0.8700 H   0  0  0  0  0  0  0  0  0  0  0  0
    3.0654    1.9545    0.5181 H   0  0  0  0  0  0  0  0  0  0  0  0
    3.9026    0.3514    0.5610 H   0  0  0  0  0  0  0  0  0  0  0  0
    3.7151    0.1787   -1.9177 H   0  0  0  0  0  0  0  0  0  0  0  0
    2.0976    1.4489   -2.9555 H   0  0  0  0  0  0  0  0  0  0  0  0
    2.2485    2.8155   -1.6919 H   0  0  0  0  0  0  0  0  0  0  0  0
    3.4622    2.5708   -2.9414 H   0  0  0  0  0  0  0  0  0  0  0  0
    5.6539    1.0603   -0.8766 H   0  0  0  0  0  0  0  0  0  0  0  0
    4.9346    2.7090   -0.7008 H   0  0  0  0  0  0  0  0  0  0  0  0
    5.2796    2.0064   -2.3675 H   0  0  0  0  0  0  0  0  0  0  0  0
    0.6350    1.2073   -1.1813 H   0  0  0  0  0  0  0  0  0  0  0  0
    0.7712    2.0508    0.3881 H   0  0  0  0  0  0  0  0  0  0  0  0
   -0.7908   -0.5539   -0.1368 H   0  0  0  0  0  0  0  0  0  0  0  0
    0.0042    0.9006    2.1168 H   0  0  0  0  0  0  0  0  0  0  0  0
   -1.6504    1.1910   -1.3783 H   0  0  0  0  0  0  0  0  0  0  0  0
   -3.2794    1.3107    1.1124 H   0  0  0  0  0  0  0  0  0  0  0  0
   -3.6513   -0.1545   -1.4600 H   0  0  0  0  0  0  0  0  0  0  0  0
   -5.3988    0.8402   -0.6782 H   0  0  0  0  0  0  0  0  0  0  0  0
   -3.3294   -1.7955   -1.7691 H   0  0  0  0  0  0  0  0  0  0  0  0
   -1.4025   -2.7861    0.2463 H   0  0  0  0  0  0  0  0  0  0  0  0
   -1.3766   -3.0414   -1.5494 H   0  0  0  0  0  0  0  0  0  0  0  0
   -3.8095   -4.8776   -1.8738 H   0  0  0  0  0  0  0  0  0  0  0  0
   -4.9677   -5.1899    1.9720 H   0  0  0  0  0  0  0  0  0  0  0  0
   -6.1981   -5.1160    0.7083 H   0  0  0  0  0  0  0  0  0  0  0  0
   -4.3065   -2.9265    1.5286 H   0  0  0  0  0  0  0  0  0  0  0  0
   -5.9578   -2.8716    0.7551 H   0  0  0  0  0  0  0  0  0  0  0  0
   -5.1776   -3.1039   -1.4085 H   0  0  0  0  0  0  0  0  0  0  0  0
   -0.9554    3.0990    0.8799 H   0  0  0  0  0  0  0  0  0  0  0  0
   -0.4069    2.9550   -0.8415 H   0  0  0  0  0  0  0  0  0  0  0  0
   -4.2787    2.9870   -0.2624 H   0  0  0  0  0  0  0  0  0  0  0  0
   -3.4110    3.6556    1.2174 H   0  0  0  0  0  0  0  0  0  0  0  0
   -5.2878    5.1417    0.2912 H   0  0  0  0  0  0  0  0  0  0  0  0
   -4.1835    5.4674   -1.1182 H   0  0  0  0  0  0  0  0  0  0  0  0
   -3.8418    7.0918    0.8416 H   0  0  0  0  0  0  0  0  0  0  0  0
   -3.4804    5.6652    1.8403 H   0  0  0  0  0  0  0  0  0  0  0  0
   -1.7138    7.0923    0.0920 H   0  0  0  0  0  0  0  0  0  0  0  0
   -1.2919    5.7819    1.2209 H   0  0  0  0  0  0  0  0  0  0  0  0
   -2.0972    5.6880   -1.7257 H   0  0  0  0  0  0  0  0  0  0  0  0
   -0.6451    5.0461   -0.9191 H   0  0  0  0  0  0  0  0  0  0  0  0
   -2.5743    3.4622   -1.6832 H   0  0  0  0  0  0  0  0  0  0  0  0
  1  2  1  0
  2  3  1  0
  3  4  1  0
  4  5  1  0
  5  6  1  0
  2  7  1  0
  6  7  1  0
  5  8  1  0
  8  9  1  0
  8 10  1  0
  8 11  1  0
 11 12  1  0
 12 13  1  0
 13 14  1  0
 13 15  1  0
 11 16  1  0
 16 17  1  0
 17 18  1  0
 17 19  1  0
 19 20  1  0
 20 21  1  0
 21 22  1  0
 21 23  1  0
 23 24  1  0
 24 25  1  0
 25 26  1  0
 26 27  1  0
 27 28  1  0
 28 29  1  0
 29 30  1  0
 24 31  1  0
 27 31  1  0
 30 31  1  0
 19 32  1  0
 33 34  1  0
 34 35  1  0
 35 36  1  0
 36 37  1  0
 32 38  1  0
 33 38  1  0
 37 38  1  0
  1 39  1  0
  1 40  1  0
  2 41  1  0
  3 42  1  0
  3 43  1  0
  4 44  1  0
  4 45  1  0
  5 46  1  0
  6 47  1  0
  6 48  1  0
  7 49  1  0
  7 50  1  0
  9 51  1  0
 10 52  1  0
 12 53  1  0
 12 54  1  0
 13 55  1  0
 14 56  1  0
 14 57  1  0
 14 58  1  0
 15 59  1  0
 15 60  1  0
 15 61  1  0
 16 62  1  0
 16 63  1  0
 17 64  1  6
 18 65  1  0
 19 66  1  6
 20 67  1  0
 21 68  1  0
 22 69  1  0
 24 70  1  6
 25 71  1  0
 25 72  1  0
 27 73  1  6
 29 74  1  0
 29 75  1  0
 30 76  1  0
 30 77  1  0
 31 78  1  6
 32 79  1  0
 32 80  1  0
 33 81  1  0
 33 82  1  0
 34 83  1  0
 34 84  1  0
 35 85  1  0
 35 86  1  0
 36 87  1  0
 36 88  1  0
 37 89  1  0
 37 90  1  0
 38 91  1  0
M  END
>  <PDBID>  (1) 
4HLA

>  <PDB ID>  (1) 
4HLA

>  <Generic Name>  (1) 
Darunavir

>  <Brand Name>  (1) 
Pat-darunavir#Prezcobix#Prezista

>  <DrugBank ID>  (1) 
DB01264

>  <ATC Codes>  (1) 
J05AE10#J05AR14

>  <Ligand ID>  (1) 
17

>  <Target Name>  (1) 
Pol polyprotein

>  <UniProt ID>  (1) 
Q72874

>  <PDB ID.1>  (1) 
4HLA

>  <Seq. Identity>  (1) 
99%

$$$$
