PDB_DB00456_02
     RDKit          3D

 56 58  0  0  0  0  0  0  0  0999 V2000
    0.1040    0.6974   -0.5982 S   0  0  0  0  0  0  0  0  0  0  0  0
    1.5692    0.8709    0.4160 C   0  0  0  0  0  0  0  0  0  0  0  0
    2.6321   -0.0400   -0.1105 C   0  0  0  0  0  0  0  0  0  0  0  0
    3.8231    0.0954    0.8232 C   0  0  0  0  0  0  0  0  0  0  0  0
    4.2890    1.4117    0.8522 O   0  0  0  0  0  0  0  0  0  0  0  0
    5.3815    1.5377    1.6977 C   0  0  0  0  0  0  0  0  0  0  0  0
    5.2099    2.4608    2.7047 O   0  0  0  0  0  0  0  0  0  0  0  0
    6.5751    1.9402    0.8392 C   0  0  0  0  0  0  0  0  0  0  0  0
    2.2960   -1.4552   -0.2854 C   0  0  0  0  0  0  0  0  0  0  0  0
    3.0771   -1.9720   -1.5094 C   0  0  0  0  0  0  0  0  0  0  0  0
    2.5452   -1.4318   -2.6862 O   0  0  0  0  0  0  0  0  0  0  0  0
    4.4131   -1.6828   -1.4571 O   0  0  0  0  0  0  0  0  0  0  0  0
    0.9843   -1.8543   -0.4501 N   0  0  0  0  0  0  0  0  0  0  0  0
    0.1066   -1.0253   -1.2289 C   0  0  1  0  0  0  0  0  0  0  0  0
   -1.0250   -1.7684   -0.5551 C   0  0  1  0  0  0  0  0  0  0  0  0
    0.0124   -1.8540    0.5800 C   0  0  0  0  0  0  0  0  0  0  0  0
   -0.1201   -3.0779    1.2723 O   0  0  0  0  0  0  0  0  0  0  0  0
   -2.2131   -1.0407   -0.2558 N   0  0  0  0  0  0  0  0  0  0  0  0
   -2.8425   -0.5917   -1.4674 C   0  0  2  0  0  0  0  0  0  0  0  0
   -1.8920   -0.1543   -2.3795 O   0  0  0  0  0  0  0  0  0  0  0  0
   -3.8931    0.4654   -1.2731 C   0  0  0  0  0  0  0  0  0  0  0  0
   -5.0112   -0.0312   -0.3868 C   0  0  0  0  0  0  0  0  0  0  0  0
   -6.0405    1.0779   -0.2472 C   0  0  0  0  0  0  0  0  0  0  0  0
   -6.8544    0.7496    0.9767 C   0  0  0  0  0  0  0  0  0  0  0  0
   -5.9300    0.6419    2.1493 C   0  0  0  0  0  0  0  0  0  0  0  0
   -4.4569   -0.1272    1.3645 S   0  0  0  0  0  0  0  0  0  0  0  0
    1.9542    1.9211    0.2388 H   0  0  0  0  0  0  0  0  0  0  0  0
    1.4083    0.8221    1.4996 H   0  0  0  0  0  0  0  0  0  0  0  0
    2.9563    0.4021   -1.0971 H   0  0  0  0  0  0  0  0  0  0  0  0
    3.5512   -0.1982    1.8658 H   0  0  0  0  0  0  0  0  0  0  0  0
    4.6745   -0.5526    0.5439 H   0  0  0  0  0  0  0  0  0  0  0  0
    5.5935    0.5282    2.1333 H   0  0  0  0  0  0  0  0  0  0  0  0
    6.0255    2.4475    3.2641 H   0  0  0  0  0  0  0  0  0  0  0  0
    6.4036    1.5610   -0.1755 H   0  0  0  0  0  0  0  0  0  0  0  0
    7.5041    1.4508    1.2315 H   0  0  0  0  0  0  0  0  0  0  0  0
    6.6829    3.0432    0.7931 H   0  0  0  0  0  0  0  0  0  0  0  0
    2.7387   -2.0396    0.5755 H   0  0  0  0  0  0  0  0  0  0  0  0
    2.9396   -3.0765   -1.6020 H   0  0  0  0  0  0  0  0  0  0  0  0
    2.9918   -0.5806   -2.9340 H   0  0  0  0  0  0  0  0  0  0  0  0
    4.9812   -2.4107   -1.8440 H   0  0  0  0  0  0  0  0  0  0  0  0
    0.1986   -1.1150   -2.3119 H   0  0  0  0  0  0  0  0  0  0  0  0
   -1.1762   -2.8066   -0.9387 H   0  0  0  0  0  0  0  0  0  0  0  0
   -0.1173   -0.9919    1.2258 H   0  0  0  0  0  0  0  0  0  0  0  0
   -1.0432   -3.4570    1.1277 H   0  0  0  0  0  0  0  0  0  0  0  0
   -2.9006   -1.7114    0.2016 H   0  0  0  0  0  0  0  0  0  0  0  0
   -3.3564   -1.4886   -1.9455 H   0  0  0  0  0  0  0  0  0  0  0  0
   -2.2365    0.5615   -2.9719 H   0  0  0  0  0  0  0  0  0  0  0  0
   -4.2775    0.7298   -2.2792 H   0  0  0  0  0  0  0  0  0  0  0  0
   -3.4556    1.4095   -0.8707 H   0  0  0  0  0  0  0  0  0  0  0  0
   -5.4500   -0.9587   -0.7416 H   0  0  0  0  0  0  0  0  0  0  0  0
   -6.7163    1.0620   -1.1079 H   0  0  0  0  0  0  0  0  0  0  0  0
   -5.5816    2.0589   -0.1447 H   0  0  0  0  0  0  0  0  0  0  0  0
   -7.5557    1.5780    1.1393 H   0  0  0  0  0  0  0  0  0  0  0  0
   -7.4146   -0.1997    0.8573 H   0  0  0  0  0  0  0  0  0  0  0  0
   -5.6954    1.6119    2.5872 H   0  0  0  0  0  0  0  0  0  0  0  0
   -6.3667   -0.0789    2.8950 H   0  0  0  0  0  0  0  0  0  0  0  0
  1  2  1  0
  2  3  1  0
  3  4  1  0
  4  5  1  0
  5  6  1  0
  6  7  1  0
  6  8  1  0
  3  9  1  0
  9 10  1  0
 10 11  1  0
 10 12  1  0
  9 13  1  0
  1 14  1  0
 13 14  1  0
 14 15  1  0
 13 16  1  0
 15 16  1  0
 16 17  1  0
 15 18  1  0
 18 19  1  0
 19 20  1  0
 19 21  1  0
 21 22  1  0
 22 23  1  0
 23 24  1  0
 24 25  1  0
 22 26  1  0
 25 26  1  0
  2 27  1  0
  2 28  1  0
  3 29  1  0
  4 30  1  0
  4 31  1  0
  6 32  1  0
  7 33  1  0
  8 34  1  0
  8 35  1  0
  8 36  1  0
  9 37  1  0
 10 38  1  0
 11 39  1  0
 12 40  1  0
 14 41  1  6
 15 42  1  6
 16 43  1  0
 17 44  1  0
 18 45  1  0
 19 46  1  6
 20 47  1  0
 21 48  1  0
 21 49  1  0
 22 50  1  0
 23 51  1  0
 23 52  1  0
 24 53  1  0
 24 54  1  0
 25 55  1  0
 25 56  1  0
M  END
>  <PDBID>  (1) 
1KVL

>  <PDB ID>  (1) 
1KVL

>  <Generic Name>  (1) 
Cefalotin

>  <Brand Name>  (1) 
Ceporacin#Keflin Add-vantage Inj 1gm/vial#Keflin Neutral Inj 1gm#Keflin Neutral Inj 2gm/vial#Coaxin#Keflin

>  <DrugBank ID>  (1) 
DB00456

>  <ATC Codes>  (1) 
J01DB03

>  <Ligand ID>  (1) 
CLS

>  <Target Name>  (1) 
Beta-lactamase

>  <UniProt ID>  (1) 
P00811

>  <PDB ID.1>  (1) 
1KVL

>  <Seq. Identity>  (1) 
100%

$$$$
