PDB_DB00869_01
     RDKit          3D

 43 44  0  0  0  0  0  0  0  0999 V2000
    2.1844    0.9889    1.0320 S   0  0  0  0  0  0  0  0  0  0  0  0
    2.3511   -0.2981   -0.2436 C   0  0  0  0  0  0  0  0  0  0  0  0
    1.3920   -1.3076    0.4189 C   0  0  0  0  0  0  0  0  0  0  0  0
    0.0743   -0.5298    0.6052 C   0  0  0  0  0  0  0  0  0  0  0  0
   -0.6283   -0.5418   -0.6852 C   0  0  2  0  0  0  0  0  0  0  0  0
   -1.3292    0.6989   -1.1032 C   0  0  0  0  0  0  0  0  0  0  0  0
   -1.8339    1.5941   -0.0373 C   0  0  1  0  0  0  0  0  0  0  0  0
   -0.4212    2.1238    0.8830 S   0  0  0  0  0  0  0  0  0  0  0  0
    0.3719    0.7316    1.3002 C   0  0  2  0  0  0  0  0  0  0  0  0
    3.8645   -0.8569   -0.5564 S   0  0  0  0  0  0  0  0  0  0  0  0
    3.9550   -2.1021   -1.4132 O   0  0  0  0  0  0  0  0  0  0  0  0
    4.5892    0.4301   -1.4275 O   0  0  0  0  0  0  0  0  0  0  0  0
    4.7688   -0.8976    0.8996 N   0  0  0  0  0  0  0  0  0  0  0  0
   -1.6009   -1.6444   -0.7098 N   0  0  0  0  0  0  0  0  0  0  0  0
   -2.4856    2.7953   -0.7369 C   0  0  0  0  0  0  0  0  0  0  0  0
    0.4808    3.3856   -0.1275 O   0  0  0  0  0  0  0  0  0  0  0  0
   -1.1083    3.1357    2.3361 O   0  0  0  0  0  0  0  0  0  0  0  0
   -2.6886   -1.4883    0.1796 C   0  0  0  0  0  0  0  0  0  0  0  0
   -3.4034   -2.8469    0.2564 C   0  0  0  0  0  0  0  0  0  0  0  0
    1.8340    0.0913   -1.1454 H   0  0  0  0  0  0  0  0  0  0  0  0
    1.7740   -1.5952    1.4040 H   0  0  0  0  0  0  0  0  0  0  0  0
    1.1751   -2.1610   -0.2344 H   0  0  0  0  0  0  0  0  0  0  0  0
   -0.4835   -1.2102    1.3159 H   0  0  0  0  0  0  0  0  0  0  0  0
    0.0619   -0.7997   -1.5161 H   0  0  0  0  0  0  0  0  0  0  0  0
   -2.1967    0.4296   -1.7570 H   0  0  0  0  0  0  0  0  0  0  0  0
   -0.6641    1.3147   -1.7674 H   0  0  0  0  0  0  0  0  0  0  0  0
   -2.5954    1.1940    0.6302 H   0  0  0  0  0  0  0  0  0  0  0  0
    0.3290    0.5504    2.4172 H   0  0  0  0  0  0  0  0  0  0  0  0
    4.8323   -2.4676   -1.6841 H   0  0  0  0  0  0  0  0  0  0  0  0
    4.3970    0.3271   -2.3963 H   0  0  0  0  0  0  0  0  0  0  0  0
    4.3234   -1.6409    1.4799 H   0  0  0  0  0  0  0  0  0  0  0  0
    4.5620    0.0400    1.3553 H   0  0  0  0  0  0  0  0  0  0  0  0
   -1.0675   -2.5020   -0.4383 H   0  0  0  0  0  0  0  0  0  0  0  0
   -1.7053    3.3181   -1.3545 H   0  0  0  0  0  0  0  0  0  0  0  0
   -2.9823    3.4662   -0.0274 H   0  0  0  0  0  0  0  0  0  0  0  0
   -3.1878    2.3589   -1.4776 H   0  0  0  0  0  0  0  0  0  0  0  0
   -0.1897    4.0766   -0.2257 H   0  0  0  0  0  0  0  0  0  0  0  0
   -0.2330    3.4442    2.6870 H   0  0  0  0  0  0  0  0  0  0  0  0
   -3.4405   -0.8109   -0.3181 H   0  0  0  0  0  0  0  0  0  0  0  0
   -2.4981   -1.1782    1.1959 H   0  0  0  0  0  0  0  0  0  0  0  0
   -4.4086   -2.7494    0.6660 H   0  0  0  0  0  0  0  0  0  0  0  0
   -2.8111   -3.4635    1.0017 H   0  0  0  0  0  0  0  0  0  0  0  0
   -3.3575   -3.4027   -0.6810 H   0  0  0  0  0  0  0  0  0  0  0  0
  1  2  1  0
  2  3  1  0
  3  4  1  0
  4  5  1  0
  5  6  1  0
  6  7  1  0
  7  8  1  0
  1  9  1  0
  4  9  1  0
  8  9  1  0
  2 10  1  0
 10 11  1  0
 10 12  1  0
 10 13  1  0
  5 14  1  0
  7 15  1  0
  8 16  1  0
  8 17  1  0
 14 18  1  0
 18 19  1  0
  2 20  1  0
  3 21  1  0
  3 22  1  0
  4 23  1  0
  5 24  1  6
  6 25  1  0
  6 26  1  0
  7 27  1  1
  9 28  1  1
 11 29  1  0
 12 30  1  0
 13 31  1  0
 13 32  1  0
 14 33  1  0
 15 34  1  0
 15 35  1  0
 15 36  1  0
 16 37  1  0
 17 38  1  0
 18 39  1  0
 18 40  1  0
 19 41  1  0
 19 42  1  0
 19 43  1  0
M  END
>  <PDBID>  (1) 
1CIL

>  <PDB ID>  (1) 
1CIL

>  <Generic Name>  (1) 
Dorzolamide

>  <Brand Name>  (1) 
Act Dorzotimolol#Apo-dorzo-timop#Apo-dorzolamide#Cosopt#Cosopt PF#Dorzolamide#Dorzolamide HCl#Dorzolamide HCl /timolol Maleate#Dorzolamide HCl and Timolol Maleate#Dorzolamide Hydrochloride#Dorzolamide Hydrochloride Ophthalmic Solution#Dorzolamide Hydrochloride Ophthalmic Solution 2%, 10ml Ophthalmic Solution 2%, 10ml#Dorzolamide Hydrochloride and Timolol Maleate#Dorzolamide Hydrochloride and Timolol Maleate Ophthalmic Solution#Dorzolamide Hydrochloride-timolol Maleate#Dorzolamide Hydrochloride-timolol Maleate Ophthalmic Solution Sterile Ophthalmic Solution#Jamp-dorzolamide#Jamp-dorzolamide/timolol#Med-dorzolamide#Med-dorzolamide-timolol#Mint-dorzolamide/timolol#Mylan-dorzolamide/timolol#PMS-dorzolamide-timolol#Riva-dorzolamide#Riva-dorzolamide/timolol#Sandoz Dorzolamide#Sandoz Dorzolamide/timolol#Teva-dorzotimol#Trusopt#Van-dorzolamide-timolol

>  <DrugBank ID>  (1) 
DB00869

>  <ATC Codes>  (1) 
S01EC03

>  <Ligand ID>  (1) 
ETS

>  <Target Name>  (1) 
Carbonic anhydrase 2

>  <UniProt ID>  (1) 
P00918

>  <PDB ID.1>  (1) 
1CIL

>  <Seq. Identity>  (1) 
100%

$$$$
