PDB_DB00136_07
     RDKit          3D

 80 82  0  0  0  0  0  0  0  0999 V2000
   -7.2769    2.2366   -1.9321 O   0  0  0  0  0  0  0  0  0  0  0  0
    7.5689   -0.1968   -2.1274 O   0  0  0  0  0  0  0  0  0  0  0  0
   -6.8139   -0.9943   -0.1801 C   0  0  1  0  0  0  0  0  0  0  0  0
   -7.3238    0.0683   -1.1006 C   0  0  0  0  0  0  0  0  0  0  0  0
   -6.5963    1.3719   -1.0337 C   0  0  1  0  0  0  0  0  0  0  0  0
   -5.1331    1.2696   -1.4733 C   0  0  0  0  0  0  0  0  0  0  0  0
   -4.7534   -0.1838   -1.2783 C   0  0  1  0  0  0  0  0  0  0  0  0
   -3.4876   -0.6352   -1.8343 C   0  0  0  0  0  0  0  0  0  0  0  0
   -2.1808   -0.0327   -1.4621 C   0  0  0  0  0  0  0  0  0  0  0  0
   -1.7838   -0.1934   -0.0751 C   0  0  0  0  0  0  0  0  0  0  0  0
   -1.6715   -1.6872    0.2334 C   0  0  0  0  0  0  0  0  0  0  0  0
   -5.2969   -0.7411   -0.0022 C   0  0  1  0  0  0  0  0  0  0  0  0
   -0.6241   -1.9282    1.2897 C   0  0  0  0  0  0  0  0  0  0  0  0
    0.7576   -1.5362    0.8360 C   0  0  0  0  0  0  0  0  0  0  0  0
    0.7729   -0.1986    0.1259 C   0  0  1  0  0  0  0  0  0  0  0  0
   -0.5518    0.4668    0.3972 C   0  0  1  0  0  0  0  0  0  0  0  0
   -0.3423    1.8917    0.0183 C   0  0  0  0  0  0  0  0  0  0  0  0
    1.1486    2.1175    0.1896 C   0  0  0  0  0  0  0  0  0  0  0  0
    1.6510    0.8122    0.8273 C   0  0  2  0  0  0  0  0  0  0  0  0
    1.1075   -0.3286   -1.3293 C   0  0  0  0  0  0  0  0  0  0  0  0
   -5.2054    0.1655    1.1939 C   0  0  0  0  0  0  0  0  0  0  0  0
    3.1007    0.7499    0.5955 C   0  0  1  0  0  0  0  0  0  0  0  0
    3.7206    1.8774    1.4233 C   0  0  0  0  0  0  0  0  0  0  0  0
    3.7667   -0.5454    0.9527 C   0  0  0  0  0  0  0  0  0  0  0  0
    5.2330   -0.5745    0.7056 C   0  0  0  0  0  0  0  0  0  0  0  0
    5.6319   -0.3457   -0.7232 C   0  0  0  0  0  0  0  0  0  0  0  0
    7.1507   -0.4063   -0.8040 C   0  0  0  0  0  0  0  0  0  0  0  0
    7.6516   -1.7681   -0.3923 C   0  0  0  0  0  0  0  0  0  0  0  0
    7.8093    0.6203    0.0596 C   0  0  0  0  0  0  0  0  0  0  0  0
   -7.4547   -1.0104    1.0502 O   0  0  0  0  0  0  0  0  0  0  0  0
   -6.6546    2.9221   -2.2748 H   0  0  0  0  0  0  0  0  0  0  0  0
    8.5194    0.0083   -2.1663 H   0  0  0  0  0  0  0  0  0  0  0  0
   -6.9479   -1.9883   -0.6524 H   0  0  0  0  0  0  0  0  0  0  0  0
   -7.4932   -0.2760   -2.1444 H   0  0  0  0  0  0  0  0  0  0  0  0
   -8.3785    0.3036   -0.7408 H   0  0  0  0  0  0  0  0  0  0  0  0
   -6.7248    1.8381   -0.0546 H   0  0  0  0  0  0  0  0  0  0  0  0
   -4.5659    1.9620   -0.8579 H   0  0  0  0  0  0  0  0  0  0  0  0
   -5.1302    1.4902   -2.5579 H   0  0  0  0  0  0  0  0  0  0  0  0
   -5.5341   -0.6690   -2.0596 H   0  0  0  0  0  0  0  0  0  0  0  0
   -3.4508   -1.7735   -1.6232 H   0  0  0  0  0  0  0  0  0  0  0  0
   -3.5424   -0.6965   -2.9934 H   0  0  0  0  0  0  0  0  0  0  0  0
   -1.3932   -0.5680   -2.0994 H   0  0  0  0  0  0  0  0  0  0  0  0
   -2.1189    1.0091   -1.8656 H   0  0  0  0  0  0  0  0  0  0  0  0
   -2.5934    0.1651    0.5867 H   0  0  0  0  0  0  0  0  0  0  0  0
   -1.4707   -2.2693   -0.6962 H   0  0  0  0  0  0  0  0  0  0  0  0
   -2.6088   -2.1005    0.6535 H   0  0  0  0  0  0  0  0  0  0  0  0
   -4.8802   -1.7108    0.2404 H   0  0  0  0  0  0  0  0  0  0  0  0
   -0.6220   -3.0147    1.5113 H   0  0  0  0  0  0  0  0  0  0  0  0
   -0.9551   -1.4148    2.2117 H   0  0  0  0  0  0  0  0  0  0  0  0
    1.1436   -2.3456    0.1738 H   0  0  0  0  0  0  0  0  0  0  0  0
    1.3736   -1.4659    1.7559 H   0  0  0  0  0  0  0  0  0  0  0  0
   -0.6076    0.4745    1.5336 H   0  0  0  0  0  0  0  0  0  0  0  0
   -0.6182    2.1472   -1.0128 H   0  0  0  0  0  0  0  0  0  0  0  0
   -0.8588    2.5752    0.7037 H   0  0  0  0  0  0  0  0  0  0  0  0
    1.3607    2.9783    0.8530 H   0  0  0  0  0  0  0  0  0  0  0  0
    1.6327    2.2047   -0.8053 H   0  0  0  0  0  0  0  0  0  0  0  0
    1.4333    0.7737    1.8963 H   0  0  0  0  0  0  0  0  0  0  0  0
    0.8243   -1.3102   -1.7510 H   0  0  0  0  0  0  0  0  0  0  0  0
    2.2046   -0.2627   -1.5244 H   0  0  0  0  0  0  0  0  0  0  0  0
    0.6849    0.5464   -1.8583 H   0  0  0  0  0  0  0  0  0  0  0  0
   -4.7235    1.1383    1.0018 H   0  0  0  0  0  0  0  0  0  0  0  0
   -6.1715    0.2794    1.6804 H   0  0  0  0  0  0  0  0  0  0  0  0
   -4.5413   -0.3185    1.9741 H   0  0  0  0  0  0  0  0  0  0  0  0
    3.4033    0.9815   -0.4567 H   0  0  0  0  0  0  0  0  0  0  0  0
    4.1255    2.6894    0.8051 H   0  0  0  0  0  0  0  0  0  0  0  0
    2.9783    2.3541    2.1069 H   0  0  0  0  0  0  0  0  0  0  0  0
    4.5260    1.5072    2.0852 H   0  0  0  0  0  0  0  0  0  0  0  0
    3.3038   -1.3391    0.3390 H   0  0  0  0  0  0  0  0  0  0  0  0
    3.6229   -0.6956    2.0493 H   0  0  0  0  0  0  0  0  0  0  0  0
    5.5734   -1.6250    0.9553 H   0  0  0  0  0  0  0  0  0  0  0  0
    5.7971    0.0685    1.4125 H   0  0  0  0  0  0  0  0  0  0  0  0
    5.2611   -1.1853   -1.3467 H   0  0  0  0  0  0  0  0  0  0  0  0
    5.2703    0.5773   -1.1644 H   0  0  0  0  0  0  0  0  0  0  0  0
    7.1933   -2.5908   -1.0049 H   0  0  0  0  0  0  0  0  0  0  0  0
    7.5683   -1.9581    0.6918 H   0  0  0  0  0  0  0  0  0  0  0  0
    8.7422   -1.8160   -0.6275 H   0  0  0  0  0  0  0  0  0  0  0  0
    7.9212    0.2755    1.1282 H   0  0  0  0  0  0  0  0  0  0  0  0
    8.7905    0.9549   -0.3226 H   0  0  0  0  0  0  0  0  0  0  0  0
    7.1488    1.5123    0.0857 H   0  0  0  0  0  0  0  0  0  0  0  0
   -8.3920   -0.6835    0.8998 H   0  0  0  0  0  0  0  0  0  0  0  0
  3  4  1  0
  1  5  1  0
  4  5  1  0
  5  6  1  0
  6  7  1  0
  7  8  1  0
  8  9  1  0
  9 10  1  0
 10 11  1  0
  3 12  1  0
  7 12  1  0
 11 13  1  0
 13 14  1  0
 14 15  1  0
 10 16  1  0
 15 16  1  0
 16 17  1  0
 17 18  1  0
 15 19  1  0
 18 19  1  0
 15 20  1  6
 12 21  1  0
 19 22  1  0
 22 23  1  0
 22 24  1  0
 24 25  1  0
 25 26  1  0
 27  2  1  0
 26 27  1  0
 27 28  1  0
 27 29  1  0
  3 30  1  0
  1 31  1  0
  2 32  1  0
  3 33  1  6
  4 34  1  0
  4 35  1  0
  5 36  1  1
  6 37  1  0
  6 38  1  0
  7 39  1  6
  8 40  1  0
  8 41  1  0
  9 42  1  0
  9 43  1  0
 10 44  1  0
 11 45  1  0
 11 46  1  0
 12 47  1  1
 13 48  1  0
 13 49  1  0
 14 50  1  0
 14 51  1  0
 16 52  1  1
 17 53  1  0
 17 54  1  0
 18 55  1  0
 18 56  1  0
 19 57  1  1
 20 58  1  0
 20 59  1  0
 20 60  1  0
 21 61  1  0
 21 62  1  0
 21 63  1  0
 22 64  1  6
 23 65  1  0
 23 66  1  0
 23 67  1  0
 24 68  1  0
 24 69  1  0
 25 70  1  0
 25 71  1  0
 26 72  1  0
 26 73  1  0
 28 74  1  0
 28 75  1  0
 28 76  1  0
 29 77  1  0
 29 78  1  0
 29 79  1  0
 30 80  1  0
M  END
>  <PDBID>  (1) 
1IE9

>  <PDB ID>  (1) 
1IE9

>  <Generic Name>  (1) 
Calcitriol

>  <Brand Name>  (1) 
Calcijex#Calcitriol#Calcitriol Injection#Calcitriol Injection USP#Calcitriol-odan#Rocaltrol#Rocaltrol Cap 0.25mcg#Rocaltrol Cap 0.5mcg#Rocaltrol Oral Solution 1mcg/ml#Silkis#Vectical#Calcitriol Oral Solution#Decostriol

>  <DrugBank ID>  (1) 
DB00136

>  <ATC Codes>  (1) 
A11CC04#D05AX03

>  <Ligand ID>  (1) 
VDX

>  <Target Name>  (1) 
Vitamin D3 receptor

>  <UniProt ID>  (1) 
P11473

>  <PDB ID.1>  (1) 
1IE9

>  <Seq. Identity>  (1) 
84%

$$$$
