PDB_DB01229_04
     RDKit          3D

290302  0  0  0  0  0  0  0  0999 V2000
   -1.4390    1.9415   -0.1302 O   0  0  0  0  0  0  0  0  0  0  0  0
   -1.8283    0.6417    0.3721 C   0  0  1  0  0  0  0  0  0  0  0  0
   -3.3052    0.5936    0.1009 C   0  0  1  0  0  0  0  0  0  0  0  0
   -3.7171    1.7272   -0.6338 O   0  0  0  0  0  0  0  0  0  0  0  0
   -4.3486    2.7012    0.0573 C   0  0  0  0  0  0  0  0  0  0  0  0
   -3.3574    3.7498    0.1675 O   0  0  0  0  0  0  0  0  0  0  0  0
   -5.5811    3.3451   -0.4760 C   0  0  0  0  0  0  0  0  0  0  0  0
   -6.0974    4.4351    0.4711 C   0  0  0  0  0  0  0  0  0  0  0  0
   -5.8078    5.8029   -0.0712 C   0  0  0  0  0  0  0  0  0  0  0  0
   -6.6564    5.9891   -1.3200 C   0  0  0  0  0  0  0  0  0  0  0  0
   -6.6918    4.7304   -2.1451 C   0  0  0  0  0  0  0  0  0  0  0  0
   -5.4165    3.9562   -1.8306 C   0  0  0  0  0  0  0  0  0  0  0  0
   -3.8847   -0.7127   -0.3325 C   0  0  2  0  0  0  0  0  0  0  0  0
   -4.7885   -0.6800   -1.4983 C   0  0  2  0  0  0  0  0  0  0  0  0
   -4.2124   -0.3261   -2.7343 O   0  0  0  0  0  0  0  0  0  0  0  0
   -3.2528   -1.1218   -3.2379 C   0  0  0  0  0  0  0  0  0  0  0  0
   -3.6949   -1.7427   -4.4655 O   0  0  0  0  0  0  0  0  0  0  0  0
   -2.0874   -0.2812   -3.6989 C   0  0  0  0  0  0  0  0  0  0  0  0
   -6.1029    0.0149   -1.4385 C   0  0  0  0  0  0  0  0  0  0  0  0
   -6.7723   -1.0185   -2.0902 O   0  0  0  0  0  0  0  0  0  0  0  0
   -5.6952   -1.8188   -1.7427 C   0  0  2  0  0  0  0  0  0  0  0  0
   -6.0689   -2.6417   -0.5626 C   0  0  0  0  0  0  0  0  0  0  0  0
   -4.8087   -2.8750    0.1553 C   0  0  2  0  0  0  0  0  0  0  0  0
   -5.0552   -3.8678    1.1234 O   0  0  0  0  0  0  0  0  0  0  0  0
   -4.2241   -1.6290    0.8188 C   0  0  2  0  0  0  0  0  0  0  0  0
   -5.2580   -1.1497    1.7620 C   0  0  0  0  0  0  0  0  0  0  0  0
   -3.0702   -2.2234    1.5491 C   0  0  0  0  0  0  0  0  0  0  0  0
   -2.5193   -3.1508    0.6117 O   0  0  0  0  0  0  0  0  0  0  0  0
   -2.1464   -1.6337    2.4490 C   0  0  2  0  0  0  0  0  0  0  0  0
   -2.7765   -1.4559    3.7167 O   0  0  0  0  0  0  0  0  0  0  0  0
   -2.4332   -2.2945    4.6962 C   0  0  0  0  0  0  0  0  0  0  0  0
   -1.7734   -1.6637    5.7820 O   0  0  0  0  0  0  0  0  0  0  0  0
   -3.5268   -3.1253    5.3070 C   0  0  0  0  0  0  0  0  0  0  0  0
   -1.1085   -0.6392    2.3036 C   0  0  1  0  0  0  0  0  0  0  0  0
    0.2107   -0.9713    1.6833 C   0  0  0  0  0  0  0  0  0  0  0  0
    0.4360   -0.3231    0.3453 C   0  0  1  0  0  0  0  0  0  0  0  0
    1.3025   -1.1214   -0.4484 O   0  0  0  0  0  0  0  0  0  0  0  0
    2.3397   -0.3340   -0.9998 C   0  0  0  0  0  0  0  0  0  0  0  0
    2.3015   -0.4045   -2.3876 O   0  0  0  0  0  0  0  0  0  0  0  0
    3.7009   -0.7545   -0.4669 C   0  0  2  0  0  0  0  0  0  0  0  0
    3.5675   -0.5685    0.9452 O   0  0  0  0  0  0  0  0  0  0  0  0
    4.7780    0.2137   -0.8604 C   0  0  1  0  0  0  0  0  0  0  0  0
    6.0030   -0.0128   -0.1744 N   0  0  0  0  0  0  0  0  0  0  0  0
    6.6831   -1.2252   -0.3320 C   0  0  0  0  0  0  0  0  0  0  0  0
    6.0179   -2.3375    0.2400 O   0  0  0  0  0  0  0  0  0  0  0  0
    7.9721   -1.1170    0.5070 C   0  0  0  0  0  0  0  0  0  0  0  0
    7.6463   -0.8859    1.9504 C   0  0  0  0  0  0  0  0  0  0  0  0
    8.8974   -0.3860    2.6420 C   0  0  0  0  0  0  0  0  0  0  0  0
   10.1378   -0.8852    1.9189 C   0  0  0  0  0  0  0  0  0  0  0  0
    9.9428   -2.2838    1.3610 C   0  0  0  0  0  0  0  0  0  0  0  0
    8.8772   -2.2826    0.2853 C   0  0  0  0  0  0  0  0  0  0  0  0
    4.9024    0.5336   -2.2996 C   0  0  0  0  0  0  0  0  0  0  0  0
    5.1862   -0.5463   -3.2575 C   0  0  0  0  0  0  0  0  0  0  0  0
    6.4794   -0.3097   -4.0564 C   0  0  0  0  0  0  0  0  0  0  0  0
    6.4754    1.0213   -4.7410 C   0  0  0  0  0  0  0  0  0  0  0  0
    5.9321    2.1185   -3.8276 C   0  0  0  0  0  0  0  0  0  0  0  0
    6.0336    1.5753   -2.4168 C   0  0  0  0  0  0  0  0  0  0  0  0
   -0.9142   -0.1977   -0.4036 C   0  0  0  0  0  0  0  0  0  0  0  0
    0.5597   -2.4393    1.6124 C   0  0  0  0  0  0  0  0  0  0  0  0
   -1.5244    0.7568    1.8335 C   0  0  0  0  0  0  0  0  0  0  0  0
   -0.3874    1.7650    2.1110 C   0  0  0  0  0  0  0  0  0  0  0  0
   -2.5768    1.2283    2.7595 C   0  0  0  0  0  0  0  0  0  0  0  0
   -1.4390    1.9415   -0.1302 O   0  0  0  0  0  0  0  0  0  0  0  0
   -1.8283    0.6417    0.3721 C   0  0  1  0  0  0  0  0  0  0  0  0
   -3.3052    0.5936    0.1009 C   0  0  1  0  0  0  0  0  0  0  0  0
   -3.7171    1.7272   -0.6338 O   0  0  0  0  0  0  0  0  0  0  0  0
   -4.3486    2.7012    0.0573 C   0  0  0  0  0  0  0  0  0  0  0  0
   -3.3574    3.7498    0.1675 O   0  0  0  0  0  0  0  0  0  0  0  0
   -5.5811    3.3451   -0.4760 C   0  0  0  0  0  0  0  0  0  0  0  0
   -6.0974    4.4351    0.4711 C   0  0  0  0  0  0  0  0  0  0  0  0
   -5.8078    5.8029   -0.0712 C   0  0  0  0  0  0  0  0  0  0  0  0
   -6.6564    5.9891   -1.3200 C   0  0  0  0  0  0  0  0  0  0  0  0
   -6.6918    4.7304   -2.1451 C   0  0  0  0  0  0  0  0  0  0  0  0
   -5.4165    3.9562   -1.8306 C   0  0  0  0  0  0  0  0  0  0  0  0
   -3.8847   -0.7127   -0.3325 C   0  0  2  0  0  0  0  0  0  0  0  0
   -4.7885   -0.6800   -1.4983 C   0  0  2  0  0  0  0  0  0  0  0  0
   -4.2124   -0.3261   -2.7343 O   0  0  0  0  0  0  0  0  0  0  0  0
   -3.2528   -1.1218   -3.2379 C   0  0  0  0  0  0  0  0  0  0  0  0
   -3.6949   -1.7427   -4.4655 O   0  0  0  0  0  0  0  0  0  0  0  0
   -2.0874   -0.2812   -3.6989 C   0  0  0  0  0  0  0  0  0  0  0  0
   -6.1029    0.0149   -1.4385 C   0  0  0  0  0  0  0  0  0  0  0  0
   -6.7723   -1.0185   -2.0902 O   0  0  0  0  0  0  0  0  0  0  0  0
   -5.6952   -1.8188   -1.7427 C   0  0  2  0  0  0  0  0  0  0  0  0
   -6.0689   -2.6417   -0.5626 C   0  0  0  0  0  0  0  0  0  0  0  0
   -4.8087   -2.8750    0.1553 C   0  0  2  0  0  0  0  0  0  0  0  0
   -5.0552   -3.8678    1.1234 O   0  0  0  0  0  0  0  0  0  0  0  0
   -4.2241   -1.6290    0.8188 C   0  0  2  0  0  0  0  0  0  0  0  0
   -5.2580   -1.1497    1.7620 C   0  0  0  0  0  0  0  0  0  0  0  0
   -3.0702   -2.2234    1.5491 C   0  0  0  0  0  0  0  0  0  0  0  0
   -2.5193   -3.1508    0.6117 O   0  0  0  0  0  0  0  0  0  0  0  0
   -2.1464   -1.6337    2.4490 C   0  0  2  0  0  0  0  0  0  0  0  0
   -2.7765   -1.4559    3.7167 O   0  0  0  0  0  0  0  0  0  0  0  0
   -2.4332   -2.2945    4.6962 C   0  0  0  0  0  0  0  0  0  0  0  0
   -1.7734   -1.6637    5.7820 O   0  0  0  0  0  0  0  0  0  0  0  0
   -3.5268   -3.1253    5.3070 C   0  0  0  0  0  0  0  0  0  0  0  0
   -1.1085   -0.6392    2.3036 C   0  0  1  0  0  0  0  0  0  0  0  0
    0.2107   -0.9713    1.6833 C   0  0  0  0  0  0  0  0  0  0  0  0
    0.4360   -0.3231    0.3453 C   0  0  1  0  0  0  0  0  0  0  0  0
    1.3025   -1.1214   -0.4484 O   0  0  0  0  0  0  0  0  0  0  0  0
    2.3397   -0.3340   -0.9998 C   0  0  0  0  0  0  0  0  0  0  0  0
    2.3015   -0.4045   -2.3876 O   0  0  0  0  0  0  0  0  0  0  0  0
    3.7009   -0.7545   -0.4669 C   0  0  2  0  0  0  0  0  0  0  0  0
    3.5675   -0.5685    0.9452 O   0  0  0  0  0  0  0  0  0  0  0  0
    4.7780    0.2137   -0.8604 C   0  0  1  0  0  0  0  0  0  0  0  0
    6.0030   -0.0128   -0.1744 N   0  0  0  0  0  0  0  0  0  0  0  0
    6.6831   -1.2252   -0.3320 C   0  0  0  0  0  0  0  0  0  0  0  0
    6.0179   -2.3375    0.2400 O   0  0  0  0  0  0  0  0  0  0  0  0
    7.9721   -1.1170    0.5070 C   0  0  0  0  0  0  0  0  0  0  0  0
    7.6463   -0.8859    1.9504 C   0  0  0  0  0  0  0  0  0  0  0  0
    8.8974   -0.3860    2.6420 C   0  0  0  0  0  0  0  0  0  0  0  0
   10.1378   -0.8852    1.9189 C   0  0  0  0  0  0  0  0  0  0  0  0
    9.9428   -2.2838    1.3610 C   0  0  0  0  0  0  0  0  0  0  0  0
    8.8772   -2.2826    0.2853 C   0  0  0  0  0  0  0  0  0  0  0  0
    4.9024    0.5336   -2.2996 C   0  0  0  0  0  0  0  0  0  0  0  0
    5.1862   -0.5463   -3.2575 C   0  0  0  0  0  0  0  0  0  0  0  0
    6.4794   -0.3097   -4.0564 C   0  0  0  0  0  0  0  0  0  0  0  0
    6.4754    1.0213   -4.7410 C   0  0  0  0  0  0  0  0  0  0  0  0
    5.9321    2.1185   -3.8276 C   0  0  0  0  0  0  0  0  0  0  0  0
    6.0336    1.5753   -2.4168 C   0  0  0  0  0  0  0  0  0  0  0  0
   -0.9142   -0.1977   -0.4036 C   0  0  0  0  0  0  0  0  0  0  0  0
    0.5597   -2.4393    1.6124 C   0  0  0  0  0  0  0  0  0  0  0  0
   -1.5244    0.7568    1.8335 C   0  0  0  0  0  0  0  0  0  0  0  0
   -0.3874    1.7650    2.1110 C   0  0  0  0  0  0  0  0  0  0  0  0
   -2.5768    1.2283    2.7595 C   0  0  0  0  0  0  0  0  0  0  0  0
   -1.5513    1.9015   -1.1170 H   0  0  0  0  0  0  0  0  0  0  0  0
   -3.7982    0.8258    1.0947 H   0  0  0  0  0  0  0  0  0  0  0  0
   -4.5619    2.4821    1.1238 H   0  0  0  0  0  0  0  0  0  0  0  0
   -3.5792    4.2707    0.9684 H   0  0  0  0  0  0  0  0  0  0  0  0
   -6.4112    2.6127   -0.5042 H   0  0  0  0  0  0  0  0  0  0  0  0
   -5.5547    4.3404    1.4463 H   0  0  0  0  0  0  0  0  0  0  0  0
   -7.1619    4.3420    0.6985 H   0  0  0  0  0  0  0  0  0  0  0  0
   -6.1126    6.5376    0.7041 H   0  0  0  0  0  0  0  0  0  0  0  0
   -4.7465    5.9529   -0.2603 H   0  0  0  0  0  0  0  0  0  0  0  0
   -6.1125    6.7517   -1.9295 H   0  0  0  0  0  0  0  0  0  0  0  0
   -7.6542    6.3096   -1.0128 H   0  0  0  0  0  0  0  0  0  0  0  0
   -7.5340    4.1098   -1.7197 H   0  0  0  0  0  0  0  0  0  0  0  0
   -6.8168    4.9233   -3.2229 H   0  0  0  0  0  0  0  0  0  0  0  0
   -5.2764    3.1182   -2.5603 H   0  0  0  0  0  0  0  0  0  0  0  0
   -4.5408    4.6396   -1.8498 H   0  0  0  0  0  0  0  0  0  0  0  0
   -2.9890   -1.2719   -0.7741 H   0  0  0  0  0  0  0  0  0  0  0  0
   -2.9072   -1.9771   -2.6546 H   0  0  0  0  0  0  0  0  0  0  0  0
   -3.1070   -2.5158   -4.6705 H   0  0  0  0  0  0  0  0  0  0  0  0
   -1.1137   -0.7725   -3.5827 H   0  0  0  0  0  0  0  0  0  0  0  0
   -2.1188    0.7060   -3.1462 H   0  0  0  0  0  0  0  0  0  0  0  0
   -2.2036    0.0228   -4.7654 H   0  0  0  0  0  0  0  0  0  0  0  0
   -6.5770    0.2247   -0.4897 H   0  0  0  0  0  0  0  0  0  0  0  0
   -6.2117    0.9213   -2.1093 H   0  0  0  0  0  0  0  0  0  0  0  0
   -5.4401   -2.4607   -2.6056 H   0  0  0  0  0  0  0  0  0  0  0  0
   -6.4352   -3.6698   -0.8948 H   0  0  0  0  0  0  0  0  0  0  0  0
   -6.9057   -2.2552    0.0201 H   0  0  0  0  0  0  0  0  0  0  0  0
   -4.0655   -3.3381   -0.5320 H   0  0  0  0  0  0  0  0  0  0  0  0
   -6.0127   -3.8450    1.3862 H   0  0  0  0  0  0  0  0  0  0  0  0
   -6.1652   -1.7837    1.7680 H   0  0  0  0  0  0  0  0  0  0  0  0
   -5.5531   -0.0937    1.6490 H   0  0  0  0  0  0  0  0  0  0  0  0
   -4.8825   -1.2105    2.8314 H   0  0  0  0  0  0  0  0  0  0  0  0
   -3.6133   -3.0102    2.2077 H   0  0  0  0  0  0  0  0  0  0  0  0
   -2.0500   -3.8564    1.0988 H   0  0  0  0  0  0  0  0  0  0  0  0
   -1.4813   -2.5476    2.7194 H   0  0  0  0  0  0  0  0  0  0  0  0
   -1.6789   -3.0166    4.3106 H   0  0  0  0  0  0  0  0  0  0  0  0
   -2.1373   -0.7708    5.9562 H   0  0  0  0  0  0  0  0  0  0  0  0
   -4.3855   -3.2900    4.6070 H   0  0  0  0  0  0  0  0  0  0  0  0
   -3.9678   -2.4905    6.1288 H   0  0  0  0  0  0  0  0  0  0  0  0
   -3.1798   -4.0385    5.7945 H   0  0  0  0  0  0  0  0  0  0  0  0
   -0.8061   -0.3636    3.3777 H   0  0  0  0  0  0  0  0  0  0  0  0
    1.0907   -0.5619    2.2888 H   0  0  0  0  0  0  0  0  0  0  0  0
    0.8680    0.6558    0.3170 H   0  0  0  0  0  0  0  0  0  0  0  0
    2.2023    0.7236   -0.6858 H   0  0  0  0  0  0  0  0  0  0  0  0
    1.9893   -1.3276   -2.6069 H   0  0  0  0  0  0  0  0  0  0  0  0
    3.9188   -1.8058   -0.6010 H   0  0  0  0  0  0  0  0  0  0  0  0
    4.4442   -0.3300    1.3315 H   0  0  0  0  0  0  0  0  0  0  0  0
    4.4142    1.1968   -0.3945 H   0  0  0  0  0  0  0  0  0  0  0  0
    6.5277    0.8418    0.0050 H   0  0  0  0  0  0  0  0  0  0  0  0
    7.0160   -1.5329   -1.3159 H   0  0  0  0  0  0  0  0  0  0  0  0
    6.3267   -3.1596   -0.1828 H   0  0  0  0  0  0  0  0  0  0  0  0
    8.4800   -0.1810    0.1414 H   0  0  0  0  0  0  0  0  0  0  0  0
    7.2971   -1.8158    2.4615 H   0  0  0  0  0  0  0  0  0  0  0  0
    6.8694   -0.1111    2.0372 H   0  0  0  0  0  0  0  0  0  0  0  0
    8.9152   -0.6779    3.7143 H   0  0  0  0  0  0  0  0  0  0  0  0
    8.8775    0.7264    2.6230 H   0  0  0  0  0  0  0  0  0  0  0  0
   10.4324   -0.1920    1.1093 H   0  0  0  0  0  0  0  0  0  0  0  0
   10.9731   -0.9352    2.6406 H   0  0  0  0  0  0  0  0  0  0  0  0
    9.6636   -2.9433    2.2139 H   0  0  0  0  0  0  0  0  0  0  0  0
   10.8916   -2.5815    0.9093 H   0  0  0  0  0  0  0  0  0  0  0  0
    8.2819   -3.2147    0.3890 H   0  0  0  0  0  0  0  0  0  0  0  0
    9.3618   -2.2157   -0.6980 H   0  0  0  0  0  0  0  0  0  0  0  0
    4.0003    1.1190   -2.6542 H   0  0  0  0  0  0  0  0  0  0  0  0
    5.2290   -1.5650   -2.8883 H   0  0  0  0  0  0  0  0  0  0  0  0
    4.4030   -0.5755   -4.0805 H   0  0  0  0  0  0  0  0  0  0  0  0
    7.3476   -0.5073   -3.4283 H   0  0  0  0  0  0  0  0  0  0  0  0
    6.4714   -1.1112   -4.8475 H   0  0  0  0  0  0  0  0  0  0  0  0
    5.8579    0.9635   -5.6823 H   0  0  0  0  0  0  0  0  0  0  0  0
    7.5178    1.2795   -5.0114 H   0  0  0  0  0  0  0  0  0  0  0  0
    4.8717    2.2669   -4.1279 H   0  0  0  0  0  0  0  0  0  0  0  0
    6.5253    3.0327   -3.9323 H   0  0  0  0  0  0  0  0  0  0  0  0
    5.8216    2.3908   -1.6955 H   0  0  0  0  0  0  0  0  0  0  0  0
    7.0232    1.1428   -2.2886 H   0  0  0  0  0  0  0  0  0  0  0  0
   -1.0875   -1.2241   -0.6363 H   0  0  0  0  0  0  0  0  0  0  0  0
   -0.5662    0.2541   -1.3918 H   0  0  0  0  0  0  0  0  0  0  0  0
    0.4889   -2.9180    2.5928 H   0  0  0  0  0  0  0  0  0  0  0  0
    1.6777   -2.4767    1.4002 H   0  0  0  0  0  0  0  0  0  0  0  0
    0.1575   -2.9796    0.7591 H   0  0  0  0  0  0  0  0  0  0  0  0
   -0.2425    2.4727    1.2668 H   0  0  0  0  0  0  0  0  0  0  0  0
    0.5039    1.3218    2.5333 H   0  0  0  0  0  0  0  0  0  0  0  0
   -0.6768    2.4998    2.9361 H   0  0  0  0  0  0  0  0  0  0  0  0
   -2.7826    2.3409    2.6522 H   0  0  0  0  0  0  0  0  0  0  0  0
   -2.0295    1.2627    3.7764 H   0  0  0  0  0  0  0  0  0  0  0  0
   -3.4266    0.6335    3.0035 H   0  0  0  0  0  0  0  0  0  0  0  0
   -1.5513    1.9015   -1.1170 H   0  0  0  0  0  0  0  0  0  0  0  0
   -3.7982    0.8258    1.0947 H   0  0  0  0  0  0  0  0  0  0  0  0
   -4.5619    2.4821    1.1238 H   0  0  0  0  0  0  0  0  0  0  0  0
   -3.5792    4.2707    0.9684 H   0  0  0  0  0  0  0  0  0  0  0  0
   -6.4112    2.6127   -0.5042 H   0  0  0  0  0  0  0  0  0  0  0  0
   -5.5547    4.3404    1.4463 H   0  0  0  0  0  0  0  0  0  0  0  0
   -7.1619    4.3420    0.6985 H   0  0  0  0  0  0  0  0  0  0  0  0
   -6.1126    6.5376    0.7041 H   0  0  0  0  0  0  0  0  0  0  0  0
   -4.7465    5.9529   -0.2603 H   0  0  0  0  0  0  0  0  0  0  0  0
   -6.1125    6.7517   -1.9295 H   0  0  0  0  0  0  0  0  0  0  0  0
   -7.6542    6.3096   -1.0128 H   0  0  0  0  0  0  0  0  0  0  0  0
   -7.5340    4.1098   -1.7197 H   0  0  0  0  0  0  0  0  0  0  0  0
   -6.8168    4.9233   -3.2229 H   0  0  0  0  0  0  0  0  0  0  0  0
   -5.2764    3.1182   -2.5603 H   0  0  0  0  0  0  0  0  0  0  0  0
   -4.5408    4.6396   -1.8498 H   0  0  0  0  0  0  0  0  0  0  0  0
   -2.9890   -1.2719   -0.7741 H   0  0  0  0  0  0  0  0  0  0  0  0
   -2.9072   -1.9771   -2.6546 H   0  0  0  0  0  0  0  0  0  0  0  0
   -3.1070   -2.5158   -4.6705 H   0  0  0  0  0  0  0  0  0  0  0  0
   -1.1137   -0.7725   -3.5827 H   0  0  0  0  0  0  0  0  0  0  0  0
   -2.1188    0.7060   -3.1462 H   0  0  0  0  0  0  0  0  0  0  0  0
   -2.2036    0.0228   -4.7654 H   0  0  0  0  0  0  0  0  0  0  0  0
   -6.5770    0.2247   -0.4897 H   0  0  0  0  0  0  0  0  0  0  0  0
   -6.2117    0.9213   -2.1093 H   0  0  0  0  0  0  0  0  0  0  0  0
   -5.4401   -2.4607   -2.6056 H   0  0  0  0  0  0  0  0  0  0  0  0
   -6.4352   -3.6698   -0.8948 H   0  0  0  0  0  0  0  0  0  0  0  0
   -6.9057   -2.2552    0.0201 H   0  0  0  0  0  0  0  0  0  0  0  0
   -4.0655   -3.3381   -0.5320 H   0  0  0  0  0  0  0  0  0  0  0  0
   -6.0127   -3.8450    1.3862 H   0  0  0  0  0  0  0  0  0  0  0  0
   -6.1652   -1.7837    1.7680 H   0  0  0  0  0  0  0  0  0  0  0  0
   -5.5531   -0.0937    1.6490 H   0  0  0  0  0  0  0  0  0  0  0  0
   -4.8825   -1.2105    2.8314 H   0  0  0  0  0  0  0  0  0  0  0  0
   -3.6133   -3.0102    2.2077 H   0  0  0  0  0  0  0  0  0  0  0  0
   -2.0500   -3.8564    1.0988 H   0  0  0  0  0  0  0  0  0  0  0  0
   -1.4813   -2.5476    2.7194 H   0  0  0  0  0  0  0  0  0  0  0  0
   -1.6789   -3.0166    4.3106 H   0  0  0  0  0  0  0  0  0  0  0  0
   -2.1373   -0.7708    5.9562 H   0  0  0  0  0  0  0  0  0  0  0  0
   -4.3855   -3.2900    4.6070 H   0  0  0  0  0  0  0  0  0  0  0  0
   -3.9678   -2.4905    6.1288 H   0  0  0  0  0  0  0  0  0  0  0  0
   -3.1798   -4.0385    5.7945 H   0  0  0  0  0  0  0  0  0  0  0  0
   -0.8061   -0.3636    3.3777 H   0  0  0  0  0  0  0  0  0  0  0  0
    1.0907   -0.5619    2.2888 H   0  0  0  0  0  0  0  0  0  0  0  0
    0.8680    0.6558    0.3170 H   0  0  0  0  0  0  0  0  0  0  0  0
    2.2023    0.7236   -0.6858 H   0  0  0  0  0  0  0  0  0  0  0  0
    1.9893   -1.3276   -2.6069 H   0  0  0  0  0  0  0  0  0  0  0  0
    3.9188   -1.8058   -0.6010 H   0  0  0  0  0  0  0  0  0  0  0  0
    4.4442   -0.3300    1.3315 H   0  0  0  0  0  0  0  0  0  0  0  0
    4.4142    1.1968   -0.3945 H   0  0  0  0  0  0  0  0  0  0  0  0
    6.5277    0.8418    0.0050 H   0  0  0  0  0  0  0  0  0  0  0  0
    7.0160   -1.5329   -1.3159 H   0  0  0  0  0  0  0  0  0  0  0  0
    6.3267   -3.1596   -0.1828 H   0  0  0  0  0  0  0  0  0  0  0  0
    8.4800   -0.1810    0.1414 H   0  0  0  0  0  0  0  0  0  0  0  0
    7.2971   -1.8158    2.4615 H   0  0  0  0  0  0  0  0  0  0  0  0
    6.8694   -0.1111    2.0372 H   0  0  0  0  0  0  0  0  0  0  0  0
    8.9152   -0.6779    3.7143 H   0  0  0  0  0  0  0  0  0  0  0  0
    8.8775    0.7264    2.6230 H   0  0  0  0  0  0  0  0  0  0  0  0
   10.4324   -0.1920    1.1093 H   0  0  0  0  0  0  0  0  0  0  0  0
   10.9731   -0.9352    2.6406 H   0  0  0  0  0  0  0  0  0  0  0  0
    9.6636   -2.9433    2.2139 H   0  0  0  0  0  0  0  0  0  0  0  0
   10.8916   -2.5815    0.9093 H   0  0  0  0  0  0  0  0  0  0  0  0
    8.2819   -3.2147    0.3890 H   0  0  0  0  0  0  0  0  0  0  0  0
    9.3618   -2.2157   -0.6980 H   0  0  0  0  0  0  0  0  0  0  0  0
    4.0003    1.1190   -2.6542 H   0  0  0  0  0  0  0  0  0  0  0  0
    5.2290   -1.5650   -2.8883 H   0  0  0  0  0  0  0  0  0  0  0  0
    4.4030   -0.5755   -4.0805 H   0  0  0  0  0  0  0  0  0  0  0  0
    7.3476   -0.5073   -3.4283 H   0  0  0  0  0  0  0  0  0  0  0  0
    6.4714   -1.1112   -4.8475 H   0  0  0  0  0  0  0  0  0  0  0  0
    5.8579    0.9635   -5.6823 H   0  0  0  0  0  0  0  0  0  0  0  0
    7.5178    1.2795   -5.0114 H   0  0  0  0  0  0  0  0  0  0  0  0
    4.8717    2.2669   -4.1279 H   0  0  0  0  0  0  0  0  0  0  0  0
    6.5253    3.0327   -3.9323 H   0  0  0  0  0  0  0  0  0  0  0  0
    5.8216    2.3908   -1.6955 H   0  0  0  0  0  0  0  0  0  0  0  0
    7.0232    1.1428   -2.2886 H   0  0  0  0  0  0  0  0  0  0  0  0
   -1.0875   -1.2241   -0.6363 H   0  0  0  0  0  0  0  0  0  0  0  0
   -0.5662    0.2541   -1.3918 H   0  0  0  0  0  0  0  0  0  0  0  0
    0.4889   -2.9180    2.5928 H   0  0  0  0  0  0  0  0  0  0  0  0
    1.6777   -2.4767    1.4002 H   0  0  0  0  0  0  0  0  0  0  0  0
    0.1575   -2.9796    0.7591 H   0  0  0  0  0  0  0  0  0  0  0  0
   -0.2425    2.4727    1.2668 H   0  0  0  0  0  0  0  0  0  0  0  0
    0.5039    1.3218    2.5333 H   0  0  0  0  0  0  0  0  0  0  0  0
   -0.6768    2.4998    2.9361 H   0  0  0  0  0  0  0  0  0  0  0  0
   -2.7826    2.3409    2.6522 H   0  0  0  0  0  0  0  0  0  0  0  0
   -2.0295    1.2627    3.7764 H   0  0  0  0  0  0  0  0  0  0  0  0
   -3.4266    0.6335    3.0035 H   0  0  0  0  0  0  0  0  0  0  0  0
  2  1  1  6
  2  3  1  0
  3  4  1  0
  4  5  1  0
  5  6  1  0
  5  7  1  0
  7  8  1  0
  8  9  1  0
  9 10  1  0
 10 11  1  0
  7 12  1  0
 11 12  1  0
  3 13  1  0
 13 14  1  0
 14 15  1  6
 15 16  1  0
 16 17  1  0
 16 18  1  0
 14 19  1  0
 19 20  1  0
 14 21  1  0
 20 21  1  0
 21 22  1  0
 22 23  1  0
 23 24  1  0
 13 25  1  0
 23 25  1  0
 25 26  1  1
 25 27  1  0
 27 28  1  0
 27 29  1  0
 29 30  1  0
 30 31  1  0
 31 32  1  0
 31 33  1  0
 29 34  1  0
 34 35  1  0
 35 36  1  0
 36 37  1  0
 37 38  1  0
 38 39  1  0
 38 40  1  0
 40 41  1  0
 40 42  1  0
 42 43  1  0
 43 44  1  0
 44 45  1  0
 44 46  1  0
 46 47  1  0
 47 48  1  0
 48 49  1  0
 49 50  1  0
 46 51  1  0
 50 51  1  0
 42 52  1  0
 52 53  1  0
 53 54  1  0
 54 55  1  0
 55 56  1  0
 52 57  1  0
 56 57  1  0
  2 58  1  0
 36 58  1  0
 35 59  1  0
  2 60  1  0
 34 60  1  0
 60 61  1  0
 60 62  1  0
 64 63  1  6
 64 65  1  0
 65 66  1  0
 66 67  1  0
 67 68  1  0
 67 69  1  0
 69 70  1  0
 70 71  1  0
 71 72  1  0
 72 73  1  0
 69 74  1  0
 73 74  1  0
 65 75  1  0
 75 76  1  0
 76 77  1  6
 77 78  1  0
 78 79  1  0
 78 80  1  0
 76 81  1  0
 81 82  1  0
 76 83  1  0
 82 83  1  0
 83 84  1  0
 84 85  1  0
 85 86  1  0
 75 87  1  0
 85 87  1  0
 87 88  1  1
 87 89  1  0
 89 90  1  0
 89 91  1  0
 91 92  1  0
 92 93  1  0
 93 94  1  0
 93 95  1  0
 91 96  1  0
 96 97  1  0
 97 98  1  0
 98 99  1  0
 99100  1  0
100101  1  0
100102  1  0
102103  1  0
102104  1  0
104105  1  0
105106  1  0
106107  1  0
106108  1  0
108109  1  0
109110  1  0
110111  1  0
111112  1  0
108113  1  0
112113  1  0
104114  1  0
114115  1  0
115116  1  0
116117  1  0
117118  1  0
114119  1  0
118119  1  0
 64120  1  0
 98120  1  0
 97121  1  0
 64122  1  0
 96122  1  0
122123  1  0
122124  1  0
  1125  1  0
  3126  1  1
  5127  1  0
  6128  1  0
  7129  1  0
  8130  1  0
  8131  1  0
  9132  1  0
  9133  1  0
 10134  1  0
 10135  1  0
 11136  1  0
 11137  1  0
 12138  1  0
 12139  1  0
 13140  1  6
 16141  1  0
 17142  1  0
 18143  1  0
 18144  1  0
 18145  1  0
 19146  1  0
 19147  1  0
 21148  1  6
 22149  1  0
 22150  1  0
 23151  1  6
 24152  1  0
 26153  1  0
 26154  1  0
 26155  1  0
 27156  1  0
 28157  1  0
 29158  1  1
 31159  1  0
 32160  1  0
 33161  1  0
 33162  1  0
 33163  1  0
 34164  1  1
 35165  1  0
 36166  1  1
 38167  1  0
 39168  1  0
 40169  1  1
 41170  1  0
 42171  1  1
 43172  1  0
 44173  1  0
 45174  1  0
 46175  1  0
 47176  1  0
 47177  1  0
 48178  1  0
 48179  1  0
 49180  1  0
 49181  1  0
 50182  1  0
 50183  1  0
 51184  1  0
 51185  1  0
 52186  1  0
 53187  1  0
 53188  1  0
 54189  1  0
 54190  1  0
 55191  1  0
 55192  1  0
 56193  1  0
 56194  1  0
 57195  1  0
 57196  1  0
 58197  1  0
 58198  1  0
 59199  1  0
 59200  1  0
 59201  1  0
 61202  1  0
 61203  1  0
 61204  1  0
 62205  1  0
 62206  1  0
 62207  1  0
 63208  1  0
 65209  1  1
 67210  1  0
 68211  1  0
 69212  1  0
 70213  1  0
 70214  1  0
 71215  1  0
 71216  1  0
 72217  1  0
 72218  1  0
 73219  1  0
 73220  1  0
 74221  1  0
 74222  1  0
 75223  1  6
 78224  1  0
 79225  1  0
 80226  1  0
 80227  1  0
 80228  1  0
 81229  1  0
 81230  1  0
 83231  1  6
 84232  1  0
 84233  1  0
 85234  1  6
 86235  1  0
 88236  1  0
 88237  1  0
 88238  1  0
 89239  1  0
 90240  1  0
 91241  1  1
 93242  1  0
 94243  1  0
 95244  1  0
 95245  1  0
 95246  1  0
 96247  1  1
 97248  1  0
 98249  1  1
100250  1  0
101251  1  0
102252  1  1
103253  1  0
104254  1  1
105255  1  0
106256  1  0
107257  1  0
108258  1  0
109259  1  0
109260  1  0
110261  1  0
110262  1  0
111263  1  0
111264  1  0
112265  1  0
112266  1  0
113267  1  0
113268  1  0
114269  1  0
115270  1  0
115271  1  0
116272  1  0
116273  1  0
117274  1  0
117275  1  0
118276  1  0
118277  1  0
119278  1  0
119279  1  0
120280  1  0
120281  1  0
121282  1  0
121283  1  0
121284  1  0
123285  1  0
123286  1  0
123287  1  0
124288  1  0
124289  1  0
124290  1  0
M  END
>  <PDBID>  (1) 
5M50

>  <PDB ID>  (1) 
5M50

>  <Generic Name>  (1) 
Paclitaxel

>  <Brand Name>  (1) 
Abraxane#Abraxane for Injectable Suspension#Aj-paclitaxel#Apo-paclitaxel Injectable#Paclitaxel#Paclitaxel Injection#Paclitaxel Injection USP#Paclitaxel Injection, USP#Paclitaxel Paclitaxel#Paclitaxel for Injection#Paclitaxel for Injection USP#Paxene#Taxol#Teva-paclitaxel for Injection#Onxol#Paxceed

>  <DrugBank ID>  (1) 
DB01229

>  <ATC Codes>  (1) 
L01CD01

>  <Ligand ID>  (1) 
TA1

>  <Target Name>  (1) 
Tubulin beta-1 chain

>  <UniProt ID>  (1) 
Q9H4B7

>  <PDB ID.1>  (1) 
5M50

>  <Seq. Identity>  (1) 
78%

$$$$
