PDB_DB05239_06
     RDKit          3D

 65 68  0  0  0  0  0  0  0  0999 V2000
   -0.1471    0.1828   -2.8546 O   0  0  0  0  0  0  0  0  0  0  0  0
   -0.3046    0.0045   -1.4530 C   0  0  0  0  0  0  0  0  0  0  0  0
   -1.2022   -1.1841   -1.2544 C   0  0  0  0  0  0  0  0  0  0  0  0
   -0.5911   -2.4475   -1.8467 C   0  0  0  0  0  0  0  0  0  0  0  0
    0.0378   -3.3386   -0.8084 C   0  0  0  0  0  0  0  0  0  0  0  0
   -0.9834   -3.8019    0.2184 C   0  0  2  0  0  0  0  0  0  0  0  0
   -1.3648   -5.0958   -0.0425 F   0  0  0  0  0  0  0  0  0  0  0  0
   -2.1627   -2.8458    0.1862 C   0  0  1  0  0  0  0  0  0  0  0  0
   -2.9194   -3.1141    1.2951 F   0  0  0  0  0  0  0  0  0  0  0  0
   -1.6073   -1.4470    0.1597 C   0  0  2  0  0  0  0  0  0  0  0  0
   -2.2878   -0.4458    0.7514 N   0  0  0  0  0  0  0  0  0  0  0  0
   -3.4797    0.1776    0.5433 C   0  0  0  0  0  0  0  0  0  0  0  0
   -3.7399    0.9968   -0.6786 C   0  0  0  0  0  0  0  0  0  0  0  0
   -5.1710    1.5728   -0.6108 C   0  0  0  0  0  0  0  0  0  0  0  0
   -5.3728    2.4583    0.5663 C   0  0  1  0  0  0  0  0  0  0  0  0
   -6.8451    1.5770    1.8725 I   0  0  0  0  0  0  0  0  0  0  0  0
   -3.7759    1.0891    1.7525 C   0  0  0  0  0  0  0  0  0  0  0  0
   -2.7086    1.1681    2.6176 F   0  0  0  0  0  0  0  0  0  0  0  0
   -4.0882    2.5027    1.3314 C   0  0  0  0  0  0  0  0  0  0  0  0
    0.9965   -0.1691   -0.8567 N   0  0  0  0  0  0  0  0  0  0  0  0
    1.8346    0.9834   -1.2283 C   0  0  0  0  0  0  0  0  0  0  0  0
    2.1687    1.2853    0.1973 C   0  0  0  0  0  0  0  0  0  0  0  0
    1.1395    0.2185    0.5247 C   0  0  0  0  0  0  0  0  0  0  0  0
    1.8481    2.5499    0.6426 O   0  0  0  0  0  0  0  0  0  0  0  0
    3.5706    0.8253    0.5379 C   0  0  2  0  0  0  0  0  0  0  0  0
    4.6193    1.7683    0.0471 C   0  0  0  0  0  0  0  0  0  0  0  0
    5.9149    1.4139    0.7414 C   0  0  0  0  0  0  0  0  0  0  0  0
    6.2523   -0.0198    0.3977 C   0  0  0  0  0  0  0  0  0  0  0  0
    5.0879   -0.9471    0.6967 C   0  0  0  0  0  0  0  0  0  0  0  0
    3.8658   -0.5028    0.0531 N   0  0  0  0  0  0  0  0  0  0  0  0
   -0.9470    0.6602   -3.2023 H   0  0  0  0  0  0  0  0  0  0  0  0
   -0.7519    0.9277   -1.0723 H   0  0  0  0  0  0  0  0  0  0  0  0
   -2.1349   -1.0297   -1.8577 H   0  0  0  0  0  0  0  0  0  0  0  0
    0.1774   -2.1825   -2.5797 H   0  0  0  0  0  0  0  0  0  0  0  0
   -1.3520   -3.0707   -2.3625 H   0  0  0  0  0  0  0  0  0  0  0  0
    0.3876   -4.2435   -1.3450 H   0  0  0  0  0  0  0  0  0  0  0  0
    0.9215   -2.8918   -0.3363 H   0  0  0  0  0  0  0  0  0  0  0  0
   -0.5022   -3.8077    1.2246 H   0  0  0  0  0  0  0  0  0  0  0  0
   -2.6768   -3.0527   -0.7753 H   0  0  0  0  0  0  0  0  0  0  0  0
   -0.5964   -1.5526    0.7057 H   0  0  0  0  0  0  0  0  0  0  0  0
   -1.8634   -0.1659    1.6916 H   0  0  0  0  0  0  0  0  0  0  0  0
   -4.3907   -0.5312    0.5904 H   0  0  0  0  0  0  0  0  0  0  0  0
   -3.7229    0.4939   -1.6382 H   0  0  0  0  0  0  0  0  0  0  0  0
   -3.0038    1.8491   -0.7770 H   0  0  0  0  0  0  0  0  0  0  0  0
   -5.3515    2.0912   -1.5804 H   0  0  0  0  0  0  0  0  0  0  0  0
   -5.8404    0.6916   -0.5616 H   0  0  0  0  0  0  0  0  0  0  0  0
   -5.7408    3.4545    0.2613 H   0  0  0  0  0  0  0  0  0  0  0  0
   -4.6304    0.7439    2.3439 H   0  0  0  0  0  0  0  0  0  0  0  0
   -4.3021    3.0489    2.2897 H   0  0  0  0  0  0  0  0  0  0  0  0
   -3.2746    3.0406    0.8536 H   0  0  0  0  0  0  0  0  0  0  0  0
    1.2824    1.8227   -1.6953 H   0  0  0  0  0  0  0  0  0  0  0  0
    2.6807    0.7179   -1.8975 H   0  0  0  0  0  0  0  0  0  0  0  0
    0.2385    0.7148    0.9497 H   0  0  0  0  0  0  0  0  0  0  0  0
    1.5485   -0.6107    1.1509 H   0  0  0  0  0  0  0  0  0  0  0  0
    1.9536    2.5950    1.6205 H   0  0  0  0  0  0  0  0  0  0  0  0
    3.6203    0.8076    1.6595 H   0  0  0  0  0  0  0  0  0  0  0  0
    4.3517    2.8282    0.1985 H   0  0  0  0  0  0  0  0  0  0  0  0
    4.7740    1.5782   -1.0514 H   0  0  0  0  0  0  0  0  0  0  0  0
    6.7380    2.0519    0.3844 H   0  0  0  0  0  0  0  0  0  0  0  0
    5.8085    1.4852    1.8433 H   0  0  0  0  0  0  0  0  0  0  0  0
    7.0781   -0.3206    1.0785 H   0  0  0  0  0  0  0  0  0  0  0  0
    6.5546   -0.1409   -0.6467 H   0  0  0  0  0  0  0  0  0  0  0  0
    5.3476   -1.9240    0.2298 H   0  0  0  0  0  0  0  0  0  0  0  0
    4.9192   -1.0857    1.7785 H   0  0  0  0  0  0  0  0  0  0  0  0
    4.1151   -0.4080   -0.9745 H   0  0  0  0  0  0  0  0  0  0  0  0
  1  2  1  0
  2  3  1  0
  3  4  1  0
  4  5  1  0
  5  6  1  0
  6  7  1  0
  6  8  1  0
  8  9  1  0
  3 10  1  0
  8 10  1  0
 10 11  1  0
 11 12  1  0
 12 13  1  0
 13 14  1  0
 14 15  1  0
 15 16  1  0
 12 17  1  0
 17 18  1  0
 15 19  1  0
 17 19  1  0
  2 20  1  0
 20 21  1  0
 21 22  1  0
 20 23  1  0
 22 23  1  0
 22 24  1  0
 22 25  1  0
 25 26  1  0
 26 27  1  0
 27 28  1  0
 28 29  1  0
 25 30  1  0
 29 30  1  0
  1 31  1  0
  2 32  1  0
  3 33  1  0
  4 34  1  0
  4 35  1  0
  5 36  1  0
  5 37  1  0
  6 38  1  1
  8 39  1  6
 10 40  1  1
 11 41  1  0
 12 42  1  0
 13 43  1  0
 13 44  1  0
 14 45  1  0
 14 46  1  0
 15 47  1  6
 17 48  1  0
 19 49  1  0
 19 50  1  0
 21 51  1  0
 21 52  1  0
 23 53  1  0
 23 54  1  0
 24 55  1  0
 25 56  1  1
 26 57  1  0
 26 58  1  0
 27 59  1  0
 27 60  1  0
 28 61  1  0
 28 62  1  0
 29 63  1  0
 29 64  1  0
 30 65  1  0
M  END
>  <PDBID>  (1) 
4LMN

>  <PDB ID>  (1) 
4LMN

>  <Generic Name>  (1) 
Cobimetinib

>  <Brand Name>  (1) 
Cotellic

>  <DrugBank ID>  (1) 
DB05239

>  <ATC Codes>  (1) 
nan

>  <Ligand ID>  (1) 
EUI

>  <Target Name>  (1) 
Dual specificity mitogen-activated protein kinase kinase 1

>  <UniProt ID>  (1) 
Q02750

>  <PDB ID.1>  (1) 
4LMN

>  <Seq. Identity>  (1) 
97%

$$$$
