PDB_DB01167_01
     RDKit          3D

113119  0  0  0  0  0  0  0  0999 V2000
    6.8007    1.2248    0.5967 C   0  0  0  0  0  0  0  0  0  0  0  0
    7.3199    0.6218   -0.6589 C   0  0  0  0  0  0  0  0  0  0  0  0
   13.0468    1.1028    0.0206 C   0  0  0  0  0  0  0  0  0  0  0  0
   12.8692   -0.2402    0.6674 C   0  0  0  0  0  0  0  0  0  0  0  0
   11.6092   -0.9005    0.1571 C   0  0  1  0  0  0  0  0  0  0  0  0
   11.5323   -2.2545    0.8568 C   0  0  0  0  0  0  0  0  0  0  0  0
   10.4774   -0.1358    0.6038 N   0  0  0  0  0  0  0  0  0  0  0  0
    9.2019   -0.6849    0.1685 C   0  0  0  0  0  0  0  0  0  0  0  0
    8.4725   -0.9920    1.2796 O   0  0  0  0  0  0  0  0  0  0  0  0
    8.6888    0.2868   -0.7082 N   0  0  0  0  0  0  0  0  0  0  0  0
    9.5807    1.3937   -0.8000 C   0  0  0  0  0  0  0  0  0  0  0  0
   10.4977    1.2044    0.3081 N   0  0  0  0  0  0  0  0  0  0  0  0
    5.4733    1.8625    0.3413 C   0  0  0  0  0  0  0  0  0  0  0  0
    4.6999    1.3654   -0.8150 C   0  0  0  0  0  0  0  0  0  0  0  0
    5.0756    0.0693   -1.4123 C   0  0  0  0  0  0  0  0  0  0  0  0
    6.3962   -0.5079   -1.0337 C   0  0  0  0  0  0  0  0  0  0  0  0
    3.3110    1.3016   -0.4364 N   0  0  0  0  0  0  0  0  0  0  0  0
    2.3520    1.6336   -1.4039 C   0  0  0  0  0  0  0  0  0  0  0  0
    1.3931    0.5455   -1.7842 C   0  0  0  0  0  0  0  0  0  0  0  0
    0.8757   -0.0894   -0.6372 N   0  0  0  0  0  0  0  0  0  0  0  0
    1.8545   -0.5519    0.2722 C   0  0  0  0  0  0  0  0  0  0  0  0
    2.9558    0.4169    0.5885 C   0  0  0  0  0  0  0  0  0  0  0  0
   -0.3458    0.3556   -0.0956 C   0  0  0  0  0  0  0  0  0  0  0  0
   -0.9965   -0.7386    0.7567 C   0  0  0  0  0  0  0  0  0  0  0  0
   -1.1756   -1.9903   -0.0804 C   0  0  0  0  0  0  0  0  0  0  0  0
   -2.2463   -1.6006   -1.1132 C   0  0  0  0  0  0  0  0  0  0  0  0
   -1.6240   -0.5162   -2.0358 C   0  0  0  0  0  0  0  0  0  0  0  0
   -1.3374    0.6668   -1.1851 C   0  0  0  0  0  0  0  0  0  0  0  0
   -3.3043   -1.0763   -0.4364 O   0  0  0  0  0  0  0  0  0  0  0  0
   -4.5226   -1.6526   -0.7438 C   0  0  0  0  0  0  0  0  0  0  0  0
   -5.6196   -1.0108    0.0936 C   0  0  1  0  0  0  0  0  0  0  0  0
   -5.6560    0.4684   -0.0426 C   0  0  0  0  0  0  0  0  0  0  0  0
   -6.9955    0.7321   -0.1656 O   0  0  0  0  0  0  0  0  0  0  0  0
   -7.7461   -0.4013    0.0448 C   0  0  2  0  0  0  0  0  0  0  0  0
   -6.8448   -1.4948   -0.2559 O   0  0  0  0  0  0  0  0  0  0  0  0
   -8.8624   -0.5797   -0.9141 C   0  0  0  0  0  0  0  0  0  0  0  0
   -9.8396    0.4717   -0.9486 N   0  0  0  0  0  0  0  0  0  0  0  0
   -9.3276    1.7162   -1.4872 C   0  0  0  0  0  0  0  0  0  0  0  0
  -10.5730    2.3886   -1.8868 N   0  0  0  0  0  0  0  0  0  0  0  0
  -11.5301    1.3445   -2.1553 C   0  0  0  0  0  0  0  0  0  0  0  0
  -10.7713    0.1151   -1.9685 N   0  0  0  0  0  0  0  0  0  0  0  0
   -8.0898   -0.5129    1.5113 C   0  0  0  0  0  0  0  0  0  0  0  0
   -8.7295    0.6953    2.1045 C   0  0  0  0  0  0  0  0  0  0  0  0
  -10.1951    0.7258    2.2608 C   0  0  0  0  0  0  0  0  0  0  0  0
  -10.8273   -0.6378    2.4265 C   0  0  0  0  0  0  0  0  0  0  0  0
   -9.8157   -1.6236    2.9799 C   0  0  0  0  0  0  0  0  0  0  0  0
   -8.7936   -1.8053    1.8484 C   0  0  0  0  0  0  0  0  0  0  0  0
  -12.2380   -0.6112    3.4964 Cl  0  0  0  0  0  0  0  0  0  0  0  0
   -7.9782    1.0406    3.7232 Cl  0  0  0  0  0  0  0  0  0  0  0  0
    6.6603    0.4918    1.4203 H   0  0  0  0  0  0  0  0  0  0  0  0
    7.5764    1.9542    0.9761 H   0  0  0  0  0  0  0  0  0  0  0  0
    7.1610    1.4025   -1.4651 H   0  0  0  0  0  0  0  0  0  0  0  0
   12.7237    1.8816    0.7133 H   0  0  0  0  0  0  0  0  0  0  0  0
   14.1305    1.2308   -0.2708 H   0  0  0  0  0  0  0  0  0  0  0  0
   12.4900    1.1991   -0.9438 H   0  0  0  0  0  0  0  0  0  0  0  0
   12.8005   -0.1650    1.7907 H   0  0  0  0  0  0  0  0  0  0  0  0
   13.7357   -0.8997    0.4207 H   0  0  0  0  0  0  0  0  0  0  0  0
   11.6153   -1.0687   -0.9159 H   0  0  0  0  0  0  0  0  0  0  0  0
   12.4480   -2.4819    1.4459 H   0  0  0  0  0  0  0  0  0  0  0  0
   10.6884   -2.3136    1.5454 H   0  0  0  0  0  0  0  0  0  0  0  0
   11.4237   -3.0946    0.1226 H   0  0  0  0  0  0  0  0  0  0  0  0
    9.4280   -1.6565   -0.3553 H   0  0  0  0  0  0  0  0  0  0  0  0
    8.1647   -1.9188    1.3226 H   0  0  0  0  0  0  0  0  0  0  0  0
   10.1932    1.2622   -1.7377 H   0  0  0  0  0  0  0  0  0  0  0  0
    9.1019    2.3740   -0.8276 H   0  0  0  0  0  0  0  0  0  0  0  0
   10.2072    1.8085    1.1165 H   0  0  0  0  0  0  0  0  0  0  0  0
    5.6725    2.9549    0.2021 H   0  0  0  0  0  0  0  0  0  0  0  0
    4.8600    1.8579    1.3050 H   0  0  0  0  0  0  0  0  0  0  0  0
    4.7379    2.1654   -1.6216 H   0  0  0  0  0  0  0  0  0  0  0  0
    5.1021    0.1909   -2.5383 H   0  0  0  0  0  0  0  0  0  0  0  0
    4.2669   -0.7073   -1.2791 H   0  0  0  0  0  0  0  0  0  0  0  0
    6.8930   -1.0872   -1.8395 H   0  0  0  0  0  0  0  0  0  0  0  0
    6.2357   -1.2263   -0.2038 H   0  0  0  0  0  0  0  0  0  0  0  0
    2.9041    1.9326   -2.3436 H   0  0  0  0  0  0  0  0  0  0  0  0
    1.7514    2.5170   -1.0996 H   0  0  0  0  0  0  0  0  0  0  0  0
    0.6546    0.9849   -2.4684 H   0  0  0  0  0  0  0  0  0  0  0  0
    1.9027   -0.2503   -2.4074 H   0  0  0  0  0  0  0  0  0  0  0  0
    2.2820   -1.5078   -0.1219 H   0  0  0  0  0  0  0  0  0  0  0  0
    1.4091   -0.8237    1.2601 H   0  0  0  0  0  0  0  0  0  0  0  0
    3.8553   -0.1824    0.8834 H   0  0  0  0  0  0  0  0  0  0  0  0
    2.7003    1.0152    1.5130 H   0  0  0  0  0  0  0  0  0  0  0  0
   -0.2340    1.2682    0.5497 H   0  0  0  0  0  0  0  0  0  0  0  0
   -0.5536   -0.8826    1.7269 H   0  0  0  0  0  0  0  0  0  0  0  0
   -2.0411   -0.3454    0.9423 H   0  0  0  0  0  0  0  0  0  0  0  0
   -0.3000   -2.2624   -0.6643 H   0  0  0  0  0  0  0  0  0  0  0  0
   -1.6040   -2.7970    0.5210 H   0  0  0  0  0  0  0  0  0  0  0  0
   -2.4242   -2.4537   -1.7655 H   0  0  0  0  0  0  0  0  0  0  0  0
   -0.7807   -1.0010   -2.5160 H   0  0  0  0  0  0  0  0  0  0  0  0
   -2.4209   -0.3026   -2.7759 H   0  0  0  0  0  0  0  0  0  0  0  0
   -2.3104    0.9058   -0.6468 H   0  0  0  0  0  0  0  0  0  0  0  0
   -1.1221    1.5984   -1.7429 H   0  0  0  0  0  0  0  0  0  0  0  0
   -4.4871   -2.7573   -0.5463 H   0  0  0  0  0  0  0  0  0  0  0  0
   -4.7173   -1.4997   -1.8202 H   0  0  0  0  0  0  0  0  0  0  0  0
   -5.4225   -1.3447    1.1507 H   0  0  0  0  0  0  0  0  0  0  0  0
   -5.1971    0.9229    0.8637 H   0  0  0  0  0  0  0  0  0  0  0  0
   -5.0551    0.7978   -0.9152 H   0  0  0  0  0  0  0  0  0  0  0  0
   -8.3745   -0.5456   -1.9417 H   0  0  0  0  0  0  0  0  0  0  0  0
   -9.3129   -1.5710   -0.8695 H   0  0  0  0  0  0  0  0  0  0  0  0
   -8.6682    1.5967   -2.3493 H   0  0  0  0  0  0  0  0  0  0  0  0
   -8.8822    2.3814   -0.7193 H   0  0  0  0  0  0  0  0  0  0  0  0
  -10.9463    2.9501   -1.1068 H   0  0  0  0  0  0  0  0  0  0  0  0
  -12.3799    1.3109   -1.4646 H   0  0  0  0  0  0  0  0  0  0  0  0
  -11.8964    1.3343   -3.2115 H   0  0  0  0  0  0  0  0  0  0  0  0
  -10.1916   -0.1014   -2.8339 H   0  0  0  0  0  0  0  0  0  0  0  0
   -7.0784   -0.6008    2.0225 H   0  0  0  0  0  0  0  0  0  0  0  0
   -8.4167    1.5633    1.4729 H   0  0  0  0  0  0  0  0  0  0  0  0
  -10.4334    1.2546    3.2359 H   0  0  0  0  0  0  0  0  0  0  0  0
  -10.7480    1.3320    1.5159 H   0  0  0  0  0  0  0  0  0  0  0  0
  -11.1445   -1.0069    1.4403 H   0  0  0  0  0  0  0  0  0  0  0  0
  -10.3307   -2.6022    3.0769 H   0  0  0  0  0  0  0  0  0  0  0  0
   -9.3366   -1.2824    3.9063 H   0  0  0  0  0  0  0  0  0  0  0  0
   -8.0952   -2.5963    2.2001 H   0  0  0  0  0  0  0  0  0  0  0  0
   -9.3692   -2.2438    1.0111 H   0  0  0  0  0  0  0  0  0  0  0  0
  1  2  1  0
  3  4  1  0
  4  5  1  0
  5  6  1  0
  5  7  1  0
  7  8  1  0
  8  9  1  0
  2 10  1  0
  8 10  1  0
 10 11  1  0
  7 12  1  0
 11 12  1  0
  1 13  1  0
 13 14  1  0
 14 15  1  0
  2 16  1  0
 15 16  1  0
 14 17  1  0
 17 18  1  0
 18 19  1  0
 19 20  1  0
 20 21  1  0
 17 22  1  0
 21 22  1  0
 20 23  1  0
 23 24  1  0
 24 25  1  0
 25 26  1  0
 26 27  1  0
 23 28  1  0
 27 28  1  0
 26 29  1  0
 29 30  1  0
 30 31  1  0
 31 32  1  0
 32 33  1  0
 33 34  1  0
 31 35  1  0
 34 35  1  0
 34 36  1  6
 36 37  1  0
 37 38  1  0
 38 39  1  0
 40 39  1  0
 37 41  1  0
 40 41  1  0
 34 42  1  0
 42 43  1  0
 43 44  1  0
 44 45  1  0
 45 46  1  0
 42 47  1  0
 46 47  1  0
 45 48  1  0
 43 49  1  0
  1 50  1  0
  1 51  1  0
  2 52  1  0
  3 53  1  0
  3 54  1  0
  3 55  1  0
  4 56  1  0
  4 57  1  0
  5 58  1  6
  6 59  1  0
  6 60  1  0
  6 61  1  0
  8 62  1  0
  9 63  1  0
 11 64  1  0
 11 65  1  0
 12 66  1  0
 13 67  1  0
 13 68  1  0
 14 69  1  0
 15 70  1  0
 15 71  1  0
 16 72  1  0
 16 73  1  0
 18 74  1  0
 18 75  1  0
 19 76  1  0
 19 77  1  0
 21 78  1  0
 21 79  1  0
 22 80  1  0
 22 81  1  0
 23 82  1  0
 24 83  1  0
 24 84  1  0
 25 85  1  0
 25 86  1  0
 26 87  1  0
 27 88  1  0
 27 89  1  0
 28 90  1  0
 28 91  1  0
 30 92  1  0
 30 93  1  0
 31 94  1  1
 32 95  1  0
 32 96  1  0
 36 97  1  0
 36 98  1  0
 38 99  1  0
 38100  1  0
 39101  1  0
 40102  1  0
 40103  1  0
 41104  1  0
 42105  1  0
 43106  1  0
 44107  1  0
 44108  1  0
 45109  1  0
 46110  1  0
 46111  1  0
 47112  1  0
 47113  1  0
M  END
>  <PDBID>  (1) 
5JLC

>  <PDB ID>  (1) 
5JLC

>  <Generic Name>  (1) 
Itraconazole

>  <Brand Name>  (1) 
Itraconazole#Onmel#Sporanox#Sporanox Oral Solution 10mg/ml#Itrizole#Oriconazole#Sporal

>  <DrugBank ID>  (1) 
DB01167

>  <ATC Codes>  (1) 
J02AC02

>  <Ligand ID>  (1) 
1YN

>  <Target Name>  (1) 
Lanosterol 14-alpha demethylase

>  <UniProt ID>  (1) 
P50859

>  <PDB ID.1>  (1) 
5JLC

>  <Seq. Identity>  (1) 
97%

$$$$
