PDB_DB00625_08
     RDKit          3D

 42 44  0  0  0  0  0  0  0  0999 V2000
   -3.9157   -0.9643    2.1744 Cl  0  0  0  0  0  0  0  0  0  0  0  0
    1.0094   -1.1390   -1.8342 F   0  0  0  0  0  0  0  0  0  0  0  0
   -0.4641    0.3196   -2.4744 F   0  0  0  0  0  0  0  0  0  0  0  0
    1.4983    1.1276   -2.0944 F   0  0  0  0  0  0  0  0  0  0  0  0
   -0.4652    2.8937   -1.8473 O   0  0  0  0  0  0  0  0  0  0  0  0
   -0.0469    1.7427    0.0262 O   0  0  0  0  0  0  0  0  0  0  0  0
   -2.1429    1.5727   -1.0603 N   0  0  0  0  0  0  0  0  0  0  0  0
   -2.3499    0.4320   -0.2728 C   0  0  1  0  0  0  0  0  0  0  0  0
   -3.3848   -0.5262   -0.8568 C   0  0  0  0  0  0  0  0  0  0  0  0
   -3.1562   -1.8672   -0.2073 C   0  0  0  0  0  0  0  0  0  0  0  0
   -2.6736   -1.7475    1.2098 C   0  0  0  0  0  0  0  0  0  0  0  0
   -1.3153   -1.0332    1.2910 C   0  0  0  0  0  0  0  0  0  0  0  0
   -1.1190   -0.3891   -0.0582 C   0  0  0  0  0  0  0  0  0  0  0  0
    0.1970    0.3882   -0.1828 C   0  0  2  0  0  0  0  0  0  0  0  0
    1.0749   -0.1891    0.8486 C   0  0  0  0  0  0  0  0  0  0  0  0
    2.4382    0.2480    1.1159 C   0  0  0  0  0  0  0  0  0  0  0  0
    3.5112    0.0051    0.0912 C   0  0  0  0  0  0  0  0  0  0  0  0
    4.9125    0.5405    0.4978 C   0  0  0  0  0  0  0  0  0  0  0  0
    4.6629   -0.8926    0.4707 C   0  0  0  0  0  0  0  0  0  0  0  0
    0.6840    0.1736   -1.5901 C   0  0  0  0  0  0  0  0  0  0  0  0
   -1.0254    2.3307   -0.6755 C   0  0  0  0  0  0  0  0  0  0  0  0
   -1.0870    3.6042   -2.1420 H   0  0  0  0  0  0  0  0  0  0  0  0
   -2.9872    2.1636   -1.1091 H   0  0  0  0  0  0  0  0  0  0  0  0
   -2.7808    0.7872    0.7156 H   0  0  0  0  0  0  0  0  0  0  0  0
   -3.2074   -0.5840   -1.9631 H   0  0  0  0  0  0  0  0  0  0  0  0
   -4.3739   -0.1111   -0.6072 H   0  0  0  0  0  0  0  0  0  0  0  0
   -2.5781   -2.5713   -0.8259 H   0  0  0  0  0  0  0  0  0  0  0  0
   -4.1819   -2.3364   -0.1264 H   0  0  0  0  0  0  0  0  0  0  0  0
   -2.5629   -2.7849    1.5963 H   0  0  0  0  0  0  0  0  0  0  0  0
   -0.5730   -1.7770    1.5727 H   0  0  0  0  0  0  0  0  0  0  0  0
   -1.4934   -0.2335    2.0692 H   0  0  0  0  0  0  0  0  0  0  0  0
   -1.0394   -1.2414   -0.7770 H   0  0  0  0  0  0  0  0  0  0  0  0
    0.4728   -0.1090    1.8302 H   0  0  0  0  0  0  0  0  0  0  0  0
    1.1062   -1.3203    0.6236 H   0  0  0  0  0  0  0  0  0  0  0  0
    2.7811   -0.3278    2.0424 H   0  0  0  0  0  0  0  0  0  0  0  0
    2.4994    1.3119    1.5043 H   0  0  0  0  0  0  0  0  0  0  0  0
    3.2897   -0.0472   -0.9725 H   0  0  0  0  0  0  0  0  0  0  0  0
    5.4083    1.0873   -0.3397 H   0  0  0  0  0  0  0  0  0  0  0  0
    4.9563    1.1284    1.4448 H   0  0  0  0  0  0  0  0  0  0  0  0
    5.1489   -1.4812   -0.3236 H   0  0  0  0  0  0  0  0  0  0  0  0
    4.6388   -1.4249    1.4459 H   0  0  0  0  0  0  0  0  0  0  0  0
   -1.3658    3.2409   -0.0942 H   0  0  0  0  0  0  0  0  0  0  0  0
  7  8  1  0
  8  9  1  0
  9 10  1  0
  1 11  1  0
 10 11  1  0
 11 12  1  0
  8 13  1  0
 12 13  1  0
  6 14  1  0
 13 14  1  0
 14 15  1  1
 15 16  1  0
 16 17  1  0
 17 18  1  0
 17 19  1  0
 18 19  1  0
 20  2  1  0
  3 20  1  0
  4 20  1  0
 14 20  1  0
  5 21  1  0
  6 21  1  0
  7 21  1  0
  5 22  1  0
  7 23  1  0
  8 24  1  1
  9 25  1  0
  9 26  1  0
 10 27  1  0
 10 28  1  0
 11 29  1  0
 12 30  1  0
 12 31  1  0
 13 32  1  0
 15 33  1  0
 15 34  1  0
 16 35  1  0
 16 36  1  0
 17 37  1  0
 18 38  1  0
 18 39  1  0
 19 40  1  0
 19 41  1  0
 21 42  1  0
M  END
>  <PDBID>  (1) 
1JKH

>  <PDB ID>  (1) 
1JKH

>  <Generic Name>  (1) 
Efavirenz

>  <Brand Name>  (1) 
Atripla#Auro-efavirenz#Mylan-efavirenz#Sustiva#Sustiva 100mg#Sustiva 200mg#Sustiva 50mg#Sustiva Tablets#Teva-efavirenz#E.F#Efavir#Efavirenz#Efcure#Efferven#Estiva#Evirenz#Stocrin#Viranz

>  <DrugBank ID>  (1) 
DB00625

>  <ATC Codes>  (1) 
J05AR06#J05AG03#J05AR11

>  <Ligand ID>  (1) 
EFZ

>  <Target Name>  (1) 
Reverse transcriptase/RNaseH

>  <UniProt ID>  (1) 
Q72547

>  <PDB ID.1>  (1) 
1JKH

>  <Seq. Identity>  (1) 
96%

$$$$
