PDB_DB01586_03
     RDKit          3D

140146  0  0  0  0  0  0  0  0999 V2000
   -3.8046   -1.3573   -0.0860 C   0  0  0  0  0  0  0  0  0  0  0  0
   -3.0917   -0.0964   -0.4551 C   0  0  1  0  0  0  0  0  0  0  0  0
   -1.0030   -1.3548    0.1054 C   0  0  0  0  0  0  0  0  0  0  0  0
    0.3363   -1.2213    0.7959 C   0  0  0  0  0  0  0  0  0  0  0  0
    1.1502   -0.2333    0.0160 C   0  0  1  0  0  0  0  0  0  0  0  0
    0.4086    1.1223    0.0454 C   0  0  1  0  0  0  0  0  0  0  0  0
    1.4031    1.9893   -0.6197 C   0  0  0  0  0  0  0  0  0  0  0  0
    2.7624    1.3828   -0.2140 C   0  0  0  0  0  0  0  0  0  0  0  0
    2.3680    0.2586    0.7071 C   0  0  2  0  0  0  0  0  0  0  0  0
    1.2407   -0.6320   -1.3954 C   0  0  0  0  0  0  0  0  0  0  0  0
   -3.0637   -0.0156   -1.9755 C   0  0  0  0  0  0  0  0  0  0  0  0
   -1.9015    3.2134   -1.1492 O   0  0  0  0  0  0  0  0  0  0  0  0
   -6.5303   -0.7976    1.7515 O   0  0  0  0  0  0  0  0  0  0  0  0
   -5.3127   -1.2321   -0.2767 C   0  0  0  0  0  0  0  0  0  0  0  0
    3.3807   -0.6614    1.1857 C   0  0  2  0  0  0  0  0  0  0  0  0
    4.4734    0.1542    1.8995 C   0  0  0  0  0  0  0  0  0  0  0  0
    3.9042   -1.7576    0.3747 C   0  0  0  0  0  0  0  0  0  0  0  0
    4.5943   -1.5906   -0.8997 C   0  0  0  0  0  0  0  0  0  0  0  0
    5.8770   -0.8376   -0.9546 C   0  0  0  0  0  0  0  0  0  0  0  0
   -5.8894   -0.2108    0.6736 C   0  0  2  0  0  0  0  0  0  0  0  0
   -4.7632    0.6246    1.2032 C   0  0  0  0  0  0  0  0  0  0  0  0
    5.8587    0.4760   -0.5736 O   0  0  0  0  0  0  0  0  0  0  0  0
    6.8707   -1.4536   -0.1428 O   0  0  0  0  0  0  0  0  0  0  0  0
   -3.8414    1.1234    0.0835 C   0  0  1  0  0  0  0  0  0  0  0  0
   -2.9300    2.1359    0.6915 C   0  0  0  0  0  0  0  0  0  0  0  0
   -1.6570    2.3723   -0.0470 C   0  0  1  0  0  0  0  0  0  0  0  0
   -0.9534    1.0933   -0.4695 C   0  0  2  0  0  0  0  0  0  0  0  0
   -1.7138   -0.0461    0.1373 C   0  0  1  0  0  0  0  0  0  0  0  0
   -3.8046   -1.3573   -0.0860 C   0  0  0  0  0  0  0  0  0  0  0  0
   -3.0917   -0.0964   -0.4551 C   0  0  1  0  0  0  0  0  0  0  0  0
   -1.0030   -1.3548    0.1054 C   0  0  0  0  0  0  0  0  0  0  0  0
    0.3363   -1.2213    0.7959 C   0  0  0  0  0  0  0  0  0  0  0  0
    1.1502   -0.2333    0.0160 C   0  0  1  0  0  0  0  0  0  0  0  0
    0.4086    1.1223    0.0454 C   0  0  1  0  0  0  0  0  0  0  0  0
    1.4031    1.9893   -0.6197 C   0  0  0  0  0  0  0  0  0  0  0  0
    2.7624    1.3828   -0.2140 C   0  0  0  0  0  0  0  0  0  0  0  0
    2.3680    0.2586    0.7071 C   0  0  2  0  0  0  0  0  0  0  0  0
    1.2407   -0.6320   -1.3954 C   0  0  0  0  0  0  0  0  0  0  0  0
   -3.0637   -0.0156   -1.9755 C   0  0  0  0  0  0  0  0  0  0  0  0
   -1.9015    3.2134   -1.1492 O   0  0  0  0  0  0  0  0  0  0  0  0
   -6.5303   -0.7976    1.7515 O   0  0  0  0  0  0  0  0  0  0  0  0
   -5.3127   -1.2321   -0.2767 C   0  0  0  0  0  0  0  0  0  0  0  0
    3.3807   -0.6614    1.1857 C   0  0  2  0  0  0  0  0  0  0  0  0
    4.4734    0.1542    1.8995 C   0  0  0  0  0  0  0  0  0  0  0  0
    3.9042   -1.7576    0.3747 C   0  0  0  0  0  0  0  0  0  0  0  0
    4.5943   -1.5906   -0.8997 C   0  0  0  0  0  0  0  0  0  0  0  0
    5.8770   -0.8376   -0.9546 C   0  0  0  0  0  0  0  0  0  0  0  0
   -5.8894   -0.2108    0.6736 C   0  0  2  0  0  0  0  0  0  0  0  0
   -4.7632    0.6246    1.2032 C   0  0  0  0  0  0  0  0  0  0  0  0
    5.8587    0.4760   -0.5736 O   0  0  0  0  0  0  0  0  0  0  0  0
    6.8707   -1.4536   -0.1428 O   0  0  0  0  0  0  0  0  0  0  0  0
   -3.8414    1.1234    0.0835 C   0  0  1  0  0  0  0  0  0  0  0  0
   -2.9300    2.1359    0.6915 C   0  0  0  0  0  0  0  0  0  0  0  0
   -1.6570    2.3723   -0.0470 C   0  0  1  0  0  0  0  0  0  0  0  0
   -0.9534    1.0933   -0.4695 C   0  0  2  0  0  0  0  0  0  0  0  0
   -1.7138   -0.0461    0.1373 C   0  0  1  0  0  0  0  0  0  0  0  0
   -3.4846   -2.1613   -0.7971 H   0  0  0  0  0  0  0  0  0  0  0  0
   -3.6226   -1.6242    0.9589 H   0  0  0  0  0  0  0  0  0  0  0  0
   -0.9484   -1.8368   -0.8829 H   0  0  0  0  0  0  0  0  0  0  0  0
   -1.6353   -2.0612    0.7205 H   0  0  0  0  0  0  0  0  0  0  0  0
    0.1365   -0.8766    1.8288 H   0  0  0  0  0  0  0  0  0  0  0  0
    0.8180   -2.2063    0.7477 H   0  0  0  0  0  0  0  0  0  0  0  0
    0.3836    1.4060    1.1343 H   0  0  0  0  0  0  0  0  0  0  0  0
    1.3351    3.0596   -0.3451 H   0  0  0  0  0  0  0  0  0  0  0  0
    1.3207    1.9755   -1.7431 H   0  0  0  0  0  0  0  0  0  0  0  0
    3.2779    2.1787    0.3553 H   0  0  0  0  0  0  0  0  0  0  0  0
    3.2934    1.0833   -1.1182 H   0  0  0  0  0  0  0  0  0  0  0  0
    1.9846    0.8143    1.6302 H   0  0  0  0  0  0  0  0  0  0  0  0
    1.9041   -0.0602   -2.0448 H   0  0  0  0  0  0  0  0  0  0  0  0
    1.4375   -1.7283   -1.4539 H   0  0  0  0  0  0  0  0  0  0  0  0
    0.2218   -0.5118   -1.8716 H   0  0  0  0  0  0  0  0  0  0  0  0
   -3.1791    1.0351   -2.3161 H   0  0  0  0  0  0  0  0  0  0  0  0
   -2.1226   -0.4669   -2.3792 H   0  0  0  0  0  0  0  0  0  0  0  0
   -3.9423   -0.5603   -2.4254 H   0  0  0  0  0  0  0  0  0  0  0  0
   -1.5981    2.8136   -1.9957 H   0  0  0  0  0  0  0  0  0  0  0  0
   -6.2681   -0.4012    2.6231 H   0  0  0  0  0  0  0  0  0  0  0  0
   -5.7346   -2.2363   -0.0669 H   0  0  0  0  0  0  0  0  0  0  0  0
   -5.5930   -0.9463   -1.2917 H   0  0  0  0  0  0  0  0  0  0  0  0
    2.8697   -1.1930    2.0846 H   0  0  0  0  0  0  0  0  0  0  0  0
    4.5200    1.1914    1.5892 H   0  0  0  0  0  0  0  0  0  0  0  0
    4.1923    0.2248    3.0090 H   0  0  0  0  0  0  0  0  0  0  0  0
    5.4391   -0.3635    1.9268 H   0  0  0  0  0  0  0  0  0  0  0  0
    3.1137   -2.5616    0.2882 H   0  0  0  0  0  0  0  0  0  0  0  0
    4.6667   -2.3136    1.0463 H   0  0  0  0  0  0  0  0  0  0  0  0
    3.9502   -1.2685   -1.7576 H   0  0  0  0  0  0  0  0  0  0  0  0
    4.8786   -2.6572   -1.2374 H   0  0  0  0  0  0  0  0  0  0  0  0
    6.3095   -0.9668   -1.9953 H   0  0  0  0  0  0  0  0  0  0  0  0
   -6.6024    0.4544    0.1625 H   0  0  0  0  0  0  0  0  0  0  0  0
   -4.1284    0.0953    1.9410 H   0  0  0  0  0  0  0  0  0  0  0  0
   -5.1820    1.5067    1.7284 H   0  0  0  0  0  0  0  0  0  0  0  0
    6.7934    0.7519   -0.3982 H   0  0  0  0  0  0  0  0  0  0  0  0
    7.6270   -0.8099   -0.1467 H   0  0  0  0  0  0  0  0  0  0  0  0
   -4.4659    1.5979   -0.6791 H   0  0  0  0  0  0  0  0  0  0  0  0
   -3.4900    3.1185    0.6816 H   0  0  0  0  0  0  0  0  0  0  0  0
   -2.7590    1.9513    1.7932 H   0  0  0  0  0  0  0  0  0  0  0  0
   -1.0030    2.9932    0.6345 H   0  0  0  0  0  0  0  0  0  0  0  0
   -1.0331    1.0599   -1.5774 H   0  0  0  0  0  0  0  0  0  0  0  0
   -1.8533    0.2141    1.2282 H   0  0  0  0  0  0  0  0  0  0  0  0
   -3.4846   -2.1613   -0.7971 H   0  0  0  0  0  0  0  0  0  0  0  0
   -3.6226   -1.6242    0.9589 H   0  0  0  0  0  0  0  0  0  0  0  0
   -0.9484   -1.8368   -0.8829 H   0  0  0  0  0  0  0  0  0  0  0  0
   -1.6353   -2.0612    0.7205 H   0  0  0  0  0  0  0  0  0  0  0  0
    0.1365   -0.8766    1.8288 H   0  0  0  0  0  0  0  0  0  0  0  0
    0.8180   -2.2063    0.7477 H   0  0  0  0  0  0  0  0  0  0  0  0
    0.3836    1.4060    1.1343 H   0  0  0  0  0  0  0  0  0  0  0  0
    1.3351    3.0596   -0.3451 H   0  0  0  0  0  0  0  0  0  0  0  0
    1.3207    1.9755   -1.7431 H   0  0  0  0  0  0  0  0  0  0  0  0
    3.2779    2.1787    0.3553 H   0  0  0  0  0  0  0  0  0  0  0  0
    3.2934    1.0833   -1.1182 H   0  0  0  0  0  0  0  0  0  0  0  0
    1.9846    0.8143    1.6302 H   0  0  0  0  0  0  0  0  0  0  0  0
    1.9041   -0.0602   -2.0448 H   0  0  0  0  0  0  0  0  0  0  0  0
    1.4375   -1.7283   -1.4539 H   0  0  0  0  0  0  0  0  0  0  0  0
    0.2218   -0.5118   -1.8716 H   0  0  0  0  0  0  0  0  0  0  0  0
   -3.1791    1.0351   -2.3161 H   0  0  0  0  0  0  0  0  0  0  0  0
   -2.1226   -0.4669   -2.3792 H   0  0  0  0  0  0  0  0  0  0  0  0
   -3.9423   -0.5603   -2.4254 H   0  0  0  0  0  0  0  0  0  0  0  0
   -1.5981    2.8136   -1.9957 H   0  0  0  0  0  0  0  0  0  0  0  0
   -6.2681   -0.4012    2.6231 H   0  0  0  0  0  0  0  0  0  0  0  0
   -5.7346   -2.2363   -0.0669 H   0  0  0  0  0  0  0  0  0  0  0  0
   -5.5930   -0.9463   -1.2917 H   0  0  0  0  0  0  0  0  0  0  0  0
    2.8697   -1.1930    2.0846 H   0  0  0  0  0  0  0  0  0  0  0  0
    4.5200    1.1914    1.5892 H   0  0  0  0  0  0  0  0  0  0  0  0
    4.1923    0.2248    3.0090 H   0  0  0  0  0  0  0  0  0  0  0  0
    5.4391   -0.3635    1.9268 H   0  0  0  0  0  0  0  0  0  0  0  0
    3.1137   -2.5616    0.2882 H   0  0  0  0  0  0  0  0  0  0  0  0
    4.6667   -2.3136    1.0463 H   0  0  0  0  0  0  0  0  0  0  0  0
    3.9502   -1.2685   -1.7576 H   0  0  0  0  0  0  0  0  0  0  0  0
    4.8786   -2.6572   -1.2374 H   0  0  0  0  0  0  0  0  0  0  0  0
    6.3095   -0.9668   -1.9953 H   0  0  0  0  0  0  0  0  0  0  0  0
   -6.6024    0.4544    0.1625 H   0  0  0  0  0  0  0  0  0  0  0  0
   -4.1284    0.0953    1.9410 H   0  0  0  0  0  0  0  0  0  0  0  0
   -5.1820    1.5067    1.7284 H   0  0  0  0  0  0  0  0  0  0  0  0
    6.7934    0.7519   -0.3982 H   0  0  0  0  0  0  0  0  0  0  0  0
    7.6270   -0.8099   -0.1467 H   0  0  0  0  0  0  0  0  0  0  0  0
   -4.4659    1.5979   -0.6791 H   0  0  0  0  0  0  0  0  0  0  0  0
   -3.4900    3.1185    0.6816 H   0  0  0  0  0  0  0  0  0  0  0  0
   -2.7590    1.9513    1.7932 H   0  0  0  0  0  0  0  0  0  0  0  0
   -1.0030    2.9932    0.6345 H   0  0  0  0  0  0  0  0  0  0  0  0
   -1.0331    1.0599   -1.5774 H   0  0  0  0  0  0  0  0  0  0  0  0
   -1.8533    0.2141    1.2282 H   0  0  0  0  0  0  0  0  0  0  0  0
  1  2  1  0
  3  4  1  0
  4  5  1  0
  5  6  1  0
  6  7  1  0
  7  8  1  0
  5  9  1  0
  8  9  1  0
  5 10  1  6
  2 11  1  6
  1 14  1  0
  9 15  1  0
 15 16  1  0
 15 17  1  0
 17 18  1  0
 18 19  1  0
 13 20  1  0
 14 20  1  0
 20 21  1  0
 19 22  1  0
 19 23  1  0
  2 24  1  0
 21 24  1  0
 24 25  1  0
 12 26  1  0
 25 26  1  0
  6 27  1  0
 26 27  1  0
  2 28  1  0
  3 28  1  0
 27 28  1  0
 29 30  1  0
 31 32  1  0
 32 33  1  0
 33 34  1  0
 34 35  1  0
 35 36  1  0
 33 37  1  0
 36 37  1  0
 33 38  1  6
 30 39  1  6
 29 42  1  0
 37 43  1  0
 43 44  1  0
 43 45  1  0
 45 46  1  0
 46 47  1  0
 41 48  1  0
 42 48  1  0
 48 49  1  0
 47 50  1  0
 47 51  1  0
 30 52  1  0
 49 52  1  0
 52 53  1  0
 40 54  1  0
 53 54  1  0
 34 55  1  0
 54 55  1  0
 30 56  1  0
 31 56  1  0
 55 56  1  0
  1 57  1  0
  1 58  1  0
  3 59  1  0
  3 60  1  0
  4 61  1  0
  4 62  1  0
  6 63  1  1
  7 64  1  0
  7 65  1  0
  8 66  1  0
  8 67  1  0
  9 68  1  1
 10 69  1  0
 10 70  1  0
 10 71  1  0
 11 72  1  0
 11 73  1  0
 11 74  1  0
 12 75  1  0
 13 76  1  0
 14 77  1  0
 14 78  1  0
 15 79  1  1
 16 80  1  0
 16 81  1  0
 16 82  1  0
 17 83  1  0
 17 84  1  0
 18 85  1  0
 18 86  1  0
 19 87  1  0
 20 88  1  6
 21 89  1  0
 21 90  1  0
 22 91  1  0
 23 92  1  0
 24 93  1  6
 25 94  1  0
 25 95  1  0
 26 96  1  1
 27 97  1  6
 28 98  1  1
 29 99  1  0
 29100  1  0
 31101  1  0
 31102  1  0
 32103  1  0
 32104  1  0
 34105  1  1
 35106  1  0
 35107  1  0
 36108  1  0
 36109  1  0
 37110  1  1
 38111  1  0
 38112  1  0
 38113  1  0
 39114  1  0
 39115  1  0
 39116  1  0
 40117  1  0
 41118  1  0
 42119  1  0
 42120  1  0
 43121  1  1
 44122  1  0
 44123  1  0
 44124  1  0
 45125  1  0
 45126  1  0
 46127  1  0
 46128  1  0
 47129  1  0
 48130  1  6
 49131  1  0
 49132  1  0
 50133  1  0
 51134  1  0
 52135  1  6
 53136  1  0
 53137  1  0
 54138  1  1
 55139  1  6
 56140  1  1
M  END
>  <PDBID>  (1) 
1IHI

>  <PDB ID>  (1) 
1IHI

>  <Generic Name>  (1) 
Ursodeoxycholic acid

>  <Brand Name>  (1) 
Actigall#Dom-ursodiol C#Mint-ursodiol#Novo-ursodiol#PHL-ursodiol C#PMS-ursodiol#PMS-ursodiol C#Pendo-ursodiol C#Urso#Urso 250#Urso DS#Urso Forte#Ursodiol#Ursodiol Tablets USP#Ursodiol Tablets, 250 mg#Ursodiol Tablets, 500 mg#Ursofalk#Cholit-ursan#Delursan#Destolit#Deursil#Litursol#Solutrat#Ursacol#Ursochol#Ursolvan

>  <DrugBank ID>  (1) 
DB01586

>  <ATC Codes>  (1) 
A05AA02

>  <Ligand ID>  (1) 
IU5,JN3

>  <Target Name>  (1) 
Aldo-keto reductase family 1 member C2

>  <UniProt ID>  (1) 
P52895

>  <PDB ID.1>  (1) 
1IHI

>  <Seq. Identity>  (1) 
100%

$$$$
