PDB_DB00410_04
     RDKit          3D

 85 86  0  0  0  0  0  0  0  0999 V2000
    1.3216   -0.0839   -1.6033 C   0  0  0  0  0  0  0  0  0  0  0  0
    0.5558   -1.2233   -2.1719 C   0  0  0  0  0  0  0  0  0  0  0  0
   -0.7376   -0.8546   -2.8392 C   0  0  0  0  0  0  0  0  0  0  0  0
   -1.6590   -0.1973   -1.8733 C   0  0  0  0  0  0  0  0  0  0  0  0
   -2.0057   -1.0637   -0.6922 C   0  0  1  0  0  0  0  0  0  0  0  0
   -2.9538   -0.2919    0.2101 C   0  0  1  0  0  0  0  0  0  0  0  0
   -4.0468   -1.2620    0.7085 C   0  0  1  0  0  0  0  0  0  0  0  0
   -4.8533   -1.7715   -0.4252 C   0  0  1  0  0  0  0  0  0  0  0  0
   -5.8951   -0.9099   -1.0152 C   0  0  0  0  0  0  0  0  0  0  0  0
   -7.0168   -0.4300   -0.1987 C   0  0  1  0  0  0  0  0  0  0  0  0
   -7.0131    0.4115    0.9667 C   0  0  2  0  0  0  0  0  0  0  0  0
   -8.3033    0.4756    1.7852 C   0  0  2  0  0  0  0  0  0  0  0  0
   -9.4667    0.9949    0.9562 C   0  0  2  0  0  0  0  0  0  0  0  0
   -9.1995    2.3793    0.4366 C   0  0  0  0  0  0  0  0  0  0  0  0
   -0.5293    0.1027   -3.9962 C   0  0  0  0  0  0  0  0  0  0  0  0
   -3.8448   -2.0534   -1.5621 C   0  0  0  0  0  0  0  0  0  0  0  0
   11.3476    0.7661    1.9026 C   0  0  0  0  0  0  0  0  0  0  0  0
   12.6830    0.4068    2.2267 O   0  0  0  0  0  0  0  0  0  0  0  0
   10.5518   -0.0584    2.7158 O   0  0  0  0  0  0  0  0  0  0  0  0
   11.1577    0.3847    0.4713 C   0  0  0  0  0  0  0  0  0  0  0  0
    9.8086    0.7245   -0.0236 C   0  0  0  0  0  0  0  0  0  0  0  0
    8.7216    0.0416    0.7247 C   0  0  0  0  0  0  0  0  0  0  0  0
    7.3980    0.4833    0.0506 C   0  0  0  0  0  0  0  0  0  0  0  0
    6.2972   -0.2204    0.8211 C   0  0  0  0  0  0  0  0  0  0  0  0
    4.9900    0.1697    0.2147 C   0  0  0  0  0  0  0  0  0  0  0  0
    3.8791   -0.5316    0.9744 C   0  0  0  0  0  0  0  0  0  0  0  0
    2.5771   -0.1144    0.3362 C   0  0  0  0  0  0  0  0  0  0  0  0
    2.5129   -0.4606   -1.0036 O   0  0  0  0  0  0  0  0  0  0  0  0
    1.5085    0.8616   -2.6057 O   0  0  0  0  0  0  0  0  0  0  0  0
   -2.5828   -2.2655   -1.0574 O   0  0  0  0  0  0  0  0  0  0  0  0
   -3.2763   -2.3749    1.1858 O   0  0  0  0  0  0  0  0  0  0  0  0
   -2.2647    0.1477    1.3085 O   0  0  0  0  0  0  0  0  0  0  0  0
   -7.1731    1.0347   -0.2983 O   0  0  0  0  0  0  0  0  0  0  0  0
   -8.0924    1.3502    3.0014 C   0  0  0  0  0  0  0  0  0  0  0  0
  -10.6671    0.8752    1.6080 O   0  0  0  0  0  0  0  0  0  0  0  0
    0.7248    0.4000   -0.8065 H   0  0  0  0  0  0  0  0  0  0  0  0
    0.2979   -2.0045   -1.4162 H   0  0  0  0  0  0  0  0  0  0  0  0
    1.2108   -1.7860   -2.9054 H   0  0  0  0  0  0  0  0  0  0  0  0
   -1.1436   -1.7907   -3.2765 H   0  0  0  0  0  0  0  0  0  0  0  0
   -2.5566    0.2525   -2.3594 H   0  0  0  0  0  0  0  0  0  0  0  0
   -1.1259    0.7042   -1.4459 H   0  0  0  0  0  0  0  0  0  0  0  0
   -1.0832   -1.3040   -0.0932 H   0  0  0  0  0  0  0  0  0  0  0  0
   -3.4574    0.5156   -0.3205 H   0  0  0  0  0  0  0  0  0  0  0  0
   -4.5374   -0.8185    1.5517 H   0  0  0  0  0  0  0  0  0  0  0  0
   -5.2651   -2.8047   -0.2003 H   0  0  0  0  0  0  0  0  0  0  0  0
   -5.3928   -0.0100   -1.5150 H   0  0  0  0  0  0  0  0  0  0  0  0
   -6.3134   -1.4587   -1.9330 H   0  0  0  0  0  0  0  0  0  0  0  0
   -8.0071   -0.9491   -0.4246 H   0  0  0  0  0  0  0  0  0  0  0  0
   -6.1200    0.7472    1.5261 H   0  0  0  0  0  0  0  0  0  0  0  0
   -8.5515   -0.5425    2.1358 H   0  0  0  0  0  0  0  0  0  0  0  0
   -9.5251    0.3145    0.0574 H   0  0  0  0  0  0  0  0  0  0  0  0
   -8.2518    2.7819    0.8843 H   0  0  0  0  0  0  0  0  0  0  0  0
  -10.0645    3.0479    0.6639 H   0  0  0  0  0  0  0  0  0  0  0  0
   -9.0468    2.3846   -0.6606 H   0  0  0  0  0  0  0  0  0  0  0  0
    0.3831   -0.1141   -4.5618 H   0  0  0  0  0  0  0  0  0  0  0  0
   -0.6115    1.1525   -3.6458 H   0  0  0  0  0  0  0  0  0  0  0  0
   -1.3910   -0.0390   -4.6997 H   0  0  0  0  0  0  0  0  0  0  0  0
   -3.9213   -1.1827   -2.2401 H   0  0  0  0  0  0  0  0  0  0  0  0
   -4.1875   -2.9378   -2.1504 H   0  0  0  0  0  0  0  0  0  0  0  0
   11.2098    1.8365    2.1026 H   0  0  0  0  0  0  0  0  0  0  0  0
   13.0225   -0.2788    1.6133 H   0  0  0  0  0  0  0  0  0  0  0  0
   10.8181    0.1310    3.6386 H   0  0  0  0  0  0  0  0  0  0  0  0
   11.3640   -0.7027    0.2938 H   0  0  0  0  0  0  0  0  0  0  0  0
   11.8963    0.9396   -0.1849 H   0  0  0  0  0  0  0  0  0  0  0  0
    9.7030    0.4315   -1.0962 H   0  0  0  0  0  0  0  0  0  0  0  0
    9.6412    1.8352    0.0794 H   0  0  0  0  0  0  0  0  0  0  0  0
    8.7317   -1.0506    0.6829 H   0  0  0  0  0  0  0  0  0  0  0  0
    8.5850    0.3856    1.7755 H   0  0  0  0  0  0  0  0  0  0  0  0
    7.2510    1.5669    0.1345 H   0  0  0  0  0  0  0  0  0  0  0  0
    7.4285    0.1517   -1.0013 H   0  0  0  0  0  0  0  0  0  0  0  0
    6.3808   -0.0823    1.8972 H   0  0  0  0  0  0  0  0  0  0  0  0
    6.4367   -1.3174    0.6231 H   0  0  0  0  0  0  0  0  0  0  0  0
    4.8259    1.2459    0.1423 H   0  0  0  0  0  0  0  0  0  0  0  0
    4.9527   -0.2390   -0.8219 H   0  0  0  0  0  0  0  0  0  0  0  0
    4.0187   -1.6156    1.0129 H   0  0  0  0  0  0  0  0  0  0  0  0
    3.8780   -0.1114    2.0027 H   0  0  0  0  0  0  0  0  0  0  0  0
    1.7594   -0.4834    0.9497 H   0  0  0  0  0  0  0  0  0  0  0  0
    2.5489    1.0033    0.3694 H   0  0  0  0  0  0  0  0  0  0  0  0
    1.3611    1.7812   -2.3193 H   0  0  0  0  0  0  0  0  0  0  0  0
   -3.6206   -2.6966    2.0366 H   0  0  0  0  0  0  0  0  0  0  0  0
   -2.7471    0.8415    1.8273 H   0  0  0  0  0  0  0  0  0  0  0  0
   -7.0024    1.5113    3.1644 H   0  0  0  0  0  0  0  0  0  0  0  0
   -8.4965    0.8533    3.9027 H   0  0  0  0  0  0  0  0  0  0  0  0
   -8.5815    2.3389    2.9060 H   0  0  0  0  0  0  0  0  0  0  0  0
  -11.1575    1.7229    1.5140 H   0  0  0  0  0  0  0  0  0  0  0  0
  1  2  1  0
  2  3  1  0
  3  4  1  0
  4  5  1  0
  5  6  1  0
  6  7  1  0
  7  8  1  0
  8  9  1  0
  9 10  1  0
 10 11  1  0
 11 12  1  0
 12 13  1  0
 13 14  1  0
  3 15  1  0
  8 16  1  0
 17 18  1  0
 17 19  1  0
 17 20  1  0
 20 21  1  0
 21 22  1  0
 22 23  1  0
 23 24  1  0
 24 25  1  0
 25 26  1  0
 26 27  1  0
  1 28  1  0
 27 28  1  0
  1 29  1  0
  5 30  1  0
 16 30  1  0
  7 31  1  0
  6 32  1  0
 10 33  1  0
 11 33  1  0
 12 34  1  0
 13 35  1  0
  1 36  1  0
  2 37  1  0
  2 38  1  0
  3 39  1  0
  4 40  1  0
  4 41  1  0
  5 42  1  1
  6 43  1  6
  7 44  1  1
  8 45  1  1
  9 46  1  0
  9 47  1  0
 10 48  1  1
 11 49  1  1
 12 50  1  1
 13 51  1  6
 14 52  1  0
 14 53  1  0
 14 54  1  0
 15 55  1  0
 15 56  1  0
 15 57  1  0
 16 58  1  0
 16 59  1  0
 17 60  1  0
 18 61  1  0
 19 62  1  0
 20 63  1  0
 20 64  1  0
 21 65  1  0
 21 66  1  0
 22 67  1  0
 22 68  1  0
 23 69  1  0
 23 70  1  0
 24 71  1  0
 24 72  1  0
 25 73  1  0
 25 74  1  0
 26 75  1  0
 26 76  1  0
 27 77  1  0
 27 78  1  0
 29 79  1  0
 31 80  1  0
 32 81  1  0
 34 82  1  0
 34 83  1  0
 34 84  1  0
 35 85  1  0
M  END
>  <PDBID>  (1) 
1FFY

>  <PDB ID>  (1) 
1FFY

>  <Generic Name>  (1) 
Mupirocin

>  <Brand Name>  (1) 
Bactroban#Bactroban Cream#Bactroban Nasal Ointment#Centany#Centany At#Mupirocin#Mupirocin 2%#Mupirocin Calcium#Taro-mupirocin#Bactroban Nasal#Plasimine#Spectroderm#T-Bact#Turixin

>  <DrugBank ID>  (1) 
DB00410

>  <ATC Codes>  (1) 
R01AX06#D06AX09

>  <Ligand ID>  (1) 
MRC

>  <Target Name>  (1) 
Isoleucine--tRNA ligase

>  <UniProt ID>  (1) 
P41972

>  <PDB ID.1>  (1) 
1FFY

>  <Seq. Identity>  (1) 
95%

$$$$
