PDB_DB04868_03
     RDKit          3D

 91 95  0  0  0  0  0  0  0  0999 V2000
   -1.5408   -0.8559    2.3488 O   0  0  0  0  0  0  0  0  0  0  0  0
   -1.6873   -1.1595    0.9635 C   0  0  1  0  0  0  0  0  0  0  0  0
   -2.2450   -0.0534    0.2625 N   0  0  0  0  0  0  0  0  0  0  0  0
   -3.5452   -0.2360   -0.3155 C   0  0  2  0  0  0  0  0  0  0  0  0
   -4.5689   -0.5072    0.7398 C   0  0  0  0  0  0  0  0  0  0  0  0
   -5.8866   -0.9889    0.2298 C   0  0  0  0  0  0  0  0  0  0  0  0
   -6.8696    0.1027    0.1053 N   0  0  0  0  0  0  0  0  0  0  0  0
   -7.1408    0.6834    1.4067 C   0  0  0  0  0  0  0  0  0  0  0  0
   -8.5700    1.1799    1.2709 C   0  0  0  0  0  0  0  0  0  0  0  0
   -8.5225    2.4463    0.4303 C   0  0  0  0  0  0  0  0  0  0  0  0
   -9.1725    0.1077    0.5129 N   0  0  0  0  0  0  0  0  0  0  0  0
   -8.1267   -0.5188   -0.2602 C   0  0  0  0  0  0  0  0  0  0  0  0
   -5.8542   -1.7295   -1.0456 C   0  0  0  0  0  0  0  0  0  0  0  0
   -3.5177   -1.2017   -1.4288 C   0  0  0  0  0  0  0  0  0  0  0  0
   -4.8631   -1.2996   -2.0652 C   0  0  0  0  0  0  0  0  0  0  0  0
   -5.2940   -0.1230   -2.8748 C   0  0  0  0  0  0  0  0  0  0  0  0
   -5.5497    1.0172   -2.1836 F   0  0  0  0  0  0  0  0  0  0  0  0
   -6.5019   -0.4897   -3.4832 F   0  0  0  0  0  0  0  0  0  0  0  0
   -4.4054    0.0731   -3.9036 F   0  0  0  0  0  0  0  0  0  0  0  0
   -0.2340   -1.3378    0.5040 C   0  0  1  0  0  0  0  0  0  0  0  0
   -0.0688   -1.6868   -0.9228 C   0  0  0  0  0  0  0  0  0  0  0  0
    0.0708   -0.4130   -1.7628 C   0  0  0  0  0  0  0  0  0  0  0  0
    1.4260    0.2294   -1.5028 C   0  0  0  0  0  0  0  0  0  0  0  0
    2.4474   -0.5761   -2.2815 C   0  0  0  0  0  0  0  0  0  0  0  0
    1.7147    0.1004   -0.0375 C   0  0  2  0  0  0  0  0  0  0  0  0
    0.4011    0.0331    0.7139 C   0  0  0  0  0  0  0  0  0  0  0  0
    2.4453    1.1842    0.5251 N   0  0  0  0  0  0  0  0  0  0  0  0
    3.7461    1.4586    0.0607 C   0  0  0  0  0  0  0  0  0  0  0  0
    4.1791    2.6621    0.7958 N   0  0  0  0  0  0  0  0  0  0  0  0
    5.4405    3.1628    0.3833 C   0  0  0  0  0  0  0  0  0  0  0  0
    6.1064    2.2092   -0.5532 C   0  0  0  0  0  0  0  0  0  0  0  0
    6.0542    0.7895   -0.0762 C   0  0  0  0  0  0  0  0  0  0  0  0
    4.7377    0.4516    0.4142 N   0  0  0  0  0  0  0  0  0  0  0  0
    7.1493    0.4418    0.8821 C   0  0  0  0  0  0  0  0  0  0  0  0
    8.5148    0.6042    0.3065 C   0  0  0  0  0  0  0  0  0  0  0  0
    8.8062   -0.4771   -0.7167 C   0  0  0  0  0  0  0  0  0  0  0  0
    8.9402   -1.7784    0.0437 C   0  0  0  0  0  0  0  0  0  0  0  0
    8.2683   -1.7106    1.3015 N   0  0  0  0  0  0  0  0  0  0  0  0
    6.9939   -1.0233    1.2719 C   0  0  0  0  0  0  0  0  0  0  0  0
   -2.1849   -1.3802    2.8806 H   0  0  0  0  0  0  0  0  0  0  0  0
   -2.2429   -2.0959    0.9132 H   0  0  0  0  0  0  0  0  0  0  0  0
   -2.2589    0.7791    0.9063 H   0  0  0  0  0  0  0  0  0  0  0  0
   -3.7871    0.7720   -0.7772 H   0  0  0  0  0  0  0  0  0  0  0  0
   -4.7447    0.4352    1.2951 H   0  0  0  0  0  0  0  0  0  0  0  0
   -4.1303   -1.2168    1.4689 H   0  0  0  0  0  0  0  0  0  0  0  0
   -6.3301   -1.6598    1.0114 H   0  0  0  0  0  0  0  0  0  0  0  0
   -6.5183    1.5767    1.6195 H   0  0  0  0  0  0  0  0  0  0  0  0
   -7.0563   -0.0845    2.2155 H   0  0  0  0  0  0  0  0  0  0  0  0
   -9.0491    1.3322    2.2490 H   0  0  0  0  0  0  0  0  0  0  0  0
   -9.5437    2.8162    0.2047 H   0  0  0  0  0  0  0  0  0  0  0  0
   -8.0265    2.1759   -0.5165 H   0  0  0  0  0  0  0  0  0  0  0  0
   -7.9253    3.2303    0.9164 H   0  0  0  0  0  0  0  0  0  0  0  0
   -9.9345    0.5174   -0.0621 H   0  0  0  0  0  0  0  0  0  0  0  0
   -8.3737   -0.3574   -1.3280 H   0  0  0  0  0  0  0  0  0  0  0  0
   -8.1419   -1.6051    0.0250 H   0  0  0  0  0  0  0  0  0  0  0  0
   -5.6634   -2.8225   -0.8362 H   0  0  0  0  0  0  0  0  0  0  0  0
   -6.8570   -1.7106   -1.5424 H   0  0  0  0  0  0  0  0  0  0  0  0
   -3.2515   -2.2479   -1.1083 H   0  0  0  0  0  0  0  0  0  0  0  0
   -2.7665   -0.9024   -2.1747 H   0  0  0  0  0  0  0  0  0  0  0  0
   -4.7903   -2.1616   -2.8045 H   0  0  0  0  0  0  0  0  0  0  0  0
    0.2900   -2.0651    1.1757 H   0  0  0  0  0  0  0  0  0  0  0  0
   -0.8855   -2.2725   -1.3357 H   0  0  0  0  0  0  0  0  0  0  0  0
    0.8753   -2.2791   -1.0192 H   0  0  0  0  0  0  0  0  0  0  0  0
   -0.0211   -0.7606   -2.8288 H   0  0  0  0  0  0  0  0  0  0  0  0
   -0.7611    0.2589   -1.5688 H   0  0  0  0  0  0  0  0  0  0  0  0
    1.3526    1.2656   -1.8593 H   0  0  0  0  0  0  0  0  0  0  0  0
    1.9548   -1.2416   -3.0444 H   0  0  0  0  0  0  0  0  0  0  0  0
    3.0108   -1.2852   -1.6147 H   0  0  0  0  0  0  0  0  0  0  0  0
    3.1264    0.0769   -2.8668 H   0  0  0  0  0  0  0  0  0  0  0  0
    2.2515   -0.8488    0.1350 H   0  0  0  0  0  0  0  0  0  0  0  0
   -0.2923    0.8416    0.3859 H   0  0  0  0  0  0  0  0  0  0  0  0
    0.6180    0.2019    1.7790 H   0  0  0  0  0  0  0  0  0  0  0  0
    2.4101    1.2152    1.5632 H   0  0  0  0  0  0  0  0  0  0  0  0
    3.7996    1.7581   -1.0122 H   0  0  0  0  0  0  0  0  0  0  0  0
    3.9860    2.6137    1.7977 H   0  0  0  0  0  0  0  0  0  0  0  0
    5.3569    4.1766   -0.0497 H   0  0  0  0  0  0  0  0  0  0  0  0
    6.0766    3.2593    1.2997 H   0  0  0  0  0  0  0  0  0  0  0  0
    5.6585    2.2506   -1.5733 H   0  0  0  0  0  0  0  0  0  0  0  0
    7.1513    2.5589   -0.6982 H   0  0  0  0  0  0  0  0  0  0  0  0
    6.1996    0.1452   -0.9879 H   0  0  0  0  0  0  0  0  0  0  0  0
    4.7319    0.4072    1.4656 H   0  0  0  0  0  0  0  0  0  0  0  0
    7.1132    1.0438    1.8159 H   0  0  0  0  0  0  0  0  0  0  0  0
    8.7905    1.5959   -0.0414 H   0  0  0  0  0  0  0  0  0  0  0  0
    9.2357    0.3842    1.1538 H   0  0  0  0  0  0  0  0  0  0  0  0
    9.7590   -0.2168   -1.2422 H   0  0  0  0  0  0  0  0  0  0  0  0
    8.0263   -0.5956   -1.4695 H   0  0  0  0  0  0  0  0  0  0  0  0
    8.6351   -2.6494   -0.5795 H   0  0  0  0  0  0  0  0  0  0  0  0
   10.0336   -1.9176    0.2726 H   0  0  0  0  0  0  0  0  0  0  0  0
    8.8899   -1.4040    2.0700 H   0  0  0  0  0  0  0  0  0  0  0  0
    6.3378   -1.5739    0.5677 H   0  0  0  0  0  0  0  0  0  0  0  0
    6.5887   -1.1046    2.3178 H   0  0  0  0  0  0  0  0  0  0  0  0
  1  2  1  0
  2  3  1  0
  3  4  1  0
  4  5  1  0
  5  6  1  0
  6  7  1  0
  7  8  1  0
  8  9  1  0
  9 10  1  0
  9 11  1  0
  7 12  1  0
 11 12  1  0
  6 13  1  0
  4 14  1  0
 13 15  1  0
 14 15  1  0
 15 16  1  0
 16 17  1  0
 16 18  1  0
 16 19  1  0
  2 20  1  0
 20 21  1  0
 21 22  1  0
 22 23  1  0
 23 24  1  0
 23 25  1  0
 20 26  1  0
 25 26  1  0
 25 27  1  0
 27 28  1  0
 28 29  1  0
 29 30  1  0
 30 31  1  0
 31 32  1  0
 28 33  1  0
 32 33  1  0
 32 34  1  0
 34 35  1  0
 35 36  1  0
 36 37  1  0
 37 38  1  0
 34 39  1  0
 38 39  1  0
  1 40  1  0
  2 41  1  1
  3 42  1  0
  4 43  1  6
  5 44  1  0
  5 45  1  0
  6 46  1  0
  8 47  1  0
  8 48  1  0
  9 49  1  0
 10 50  1  0
 10 51  1  0
 10 52  1  0
 11 53  1  0
 12 54  1  0
 12 55  1  0
 13 56  1  0
 13 57  1  0
 14 58  1  0
 14 59  1  0
 15 60  1  0
 20 61  1  1
 21 62  1  0
 21 63  1  0
 22 64  1  0
 22 65  1  0
 23 66  1  0
 24 67  1  0
 24 68  1  0
 24 69  1  0
 25 70  1  6
 26 71  1  0
 26 72  1  0
 27 73  1  0
 28 74  1  0
 29 75  1  0
 30 76  1  0
 30 77  1  0
 31 78  1  0
 31 79  1  0
 32 80  1  0
 33 81  1  0
 34 82  1  0
 35 83  1  0
 35 84  1  0
 36 85  1  0
 36 86  1  0
 37 87  1  0
 37 88  1  0
 38 89  1  0
 39 90  1  0
 39 91  1  0
M  END
>  <PDBID>  (1) 
5MO4

>  <PDB ID>  (1) 
5MO4

>  <Generic Name>  (1) 
Nilotinib

>  <Brand Name>  (1) 
Tasigna

>  <DrugBank ID>  (1) 
DB04868

>  <ATC Codes>  (1) 
L01XE08

>  <Ligand ID>  (1) 
NIL

>  <Target Name>  (1) 
Tyrosine-protein kinase ABL1

>  <UniProt ID>  (1) 
P00519

>  <PDB ID.1>  (1) 
5MO4

>  <Seq. Identity>  (1) 
97%

$$$$
