PDB_DB08895_07
     RDKit          3D

114118  0  0  0  0  0  0  0  0999 V2000
   -0.3367   -0.9709    0.4586 C   0  0  1  0  0  0  0  0  0  0  0  0
   -1.2275   -0.3622   -0.6022 C   0  0  0  0  0  0  0  0  0  0  0  0
   -2.8150   -1.8132    0.5113 C   0  0  0  0  0  0  0  0  0  0  0  0
   -1.8384   -2.8909    0.1646 C   0  0  0  0  0  0  0  0  0  0  0  0
   -0.4186   -2.4937    0.4636 C   0  0  1  0  0  0  0  0  0  0  0  0
   -2.5968   -0.7012   -0.3949 N   0  0  0  0  0  0  0  0  0  0  0  0
   -3.0752    0.9728    1.1067 O   0  0  0  0  0  0  0  0  0  0  0  0
   -3.4976    0.3532   -0.0887 C   0  0  0  0  0  0  0  0  0  0  0  0
   -3.6370    1.3995   -1.1828 C   0  0  0  0  0  0  0  0  0  0  0  0
   -4.7258    2.3625   -0.6874 C   0  0  0  0  0  0  0  0  0  0  0  0
   -4.2752    2.8326    0.6084 N   0  0  0  0  0  0  0  0  0  0  0  0
    0.4546   -3.1495   -0.5660 C   0  0  0  0  0  0  0  0  0  0  0  0
    1.0171   -0.5337    0.4522 N   0  0  0  0  0  0  0  0  0  0  0  0
    1.6669   -0.9379    1.6250 C   0  0  0  0  0  0  0  0  0  0  0  0
    1.6146    0.0083   -0.6425 C   0  0  0  0  0  0  0  0  0  0  0  0
    2.3345    1.3166   -0.5643 C   0  0  0  0  0  0  0  0  0  0  0  0
    2.1893    2.0506    0.7218 C   0  0  0  0  0  0  0  0  0  0  0  0
    3.6225    2.2460    1.1749 C   0  0  0  0  0  0  0  0  0  0  0  0
    4.4033    2.2460   -0.0505 N   0  0  0  0  0  0  0  0  0  0  0  0
    3.8240    1.1864   -0.8458 C   0  0  0  0  0  0  0  0  0  0  0  0
    4.4110   -0.0568   -0.5278 N   0  0  0  0  0  0  0  0  0  0  0  0
    3.6664   -1.2310   -0.8366 C   0  0  0  0  0  0  0  0  0  0  0  0
    2.4254   -0.8865   -1.4856 N   0  0  0  0  0  0  0  0  0  0  0  0
   -0.3367   -0.9709    0.4586 C   0  0  1  0  0  0  0  0  0  0  0  0
   -1.2275   -0.3622   -0.6022 C   0  0  0  0  0  0  0  0  0  0  0  0
   -2.8150   -1.8132    0.5113 C   0  0  0  0  0  0  0  0  0  0  0  0
   -1.8384   -2.8909    0.1646 C   0  0  0  0  0  0  0  0  0  0  0  0
   -0.4186   -2.4937    0.4636 C   0  0  1  0  0  0  0  0  0  0  0  0
   -2.5968   -0.7012   -0.3949 N   0  0  0  0  0  0  0  0  0  0  0  0
   -3.0752    0.9728    1.1067 O   0  0  0  0  0  0  0  0  0  0  0  0
   -3.4976    0.3532   -0.0887 C   0  0  0  0  0  0  0  0  0  0  0  0
   -3.6370    1.3995   -1.1828 C   0  0  0  0  0  0  0  0  0  0  0  0
   -4.7258    2.3625   -0.6874 C   0  0  0  0  0  0  0  0  0  0  0  0
   -4.2752    2.8326    0.6084 N   0  0  0  0  0  0  0  0  0  0  0  0
    0.4546   -3.1495   -0.5660 C   0  0  0  0  0  0  0  0  0  0  0  0
    1.0171   -0.5337    0.4522 N   0  0  0  0  0  0  0  0  0  0  0  0
    1.6669   -0.9379    1.6250 C   0  0  0  0  0  0  0  0  0  0  0  0
    1.6146    0.0083   -0.6425 C   0  0  0  0  0  0  0  0  0  0  0  0
    2.3345    1.3166   -0.5643 C   0  0  0  0  0  0  0  0  0  0  0  0
    2.1893    2.0506    0.7218 C   0  0  0  0  0  0  0  0  0  0  0  0
    3.6225    2.2460    1.1749 C   0  0  0  0  0  0  0  0  0  0  0  0
    4.4033    2.2460   -0.0505 N   0  0  0  0  0  0  0  0  0  0  0  0
    3.8240    1.1864   -0.8458 C   0  0  0  0  0  0  0  0  0  0  0  0
    4.4110   -0.0568   -0.5278 N   0  0  0  0  0  0  0  0  0  0  0  0
    3.6664   -1.2310   -0.8366 C   0  0  0  0  0  0  0  0  0  0  0  0
    2.4254   -0.8865   -1.4856 N   0  0  0  0  0  0  0  0  0  0  0  0
   -0.7726   -0.6534    1.4304 H   0  0  0  0  0  0  0  0  0  0  0  0
   -0.9770   -0.7527   -1.6221 H   0  0  0  0  0  0  0  0  0  0  0  0
   -1.1372    0.7343   -0.5390 H   0  0  0  0  0  0  0  0  0  0  0  0
   -2.7528   -1.4586    1.5516 H   0  0  0  0  0  0  0  0  0  0  0  0
   -3.8304   -2.1897    0.3075 H   0  0  0  0  0  0  0  0  0  0  0  0
   -1.9334   -3.0697   -0.9380 H   0  0  0  0  0  0  0  0  0  0  0  0
   -2.1046   -3.8618    0.6576 H   0  0  0  0  0  0  0  0  0  0  0  0
   -0.1078   -2.8684    1.4539 H   0  0  0  0  0  0  0  0  0  0  0  0
   -3.4444    0.4523    1.8550 H   0  0  0  0  0  0  0  0  0  0  0  0
   -4.5113   -0.0746    0.0413 H   0  0  0  0  0  0  0  0  0  0  0  0
   -2.7020    1.9794   -1.3059 H   0  0  0  0  0  0  0  0  0  0  0  0
   -3.9950    0.9060   -2.0755 H   0  0  0  0  0  0  0  0  0  0  0  0
   -4.8928    3.1891   -1.3955 H   0  0  0  0  0  0  0  0  0  0  0  0
   -5.6270    1.7437   -0.5582 H   0  0  0  0  0  0  0  0  0  0  0  0
   -4.9843    2.5982    1.3513 H   0  0  0  0  0  0  0  0  0  0  0  0
   -4.0111    3.8283    0.5832 H   0  0  0  0  0  0  0  0  0  0  0  0
    0.0547   -4.2069   -0.6574 H   0  0  0  0  0  0  0  0  0  0  0  0
    0.3075   -2.7287   -1.5897 H   0  0  0  0  0  0  0  0  0  0  0  0
    1.5085   -3.2763   -0.2849 H   0  0  0  0  0  0  0  0  0  0  0  0
    2.6705   -0.5401    1.8373 H   0  0  0  0  0  0  0  0  0  0  0  0
    1.0330   -0.6142    2.4839 H   0  0  0  0  0  0  0  0  0  0  0  0
    1.7332   -2.0524    1.7669 H   0  0  0  0  0  0  0  0  0  0  0  0
    0.7538    0.2226   -1.3740 H   0  0  0  0  0  0  0  0  0  0  0  0
    1.9879    2.0424   -1.3648 H   0  0  0  0  0  0  0  0  0  0  0  0
    1.5517    1.5698    1.4700 H   0  0  0  0  0  0  0  0  0  0  0  0
    1.7878    3.1009    0.6013 H   0  0  0  0  0  0  0  0  0  0  0  0
    3.9695    1.4456    1.8304 H   0  0  0  0  0  0  0  0  0  0  0  0
    3.7846    3.2340    1.6393 H   0  0  0  0  0  0  0  0  0  0  0  0
    4.3068    3.1406   -0.5681 H   0  0  0  0  0  0  0  0  0  0  0  0
    4.0395    1.3829   -1.9378 H   0  0  0  0  0  0  0  0  0  0  0  0
    4.7218   -0.1256    0.4668 H   0  0  0  0  0  0  0  0  0  0  0  0
    3.4821   -1.9179   -0.0014 H   0  0  0  0  0  0  0  0  0  0  0  0
    4.2421   -1.8068   -1.5977 H   0  0  0  0  0  0  0  0  0  0  0  0
    2.6627   -0.3191   -2.3298 H   0  0  0  0  0  0  0  0  0  0  0  0
   -0.7726   -0.6534    1.4304 H   0  0  0  0  0  0  0  0  0  0  0  0
   -0.9770   -0.7527   -1.6221 H   0  0  0  0  0  0  0  0  0  0  0  0
   -1.1372    0.7343   -0.5390 H   0  0  0  0  0  0  0  0  0  0  0  0
   -2.7528   -1.4586    1.5516 H   0  0  0  0  0  0  0  0  0  0  0  0
   -3.8304   -2.1897    0.3075 H   0  0  0  0  0  0  0  0  0  0  0  0
   -1.9334   -3.0697   -0.9380 H   0  0  0  0  0  0  0  0  0  0  0  0
   -2.1046   -3.8618    0.6576 H   0  0  0  0  0  0  0  0  0  0  0  0
   -0.1078   -2.8684    1.4539 H   0  0  0  0  0  0  0  0  0  0  0  0
   -3.4444    0.4523    1.8550 H   0  0  0  0  0  0  0  0  0  0  0  0
   -4.5113   -0.0746    0.0413 H   0  0  0  0  0  0  0  0  0  0  0  0
   -2.7020    1.9794   -1.3059 H   0  0  0  0  0  0  0  0  0  0  0  0
   -3.9950    0.9060   -2.0755 H   0  0  0  0  0  0  0  0  0  0  0  0
   -4.8928    3.1891   -1.3955 H   0  0  0  0  0  0  0  0  0  0  0  0
   -5.6270    1.7437   -0.5582 H   0  0  0  0  0  0  0  0  0  0  0  0
   -4.9843    2.5982    1.3513 H   0  0  0  0  0  0  0  0  0  0  0  0
   -4.0111    3.8283    0.5832 H   0  0  0  0  0  0  0  0  0  0  0  0
    0.0547   -4.2069   -0.6574 H   0  0  0  0  0  0  0  0  0  0  0  0
    0.3075   -2.7287   -1.5897 H   0  0  0  0  0  0  0  0  0  0  0  0
    1.5085   -3.2763   -0.2849 H   0  0  0  0  0  0  0  0  0  0  0  0
    2.6705   -0.5401    1.8373 H   0  0  0  0  0  0  0  0  0  0  0  0
    1.0330   -0.6142    2.4839 H   0  0  0  0  0  0  0  0  0  0  0  0
    1.7332   -2.0524    1.7669 H   0  0  0  0  0  0  0  0  0  0  0  0
    0.7538    0.2226   -1.3740 H   0  0  0  0  0  0  0  0  0  0  0  0
    1.9879    2.0424   -1.3648 H   0  0  0  0  0  0  0  0  0  0  0  0
    1.5517    1.5698    1.4700 H   0  0  0  0  0  0  0  0  0  0  0  0
    1.7878    3.1009    0.6013 H   0  0  0  0  0  0  0  0  0  0  0  0
    3.9695    1.4456    1.8304 H   0  0  0  0  0  0  0  0  0  0  0  0
    3.7846    3.2340    1.6393 H   0  0  0  0  0  0  0  0  0  0  0  0
    4.3068    3.1406   -0.5681 H   0  0  0  0  0  0  0  0  0  0  0  0
    4.0395    1.3829   -1.9378 H   0  0  0  0  0  0  0  0  0  0  0  0
    4.7218   -0.1256    0.4668 H   0  0  0  0  0  0  0  0  0  0  0  0
    3.4821   -1.9179   -0.0014 H   0  0  0  0  0  0  0  0  0  0  0  0
    4.2421   -1.8068   -1.5977 H   0  0  0  0  0  0  0  0  0  0  0  0
    2.6627   -0.3191   -2.3298 H   0  0  0  0  0  0  0  0  0  0  0  0
  1  2  1  0
  3  4  1  0
  1  5  1  0
  4  5  1  0
  2  6  1  0
  3  6  1  0
  6  8  1  0
  7  8  1  0
  8  9  1  0
  9 10  1  0
 10 11  1  0
  5 12  1  0
  1 13  1  0
 13 14  1  0
 13 15  1  0
 15 16  1  0
 16 17  1  0
 17 18  1  0
 18 19  1  0
 16 20  1  0
 19 20  1  0
 20 21  1  0
 21 22  1  0
 15 23  1  0
 22 23  1  0
 24 25  1  0
 26 27  1  0
 24 28  1  0
 27 28  1  0
 25 29  1  0
 26 29  1  0
 29 31  1  0
 30 31  1  0
 31 32  1  0
 32 33  1  0
 33 34  1  0
 28 35  1  0
 24 36  1  0
 36 37  1  0
 36 38  1  0
 38 39  1  0
 39 40  1  0
 40 41  1  0
 41 42  1  0
 39 43  1  0
 42 43  1  0
 43 44  1  0
 44 45  1  0
 38 46  1  0
 45 46  1  0
  1 47  1  1
  2 48  1  0
  2 49  1  0
  3 50  1  0
  3 51  1  0
  4 52  1  0
  4 53  1  0
  5 54  1  1
  7 55  1  0
  8 56  1  0
  9 57  1  0
  9 58  1  0
 10 59  1  0
 10 60  1  0
 11 61  1  0
 11 62  1  0
 12 63  1  0
 12 64  1  0
 12 65  1  0
 14 66  1  0
 14 67  1  0
 14 68  1  0
 15 69  1  0
 16 70  1  0
 17 71  1  0
 17 72  1  0
 18 73  1  0
 18 74  1  0
 19 75  1  0
 20 76  1  0
 21 77  1  0
 22 78  1  0
 22 79  1  0
 23 80  1  0
 24 81  1  1
 25 82  1  0
 25 83  1  0
 26 84  1  0
 26 85  1  0
 27 86  1  0
 27 87  1  0
 28 88  1  1
 30 89  1  0
 31 90  1  0
 32 91  1  0
 32 92  1  0
 33 93  1  0
 33 94  1  0
 34 95  1  0
 34 96  1  0
 35 97  1  0
 35 98  1  0
 35 99  1  0
 37100  1  0
 37101  1  0
 37102  1  0
 38103  1  0
 39104  1  0
 40105  1  0
 40106  1  0
 41107  1  0
 41108  1  0
 42109  1  0
 43110  1  0
 44111  1  0
 45112  1  0
 45113  1  0
 46114  1  0
M  END
>  <PDBID>  (1) 
3FUP

>  <PDB ID>  (1) 
3FUP

>  <Generic Name>  (1) 
Tofacitinib

>  <Brand Name>  (1) 
Xeljanz#Xeljanz XR

>  <DrugBank ID>  (1) 
DB08895

>  <ATC Codes>  (1) 
L04AA29

>  <Ligand ID>  (1) 
MI1

>  <Target Name>  (1) 
Tyrosine-protein kinase JAK2

>  <UniProt ID>  (1) 
O60674

>  <PDB ID.1>  (1) 
3FUP

>  <Seq. Identity>  (1) 
100%

$$$$
