PDB_DB00184_07
     RDKit          3D

 64 66  0  0  0  0  0  0  0  0999 V2000
    2.4853    0.6481    1.3155 N   0  0  0  0  0  0  0  0  0  0  0  0
    1.0644    0.6970    1.1285 C   0  0  0  0  0  0  0  0  0  0  0  0
    0.6823    0.4960   -0.3080 C   0  0  0  0  0  0  0  0  0  0  0  0
    1.3495   -0.7428   -0.9052 C   0  0  0  0  0  0  0  0  0  0  0  0
    2.7967   -0.8406   -0.5153 C   0  0  0  0  0  0  0  0  0  0  0  0
    3.2270    0.4532    0.0932 C   0  0  0  0  0  0  0  0  0  0  0  0
   -1.3239   -0.7732    0.1751 N   0  0  0  0  0  0  0  0  0  0  0  0
   -0.7752    0.3551   -0.5360 C   0  0  1  0  0  0  0  0  0  0  0  0
   -1.6013    1.5547   -0.2331 C   0  0  0  0  0  0  0  0  0  0  0  0
   -2.8803    0.9092    0.3195 C   0  0  0  0  0  0  0  0  0  0  0  0
   -2.2741   -0.2457    1.1035 C   0  0  0  0  0  0  0  0  0  0  0  0
   -1.8860   -1.7781   -0.7035 C   0  0  0  0  0  0  0  0  0  0  0  0
    2.4853    0.6481    1.3155 N   0  0  0  0  0  0  0  0  0  0  0  0
    1.0644    0.6970    1.1285 C   0  0  0  0  0  0  0  0  0  0  0  0
    0.6823    0.4960   -0.3080 C   0  0  0  0  0  0  0  0  0  0  0  0
    1.3495   -0.7428   -0.9052 C   0  0  0  0  0  0  0  0  0  0  0  0
    2.7967   -0.8406   -0.5153 C   0  0  0  0  0  0  0  0  0  0  0  0
    3.2270    0.4532    0.0932 C   0  0  0  0  0  0  0  0  0  0  0  0
   -1.3239   -0.7732    0.1751 N   0  0  0  0  0  0  0  0  0  0  0  0
   -0.7752    0.3551   -0.5360 C   0  0  1  0  0  0  0  0  0  0  0  0
   -1.6013    1.5547   -0.2331 C   0  0  0  0  0  0  0  0  0  0  0  0
   -2.8803    0.9092    0.3195 C   0  0  0  0  0  0  0  0  0  0  0  0
   -2.2741   -0.2457    1.1035 C   0  0  0  0  0  0  0  0  0  0  0  0
   -1.8860   -1.7781   -0.7035 C   0  0  0  0  0  0  0  0  0  0  0  0
    2.7942   -0.0798    1.9915 H   0  0  0  0  0  0  0  0  0  0  0  0
    0.7233    1.7115    1.4217 H   0  0  0  0  0  0  0  0  0  0  0  0
    0.6252   -0.0886    1.7977 H   0  0  0  0  0  0  0  0  0  0  0  0
    1.0894    1.3558   -0.8796 H   0  0  0  0  0  0  0  0  0  0  0  0
    0.8207   -1.6534   -0.5637 H   0  0  0  0  0  0  0  0  0  0  0  0
    1.2189   -0.6772   -2.0008 H   0  0  0  0  0  0  0  0  0  0  0  0
    3.3977   -1.1241   -1.4049 H   0  0  0  0  0  0  0  0  0  0  0  0
    2.9304   -1.6532    0.2313 H   0  0  0  0  0  0  0  0  0  0  0  0
    4.3008    0.3358    0.3938 H   0  0  0  0  0  0  0  0  0  0  0  0
    3.1104    1.2995   -0.6092 H   0  0  0  0  0  0  0  0  0  0  0  0
   -0.9209    0.1252   -1.6330 H   0  0  0  0  0  0  0  0  0  0  0  0
   -1.1608    2.2525    0.4897 H   0  0  0  0  0  0  0  0  0  0  0  0
   -1.9248    2.1195   -1.1331 H   0  0  0  0  0  0  0  0  0  0  0  0
   -3.4483    1.5987    0.9493 H   0  0  0  0  0  0  0  0  0  0  0  0
   -3.4714    0.4977   -0.5298 H   0  0  0  0  0  0  0  0  0  0  0  0
   -3.0479   -0.9807    1.4014 H   0  0  0  0  0  0  0  0  0  0  0  0
   -1.7520    0.1882    1.9572 H   0  0  0  0  0  0  0  0  0  0  0  0
   -1.9219   -2.7561   -0.1923 H   0  0  0  0  0  0  0  0  0  0  0  0
   -2.9112   -1.4143   -0.9737 H   0  0  0  0  0  0  0  0  0  0  0  0
   -1.3161   -1.7901   -1.6476 H   0  0  0  0  0  0  0  0  0  0  0  0
    2.7942   -0.0798    1.9915 H   0  0  0  0  0  0  0  0  0  0  0  0
    0.7233    1.7115    1.4217 H   0  0  0  0  0  0  0  0  0  0  0  0
    0.6252   -0.0886    1.7977 H   0  0  0  0  0  0  0  0  0  0  0  0
    1.0894    1.3558   -0.8796 H   0  0  0  0  0  0  0  0  0  0  0  0
    0.8207   -1.6534   -0.5637 H   0  0  0  0  0  0  0  0  0  0  0  0
    1.2189   -0.6772   -2.0008 H   0  0  0  0  0  0  0  0  0  0  0  0
    3.3977   -1.1241   -1.4049 H   0  0  0  0  0  0  0  0  0  0  0  0
    2.9304   -1.6532    0.2313 H   0  0  0  0  0  0  0  0  0  0  0  0
    4.3008    0.3358    0.3938 H   0  0  0  0  0  0  0  0  0  0  0  0
    3.1104    1.2995   -0.6092 H   0  0  0  0  0  0  0  0  0  0  0  0
   -0.9209    0.1252   -1.6330 H   0  0  0  0  0  0  0  0  0  0  0  0
   -1.1608    2.2525    0.4897 H   0  0  0  0  0  0  0  0  0  0  0  0
   -1.9248    2.1195   -1.1331 H   0  0  0  0  0  0  0  0  0  0  0  0
   -3.4483    1.5987    0.9493 H   0  0  0  0  0  0  0  0  0  0  0  0
   -3.4714    0.4977   -0.5298 H   0  0  0  0  0  0  0  0  0  0  0  0
   -3.0479   -0.9807    1.4014 H   0  0  0  0  0  0  0  0  0  0  0  0
   -1.7520    0.1882    1.9572 H   0  0  0  0  0  0  0  0  0  0  0  0
   -1.9219   -2.7561   -0.1923 H   0  0  0  0  0  0  0  0  0  0  0  0
   -2.9112   -1.4143   -0.9737 H   0  0  0  0  0  0  0  0  0  0  0  0
   -1.3161   -1.7901   -1.6476 H   0  0  0  0  0  0  0  0  0  0  0  0
  1  2  1  0
  2  3  1  0
  3  4  1  0
  4  5  1  0
  1  6  1  0
  5  6  1  0
  3  8  1  0
  7  8  1  0
  8  9  1  0
  9 10  1  0
  7 11  1  0
 10 11  1  0
  7 12  1  0
 13 14  1  0
 14 15  1  0
 15 16  1  0
 16 17  1  0
 13 18  1  0
 17 18  1  0
 15 20  1  0
 19 20  1  0
 20 21  1  0
 21 22  1  0
 19 23  1  0
 22 23  1  0
 19 24  1  0
  1 25  1  0
  2 26  1  0
  2 27  1  0
  3 28  1  0
  4 29  1  0
  4 30  1  0
  5 31  1  0
  5 32  1  0
  6 33  1  0
  6 34  1  0
  8 35  1  6
  9 36  1  0
  9 37  1  0
 10 38  1  0
 10 39  1  0
 11 40  1  0
 11 41  1  0
 12 42  1  0
 12 43  1  0
 12 44  1  0
 13 45  1  0
 14 46  1  0
 14 47  1  0
 15 48  1  0
 16 49  1  0
 16 50  1  0
 17 51  1  0
 17 52  1  0
 18 53  1  0
 18 54  1  0
 20 55  1  6
 21 56  1  0
 21 57  1  0
 22 58  1  0
 22 59  1  0
 23 60  1  0
 23 61  1  0
 24 62  1  0
 24 63  1  0
 24 64  1  0
M  END
>  <PDBID>  (1) 
5KXI

>  <PDB ID>  (1) 
5KXI

>  <Generic Name>  (1) 
Nicotine

>  <Brand Name>  (1) 
American Fare Nicotine Transdermal System#Berkley and Jensen Nicotine#Berkley and Jensen Nicotine Polacrilex#Care One Nicotine#Careone Mini Nicotine Polacrilex#Careone Nicotine#Careone Nicotine Polacrilex#Careone Nicotine Transdermal System Step 1#Careone Nicotine Transdermal System Step 2#Careone Nicotine Transdermal System Step 3#Equaline Nicotine#Equate Nicotine#Exchange Select Nicotine Transdermal System Step 3#Good Neighbor Pharmacy Nicotine#Good Neighbor Pharmacy Nicotine Mini#Good Sense Nicotine#Good Sense Nicotine Mint#Good Sense Nicotine Stop Smoking Aid#Habitrol Patch Nicotine Transdermal System, Step 1#Habitrol Patch Nicotine Transdermal System, Step 2#Habitrol Patch Nicotine Transdermal System, Step 3#Harris Teeter Nicotine#Health Mart Nicotine#Health Mart Nicotine Polacrilex#Healthmart Nicotine Transdermal System Step 1#Healthmart Nicotine Transdermal System Step 2#Healthmart Nicotine Transdermal System Step 3#Healthy Accents Nicotine#Humana Pharmacy Nicotine#In Control Nicotine#Kirkland Signature Quit 2#Kirkland Signature Quit 4#Kroger Nicotine Transdermal System Step 1#Kroger Nicotine Transdermal System Step 2#Kroger Nicotine Transdermal System Step 3#Leader Nicotine#Leader Nicotine Transdermal System Step 1#Leader Nicotine Transdermal System Step 2#Leader Nicotine Transdermal System Step 3#Meijer Nicotine Transdermal System Step 1#Meijer Nicotine Transdermal System Step 2#Meijer Nicotine Transdermal System Step 3#Members Mark Mini Nicotine#Members Mark Nicotine#Mini Nicotine#Nicoderm Cq#Nicoderm Trd 114mg Nicotine/21#Nicoderm Trd 36mg Nicotine/7 Sqcm Patch#Nicoderm Trd 78mg Nicotine/14#Nicorelief#Nicorette#Nicorette Cinnamon Surge#Nicorette Fresh Mint#Nicorette Fruit Chill#Nicorette Gum 2mg#Nicorette Invisipatch#Nicorette Mint#Nicorette Original#Nicorette Plus 4mg#Nicorette Spearmint Burst#Nicorette White Ice Mint#Nicotine#Nicotine Coated Mint#Nicotine Gum#Nicotine Mini#Nicotine Mint Flavor#Nicotine Original#Nicotine Polacrilex#Nicotine Polacrilex Stop Smoking Aid#Nicotine Polacrilex, Coated Fruit Flavor#Nicotine Polacrilex, Coated Mint Flavor#Nicotine Polacrilex, Original#Nicotine Stop Smoking Aid#Nicotine Transdermal System#Nicotine Transdermal System Patch Kit#Nicotine Transdermal System Step 1#Nicotine Transdermal System Step 2#Nicotine Transdermal System Step 3#Nicotine Un1654#Nicotrol#Nicotrol (professional Sample)#Nictoine Gum#Preferred Plus Nicotine#Preferred Plus Nicotine Polacrilex Gum, Original Flavor#Rexall Nicotine#Rite Aid Nicotine Transdermal System Step 1#Rite Aid Nicotine Transdermal System Step 2#Rite Aid Nicotine Transdermal System Step 3#Rugby Nicotine#Rugby Nicotine Polacrilex Gum, Coated Cinnamon Flavor#Rugby Nicotine Polacrilex Gum, Coated Fruit Flavor#Rugby Nicotine Polacrilex Gum, Coated Mint Flavor#Rugby Nicotine Polacrilex Gum, Mint Flavor#Rugby Nicotine Polacrilex Gum, Original Flavor#Safeway Nicotine Transdermal System Step 1#Safeway Nicotine Transdermal System Step 2#Safeway Nicotine Transdermal System Step 3#Signature Care Nicotine#Simply Right Nicotine#Smart Sense Nicotine#Smart Sense Nicotine Mint#Smart Sense Nicotine Polacrilex#Stop Smoking Aid#Stop Smoking Aid Nicotine#Sunmark Nicotine#Sunmark Nicotine Transdermal System Step 1#Sunmark Nicotine Transdermal System Step 2#Sunmark Nicotine Transdermal System Step 3#Topcare Nicotine#Topcare Nicotine Gum#Topcare Nicotine Polacrilex#Topcare Nicotine Stop Smoking Aid#Tru Relief Nicotine#Up and Up Nicotine#Up and Up Nicotine Polacrilex#Zonnic#Zonnic Nicotine#Zonnic Nicotine Mini#Zonnic Nicotine Polacrilex#Habitrol#Nicoderm

>  <DrugBank ID>  (1) 
DB00184

>  <ATC Codes>  (1) 
N07BA01

>  <Ligand ID>  (1) 
NCT

>  <Target Name>  (1) 
Neuronal acetylcholine receptor subunit alpha-4

>  <UniProt ID>  (1) 
P43681

>  <PDB ID.1>  (1) 
5KXI

>  <Seq. Identity>  (1) 
54%

$$$$
