PDB_DB01764_08
     RDKit          3D

354360  0  0  0  0  0  0  0  0999 V2000
   -1.2762    1.1893   -1.3279 O   0  0  0  0  0  0  0  0  0  0  0  0
   -0.3152    1.4343   -0.3481 C   0  0  0  0  0  0  0  0  0  0  0  0
    0.8622    0.7019   -0.6481 N   0  0  0  0  0  0  0  0  0  0  0  0
    1.7135    1.2139   -1.6608 C   0  0  0  0  0  0  0  0  0  0  0  0
    3.1373    1.0821   -1.1812 C   0  0  0  0  0  0  0  0  0  0  0  0
    3.0823    0.1673    0.0187 C   0  0  1  0  0  0  0  0  0  0  0  0
    4.1233    0.5665    1.2117 S   0  0  0  0  0  0  0  0  0  0  0  0
    4.0569   -0.2818    2.5566 O   0  0  0  0  0  0  0  0  0  0  0  0
    3.5324    2.1629    1.7458 O   0  0  0  0  0  0  0  0  0  0  0  0
    5.7171    0.8182    0.7844 C   0  0  0  0  0  0  0  0  0  0  0  0
    6.4211   -0.3445    0.1431 C   0  0  0  0  0  0  0  0  0  0  0  0
    7.7714   -0.1609   -0.2057 N   0  0  0  0  0  0  0  0  0  0  0  0
    8.6987   -0.0251    0.8550 C   0  0  0  0  0  0  0  0  0  0  0  0
   10.0894    0.1574    0.2859 C   0  0  0  0  0  0  0  0  0  0  0  0
    8.0871    0.4536   -1.4340 C   0  0  0  0  0  0  0  0  0  0  0  0
    7.7799    1.8994   -1.5889 C   0  0  0  0  0  0  0  0  0  0  0  0
    1.6329    0.2694    0.4641 C   0  0  2  0  0  0  0  0  0  0  0  0
   -0.1302    2.8900   -0.0556 C   0  0  2  0  0  0  0  0  0  0  0  0
   -0.2915    3.2011    1.4368 C   0  0  0  0  0  0  0  0  0  0  0  0
   -0.4894    4.5857    1.3813 O   0  0  0  0  0  0  0  0  0  0  0  0
   -1.2551    3.6879   -0.5744 N   0  0  0  0  0  0  0  0  0  0  0  0
   -1.3674    4.8039    0.3143 C   0  0  0  0  0  0  0  0  0  0  0  0
   -2.7267    5.0248    0.8867 C   0  0  0  0  0  0  0  0  0  0  0  0
   -3.8303    4.8932   -0.1335 C   0  0  1  0  0  0  0  0  0  0  0  0
   -3.5307    5.4684   -1.3505 O   0  0  0  0  0  0  0  0  0  0  0  0
   -4.2217    3.4358   -0.2451 C   0  0  0  0  0  0  0  0  0  0  0  0
   -5.7248    3.2572   -0.1084 C   0  0  2  0  0  0  0  0  0  0  0  0
   -6.2418    4.2829    0.6766 O   0  0  0  0  0  0  0  0  0  0  0  0
   -6.0764    1.9543    0.5377 C   0  0  0  0  0  0  0  0  0  0  0  0
   -6.3388    0.8731   -0.5112 C   0  0  2  0  0  0  0  0  0  0  0  0
   -7.3434    1.3588   -1.5193 C   0  0  0  0  0  0  0  0  0  0  0  0
   -6.8912   -0.3187    0.2604 C   0  0  0  0  0  0  0  0  0  0  0  0
   -5.7230   -1.1232    0.8451 C   0  0  0  0  0  0  0  0  0  0  0  0
   -5.3941   -2.1864   -0.1601 C   0  0  0  0  0  0  0  0  0  0  0  0
   -4.0460   -2.6886   -0.0561 N   0  0  0  0  0  0  0  0  0  0  0  0
   -4.0905   -4.1148   -0.2926 C   0  0  2  0  0  0  0  0  0  0  0  0
   -5.1975   -4.5944    0.4461 O   0  0  0  0  0  0  0  0  0  0  0  0
   -2.8891   -4.8397    0.2872 C   0  0  0  0  0  0  0  0  0  0  0  0
   -1.5881   -4.4225   -0.3739 C   0  0  0  0  0  0  0  0  0  0  0  0
   -0.8692   -3.3958    0.4334 C   0  0  1  0  0  0  0  0  0  0  0  0
   -1.0956   -3.6589    1.9317 C   0  0  0  0  0  0  0  0  0  0  0  0
    0.5481   -3.1783    0.1831 C   0  0  1  0  0  0  0  0  0  0  0  0
    1.2451   -4.0366   -0.8318 C   0  0  0  0  0  0  0  0  0  0  0  0
    0.6951   -3.9551   -2.2164 C   0  0  0  0  0  0  0  0  0  0  0  0
    1.4803   -5.4475   -0.3459 C   0  0  0  0  0  0  0  0  0  0  0  0
    0.8301   -1.8414   -0.1962 O   0  0  0  0  0  0  0  0  0  0  0  0
    1.1066   -1.0738    0.9270 C   0  0  0  0  0  0  0  0  0  0  0  0
    1.9733   -1.7049    1.7965 O   0  0  0  0  0  0  0  0  0  0  0  0
   -1.2762    1.1893   -1.3279 O   0  0  0  0  0  0  0  0  0  0  0  0
   -0.3152    1.4343   -0.3481 C   0  0  0  0  0  0  0  0  0  0  0  0
    0.8622    0.7019   -0.6481 N   0  0  0  0  0  0  0  0  0  0  0  0
    1.7135    1.2139   -1.6608 C   0  0  0  0  0  0  0  0  0  0  0  0
    3.1373    1.0821   -1.1812 C   0  0  0  0  0  0  0  0  0  0  0  0
    3.0823    0.1673    0.0187 C   0  0  1  0  0  0  0  0  0  0  0  0
    4.1233    0.5665    1.2117 S   0  0  0  0  0  0  0  0  0  0  0  0
    4.0569   -0.2818    2.5566 O   0  0  0  0  0  0  0  0  0  0  0  0
    3.5324    2.1629    1.7458 O   0  0  0  0  0  0  0  0  0  0  0  0
    5.7171    0.8182    0.7844 C   0  0  0  0  0  0  0  0  0  0  0  0
    6.4211   -0.3445    0.1431 C   0  0  0  0  0  0  0  0  0  0  0  0
    7.7714   -0.1609   -0.2057 N   0  0  0  0  0  0  0  0  0  0  0  0
    8.6987   -0.0251    0.8550 C   0  0  0  0  0  0  0  0  0  0  0  0
   10.0894    0.1574    0.2859 C   0  0  0  0  0  0  0  0  0  0  0  0
    8.0871    0.4536   -1.4340 C   0  0  0  0  0  0  0  0  0  0  0  0
    7.7799    1.8994   -1.5889 C   0  0  0  0  0  0  0  0  0  0  0  0
    1.6329    0.2694    0.4641 C   0  0  2  0  0  0  0  0  0  0  0  0
   -0.1302    2.8900   -0.0556 C   0  0  2  0  0  0  0  0  0  0  0  0
   -0.2915    3.2011    1.4368 C   0  0  0  0  0  0  0  0  0  0  0  0
   -0.4894    4.5857    1.3813 O   0  0  0  0  0  0  0  0  0  0  0  0
   -1.2551    3.6879   -0.5744 N   0  0  0  0  0  0  0  0  0  0  0  0
   -1.3674    4.8039    0.3143 C   0  0  0  0  0  0  0  0  0  0  0  0
   -2.7267    5.0248    0.8867 C   0  0  0  0  0  0  0  0  0  0  0  0
   -3.8303    4.8932   -0.1335 C   0  0  1  0  0  0  0  0  0  0  0  0
   -3.5307    5.4684   -1.3505 O   0  0  0  0  0  0  0  0  0  0  0  0
   -4.2217    3.4358   -0.2451 C   0  0  0  0  0  0  0  0  0  0  0  0
   -5.7248    3.2572   -0.1084 C   0  0  2  0  0  0  0  0  0  0  0  0
   -6.2418    4.2829    0.6766 O   0  0  0  0  0  0  0  0  0  0  0  0
   -6.0764    1.9543    0.5377 C   0  0  0  0  0  0  0  0  0  0  0  0
   -6.3388    0.8731   -0.5112 C   0  0  2  0  0  0  0  0  0  0  0  0
   -7.3434    1.3588   -1.5193 C   0  0  0  0  0  0  0  0  0  0  0  0
   -6.8912   -0.3187    0.2604 C   0  0  0  0  0  0  0  0  0  0  0  0
   -5.7230   -1.1232    0.8451 C   0  0  0  0  0  0  0  0  0  0  0  0
   -5.3941   -2.1864   -0.1601 C   0  0  0  0  0  0  0  0  0  0  0  0
   -4.0460   -2.6886   -0.0561 N   0  0  0  0  0  0  0  0  0  0  0  0
   -4.0905   -4.1148   -0.2926 C   0  0  2  0  0  0  0  0  0  0  0  0
   -5.1975   -4.5944    0.4461 O   0  0  0  0  0  0  0  0  0  0  0  0
   -2.8891   -4.8397    0.2872 C   0  0  0  0  0  0  0  0  0  0  0  0
   -1.5881   -4.4225   -0.3739 C   0  0  0  0  0  0  0  0  0  0  0  0
   -0.8692   -3.3958    0.4334 C   0  0  1  0  0  0  0  0  0  0  0  0
   -1.0956   -3.6589    1.9317 C   0  0  0  0  0  0  0  0  0  0  0  0
    0.5481   -3.1783    0.1831 C   0  0  1  0  0  0  0  0  0  0  0  0
    1.2451   -4.0366   -0.8318 C   0  0  0  0  0  0  0  0  0  0  0  0
    0.6951   -3.9551   -2.2164 C   0  0  0  0  0  0  0  0  0  0  0  0
    1.4803   -5.4475   -0.3459 C   0  0  0  0  0  0  0  0  0  0  0  0
    0.8301   -1.8414   -0.1962 O   0  0  0  0  0  0  0  0  0  0  0  0
    1.1066   -1.0738    0.9270 C   0  0  0  0  0  0  0  0  0  0  0  0
    1.9733   -1.7049    1.7965 O   0  0  0  0  0  0  0  0  0  0  0  0
   -1.0690    1.5107   -1.5116 O   0  0  0  0  0  0  0  0  0  0  0  0
   -0.3471    1.2963   -0.3482 C   0  0  1  0  0  0  0  0  0  0  0  0
    0.8605    0.5871   -0.6850 N   0  0  0  0  0  0  0  0  0  0  0  0
    1.6580    1.2735   -1.6518 C   0  0  0  0  0  0  0  0  0  0  0  0
    3.0702    1.3693   -1.1184 C   0  0  0  0  0  0  0  0  0  0  0  0
    3.1460    0.3441   -0.0327 C   0  0  1  0  0  0  0  0  0  0  0  0
    4.1086    0.7302    1.2647 S   0  0  0  0  0  0  0  0  0  0  0  0
    3.9993   -0.0684    2.5539 O   0  0  0  0  0  0  0  0  0  0  0  0
    3.5029    2.3625    1.6968 O   0  0  0  0  0  0  0  0  0  0  0  0
    5.7440    1.0072    0.8648 C   0  0  0  0  0  0  0  0  0  0  0  0
    6.3962   -0.1783    0.2200 C   0  0  0  0  0  0  0  0  0  0  0  0
    7.7558   -0.0758   -0.1065 N   0  0  0  0  0  0  0  0  0  0  0  0
    8.7017   -0.0143    0.9414 C   0  0  0  0  0  0  0  0  0  0  0  0
   10.1109    0.0753    0.4466 C   0  0  0  0  0  0  0  0  0  0  0  0
    8.1457    0.3180   -1.4006 C   0  0  0  0  0  0  0  0  0  0  0  0
    7.8729    1.7353   -1.7910 C   0  0  0  0  0  0  0  0  0  0  0  0
    1.6813    0.2770    0.4391 C   0  0  2  0  0  0  0  0  0  0  0  0
   -0.0699    2.6500    0.2715 C   0  0  2  0  0  0  0  0  0  0  0  0
   -0.9732    2.8156    1.4633 C   0  0  0  0  0  0  0  0  0  0  0  0
   -1.4771    4.0979    1.4279 O   0  0  0  0  0  0  0  0  0  0  0  0
   -0.4525    3.7341   -0.5786 N   0  0  0  0  0  0  0  0  0  0  0  0
   -1.2915    4.6183    0.1688 C   0  0  1  0  0  0  0  0  0  0  0  0
   -2.5645    4.8720   -0.5891 C   0  0  0  0  0  0  0  0  0  0  0  0
   -3.7985    4.6723    0.2623 C   0  0  1  0  0  0  0  0  0  0  0  0
   -4.6936    5.7243   -0.0351 O   0  0  0  0  0  0  0  0  0  0  0  0
   -4.4971    3.3698   -0.1287 C   0  0  0  0  0  0  0  0  0  0  0  0
   -5.9800    3.4915    0.0339 C   0  0  2  0  0  0  0  0  0  0  0  0
   -6.3047    4.5366    0.8849 O   0  0  0  0  0  0  0  0  0  0  0  0
   -6.4816    2.2000    0.6640 C   0  0  0  0  0  0  0  0  0  0  0  0
   -6.2525    1.0822   -0.3309 C   0  0  2  0  0  0  0  0  0  0  0  0
   -7.1461    1.3413   -1.5209 C   0  0  0  0  0  0  0  0  0  0  0  0
   -6.5458   -0.2115    0.3618 C   0  0  0  0  0  0  0  0  0  0  0  0
   -5.2875   -0.9976    0.6561 C   0  0  0  0  0  0  0  0  0  0  0  0
   -5.1770   -2.0817   -0.3803 C   0  0  0  0  0  0  0  0  0  0  0  0
   -3.8942   -2.7371   -0.3239 N   0  0  0  0  0  0  0  0  0  0  0  0
   -4.1197   -4.1601   -0.3199 C   0  0  2  0  0  0  0  0  0  0  0  0
   -5.2243   -4.4260    0.5026 O   0  0  0  0  0  0  0  0  0  0  0  0
   -2.9595   -4.9401    0.2530 C   0  0  0  0  0  0  0  0  0  0  0  0
   -1.6235   -4.4737   -0.3309 C   0  0  0  0  0  0  0  0  0  0  0  0
   -1.0000   -3.4618    0.5648 C   0  0  1  0  0  0  0  0  0  0  0  0
   -1.2449   -3.8627    2.0304 C   0  0  0  0  0  0  0  0  0  0  0  0
    0.4009   -3.1261    0.3489 C   0  0  1  0  0  0  0  0  0  0  0  0
    1.1596   -3.8524   -0.7137 C   0  0  0  0  0  0  0  0  0  0  0  0
    0.5963   -3.6932   -2.0993 C   0  0  0  0  0  0  0  0  0  0  0  0
    1.4791   -5.2819   -0.3678 C   0  0  0  0  0  0  0  0  0  0  0  0
    0.5815   -1.7533    0.0807 O   0  0  0  0  0  0  0  0  0  0  0  0
    1.3838   -1.1219    0.9966 C   0  0  0  0  0  0  0  0  0  0  0  0
    2.5681   -1.8016    1.1809 O   0  0  0  0  0  0  0  0  0  0  0  0
   -0.9135    0.7490   -2.1321 H   0  0  0  0  0  0  0  0  0  0  0  0
   -0.7408    0.9801    0.5961 H   0  0  0  0  0  0  0  0  0  0  0  0
    1.4652    2.2107   -2.0327 H   0  0  0  0  0  0  0  0  0  0  0  0
    1.6130    0.5246   -2.5506 H   0  0  0  0  0  0  0  0  0  0  0  0
    3.7805    0.6680   -1.9899 H   0  0  0  0  0  0  0  0  0  0  0  0
    3.5043    2.0689   -0.8481 H   0  0  0  0  0  0  0  0  0  0  0  0
    3.2067   -0.8726   -0.3468 H   0  0  0  0  0  0  0  0  0  0  0  0
    3.6795    0.1493    3.3676 H   0  0  0  0  0  0  0  0  0  0  0  0
    4.1750    2.8159    1.3701 H   0  0  0  0  0  0  0  0  0  0  0  0
    6.3272    1.1110    1.6785 H   0  0  0  0  0  0  0  0  0  0  0  0
    5.7997    1.6828    0.0908 H   0  0  0  0  0  0  0  0  0  0  0  0
    6.3186   -1.2163    0.8583 H   0  0  0  0  0  0  0  0  0  0  0  0
    5.8794   -0.6677   -0.7973 H   0  0  0  0  0  0  0  0  0  0  0  0
    8.7330   -1.0060    1.4142 H   0  0  0  0  0  0  0  0  0  0  0  0
    8.5083    0.8140    1.5434 H   0  0  0  0  0  0  0  0  0  0  0  0
   10.1988    1.1749   -0.1568 H   0  0  0  0  0  0  0  0  0  0  0  0
   10.8307    0.1169    1.1283 H   0  0  0  0  0  0  0  0  0  0  0  0
   10.3770   -0.6430   -0.4182 H   0  0  0  0  0  0  0  0  0  0  0  0
    9.1490    0.2647   -1.7678 H   0  0  0  0  0  0  0  0  0  0  0  0
    7.4872   -0.0817   -2.2328 H   0  0  0  0  0  0  0  0  0  0  0  0
    6.7906    2.1272   -2.0337 H   0  0  0  0  0  0  0  0  0  0  0  0
    7.8825    2.5108   -0.6708 H   0  0  0  0  0  0  0  0  0  0  0  0
    8.5347    2.3665   -2.2985 H   0  0  0  0  0  0  0  0  0  0  0  0
    1.6077    0.9478    1.3209 H   0  0  0  0  0  0  0  0  0  0  0  0
    0.8366    3.3054   -0.3553 H   0  0  0  0  0  0  0  0  0  0  0  0
   -1.2151    2.7362    1.8353 H   0  0  0  0  0  0  0  0  0  0  0  0
    0.6093    3.0171    2.0161 H   0  0  0  0  0  0  0  0  0  0  0  0
   -1.1097    3.9402   -1.5723 H   0  0  0  0  0  0  0  0  0  0  0  0
   -1.0939    5.7341   -0.2551 H   0  0  0  0  0  0  0  0  0  0  0  0
   -2.9223    4.3410    1.7224 H   0  0  0  0  0  0  0  0  0  0  0  0
   -2.7480    6.0615    1.3194 H   0  0  0  0  0  0  0  0  0  0  0  0
   -4.7152    5.4290    0.2763 H   0  0  0  0  0  0  0  0  0  0  0  0
   -3.9112    6.3808   -1.4514 H   0  0  0  0  0  0  0  0  0  0  0  0
   -3.8964    3.0958   -1.2579 H   0  0  0  0  0  0  0  0  0  0  0  0
   -3.7265    2.8457    0.5571 H   0  0  0  0  0  0  0  0  0  0  0  0
   -6.2117    3.2943   -1.0967 H   0  0  0  0  0  0  0  0  0  0  0  0
   -6.7263    4.9565    0.1382 H   0  0  0  0  0  0  0  0  0  0  0  0
   -7.0448    2.0867    1.0747 H   0  0  0  0  0  0  0  0  0  0  0  0
   -5.3466    1.5905    1.2701 H   0  0  0  0  0  0  0  0  0  0  0  0
   -5.3845    0.5769   -0.9924 H   0  0  0  0  0  0  0  0  0  0  0  0
   -6.7674    1.7472   -2.3898 H   0  0  0  0  0  0  0  0  0  0  0  0
   -8.0187    0.5475   -1.8754 H   0  0  0  0  0  0  0  0  0  0  0  0
   -7.9912    2.1437   -1.0879 H   0  0  0  0  0  0  0  0  0  0  0  0
   -7.4611   -0.9522   -0.4705 H   0  0  0  0  0  0  0  0  0  0  0  0
   -7.5953   -0.0041    1.0321 H   0  0  0  0  0  0  0  0  0  0  0  0
   -4.8917   -0.4452    1.0793 H   0  0  0  0  0  0  0  0  0  0  0  0
   -6.1438   -1.6033    1.7702 H   0  0  0  0  0  0  0  0  0  0  0  0
   -5.6207   -1.7843   -1.1876 H   0  0  0  0  0  0  0  0  0  0  0  0
   -6.1658   -2.9989   -0.0188 H   0  0  0  0  0  0  0  0  0  0  0  0
   -3.5252   -2.2765   -0.8882 H   0  0  0  0  0  0  0  0  0  0  0  0
   -4.2890   -4.3841   -1.3376 H   0  0  0  0  0  0  0  0  0  0  0  0
   -4.8861   -4.5267    1.4052 H   0  0  0  0  0  0  0  0  0  0  0  0
   -2.9124   -4.7053    1.3631 H   0  0  0  0  0  0  0  0  0  0  0  0
   -3.1024   -5.9348    0.1063 H   0  0  0  0  0  0  0  0  0  0  0  0
   -1.8671   -4.0146   -1.3677 H   0  0  0  0  0  0  0  0  0  0  0  0
   -1.0253   -5.3556   -0.5357 H   0  0  0  0  0  0  0  0  0  0  0  0
   -1.4228   -2.4272    0.2571 H   0  0  0  0  0  0  0  0  0  0  0  0
   -1.0373   -4.7381    2.1601 H   0  0  0  0  0  0  0  0  0  0  0  0
   -0.2304   -3.1974    2.4728 H   0  0  0  0  0  0  0  0  0  0  0  0
   -1.9941   -3.1529    2.3105 H   0  0  0  0  0  0  0  0  0  0  0  0
    1.1490   -3.3076    1.1350 H   0  0  0  0  0  0  0  0  0  0  0  0
    2.2833   -3.5741   -0.8949 H   0  0  0  0  0  0  0  0  0  0  0  0
    0.0967   -3.0145   -2.3032 H   0  0  0  0  0  0  0  0  0  0  0  0
    1.5090   -3.8244   -2.9932 H   0  0  0  0  0  0  0  0  0  0  0  0
    0.1506   -4.8576   -2.5557 H   0  0  0  0  0  0  0  0  0  0  0  0
    1.1435   -6.2169   -1.0862 H   0  0  0  0  0  0  0  0  0  0  0  0
    2.5717   -5.6824   -0.1950 H   0  0  0  0  0  0  0  0  0  0  0  0
    1.0296   -5.6320    0.6673 H   0  0  0  0  0  0  0  0  0  0  0  0
    0.1411   -0.8774    1.4232 H   0  0  0  0  0  0  0  0  0  0  0  0
    1.6458   -1.5777    2.7344 H   0  0  0  0  0  0  0  0  0  0  0  0
   -0.9135    0.7490   -2.1321 H   0  0  0  0  0  0  0  0  0  0  0  0
   -0.7408    0.9801    0.5961 H   0  0  0  0  0  0  0  0  0  0  0  0
    1.4652    2.2107   -2.0327 H   0  0  0  0  0  0  0  0  0  0  0  0
    1.6130    0.5246   -2.5506 H   0  0  0  0  0  0  0  0  0  0  0  0
    3.7805    0.6680   -1.9899 H   0  0  0  0  0  0  0  0  0  0  0  0
    3.5043    2.0689   -0.8481 H   0  0  0  0  0  0  0  0  0  0  0  0
    3.2067   -0.8726   -0.3468 H   0  0  0  0  0  0  0  0  0  0  0  0
    3.6795    0.1493    3.3676 H   0  0  0  0  0  0  0  0  0  0  0  0
    4.1750    2.8159    1.3701 H   0  0  0  0  0  0  0  0  0  0  0  0
    6.3272    1.1110    1.6785 H   0  0  0  0  0  0  0  0  0  0  0  0
    5.7997    1.6828    0.0908 H   0  0  0  0  0  0  0  0  0  0  0  0
    6.3186   -1.2163    0.8583 H   0  0  0  0  0  0  0  0  0  0  0  0
    5.8794   -0.6677   -0.7973 H   0  0  0  0  0  0  0  0  0  0  0  0
    8.7330   -1.0060    1.4142 H   0  0  0  0  0  0  0  0  0  0  0  0
    8.5083    0.8140    1.5434 H   0  0  0  0  0  0  0  0  0  0  0  0
   10.1988    1.1749   -0.1568 H   0  0  0  0  0  0  0  0  0  0  0  0
   10.8307    0.1169    1.1283 H   0  0  0  0  0  0  0  0  0  0  0  0
   10.3770   -0.6430   -0.4182 H   0  0  0  0  0  0  0  0  0  0  0  0
    9.1490    0.2647   -1.7678 H   0  0  0  0  0  0  0  0  0  0  0  0
    7.4872   -0.0817   -2.2328 H   0  0  0  0  0  0  0  0  0  0  0  0
    6.7906    2.1272   -2.0337 H   0  0  0  0  0  0  0  0  0  0  0  0
    7.8825    2.5108   -0.6708 H   0  0  0  0  0  0  0  0  0  0  0  0
    8.5347    2.3665   -2.2985 H   0  0  0  0  0  0  0  0  0  0  0  0
    1.6077    0.9478    1.3209 H   0  0  0  0  0  0  0  0  0  0  0  0
    0.8366    3.3054   -0.3553 H   0  0  0  0  0  0  0  0  0  0  0  0
   -1.2151    2.7362    1.8353 H   0  0  0  0  0  0  0  0  0  0  0  0
    0.6093    3.0171    2.0161 H   0  0  0  0  0  0  0  0  0  0  0  0
   -1.1097    3.9402   -1.5723 H   0  0  0  0  0  0  0  0  0  0  0  0
   -1.0939    5.7341   -0.2551 H   0  0  0  0  0  0  0  0  0  0  0  0
   -2.9223    4.3410    1.7224 H   0  0  0  0  0  0  0  0  0  0  0  0
   -2.7480    6.0615    1.3194 H   0  0  0  0  0  0  0  0  0  0  0  0
   -4.7152    5.4290    0.2763 H   0  0  0  0  0  0  0  0  0  0  0  0
   -3.9112    6.3808   -1.4514 H   0  0  0  0  0  0  0  0  0  0  0  0
   -3.8964    3.0958   -1.2579 H   0  0  0  0  0  0  0  0  0  0  0  0
   -3.7265    2.8457    0.5571 H   0  0  0  0  0  0  0  0  0  0  0  0
   -6.2117    3.2943   -1.0967 H   0  0  0  0  0  0  0  0  0  0  0  0
   -6.7263    4.9565    0.1382 H   0  0  0  0  0  0  0  0  0  0  0  0
   -7.0448    2.0867    1.0747 H   0  0  0  0  0  0  0  0  0  0  0  0
   -5.3466    1.5905    1.2701 H   0  0  0  0  0  0  0  0  0  0  0  0
   -5.3845    0.5769   -0.9924 H   0  0  0  0  0  0  0  0  0  0  0  0
   -6.7674    1.7472   -2.3898 H   0  0  0  0  0  0  0  0  0  0  0  0
   -8.0187    0.5475   -1.8754 H   0  0  0  0  0  0  0  0  0  0  0  0
   -7.9912    2.1437   -1.0879 H   0  0  0  0  0  0  0  0  0  0  0  0
   -7.4611   -0.9522   -0.4705 H   0  0  0  0  0  0  0  0  0  0  0  0
   -7.5953   -0.0041    1.0321 H   0  0  0  0  0  0  0  0  0  0  0  0
   -4.8917   -0.4452    1.0793 H   0  0  0  0  0  0  0  0  0  0  0  0
   -6.1438   -1.6033    1.7702 H   0  0  0  0  0  0  0  0  0  0  0  0
   -5.6207   -1.7843   -1.1876 H   0  0  0  0  0  0  0  0  0  0  0  0
   -6.1658   -2.9989   -0.0188 H   0  0  0  0  0  0  0  0  0  0  0  0
   -3.5252   -2.2765   -0.8882 H   0  0  0  0  0  0  0  0  0  0  0  0
   -4.2890   -4.3841   -1.3376 H   0  0  0  0  0  0  0  0  0  0  0  0
   -4.8861   -4.5267    1.4052 H   0  0  0  0  0  0  0  0  0  0  0  0
   -2.9124   -4.7053    1.3631 H   0  0  0  0  0  0  0  0  0  0  0  0
   -3.1024   -5.9348    0.1063 H   0  0  0  0  0  0  0  0  0  0  0  0
   -1.8671   -4.0146   -1.3677 H   0  0  0  0  0  0  0  0  0  0  0  0
   -1.0253   -5.3556   -0.5357 H   0  0  0  0  0  0  0  0  0  0  0  0
   -1.4228   -2.4272    0.2571 H   0  0  0  0  0  0  0  0  0  0  0  0
   -1.0373   -4.7381    2.1601 H   0  0  0  0  0  0  0  0  0  0  0  0
   -0.2304   -3.1974    2.4728 H   0  0  0  0  0  0  0  0  0  0  0  0
   -1.9941   -3.1529    2.3105 H   0  0  0  0  0  0  0  0  0  0  0  0
    1.1490   -3.3076    1.1350 H   0  0  0  0  0  0  0  0  0  0  0  0
    2.2833   -3.5741   -0.8949 H   0  0  0  0  0  0  0  0  0  0  0  0
    0.0967   -3.0145   -2.3032 H   0  0  0  0  0  0  0  0  0  0  0  0
    1.5090   -3.8244   -2.9932 H   0  0  0  0  0  0  0  0  0  0  0  0
    0.1506   -4.8576   -2.5557 H   0  0  0  0  0  0  0  0  0  0  0  0
    1.1435   -6.2169   -1.0862 H   0  0  0  0  0  0  0  0  0  0  0  0
    2.5717   -5.6824   -0.1950 H   0  0  0  0  0  0  0  0  0  0  0  0
    1.0296   -5.6320    0.6673 H   0  0  0  0  0  0  0  0  0  0  0  0
    0.1411   -0.8774    1.4232 H   0  0  0  0  0  0  0  0  0  0  0  0
    1.6458   -1.5777    2.7344 H   0  0  0  0  0  0  0  0  0  0  0  0
   -0.9395    0.7563   -2.1349 H   0  0  0  0  0  0  0  0  0  0  0  0
   -0.9686    0.6558    0.3040 H   0  0  0  0  0  0  0  0  0  0  0  0
    1.2713    2.2771   -1.9205 H   0  0  0  0  0  0  0  0  0  0  0  0
    1.6403    0.6843   -2.5908 H   0  0  0  0  0  0  0  0  0  0  0  0
    3.7460    1.1890   -1.9763 H   0  0  0  0  0  0  0  0  0  0  0  0
    3.2983    2.3838   -0.7291 H   0  0  0  0  0  0  0  0  0  0  0  0
    3.3649   -0.6917   -0.4000 H   0  0  0  0  0  0  0  0  0  0  0  0
    3.6996    0.4139    3.3721 H   0  0  0  0  0  0  0  0  0  0  0  0
    4.1292    2.9819    1.2467 H   0  0  0  0  0  0  0  0  0  0  0  0
    6.2789    1.3592    1.7712 H   0  0  0  0  0  0  0  0  0  0  0  0
    5.7798    1.8559    0.1352 H   0  0  0  0  0  0  0  0  0  0  0  0
    6.1632   -1.1241    0.8008 H   0  0  0  0  0  0  0  0  0  0  0  0
    5.8430   -0.3658   -0.7576 H   0  0  0  0  0  0  0  0  0  0  0  0
    8.6382   -0.9972    1.4968 H   0  0  0  0  0  0  0  0  0  0  0  0
    8.5613    0.8060    1.6684 H   0  0  0  0  0  0  0  0  0  0  0  0
   10.3323    1.0670   -0.0045 H   0  0  0  0  0  0  0  0  0  0  0  0
   10.8135   -0.0142    1.3279 H   0  0  0  0  0  0  0  0  0  0  0  0
   10.4141   -0.7751   -0.2110 H   0  0  0  0  0  0  0  0  0  0  0  0
    9.2105    0.0257   -1.6424 H   0  0  0  0  0  0  0  0  0  0  0  0
    7.5560   -0.3137   -2.1350 H   0  0  0  0  0  0  0  0  0  0  0  0
    6.9445    1.8603   -2.4232 H   0  0  0  0  0  0  0  0  0  0  0  0
    7.7858    2.4475   -0.9650 H   0  0  0  0  0  0  0  0  0  0  0  0
    8.7103    2.0316   -2.4997 H   0  0  0  0  0  0  0  0  0  0  0  0
    1.5656    0.9702    1.2804 H   0  0  0  0  0  0  0  0  0  0  0  0
    1.0000    2.7833    0.5230 H   0  0  0  0  0  0  0  0  0  0  0  0
   -0.4508    2.5986    2.4196 H   0  0  0  0  0  0  0  0  0  0  0  0
   -1.8406    2.1285    1.3632 H   0  0  0  0  0  0  0  0  0  0  0  0
   -0.8680    3.4421   -1.5003 H   0  0  0  0  0  0  0  0  0  0  0  0
   -0.7388    5.5891    0.2902 H   0  0  0  0  0  0  0  0  0  0  0  0
   -2.6367    4.1767   -1.4502 H   0  0  0  0  0  0  0  0  0  0  0  0
   -2.5462    5.8950   -1.0207 H   0  0  0  0  0  0  0  0  0  0  0  0
   -3.5824    4.6142    1.3494 H   0  0  0  0  0  0  0  0  0  0  0  0
   -4.1205    6.5105   -0.2198 H   0  0  0  0  0  0  0  0  0  0  0  0
   -4.2923    3.1620   -1.2092 H   0  0  0  0  0  0  0  0  0  0  0  0
   -4.0844    2.5209    0.4398 H   0  0  0  0  0  0  0  0  0  0  0  0
   -6.5006    3.6113   -0.9367 H   0  0  0  0  0  0  0  0  0  0  0  0
   -7.0434    5.0857    0.5141 H   0  0  0  0  0  0  0  0  0  0  0  0
   -5.9503    1.9987    1.6122 H   0  0  0  0  0  0  0  0  0  0  0  0
   -7.5734    2.2995    0.8061 H   0  0  0  0  0  0  0  0  0  0  0  0
   -5.2134    1.0523   -0.6939 H   0  0  0  0  0  0  0  0  0  0  0  0
   -6.5582    1.7109   -2.3854 H   0  0  0  0  0  0  0  0  0  0  0  0
   -7.7452    0.4520   -1.8019 H   0  0  0  0  0  0  0  0  0  0  0  0
   -7.8944    2.1544   -1.3051 H   0  0  0  0  0  0  0  0  0  0  0  0
   -7.2335   -0.7958   -0.3007 H   0  0  0  0  0  0  0  0  0  0  0  0
   -7.1129   -0.0700    1.3173 H   0  0  0  0  0  0  0  0  0  0  0  0
   -4.3810   -0.3601    0.6921 H   0  0  0  0  0  0  0  0  0  0  0  0
   -5.3786   -1.5079    1.6572 H   0  0  0  0  0  0  0  0  0  0  0  0
   -5.3559   -1.5957   -1.3765 H   0  0  0  0  0  0  0  0  0  0  0  0
   -6.0086   -2.7981   -0.2201 H   0  0  0  0  0  0  0  0  0  0  0  0
   -3.3728   -2.4532   -1.1942 H   0  0  0  0  0  0  0  0  0  0  0  0
   -4.3674   -4.5621   -1.3373 H   0  0  0  0  0  0  0  0  0  0  0  0
   -4.8924   -4.4390    1.4513 H   0  0  0  0  0  0  0  0  0  0  0  0
   -3.0021   -4.8926    1.3374 H   0  0  0  0  0  0  0  0  0  0  0  0
   -3.1537   -6.0180   -0.0205 H   0  0  0  0  0  0  0  0  0  0  0  0
   -1.9134   -3.9363   -1.2808 H   0  0  0  0  0  0  0  0  0  0  0  0
   -1.0461   -5.3777   -0.5087 H   0  0  0  0  0  0  0  0  0  0  0  0
   -1.6212   -2.5205    0.4491 H   0  0  0  0  0  0  0  0  0  0  0  0
   -1.1545   -4.9478    2.1845 H   0  0  0  0  0  0  0  0  0  0  0  0
   -0.3916   -3.4167    2.6171 H   0  0  0  0  0  0  0  0  0  0  0  0
   -2.1523   -3.4070    2.4448 H   0  0  0  0  0  0  0  0  0  0  0  0
    0.9772   -3.3068    1.3013 H   0  0  0  0  0  0  0  0  0  0  0  0
    2.1628   -3.3206   -0.7513 H   0  0  0  0  0  0  0  0  0  0  0  0
   -0.0126   -2.7512   -2.1336 H   0  0  0  0  0  0  0  0  0  0  0  0
    1.4086   -3.5035   -2.8646 H   0  0  0  0  0  0  0  0  0  0  0  0
    0.0618   -4.5756   -2.4776 H   0  0  0  0  0  0  0  0  0  0  0  0
    1.1710   -5.9871   -1.1914 H   0  0  0  0  0  0  0  0  0  0  0  0
    2.5891   -5.4706   -0.2710 H   0  0  0  0  0  0  0  0  0  0  0  0
    1.0615   -5.6000    0.6084 H   0  0  0  0  0  0  0  0  0  0  0  0
    0.8526   -1.0749    1.9525 H   0  0  0  0  0  0  0  0  0  0  0  0
    2.6193   -2.3534    1.9863 H   0  0  0  0  0  0  0  0  0  0  0  0
  1  2  1  0
  2  3  1  0
  3  4  1  0
  4  5  1  0
  5  6  1  0
  6  7  1  0
  7  8  1  0
  7  9  1  0
  7 10  1  0
 10 11  1  0
 11 12  1  0
 12 13  1  0
 13 14  1  0
 12 15  1  0
 15 16  1  0
  3 17  1  0
  6 17  1  0
  2 18  1  0
 18 19  1  0
 19 20  1  0
 18 21  1  0
 20 22  1  0
 21 22  1  0
 22 23  1  0
 23 24  1  0
 24 25  1  0
 24 26  1  0
 26 27  1  0
 27 28  1  0
 27 29  1  0
 29 30  1  0
 30 31  1  0
 30 32  1  0
 32 33  1  0
 33 34  1  0
 34 35  1  0
 35 36  1  0
 36 37  1  0
 36 38  1  0
 38 39  1  0
 39 40  1  0
 40 41  1  0
 40 42  1  0
 42 43  1  0
 43 44  1  0
 43 45  1  0
 42 46  1  0
 17 47  1  0
 46 47  1  0
 47 48  1  0
 49 50  1  0
 50 51  1  0
 51 52  1  0
 52 53  1  0
 53 54  1  0
 54 55  1  0
 55 56  1  0
 55 57  1  0
 55 58  1  0
 58 59  1  0
 59 60  1  0
 60 61  1  0
 61 62  1  0
 60 63  1  0
 63 64  1  0
 51 65  1  0
 54 65  1  0
 50 66  1  0
 66 67  1  0
 67 68  1  0
 66 69  1  0
 68 70  1  0
 69 70  1  0
 70 71  1  0
 71 72  1  0
 72 73  1  0
 72 74  1  0
 74 75  1  0
 75 76  1  0
 75 77  1  0
 77 78  1  0
 78 79  1  0
 78 80  1  0
 80 81  1  0
 81 82  1  0
 82 83  1  0
 83 84  1  0
 84 85  1  0
 84 86  1  0
 86 87  1  0
 87 88  1  0
 88 89  1  0
 88 90  1  0
 90 91  1  0
 91 92  1  0
 91 93  1  0
 90 94  1  0
 65 95  1  0
 94 95  1  0
 95 96  1  0
 97 98  1  0
 98 99  1  0
 99100  1  0
100101  1  0
101102  1  0
102103  1  0
103104  1  0
103105  1  0
103106  1  0
106107  1  0
107108  1  0
108109  1  0
109110  1  0
108111  1  0
111112  1  0
 99113  1  0
102113  1  0
 98114  1  0
114115  1  0
115116  1  0
114117  1  0
116118  1  0
117118  1  0
118119  1  0
119120  1  0
120121  1  0
120122  1  0
122123  1  0
123124  1  0
123125  1  0
125126  1  0
126127  1  0
126128  1  0
128129  1  0
129130  1  0
130131  1  0
131132  1  0
132133  1  0
132134  1  0
134135  1  0
135136  1  0
136137  1  0
136138  1  0
138139  1  0
139140  1  0
139141  1  0
138142  1  0
113143  1  0
142143  1  0
143144  1  0
  1145  1  0
  2146  1  0
  4147  1  0
  4148  1  0
  5149  1  0
  5150  1  0
  6151  1  6
  8152  1  0
  9153  1  0
 10154  1  0
 10155  1  0
 11156  1  0
 11157  1  0
 13158  1  0
 13159  1  0
 14160  1  0
 14161  1  0
 14162  1  0
 15163  1  0
 15164  1  0
 16165  1  0
 16166  1  0
 16167  1  0
 17168  1  1
 18169  1  6
 19170  1  0
 19171  1  0
 21172  1  0
 22173  1  0
 23174  1  0
 23175  1  0
 24176  1  1
 25177  1  0
 26178  1  0
 26179  1  0
 27180  1  6
 28181  1  0
 29182  1  0
 29183  1  0
 30184  1  6
 31185  1  0
 31186  1  0
 31187  1  0
 32188  1  0
 32189  1  0
 33190  1  0
 33191  1  0
 34192  1  0
 34193  1  0
 35194  1  0
 36195  1  6
 37196  1  0
 38197  1  0
 38198  1  0
 39199  1  0
 39200  1  0
 40201  1  6
 41202  1  0
 41203  1  0
 41204  1  0
 42205  1  1
 43206  1  0
 44207  1  0
 44208  1  0
 44209  1  0
 45210  1  0
 45211  1  0
 45212  1  0
 47213  1  0
 48214  1  0
 49215  1  0
 50216  1  0
 52217  1  0
 52218  1  0
 53219  1  0
 53220  1  0
 54221  1  6
 56222  1  0
 57223  1  0
 58224  1  0
 58225  1  0
 59226  1  0
 59227  1  0
 61228  1  0
 61229  1  0
 62230  1  0
 62231  1  0
 62232  1  0
 63233  1  0
 63234  1  0
 64235  1  0
 64236  1  0
 64237  1  0
 65238  1  1
 66239  1  6
 67240  1  0
 67241  1  0
 69242  1  0
 70243  1  0
 71244  1  0
 71245  1  0
 72246  1  1
 73247  1  0
 74248  1  0
 74249  1  0
 75250  1  6
 76251  1  0
 77252  1  0
 77253  1  0
 78254  1  6
 79255  1  0
 79256  1  0
 79257  1  0
 80258  1  0
 80259  1  0
 81260  1  0
 81261  1  0
 82262  1  0
 82263  1  0
 83264  1  0
 84265  1  6
 85266  1  0
 86267  1  0
 86268  1  0
 87269  1  0
 87270  1  0
 88271  1  6
 89272  1  0
 89273  1  0
 89274  1  0
 90275  1  1
 91276  1  0
 92277  1  0
 92278  1  0
 92279  1  0
 93280  1  0
 93281  1  0
 93282  1  0
 95283  1  0
 96284  1  0
 97285  1  0
 98286  1  1
100287  1  0
100288  1  0
101289  1  0
101290  1  0
102291  1  6
104292  1  0
105293  1  0
106294  1  0
106295  1  0
107296  1  0
107297  1  0
109298  1  0
109299  1  0
110300  1  0
110301  1  0
110302  1  0
111303  1  0
111304  1  0
112305  1  0
112306  1  0
112307  1  0
113308  1  1
114309  1  1
115310  1  0
115311  1  0
117312  1  0
118313  1  1
119314  1  0
119315  1  0
120316  1  1
121317  1  0
122318  1  0
122319  1  0
123320  1  6
124321  1  0
125322  1  0
125323  1  0
126324  1  6
127325  1  0
127326  1  0
127327  1  0
128328  1  0
128329  1  0
129330  1  0
129331  1  0
130332  1  0
130333  1  0
131334  1  0
132335  1  6
133336  1  0
134337  1  0
134338  1  0
135339  1  0
135340  1  0
136341  1  1
137342  1  0
137343  1  0
137344  1  0
138345  1  1
139346  1  0
140347  1  0
140348  1  0
140349  1  0
141350  1  0
141351  1  0
141352  1  0
143353  1  0
144354  1  0
M  END
>  <PDBID>  (1) 
1MRL

>  <PDB ID>  (1) 
1MRL

>  <Generic Name>  (1) 
Dalfopristin

>  <Brand Name>  (1) 
Synercid

>  <DrugBank ID>  (1) 
DB01764

>  <ATC Codes>  (1) 
nan

>  <Ligand ID>  (1) 
DOL

>  <Target Name>  (1) 
Streptogramin A acetyltransferase

>  <UniProt ID>  (1) 
P50870

>  <PDB ID.1>  (1) 
1MRL

>  <Seq. Identity>  (1) 
100%

$$$$
