PDB_DB01113_05
     RDKit          3D

 62 64  0  0  0  0  0  0  0  0999 V2000
    5.1269    2.3779    1.9672 C   0  0  0  0  0  0  0  0  0  0  0  0
    4.4673    2.0581    0.7849 O   0  0  0  0  0  0  0  0  0  0  0  0
    3.8992    0.8127    0.7917 C   0  0  0  0  0  0  0  0  0  0  0  0
    4.5378    0.0319   -0.3671 C   0  0  0  0  0  0  0  0  0  0  0  0
    5.8754   -0.1351   -0.0151 O   0  0  0  0  0  0  0  0  0  0  0  0
    6.7275    0.5201   -0.9030 C   0  0  0  0  0  0  0  0  0  0  0  0
    3.9165   -1.3163   -0.4835 C   0  0  0  0  0  0  0  0  0  0  0  0
    2.4035   -1.3121   -0.5199 C   0  0  0  0  0  0  0  0  0  0  0  0
    2.4343    0.9025    0.5027 C   0  0  0  0  0  0  0  0  0  0  0  0
    1.7619   -0.4679    0.5206 C   0  0  0  0  0  0  0  0  0  0  0  0
    0.3087   -0.2172    0.2000 C   0  0  0  0  0  0  0  0  0  0  0  0
   -0.5426   -1.4248    0.1002 C   0  0  0  0  0  0  0  0  0  0  0  0
   -0.1470   -2.3430   -0.9102 N   0  0  0  0  0  0  0  0  0  0  0  0
   -0.5735   -2.1015   -2.2319 C   0  0  0  0  0  0  0  0  0  0  0  0
   -1.5631   -1.0088   -2.4544 C   0  0  0  0  0  0  0  0  0  0  0  0
   -2.5323   -0.8125   -1.3418 C   0  0  0  0  0  0  0  0  0  0  0  0
   -2.0053   -1.1816    0.0047 C   0  0  0  0  0  0  0  0  0  0  0  0
   -2.5328   -0.1805    1.0281 C   0  0  0  0  0  0  0  0  0  0  0  0
   -4.0359   -0.0941    0.7151 C   0  0  0  0  0  0  0  0  0  0  0  0
   -4.7590    0.2989    1.8101 O   0  0  0  0  0  0  0  0  0  0  0  0
   -5.7270   -0.6626    2.0947 C   0  0  0  0  0  0  0  0  0  0  0  0
   -4.1491    0.8791   -0.4457 C   0  0  0  0  0  0  0  0  0  0  0  0
   -2.9891    0.6495   -1.3916 C   0  0  0  0  0  0  0  0  0  0  0  0
   -4.0683    2.1587    0.0957 O   0  0  0  0  0  0  0  0  0  0  0  0
   -5.2328    2.8844   -0.0944 C   0  0  0  0  0  0  0  0  0  0  0  0
    5.5480    3.3988    1.8589 H   0  0  0  0  0  0  0  0  0  0  0  0
    4.3146    2.4850    2.7441 H   0  0  0  0  0  0  0  0  0  0  0  0
    5.8769    1.6343    2.2682 H   0  0  0  0  0  0  0  0  0  0  0  0
    4.0488    0.2503    1.7307 H   0  0  0  0  0  0  0  0  0  0  0  0
    4.3887    0.6383   -1.2647 H   0  0  0  0  0  0  0  0  0  0  0  0
    6.5993    0.1295   -1.9299 H   0  0  0  0  0  0  0  0  0  0  0  0
    7.7561    0.3693   -0.5214 H   0  0  0  0  0  0  0  0  0  0  0  0
    6.5071    1.6082   -0.8207 H   0  0  0  0  0  0  0  0  0  0  0  0
    4.2537   -1.9401    0.3652 H   0  0  0  0  0  0  0  0  0  0  0  0
    4.2608   -1.7700   -1.4477 H   0  0  0  0  0  0  0  0  0  0  0  0
    2.0541   -0.9975   -1.5040 H   0  0  0  0  0  0  0  0  0  0  0  0
    2.1378   -2.4077   -0.4151 H   0  0  0  0  0  0  0  0  0  0  0  0
    1.9340    1.5407    1.2572 H   0  0  0  0  0  0  0  0  0  0  0  0
    2.3024    1.3584   -0.4944 H   0  0  0  0  0  0  0  0  0  0  0  0
    1.8502   -0.8771    1.5491 H   0  0  0  0  0  0  0  0  0  0  0  0
    0.3186    0.2728   -0.8193 H   0  0  0  0  0  0  0  0  0  0  0  0
   -0.1188    0.5721    0.8623 H   0  0  0  0  0  0  0  0  0  0  0  0
   -0.4090   -1.9822    1.0875 H   0  0  0  0  0  0  0  0  0  0  0  0
   -0.3704   -3.3155   -0.6095 H   0  0  0  0  0  0  0  0  0  0  0  0
   -0.9745   -3.0667   -2.6627 H   0  0  0  0  0  0  0  0  0  0  0  0
    0.3202   -1.8927   -2.8826 H   0  0  0  0  0  0  0  0  0  0  0  0
   -1.0930   -0.0248   -2.7267 H   0  0  0  0  0  0  0  0  0  0  0  0
   -2.1355   -1.2798   -3.3921 H   0  0  0  0  0  0  0  0  0  0  0  0
   -3.4703   -1.3935   -1.5908 H   0  0  0  0  0  0  0  0  0  0  0  0
   -2.5091   -2.1548    0.2920 H   0  0  0  0  0  0  0  0  0  0  0  0
   -2.3431   -0.4812    2.0561 H   0  0  0  0  0  0  0  0  0  0  0  0
   -2.1300    0.8313    0.8822 H   0  0  0  0  0  0  0  0  0  0  0  0
   -4.3993   -1.0705    0.3331 H   0  0  0  0  0  0  0  0  0  0  0  0
   -6.3402   -0.3827    2.9810 H   0  0  0  0  0  0  0  0  0  0  0  0
   -6.3482   -0.9176    1.2185 H   0  0  0  0  0  0  0  0  0  0  0  0
   -5.2211   -1.6260    2.3958 H   0  0  0  0  0  0  0  0  0  0  0  0
   -5.1274    0.7356   -0.9045 H   0  0  0  0  0  0  0  0  0  0  0  0
   -2.1329    1.2973   -1.2053 H   0  0  0  0  0  0  0  0  0  0  0  0
   -3.3992    0.7856   -2.4253 H   0  0  0  0  0  0  0  0  0  0  0  0
   -5.4603    2.9999   -1.1739 H   0  0  0  0  0  0  0  0  0  0  0  0
   -6.0583    2.4434    0.4882 H   0  0  0  0  0  0  0  0  0  0  0  0
   -5.0320    3.9135    0.2949 H   0  0  0  0  0  0  0  0  0  0  0  0
  1  2  1  0
  2  3  1  0
  3  4  1  0
  4  5  1  0
  5  6  1  0
  4  7  1  0
  7  8  1  0
  3  9  1  0
  8 10  1  0
  9 10  1  0
 10 11  1  0
 11 12  1  0
 12 13  1  0
 13 14  1  0
 14 15  1  0
 15 16  1  0
 12 17  1  0
 16 17  1  0
 17 18  1  0
 18 19  1  0
 19 20  1  0
 20 21  1  0
 19 22  1  0
 16 23  1  0
 22 23  1  0
 22 24  1  0
 24 25  1  0
  1 26  1  0
  1 27  1  0
  1 28  1  0
  3 29  1  0
  4 30  1  0
  6 31  1  0
  6 32  1  0
  6 33  1  0
  7 34  1  0
  7 35  1  0
  8 36  1  0
  8 37  1  0
  9 38  1  0
  9 39  1  0
 10 40  1  0
 11 41  1  0
 11 42  1  0
 12 43  1  0
 13 44  1  0
 14 45  1  0
 14 46  1  0
 15 47  1  0
 15 48  1  0
 16 49  1  0
 17 50  1  0
 18 51  1  0
 18 52  1  0
 19 53  1  0
 21 54  1  0
 21 55  1  0
 21 56  1  0
 22 57  1  0
 23 58  1  0
 23 59  1  0
 25 60  1  0
 25 61  1  0
 25 62  1  0
M  END
>  <PDBID>  (1) 
3IAK

>  <PDB ID>  (1) 
3IAK

>  <Generic Name>  (1) 
Papaverine

>  <Brand Name>  (1) 
Papaverine Hydrochloride#Papaverine Hydrochloride Injection USP#Alapav#Albatran#Artegodan#Cardioverina#Cerebid#Cerespan#Delapav#Dilaves#Dispamil#Drapavel#Durapav#Dynovas#Mesotina#Myobid#Optenyl#Pameion#Pamelon#Panergon#Papacon#Papalease#Papaversan#Papital T.R.#Paptial T.R.#Pavabid#Pavacap#Pavacen#Pavadel#Pavagen#Pavakey#Pavased#Pavatest#Paverolan#Paveron#Pavnell#Qua Bid#Ro-Papav#Therapav#Vasal#Vaso-Pav

>  <DrugBank ID>  (1) 
DB01113

>  <ATC Codes>  (1) 
G04BE52#G04BE02#A03AD01

>  <Ligand ID>  (1) 
EV1

>  <Target Name>  (1) 
cAMP-specific 3',5'-cyclic phosphodiesterase 4B

>  <UniProt ID>  (1) 
Q07343

>  <PDB ID.1>  (1) 
3IAK

>  <Seq. Identity>  (1) 
85%

$$$$
