PDB_DB01044_04
     RDKit          3D

122128  0  0  0  0  0  0  0  0999 V2000
    4.7003    0.0289   -2.0377 C   0  0  0  0  0  0  0  0  0  0  0  0
    4.1651    0.4422   -0.6683 C   0  0  1  0  0  0  0  0  0  0  0  0
    2.7734   -0.1732   -0.4537 C   0  0  0  0  0  0  0  0  0  0  0  0
    2.3419    0.0706    0.8477 N   0  0  0  0  0  0  0  0  0  0  0  0
    3.3074    0.2197    1.8688 C   0  0  0  0  0  0  0  0  0  0  0  0
    4.5288   -0.6171    1.4650 C   0  0  0  0  0  0  0  0  0  0  0  0
    5.1118    0.0063    0.3128 N   0  0  0  0  0  0  0  0  0  0  0  0
    1.0340    0.5824    1.0878 C   0  0  0  0  0  0  0  0  0  0  0  0
    0.7815    1.9294    0.5058 C   0  0  0  0  0  0  0  0  0  0  0  0
   -0.0715    1.9808   -0.6986 C   0  0  0  0  0  0  0  0  0  0  0  0
   -1.3141    1.1316   -0.5985 C   0  0  0  0  0  0  0  0  0  0  0  0
   -0.8140   -0.2948   -0.4061 C   0  0  0  0  0  0  0  0  0  0  0  0
   -0.0249   -0.4523    0.8517 C   0  0  0  0  0  0  0  0  0  0  0  0
   -0.9183   -0.5789    1.9139 O   0  0  0  0  0  0  0  0  0  0  0  0
   -0.8461   -1.8275    2.5256 C   0  0  0  0  0  0  0  0  0  0  0  0
   -1.9467   -1.1487   -0.3981 N   0  0  0  0  0  0  0  0  0  0  0  0
   -3.2092   -0.4442   -0.5043 C   0  0  0  0  0  0  0  0  0  0  0  0
   -3.4188    0.6354    0.4945 C   0  0  0  0  0  0  0  0  0  0  0  0
   -2.2396    1.5698    0.4841 C   0  0  0  0  0  0  0  0  0  0  0  0
   -2.6221    2.8976    0.3059 O   0  0  0  0  0  0  0  0  0  0  0  0
   -4.6990    1.3708    0.0644 C   0  0  0  0  0  0  0  0  0  0  0  0
   -4.5309    1.8992   -1.2164 O   0  0  0  0  0  0  0  0  0  0  0  0
   -5.1034    2.2949    0.9963 O   0  0  0  0  0  0  0  0  0  0  0  0
   -1.9803   -2.2506   -1.2923 C   0  0  0  0  0  0  0  0  0  0  0  0
   -0.9648   -3.3787   -1.2075 C   0  0  0  0  0  0  0  0  0  0  0  0
   -1.0951   -2.4971   -2.4232 C   0  0  0  0  0  0  0  0  0  0  0  0
    0.2748    2.8442    1.4318 F   0  0  0  0  0  0  0  0  0  0  0  0
    4.4702    0.7799   -2.8174 H   0  0  0  0  0  0  0  0  0  0  0  0
    4.3103   -0.9788   -2.2997 H   0  0  0  0  0  0  0  0  0  0  0  0
    5.8035   -0.0594   -1.9838 H   0  0  0  0  0  0  0  0  0  0  0  0
    4.1057    1.5452   -0.6765 H   0  0  0  0  0  0  0  0  0  0  0  0
    2.9470   -1.2840   -0.5723 H   0  0  0  0  0  0  0  0  0  0  0  0
    2.1402    0.1243   -1.2762 H   0  0  0  0  0  0  0  0  0  0  0  0
    3.6471    1.2610    1.9443 H   0  0  0  0  0  0  0  0  0  0  0  0
    2.9177   -0.1780    2.8402 H   0  0  0  0  0  0  0  0  0  0  0  0
    4.2349   -1.6770    1.2913 H   0  0  0  0  0  0  0  0  0  0  0  0
    5.2448   -0.6087    2.3142 H   0  0  0  0  0  0  0  0  0  0  0  0
    5.7385    0.7831    0.6343 H   0  0  0  0  0  0  0  0  0  0  0  0
   -0.4279    3.0451   -0.8147 H   0  0  0  0  0  0  0  0  0  0  0  0
    0.2114   -1.9349    2.9075 H   0  0  0  0  0  0  0  0  0  0  0  0
   -0.9112   -2.5977    1.7104 H   0  0  0  0  0  0  0  0  0  0  0  0
   -1.5986   -1.9742    3.2971 H   0  0  0  0  0  0  0  0  0  0  0  0
   -3.3935   -0.1209   -1.5564 H   0  0  0  0  0  0  0  0  0  0  0  0
   -3.0271   -2.6824   -1.4332 H   0  0  0  0  0  0  0  0  0  0  0  0
   -0.1105   -3.2878   -0.5408 H   0  0  0  0  0  0  0  0  0  0  0  0
   -1.3178   -4.4446   -1.2699 H   0  0  0  0  0  0  0  0  0  0  0  0
   -0.2484   -1.8776   -2.7448 H   0  0  0  0  0  0  0  0  0  0  0  0
   -1.4993   -3.0602   -3.3188 H   0  0  0  0  0  0  0  0  0  0  0  0
    4.7003    0.0289   -2.0377 C   0  0  0  0  0  0  0  0  0  0  0  0
    4.1651    0.4422   -0.6683 C   0  0  1  0  0  0  0  0  0  0  0  0
    2.7734   -0.1732   -0.4537 C   0  0  0  0  0  0  0  0  0  0  0  0
    2.3419    0.0706    0.8477 N   0  0  0  0  0  0  0  0  0  0  0  0
    3.3074    0.2197    1.8688 C   0  0  0  0  0  0  0  0  0  0  0  0
    4.5288   -0.6171    1.4650 C   0  0  0  0  0  0  0  0  0  0  0  0
    5.1118    0.0063    0.3128 N   0  0  0  0  0  0  0  0  0  0  0  0
    1.0340    0.5824    1.0878 C   0  0  0  0  0  0  0  0  0  0  0  0
    0.7815    1.9294    0.5058 C   0  0  0  0  0  0  0  0  0  0  0  0
   -0.0715    1.9808   -0.6986 C   0  0  0  0  0  0  0  0  0  0  0  0
   -1.3141    1.1316   -0.5985 C   0  0  0  0  0  0  0  0  0  0  0  0
   -0.8140   -0.2948   -0.4061 C   0  0  0  0  0  0  0  0  0  0  0  0
   -0.0249   -0.4523    0.8517 C   0  0  0  0  0  0  0  0  0  0  0  0
   -0.9183   -0.5789    1.9139 O   0  0  0  0  0  0  0  0  0  0  0  0
   -0.8461   -1.8275    2.5256 C   0  0  0  0  0  0  0  0  0  0  0  0
   -1.9467   -1.1487   -0.3981 N   0  0  0  0  0  0  0  0  0  0  0  0
   -3.2092   -0.4442   -0.5043 C   0  0  0  0  0  0  0  0  0  0  0  0
   -3.4188    0.6354    0.4945 C   0  0  0  0  0  0  0  0  0  0  0  0
   -2.2396    1.5698    0.4841 C   0  0  0  0  0  0  0  0  0  0  0  0
   -2.6221    2.8976    0.3059 O   0  0  0  0  0  0  0  0  0  0  0  0
   -4.6990    1.3708    0.0644 C   0  0  0  0  0  0  0  0  0  0  0  0
   -4.5309    1.8992   -1.2164 O   0  0  0  0  0  0  0  0  0  0  0  0
   -5.1034    2.2949    0.9963 O   0  0  0  0  0  0  0  0  0  0  0  0
   -1.9803   -2.2506   -1.2923 C   0  0  0  0  0  0  0  0  0  0  0  0
   -0.9648   -3.3787   -1.2075 C   0  0  0  0  0  0  0  0  0  0  0  0
   -1.0951   -2.4971   -2.4232 C   0  0  0  0  0  0  0  0  0  0  0  0
    0.2748    2.8442    1.4318 F   0  0  0  0  0  0  0  0  0  0  0  0
    4.4702    0.7799   -2.8174 H   0  0  0  0  0  0  0  0  0  0  0  0
    4.3103   -0.9788   -2.2997 H   0  0  0  0  0  0  0  0  0  0  0  0
    5.8035   -0.0594   -1.9838 H   0  0  0  0  0  0  0  0  0  0  0  0
    4.1057    1.5452   -0.6765 H   0  0  0  0  0  0  0  0  0  0  0  0
    2.9470   -1.2840   -0.5723 H   0  0  0  0  0  0  0  0  0  0  0  0
    2.1402    0.1243   -1.2762 H   0  0  0  0  0  0  0  0  0  0  0  0
    3.6471    1.2610    1.9443 H   0  0  0  0  0  0  0  0  0  0  0  0
    2.9177   -0.1780    2.8402 H   0  0  0  0  0  0  0  0  0  0  0  0
    4.2349   -1.6770    1.2913 H   0  0  0  0  0  0  0  0  0  0  0  0
    5.2448   -0.6087    2.3142 H   0  0  0  0  0  0  0  0  0  0  0  0
    5.7385    0.7831    0.6343 H   0  0  0  0  0  0  0  0  0  0  0  0
   -0.4279    3.0451   -0.8147 H   0  0  0  0  0  0  0  0  0  0  0  0
    0.2114   -1.9349    2.9075 H   0  0  0  0  0  0  0  0  0  0  0  0
   -0.9112   -2.5977    1.7104 H   0  0  0  0  0  0  0  0  0  0  0  0
   -1.5986   -1.9742    3.2971 H   0  0  0  0  0  0  0  0  0  0  0  0
   -3.3935   -0.1209   -1.5564 H   0  0  0  0  0  0  0  0  0  0  0  0
   -3.0271   -2.6824   -1.4332 H   0  0  0  0  0  0  0  0  0  0  0  0
   -0.1105   -3.2878   -0.5408 H   0  0  0  0  0  0  0  0  0  0  0  0
   -1.3178   -4.4446   -1.2699 H   0  0  0  0  0  0  0  0  0  0  0  0
   -0.2484   -1.8776   -2.7448 H   0  0  0  0  0  0  0  0  0  0  0  0
   -1.4993   -3.0602   -3.3188 H   0  0  0  0  0  0  0  0  0  0  0  0
    1.0083    0.7477    2.2150 H   0  0  0  0  0  0  0  0  0  0  0  0
    1.7909    2.3554    0.2278 H   0  0  0  0  0  0  0  0  0  0  0  0
    0.4143    1.7389   -1.6591 H   0  0  0  0  0  0  0  0  0  0  0  0
   -1.8221    1.1737   -1.5752 H   0  0  0  0  0  0  0  0  0  0  0  0
   -0.1766   -0.4715   -1.3168 H   0  0  0  0  0  0  0  0  0  0  0  0
    0.5073   -1.4300    0.7948 H   0  0  0  0  0  0  0  0  0  0  0  0
   -4.0050   -1.2257   -0.3202 H   0  0  0  0  0  0  0  0  0  0  0  0
   -3.6501    0.2210    1.4954 H   0  0  0  0  0  0  0  0  0  0  0  0
   -1.7777    1.5358    1.4915 H   0  0  0  0  0  0  0  0  0  0  0  0
   -2.4405    3.2490   -0.5787 H   0  0  0  0  0  0  0  0  0  0  0  0
   -5.4778    0.5822   -0.0217 H   0  0  0  0  0  0  0  0  0  0  0  0
   -5.1343    2.6796   -1.2849 H   0  0  0  0  0  0  0  0  0  0  0  0
   -5.6935    1.8309    1.6460 H   0  0  0  0  0  0  0  0  0  0  0  0
    1.0083    0.7477    2.2150 H   0  0  0  0  0  0  0  0  0  0  0  0
    1.7909    2.3554    0.2278 H   0  0  0  0  0  0  0  0  0  0  0  0
    0.4143    1.7389   -1.6591 H   0  0  0  0  0  0  0  0  0  0  0  0
   -1.8221    1.1737   -1.5752 H   0  0  0  0  0  0  0  0  0  0  0  0
   -0.1766   -0.4715   -1.3168 H   0  0  0  0  0  0  0  0  0  0  0  0
    0.5073   -1.4300    0.7948 H   0  0  0  0  0  0  0  0  0  0  0  0
   -4.0050   -1.2257   -0.3202 H   0  0  0  0  0  0  0  0  0  0  0  0
   -3.6501    0.2210    1.4954 H   0  0  0  0  0  0  0  0  0  0  0  0
   -1.7777    1.5358    1.4915 H   0  0  0  0  0  0  0  0  0  0  0  0
   -2.4405    3.2490   -0.5787 H   0  0  0  0  0  0  0  0  0  0  0  0
   -5.4778    0.5822   -0.0217 H   0  0  0  0  0  0  0  0  0  0  0  0
   -5.1343    2.6796   -1.2849 H   0  0  0  0  0  0  0  0  0  0  0  0
   -5.6935    1.8309    1.6460 H   0  0  0  0  0  0  0  0  0  0  0  0
  1  2  1  0
  2  3  1  0
  3  4  1  0
  4  5  1  0
  5  6  1  0
  2  7  1  0
  6  7  1  0
  4  8  1  0
  8  9  1  0
  9 10  1  0
 10 11  1  0
 11 12  1  0
  8 13  1  0
 12 13  1  0
 13 14  1  0
 14 15  1  0
 12 16  1  0
 16 17  1  0
 17 18  1  0
 11 19  1  0
 18 19  1  0
 19 20  1  0
 18 21  1  0
 21 22  1  0
 21 23  1  0
 16 24  1  0
 24 25  1  0
 24 26  1  0
 25 26  1  0
  9 27  1  0
  1 28  1  0
  1 29  1  0
  1 30  1  0
  2 31  1  6
  3 32  1  0
  3 33  1  0
  5 34  1  0
  5 35  1  0
  6 36  1  0
  6 37  1  0
  7 38  1  0
 10 39  1  0
 15 40  1  0
 15 41  1  0
 15 42  1  0
 17 43  1  0
 24 44  1  0
 25 45  1  0
 25 46  1  0
 26 47  1  0
 26 48  1  0
 49 50  1  0
 50 51  1  0
 51 52  1  0
 52 53  1  0
 53 54  1  0
 50 55  1  0
 54 55  1  0
 52 56  1  0
 56 57  1  0
 57 58  1  0
 58 59  1  0
 59 60  1  0
 56 61  1  0
 60 61  1  0
 61 62  1  0
 62 63  1  0
 60 64  1  0
 64 65  1  0
 65 66  1  0
 59 67  1  0
 66 67  1  0
 67 68  1  0
 66 69  1  0
 69 70  1  0
 69 71  1  0
 64 72  1  0
 72 73  1  0
 72 74  1  0
 73 74  1  0
 57 75  1  0
 49 76  1  0
 49 77  1  0
 49 78  1  0
 50 79  1  6
 51 80  1  0
 51 81  1  0
 53 82  1  0
 53 83  1  0
 54 84  1  0
 54 85  1  0
 55 86  1  0
 58 87  1  0
 63 88  1  0
 63 89  1  0
 63 90  1  0
 65 91  1  0
 72 92  1  0
 73 93  1  0
 73 94  1  0
 74 95  1  0
 74 96  1  0
  8 97  1  0
  9 98  1  0
 10 99  1  0
 11100  1  0
 12101  1  0
 13102  1  0
 17103  1  0
 18104  1  0
 19105  1  0
 20106  1  0
 21107  1  0
 22108  1  0
 23109  1  0
 56110  1  0
 57111  1  0
 58112  1  0
 59113  1  0
 60114  1  0
 61115  1  0
 65116  1  0
 66117  1  0
 67118  1  0
 68119  1  0
 69120  1  0
 70121  1  0
 71122  1  0
M  END
>  <PDBID>  (1) 
5BTF

>  <PDB ID>  (1) 
5BTF

>  <Generic Name>  (1) 
Gatifloxacin

>  <Brand Name>  (1) 
Apo-gatifloxacin#Gatifloxacin#Tequin#Tequin IV#Zymar#Zymaxid

>  <DrugBank ID>  (1) 
DB01044

>  <ATC Codes>  (1) 
S01AE06#J01MA16

>  <Ligand ID>  (1) 
GFN

>  <Target Name>  (1) 
DNA gyrase subunit A

>  <UniProt ID>  (1) 
P72524

>  <PDB ID.1>  (1) 
5BTF

>  <Seq. Identity>  (1) 
53%

$$$$
