PDB_DB08865_09
     RDKit          3D

 68 71  0  0  0  0  0  0  0  0999 V2000
   -4.9220    2.6513    0.7369 Cl  0  0  0  0  0  0  0  0  0  0  0  0
   -4.9888    0.9524    1.1310 C   0  0  0  0  0  0  0  0  0  0  0  0
   -6.3052    0.5808    1.7852 C   0  0  0  0  0  0  0  0  0  0  0  0
   -7.3934    1.1110    0.8787 C   0  0  0  0  0  0  0  0  0  0  0  0
   -7.0575    0.9874   -0.5783 C   0  0  0  0  0  0  0  0  0  0  0  0
   -8.2247    0.5108   -1.2013 F   0  0  0  0  0  0  0  0  0  0  0  0
   -4.7927    0.0132   -0.0407 C   0  0  0  0  0  0  0  0  0  0  0  0
   -6.0239   -0.1086   -0.8518 C   0  0  0  0  0  0  0  0  0  0  0  0
   -5.7714   -0.2526   -2.5911 Cl  0  0  0  0  0  0  0  0  0  0  0  0
   -3.5286    0.3139   -0.7601 C   0  0  1  0  0  0  0  0  0  0  0  0
   -3.3870    1.6753   -1.3549 C   0  0  0  0  0  0  0  0  0  0  0  0
   -2.5100    0.1436    0.1707 O   0  0  0  0  0  0  0  0  0  0  0  0
   -1.5950   -0.8278   -0.1515 C   0  0  0  0  0  0  0  0  0  0  0  0
   -0.2639   -0.1900   -0.2890 C   0  0  0  0  0  0  0  0  0  0  0  0
   -1.5521   -1.9933    0.7732 C   0  0  0  0  0  0  0  0  0  0  0  0
   -1.4569   -1.6382    2.1687 N   0  0  0  0  0  0  0  0  0  0  0  0
   -0.3347   -2.7203    0.4539 N   0  0  0  0  0  0  0  0  0  0  0  0
    0.7351   -1.9982    1.1262 C   0  0  0  0  0  0  0  0  0  0  0  0
    0.6951   -0.5321    0.8317 C   0  0  0  0  0  0  0  0  0  0  0  0
    1.9740    0.1548    0.6124 C   0  0  0  0  0  0  0  0  0  0  0  0
    3.0569   -0.0858    1.6235 C   0  0  0  0  0  0  0  0  0  0  0  0
    2.7149   -0.1448   -0.6622 C   0  0  0  0  0  0  0  0  0  0  0  0
    3.9339    0.6227   -0.3766 N   0  0  0  0  0  0  0  0  0  0  0  0
    4.2451    0.3783    0.9415 N   0  0  0  0  0  0  0  0  0  0  0  0
    5.0332    0.3213   -1.2218 C   0  0  0  0  0  0  0  0  0  0  0  0
    5.9257    1.5653   -1.3667 C   0  0  0  0  0  0  0  0  0  0  0  0
    7.3505    1.1345   -1.4921 C   0  0  0  0  0  0  0  0  0  0  0  0
    7.7709    0.5666   -0.2309 N   0  0  0  0  0  0  0  0  0  0  0  0
    6.9215   -0.4814    0.2417 C   0  0  0  0  0  0  0  0  0  0  0  0
    5.8146   -0.8401   -0.7042 C   0  0  0  0  0  0  0  0  0  0  0  0
   -4.1545    0.7284    1.8575 H   0  0  0  0  0  0  0  0  0  0  0  0
   -6.3321   -0.5290    1.8619 H   0  0  0  0  0  0  0  0  0  0  0  0
   -6.3105    1.0617    2.7843 H   0  0  0  0  0  0  0  0  0  0  0  0
   -7.4969    2.2083    1.1128 H   0  0  0  0  0  0  0  0  0  0  0  0
   -8.3339    0.6056    1.1744 H   0  0  0  0  0  0  0  0  0  0  0  0
   -6.8109    1.9294   -1.0760 H   0  0  0  0  0  0  0  0  0  0  0  0
   -4.5926   -0.9863    0.4654 H   0  0  0  0  0  0  0  0  0  0  0  0
   -6.5719   -1.0537   -0.5490 H   0  0  0  0  0  0  0  0  0  0  0  0
   -3.4342   -0.4009   -1.6130 H   0  0  0  0  0  0  0  0  0  0  0  0
   -4.3144    2.1624   -1.6670 H   0  0  0  0  0  0  0  0  0  0  0  0
   -2.8472    2.3833   -0.6911 H   0  0  0  0  0  0  0  0  0  0  0  0
   -2.7234    1.6438   -2.2767 H   0  0  0  0  0  0  0  0  0  0  0  0
   -1.9177   -1.2180   -1.1381 H   0  0  0  0  0  0  0  0  0  0  0  0
   -0.3866    0.9048   -0.4077 H   0  0  0  0  0  0  0  0  0  0  0  0
    0.1769   -0.5253   -1.2656 H   0  0  0  0  0  0  0  0  0  0  0  0
   -2.4085   -2.6980    0.6263 H   0  0  0  0  0  0  0  0  0  0  0  0
   -1.3650   -2.4607    2.7808 H   0  0  0  0  0  0  0  0  0  0  0  0
   -2.1481   -0.9374    2.4803 H   0  0  0  0  0  0  0  0  0  0  0  0
   -0.3466   -3.6810    0.8538 H   0  0  0  0  0  0  0  0  0  0  0  0
    1.6892   -2.4216    0.7685 H   0  0  0  0  0  0  0  0  0  0  0  0
    0.6508   -2.2470    2.2013 H   0  0  0  0  0  0  0  0  0  0  0  0
    0.2446   -0.0523    1.7483 H   0  0  0  0  0  0  0  0  0  0  0  0
    1.7848    1.2531    0.6092 H   0  0  0  0  0  0  0  0  0  0  0  0
    3.1306   -1.1549    1.9206 H   0  0  0  0  0  0  0  0  0  0  0  0
    2.8820    0.5170    2.5319 H   0  0  0  0  0  0  0  0  0  0  0  0
    3.0229   -1.1926   -0.7567 H   0  0  0  0  0  0  0  0  0  0  0  0
    2.1835    0.2079   -1.5569 H   0  0  0  0  0  0  0  0  0  0  0  0
    4.6477    1.2459    1.3917 H   0  0  0  0  0  0  0  0  0  0  0  0
    4.6344    0.1549   -2.2499 H   0  0  0  0  0  0  0  0  0  0  0  0
    5.8463    2.1976   -0.4577 H   0  0  0  0  0  0  0  0  0  0  0  0
    5.6431    2.1852   -2.2186 H   0  0  0  0  0  0  0  0  0  0  0  0
    7.5535    0.4087   -2.2841 H   0  0  0  0  0  0  0  0  0  0  0  0
    7.9627    2.0756   -1.6105 H   0  0  0  0  0  0  0  0  0  0  0  0
    8.7849    0.3557   -0.1836 H   0  0  0  0  0  0  0  0  0  0  0  0
    7.5624   -1.3950    0.3553 H   0  0  0  0  0  0  0  0  0  0  0  0
    6.5845   -0.2216    1.2614 H   0  0  0  0  0  0  0  0  0  0  0  0
    5.1548   -1.5740   -0.2136 H   0  0  0  0  0  0  0  0  0  0  0  0
    6.2917   -1.3500   -1.5771 H   0  0  0  0  0  0  0  0  0  0  0  0
  1  2  1  0
  2  3  1  0
  3  4  1  0
  4  5  1  0
  5  6  1  0
  2  7  1  0
  5  8  1  0
  7  8  1  0
  8  9  1  0
  7 10  1  0
 10 11  1  0
 10 12  1  0
 12 13  1  0
 13 14  1  0
 13 15  1  0
 15 16  1  0
 15 17  1  0
 17 18  1  0
 14 19  1  0
 18 19  1  0
 19 20  1  0
 20 21  1  0
 20 22  1  0
 22 23  1  0
 21 24  1  0
 23 24  1  0
 23 25  1  0
 25 26  1  0
 26 27  1  0
 27 28  1  0
 28 29  1  0
 25 30  1  0
 29 30  1  0
  2 31  1  0
  3 32  1  0
  3 33  1  0
  4 34  1  0
  4 35  1  0
  5 36  1  0
  7 37  1  0
  8 38  1  0
 10 39  1  6
 11 40  1  0
 11 41  1  0
 11 42  1  0
 13 43  1  0
 14 44  1  0
 14 45  1  0
 15 46  1  0
 16 47  1  0
 16 48  1  0
 17 49  1  0
 18 50  1  0
 18 51  1  0
 19 52  1  0
 20 53  1  0
 21 54  1  0
 21 55  1  0
 22 56  1  0
 22 57  1  0
 24 58  1  0
 25 59  1  0
 26 60  1  0
 26 61  1  0
 27 62  1  0
 27 63  1  0
 28 64  1  0
 29 65  1  0
 29 66  1  0
 30 67  1  0
 30 68  1  0
M  END
>  <PDBID>  (1) 
4ANQ

>  <PDB ID>  (1) 
4ANQ

>  <Generic Name>  (1) 
Crizotinib

>  <Brand Name>  (1) 
Xalkori

>  <DrugBank ID>  (1) 
DB08865

>  <ATC Codes>  (1) 
L01XE16

>  <Ligand ID>  (1) 
VGH

>  <Target Name>  (1) 
ALK tyrosine kinase receptor

>  <UniProt ID>  (1) 
Q9UM73

>  <PDB ID.1>  (1) 
4ANQ

>  <Seq. Identity>  (1) 
100%

$$$$
