PDB_DB01336_06
     RDKit          3D

  0  0  0  0  0  0  0  0  0  0999 V3000
M  V30 BEGIN CTAB
M  V30 COUNTS 960 1008 0 0 0
M  V30 BEGIN ATOM
M  V30 1 N -4.88691 -2.50389 0.670107 0 CHG=1
M  V30 2 C -5.98298 -2.19721 -0.200961 0
M  V30 3 C -6.0646 -0.67213 -0.360245 0
M  V30 4 C -4.84546 -0.335216 -1.19465 0
M  V30 5 C -3.63397 -0.655009 -0.387037 0
M  V30 6 C -3.62134 -1.97885 0.264696 0 CFG=2
M  V30 7 C -4.84423 1.01959 -1.76469 0
M  V30 8 C -4.18794 2.08963 -0.967894 0
M  V30 9 C -2.90212 1.65021 -0.296537 0
M  V30 10 C -3.32355 0.480321 0.602461 0
M  V30 11 O -2.38703 2.69726 0.397504 0
M  V30 12 C -1.20908 2.48255 1.05137 0
M  V30 13 C -1.00233 3.68546 1.98573 0
M  V30 14 C 0.077375 3.22654 2.9709 0
M  V30 15 C 1.33463 3.05683 2.20232 0
M  V30 16 C 1.21989 2.13164 1.01307 0
M  V30 17 C -0.00443321 2.40625 0.175362 0
M  V30 18 C 2.49807 2.36569 0.195641 0
M  V30 19 C 2.86658 1.11371 -0.593906 0 CFG=1
M  V30 20 N 3.51693 1.52868 -1.78186 0 CHG=1
M  V30 21 C 4.64971 0.730146 -2.18362 0
M  V30 22 C 5.65694 0.761809 -1.07981 0
M  V30 23 C 5.08157 0.533872 0.285305 0 CFG=1
M  V30 24 C 3.62054 0.17115 0.287631 0
M  V30 25 C 5.94641 -0.401524 1.06417 0
M  V30 26 C 5.44414 -1.79636 1.1476 0
M  V30 27 C 4.60792 -2.11749 -0.0712287 0
M  V30 28 C 3.32916 -1.27607 0.0579171 0
M  V30 29 O 2.48747 -1.51007 -1.03248 0
M  V30 30 C 1.19045 -1.80202 -0.706671 0
M  V30 31 C 0.359341 -1.54689 -1.97281 0
M  V30 32 C -0.861725 -2.41065 -2.02736 0
M  V30 33 C -1.3953 -2.50149 -0.591459 0
M  V30 34 C -0.4407 -3.46577 0.117869 0
M  V30 35 C 0.985292 -3.26939 -0.328382 0
M  V30 36 C -2.81037 -2.98529 -0.566023 0
M  V30 37 O -4.01372 3.23037 -1.73334 0
M  V30 38 C -4.71813 4.32343 -1.27308 0
M  V30 39 O -2.16007 4.02524 2.63669 0
M  V30 40 O 4.62335 -1.93884 2.26426 0
M  V30 41 C 5.09099 -2.9367 3.11899 0
M  V30 42 O 4.29286 -3.45919 -0.0116962 0
M  V30 43 C -4.83102 -3.97519 0.742931 0
M  V30 44 C 3.99228 2.91531 -1.73617 0
M  V30 45 C 2.5768 1.49375 -2.91619 0
M  V30 46 C 4.71976 -4.15655 -1.14134 0
M  V30 47 C -5.25819 -2.06728 2.00753 0
M  V30 48 C -2.53682 5.35008 2.41412 0
M  V30 49 N -4.8901 -2.66944 0.905431 0 CHG=1
M  V30 50 C -5.63591 -2.63382 -0.315032 0
M  V30 51 C -5.92835 -1.31978 -0.896041 0
M  V30 52 C -5.20171 -0.131798 -0.388918 0 CFG=1
M  V30 53 C -4.2503 -0.401724 0.723457 0 CFG=1
M  V30 54 C -3.70107 -1.80905 0.748003 0 CFG=2
M  V30 55 C -4.60892 0.69853 -1.5339 0
M  V30 56 C -4.03659 1.95687 -0.877722 0 CFG=1
M  V30 57 C -2.76582 1.43491 -0.182266 0
M  V30 58 C -3.25691 0.656703 1.00526 0
M  V30 59 O -1.99101 2.49225 0.0980735 0
M  V30 60 C -1.32554 2.57118 1.26775 0
M  V30 61 C -1.13632 4.06715 1.57607 0
M  V30 62 C 0.223289 4.52611 1.05279 0
M  V30 63 C 0.495986 3.80624 -0.244564 0
M  V30 64 C 0.884127 2.35573 0.0735106 0 CFG=2
M  V30 65 C 0.0570212 1.95984 1.27591 0
M  V30 66 C 2.35806 2.24848 0.334688 0
M  V30 67 C 3.03057 1.1372 -0.473788 0 CFG=1
M  V30 68 N 3.85756 1.67184 -1.49896 0 CHG=1
M  V30 69 C 4.93045 0.796537 -1.91955 0
M  V30 70 C 5.8394 0.566122 -0.760182 0
M  V30 71 C 5.13895 0.269086 0.533482 0 CFG=1
M  V30 72 C 3.64987 0.0858212 0.404467 0 CFG=2
M  V30 73 C 5.83854 -0.831871 1.22682 0
M  V30 74 C 5.20707 -2.17582 1.15553 0 CFG=1
M  V30 75 C 4.41105 -2.25633 -0.127863 0
M  V30 76 C 3.21981 -1.31304 0.0876777 0 CFG=2
M  V30 77 O 2.40167 -1.44681 -1.00958 0
M  V30 78 C 1.05968 -1.62663 -0.712704 0
M  V30 79 C 0.292157 -1.34459 -1.98847 0
M  V30 80 C -1.08391 -1.96676 -1.9669 0
M  V30 81 C -1.51325 -2.01086 -0.508551 0
M  V30 82 C -0.704497 -3.14517 0.121652 0
M  V30 83 C 0.731915 -3.04933 -0.301305 0
M  V30 84 C -3.00067 -2.29053 -0.452704 0
M  V30 85 O -3.63418 2.86759 -1.83333 0
M  V30 86 C -4.29946 4.06923 -1.63 0
M  V30 87 O -1.28675 4.32983 2.91401 0
M  V30 88 O 6.0976 -3.20992 1.29972 0
M  V30 89 C 5.78476 -3.99056 2.41075 0
M  V30 90 O 3.93694 -3.55168 -0.230552 0
M  V30 91 C -4.42471 -4.05555 1.08105 0
M  V30 92 C 4.44911 2.95831 -1.20594 0
M  V30 93 C 3.04951 1.89678 -2.71454 0
M  V30 94 C 4.34566 -4.13948 -1.44935 0
M  V30 95 C -5.66698 -2.33969 2.05525 0
M  V30 96 C -2.31337 5.24885 3.11328 0
M  V30 97 N -5.1448 -2.42114 0.47839 0 CHG=1
M  V30 98 C -6.20249 -2.01042 -0.382828 0
M  V30 99 C -6.18343 -0.480403 -0.504089 0
M  V30 100 C -4.93668 -0.209845 -1.34123 0
M  V30 101 C -3.74846 -0.649926 -0.546043 0
M  V30 102 C -3.85031 -1.90859 0.182171 0 CFG=2
M  V30 103 C -4.85703 1.14189 -1.898 0
M  V30 104 C -4.01587 2.14381 -1.21583 0
M  V30 105 C -2.85184 1.56927 -0.433262 0
M  V30 106 C -3.43471 0.508428 0.410502 0
M  V30 107 O -2.17778 2.56713 0.17917 0
M  V30 108 C -1.1168 2.21241 0.964438 0
M  V30 109 C -1.02676 3.22643 2.09264 0
M  V30 110 C -0.0339524 2.62706 3.09708 0
M  V30 111 C 1.28865 2.58855 2.41051 0
M  V30 112 C 1.24368 1.70264 1.14729 0
M  V30 113 C 0.224373 2.29608 0.21641 0
M  V30 114 C 2.65101 1.69575 0.645376 0
M  V30 115 C 2.90715 1.20288 -0.723256 0 CFG=1
M  V30 116 N 3.93688 2.08835 -1.29134 0 CHG=1
M  V30 117 C 4.44747 1.70772 -2.55458 0
M  V30 118 C 3.98354 0.402246 -3.09363 0
M  V30 119 C 4.05605 -0.643756 -2.02596 0
M  V30 120 C 3.094 -0.24424 -0.92751 0 CFG=1
M  V30 121 C 5.4573 -0.860879 -1.60615 0
M  V30 122 C 5.6267 -1.60517 -0.312059 0
M  V30 123 C 4.26456 -2.27855 -0.0887864 0
M  V30 124 C 3.32028 -1.12911 0.256587 0 CFG=2
M  V30 125 O 2.25999 -1.73345 0.808915 0
M  V30 126 C 1.05072 -1.86118 0.31131 0
M  V30 127 C 0.833611 -2.9885 -0.694424 0
M  V30 128 C -0.560435 -2.90658 -1.29737 0
M  V30 129 C -1.52079 -2.49792 -0.207563 0
M  V30 130 C -0.985636 -3.11361 1.07516 0
M  V30 131 C 0.163755 -2.24994 1.51815 0
M  V30 132 C -2.93699 -2.96512 -0.47253 0
M  V30 133 O -3.5132 3.13532 -2.03146 0
M  V30 134 C -3.90877 4.40668 -1.70201 0
M  V30 135 O -2.25855 3.46332 2.67544 0
M  V30 136 O 5.91415 -0.826223 0.7792 0
M  V30 137 C 7.03641 -1.27542 1.43769 0
M  V30 138 O 4.4162 -3.06632 1.0549 0
M  V30 139 C -5.16602 -3.8959 0.48019 0
M  V30 140 C 4.97752 2.3983 -0.315947 0
M  V30 141 C 3.2566 3.38336 -1.5117 0
M  V30 142 C 4.18626 -4.40627 0.83335 0
M  V30 143 C -5.56219 -2.05961 1.84712 0
M  V30 144 C -2.52913 4.83321 2.54236 0
M  V30 145 N -4.98251 -2.10203 0.762188 0 CHG=1
M  V30 146 C -5.9993 -1.78512 -0.182415 0
M  V30 147 C -5.93454 -0.305718 -0.58539 0
M  V30 148 C -4.63461 -0.160407 -1.32162 0
M  V30 149 C -3.51279 -0.476512 -0.376171 0
M  V30 150 C -3.65232 -1.71722 0.408475 0 CFG=2
M  V30 151 C -4.43924 1.11346 -2.03197 0
M  V30 152 C -3.80619 2.2308 -1.29619 0
M  V30 153 C -2.67647 1.80491 -0.359 0
M  V30 154 C -3.29652 0.740949 0.536071 0
M  V30 155 O -2.29191 2.92723 0.312544 0
M  V30 156 C -1.04472 2.93277 0.858747 0 CFG=1
M  V30 157 C -1.18568 2.97322 2.36322 0 CFG=1
M  V30 158 C 0.134998 2.97072 3.08487 0
M  V30 159 C 1.22605 3.15405 2.06067 0
M  V30 160 C 1.23018 2.02571 1.0384 0
M  V30 161 C -0.114383 1.87665 0.362692 0
M  V30 162 C 2.34498 2.33781 0.0745943 0
M  V30 163 C 2.82868 1.11453 -0.675962 0 CFG=1
M  V30 164 N 3.45598 1.53667 -1.87495 0 CHG=1
M  V30 165 C 4.54879 0.694962 -2.31361 0
M  V30 166 C 5.60487 0.720091 -1.25893 0
M  V30 167 C 5.08245 0.526466 0.132637 0
M  V30 168 C 3.62076 0.185952 0.20357 0
M  V30 169 C 5.97109 -0.410613 0.862249 0
M  V30 170 C 5.46289 -1.7986 1.01818 0
M  V30 171 C 4.55717 -2.12189 -0.137235 0
M  V30 172 C 3.29768 -1.26084 0.0486846 0
M  V30 173 O 2.41081 -1.54768 -0.979734 0
M  V30 174 C 1.12924 -1.82839 -0.599122 0
M  V30 175 C 0.265103 -1.65356 -1.85635 0
M  V30 176 C -0.96948 -2.49025 -1.78069 0
M  V30 177 C -1.43212 -2.43394 -0.318747 0
M  V30 178 C -0.494256 -3.41409 0.400108 0
M  V30 179 C 0.921414 -3.26724 -0.154694 0
M  V30 180 C -2.86527 -2.84766 -0.254982 0
M  V30 181 O -3.3448 3.2066 -2.16105 0
M  V30 182 C -3.92013 4.43671 -1.98745 0
M  V30 183 O -1.90876 4.12716 2.65882 0
M  V30 184 O 4.76178 -1.89616 2.20256 0
M  V30 185 C 5.30337 -2.89363 3.01323 0
M  V30 186 O 4.22534 -3.46047 -0.0460195 0
M  V30 187 C -5.01874 -3.56374 0.948111 0
M  V30 188 C 3.96259 2.89796 -1.84382 0
M  V30 189 C 2.48509 1.52195 -2.98601 0
M  V30 190 C 4.57579 -4.1493 -1.20372 0
M  V30 191 C -5.39148 -1.55311 2.05618 0
M  V30 192 C -3.09366 3.83134 3.332 0
M  V30 193 N -5.02687 -2.85115 0.890329 0 CHG=1
M  V30 194 C -5.88381 -2.7539 -0.269251 0
M  V30 195 C -6.01386 -1.38097 -0.825079 0
M  V30 196 C -5.23981 -0.361263 -0.073963 0 CFG=1
M  V30 197 C -3.81625 -0.835837 0.212841 0
M  V30 198 C -3.74395 -2.23307 0.695574 0 CFG=2
M  V30 199 C -5.0616 0.913681 -0.910645 0
M  V30 200 C -4.3414 1.96515 -0.0950091 0
M  V30 201 C -2.98211 1.435 0.311842 0
M  V30 202 C -3.25295 0.190592 1.171 0
M  V30 203 O -2.20119 2.33648 0.959904 0
M  V30 204 C -1.28712 3.01657 0.173816 0 CFG=1
M  V30 205 C -0.484823 3.89836 1.13537 0
M  V30 206 C 0.494052 4.75632 0.366686 0
M  V30 207 C 0.648704 4.22534 -1.03378 0
M  V30 208 C 0.90798 2.71263 -1.03191 0 CFG=2
M  V30 209 C -0.409169 2.09304 -0.628317 0
M  V30 210 C 2.05191 2.38154 -0.156794 0
M  V30 211 C 2.97817 1.28311 -0.702261 0 CFG=1
M  V30 212 N 4.01342 1.84525 -1.50531 0 CHG=1
M  V30 213 C 5.25257 1.09443 -1.52968 0
M  V30 214 C 5.81559 0.832563 -0.186113 0
M  V30 215 C 4.79289 0.585964 0.874264 0 CFG=1
M  V30 216 C 3.39435 0.333735 0.367301 0
M  V30 217 C 5.27113 -0.459177 1.80672 0
M  V30 218 C 5.01095 -1.87148 1.40537 0 CFG=1
M  V30 219 C 4.37565 -1.97139 0.0250748 0
M  V30 220 C 3.11681 -1.11999 0.0941489 0 CFG=2
M  V30 221 O 2.29114 -1.34356 -1.00433 0
M  V30 222 C 1.00534 -1.71729 -0.687722 0
M  V30 223 C 0.147923 -1.49103 -1.88491 0
M  V30 224 C -1.15396 -2.22247 -1.89865 0
M  V30 225 C -1.53817 -2.48734 -0.454221 0
M  V30 226 C -0.54288 -3.51917 0.0367149 0
M  V30 227 C 0.878244 -3.15785 -0.234181 0
M  V30 228 C -2.91161 -3.04759 -0.302074 0
M  V30 229 O -4.10484 3.03989 -0.956589 0
M  V30 230 C -4.71794 4.2115 -0.52182 0
M  V30 231 O -1.43479 4.6689 1.81251 0
M  V30 232 O 6.12343 -2.68894 1.51562 0
M  V30 233 C 5.90972 -3.71027 2.43867 0
M  V30 234 O 4.00582 -3.30869 -0.118307 0
M  V30 235 C -4.7995 -4.2739 1.12386 0
M  V30 236 C 4.39901 3.19699 -1.13663 0
M  V30 237 C 3.60348 1.94407 -2.91998 0
M  V30 238 C 4.58622 -3.91283 -1.21904 0
M  V30 239 C -5.65616 -2.32512 2.08395 0
M  V30 240 C -1.4547 4.40911 3.17701 0
M  V30 241 N -4.95872 -2.21109 0.814833 0 CHG=1
M  V30 242 C -5.78659 -2.17484 -0.383576 0
M  V30 243 C -6.08676 -0.740648 -0.648977 0
M  V30 244 C -4.79896 -0.0189492 -1.0366 0 CFG=2
M  V30 245 C -3.62385 -0.409805 -0.217524 0
M  V30 246 C -3.66595 -1.68422 0.505617 0 CFG=2
M  V30 247 C -5.11293 1.43781 -1.00509 0
M  V30 248 C -3.93443 2.35512 -1.07931 0
M  V30 249 C -2.7359 1.86334 -0.27356 0
M  V30 250 C -3.28581 0.806944 0.662796 0
M  V30 251 O -2.16705 2.92261 0.284769 0
M  V30 252 C -0.950166 2.91766 0.844873 0
M  V30 253 C -1.11218 3.11366 2.34552 0 CFG=1
M  V30 254 C 0.191071 3.15418 3.08084 0
M  V30 255 C 1.30116 3.2846 2.06809 0
M  V30 256 C 1.33675 2.06866 1.13339 0 CFG=1
M  V30 257 C 0.00215945 1.84488 0.468145 0
M  V30 258 C 2.45257 2.33282 0.171116 0
M  V30 259 C 2.85075 1.10119 -0.636859 0 CFG=1
M  V30 260 N 3.44487 1.52249 -1.86401 0 CHG=1
M  V30 261 C 4.5276 0.695027 -2.33223 0
M  V30 262 C 5.61328 0.711129 -1.29677 0
M  V30 263 C 5.11816 0.491942 0.100442 0 CFG=1
M  V30 264 C 3.65345 0.14734 0.188649 0
M  V30 265 C 6.01026 -0.451874 0.83234 0
M  V30 266 C 5.50348 -1.84124 0.955033 0
M  V30 267 C 4.59945 -2.14787 -0.219351 0
M  V30 268 C 3.33632 -1.29698 -0.00862035 0
M  V30 269 O 2.4424 -1.56462 -1.03565 0
M  V30 270 C 1.15626 -1.80877 -0.645985 0
M  V30 271 C 0.272824 -1.57394 -1.88227 0
M  V30 272 C -0.974086 -2.41496 -1.81559 0
M  V30 273 C -1.43175 -2.34806 -0.3517 0
M  V30 274 C -0.489745 -3.32123 0.369344 0
M  V30 275 C 0.904932 -3.2674 -0.239904 0
M  V30 276 C -2.86433 -2.76184 -0.199086 0
M  V30 277 O -3.58114 2.72924 -2.34997 0
M  V30 278 C -3.76577 4.07135 -2.62757 0
M  V30 279 O -1.8219 4.31797 2.48124 0
M  V30 280 O 4.75012 -2.02182 2.10793 0
M  V30 281 C 5.25382 -3.06177 2.89941 0
M  V30 282 O 4.25542 -3.48545 -0.128195 0
M  V30 283 C -4.86651 -3.63879 1.1639 0
M  V30 284 C 3.94659 2.89473 -1.82222 0
M  V30 285 C 2.44581 1.52538 -2.9488 0
M  V30 286 C 4.60565 -4.16416 -1.29381 0
M  V30 287 C -5.61403 -1.58344 1.9256 0
M  V30 288 C -3.03953 4.11538 3.12726 0
M  V30 289 N -4.85988 -2.66977 0.968332 0 CHG=1
M  V30 290 C -6.07419 -2.28732 0.341606 0
M  V30 291 C -6.20652 -0.787203 0.182506 0
M  V30 292 C -5.07044 -0.40513 -0.764431 0
M  V30 293 C -3.75978 -0.766518 -0.159142 0
M  V30 294 C -3.66844 -2.1025 0.450185 0 CFG=2
M  V30 295 C -5.14335 0.985261 -1.24843 0
M  V30 296 C -4.54191 2.03126 -0.373314 0
M  V30 297 C -3.11927 1.56901 -0.029315 0
M  V30 298 C -3.34548 0.32387 0.841713 0
M  V30 299 O -2.38485 2.52018 0.610777 0
M  V30 300 C -1.3193 3.04887 -0.0733664 0 CFG=1
M  V30 301 C -0.518299 3.86526 0.932566 0
M  V30 302 C 0.475359 4.66933 0.162988 0
M  V30 303 C 0.765434 4.06299 -1.20011 0
M  V30 304 C 0.922139 2.53955 -1.09273 0 CFG=2
M  V30 305 C -0.487892 2.03689 -0.806552 0
M  V30 306 C 1.91811 2.12107 -0.0839121 0
M  V30 307 C 3.03174 1.21684 -0.575137 0 CFG=1
M  V30 308 N 4.08489 1.9299 -1.22748 0 CHG=1
M  V30 309 C 5.28766 1.11356 -1.32405 0
M  V30 310 C 5.87704 0.726482 -0.0278473 0
M  V30 311 C 4.85075 0.493465 1.00896 0
M  V30 312 C 3.45349 0.258147 0.500829 0
M  V30 313 C 5.25501 -0.644413 1.90551 0
M  V30 314 C 5.22357 -1.97548 1.24936 0
M  V30 315 C 4.42058 -2.02226 -0.0107047 0 CFG=2
M  V30 316 C 3.16785 -1.19484 0.188557 0 CFG=2
M  V30 317 O 2.33707 -1.38768 -0.893756 0
M  V30 318 C 1.03297 -1.69673 -0.605018 0
M  V30 319 C 0.28038 -1.57257 -1.93621 0
M  V30 320 C -0.97466 -2.3984 -1.96736 0
M  V30 321 C -1.49933 -2.5266 -0.573228 0
M  V30 322 C -0.556487 -3.47087 0.162567 0
M  V30 323 C 0.867705 -3.1108 -0.130648 0
M  V30 324 C -2.92815 -3.03943 -0.518702 0
M  V30 325 O -4.53264 3.24943 -1.02691 0
M  V30 326 C -5.21304 4.25026 -0.35927 0
M  V30 327 O -1.41064 4.63844 1.66047 0
M  V30 328 O 4.6542 -2.88559 2.14675 0
M  V30 329 C 5.52299 -3.93289 2.43472 0
M  V30 330 O 3.97507 -3.35861 -0.147946 0
M  V30 331 C -4.79767 -4.14123 0.927631 0
M  V30 332 C 4.46666 3.17735 -0.656464 0
M  V30 333 C 3.75829 2.21123 -2.64106 0
M  V30 334 C 4.37076 -3.92541 -1.33498 0
M  V30 335 C -4.98616 -2.34968 2.40013 0
M  V30 336 C -1.46909 4.28737 2.99529 0
M  V30 337 N -4.96766 -2.7606 0.581534 0 CHG=1
M  V30 338 C -6.03496 -2.32002 -0.249779 0
M  V30 339 C -6.0858 -0.787439 -0.171265 0
M  V30 340 C -4.8461 -0.344911 -0.934956 0
M  V30 341 C -3.65575 -0.791541 -0.139851 0
M  V30 342 C -3.69007 -2.17721 0.342775 0 CFG=2
M  V30 343 C -4.83644 1.06571 -1.33172 0
M  V30 344 C -4.2074 2.02467 -0.36406 0
M  V30 345 C -2.97261 1.48415 0.291854 0
M  V30 346 C -3.40687 0.191918 1.00075 0
M  V30 347 O -2.43055 2.3854 1.16551 0
M  V30 348 C -1.30889 3.00255 0.641713 0 CFG=1
M  V30 349 C -0.990141 4.21956 1.47685 0 CFG=1
M  V30 350 C 0.435285 4.61407 1.15347 0
M  V30 351 C 0.851267 4.08939 -0.222654 0
M  V30 352 C 1.0208 2.57402 -0.170252 0 CFG=2
M  V30 353 C -0.112193 2.08162 0.735812 0
M  V30 354 C 2.3751 2.18994 0.351752 0
M  V30 355 C 3.04259 1.09011 -0.46192 0 CFG=1
M  V30 356 N 3.80871 1.60751 -1.54621 0 CHG=1
M  V30 357 C 4.87641 0.727555 -1.98096 0
M  V30 358 C 5.8516 0.596579 -0.863136 0
M  V30 359 C 5.22316 0.317769 0.466226 0
M  V30 360 C 3.74202 0.0789481 0.409666 0
M  V30 361 C 5.98979 -0.738968 1.16486 0
M  V30 362 C 5.36192 -2.08313 1.20262 0
M  V30 363 C 4.55317 -2.26125 -0.0681727 0
M  V30 364 C 3.33949 -1.33809 0.123953 0
M  V30 365 O 2.47651 -1.47297 -0.949247 0
M  V30 366 C 1.16964 -1.75703 -0.623844 0
M  V30 367 C 0.355692 -1.51508 -1.87652 0
M  V30 368 C -0.914214 -2.28561 -1.94962 0
M  V30 369 C -1.39651 -2.52875 -0.533442 0
M  V30 370 C -0.422525 -3.56738 0.0408576 0
M  V30 371 C 0.997676 -3.19095 -0.214816 0
M  V30 372 C -2.80223 -3.05906 -0.551606 0
M  V30 373 O -3.88279 3.23146 -0.964983 0
M  V30 374 C -4.59077 4.30208 -0.432756 0
M  V30 375 O -1.87711 5.25835 1.3106 0
M  V30 376 O 4.45774 -2.12392 2.26261 0
M  V30 377 C 4.72897 -3.17526 3.13429 0
M  V30 378 O 4.13906 -3.56955 -0.116685 0
M  V30 379 C -4.87906 -4.22371 0.421514 0
M  V30 380 C 4.3889 2.90745 -1.34098 0
M  V30 381 C 2.93262 1.76237 -2.72563 0
M  V30 382 C 4.57277 -4.18996 -1.30599 0
M  V30 383 C -5.40471 -2.58315 1.9763 0
M  V30 384 C -2.52674 5.58081 2.52024 0
M  V30 385 H -5.82369 -2.61706 -1.21884 0
M  V30 386 H -6.89731 -2.60972 0.225148 0
M  V30 387 H -7.00815 -0.427721 -0.858133 0
M  V30 388 H -5.97459 -0.264139 0.66997 0
M  V30 389 H -4.86474 -1.0748 -2.05 0
M  V30 390 H -2.76473 -0.621343 -1.11072 0
M  V30 391 H -3.01137 -1.8742 1.21446 0
M  V30 392 H -4.41778 1.00217 -2.79912 0
M  V30 393 H -5.91673 1.33577 -1.9192 0
M  V30 394 H -4.89044 2.37486 -0.137141 0
M  V30 395 H -2.25124 1.24086 -1.09417 0
M  V30 396 H -2.5147 0.119489 1.23023 0
M  V30 397 H -4.22611 0.819884 1.12659 0
M  V30 398 H -1.19897 1.59667 1.72035 0
M  V30 399 H -0.630743 4.56444 1.42363 0
M  V30 400 H 0.198355 4.03601 3.69088 0
M  V30 401 H -0.262505 2.28503 3.44701 0
M  V30 402 H 2.18823 2.6906 2.80802 0
M  V30 403 H 1.6413 4.05539 1.80505 0
M  V30 404 H 1.22908 1.09501 1.38274 0
M  V30 405 H -0.135993 1.4995 -0.483001 0
M  V30 406 H 0.125851 3.25491 -0.498733 0
M  V30 407 H 2.29583 3.22899 -0.433371 0
M  V30 408 H 3.31882 2.50571 0.931341 0
M  V30 409 H 1.90636 0.636038 -0.860855 0
M  V30 410 H 4.39616 -0.260229 -2.56157 0
M  V30 411 H 5.10298 1.27564 -3.06541 0
M  V30 412 H 6.19276 1.75561 -1.15632 0
M  V30 413 H 6.4854 0.0183622 -1.27688 0
M  V30 414 H 5.14381 1.5305 0.82067 0
M  V30 415 H 3.27328 0.39244 1.34521 0
M  V30 416 H 6.15087 -0.0329845 2.10353 0
M  V30 417 H 6.96852 -0.44262 0.585933 0
M  V30 418 H 6.26665 -2.53711 1.24866 0
M  V30 419 H 5.12704 -1.93838 -1.01526 0
M  V30 420 H 2.79041 -1.76057 0.929295 0
M  V30 421 H 0.788126 -1.22361 0.156615 0
M  V30 422 H -0.000519684 -0.482403 -1.86092 0
M  V30 423 H 0.968767 -1.56342 -2.87585 0
M  V30 424 H -1.59532 -1.96938 -2.71404 0
M  V30 425 H -0.591486 -3.45421 -2.30232 0
M  V30 426 H -1.22836 -1.52401 -0.126741 0
M  V30 427 H -0.539116 -3.21785 1.20542 0
M  V30 428 H -0.798535 -4.49984 -0.0499366 0
M  V30 429 H 1.61413 -3.47488 0.585477 0
M  V30 430 H 1.24294 -3.94084 -1.16072 0
M  V30 431 H -3.23761 -3.09804 -1.57901 0
M  V30 432 H -2.81739 -3.98522 -0.103035 0
M  V30 433 H -4.49436 5.16599 -1.9688 0
M  V30 434 H -5.82086 4.14564 -1.38733 0
M  V30 435 H -4.43842 4.65721 -0.266572 0
M  V30 436 H 5.13234 -3.92543 2.61078 0
M  V30 437 H 4.39469 -3.02157 3.95286 0
M  V30 438 H 6.07496 -2.62932 3.50846 0
M  V30 439 H -4.80076 -4.43477 -0.249391 0
M  V30 440 H -5.83386 -4.26044 1.17868 0
M  V30 441 H -4.08571 -4.32662 1.45664 0
M  V30 442 H 4.31078 3.22513 -0.74323 0
M  V30 443 H 4.8915 3.03063 -2.40523 0
M  V30 444 H 3.23243 3.60963 -2.20162 0
M  V30 445 H 2.80337 2.28645 -3.65252 0
M  V30 446 H 1.5658 1.64525 -2.45211 0
M  V30 447 H 2.58583 0.480066 -3.32409 0
M  V30 448 H 4.18657 -3.66665 -2.00797 0
M  V30 449 H 5.79668 -4.1044 -1.31276 0
M  V30 450 H 4.37082 -5.19998 -1.14358 0
M  V30 451 H -4.64774 -1.20483 2.34237 0
M  V30 452 H -5.10245 -2.86307 2.76474 0
M  V30 453 H -6.33513 -1.7965 2.06498 0
M  V30 454 H -2.7165 5.59175 1.36658 0
M  V30 455 H -1.70835 6.03811 2.75461 0
M  V30 456 H -3.42562 5.62796 3.01484 0
M  V30 457 H -5.07337 -3.30056 -1.03801 0
M  V30 458 H -6.57533 -3.23684 -0.117529 0
M  V30 459 H -5.72878 -1.38221 -2.01037 0
M  V30 460 H -7.05278 -1.17447 -0.872893 0
M  V30 461 H -5.98648 0.588956 0.0089467 0
M  V30 462 H -4.90146 -0.424686 1.66581 0
M  V30 463 H -3.04393 -1.88899 1.61869 0
M  V30 464 H -5.46821 0.944325 -2.19141 0
M  V30 465 H -3.79649 0.223305 -2.06002 0
M  V30 466 H -4.77209 2.32649 -0.165226 0
M  V30 467 H -2.26698 0.812167 -0.957842 0
M  V30 468 H -2.42417 0.213449 1.61076 0
M  V30 469 H -3.68521 1.44871 1.69585 0
M  V30 470 H -1.84232 2.16387 2.15881 0
M  V30 471 H -1.88179 4.66523 1.01399 0
M  V30 472 H 1.03703 4.32412 1.75138 0
M  V30 473 H 0.15274 5.62905 0.824119 0
M  V30 474 H 1.3453 4.32221 -0.738524 0
M  V30 475 H -0.354627 3.84293 -0.943963 0
M  V30 476 H 0.550284 1.69734 -0.762688 0
M  V30 477 H 0.569468 2.38732 2.18612 0
M  V30 478 H 0.036683 0.875791 1.43399 0
M  V30 479 H 2.54815 1.98611 1.41417 0
M  V30 480 H 2.8065 3.22699 0.177002 0
M  V30 481 H 2.17156 0.616789 -0.994436 0
M  V30 482 H 4.534 -0.109025 -2.37692 0
M  V30 483 H 5.49047 1.34209 -2.70725 0
M  V30 484 H 6.4997 1.48265 -0.690366 0
M  V30 485 H 6.5787 -0.248337 -1.02131 0
M  V30 486 H 5.28158 1.19165 1.17703 0
M  V30 487 H 3.24096 0.29815 1.44298 0
M  V30 488 H 6.01111 -0.607267 2.32098 0
M  V30 489 H 6.88683 -0.937853 0.818516 0
M  V30 490 H 4.45839 -2.24049 1.98325 0
M  V30 491 H 4.97962 -2.0311 -1.02294 0
M  V30 492 H 2.65648 -1.8045 0.938832 0
M  V30 493 H 0.797218 -0.986043 0.128713 0
M  V30 494 H 0.155739 -0.241597 -2.112 0
M  V30 495 H 0.88027 -1.73817 -2.8438 0
M  V30 496 H -1.81126 -1.40489 -2.57895 0
M  V30 497 H -0.956678 -3.01547 -2.36512 0
M  V30 498 H -1.22246 -1.10415 0.0101364 0
M  V30 499 H -0.802476 -2.97902 1.23069 0
M  V30 500 H -1.17044 -4.12246 -0.0983686 0
M  V30 501 H 1.33527 -3.32378 0.612243 0
M  V30 502 H 0.97164 -3.72682 -1.1386 0
M  V30 503 H -3.50305 -2.05833 -1.42248 0
M  V30 504 H -3.04826 -3.42574 -0.417457 0
M  V30 505 H -4.04865 4.44375 -0.620972 0
M  V30 506 H -5.40663 3.949 -1.75974 0
M  V30 507 H -3.97846 4.80857 -2.41988 0
M  V30 508 H 6.47798 -4.82096 2.5492 0
M  V30 509 H 4.76675 -4.45832 2.27302 0
M  V30 510 H 5.71659 -3.32381 3.28049 0
M  V30 511 H -4.57352 -4.65042 0.156296 0
M  V30 512 H -5.05911 -4.57718 1.85723 0
M  V30 513 H -3.39851 -4.09466 1.47647 0
M  V30 514 H 4.80439 3.09514 -0.191945 0
M  V30 515 H 5.35073 3.08444 -1.87557 0
M  V30 516 H 3.77608 3.80849 -1.51834 0
M  V30 517 H 3.60517 2.60114 -3.39064 0
M  V30 518 H 2.09073 2.3593 -2.49007 0
M  V30 519 H 2.96613 0.938382 -3.2788 0
M  V30 520 H 3.93034 -3.51674 -2.29437 0
M  V30 521 H 5.43085 -4.25479 -1.51288 0
M  V30 522 H 3.85867 -5.12598 -1.55696 0
M  V30 523 H -6.18835 -3.2864 2.38821 0
M  V30 524 H -5.07367 -2.01955 2.92096 0
M  V30 525 H -6.52579 -1.64235 1.83111 0
M  V30 526 H -2.05315 6.2025 2.569 0
M  V30 527 H -2.44882 5.52059 4.16483 0
M  V30 528 H -3.26126 4.902 2.6269 0
M  V30 529 H -6.03565 -2.44166 -1.38632 0
M  V30 530 H -7.16168 -2.31674 0.0690007 0
M  V30 531 H -7.09194 -0.107505 -0.99209 0
M  V30 532 H -6.12424 -0.0785787 0.502301 0
M  V30 533 H -5.02076 -0.941482 -2.20191 0
M  V30 534 H -2.89801 -0.689732 -1.29249 0
M  V30 535 H -3.35133 -1.76705 1.19394 0
M  V30 536 H -4.53727 1.11312 -2.98211 0
M  V30 537 H -5.90641 1.56095 -1.95836 0
M  V30 538 H -4.65688 2.66808 -0.445459 0
M  V30 539 H -2.16896 1.11461 -1.20989 0
M  V30 540 H -2.8365 0.100759 1.20794 0
M  V30 541 H -4.3773 0.905423 0.870533 0
M  V30 542 H -1.14504 1.22204 1.40614 0
M  V30 543 H -0.549456 4.12426 1.67065 0
M  V30 544 H -0.350866 1.57002 3.30871 0
M  V30 545 H 0.0524487 3.23797 3.99304 0
M  V30 546 H 2.00674 2.07013 3.0965 0
M  V30 547 H 1.69314 3.57758 2.19071 0
M  V30 548 H 0.859829 0.749009 1.51073 0
M  V30 549 H 0.0701324 1.64887 -0.671213 0
M  V30 550 H 0.455849 3.35108 -0.0371279 0
M  V30 551 H 2.94878 2.79062 0.692491 0
M  V30 552 H 3.26691 1.26367 1.45936 0
M  V30 553 H 1.98269 1.52783 -1.31031 0
M  V30 554 H 4.24294 2.46088 -3.37776 0
M  V30 555 H 5.57672 1.765 -2.47726 0
M  V30 556 H 4.64453 0.109735 -3.93911 0
M  V30 557 H 2.96367 0.529827 -3.51086 0
M  V30 558 H 3.71416 -1.59687 -2.53665 0
M  V30 559 H 2.10167 -0.643159 -1.3306 0
M  V30 560 H 6.09833 0.0300758 -1.55544 0
M  V30 561 H 5.95353 -1.51502 -2.38731 0
M  V30 562 H 6.39076 -2.41076 -0.379925 0
M  V30 563 H 3.97365 -2.84886 -0.96474 0
M  V30 564 H 3.86578 -0.611118 1.08483 0
M  V30 565 H 0.534422 -0.972802 -0.104958 0
M  V30 566 H 0.970761 -3.9923 -0.205683 0
M  V30 567 H 1.54642 -2.96038 -1.53738 0
M  V30 568 H -0.605775 -2.27641 -2.19111 0
M  V30 569 H -0.834519 -3.94053 -1.60336 0
M  V30 570 H -1.44602 -1.41606 -0.0831051 0
M  V30 571 H -1.74185 -3.09438 1.88554 0
M  V30 572 H -0.711975 -4.17535 0.929688 0
M  V30 573 H -0.233341 -1.33258 1.98691 0
M  V30 574 H 0.738931 -2.8133 2.26284 0
M  V30 575 H -3.1552 -3.02955 -1.56553 0
M  V30 576 H -3.0475 -3.94385 -0.00703742 0
M  V30 577 H -3.43687 5.10183 -2.43103 0
M  V30 578 H -5.01091 4.56594 -1.81833 0
M  V30 579 H -3.54856 4.74631 -0.697043 0
M  V30 580 H 7.91614 -1.24623 0.732761 0
M  V30 581 H 6.96424 -2.35195 1.74515 0
M  V30 582 H 7.25046 -0.714461 2.36987 0
M  V30 583 H -4.98762 -4.31197 -0.512545 0
M  V30 584 H -6.24078 -4.14533 0.726898 0
M  V30 585 H -4.57221 -4.31671 1.29365 0
M  V30 586 H 4.89443 3.43883 0.0859986 0
M  V30 587 H 5.97088 2.31027 -0.841281 0
M  V30 588 H 5.00942 1.73309 0.53568 0
M  V30 589 H 3.45607 4.11824 -0.739257 0
M  V30 590 H 2.18032 3.24855 -1.68998 0
M  V30 591 H 3.63276 3.86576 -2.46467 0
M  V30 592 H 3.16845 -4.59893 0.469319 0
M  V30 593 H 4.33748 -4.97941 1.76766 0
M  V30 594 H 4.95855 -4.78489 0.113492 0
M  V30 595 H -5.09713 -1.06942 2.11285 0
M  V30 596 H -5.10165 -2.78897 2.55938 0
M  V30 597 H -6.64585 -2.04999 1.95321 0
M  V30 598 H -2.55345 5.12413 1.45364 0
M  V30 599 H -1.73376 5.43657 3.00737 0
M  V30 600 H -3.54895 5.08053 2.9237 0
M  V30 601 H -5.80604 -2.35369 -1.1254 0
M  V30 602 H -6.97392 -2.0348 0.248545 0
M  V30 603 H -6.81358 -0.0571071 -1.21371 0
M  V30 604 H -6.01152 0.26938 0.338508 0
M  V30 605 H -4.62682 -0.990623 -2.0899 0
M  V30 606 H -2.5888 -0.516357 -1.00678 0
M  V30 607 H -3.10863 -1.55162 1.38902 0
M  V30 608 H -3.9099 0.933117 -3.01094 0
M  V30 609 H -5.46072 1.47575 -2.35797 0
M  V30 610 H -4.56686 2.71277 -0.644539 0
M  V30 611 H -1.87315 1.36326 -0.993928 0
M  V30 612 H -2.64551 0.401894 1.33648 0
M  V30 613 H -4.26096 1.16068 0.88069 0
M  V30 614 H -0.573206 3.92452 0.582594 0
M  V30 615 H -1.76685 2.11784 2.75653 0
M  V30 616 H 0.169575 3.85317 3.754 0
M  V30 617 H 0.301517 2.08725 3.70419 0
M  V30 618 H 2.19591 3.0488 2.61974 0
M  V30 619 H 1.22436 4.14614 1.61133 0
M  V30 620 H 1.40402 1.09571 1.61419 0
M  V30 621 H -0.483243 0.855655 0.408327 0
M  V30 622 H 0.0729918 2.11231 -0.726397 0
M  V30 623 H 1.91791 3.03225 -0.684122 0
M  V30 624 H 3.17538 2.7625 0.65112 0
M  V30 625 H 1.89597 0.559779 -0.958294 0
M  V30 626 H 4.23537 -0.291958 -2.64982 0
M  V30 627 H 4.97151 1.20706 -3.22856 0
M  V30 628 H 6.15328 1.70308 -1.3772 0
M  V30 629 H 6.39681 -0.0402349 -1.52879 0
M  V30 630 H 5.1911 1.52943 0.648616 0
M  V30 631 H 3.30971 0.461809 1.26069 0
M  V30 632 H 6.23799 -0.0337523 1.89363 0
M  V30 633 H 6.96883 -0.47765 0.341913 0
M  V30 634 H 6.28062 -2.54952 1.02512 0
M  V30 635 H 5.01682 -1.95587 -1.11555 0
M  V30 636 H 2.81671 -1.70929 0.972031 0
M  V30 637 H 0.799283 -1.19972 0.230653 0
M  V30 638 H -0.0695233 -0.575381 -1.81443 0
M  V30 639 H 0.84437 -1.75548 -2.77514 0
M  V30 640 H -1.73262 -2.1862 -2.48991 0
M  V30 641 H -0.699246 -3.55138 -2.00598 0
M  V30 642 H -1.21633 -1.45478 0.149845 0
M  V30 643 H -0.514248 -3.13933 1.47484 0
M  V30 644 H -0.861013 -4.45053 0.319072 0
M  V30 645 H 1.58656 -3.51872 0.714797 0
M  V30 646 H 1.0322 -3.94197 -1.00177 0
M  V30 647 H -3.26652 -3.08831 -1.24451 0
M  V30 648 H -2.91949 -3.77678 0.352871 0
M  V30 649 H -3.46495 5.12395 -2.73951 0
M  V30 650 H -5.01204 4.40364 -2.25841 0
M  V30 651 H -3.7432 4.89828 -1.00039 0
M  V30 652 H 5.28253 -3.88633 2.54396 0
M  V30 653 H 4.70375 -2.94208 3.94297 0
M  V30 654 H 6.36377 -2.58637 3.24674 0
M  V30 655 H -4.90257 -4.09704 0.00541591 0
M  V30 656 H -6.07754 -3.76533 1.28847 0
M  V30 657 H -4.37939 -3.8877 1.77233 0
M  V30 658 H 4.42552 3.1841 -0.9044 0
M  V30 659 H 4.75089 2.9825 -2.63303 0
M  V30 660 H 3.17106 3.62736 -2.17811 0
M  V30 661 H 2.96661 2.04894 -3.81577 0
M  V30 662 H 1.53734 2.0173 -2.66007 0
M  V30 663 H 2.32489 0.47436 -3.26197 0
M  V30 664 H 4.0056 -3.663 -2.0458 0
M  V30 665 H 5.64923 -4.04773 -1.44981 0
M  V30 666 H 4.27798 -5.20252 -1.14777 0
M  V30 667 H -4.77011 -0.68013 2.33606 0
M  V30 668 H -5.27553 -2.29046 2.87706 0
M  V30 669 H -6.47932 -1.29409 2.04213 0
M  V30 670 H -2.80874 3.31317 4.27443 0
M  V30 671 H -3.63204 4.74444 3.63965 0
M  V30 672 H -3.76105 3.16124 2.73714 0
M  V30 673 H -5.51878 -3.49696 -1.02115 0
M  V30 674 H -6.89556 -3.12938 0.0642617 0
M  V30 675 H -5.67313 -1.3833 -1.88298 0
M  V30 676 H -7.07982 -1.03857 -0.863438 0
M  V30 677 H -5.73472 -0.0105656 0.864487 0
M  V30 678 H -3.27312 -0.705683 -0.7677 0
M  V30 679 H -3.22688 -2.23941 1.68084 0
M  V30 680 H -6.00528 1.29372 -1.29686 0
M  V30 681 H -4.42189 0.623138 -1.76172 0
M  V30 682 H -4.96658 2.26481 0.758675 0
M  V30 683 H -2.52593 1.02677 -0.628663 0
M  V30 684 H -2.38381 -0.136817 1.72601 0
M  V30 685 H -4.03077 0.52965 1.90957 0
M  V30 686 H -1.86457 3.70419 -0.474088 0
M  V30 687 H 0.00424163 3.27383 1.91161 0
M  V30 688 H 1.4476 4.77239 0.893871 0
M  V30 689 H 0.14105 5.80403 0.27459 0
M  V30 690 H 1.48619 4.74843 -1.52907 0
M  V30 691 H -0.304613 4.40075 -1.58128 0
M  V30 692 H 1.16244 2.45659 -2.07039 0
M  V30 693 H -0.305928 1.10107 -0.151763 0
M  V30 694 H -0.965254 1.9044 -1.59424 0
M  V30 695 H 2.62326 3.26771 0.180204 0
M  V30 696 H 1.64573 1.93455 0.799601 0
M  V30 697 H 2.31139 0.699968 -1.40565 0
M  V30 698 H 5.13569 0.182809 -2.14155 0
M  V30 699 H 5.9677 1.74356 -2.10562 0
M  V30 700 H 6.47844 1.71361 0.0764982 0
M  V30 701 H 6.56471 -0.0082029 -0.255176 0
M  V30 702 H 4.74097 1.53945 1.48524 0
M  V30 703 H 2.73746 0.580717 1.26548 0
M  V30 704 H 4.89431 -0.249107 2.84929 0
M  V30 705 H 6.39014 -0.344536 1.90536 0
M  V30 706 H 4.23777 -2.27303 2.10622 0
M  V30 707 H 5.04131 -1.75997 -0.79408 0
M  V30 708 H 2.54244 -1.61204 0.944323 0
M  V30 709 H 0.655091 -1.04366 0.141583 0
M  V30 710 H -0.0430222 -0.396442 -2.06501 0
M  V30 711 H 0.730156 -1.81534 -2.78607 0
M  V30 712 H -1.91997 -1.70464 -2.47433 0
M  V30 713 H -0.984699 -3.21923 -2.37448 0
M  V30 714 H -1.34806 -1.56521 0.101422 0
M  V30 715 H -0.756726 -3.68113 1.09994 0
M  V30 716 H -0.761124 -4.44857 -0.567758 0
M  V30 717 H 1.42171 -3.31257 0.744155 0
M  V30 718 H 1.35241 -3.77704 -1.03787 0
M  V30 719 H -3.45342 -3.08586 -1.26785 0
M  V30 720 H -2.89029 -4.09907 0.099761 0
M  V30 721 H -4.46656 4.9902 -1.27294 0
M  V30 722 H -5.83292 4.09516 -0.586338 0
M  V30 723 H -4.3795 4.55647 0.454084 0
M  V30 724 H 5.04882 -4.35142 2.14136 0
M  V30 725 H 5.60075 -3.26306 3.42855 0
M  V30 726 H 6.79964 -4.30425 2.63891 0
M  V30 727 H -4.77759 -4.86188 0.197785 0
M  V30 728 H -5.70329 -4.61985 1.69851 0
M  V30 729 H -3.94539 -4.45892 1.80485 0
M  V30 730 H 4.63521 3.33609 -0.0835711 0
M  V30 731 H 5.37534 3.39148 -1.67884 0
M  V30 732 H 3.71855 3.96447 -1.55004 0
M  V30 733 H 4.46562 1.79185 -3.60173 0
M  V30 734 H 3.24075 2.9852 -3.14439 0
M  V30 735 H 2.86178 1.17154 -3.17602 0
M  V30 736 H 4.23699 -3.32528 -2.11855 0
M  V30 737 H 5.67805 -3.95688 -1.19317 0
M  V30 738 H 4.15449 -4.92699 -1.32311 0
M  V30 739 H -5.03271 -1.54932 2.56647 0
M  V30 740 H -6.70293 -1.95817 1.8746 0
M  V30 741 H -5.80336 -3.114 2.8712 0
M  V30 742 H -0.506777 4.60767 3.67969 0
M  V30 743 H -1.83317 3.3658 3.38258 0
M  V30 744 H -2.2251 5.07836 3.61391 0
M  V30 745 H -5.26122 -2.59243 -1.23966 0
M  V30 746 H -6.71861 -2.76202 -0.252318 0
M  V30 747 H -6.60184 -0.264201 0.186982 0
M  V30 748 H -6.78226 -0.699481 -1.51901 0
M  V30 749 H -4.64632 -0.295445 -2.12293 0
M  V30 750 H -2.74218 -0.445393 -0.92817 0
M  V30 751 H -3.14042 -1.53771 1.49709 0
M  V30 752 H -5.76374 1.64996 -1.90311 0
M  V30 753 H -5.77259 1.62952 -0.131448 0
M  V30 754 H -4.30025 3.31324 -0.593323 0
M  V30 755 H -2.07807 1.32578 -1.00935 0
M  V30 756 H -2.58152 0.4456 1.40426 0
M  V30 757 H -4.19996 1.24476 1.10912 0
M  V30 758 H -0.447105 3.88155 0.515522 0
M  V30 759 H -1.73241 2.32065 2.80108 0
M  V30 760 H 0.213874 4.06619 3.70136 0
M  V30 761 H 0.368288 2.30334 3.73695 0
M  V30 762 H 2.25583 3.23984 2.63407 0
M  V30 763 H 1.2914 4.22919 1.52187 0
M  V30 764 H 1.5239 1.1999 1.79623 0
M  V30 765 H -0.35435 0.823472 0.60952 0
M  V30 766 H 0.190767 1.95524 -0.635081 0
M  V30 767 H 2.15273 3.14095 -0.494419 0
M  V30 768 H 3.35124 2.58494 0.790646 0
M  V30 769 H 1.8878 0.606826 -0.887449 0
M  V30 770 H 4.23441 -0.293459 -2.6831 0
M  V30 771 H 4.9351 1.22557 -3.24465 0
M  V30 772 H 6.14895 1.70133 -1.41133 0
M  V30 773 H 6.42759 -0.0380203 -1.52834 0
M  V30 774 H 5.22359 1.48995 0.627024 0
M  V30 775 H 3.37478 0.382387 1.26422 0
M  V30 776 H 6.25298 -0.0886608 1.87252 0
M  V30 777 H 7.01682 -0.500058 0.327692 0
M  V30 778 H 6.32675 -2.59902 0.982688 0
M  V30 779 H 5.05924 -1.97476 -1.18819 0
M  V30 780 H 2.86241 -1.77166 0.905259 0
M  V30 781 H 0.820513 -1.2217 0.22426 0
M  V30 782 H -0.039952 -0.510322 -1.82334 0
M  V30 783 H 0.841194 -1.6924 -2.81085 0
M  V30 784 H -1.73796 -1.96531 -2.47628 0
M  V30 785 H -0.79116 -3.45796 -2.12532 0
M  V30 786 H -1.2008 -1.34796 0.0325104 0
M  V30 787 H -0.477684 -3.15326 1.44532 0
M  V30 788 H -0.882662 -4.33996 0.168981 0
M  V30 789 H 1.60267 -3.51274 0.586928 0
M  V30 790 H 0.990594 -3.905 -1.11797 0
M  V30 791 H -3.25728 -2.94992 -1.23032 0
M  V30 792 H -2.87327 -3.72501 0.325044 0
M  V30 793 H -3.11812 4.62601 -1.88466 0
M  V30 794 H -3.38261 4.36047 -3.61133 0
M  V30 795 H -4.79499 4.42956 -2.41922 0
M  V30 796 H 5.2259 -4.00467 2.29011 0
M  V30 797 H 4.57427 -3.17559 3.75578 0
M  V30 798 H 6.26338 -2.85334 3.27533 0
M  V30 799 H -4.82948 -4.27955 0.271476 0
M  V30 800 H -5.86042 -3.88347 1.6485 0
M  V30 801 H -4.11803 -3.83752 1.9296 0
M  V30 802 H 4.38372 3.1704 -0.865503 0
M  V30 803 H 4.77699 2.98944 -2.58242 0
M  V30 804 H 3.17128 3.61726 -2.19327 0
M  V30 805 H 2.9013 1.93395 -3.86802 0
M  V30 806 H 1.59668 2.14914 -2.57709 0
M  V30 807 H 2.08034 0.485577 -3.05863 0
M  V30 808 H 4.06552 -3.70274 -2.1389 0
M  V30 809 H 5.696 -3.9587 -1.49718 0
M  V30 810 H 4.49726 -5.24443 -1.20648 0
M  V30 811 H -5.6041 -0.503761 1.94691 0
M  V30 812 H -5.10433 -1.95937 2.86053 0
M  V30 813 H -6.64349 -1.99824 1.98309 0
M  V30 814 H -2.79887 3.69505 4.13557 0
M  V30 815 H -3.59252 5.04239 3.29127 0
M  V30 816 H -3.66255 3.35414 2.6154 0
M  V30 817 H -6.17522 -2.72859 -0.678429 0
M  V30 818 H -6.91974 -2.66995 0.950412 0
M  V30 819 H -7.15455 -0.607859 -0.392394 0
M  V30 820 H -6.18366 -0.236121 1.12106 0
M  V30 821 H -5.21301 -1.08392 -1.65776 0
M  V30 822 H -2.99062 -0.671987 -0.984044 0
M  V30 823 H -2.94932 -2.02023 1.32356 0
M  V30 824 H -4.66678 1.03343 -2.26949 0
M  V30 825 H -6.22309 1.23323 -1.44305 0
M  V30 826 H -5.10452 2.11497 0.568834 0
M  V30 827 H -2.68245 1.23468 -0.969031 0
M  V30 828 H -2.44979 0.0454232 1.40181 0
M  V30 829 H -4.15556 0.578749 1.53011 0
M  V30 830 H -1.74429 3.80741 -0.794909 0
M  V30 831 H -0.072213 3.14278 1.64513 0
M  V30 832 H 1.40388 4.82647 0.723939 0
M  V30 833 H 0.0616488 5.69335 -0.0500815 0
M  V30 834 H 1.69369 4.52276 -1.55848 0
M  V30 835 H -0.0820047 4.22659 -1.90062 0
M  V30 836 H 1.2274 2.18353 -2.07377 0
M  V30 837 H -0.500636 1.04867 -0.341953 0
M  V30 838 H -0.974262 1.92176 -1.82126 0
M  V30 839 H 2.26277 2.99406 0.47242 0
M  V30 840 H 1.36659 1.48834 0.677586 0
M  V30 841 H 2.54725 0.580414 -1.3776 0
M  V30 842 H 5.03863 0.294098 -2.0217 0
M  V30 843 H 6.06249 1.7208 -1.88262 0
M  V30 844 H 6.60572 1.53196 0.287703 0
M  V30 845 H 6.55332 -0.15902 -0.212179 0
M  V30 846 H 4.84138 1.40402 1.68149 0
M  V30 847 H 2.8073 0.484485 1.40879 0
M  V30 848 H 4.68405 -0.581091 2.85605 0
M  V30 849 H 6.32623 -0.442348 2.20093 0
M  V30 850 H 6.25699 -2.35529 1.00263 0
M  V30 851 H 4.97187 -1.81121 -0.917272 0
M  V30 852 H 2.64855 -1.71041 1.05536 0
M  V30 853 H 0.607587 -1.01642 0.159769 0
M  V30 854 H 0.0050349 -0.512378 -2.09216 0
M  V30 855 H 0.946375 -1.85217 -2.78214 0
M  V30 856 H -1.69336 -1.94019 -2.67302 0
M  V30 857 H -0.666253 -3.43002 -2.30038 0
M  V30 858 H -1.38024 -1.53926 -0.0805157 0
M  V30 859 H -0.795894 -3.3295 1.25421 0
M  V30 860 H -0.78082 -4.52047 -0.0664228 0
M  V30 861 H 1.41761 -3.30514 0.825698 0
M  V30 862 H 1.31883 -3.787 -0.896983 0
M  V30 863 H -3.41835 -3.0516 -1.50199 0
M  V30 864 H -2.88181 -4.06966 -0.12266 0
M  V30 865 H -5.1298 5.1672 -0.985442 0
M  V30 866 H -6.28439 4.00248 -0.265143 0
M  V30 867 H -4.74598 4.51129 0.614095 0
M  V30 868 H 4.99291 -4.5985 3.14663 0
M  V30 869 H 6.42659 -3.55711 2.9578 0
M  V30 870 H 5.76575 -4.44599 1.4824 0
M  V30 871 H -4.86812 -4.53259 -0.0860644 0
M  V30 872 H -5.74398 -4.46625 1.45238 0
M  V30 873 H -3.97525 -4.53057 1.53685 0
M  V30 874 H 5.57687 3.35382 -0.784915 0
M  V30 875 H 4.01443 4.0528 -1.2094 0
M  V30 876 H 4.26248 3.336 0.392655 0
M  V30 877 H 4.72933 2.31609 -3.21375 0
M  V30 878 H 3.28367 3.20095 -2.75681 0
M  V30 879 H 3.23209 1.38159 -3.11343 0
M  V30 880 H 3.95555 -3.33692 -2.19293 0
M  V30 881 H 5.47208 -3.99702 -1.43011 0
M  V30 882 H 3.91323 -4.92862 -1.39729 0
M  V30 883 H -5.22926 -1.3031 2.57325 0
M  V30 884 H -4.06995 -2.66598 2.91331 0
M  V30 885 H -5.88061 -2.95049 2.73782 0
M  V30 886 H -0.513092 4.38062 3.52704 0
M  V30 887 H -1.91526 3.27611 3.05496 0
M  V30 888 H -2.19828 4.97995 3.47816 0
M  V30 889 H -5.80886 -2.59489 -1.30459 0
M  V30 890 H -6.97098 -2.76527 0.112274 0
M  V30 891 H -6.9973 -0.4534 -0.713975 0
M  V30 892 H -6.08388 -0.457694 0.875151 0
M  V30 893 H -4.84873 -0.975849 -1.87401 0
M  V30 894 H -2.76884 -0.656599 -0.824551 0
M  V30 895 H -3.14828 -2.20024 1.33949 0
M  V30 896 H -4.36773 1.21969 -2.32653 0
M  V30 897 H -5.90633 1.40508 -1.46137 0
M  V30 898 H -4.96817 2.23574 0.413645 0
M  V30 899 H -2.22869 1.14032 -0.476466 0
M  V30 900 H -2.64929 -0.170068 1.69566 0
M  V30 901 H -4.37549 0.466012 1.49901 0
M  V30 902 H -1.51459 3.3282 -0.403145 0
M  V30 903 H -1.03678 3.91008 2.56151 0
M  V30 904 H 1.1193 4.12834 1.87942 0
M  V30 905 H 0.601828 5.69813 1.15802 0
M  V30 906 H 1.81278 4.56125 -0.443684 0
M  V30 907 H 0.117677 4.40339 -0.96182 0
M  V30 908 H 0.824937 2.12008 -1.15784 0
M  V30 909 H -0.388427 1.05575 0.477526 0
M  V30 910 H 0.251802 2.10298 1.76472 0
M  V30 911 H 2.9737 3.09885 0.431591 0
M  V30 912 H 2.31085 1.7805 1.40337 0
M  V30 913 H 2.17421 0.524533 -0.918431 0
M  V30 914 H 4.46274 -0.216681 -2.36596 0
M  V30 915 H 5.39164 1.27504 -2.81246 0
M  V30 916 H 6.46721 1.54605 -0.855468 0
M  V30 917 H 6.61162 -0.185224 -1.16039 0
M  V30 918 H 5.36286 1.26028 1.08109 0
M  V30 919 H 3.36746 0.297776 1.45834 0
M  V30 920 H 6.24448 -0.463821 2.23196 0
M  V30 921 H 7.0057 -0.860023 0.684241 0
M  V30 922 H 6.11453 -2.8992 1.26995 0
M  V30 923 H 5.11391 -2.04267 -0.96899 0
M  V30 924 H 2.79382 -1.81671 0.994501 0
M  V30 925 H 0.775103 -1.09003 0.168302 0
M  V30 926 H 0.16303 -0.422424 -1.99708 0
M  V30 927 H 0.987284 -1.82042 -2.76029 0
M  V30 928 H -1.6452 -1.81239 -2.59871 0
M  V30 929 H -0.698531 -3.29494 -2.39509 0
M  V30 930 H -1.26384 -1.64024 0.121942 0
M  V30 931 H -0.666988 -3.67153 1.12436 0
M  V30 932 H -0.677345 -4.55568 -0.413607 0
M  V30 933 H 1.54474 -3.4082 0.750115 0
M  V30 934 H 1.47971 -3.83274 -0.978593 0
M  V30 935 H -3.22784 -2.99418 -1.57201 0
M  V30 936 H -2.77311 -4.09936 -0.156485 0
M  V30 937 H -4.26041 5.2118 -0.975235 0
M  V30 938 H -5.69156 4.21281 -0.672134 0
M  V30 939 H -4.4203 4.46673 0.634808 0
M  V30 940 H 4.66164 -4.12067 2.57515 0
M  V30 941 H 3.93937 -3.17727 3.9044 0
M  V30 942 H 5.69314 -3.05708 3.66234 0
M  V30 943 H -4.71478 -4.5142 -0.621084 0
M  V30 944 H -5.91911 -4.58557 0.67567 0
M  V30 945 H -4.21795 -4.6814 1.15714 0
M  V30 946 H 4.84038 3.0875 -0.371066 0
M  V30 947 H 5.23316 3.00649 -2.0881 0
M  V30 948 H 3.6857 3.73038 -1.66493 0
M  V30 949 H 3.58128 1.73141 -3.6272 0
M  V30 950 H 2.50481 2.80418 -2.72509 0
M  V30 951 H 2.17605 0.981787 -2.78035 0
M  V30 952 H 4.15668 -3.65657 -2.19675 0
M  V30 953 H 5.6756 -4.14729 -1.4105 0
M  V30 954 H 4.18567 -5.22644 -1.37264 0
M  V30 955 H -5.06889 -1.64366 2.40525 0
M  V30 956 H -4.99071 -3.41156 2.59854 0
M  V30 957 H -6.51044 -2.71281 2.01569 0
M  V30 958 H -3.23187 6.40724 2.38653 0
M  V30 959 H -1.75751 5.88234 3.27298 0
M  V30 960 H -3.05647 4.71584 2.93722 0
M  V30 END ATOM
M  V30 BEGIN BOND
M  V30 1 1 1 2
M  V30 2 1 2 3
M  V30 3 1 3 4
M  V30 4 1 4 5
M  V30 5 1 1 6
M  V30 6 1 5 6
M  V30 7 1 4 7
M  V30 8 1 7 8
M  V30 9 1 8 9
M  V30 10 1 5 10
M  V30 11 1 9 10
M  V30 12 1 9 11
M  V30 13 1 11 12
M  V30 14 1 12 13
M  V30 15 1 13 14
M  V30 16 1 14 15
M  V30 17 1 15 16
M  V30 18 1 12 17
M  V30 19 1 16 17
M  V30 20 1 16 18
M  V30 21 1 18 19
M  V30 22 1 19 20
M  V30 23 1 20 21
M  V30 24 1 21 22
M  V30 25 1 22 23
M  V30 26 1 19 24
M  V30 27 1 23 24
M  V30 28 1 23 25
M  V30 29 1 25 26
M  V30 30 1 26 27
M  V30 31 1 24 28
M  V30 32 1 27 28
M  V30 33 1 28 29
M  V30 34 1 29 30
M  V30 35 1 30 31
M  V30 36 1 31 32
M  V30 37 1 32 33
M  V30 38 1 33 34
M  V30 39 1 30 35
M  V30 40 1 34 35
M  V30 41 1 6 36
M  V30 42 1 33 36
M  V30 43 1 8 37
M  V30 44 1 37 38
M  V30 45 1 13 39
M  V30 46 1 26 40
M  V30 47 1 40 41
M  V30 48 1 27 42
M  V30 49 1 1 43
M  V30 50 1 20 44
M  V30 51 1 20 45
M  V30 52 1 42 46
M  V30 53 1 1 47
M  V30 54 1 39 48
M  V30 55 1 49 50
M  V30 56 1 50 51
M  V30 57 1 51 52
M  V30 58 1 52 53
M  V30 59 1 49 54
M  V30 60 1 53 54
M  V30 61 1 52 55
M  V30 62 1 55 56
M  V30 63 1 56 57
M  V30 64 1 53 58
M  V30 65 1 57 58
M  V30 66 1 57 59
M  V30 67 1 59 60
M  V30 68 1 60 61
M  V30 69 1 61 62
M  V30 70 1 62 63
M  V30 71 1 63 64
M  V30 72 1 60 65
M  V30 73 1 64 65
M  V30 74 1 64 66
M  V30 75 1 66 67
M  V30 76 1 67 68
M  V30 77 1 68 69
M  V30 78 1 69 70
M  V30 79 1 70 71
M  V30 80 1 67 72
M  V30 81 1 71 72
M  V30 82 1 71 73
M  V30 83 1 73 74
M  V30 84 1 74 75
M  V30 85 1 72 76
M  V30 86 1 75 76
M  V30 87 1 76 77
M  V30 88 1 77 78
M  V30 89 1 78 79
M  V30 90 1 79 80
M  V30 91 1 80 81
M  V30 92 1 81 82
M  V30 93 1 78 83
M  V30 94 1 82 83
M  V30 95 1 54 84
M  V30 96 1 81 84
M  V30 97 1 56 85
M  V30 98 1 85 86
M  V30 99 1 61 87
M  V30 100 1 74 88
M  V30 101 1 88 89
M  V30 102 1 75 90
M  V30 103 1 49 91
M  V30 104 1 68 92
M  V30 105 1 68 93
M  V30 106 1 90 94
M  V30 107 1 49 95
M  V30 108 1 87 96
M  V30 109 1 97 98
M  V30 110 1 98 99
M  V30 111 1 99 100
M  V30 112 1 100 101
M  V30 113 1 97 102
M  V30 114 1 101 102
M  V30 115 1 100 103
M  V30 116 1 103 104
M  V30 117 1 104 105
M  V30 118 1 101 106
M  V30 119 1 105 106
M  V30 120 1 105 107
M  V30 121 1 107 108
M  V30 122 1 108 109
M  V30 123 1 109 110
M  V30 124 1 110 111
M  V30 125 1 111 112
M  V30 126 1 108 113
M  V30 127 1 112 113
M  V30 128 1 112 114
M  V30 129 1 114 115
M  V30 130 1 115 116
M  V30 131 1 116 117
M  V30 132 1 117 118
M  V30 133 1 118 119
M  V30 134 1 115 120
M  V30 135 1 119 120
M  V30 136 1 119 121
M  V30 137 1 121 122
M  V30 138 1 122 123
M  V30 139 1 120 124
M  V30 140 1 123 124
M  V30 141 1 124 125
M  V30 142 1 125 126
M  V30 143 1 126 127
M  V30 144 1 127 128
M  V30 145 1 128 129
M  V30 146 1 129 130
M  V30 147 1 126 131
M  V30 148 1 130 131
M  V30 149 1 102 132
M  V30 150 1 129 132
M  V30 151 1 104 133
M  V30 152 1 133 134
M  V30 153 1 109 135
M  V30 154 1 122 136
M  V30 155 1 136 137
M  V30 156 1 123 138
M  V30 157 1 97 139
M  V30 158 1 116 140
M  V30 159 1 116 141
M  V30 160 1 138 142
M  V30 161 1 97 143
M  V30 162 1 135 144
M  V30 163 1 145 146
M  V30 164 1 146 147
M  V30 165 1 147 148
M  V30 166 1 148 149
M  V30 167 1 145 150
M  V30 168 1 149 150
M  V30 169 1 148 151
M  V30 170 1 151 152
M  V30 171 1 152 153
M  V30 172 1 149 154
M  V30 173 1 153 154
M  V30 174 1 153 155
M  V30 175 1 155 156
M  V30 176 1 156 157
M  V30 177 1 157 158
M  V30 178 1 158 159
M  V30 179 1 159 160
M  V30 180 1 156 161
M  V30 181 1 160 161
M  V30 182 1 160 162
M  V30 183 1 162 163
M  V30 184 1 163 164
M  V30 185 1 164 165
M  V30 186 1 165 166
M  V30 187 1 166 167
M  V30 188 1 163 168
M  V30 189 1 167 168
M  V30 190 1 167 169
M  V30 191 1 169 170
M  V30 192 1 170 171
M  V30 193 1 168 172
M  V30 194 1 171 172
M  V30 195 1 172 173
M  V30 196 1 173 174
M  V30 197 1 174 175
M  V30 198 1 175 176
M  V30 199 1 176 177
M  V30 200 1 177 178
M  V30 201 1 174 179
M  V30 202 1 178 179
M  V30 203 1 150 180
M  V30 204 1 177 180
M  V30 205 1 152 181
M  V30 206 1 181 182
M  V30 207 1 157 183
M  V30 208 1 170 184
M  V30 209 1 184 185
M  V30 210 1 171 186
M  V30 211 1 145 187
M  V30 212 1 164 188
M  V30 213 1 164 189
M  V30 214 1 186 190
M  V30 215 1 145 191
M  V30 216 1 183 192
M  V30 217 1 193 194
M  V30 218 1 194 195
M  V30 219 1 195 196
M  V30 220 1 196 197
M  V30 221 1 193 198
M  V30 222 1 197 198
M  V30 223 1 196 199
M  V30 224 1 199 200
M  V30 225 1 200 201
M  V30 226 1 197 202
M  V30 227 1 201 202
M  V30 228 1 201 203
M  V30 229 1 203 204
M  V30 230 1 204 205
M  V30 231 1 205 206
M  V30 232 1 206 207
M  V30 233 1 207 208
M  V30 234 1 204 209
M  V30 235 1 208 209
M  V30 236 1 208 210
M  V30 237 1 210 211
M  V30 238 1 211 212
M  V30 239 1 212 213
M  V30 240 1 213 214
M  V30 241 1 214 215
M  V30 242 1 211 216
M  V30 243 1 215 216
M  V30 244 1 215 217
M  V30 245 1 217 218
M  V30 246 1 218 219
M  V30 247 1 216 220
M  V30 248 1 219 220
M  V30 249 1 220 221
M  V30 250 1 221 222
M  V30 251 1 222 223
M  V30 252 1 223 224
M  V30 253 1 224 225
M  V30 254 1 225 226
M  V30 255 1 222 227
M  V30 256 1 226 227
M  V30 257 1 198 228
M  V30 258 1 225 228
M  V30 259 1 200 229
M  V30 260 1 229 230
M  V30 261 1 205 231
M  V30 262 1 218 232
M  V30 263 1 232 233
M  V30 264 1 219 234
M  V30 265 1 193 235
M  V30 266 1 212 236
M  V30 267 1 212 237
M  V30 268 1 234 238
M  V30 269 1 193 239
M  V30 270 1 231 240
M  V30 271 1 241 242
M  V30 272 1 242 243
M  V30 273 1 243 244
M  V30 274 1 244 245
M  V30 275 1 241 246
M  V30 276 1 245 246
M  V30 277 1 244 247
M  V30 278 1 247 248
M  V30 279 1 248 249
M  V30 280 1 245 250
M  V30 281 1 249 250
M  V30 282 1 249 251
M  V30 283 1 251 252
M  V30 284 1 252 253
M  V30 285 1 253 254
M  V30 286 1 254 255
M  V30 287 1 255 256
M  V30 288 1 252 257
M  V30 289 1 256 257
M  V30 290 1 256 258
M  V30 291 1 258 259
M  V30 292 1 259 260
M  V30 293 1 260 261
M  V30 294 1 261 262
M  V30 295 1 262 263
M  V30 296 1 259 264
M  V30 297 1 263 264
M  V30 298 1 263 265
M  V30 299 1 265 266
M  V30 300 1 266 267
M  V30 301 1 264 268
M  V30 302 1 267 268
M  V30 303 1 268 269
M  V30 304 1 269 270
M  V30 305 1 270 271
M  V30 306 1 271 272
M  V30 307 1 272 273
M  V30 308 1 273 274
M  V30 309 1 270 275
M  V30 310 1 274 275
M  V30 311 1 246 276
M  V30 312 1 273 276
M  V30 313 1 248 277
M  V30 314 1 277 278
M  V30 315 1 253 279
M  V30 316 1 266 280
M  V30 317 1 280 281
M  V30 318 1 267 282
M  V30 319 1 241 283
M  V30 320 1 260 284
M  V30 321 1 260 285
M  V30 322 1 282 286
M  V30 323 1 241 287
M  V30 324 1 279 288
M  V30 325 1 289 290
M  V30 326 1 290 291
M  V30 327 1 291 292
M  V30 328 1 292 293
M  V30 329 1 289 294
M  V30 330 1 293 294
M  V30 331 1 292 295
M  V30 332 1 295 296
M  V30 333 1 296 297
M  V30 334 1 293 298
M  V30 335 1 297 298
M  V30 336 1 297 299
M  V30 337 1 299 300
M  V30 338 1 300 301
M  V30 339 1 301 302
M  V30 340 1 302 303
M  V30 341 1 303 304
M  V30 342 1 300 305
M  V30 343 1 304 305
M  V30 344 1 304 306
M  V30 345 1 306 307
M  V30 346 1 307 308
M  V30 347 1 308 309
M  V30 348 1 309 310
M  V30 349 1 310 311
M  V30 350 1 307 312
M  V30 351 1 311 312
M  V30 352 1 311 313
M  V30 353 1 313 314
M  V30 354 1 314 315
M  V30 355 1 312 316
M  V30 356 1 315 316
M  V30 357 1 316 317
M  V30 358 1 317 318
M  V30 359 1 318 319
M  V30 360 1 319 320
M  V30 361 1 320 321
M  V30 362 1 321 322
M  V30 363 1 318 323
M  V30 364 1 322 323
M  V30 365 1 294 324
M  V30 366 1 321 324
M  V30 367 1 296 325
M  V30 368 1 325 326
M  V30 369 1 301 327
M  V30 370 1 314 328
M  V30 371 1 328 329
M  V30 372 1 315 330
M  V30 373 1 289 331
M  V30 374 1 308 332
M  V30 375 1 308 333
M  V30 376 1 330 334
M  V30 377 1 289 335
M  V30 378 1 327 336
M  V30 379 1 337 338
M  V30 380 1 338 339
M  V30 381 1 339 340
M  V30 382 1 340 341
M  V30 383 1 337 342
M  V30 384 1 341 342
M  V30 385 1 340 343
M  V30 386 1 343 344
M  V30 387 1 344 345
M  V30 388 1 341 346
M  V30 389 1 345 346
M  V30 390 1 345 347
M  V30 391 1 347 348
M  V30 392 1 348 349
M  V30 393 1 349 350
M  V30 394 1 350 351
M  V30 395 1 351 352
M  V30 396 1 348 353
M  V30 397 1 352 353
M  V30 398 1 352 354
M  V30 399 1 354 355
M  V30 400 1 355 356
M  V30 401 1 356 357
M  V30 402 1 357 358
M  V30 403 1 358 359
M  V30 404 1 355 360
M  V30 405 1 359 360
M  V30 406 1 359 361
M  V30 407 1 361 362
M  V30 408 1 362 363
M  V30 409 1 360 364
M  V30 410 1 363 364
M  V30 411 1 364 365
M  V30 412 1 365 366
M  V30 413 1 366 367
M  V30 414 1 367 368
M  V30 415 1 368 369
M  V30 416 1 369 370
M  V30 417 1 366 371
M  V30 418 1 370 371
M  V30 419 1 342 372
M  V30 420 1 369 372
M  V30 421 1 344 373
M  V30 422 1 373 374
M  V30 423 1 349 375
M  V30 424 1 362 376
M  V30 425 1 376 377
M  V30 426 1 363 378
M  V30 427 1 337 379
M  V30 428 1 356 380
M  V30 429 1 356 381
M  V30 430 1 378 382
M  V30 431 1 337 383
M  V30 432 1 375 384
M  V30 433 1 2 385
M  V30 434 1 2 386
M  V30 435 1 3 387
M  V30 436 1 3 388
M  V30 437 1 4 389
M  V30 438 1 5 390
M  V30 439 1 6 391 CFG=1
M  V30 440 1 7 392
M  V30 441 1 7 393
M  V30 442 1 8 394
M  V30 443 1 9 395
M  V30 444 1 10 396
M  V30 445 1 10 397
M  V30 446 1 12 398
M  V30 447 1 13 399
M  V30 448 1 14 400
M  V30 449 1 14 401
M  V30 450 1 15 402
M  V30 451 1 15 403
M  V30 452 1 16 404
M  V30 453 1 17 405
M  V30 454 1 17 406
M  V30 455 1 18 407
M  V30 456 1 18 408
M  V30 457 1 19 409 CFG=3
M  V30 458 1 21 410
M  V30 459 1 21 411
M  V30 460 1 22 412
M  V30 461 1 22 413
M  V30 462 1 23 414 CFG=1
M  V30 463 1 24 415
M  V30 464 1 25 416
M  V30 465 1 25 417
M  V30 466 1 26 418
M  V30 467 1 27 419
M  V30 468 1 28 420
M  V30 469 1 30 421
M  V30 470 1 31 422
M  V30 471 1 31 423
M  V30 472 1 32 424
M  V30 473 1 32 425
M  V30 474 1 33 426
M  V30 475 1 34 427
M  V30 476 1 34 428
M  V30 477 1 35 429
M  V30 478 1 35 430
M  V30 479 1 36 431
M  V30 480 1 36 432
M  V30 481 1 38 433
M  V30 482 1 38 434
M  V30 483 1 38 435
M  V30 484 1 41 436
M  V30 485 1 41 437
M  V30 486 1 41 438
M  V30 487 1 43 439
M  V30 488 1 43 440
M  V30 489 1 43 441
M  V30 490 1 44 442
M  V30 491 1 44 443
M  V30 492 1 44 444
M  V30 493 1 45 445
M  V30 494 1 45 446
M  V30 495 1 45 447
M  V30 496 1 46 448
M  V30 497 1 46 449
M  V30 498 1 46 450
M  V30 499 1 47 451
M  V30 500 1 47 452
M  V30 501 1 47 453
M  V30 502 1 48 454
M  V30 503 1 48 455
M  V30 504 1 48 456
M  V30 505 1 50 457
M  V30 506 1 50 458
M  V30 507 1 51 459
M  V30 508 1 51 460
M  V30 509 1 52 461 CFG=1
M  V30 510 1 53 462 CFG=1
M  V30 511 1 54 463 CFG=1
M  V30 512 1 55 464
M  V30 513 1 55 465
M  V30 514 1 56 466 CFG=1
M  V30 515 1 57 467
M  V30 516 1 58 468
M  V30 517 1 58 469
M  V30 518 1 60 470
M  V30 519 1 61 471
M  V30 520 1 62 472
M  V30 521 1 62 473
M  V30 522 1 63 474
M  V30 523 1 63 475
M  V30 524 1 64 476 CFG=3
M  V30 525 1 65 477
M  V30 526 1 65 478
M  V30 527 1 66 479
M  V30 528 1 66 480
M  V30 529 1 67 481 CFG=3
M  V30 530 1 69 482
M  V30 531 1 69 483
M  V30 532 1 70 484
M  V30 533 1 70 485
M  V30 534 1 71 486 CFG=1
M  V30 535 1 72 487 CFG=1
M  V30 536 1 73 488
M  V30 537 1 73 489
M  V30 538 1 74 490 CFG=1
M  V30 539 1 75 491
M  V30 540 1 76 492 CFG=1
M  V30 541 1 78 493
M  V30 542 1 79 494
M  V30 543 1 79 495
M  V30 544 1 80 496
M  V30 545 1 80 497
M  V30 546 1 81 498
M  V30 547 1 82 499
M  V30 548 1 82 500
M  V30 549 1 83 501
M  V30 550 1 83 502
M  V30 551 1 84 503
M  V30 552 1 84 504
M  V30 553 1 86 505
M  V30 554 1 86 506
M  V30 555 1 86 507
M  V30 556 1 89 508
M  V30 557 1 89 509
M  V30 558 1 89 510
M  V30 559 1 91 511
M  V30 560 1 91 512
M  V30 561 1 91 513
M  V30 562 1 92 514
M  V30 563 1 92 515
M  V30 564 1 92 516
M  V30 565 1 93 517
M  V30 566 1 93 518
M  V30 567 1 93 519
M  V30 568 1 94 520
M  V30 569 1 94 521
M  V30 570 1 94 522
M  V30 571 1 95 523
M  V30 572 1 95 524
M  V30 573 1 95 525
M  V30 574 1 96 526
M  V30 575 1 96 527
M  V30 576 1 96 528
M  V30 577 1 98 529
M  V30 578 1 98 530
M  V30 579 1 99 531
M  V30 580 1 99 532
M  V30 581 1 100 533
M  V30 582 1 101 534
M  V30 583 1 102 535 CFG=1
M  V30 584 1 103 536
M  V30 585 1 103 537
M  V30 586 1 104 538
M  V30 587 1 105 539
M  V30 588 1 106 540
M  V30 589 1 106 541
M  V30 590 1 108 542
M  V30 591 1 109 543
M  V30 592 1 110 544
M  V30 593 1 110 545
M  V30 594 1 111 546
M  V30 595 1 111 547
M  V30 596 1 112 548
M  V30 597 1 113 549
M  V30 598 1 113 550
M  V30 599 1 114 551
M  V30 600 1 114 552
M  V30 601 1 115 553 CFG=3
M  V30 602 1 117 554
M  V30 603 1 117 555
M  V30 604 1 118 556
M  V30 605 1 118 557
M  V30 606 1 119 558
M  V30 607 1 120 559 CFG=3
M  V30 608 1 121 560
M  V30 609 1 121 561
M  V30 610 1 122 562
M  V30 611 1 123 563
M  V30 612 1 124 564 CFG=1
M  V30 613 1 126 565
M  V30 614 1 127 566
M  V30 615 1 127 567
M  V30 616 1 128 568
M  V30 617 1 128 569
M  V30 618 1 129 570
M  V30 619 1 130 571
M  V30 620 1 130 572
M  V30 621 1 131 573
M  V30 622 1 131 574
M  V30 623 1 132 575
M  V30 624 1 132 576
M  V30 625 1 134 577
M  V30 626 1 134 578
M  V30 627 1 134 579
M  V30 628 1 137 580
M  V30 629 1 137 581
M  V30 630 1 137 582
M  V30 631 1 139 583
M  V30 632 1 139 584
M  V30 633 1 139 585
M  V30 634 1 140 586
M  V30 635 1 140 587
M  V30 636 1 140 588
M  V30 637 1 141 589
M  V30 638 1 141 590
M  V30 639 1 141 591
M  V30 640 1 142 592
M  V30 641 1 142 593
M  V30 642 1 142 594
M  V30 643 1 143 595
M  V30 644 1 143 596
M  V30 645 1 143 597
M  V30 646 1 144 598
M  V30 647 1 144 599
M  V30 648 1 144 600
M  V30 649 1 146 601
M  V30 650 1 146 602
M  V30 651 1 147 603
M  V30 652 1 147 604
M  V30 653 1 148 605
M  V30 654 1 149 606
M  V30 655 1 150 607 CFG=1
M  V30 656 1 151 608
M  V30 657 1 151 609
M  V30 658 1 152 610
M  V30 659 1 153 611
M  V30 660 1 154 612
M  V30 661 1 154 613
M  V30 662 1 156 614 CFG=3
M  V30 663 1 157 615 CFG=1
M  V30 664 1 158 616
M  V30 665 1 158 617
M  V30 666 1 159 618
M  V30 667 1 159 619
M  V30 668 1 160 620
M  V30 669 1 161 621
M  V30 670 1 161 622
M  V30 671 1 162 623
M  V30 672 1 162 624
M  V30 673 1 163 625 CFG=3
M  V30 674 1 165 626
M  V30 675 1 165 627
M  V30 676 1 166 628
M  V30 677 1 166 629
M  V30 678 1 167 630
M  V30 679 1 168 631
M  V30 680 1 169 632
M  V30 681 1 169 633
M  V30 682 1 170 634
M  V30 683 1 171 635
M  V30 684 1 172 636
M  V30 685 1 174 637
M  V30 686 1 175 638
M  V30 687 1 175 639
M  V30 688 1 176 640
M  V30 689 1 176 641
M  V30 690 1 177 642
M  V30 691 1 178 643
M  V30 692 1 178 644
M  V30 693 1 179 645
M  V30 694 1 179 646
M  V30 695 1 180 647
M  V30 696 1 180 648
M  V30 697 1 182 649
M  V30 698 1 182 650
M  V30 699 1 182 651
M  V30 700 1 185 652
M  V30 701 1 185 653
M  V30 702 1 185 654
M  V30 703 1 187 655
M  V30 704 1 187 656
M  V30 705 1 187 657
M  V30 706 1 188 658
M  V30 707 1 188 659
M  V30 708 1 188 660
M  V30 709 1 189 661
M  V30 710 1 189 662
M  V30 711 1 189 663
M  V30 712 1 190 664
M  V30 713 1 190 665
M  V30 714 1 190 666
M  V30 715 1 191 667
M  V30 716 1 191 668
M  V30 717 1 191 669
M  V30 718 1 192 670
M  V30 719 1 192 671
M  V30 720 1 192 672
M  V30 721 1 194 673
M  V30 722 1 194 674
M  V30 723 1 195 675
M  V30 724 1 195 676
M  V30 725 1 196 677 CFG=1
M  V30 726 1 197 678
M  V30 727 1 198 679 CFG=1
M  V30 728 1 199 680
M  V30 729 1 199 681
M  V30 730 1 200 682
M  V30 731 1 201 683
M  V30 732 1 202 684
M  V30 733 1 202 685
M  V30 734 1 204 686 CFG=3
M  V30 735 1 205 687
M  V30 736 1 206 688
M  V30 737 1 206 689
M  V30 738 1 207 690
M  V30 739 1 207 691
M  V30 740 1 208 692 CFG=3
M  V30 741 1 209 693
M  V30 742 1 209 694
M  V30 743 1 210 695
M  V30 744 1 210 696
M  V30 745 1 211 697 CFG=3
M  V30 746 1 213 698
M  V30 747 1 213 699
M  V30 748 1 214 700
M  V30 749 1 214 701
M  V30 750 1 215 702 CFG=1
M  V30 751 1 216 703
M  V30 752 1 217 704
M  V30 753 1 217 705
M  V30 754 1 218 706 CFG=1
M  V30 755 1 219 707
M  V30 756 1 220 708 CFG=1
M  V30 757 1 222 709
M  V30 758 1 223 710
M  V30 759 1 223 711
M  V30 760 1 224 712
M  V30 761 1 224 713
M  V30 762 1 225 714
M  V30 763 1 226 715
M  V30 764 1 226 716
M  V30 765 1 227 717
M  V30 766 1 227 718
M  V30 767 1 228 719
M  V30 768 1 228 720
M  V30 769 1 230 721
M  V30 770 1 230 722
M  V30 771 1 230 723
M  V30 772 1 233 724
M  V30 773 1 233 725
M  V30 774 1 233 726
M  V30 775 1 235 727
M  V30 776 1 235 728
M  V30 777 1 235 729
M  V30 778 1 236 730
M  V30 779 1 236 731
M  V30 780 1 236 732
M  V30 781 1 237 733
M  V30 782 1 237 734
M  V30 783 1 237 735
M  V30 784 1 238 736
M  V30 785 1 238 737
M  V30 786 1 238 738
M  V30 787 1 239 739
M  V30 788 1 239 740
M  V30 789 1 239 741
M  V30 790 1 240 742
M  V30 791 1 240 743
M  V30 792 1 240 744
M  V30 793 1 242 745
M  V30 794 1 242 746
M  V30 795 1 243 747
M  V30 796 1 243 748
M  V30 797 1 244 749 CFG=3
M  V30 798 1 245 750
M  V30 799 1 246 751 CFG=1
M  V30 800 1 247 752
M  V30 801 1 247 753
M  V30 802 1 248 754
M  V30 803 1 249 755
M  V30 804 1 250 756
M  V30 805 1 250 757
M  V30 806 1 252 758
M  V30 807 1 253 759 CFG=1
M  V30 808 1 254 760
M  V30 809 1 254 761
M  V30 810 1 255 762
M  V30 811 1 255 763
M  V30 812 1 256 764 CFG=1
M  V30 813 1 257 765
M  V30 814 1 257 766
M  V30 815 1 258 767
M  V30 816 1 258 768
M  V30 817 1 259 769 CFG=3
M  V30 818 1 261 770
M  V30 819 1 261 771
M  V30 820 1 262 772
M  V30 821 1 262 773
M  V30 822 1 263 774 CFG=1
M  V30 823 1 264 775
M  V30 824 1 265 776
M  V30 825 1 265 777
M  V30 826 1 266 778
M  V30 827 1 267 779
M  V30 828 1 268 780
M  V30 829 1 270 781
M  V30 830 1 271 782
M  V30 831 1 271 783
M  V30 832 1 272 784
M  V30 833 1 272 785
M  V30 834 1 273 786
M  V30 835 1 274 787
M  V30 836 1 274 788
M  V30 837 1 275 789
M  V30 838 1 275 790
M  V30 839 1 276 791
M  V30 840 1 276 792
M  V30 841 1 278 793
M  V30 842 1 278 794
M  V30 843 1 278 795
M  V30 844 1 281 796
M  V30 845 1 281 797
M  V30 846 1 281 798
M  V30 847 1 283 799
M  V30 848 1 283 800
M  V30 849 1 283 801
M  V30 850 1 284 802
M  V30 851 1 284 803
M  V30 852 1 284 804
M  V30 853 1 285 805
M  V30 854 1 285 806
M  V30 855 1 285 807
M  V30 856 1 286 808
M  V30 857 1 286 809
M  V30 858 1 286 810
M  V30 859 1 287 811
M  V30 860 1 287 812
M  V30 861 1 287 813
M  V30 862 1 288 814
M  V30 863 1 288 815
M  V30 864 1 288 816
M  V30 865 1 290 817
M  V30 866 1 290 818
M  V30 867 1 291 819
M  V30 868 1 291 820
M  V30 869 1 292 821
M  V30 870 1 293 822
M  V30 871 1 294 823 CFG=1
M  V30 872 1 295 824
M  V30 873 1 295 825
M  V30 874 1 296 826
M  V30 875 1 297 827
M  V30 876 1 298 828
M  V30 877 1 298 829
M  V30 878 1 300 830 CFG=3
M  V30 879 1 301 831
M  V30 880 1 302 832
M  V30 881 1 302 833
M  V30 882 1 303 834
M  V30 883 1 303 835
M  V30 884 1 304 836 CFG=3
M  V30 885 1 305 837
M  V30 886 1 305 838
M  V30 887 1 306 839
M  V30 888 1 306 840
M  V30 889 1 307 841 CFG=3
M  V30 890 1 309 842
M  V30 891 1 309 843
M  V30 892 1 310 844
M  V30 893 1 310 845
M  V30 894 1 311 846
M  V30 895 1 312 847
M  V30 896 1 313 848
M  V30 897 1 313 849
M  V30 898 1 314 850
M  V30 899 1 315 851 CFG=3
M  V30 900 1 316 852 CFG=1
M  V30 901 1 318 853
M  V30 902 1 319 854
M  V30 903 1 319 855
M  V30 904 1 320 856
M  V30 905 1 320 857
M  V30 906 1 321 858
M  V30 907 1 322 859
M  V30 908 1 322 860
M  V30 909 1 323 861
M  V30 910 1 323 862
M  V30 911 1 324 863
M  V30 912 1 324 864
M  V30 913 1 326 865
M  V30 914 1 326 866
M  V30 915 1 326 867
M  V30 916 1 329 868
M  V30 917 1 329 869
M  V30 918 1 329 870
M  V30 919 1 331 871
M  V30 920 1 331 872
M  V30 921 1 331 873
M  V30 922 1 332 874
M  V30 923 1 332 875
M  V30 924 1 332 876
M  V30 925 1 333 877
M  V30 926 1 333 878
M  V30 927 1 333 879
M  V30 928 1 334 880
M  V30 929 1 334 881
M  V30 930 1 334 882
M  V30 931 1 335 883
M  V30 932 1 335 884
M  V30 933 1 335 885
M  V30 934 1 336 886
M  V30 935 1 336 887
M  V30 936 1 336 888
M  V30 937 1 338 889
M  V30 938 1 338 890
M  V30 939 1 339 891
M  V30 940 1 339 892
M  V30 941 1 340 893
M  V30 942 1 341 894
M  V30 943 1 342 895 CFG=1
M  V30 944 1 343 896
M  V30 945 1 343 897
M  V30 946 1 344 898
M  V30 947 1 345 899
M  V30 948 1 346 900
M  V30 949 1 346 901
M  V30 950 1 348 902 CFG=3
M  V30 951 1 349 903 CFG=1
M  V30 952 1 350 904
M  V30 953 1 350 905
M  V30 954 1 351 906
M  V30 955 1 351 907
M  V30 956 1 352 908 CFG=3
M  V30 957 1 353 909
M  V30 958 1 353 910
M  V30 959 1 354 911
M  V30 960 1 354 912
M  V30 961 1 355 913 CFG=3
M  V30 962 1 357 914
M  V30 963 1 357 915
M  V30 964 1 358 916
M  V30 965 1 358 917
M  V30 966 1 359 918
M  V30 967 1 360 919
M  V30 968 1 361 920
M  V30 969 1 361 921
M  V30 970 1 362 922
M  V30 971 1 363 923
M  V30 972 1 364 924
M  V30 973 1 366 925
M  V30 974 1 367 926
M  V30 975 1 367 927
M  V30 976 1 368 928
M  V30 977 1 368 929
M  V30 978 1 369 930
M  V30 979 1 370 931
M  V30 980 1 370 932
M  V30 981 1 371 933
M  V30 982 1 371 934
M  V30 983 1 372 935
M  V30 984 1 372 936
M  V30 985 1 374 937
M  V30 986 1 374 938
M  V30 987 1 374 939
M  V30 988 1 377 940
M  V30 989 1 377 941
M  V30 990 1 377 942
M  V30 991 1 379 943
M  V30 992 1 379 944
M  V30 993 1 379 945
M  V30 994 1 380 946
M  V30 995 1 380 947
M  V30 996 1 380 948
M  V30 997 1 381 949
M  V30 998 1 381 950
M  V30 999 1 381 951
M  V30 1000 1 382 952
M  V30 1001 1 382 953
M  V30 1002 1 382 954
M  V30 1003 1 383 955
M  V30 1004 1 383 956
M  V30 1005 1 383 957
M  V30 1006 1 384 958
M  V30 1007 1 384 959
M  V30 1008 1 384 960
M  V30 END BOND
M  V30 END CTAB
M  END
>  <PDBID>  (1) 
3PEO

>  <PDB ID>  (1) 
3PEO

>  <Generic Name>  (1) 
Metocurine

>  <Brand Name>  (1) 
nan

>  <DrugBank ID>  (1) 
DB01336

>  <ATC Codes>  (1) 
M03AA04

>  <Ligand ID>  (1) 
CU9

>  <Target Name>  (1) 
Neuronal acetylcholine receptor subunit alpha-2

>  <UniProt ID>  (1) 
Q15822

>  <PDB ID.1>  (1) 
3PEO

>  <Seq. Identity>  (1) 
30%

$$$$
