PDB_DB00276_04
     RDKit          3D

138144  0  0  0  0  0  0  0  0999 V2000
    1.6547    0.0068   -2.5347 C   0  0  0  0  0  0  0  0  0  0  0  0
    1.9338    0.5562   -1.3068 O   0  0  0  0  0  0  0  0  0  0  0  0
    1.4878   -0.2179   -0.2235 C   0  0  0  0  0  0  0  0  0  0  0  0
    2.8056   -0.7712    0.3784 C   0  0  0  0  0  0  0  0  0  0  0  0
    3.6500    0.4321    0.6948 C   0  0  0  0  0  0  0  0  0  0  0  0
    5.0211    0.1424    0.9520 N   0  0  0  0  0  0  0  0  0  0  0  0
    5.9743   -0.4960   -0.0196 S   0  0  0  0  0  0  0  0  0  0  0  0
    5.7110   -0.1449   -1.6528 C   0  0  0  0  0  0  0  0  0  0  0  0
    6.0299   -2.1593    0.1083 O   0  0  0  0  0  0  0  0  0  0  0  0
    7.6264    0.0187    0.2548 O   0  0  0  0  0  0  0  0  0  0  0  0
    2.9482    1.1483    1.8409 C   0  0  0  0  0  0  0  0  0  0  0  0
    1.5887    0.5730    2.0854 C   0  0  0  0  0  0  0  0  0  0  0  0
    0.7439    0.5979    0.7871 C   0  0  0  0  0  0  0  0  0  0  0  0
   -0.5380    0.2452    1.1507 N   0  0  0  0  0  0  0  0  0  0  0  0
   -1.6691    0.2175    0.3748 C   0  0  0  0  0  0  0  0  0  0  0  0
   -2.1602    1.4910   -0.2725 C   0  0  0  0  0  0  0  0  0  0  0  0
   -2.5502    2.4119    0.8623 C   0  0  0  0  0  0  0  0  0  0  0  0
   -3.2866    3.6365    0.3795 C   0  0  0  0  0  0  0  0  0  0  0  0
   -4.5940    3.1195   -0.2249 C   0  0  0  0  0  0  0  0  0  0  0  0
   -4.2250    2.3304   -1.4335 C   0  0  0  0  0  0  0  0  0  0  0  0
   -3.3332    1.1603   -1.1720 C   0  0  0  0  0  0  0  0  0  0  0  0
   -4.0574   -0.0051   -0.7085 N   0  0  0  0  0  0  0  0  0  0  0  0
   -3.2366   -1.1632   -0.9929 C   0  0  0  0  0  0  0  0  0  0  0  0
   -3.9226   -2.3688   -0.4614 C   0  0  0  0  0  0  0  0  0  0  0  0
   -3.1470   -3.6469   -0.6718 C   0  0  0  0  0  0  0  0  0  0  0  0
   -1.6583   -3.4326   -0.4781 C   0  0  0  0  0  0  0  0  0  0  0  0
   -1.5024   -2.1947    0.3582 C   0  0  0  0  0  0  0  0  0  0  0  0
   -1.8053   -0.9862   -0.5209 C   0  0  0  0  0  0  0  0  0  0  0  0
    1.6547    0.0068   -2.5347 C   0  0  0  0  0  0  0  0  0  0  0  0
    1.9338    0.5562   -1.3068 O   0  0  0  0  0  0  0  0  0  0  0  0
    1.4878   -0.2179   -0.2235 C   0  0  0  0  0  0  0  0  0  0  0  0
    2.8056   -0.7712    0.3784 C   0  0  0  0  0  0  0  0  0  0  0  0
    3.6500    0.4321    0.6948 C   0  0  0  0  0  0  0  0  0  0  0  0
    5.0211    0.1424    0.9520 N   0  0  0  0  0  0  0  0  0  0  0  0
    5.9743   -0.4960   -0.0196 S   0  0  0  0  0  0  0  0  0  0  0  0
    5.7110   -0.1449   -1.6528 C   0  0  0  0  0  0  0  0  0  0  0  0
    6.0299   -2.1593    0.1083 O   0  0  0  0  0  0  0  0  0  0  0  0
    7.6264    0.0187    0.2548 O   0  0  0  0  0  0  0  0  0  0  0  0
    2.9482    1.1483    1.8409 C   0  0  0  0  0  0  0  0  0  0  0  0
    1.5887    0.5730    2.0854 C   0  0  0  0  0  0  0  0  0  0  0  0
    0.7439    0.5979    0.7871 C   0  0  0  0  0  0  0  0  0  0  0  0
   -0.5380    0.2452    1.1507 N   0  0  0  0  0  0  0  0  0  0  0  0
   -1.6691    0.2175    0.3748 C   0  0  0  0  0  0  0  0  0  0  0  0
   -2.1602    1.4910   -0.2725 C   0  0  0  0  0  0  0  0  0  0  0  0
   -2.5502    2.4119    0.8623 C   0  0  0  0  0  0  0  0  0  0  0  0
   -3.2866    3.6365    0.3795 C   0  0  0  0  0  0  0  0  0  0  0  0
   -4.5940    3.1195   -0.2249 C   0  0  0  0  0  0  0  0  0  0  0  0
   -4.2250    2.3304   -1.4335 C   0  0  0  0  0  0  0  0  0  0  0  0
   -3.3332    1.1603   -1.1720 C   0  0  0  0  0  0  0  0  0  0  0  0
   -4.0574   -0.0051   -0.7085 N   0  0  0  0  0  0  0  0  0  0  0  0
   -3.2366   -1.1632   -0.9929 C   0  0  0  0  0  0  0  0  0  0  0  0
   -3.9226   -2.3688   -0.4614 C   0  0  0  0  0  0  0  0  0  0  0  0
   -3.1470   -3.6469   -0.6718 C   0  0  0  0  0  0  0  0  0  0  0  0
   -1.6583   -3.4326   -0.4781 C   0  0  0  0  0  0  0  0  0  0  0  0
   -1.5024   -2.1947    0.3582 C   0  0  0  0  0  0  0  0  0  0  0  0
   -1.8053   -0.9862   -0.5209 C   0  0  0  0  0  0  0  0  0  0  0  0
    0.5810   -0.1495   -2.7503 H   0  0  0  0  0  0  0  0  0  0  0  0
    2.0097    0.7127   -3.3280 H   0  0  0  0  0  0  0  0  0  0  0  0
    2.2425   -0.9255   -2.7022 H   0  0  0  0  0  0  0  0  0  0  0  0
    0.9936   -1.0984   -0.6132 H   0  0  0  0  0  0  0  0  0  0  0  0
    2.6216   -1.4451    1.2112 H   0  0  0  0  0  0  0  0  0  0  0  0
    3.2422   -1.3901   -0.4441 H   0  0  0  0  0  0  0  0  0  0  0  0
    3.6161    1.0867   -0.2215 H   0  0  0  0  0  0  0  0  0  0  0  0
    5.2277    0.2505    1.9481 H   0  0  0  0  0  0  0  0  0  0  0  0
    6.6472    0.2203   -2.1588 H   0  0  0  0  0  0  0  0  0  0  0  0
    5.3756   -1.0094   -2.2530 H   0  0  0  0  0  0  0  0  0  0  0  0
    4.9728    0.6913   -1.8280 H   0  0  0  0  0  0  0  0  0  0  0  0
    6.9021   -2.4866    0.4288 H   0  0  0  0  0  0  0  0  0  0  0  0
    8.1494   -0.7935    0.4548 H   0  0  0  0  0  0  0  0  0  0  0  0
    2.8137    2.2141    1.5567 H   0  0  0  0  0  0  0  0  0  0  0  0
    3.5155    1.0953    2.7697 H   0  0  0  0  0  0  0  0  0  0  0  0
    1.5533   -0.3903    2.5852 H   0  0  0  0  0  0  0  0  0  0  0  0
    1.0440    1.2974    2.7582 H   0  0  0  0  0  0  0  0  0  0  0  0
    0.8937    1.6659    0.4708 H   0  0  0  0  0  0  0  0  0  0  0  0
   -0.6562   -0.0673    2.1580 H   0  0  0  0  0  0  0  0  0  0  0  0
   -2.5340    0.0135    1.1294 H   0  0  0  0  0  0  0  0  0  0  0  0
   -1.4208    1.9975   -0.8900 H   0  0  0  0  0  0  0  0  0  0  0  0
   -3.2712    1.8439    1.5067 H   0  0  0  0  0  0  0  0  0  0  0  0
   -1.6928    2.6537    1.4768 H   0  0  0  0  0  0  0  0  0  0  0  0
   -3.5526    4.2323    1.2541 H   0  0  0  0  0  0  0  0  0  0  0  0
   -2.7483    4.1807   -0.4089 H   0  0  0  0  0  0  0  0  0  0  0  0
   -5.1809    2.5693    0.5250 H   0  0  0  0  0  0  0  0  0  0  0  0
   -5.1407    4.0268   -0.5688 H   0  0  0  0  0  0  0  0  0  0  0  0
   -5.1652    1.9389   -1.8828 H   0  0  0  0  0  0  0  0  0  0  0  0
   -3.7132    3.0094   -2.1425 H   0  0  0  0  0  0  0  0  0  0  0  0
   -2.8937    0.8678   -2.1674 H   0  0  0  0  0  0  0  0  0  0  0  0
   -4.3639    0.0901    0.2608 H   0  0  0  0  0  0  0  0  0  0  0  0
   -3.2371   -1.2489   -2.1143 H   0  0  0  0  0  0  0  0  0  0  0  0
   -4.8584   -2.4949   -1.0847 H   0  0  0  0  0  0  0  0  0  0  0  0
   -4.2828   -2.2169    0.5593 H   0  0  0  0  0  0  0  0  0  0  0  0
   -3.4795   -4.3747    0.0950 H   0  0  0  0  0  0  0  0  0  0  0  0
   -3.3141   -4.0744   -1.6688 H   0  0  0  0  0  0  0  0  0  0  0  0
   -1.2072   -4.3296    0.0240 H   0  0  0  0  0  0  0  0  0  0  0  0
   -1.1330   -3.2889   -1.4237 H   0  0  0  0  0  0  0  0  0  0  0  0
   -0.5480   -2.1378    0.8794 H   0  0  0  0  0  0  0  0  0  0  0  0
   -2.3320   -2.2412    1.1250 H   0  0  0  0  0  0  0  0  0  0  0  0
   -1.1656   -0.9962   -1.3975 H   0  0  0  0  0  0  0  0  0  0  0  0
    0.5810   -0.1495   -2.7503 H   0  0  0  0  0  0  0  0  0  0  0  0
    2.0097    0.7127   -3.3280 H   0  0  0  0  0  0  0  0  0  0  0  0
    2.2425   -0.9255   -2.7022 H   0  0  0  0  0  0  0  0  0  0  0  0
    0.9936   -1.0984   -0.6132 H   0  0  0  0  0  0  0  0  0  0  0  0
    2.6216   -1.4451    1.2112 H   0  0  0  0  0  0  0  0  0  0  0  0
    3.2422   -1.3901   -0.4441 H   0  0  0  0  0  0  0  0  0  0  0  0
    3.6161    1.0867   -0.2215 H   0  0  0  0  0  0  0  0  0  0  0  0
    5.2277    0.2505    1.9481 H   0  0  0  0  0  0  0  0  0  0  0  0
    6.6472    0.2203   -2.1588 H   0  0  0  0  0  0  0  0  0  0  0  0
    5.3756   -1.0094   -2.2530 H   0  0  0  0  0  0  0  0  0  0  0  0
    4.9728    0.6913   -1.8280 H   0  0  0  0  0  0  0  0  0  0  0  0
    6.9021   -2.4866    0.4288 H   0  0  0  0  0  0  0  0  0  0  0  0
    8.1494   -0.7935    0.4548 H   0  0  0  0  0  0  0  0  0  0  0  0
    2.8137    2.2141    1.5567 H   0  0  0  0  0  0  0  0  0  0  0  0
    3.5155    1.0953    2.7697 H   0  0  0  0  0  0  0  0  0  0  0  0
    1.5533   -0.3903    2.5852 H   0  0  0  0  0  0  0  0  0  0  0  0
    1.0440    1.2974    2.7582 H   0  0  0  0  0  0  0  0  0  0  0  0
    0.8937    1.6659    0.4708 H   0  0  0  0  0  0  0  0  0  0  0  0
   -0.6562   -0.0673    2.1580 H   0  0  0  0  0  0  0  0  0  0  0  0
   -2.5340    0.0135    1.1294 H   0  0  0  0  0  0  0  0  0  0  0  0
   -1.4208    1.9975   -0.8900 H   0  0  0  0  0  0  0  0  0  0  0  0
   -3.2712    1.8439    1.5067 H   0  0  0  0  0  0  0  0  0  0  0  0
   -1.6928    2.6537    1.4768 H   0  0  0  0  0  0  0  0  0  0  0  0
   -3.5526    4.2323    1.2541 H   0  0  0  0  0  0  0  0  0  0  0  0
   -2.7483    4.1807   -0.4089 H   0  0  0  0  0  0  0  0  0  0  0  0
   -5.1809    2.5693    0.5250 H   0  0  0  0  0  0  0  0  0  0  0  0
   -5.1407    4.0268   -0.5688 H   0  0  0  0  0  0  0  0  0  0  0  0
   -5.1652    1.9389   -1.8828 H   0  0  0  0  0  0  0  0  0  0  0  0
   -3.7132    3.0094   -2.1425 H   0  0  0  0  0  0  0  0  0  0  0  0
   -2.8937    0.8678   -2.1674 H   0  0  0  0  0  0  0  0  0  0  0  0
   -4.3639    0.0901    0.2608 H   0  0  0  0  0  0  0  0  0  0  0  0
   -3.2371   -1.2489   -2.1143 H   0  0  0  0  0  0  0  0  0  0  0  0
   -4.8584   -2.4949   -1.0847 H   0  0  0  0  0  0  0  0  0  0  0  0
   -4.2828   -2.2169    0.5593 H   0  0  0  0  0  0  0  0  0  0  0  0
   -3.4795   -4.3747    0.0950 H   0  0  0  0  0  0  0  0  0  0  0  0
   -3.3141   -4.0744   -1.6688 H   0  0  0  0  0  0  0  0  0  0  0  0
   -1.2072   -4.3296    0.0240 H   0  0  0  0  0  0  0  0  0  0  0  0
   -1.1330   -3.2889   -1.4237 H   0  0  0  0  0  0  0  0  0  0  0  0
   -0.5480   -2.1378    0.8794 H   0  0  0  0  0  0  0  0  0  0  0  0
   -2.3320   -2.2412    1.1250 H   0  0  0  0  0  0  0  0  0  0  0  0
   -1.1656   -0.9962   -1.3975 H   0  0  0  0  0  0  0  0  0  0  0  0
  1  2  1  0
  2  3  1  0
  3  4  1  0
  4  5  1  0
  5  6  1  0
  6  7  1  0
  7  8  1  0
  7  9  1  0
  7 10  1  0
  5 11  1  0
 11 12  1  0
  3 13  1  0
 12 13  1  0
 13 14  1  0
 14 15  1  0
 15 16  1  0
 16 17  1  0
 17 18  1  0
 18 19  1  0
 19 20  1  0
 16 21  1  0
 20 21  1  0
 21 22  1  0
 22 23  1  0
 23 24  1  0
 24 25  1  0
 25 26  1  0
 26 27  1  0
 15 28  1  0
 23 28  1  0
 27 28  1  0
 29 30  1  0
 30 31  1  0
 31 32  1  0
 32 33  1  0
 33 34  1  0
 34 35  1  0
 35 36  1  0
 35 37  1  0
 35 38  1  0
 33 39  1  0
 39 40  1  0
 31 41  1  0
 40 41  1  0
 41 42  1  0
 42 43  1  0
 43 44  1  0
 44 45  1  0
 45 46  1  0
 46 47  1  0
 47 48  1  0
 44 49  1  0
 48 49  1  0
 49 50  1  0
 50 51  1  0
 51 52  1  0
 52 53  1  0
 53 54  1  0
 54 55  1  0
 43 56  1  0
 51 56  1  0
 55 56  1  0
  1 57  1  0
  1 58  1  0
  1 59  1  0
  3 60  1  0
  4 61  1  0
  4 62  1  0
  5 63  1  0
  6 64  1  0
  8 65  1  0
  8 66  1  0
  8 67  1  0
  9 68  1  0
 10 69  1  0
 11 70  1  0
 11 71  1  0
 12 72  1  0
 12 73  1  0
 13 74  1  0
 14 75  1  0
 15 76  1  0
 16 77  1  0
 17 78  1  0
 17 79  1  0
 18 80  1  0
 18 81  1  0
 19 82  1  0
 19 83  1  0
 20 84  1  0
 20 85  1  0
 21 86  1  0
 22 87  1  0
 23 88  1  0
 24 89  1  0
 24 90  1  0
 25 91  1  0
 25 92  1  0
 26 93  1  0
 26 94  1  0
 27 95  1  0
 27 96  1  0
 28 97  1  0
 29 98  1  0
 29 99  1  0
 29100  1  0
 31101  1  0
 32102  1  0
 32103  1  0
 33104  1  0
 34105  1  0
 36106  1  0
 36107  1  0
 36108  1  0
 37109  1  0
 38110  1  0
 39111  1  0
 39112  1  0
 40113  1  0
 40114  1  0
 41115  1  0
 42116  1  0
 43117  1  0
 44118  1  0
 45119  1  0
 45120  1  0
 46121  1  0
 46122  1  0
 47123  1  0
 47124  1  0
 48125  1  0
 48126  1  0
 49127  1  0
 50128  1  0
 51129  1  0
 52130  1  0
 52131  1  0
 53132  1  0
 53133  1  0
 54134  1  0
 54135  1  0
 55136  1  0
 55137  1  0
 56138  1  0
M  END
>  <PDBID>  (1) 
4G0U

>  <PDB ID>  (1) 
4G0U

>  <Generic Name>  (1) 
Amsacrine

>  <Brand Name>  (1) 
Amsa Pd Inj 50mg/ml#AMSA P-D#Amekrin#Amsidine#Amsidyl

>  <DrugBank ID>  (1) 
DB00276

>  <ATC Codes>  (1) 
L01XX01

>  <Ligand ID>  (1) 
ASW

>  <Target Name>  (1) 
DNA topoisomerase 2-alpha

>  <UniProt ID>  (1) 
P11388

>  <PDB ID.1>  (1) 
4G0U

>  <Seq. Identity>  (1) 
78%

$$$$
