PDB_DB09053_07
     RDKit          3D

 81 85  0  0  0  0  0  0  0  0999 V2000
    0.4106   -3.7476    0.9780 N   0  0  0  0  0  0  0  0  0  0  0  0
    1.7107   -3.9270    0.4309 C   0  0  0  0  0  0  0  0  0  0  0  0
    2.5605   -2.7171    0.4954 N   0  0  0  0  0  0  0  0  0  0  0  0
    1.6975   -1.6128    0.6849 C   0  0  0  0  0  0  0  0  0  0  0  0
    0.5368   -1.7573   -0.2695 C   0  0  0  0  0  0  0  0  0  0  0  0
   -0.3989   -2.7804    0.2612 C   0  0  1  0  0  0  0  0  0  0  0  0
    7.1389    3.2042    0.8879 C   0  0  0  0  0  0  0  0  0  0  0  0
   -1.0609   -3.4249   -0.8675 N   0  0  0  0  0  0  0  0  0  0  0  0
    7.8196    0.5241    0.5175 O   0  0  0  0  0  0  0  0  0  0  0  0
    6.1307    2.0496    1.0325 C   0  0  0  0  0  0  0  0  0  0  0  0
   -7.9860    1.4117    0.0033 C   0  0  0  0  0  0  0  0  0  0  0  0
   -7.9099   -0.0815    0.2498 C   0  0  0  0  0  0  0  0  0  0  0  0
   -7.1891    1.7738   -1.2221 C   0  0  0  0  0  0  0  0  0  0  0  0
   -6.5071   -0.5269    0.6395 C   0  0  0  0  0  0  0  0  0  0  0  0
   -5.9832    0.8712   -1.2813 C   0  0  0  0  0  0  0  0  0  0  0  0
   -2.6993    2.0098    0.2634 C   0  0  0  0  0  0  0  0  0  0  0  0
   -2.7323    0.3042    2.0921 C   0  0  0  0  0  0  0  0  0  0  0  0
   -1.6412    1.3282   -0.5296 C   0  0  0  0  0  0  0  0  0  0  0  0
   -1.3151    0.2092    1.5675 C   0  0  0  0  0  0  0  0  0  0  0  0
    4.6360    0.2685   -2.1141 C   0  0  0  0  0  0  0  0  0  0  0  0
    3.2880   -0.0535   -1.5030 C   0  0  0  0  0  0  0  0  0  0  0  0
    5.6361   -0.6142   -1.4055 C   0  0  0  0  0  0  0  0  0  0  0  0
    4.5224   -0.2753    0.6767 C   0  0  0  0  0  0  0  0  0  0  0  0
    0.9787    0.4707    0.2337 N   0  0  0  0  0  0  0  0  0  0  0  0
   -4.2350    0.1752    0.1955 O   0  0  0  0  0  0  0  0  0  0  0  0
    6.5470    0.9581    0.1527 C   0  0  0  0  0  0  0  0  0  0  0  0
   -5.5646    0.5361    0.1387 C   0  0  0  0  0  0  0  0  0  0  0  0
   -3.5515    1.0049    1.0715 C   0  0  0  0  0  0  0  0  0  0  0  0
   -1.3346   -0.0661    0.0659 C   0  0  0  0  0  0  0  0  0  0  0  0
    0.0379   -0.3939   -0.4693 C   0  0  0  0  0  0  0  0  0  0  0  0
    3.2554    0.1643   -0.0323 C   0  0  2  0  0  0  0  0  0  0  0  0
    2.0784   -0.3136    0.6064 N   0  0  0  0  0  0  0  0  0  0  0  0
    5.7179   -0.1663   -0.0448 N   0  0  0  0  0  0  0  0  0  0  0  0
    0.3922   -3.6173    2.0047 H   0  0  0  0  0  0  0  0  0  0  0  0
    1.6393   -4.3146   -0.6051 H   0  0  0  0  0  0  0  0  0  0  0  0
    2.2345   -4.6833    1.0299 H   0  0  0  0  0  0  0  0  0  0  0  0
    3.1443   -2.7644   -0.3339 H   0  0  0  0  0  0  0  0  0  0  0  0
    1.2559   -1.7848    1.7268 H   0  0  0  0  0  0  0  0  0  0  0  0
    0.9557   -2.1946   -1.2366 H   0  0  0  0  0  0  0  0  0  0  0  0
   -1.1561   -2.4154    0.9875 H   0  0  0  0  0  0  0  0  0  0  0  0
    7.1128    3.4741   -0.1936 H   0  0  0  0  0  0  0  0  0  0  0  0
    8.1504    2.8834    1.1937 H   0  0  0  0  0  0  0  0  0  0  0  0
    6.7688    4.0911    1.4386 H   0  0  0  0  0  0  0  0  0  0  0  0
   -0.7687   -4.4224   -0.9218 H   0  0  0  0  0  0  0  0  0  0  0  0
   -0.8524   -2.9312   -1.7569 H   0  0  0  0  0  0  0  0  0  0  0  0
    8.2222   -0.0630   -0.1517 H   0  0  0  0  0  0  0  0  0  0  0  0
    5.1563    2.4999    0.8983 H   0  0  0  0  0  0  0  0  0  0  0  0
    6.2635    1.7387    2.1155 H   0  0  0  0  0  0  0  0  0  0  0  0
   -9.0623    1.6116   -0.2580 H   0  0  0  0  0  0  0  0  0  0  0  0
   -7.7629    2.0290    0.8750 H   0  0  0  0  0  0  0  0  0  0  0  0
   -8.5906   -0.3137    1.1071 H   0  0  0  0  0  0  0  0  0  0  0  0
   -8.2552   -0.5740   -0.6961 H   0  0  0  0  0  0  0  0  0  0  0  0
   -6.8076    2.8160   -1.0777 H   0  0  0  0  0  0  0  0  0  0  0  0
   -7.7991    1.7077   -2.1514 H   0  0  0  0  0  0  0  0  0  0  0  0
   -6.4388   -0.6349    1.7461 H   0  0  0  0  0  0  0  0  0  0  0  0
   -6.2838   -1.4754    0.1130 H   0  0  0  0  0  0  0  0  0  0  0  0
   -6.3212   -0.1011   -1.7285 H   0  0  0  0  0  0  0  0  0  0  0  0
   -5.1466    1.2978   -1.8520 H   0  0  0  0  0  0  0  0  0  0  0  0
   -2.2710    2.7107    1.0015 H   0  0  0  0  0  0  0  0  0  0  0  0
   -3.4120    2.5525   -0.3715 H   0  0  0  0  0  0  0  0  0  0  0  0
   -3.0688   -0.7704    2.2016 H   0  0  0  0  0  0  0  0  0  0  0  0
   -2.6784    0.8062    3.0661 H   0  0  0  0  0  0  0  0  0  0  0  0
   -0.7175    1.9353   -0.4574 H   0  0  0  0  0  0  0  0  0  0  0  0
   -1.9082    1.2349   -1.6070 H   0  0  0  0  0  0  0  0  0  0  0  0
   -0.6660   -0.4378    2.1434 H   0  0  0  0  0  0  0  0  0  0  0  0
   -0.8752    1.2483    1.6984 H   0  0  0  0  0  0  0  0  0  0  0  0
    4.8662    1.3143   -1.8596 H   0  0  0  0  0  0  0  0  0  0  0  0
    4.5423    0.0822   -3.1884 H   0  0  0  0  0  0  0  0  0  0  0  0
    2.9583   -1.0129   -1.8796 H   0  0  0  0  0  0  0  0  0  0  0  0
    2.5878    0.7056   -1.9741 H   0  0  0  0  0  0  0  0  0  0  0  0
    6.6389   -0.5884   -1.8609 H   0  0  0  0  0  0  0  0  0  0  0  0
    5.2080   -1.6526   -1.4304 H   0  0  0  0  0  0  0  0  0  0  0  0
    4.4351   -1.3342    1.0549 H   0  0  0  0  0  0  0  0  0  0  0  0
    4.6009    0.3187    1.6317 H   0  0  0  0  0  0  0  0  0  0  0  0
    1.3015    1.2627   -0.3806 H   0  0  0  0  0  0  0  0  0  0  0  0
    6.7054    1.4014   -0.8829 H   0  0  0  0  0  0  0  0  0  0  0  0
   -5.7712    1.4449    0.7589 H   0  0  0  0  0  0  0  0  0  0  0  0
   -4.2889    1.6802    1.5794 H   0  0  0  0  0  0  0  0  0  0  0  0
   -2.1347   -0.7161   -0.2631 H   0  0  0  0  0  0  0  0  0  0  0  0
    0.0735   -0.1185   -1.5405 H   0  0  0  0  0  0  0  0  0  0  0  0
    3.2286    1.2684    0.1101 H   0  0  0  0  0  0  0  0  0  0  0  0
  1  2  1  0
  2  3  1  0
  3  4  1  0
  4  5  1  0
  1  6  1  0
  5  6  1  0
  6  8  1  0
  7 10  1  0
 11 12  1  0
 11 13  1  0
 12 14  1  0
 13 15  1  0
 16 18  1  0
 17 19  1  0
 20 21  1  0
 20 22  1  0
  9 26  1  0
 10 26  1  0
 14 27  1  0
 15 27  1  0
 25 27  1  0
 16 28  1  0
 17 28  1  0
 25 28  1  0
 18 29  1  0
 19 29  1  0
  5 30  1  0
 24 30  1  0
 29 30  1  0
 21 31  1  0
 23 31  1  0
  4 32  1  0
 24 32  1  0
 31 32  1  0
 22 33  1  0
 23 33  1  0
 26 33  1  0
  1 34  1  0
  2 35  1  0
  2 36  1  0
  3 37  1  0
  4 38  1  0
  5 39  1  0
  6 40  1  1
  7 41  1  0
  7 42  1  0
  7 43  1  0
  8 44  1  0
  8 45  1  0
  9 46  1  0
 10 47  1  0
 10 48  1  0
 11 49  1  0
 11 50  1  0
 12 51  1  0
 12 52  1  0
 13 53  1  0
 13 54  1  0
 14 55  1  0
 14 56  1  0
 15 57  1  0
 15 58  1  0
 16 59  1  0
 16 60  1  0
 17 61  1  0
 17 62  1  0
 18 63  1  0
 18 64  1  0
 19 65  1  0
 19 66  1  0
 20 67  1  0
 20 68  1  0
 21 69  1  0
 21 70  1  0
 22 71  1  0
 22 72  1  0
 23 73  1  0
 23 74  1  0
 24 75  1  0
 26 76  1  0
 27 77  1  0
 28 78  1  0
 29 79  1  0
 30 80  1  0
 31 81  1  6
M  END
>  <PDBID>  (1) 
5P9I

>  <PDB ID>  (1) 
5P9I

>  <Generic Name>  (1) 
Ibrutinib

>  <Brand Name>  (1) 
Imbruvica

>  <DrugBank ID>  (1) 
DB09053

>  <ATC Codes>  (1) 
L01XE27

>  <Ligand ID>  (1) 
100000000

>  <Target Name>  (1) 
Tyrosine-protein kinase BTK

>  <UniProt ID>  (1) 
Q06187

>  <PDB ID.1>  (1) 
5P9I

>  <Seq. Identity>  (1) 
100%

$$$$
