PDB_DB00410_03
     RDKit          3D

 85 86  0  0  0  0  0  0  0  0999 V2000
    2.9731   -0.7799    3.1319 C   0  0  0  0  0  0  0  0  0  0  0  0
    2.3083   -1.1133    1.8384 C   0  0  0  0  0  0  0  0  0  0  0  0
    0.8385   -0.7063    1.7935 C   0  0  0  0  0  0  0  0  0  0  0  0
    0.3097   -1.0908    0.4489 C   0  0  0  0  0  0  0  0  0  0  0  0
   -1.1311   -0.7653    0.2108 C   0  0  1  0  0  0  0  0  0  0  0  0
   -1.3492    0.7395    0.3457 C   0  0  1  0  0  0  0  0  0  0  0  0
   -2.5997    1.1584   -0.4098 C   0  0  1  0  0  0  0  0  0  0  0  0
   -3.5667   -0.0265   -0.5202 C   0  0  1  0  0  0  0  0  0  0  0  0
   -4.7026    0.4035   -1.4022 C   0  0  0  0  0  0  0  0  0  0  0  0
   -5.7302   -0.6836   -1.5918 C   0  0  1  0  0  0  0  0  0  0  0  0
   -6.8977   -0.2960   -2.4747 C   0  0  2  0  0  0  0  0  0  0  0  0
   -8.2260   -0.7902   -1.9452 C   0  0  2  0  0  0  0  0  0  0  0  0
   -9.3828   -0.4065   -2.8193 C   0  0  2  0  0  0  0  0  0  0  0  0
   -9.5496    1.0670   -2.9865 C   0  0  0  0  0  0  0  0  0  0  0  0
    0.0974   -1.4917    2.8503 C   0  0  0  0  0  0  0  0  0  0  0  0
   -2.8693   -1.2051   -1.1444 C   0  0  0  0  0  0  0  0  0  0  0  0
    7.3526   -0.6621   -3.2161 C   0  0  0  0  0  0  0  0  0  0  0  0
    8.0349   -1.3176   -2.2210 O   0  0  0  0  0  0  0  0  0  0  0  0
    8.3042   -0.1408   -4.1202 O   0  0  0  0  0  0  0  0  0  0  0  0
    6.5199    0.4848   -2.7602 C   0  0  0  0  0  0  0  0  0  0  0  0
    5.4438    0.1559   -1.7855 C   0  0  0  0  0  0  0  0  0  0  0  0
    5.8951   -0.4393   -0.4928 C   0  0  0  0  0  0  0  0  0  0  0  0
    6.8237    0.4439    0.2782 C   0  0  0  0  0  0  0  0  0  0  0  0
    6.2880    1.7690    0.6649 C   0  0  0  0  0  0  0  0  0  0  0  0
    5.0717    1.7713    1.5475 C   0  0  0  0  0  0  0  0  0  0  0  0
    5.2992    1.0826    2.8467 C   0  0  0  0  0  0  0  0  0  0  0  0
    4.1745    1.0967    3.8128 C   0  0  0  0  0  0  0  0  0  0  0  0
    2.9892    0.5469    3.4642 O   0  0  0  0  0  0  0  0  0  0  0  0
    2.3181   -1.4714    4.1899 O   0  0  0  0  0  0  0  0  0  0  0  0
   -1.4791   -1.0650   -1.1117 O   0  0  0  0  0  0  0  0  0  0  0  0
   -3.2256    2.1606    0.3173 O   0  0  0  0  0  0  0  0  0  0  0  0
   -1.4293    1.1361    1.6740 O   0  0  0  0  0  0  0  0  0  0  0  0
   -5.9361   -1.1922   -2.8734 O   0  0  0  0  0  0  0  0  0  0  0  0
   -8.4129   -0.1894   -0.5733 C   0  0  0  0  0  0  0  0  0  0  0  0
  -10.5406   -0.9091   -2.1965 O   0  0  0  0  0  0  0  0  0  0  0  0
    4.0044   -1.1731    3.1341 H   0  0  0  0  0  0  0  0  0  0  0  0
    2.8376   -0.6555    0.9999 H   0  0  0  0  0  0  0  0  0  0  0  0
    2.3935   -2.2168    1.6985 H   0  0  0  0  0  0  0  0  0  0  0  0
    0.7532    0.3812    1.9284 H   0  0  0  0  0  0  0  0  0  0  0  0
    0.9021   -0.4959   -0.3040 H   0  0  0  0  0  0  0  0  0  0  0  0
    0.5444   -2.1539    0.1912 H   0  0  0  0  0  0  0  0  0  0  0  0
   -1.8497   -1.2445    0.8755 H   0  0  0  0  0  0  0  0  0  0  0  0
   -0.4867    1.2305   -0.1399 H   0  0  0  0  0  0  0  0  0  0  0  0
   -2.3784    1.5307   -1.4250 H   0  0  0  0  0  0  0  0  0  0  0  0
   -3.8930   -0.2449    0.5062 H   0  0  0  0  0  0  0  0  0  0  0  0
   -5.2451    1.2824   -0.9866 H   0  0  0  0  0  0  0  0  0  0  0  0
   -4.3250    0.7252   -2.3922 H   0  0  0  0  0  0  0  0  0  0  0  0
   -5.8669   -1.4192   -0.7858 H   0  0  0  0  0  0  0  0  0  0  0  0
   -6.9410    0.7234   -2.8857 H   0  0  0  0  0  0  0  0  0  0  0  0
   -8.2472   -1.8941   -1.8270 H   0  0  0  0  0  0  0  0  0  0  0  0
   -9.3447   -0.8725   -3.8127 H   0  0  0  0  0  0  0  0  0  0  0  0
   -9.1222    1.4210   -3.9659 H   0  0  0  0  0  0  0  0  0  0  0  0
  -10.6461    1.2848   -3.0720 H   0  0  0  0  0  0  0  0  0  0  0  0
   -9.1728    1.6727   -2.1556 H   0  0  0  0  0  0  0  0  0  0  0  0
    0.1260   -0.8539    3.7815 H   0  0  0  0  0  0  0  0  0  0  0  0
   -0.9359   -1.7467    2.5778 H   0  0  0  0  0  0  0  0  0  0  0  0
    0.5941   -2.4892    3.0320 H   0  0  0  0  0  0  0  0  0  0  0  0
   -3.1305   -1.2852   -2.2384 H   0  0  0  0  0  0  0  0  0  0  0  0
   -3.1477   -2.1757   -0.6964 H   0  0  0  0  0  0  0  0  0  0  0  0
    6.7292   -1.3786   -3.8041 H   0  0  0  0  0  0  0  0  0  0  0  0
    8.8329   -0.8605   -1.9039 H   0  0  0  0  0  0  0  0  0  0  0  0
    9.0152    0.3463   -3.6709 H   0  0  0  0  0  0  0  0  0  0  0  0
    7.1789    1.3177   -2.4250 H   0  0  0  0  0  0  0  0  0  0  0  0
    6.0033    0.8921   -3.6762 H   0  0  0  0  0  0  0  0  0  0  0  0
    4.7884   -0.6192   -2.2828 H   0  0  0  0  0  0  0  0  0  0  0  0
    4.7885    1.0288   -1.5917 H   0  0  0  0  0  0  0  0  0  0  0  0
    6.3918   -1.4297   -0.6072 H   0  0  0  0  0  0  0  0  0  0  0  0
    5.0072   -0.6207    0.1437 H   0  0  0  0  0  0  0  0  0  0  0  0
    7.8049    0.5770   -0.2376 H   0  0  0  0  0  0  0  0  0  0  0  0
    7.0945   -0.1234    1.2142 H   0  0  0  0  0  0  0  0  0  0  0  0
    7.1037    2.3671    1.1669 H   0  0  0  0  0  0  0  0  0  0  0  0
    6.0153    2.3043   -0.2931 H   0  0  0  0  0  0  0  0  0  0  0  0
    4.2567    1.2738    0.9455 H   0  0  0  0  0  0  0  0  0  0  0  0
    4.7787    2.8373    1.7462 H   0  0  0  0  0  0  0  0  0  0  0  0
    6.1690    1.5945    3.3575 H   0  0  0  0  0  0  0  0  0  0  0  0
    5.6744    0.0523    2.6339 H   0  0  0  0  0  0  0  0  0  0  0  0
    4.5323    0.5940    4.7684 H   0  0  0  0  0  0  0  0  0  0  0  0
    3.9489    2.1485    4.1788 H   0  0  0  0  0  0  0  0  0  0  0  0
    2.6999   -1.1084    5.0263 H   0  0  0  0  0  0  0  0  0  0  0  0
   -3.7206    1.7604    1.0638 H   0  0  0  0  0  0  0  0  0  0  0  0
   -1.0680    2.0718    1.7636 H   0  0  0  0  0  0  0  0  0  0  0  0
   -8.0442    0.8758   -0.6487 H   0  0  0  0  0  0  0  0  0  0  0  0
   -9.4319   -0.2559   -0.1901 H   0  0  0  0  0  0  0  0  0  0  0  0
   -7.6554   -0.6834    0.1006 H   0  0  0  0  0  0  0  0  0  0  0  0
  -10.3294   -1.5668   -1.4938 H   0  0  0  0  0  0  0  0  0  0  0  0
  1  2  1  0
  2  3  1  0
  3  4  1  0
  4  5  1  0
  5  6  1  0
  6  7  1  0
  7  8  1  0
  8  9  1  0
  9 10  1  0
 10 11  1  0
 11 12  1  0
 12 13  1  0
 13 14  1  0
  3 15  1  0
  8 16  1  0
 17 18  1  0
 17 19  1  0
 17 20  1  0
 20 21  1  0
 21 22  1  0
 22 23  1  0
 23 24  1  0
 24 25  1  0
 25 26  1  0
 26 27  1  0
  1 28  1  0
 27 28  1  0
  1 29  1  0
  5 30  1  0
 16 30  1  0
  7 31  1  0
  6 32  1  0
 10 33  1  0
 11 33  1  0
 12 34  1  0
 13 35  1  0
  1 36  1  0
  2 37  1  0
  2 38  1  0
  3 39  1  0
  4 40  1  0
  4 41  1  0
  5 42  1  1
  6 43  1  6
  7 44  1  6
  8 45  1  1
  9 46  1  0
  9 47  1  0
 10 48  1  1
 11 49  1  6
 12 50  1  1
 13 51  1  6
 14 52  1  0
 14 53  1  0
 14 54  1  0
 15 55  1  0
 15 56  1  0
 15 57  1  0
 16 58  1  0
 16 59  1  0
 17 60  1  0
 18 61  1  0
 19 62  1  0
 20 63  1  0
 20 64  1  0
 21 65  1  0
 21 66  1  0
 22 67  1  0
 22 68  1  0
 23 69  1  0
 23 70  1  0
 24 71  1  0
 24 72  1  0
 25 73  1  0
 25 74  1  0
 26 75  1  0
 26 76  1  0
 27 77  1  0
 27 78  1  0
 29 79  1  0
 31 80  1  0
 32 81  1  0
 34 82  1  0
 34 83  1  0
 34 84  1  0
 35 85  1  0
M  END
>  <PDBID>  (1) 
1FFY

>  <PDB ID>  (1) 
1FFY

>  <Generic Name>  (1) 
Mupirocin

>  <Brand Name>  (1) 
Bactroban#Bactroban Cream#Bactroban Nasal Ointment#Centany#Centany At#Mupirocin#Mupirocin 2%#Mupirocin Calcium#Taro-mupirocin#Bactroban Nasal#Plasimine#Spectroderm#T-Bact#Turixin

>  <DrugBank ID>  (1) 
DB00410

>  <ATC Codes>  (1) 
R01AX06#D06AX09

>  <Ligand ID>  (1) 
MRC

>  <Target Name>  (1) 
Isoleucine--tRNA ligase

>  <UniProt ID>  (1) 
P41972

>  <PDB ID.1>  (1) 
1FFY

>  <Seq. Identity>  (1) 
95%

$$$$
