PDB_DB01597_03
     RDKit          3D

 82 82  0  0  0  0  0  0  0  0999 V2000
   -3.0858   -0.8534   -1.1823 C   0  0  0  0  0  0  0  0  0  0  0  0
   -2.0457   -0.0045   -0.4488 C   0  0  1  0  0  0  0  0  0  0  0  0
   -3.5262    0.1335   -0.1683 C   0  0  0  0  0  0  0  0  0  0  0  0
   -4.1891   -0.3822    1.0491 C   0  0  0  0  0  0  0  0  0  0  0  0
   -4.2305    1.3632   -0.7689 C   0  0  0  0  0  0  0  0  0  0  0  0
   -1.2107   -0.6655    0.6216 C   0  0  0  0  0  0  0  0  0  0  0  0
   -0.2285    0.1195    1.1891 N   0  0  0  0  0  0  0  0  0  0  0  0
    1.0447    0.3530    0.6105 C   0  0  0  0  0  0  0  0  0  0  0  0
    1.8243   -0.9856    0.6162 C   0  0  0  0  0  0  0  0  0  0  0  0
   -2.0421   -1.1670    1.6542 O   0  0  0  0  0  0  0  0  0  0  0  0
    1.0780    0.9490   -0.7436 C   0  0  0  0  0  0  0  0  0  0  0  0
    0.5270    0.2207   -1.7677 O   0  0  0  0  0  0  0  0  0  0  0  0
    0.5800    2.2599   -0.6807 O   0  0  0  0  0  0  0  0  0  0  0  0
    3.1682   -0.7939    0.0405 C   0  0  0  0  0  0  0  0  0  0  0  0
    4.0241    0.2167    0.7865 C   0  0  0  0  0  0  0  0  0  0  0  0
    5.3818    0.2618    0.0749 C   0  0  0  0  0  0  0  0  0  0  0  0
   -3.0858   -0.8534   -1.1823 C   0  0  0  0  0  0  0  0  0  0  0  0
   -2.0457   -0.0045   -0.4488 C   0  0  1  0  0  0  0  0  0  0  0  0
   -3.5262    0.1335   -0.1683 C   0  0  0  0  0  0  0  0  0  0  0  0
   -4.1891   -0.3822    1.0491 C   0  0  0  0  0  0  0  0  0  0  0  0
   -4.2305    1.3632   -0.7689 C   0  0  0  0  0  0  0  0  0  0  0  0
   -1.2107   -0.6655    0.6216 C   0  0  0  0  0  0  0  0  0  0  0  0
   -0.2285    0.1195    1.1891 N   0  0  0  0  0  0  0  0  0  0  0  0
    1.0447    0.3530    0.6105 C   0  0  0  0  0  0  0  0  0  0  0  0
    1.8243   -0.9856    0.6162 C   0  0  0  0  0  0  0  0  0  0  0  0
   -2.0421   -1.1670    1.6542 O   0  0  0  0  0  0  0  0  0  0  0  0
    1.0780    0.9490   -0.7436 C   0  0  0  0  0  0  0  0  0  0  0  0
    0.5270    0.2207   -1.7677 O   0  0  0  0  0  0  0  0  0  0  0  0
    0.5800    2.2599   -0.6807 O   0  0  0  0  0  0  0  0  0  0  0  0
    3.1682   -0.7939    0.0405 C   0  0  0  0  0  0  0  0  0  0  0  0
    4.0241    0.2167    0.7865 C   0  0  0  0  0  0  0  0  0  0  0  0
    5.3818    0.2618    0.0749 C   0  0  0  0  0  0  0  0  0  0  0  0
   -3.1847   -0.6638   -2.2777 H   0  0  0  0  0  0  0  0  0  0  0  0
   -3.0958   -1.9465   -0.9010 H   0  0  0  0  0  0  0  0  0  0  0  0
   -1.6727    0.9377   -0.9030 H   0  0  0  0  0  0  0  0  0  0  0  0
   -4.2143   -1.5011    1.1230 H   0  0  0  0  0  0  0  0  0  0  0  0
   -5.2973   -0.1332    0.9607 H   0  0  0  0  0  0  0  0  0  0  0  0
   -3.8884    0.1245    1.9852 H   0  0  0  0  0  0  0  0  0  0  0  0
   -4.8527    1.8820   -0.0275 H   0  0  0  0  0  0  0  0  0  0  0  0
   -4.9702    0.9242   -1.5069 H   0  0  0  0  0  0  0  0  0  0  0  0
   -3.5576    1.9662   -1.3672 H   0  0  0  0  0  0  0  0  0  0  0  0
   -0.8361   -1.6113    0.1249 H   0  0  0  0  0  0  0  0  0  0  0  0
   -0.2451    0.2298    2.2290 H   0  0  0  0  0  0  0  0  0  0  0  0
    1.6301    1.0020    1.2972 H   0  0  0  0  0  0  0  0  0  0  0  0
    1.9618   -1.2023    1.7185 H   0  0  0  0  0  0  0  0  0  0  0  0
    1.2395   -1.8015    0.2084 H   0  0  0  0  0  0  0  0  0  0  0  0
   -1.7933   -2.1077    1.9056 H   0  0  0  0  0  0  0  0  0  0  0  0
    2.1623    1.1201   -1.0712 H   0  0  0  0  0  0  0  0  0  0  0  0
    1.1014   -0.4530   -2.1842 H   0  0  0  0  0  0  0  0  0  0  0  0
    0.3535    2.5070   -1.6243 H   0  0  0  0  0  0  0  0  0  0  0  0
    3.7661   -1.7758    0.1683 H   0  0  0  0  0  0  0  0  0  0  0  0
    3.2150   -0.5228   -1.0303 H   0  0  0  0  0  0  0  0  0  0  0  0
    4.2286   -0.1119    1.8330 H   0  0  0  0  0  0  0  0  0  0  0  0
    3.6086    1.2412    0.7314 H   0  0  0  0  0  0  0  0  0  0  0  0
    6.1939    0.5068    0.8167 H   0  0  0  0  0  0  0  0  0  0  0  0
    5.6523   -0.7217   -0.3417 H   0  0  0  0  0  0  0  0  0  0  0  0
    5.4255    1.0858   -0.6771 H   0  0  0  0  0  0  0  0  0  0  0  0
   -3.1847   -0.6638   -2.2777 H   0  0  0  0  0  0  0  0  0  0  0  0
   -3.0958   -1.9465   -0.9010 H   0  0  0  0  0  0  0  0  0  0  0  0
   -1.6727    0.9377   -0.9030 H   0  0  0  0  0  0  0  0  0  0  0  0
   -4.2143   -1.5011    1.1230 H   0  0  0  0  0  0  0  0  0  0  0  0
   -5.2973   -0.1332    0.9607 H   0  0  0  0  0  0  0  0  0  0  0  0
   -3.8884    0.1245    1.9852 H   0  0  0  0  0  0  0  0  0  0  0  0
   -4.8527    1.8820   -0.0275 H   0  0  0  0  0  0  0  0  0  0  0  0
   -4.9702    0.9242   -1.5069 H   0  0  0  0  0  0  0  0  0  0  0  0
   -3.5576    1.9662   -1.3672 H   0  0  0  0  0  0  0  0  0  0  0  0
   -0.8361   -1.6113    0.1249 H   0  0  0  0  0  0  0  0  0  0  0  0
   -0.2451    0.2298    2.2290 H   0  0  0  0  0  0  0  0  0  0  0  0
    1.6301    1.0020    1.2972 H   0  0  0  0  0  0  0  0  0  0  0  0
    1.9618   -1.2023    1.7185 H   0  0  0  0  0  0  0  0  0  0  0  0
    1.2395   -1.8015    0.2084 H   0  0  0  0  0  0  0  0  0  0  0  0
   -1.7933   -2.1077    1.9056 H   0  0  0  0  0  0  0  0  0  0  0  0
    2.1623    1.1201   -1.0712 H   0  0  0  0  0  0  0  0  0  0  0  0
    1.1014   -0.4530   -2.1842 H   0  0  0  0  0  0  0  0  0  0  0  0
    0.3535    2.5070   -1.6243 H   0  0  0  0  0  0  0  0  0  0  0  0
    3.7661   -1.7758    0.1683 H   0  0  0  0  0  0  0  0  0  0  0  0
    3.2150   -0.5228   -1.0303 H   0  0  0  0  0  0  0  0  0  0  0  0
    4.2286   -0.1119    1.8330 H   0  0  0  0  0  0  0  0  0  0  0  0
    3.6086    1.2412    0.7314 H   0  0  0  0  0  0  0  0  0  0  0  0
    6.1939    0.5068    0.8167 H   0  0  0  0  0  0  0  0  0  0  0  0
    5.6523   -0.7217   -0.3417 H   0  0  0  0  0  0  0  0  0  0  0  0
    5.4255    1.0858   -0.6771 H   0  0  0  0  0  0  0  0  0  0  0  0
  1  2  1  0
  1  3  1  0
  2  3  1  0
  3  4  1  0
  3  5  1  0
  2  6  1  0
  6  7  1  0
  7  8  1  0
  8  9  1  0
  6 10  1  0
  8 11  1  0
 11 12  1  0
 11 13  1  0
  9 14  1  0
 14 15  1  0
 15 16  1  0
 17 18  1  0
 17 19  1  0
 18 19  1  0
 19 20  1  0
 19 21  1  0
 18 22  1  0
 22 23  1  0
 23 24  1  0
 24 25  1  0
 22 26  1  0
 24 27  1  0
 27 28  1  0
 27 29  1  0
 25 30  1  0
 30 31  1  0
 31 32  1  0
  1 33  1  0
  1 34  1  0
  2 35  1  6
  4 36  1  0
  4 37  1  0
  4 38  1  0
  5 39  1  0
  5 40  1  0
  5 41  1  0
  6 42  1  0
  7 43  1  0
  8 44  1  0
  9 45  1  0
  9 46  1  0
 10 47  1  0
 11 48  1  0
 12 49  1  0
 13 50  1  0
 14 51  1  0
 14 52  1  0
 15 53  1  0
 15 54  1  0
 16 55  1  0
 16 56  1  0
 16 57  1  0
 17 58  1  0
 17 59  1  0
 18 60  1  6
 20 61  1  0
 20 62  1  0
 20 63  1  0
 21 64  1  0
 21 65  1  0
 21 66  1  0
 22 67  1  0
 23 68  1  0
 24 69  1  0
 25 70  1  0
 25 71  1  0
 26 72  1  0
 27 73  1  0
 28 74  1  0
 29 75  1  0
 30 76  1  0
 30 77  1  0
 31 78  1  0
 31 79  1  0
 32 80  1  0
 32 81  1  0
 32 82  1  0
M  END
>  <PDBID>  (1) 
1ITU

>  <PDB ID>  (1) 
1ITU

>  <Generic Name>  (1) 
Cilastatin

>  <Brand Name>  (1) 
Imipenem and Cilastatin#Imipenem and Cilastatin for Injection#Imipenem and Cilastatin for Injection USP#Imipenem and Cilastatin for Injection, USP#Primaxin 250#Primaxin 500#Primaxin IV#Primaxin IV 250/250 Add-vantage Vial#Primaxin IV 500#Ran-imipenem-cilastatin

>  <DrugBank ID>  (1) 
DB01597

>  <ATC Codes>  (1) 
nan

>  <Ligand ID>  (1) 
CIL

>  <Target Name>  (1) 
Dipeptidase 1

>  <UniProt ID>  (1) 
P16444

>  <PDB ID.1>  (1) 
1ITU

>  <Seq. Identity>  (1) 
100%

$$$$
