PDB_DB01577_01
     RDKit          3D

 32 32  0  0  0  0  0  0  0  0999 V2000
   -3.0927    0.1641    0.8672 N   0  0  0  0  0  0  0  0  0  0  0  0
   -1.7393   -0.4518    0.7612 C   0  0  1  0  0  0  0  0  0  0  0  0
   -1.9039   -1.6552   -0.1201 C   0  0  0  0  0  0  0  0  0  0  0  0
   -0.7780    0.5684    0.2909 C   0  0  0  0  0  0  0  0  0  0  0  0
    0.6478    0.1895    0.1775 C   0  0  0  0  0  0  0  0  0  0  0  0
    1.4178    1.4300   -0.2829 C   0  0  0  0  0  0  0  0  0  0  0  0
    0.9264   -0.9841   -0.6466 C   0  0  0  0  0  0  0  0  0  0  0  0
    2.9028    1.2036   -0.2241 C   0  0  0  0  0  0  0  0  0  0  0  0
    2.2903   -0.8210   -1.3716 C   0  0  0  0  0  0  0  0  0  0  0  0
    3.2319   -0.2770   -0.3206 C   0  0  0  0  0  0  0  0  0  0  0  0
   -3.5971    0.6228   -0.3777 C   0  0  0  0  0  0  0  0  0  0  0  0
   -2.9614    0.9330    1.5652 H   0  0  0  0  0  0  0  0  0  0  0  0
   -1.4972   -0.8087    1.7741 H   0  0  0  0  0  0  0  0  0  0  0  0
   -2.9000   -2.1539    0.1713 H   0  0  0  0  0  0  0  0  0  0  0  0
   -1.1055   -2.3862    0.0643 H   0  0  0  0  0  0  0  0  0  0  0  0
   -1.9789   -1.4320   -1.1961 H   0  0  0  0  0  0  0  0  0  0  0  0
   -1.1243    0.9278   -0.7498 H   0  0  0  0  0  0  0  0  0  0  0  0
   -0.9072    1.5307    0.8805 H   0  0  0  0  0  0  0  0  0  0  0  0
    1.0563   -0.0047    1.2165 H   0  0  0  0  0  0  0  0  0  0  0  0
    1.1672    2.2304    0.4296 H   0  0  0  0  0  0  0  0  0  0  0  0
    1.0783    1.7362   -1.2803 H   0  0  0  0  0  0  0  0  0  0  0  0
    1.1226   -1.9030   -0.0143 H   0  0  0  0  0  0  0  0  0  0  0  0
    0.2336   -1.2131   -1.4729 H   0  0  0  0  0  0  0  0  0  0  0  0
    3.3814    1.5937    0.6864 H   0  0  0  0  0  0  0  0  0  0  0  0
    3.3790    1.6935   -1.0948 H   0  0  0  0  0  0  0  0  0  0  0  0
    2.1069   -0.0565   -2.1456 H   0  0  0  0  0  0  0  0  0  0  0  0
    2.5973   -1.8030   -1.7650 H   0  0  0  0  0  0  0  0  0  0  0  0
    4.2856   -0.4464   -0.5554 H   0  0  0  0  0  0  0  0  0  0  0  0
    2.9750   -0.7078    0.6723 H   0  0  0  0  0  0  0  0  0  0  0  0
   -4.6337    0.2460   -0.5006 H   0  0  0  0  0  0  0  0  0  0  0  0
   -3.5933    1.7423   -0.3780 H   0  0  0  0  0  0  0  0  0  0  0  0
   -2.9877    0.2922   -1.2098 H   0  0  0  0  0  0  0  0  0  0  0  0
  1  2  1  0
  2  3  1  0
  2  4  1  0
  4  5  1  0
  5  6  1  0
  5  7  1  0
  6  8  1  0
  7  9  1  0
  8 10  1  0
  9 10  1  0
  1 11  1  0
  1 12  1  0
  2 13  1  1
  3 14  1  0
  3 15  1  0
  3 16  1  0
  4 17  1  0
  4 18  1  0
  5 19  1  0
  6 20  1  0
  6 21  1  0
  7 22  1  0
  7 23  1  0
  8 24  1  0
  8 25  1  0
  9 26  1  0
  9 27  1  0
 10 28  1  0
 10 29  1  0
 11 30  1  0
 11 31  1  0
 11 32  1  0
M  END
>  <PDBID>  (1) 
4XP6

>  <PDB ID>  (1) 
4XP6

>  <Generic Name>  (1) 
Methamphetamine

>  <Brand Name>  (1) 
Desoxyn#Methamphetamine Hydrochloride

>  <DrugBank ID>  (1) 
DB01577

>  <ATC Codes>  (1) 
N06BA03

>  <Ligand ID>  (1) 
B40

>  <Target Name>  (1) 
Sodium-dependent noradrenaline transporter

>  <UniProt ID>  (1) 
P23975

>  <PDB ID.1>  (1) 
4XP6

>  <Seq. Identity>  (1) 
59%

$$$$
