PDB_DB00380_08
     RDKit          3D

 43 44  0  0  0  0  0  0  0  0999 V2000
    4.5954   -0.3011    1.5434 O   0  0  0  0  0  0  0  0  0  0  0  0
    4.0208   -0.7005    0.3721 C   0  0  0  0  0  0  0  0  0  0  0  0
    4.2994    0.1654   -0.7677 N   0  0  0  0  0  0  0  0  0  0  0  0
    3.2909    1.2278   -0.7814 C   0  0  0  0  0  0  0  0  0  0  0  0
    3.9985    2.4256   -0.9847 O   0  0  0  0  0  0  0  0  0  0  0  0
    2.6108    1.3521    0.5367 C   0  0  0  0  0  0  0  0  0  0  0  0
    2.5273   -0.9955    0.4676 C   0  0  0  0  0  0  0  0  0  0  0  0
    1.7510    0.1834    0.8543 N   0  0  0  0  0  0  0  0  0  0  0  0
    0.5609    0.2870   -0.0122 C   0  0  0  0  0  0  0  0  0  0  0  0
   -0.5616   -0.5226    0.4948 C   0  0  2  0  0  0  0  0  0  0  0  0
   -0.2645   -1.9962    0.6185 C   0  0  0  0  0  0  0  0  0  0  0  0
   -1.7643   -0.4094   -0.3088 N   0  0  0  0  0  0  0  0  0  0  0  0
   -2.2649    0.9390   -0.3843 C   0  0  0  0  0  0  0  0  0  0  0  0
   -3.1970    1.1232    0.8022 C   0  0  0  0  0  0  0  0  0  0  0  0
   -3.4169    2.4277    1.1411 O   0  0  0  0  0  0  0  0  0  0  0  0
   -4.4355    0.4316    0.4823 N   0  0  0  0  0  0  0  0  0  0  0  0
   -4.1879   -0.7938   -0.2193 C   0  0  0  0  0  0  0  0  0  0  0  0
   -2.8023   -1.3186    0.0922 C   0  0  0  0  0  0  0  0  0  0  0  0
   -4.4115   -0.7529   -1.5770 O   0  0  0  0  0  0  0  0  0  0  0  0
    5.4863    0.1342    1.3366 H   0  0  0  0  0  0  0  0  0  0  0  0
    4.4828   -1.6915    0.0865 H   0  0  0  0  0  0  0  0  0  0  0  0
    4.1964   -0.3670   -1.6718 H   0  0  0  0  0  0  0  0  0  0  0  0
    2.5901    1.1051   -1.6198 H   0  0  0  0  0  0  0  0  0  0  0  0
    3.9148    3.0608   -0.2357 H   0  0  0  0  0  0  0  0  0  0  0  0
    1.8905    2.2152    0.4559 H   0  0  0  0  0  0  0  0  0  0  0  0
    3.2878    1.6027    1.3578 H   0  0  0  0  0  0  0  0  0  0  0  0
    2.4409   -1.7513    1.2547 H   0  0  0  0  0  0  0  0  0  0  0  0
    2.2564   -1.3498   -0.5541 H   0  0  0  0  0  0  0  0  0  0  0  0
    0.8383    0.0103   -1.0480 H   0  0  0  0  0  0  0  0  0  0  0  0
    0.3099    1.3809    0.0745 H   0  0  0  0  0  0  0  0  0  0  0  0
   -0.8417   -0.1744    1.5185 H   0  0  0  0  0  0  0  0  0  0  0  0
    0.2107   -2.2394    1.5998 H   0  0  0  0  0  0  0  0  0  0  0  0
    0.2609   -2.4198   -0.2575 H   0  0  0  0  0  0  0  0  0  0  0  0
   -1.2121   -2.6249    0.6605 H   0  0  0  0  0  0  0  0  0  0  0  0
   -1.5427    1.7291   -0.5279 H   0  0  0  0  0  0  0  0  0  0  0  0
   -2.9295    0.9782   -1.2992 H   0  0  0  0  0  0  0  0  0  0  0  0
   -2.7473    0.5544    1.6573 H   0  0  0  0  0  0  0  0  0  0  0  0
   -3.0045    3.1040    0.5613 H   0  0  0  0  0  0  0  0  0  0  0  0
   -5.1270    1.0528    0.0029 H   0  0  0  0  0  0  0  0  0  0  0  0
   -4.9093   -1.5620    0.2153 H   0  0  0  0  0  0  0  0  0  0  0  0
   -2.8140   -1.6130    1.1378 H   0  0  0  0  0  0  0  0  0  0  0  0
   -2.6975   -2.2274   -0.5673 H   0  0  0  0  0  0  0  0  0  0  0  0
   -4.6887   -1.6795   -1.8631 H   0  0  0  0  0  0  0  0  0  0  0  0
  1  2  1  0
  2  3  1  0
  3  4  1  0
  4  5  1  0
  4  6  1  0
  2  7  1  0
  6  8  1  0
  7  8  1  0
  8  9  1  0
  9 10  1  0
 10 11  1  0
 10 12  1  0
 12 13  1  0
 13 14  1  0
 14 15  1  0
 14 16  1  0
 16 17  1  0
 12 18  1  0
 17 18  1  0
 17 19  1  0
  1 20  1  0
  2 21  1  0
  3 22  1  0
  4 23  1  0
  5 24  1  0
  6 25  1  0
  6 26  1  0
  7 27  1  0
  7 28  1  0
  9 29  1  0
  9 30  1  0
 10 31  1  1
 11 32  1  0
 11 33  1  0
 11 34  1  0
 13 35  1  0
 13 36  1  0
 14 37  1  0
 15 38  1  0
 16 39  1  0
 17 40  1  0
 18 41  1  0
 18 42  1  0
 19 43  1  0
M  END
>  <PDBID>  (1) 
1QZR

>  <PDB ID>  (1) 
1QZR

>  <Generic Name>  (1) 
Dexrazoxane

>  <Brand Name>  (1) 
Dexrazoxane#Dexrazoxane Hydrochloride#Zinecard#Ao Nuo Xian#Cardioxane#Dexrazoxane#Savene#Totect

>  <DrugBank ID>  (1) 
DB00380

>  <ATC Codes>  (1) 
V03AF02

>  <Ligand ID>  (1) 
CDX

>  <Target Name>  (1) 
DNA topoisomerase 2-alpha

>  <UniProt ID>  (1) 
P11388

>  <PDB ID.1>  (1) 
1QZR

>  <Seq. Identity>  (1) 
51%

$$$$
