PDB_DB01194_01
     RDKit          3D

 52 53  0  0  0  0  0  0  0  0999 V2000
    3.8284    0.5178   -0.6013 C   0  0  0  0  0  0  0  0  0  0  0  0
   -1.3106   -0.1873    0.8779 C   0  0  0  0  0  0  0  0  0  0  0  0
   -0.7389   -1.5217    0.3236 C   0  0  1  0  0  0  0  0  0  0  0  0
   -0.6761    0.9610    0.2315 C   0  0  2  0  0  0  0  0  0  0  0  0
    0.8715    0.9516    0.4628 C   0  0  0  0  0  0  0  0  0  0  0  0
   -4.1829   -1.7073   -1.1291 S   0  0  0  0  0  0  0  0  0  0  0  0
    4.3962   -0.4459    0.4022 C   0  0  0  0  0  0  0  0  0  0  0  0
   -2.3090    4.3390    0.6653 C   0  0  0  0  0  0  0  0  0  0  0  0
   -2.3258    2.8247    0.2700 C   0  0  0  0  0  0  0  0  0  0  0  0
   -1.3644   -1.3016   -1.3960 S   0  0  0  0  0  0  0  0  0  0  0  0
   -3.5459   -2.9927   -0.1198 N   0  0  0  0  0  0  0  0  0  0  0  0
   -3.9653   -2.2694   -2.6212 O   0  0  0  0  0  0  0  0  0  0  0  0
   -5.5112   -1.2632   -0.7054 O   0  0  0  0  0  0  0  0  0  0  0  0
   -2.9314   -0.4614   -0.8953 C   0  0  0  0  0  0  0  0  0  0  0  0
   -2.7622   -0.3170    0.5971 C   0  0  0  0  0  0  0  0  0  0  0  0
    0.9539   -1.5672    0.3336 S   0  0  0  0  0  0  0  0  0  0  0  0
    1.5169   -2.0015    2.0359 O   0  0  0  0  0  0  0  0  0  0  0  0
    1.5854   -2.9474   -0.6437 O   0  0  0  0  0  0  0  0  0  0  0  0
    1.4687   -0.1221   -0.1942 N   0  0  0  0  0  0  0  0  0  0  0  0
   -1.1069    2.2393    0.5369 N   0  0  0  0  0  0  0  0  0  0  0  0
    2.4849    0.0356   -1.1192 C   0  0  0  0  0  0  0  0  0  0  0  0
    5.6055   -0.0336    0.9157 O   0  0  0  0  0  0  0  0  0  0  0  0
    6.5502    0.1193   -0.0574 C   0  0  0  0  0  0  0  0  0  0  0  0
    3.7934    1.5550   -0.2300 H   0  0  0  0  0  0  0  0  0  0  0  0
    4.4927    0.5130   -1.4934 H   0  0  0  0  0  0  0  0  0  0  0  0
   -1.1560   -0.2719    1.9775 H   0  0  0  0  0  0  0  0  0  0  0  0
   -1.2959   -2.3328    0.7682 H   0  0  0  0  0  0  0  0  0  0  0  0
   -0.7304    0.7587   -0.8899 H   0  0  0  0  0  0  0  0  0  0  0  0
    1.0957    0.9695    1.5346 H   0  0  0  0  0  0  0  0  0  0  0  0
    1.2039    1.9068    0.0088 H   0  0  0  0  0  0  0  0  0  0  0  0
    3.7169   -0.5763    1.2759 H   0  0  0  0  0  0  0  0  0  0  0  0
    4.4662   -1.4760   -0.0547 H   0  0  0  0  0  0  0  0  0  0  0  0
   -1.7988    4.4033    1.6362 H   0  0  0  0  0  0  0  0  0  0  0  0
   -1.8479    4.9337   -0.1375 H   0  0  0  0  0  0  0  0  0  0  0  0
   -3.3371    4.7023    0.8162 H   0  0  0  0  0  0  0  0  0  0  0  0
   -3.2466    2.4750    0.7507 H   0  0  0  0  0  0  0  0  0  0  0  0
   -2.5199    2.8852   -0.8416 H   0  0  0  0  0  0  0  0  0  0  0  0
   -3.5021   -3.8590   -0.6583 H   0  0  0  0  0  0  0  0  0  0  0  0
   -4.1632   -3.1121    0.7160 H   0  0  0  0  0  0  0  0  0  0  0  0
   -3.4540   -3.1104   -2.6978 H   0  0  0  0  0  0  0  0  0  0  0  0
   -6.1706   -1.8503   -0.2491 H   0  0  0  0  0  0  0  0  0  0  0  0
   -3.1197    0.4427   -1.4434 H   0  0  0  0  0  0  0  0  0  0  0  0
   -3.0622   -1.3201    1.0956 H   0  0  0  0  0  0  0  0  0  0  0  0
   -3.3670    0.4033    1.0661 H   0  0  0  0  0  0  0  0  0  0  0  0
    1.2148   -1.2146    2.5336 H   0  0  0  0  0  0  0  0  0  0  0  0
    1.3564   -2.7273   -1.5664 H   0  0  0  0  0  0  0  0  0  0  0  0
   -0.4300    2.8311    1.0947 H   0  0  0  0  0  0  0  0  0  0  0  0
    2.7000   -0.9649   -1.5945 H   0  0  0  0  0  0  0  0  0  0  0  0
    2.1453    0.6923   -1.9650 H   0  0  0  0  0  0  0  0  0  0  0  0
    6.6696   -0.8434   -0.5976 H   0  0  0  0  0  0  0  0  0  0  0  0
    6.2617    0.9277   -0.7489 H   0  0  0  0  0  0  0  0  0  0  0  0
    7.5534    0.4107    0.3708 H   0  0  0  0  0  0  0  0  0  0  0  0
  2  3  1  0
  2  4  1  0
  4  5  1  0
  1  7  1  0
  8  9  1  0
  3 10  1  0
  6 11  1  0
  6 12  1  0
  6 13  1  0
  6 14  1  0
 10 14  1  0
  2 15  1  0
 14 15  1  0
  3 16  1  0
 16 17  1  0
 16 18  1  0
  5 19  1  0
 16 19  1  0
  4 20  1  0
  9 20  1  0
  1 21  1  0
 19 21  1  0
  7 22  1  0
 22 23  1  0
  1 24  1  0
  1 25  1  0
  2 26  1  0
  3 27  1  1
  4 28  1  6
  5 29  1  0
  5 30  1  0
  7 31  1  0
  7 32  1  0
  8 33  1  0
  8 34  1  0
  8 35  1  0
  9 36  1  0
  9 37  1  0
 11 38  1  0
 11 39  1  0
 12 40  1  0
 13 41  1  0
 14 42  1  0
 15 43  1  0
 15 44  1  0
 17 45  1  0
 18 46  1  0
 20 47  1  0
 21 48  1  0
 21 49  1  0
 23 50  1  0
 23 51  1  0
 23 52  1  0
M  END
>  <PDBID>  (1) 
4M2R

>  <PDB ID>  (1) 
4M2R

>  <Generic Name>  (1) 
Brinzolamide

>  <Brand Name>  (1) 
Azarga#Azopt#Sandoz Brinzolamide#Simbrinza

>  <DrugBank ID>  (1) 
DB01194

>  <ATC Codes>  (1) 
S01EC54#S01EC04

>  <Ligand ID>  (1) 
BZ1

>  <Target Name>  (1) 
Carbonic anhydrase 2

>  <UniProt ID>  (1) 
P00918

>  <PDB ID.1>  (1) 
4M2R

>  <Seq. Identity>  (1) 
100%

$$$$
