PDB_DB00990_02
     RDKit          3D

 56 59  0  0  0  0  0  0  0  0999 V2000
    1.7415   -3.0317    0.6940 C   0  0  0  0  0  0  0  0  0  0  0  0
    2.2543    1.7388   -0.0572 C   0  0  0  0  0  0  0  0  0  0  0  0
    4.2663    0.3161    1.5931 O   0  0  0  0  0  0  0  0  0  0  0  0
    3.7321    1.6057   -0.3417 C   0  0  0  0  0  0  0  0  0  0  0  0
   -3.6472    0.6805    2.3770 O   0  0  0  0  0  0  0  0  0  0  0  0
    4.2875    0.3210    0.2155 C   0  0  0  0  0  0  0  0  0  0  0  0
    3.5183   -0.8678   -0.3155 C   0  0  0  0  0  0  0  0  0  0  0  0
    2.0696   -0.7171    0.0509 C   0  0  0  0  0  0  0  0  0  0  0  0
    1.3125   -1.9450   -0.3051 C   0  0  0  0  0  0  0  0  0  0  0  0
   -0.1522   -1.8485   -0.3360 C   0  0  0  0  0  0  0  0  0  0  0  0
   -0.7766   -0.5233   -0.4211 C   0  0  2  0  0  0  0  0  0  0  0  0
    0.0878    0.6201    0.0805 C   0  0  1  0  0  0  0  0  0  0  0  0
    1.4592    0.5464   -0.5017 C   0  0  1  0  0  0  0  0  0  0  0  0
   -0.5910    1.9331   -0.0987 C   0  0  0  0  0  0  0  0  0  0  0  0
   -1.8750    1.9529    0.7014 C   0  0  0  0  0  0  0  0  0  0  0  0
   -2.7607    0.8756    0.1761 C   0  0  1  0  0  0  0  0  0  0  0  0
   -2.0348   -0.4448    0.3615 C   0  0  1  0  0  0  0  0  0  0  0  0
   -3.0747   -1.4396    0.0765 C   0  0  0  0  0  0  0  0  0  0  0  0
   -4.3394   -0.8139    0.6564 C   0  0  0  0  0  0  0  0  0  0  0  0
   -3.9869    0.6152    1.0075 C   0  0  0  0  0  0  0  0  0  0  0  0
   -3.1967    1.0963   -1.2420 C   0  0  0  0  0  0  0  0  0  0  0  0
    1.4426    0.4419   -2.0145 C   0  0  0  0  0  0  0  0  0  0  0  0
    0.9510   -3.7831    0.7721 H   0  0  0  0  0  0  0  0  0  0  0  0
    1.7755   -2.5020    1.6899 H   0  0  0  0  0  0  0  0  0  0  0  0
    2.7397   -3.4202    0.4668 H   0  0  0  0  0  0  0  0  0  0  0  0
    2.0734    1.9584    1.0002 H   0  0  0  0  0  0  0  0  0  0  0  0
    1.8953    2.6215   -0.6401 H   0  0  0  0  0  0  0  0  0  0  0  0
    3.9094    1.1499    1.9892 H   0  0  0  0  0  0  0  0  0  0  0  0
    3.9917    1.7479   -1.3918 H   0  0  0  0  0  0  0  0  0  0  0  0
    4.2325    2.4377    0.2242 H   0  0  0  0  0  0  0  0  0  0  0  0
   -3.4152   -0.2327    2.7071 H   0  0  0  0  0  0  0  0  0  0  0  0
    5.3397    0.2338   -0.1094 H   0  0  0  0  0  0  0  0  0  0  0  0
    3.6785   -1.0266   -1.3934 H   0  0  0  0  0  0  0  0  0  0  0  0
    3.9029   -1.7634    0.2097 H   0  0  0  0  0  0  0  0  0  0  0  0
    2.0362   -0.6108    1.1719 H   0  0  0  0  0  0  0  0  0  0  0  0
    1.7235   -2.3089   -1.2935 H   0  0  0  0  0  0  0  0  0  0  0  0
   -0.5861   -2.3850    0.5602 H   0  0  0  0  0  0  0  0  0  0  0  0
   -0.5259   -2.4673   -1.2073 H   0  0  0  0  0  0  0  0  0  0  0  0
   -1.0221   -0.2617   -1.4918 H   0  0  0  0  0  0  0  0  0  0  0  0
    0.1918    0.4490    1.1889 H   0  0  0  0  0  0  0  0  0  0  0  0
   -0.7155    2.2437   -1.1382 H   0  0  0  0  0  0  0  0  0  0  0  0
    0.0714    2.7130    0.3780 H   0  0  0  0  0  0  0  0  0  0  0  0
   -1.5974    1.6863    1.7450 H   0  0  0  0  0  0  0  0  0  0  0  0
   -2.3380    2.9536    0.7428 H   0  0  0  0  0  0  0  0  0  0  0  0
   -1.7695   -0.4941    1.4471 H   0  0  0  0  0  0  0  0  0  0  0  0
   -3.2076   -1.7081   -0.9852 H   0  0  0  0  0  0  0  0  0  0  0  0
   -2.8617   -2.3943    0.6116 H   0  0  0  0  0  0  0  0  0  0  0  0
   -5.1649   -0.8193   -0.0647 H   0  0  0  0  0  0  0  0  0  0  0  0
   -4.6436   -1.3191    1.5958 H   0  0  0  0  0  0  0  0  0  0  0  0
   -4.7967    1.3264    0.8059 H   0  0  0  0  0  0  0  0  0  0  0  0
   -3.9706    1.9158   -1.2129 H   0  0  0  0  0  0  0  0  0  0  0  0
   -3.7321    0.2036   -1.6036 H   0  0  0  0  0  0  0  0  0  0  0  0
   -2.4137    1.4281   -1.9202 H   0  0  0  0  0  0  0  0  0  0  0  0
    2.4298    0.8552   -2.3669 H   0  0  0  0  0  0  0  0  0  0  0  0
    0.6715    1.0608   -2.4797 H   0  0  0  0  0  0  0  0  0  0  0  0
    1.4100   -0.6003   -2.3648 H   0  0  0  0  0  0  0  0  0  0  0  0
  2  4  1  0
  3  6  1  0
  4  6  1  0
  6  7  1  0
  7  8  1  0
  1  9  1  0
  8  9  1  0
  9 10  1  0
 10 11  1  0
 11 12  1  0
  2 13  1  0
  8 13  1  0
 12 13  1  0
 12 14  1  0
 14 15  1  0
 15 16  1  0
 11 17  1  0
 16 17  1  0
 17 18  1  0
 18 19  1  0
  5 20  1  0
 16 20  1  0
 19 20  1  0
 16 21  1  6
 13 22  1  6
  1 23  1  0
  1 24  1  0
  1 25  1  0
  2 26  1  0
  2 27  1  0
  3 28  1  0
  4 29  1  0
  4 30  1  0
  5 31  1  0
  6 32  1  0
  7 33  1  0
  7 34  1  0
  8 35  1  0
  9 36  1  0
 10 37  1  0
 10 38  1  0
 11 39  1  6
 12 40  1  1
 14 41  1  0
 14 42  1  0
 15 43  1  0
 15 44  1  0
 17 45  1  1
 18 46  1  0
 18 47  1  0
 19 48  1  0
 19 49  1  0
 20 50  1  0
 21 51  1  0
 21 52  1  0
 21 53  1  0
 22 54  1  0
 22 55  1  0
 22 56  1  0
M  END
>  <PDBID>  (1) 
3S7S

>  <PDB ID>  (1) 
3S7S

>  <Generic Name>  (1) 
Exemestane

>  <Brand Name>  (1) 
Act Exemestane#Apo-exemestane#Aromasin#Exemestane#Gd-exemestane#Med-exemestane#Mylan-exemestane#Teva-exemestane#Exemestance

>  <DrugBank ID>  (1) 
DB00990

>  <ATC Codes>  (1) 
L02BG06

>  <Ligand ID>  (1) 
EXM

>  <Target Name>  (1) 
Aromatase

>  <UniProt ID>  (1) 
P11511

>  <PDB ID.1>  (1) 
3S7S

>  <Seq. Identity>  (1) 
98%

$$$$
