PDB_DB00220_00
     RDKit          3D

101104  0  0  0  0  0  0  0  0999 V2000
   -2.8627   -0.1004    3.0470 C   0  0  2  0  0  0  0  0  0  0  0  0
   -3.8985   -0.9940    2.4370 C   0  0  1  0  0  0  0  0  0  0  0  0
   -4.9320   -1.4526    3.4308 C   0  0  0  0  0  0  0  0  0  0  0  0
   -5.5147   -0.2257    4.0998 C   0  0  0  0  0  0  0  0  0  0  0  0
   -4.4074    0.3546    4.9640 C   0  0  0  0  0  0  0  0  0  0  0  0
   -3.3229    0.8675    4.0618 C   0  0  0  0  0  0  0  0  0  0  0  0
   -2.2387   -0.0542    0.6853 N   0  0  0  0  0  0  0  0  0  0  0  0
   -3.5154   -0.2544    0.1338 C   0  0  1  0  0  0  0  0  0  0  0  0
   -4.5477   -0.2844    1.2891 C   0  0  0  0  0  0  0  0  0  0  0  0
   -2.2602    0.7016    1.8967 C   0  0  0  0  0  0  0  0  0  0  0  0
   -3.9889    0.8480   -0.8070 C   0  0  1  0  0  0  0  0  0  0  0  0
   -3.3363    0.9230   -2.0483 N   0  0  0  0  0  0  0  0  0  0  0  0
   -3.5712    0.0082   -3.0758 C   0  0  0  0  0  0  0  0  0  0  0  0
   -5.0195    0.0806   -3.6057 C   0  0  0  0  0  0  0  0  0  0  0  0
   -3.2276   -1.4414   -2.8402 C   0  0  0  0  0  0  0  0  0  0  0  0
   -2.6954    0.4263   -4.2581 C   0  0  0  0  0  0  0  0  0  0  0  0
   -5.3716    0.4977   -1.0595 O   0  0  0  0  0  0  0  0  0  0  0  0
   -1.0747   -0.1689   -0.0595 C   0  0  0  0  0  0  0  0  0  0  0  0
    0.2036    0.0667    0.6697 C   0  0  2  0  0  0  0  0  0  0  0  0
    1.3802    0.4305   -0.1806 C   0  0  1  0  0  0  0  0  0  0  0  0
    0.5247   -0.7578    1.6919 O   0  0  0  0  0  0  0  0  0  0  0  0
    2.1168   -0.6294   -0.7709 N   0  0  0  0  0  0  0  0  0  0  0  0
    1.0032    1.5448   -1.1428 C   0  0  0  0  0  0  0  0  0  0  0  0
    3.3808   -0.8399   -0.1596 C   0  0  0  0  0  0  0  0  0  0  0  0
    4.3889   -0.3272   -1.0892 O   0  0  0  0  0  0  0  0  0  0  0  0
    3.7972   -2.1968    0.2653 C   0  0  0  0  0  0  0  0  0  0  0  0
    2.9398   -2.8915    1.2591 C   0  0  0  0  0  0  0  0  0  0  0  0
    3.4481   -4.3139    1.4961 C   0  0  0  0  0  0  0  0  0  0  0  0
    3.6144   -5.1048    0.2420 C   0  0  0  0  0  0  0  0  0  0  0  0
    3.2682   -4.2735   -0.9629 C   0  0  1  0  0  0  0  0  0  0  0  0
    4.1644   -3.0322   -0.9405 C   0  0  2  0  0  0  0  0  0  0  0  0
    3.6071   -5.0305   -2.1123 O   0  0  0  0  0  0  0  0  0  0  0  0
    5.6106   -3.5142   -0.8669 C   0  0  0  0  0  0  0  0  0  0  0  0
    2.4939    2.1941   -2.0043 S   0  0  0  0  0  0  0  0  0  0  0  0
    3.5476    2.9500   -0.6885 C   0  0  0  0  0  0  0  0  0  0  0  0
    2.7320    3.9125    0.1490 C   0  0  0  0  0  0  0  0  0  0  0  0
    2.5165    5.2267   -0.5634 C   0  0  0  0  0  0  0  0  0  0  0  0
    3.7979    6.0456   -0.5286 C   0  0  0  0  0  0  0  0  0  0  0  0
    4.9393    5.0547   -0.5955 C   0  0  0  0  0  0  0  0  0  0  0  0
    4.5586    3.8393   -1.4254 C   0  0  0  0  0  0  0  0  0  0  0  0
   -2.8219    1.7792   -2.2555 H   0  0  0  0  0  0  0  0  0  0  0  0
   -0.0130   -1.5978    1.6219 H   0  0  0  0  0  0  0  0  0  0  0  0
    2.1777   -0.5395   -1.7856 H   0  0  0  0  0  0  0  0  0  0  0  0
    3.6006   -4.4051   -2.8765 H   0  0  0  0  0  0  0  0  0  0  0  0
   -2.0349   -0.7191    3.4347 H   0  0  0  0  0  0  0  0  0  0  0  0
   -3.3924   -1.8922    2.0266 H   0  0  0  0  0  0  0  0  0  0  0  0
   -4.4694   -2.0941    4.2124 H   0  0  0  0  0  0  0  0  0  0  0  0
   -5.7030   -2.0086    2.8639 H   0  0  0  0  0  0  0  0  0  0  0  0
   -5.8498    0.5150    3.3323 H   0  0  0  0  0  0  0  0  0  0  0  0
   -6.3949   -0.4957    4.7219 H   0  0  0  0  0  0  0  0  0  0  0  0
   -4.0180   -0.4491    5.6046 H   0  0  0  0  0  0  0  0  0  0  0  0
   -4.8160    1.2252    5.5124 H   0  0  0  0  0  0  0  0  0  0  0  0
   -3.6726    1.8141    3.5792 H   0  0  0  0  0  0  0  0  0  0  0  0
   -2.4706    1.1745    4.7017 H   0  0  0  0  0  0  0  0  0  0  0  0
   -3.6006   -1.2567   -0.3123 H   0  0  0  0  0  0  0  0  0  0  0  0
   -5.4434   -0.8707    1.0086 H   0  0  0  0  0  0  0  0  0  0  0  0
   -4.8384    0.7663    1.5617 H   0  0  0  0  0  0  0  0  0  0  0  0
   -2.9763    1.5607    1.7379 H   0  0  0  0  0  0  0  0  0  0  0  0
   -1.3448    1.0898    2.2313 H   0  0  0  0  0  0  0  0  0  0  0  0
   -4.0141    1.7839   -0.2700 H   0  0  0  0  0  0  0  0  0  0  0  0
   -5.5000    1.0176   -3.3165 H   0  0  0  0  0  0  0  0  0  0  0  0
   -4.9968    0.0673   -4.7342 H   0  0  0  0  0  0  0  0  0  0  0  0
   -5.5752   -0.8427   -3.3463 H   0  0  0  0  0  0  0  0  0  0  0  0
   -2.2924   -1.5197   -2.2940 H   0  0  0  0  0  0  0  0  0  0  0  0
   -4.0813   -2.0269   -2.4380 H   0  0  0  0  0  0  0  0  0  0  0  0
   -3.0265   -1.9477   -3.8381 H   0  0  0  0  0  0  0  0  0  0  0  0
   -2.6264    1.5170   -4.2728 H   0  0  0  0  0  0  0  0  0  0  0  0
   -1.7113   -0.0685   -4.1135 H   0  0  0  0  0  0  0  0  0  0  0  0
   -3.2082    0.0924   -5.1924 H   0  0  0  0  0  0  0  0  0  0  0  0
   -5.4969   -0.4611   -0.9861 H   0  0  0  0  0  0  0  0  0  0  0  0
   -1.0308   -1.1967   -0.5299 H   0  0  0  0  0  0  0  0  0  0  0  0
   -1.1210    0.5452   -0.9061 H   0  0  0  0  0  0  0  0  0  0  0  0
    0.0012    1.1514    1.1450 H   0  0  0  0  0  0  0  0  0  0  0  0
    2.1151    0.9356    0.5445 H   0  0  0  0  0  0  0  0  0  0  0  0
    0.5594    2.3615   -0.5853 H   0  0  0  0  0  0  0  0  0  0  0  0
    0.3845    1.1247   -1.9718 H   0  0  0  0  0  0  0  0  0  0  0  0
    3.5343   -0.1284    0.7086 H   0  0  0  0  0  0  0  0  0  0  0  0
    4.0143   -0.4511   -2.0111 H   0  0  0  0  0  0  0  0  0  0  0  0
    4.8141   -2.0754    0.8187 H   0  0  0  0  0  0  0  0  0  0  0  0
    3.1160   -2.3781    2.2532 H   0  0  0  0  0  0  0  0  0  0  0  0
    1.8797   -2.9542    1.0271 H   0  0  0  0  0  0  0  0  0  0  0  0
    4.3762   -4.2949    2.1184 H   0  0  0  0  0  0  0  0  0  0  0  0
    2.6510   -4.8206    2.1178 H   0  0  0  0  0  0  0  0  0  0  0  0
    2.9782   -6.0138    0.1955 H   0  0  0  0  0  0  0  0  0  0  0  0
    4.6671   -5.4622    0.1044 H   0  0  0  0  0  0  0  0  0  0  0  0
    2.2266   -3.9484   -0.9595 H   0  0  0  0  0  0  0  0  0  0  0  0
    4.0214   -2.5085   -1.8875 H   0  0  0  0  0  0  0  0  0  0  0  0
    5.6830   -4.4587   -1.4582 H   0  0  0  0  0  0  0  0  0  0  0  0
    6.3283   -2.7950   -1.2532 H   0  0  0  0  0  0  0  0  0  0  0  0
    5.8809   -3.7478    0.1934 H   0  0  0  0  0  0  0  0  0  0  0  0
    4.1041    2.2079   -0.1273 H   0  0  0  0  0  0  0  0  0  0  0  0
    3.3847    4.1289    1.0481 H   0  0  0  0  0  0  0  0  0  0  0  0
    1.7507    3.5272    0.4599 H   0  0  0  0  0  0  0  0  0  0  0  0
    1.6833    5.7404   -0.0517 H   0  0  0  0  0  0  0  0  0  0  0  0
    2.1877    5.0219   -1.6125 H   0  0  0  0  0  0  0  0  0  0  0  0
    3.8268    6.5767    0.4590 H   0  0  0  0  0  0  0  0  0  0  0  0
    3.7664    6.7627   -1.3600 H   0  0  0  0  0  0  0  0  0  0  0  0
    5.2801    4.7606    0.4228 H   0  0  0  0  0  0  0  0  0  0  0  0
    5.7651    5.5604   -1.0973 H   0  0  0  0  0  0  0  0  0  0  0  0
    4.0401    4.2288   -2.3109 H   0  0  0  0  0  0  0  0  0  0  0  0
    5.4940    3.3077   -1.6464 H   0  0  0  0  0  0  0  0  0  0  0  0
  1  2  1  0
  2  3  1  0
  3  4  1  0
  4  5  1  0
  1  6  1  0
  5  6  1  0
  7  8  1  0
  2  9  1  0
  8  9  1  0
  1 10  1  0
  7 10  1  0
  8 11  1  0
 11 12  1  0
 13 12  1  0
 13 14  1  0
 13 15  1  0
 13 16  1  0
 11 17  1  0
  7 18  1  0
 18 19  1  0
 19 20  1  0
 19 21  1  0
 20 22  1  0
 20 23  1  0
 22 24  1  0
 24 25  1  0
 24 26  1  0
 26 27  1  0
 27 28  1  0
 28 29  1  0
 29 30  1  0
 26 31  1  0
 30 31  1  0
 30 32  1  0
 31 33  1  0
 23 34  1  0
 34 35  1  0
 35 36  1  0
 36 37  1  0
 37 38  1  0
 38 39  1  0
 35 40  1  0
 39 40  1  0
 12 41  1  0
 21 42  1  0
 22 43  1  0
 32 44  1  0
  1 45  1  1
  2 46  1  6
  3 47  1  0
  3 48  1  0
  4 49  1  0
  4 50  1  0
  5 51  1  0
  5 52  1  0
  6 53  1  0
  6 54  1  0
  8 55  1  6
  9 56  1  0
  9 57  1  0
 10 58  1  0
 10 59  1  0
 11 60  1  1
 14 61  1  0
 14 62  1  0
 14 63  1  0
 15 64  1  0
 15 65  1  0
 15 66  1  0
 16 67  1  0
 16 68  1  0
 16 69  1  0
 17 70  1  0
 18 71  1  0
 18 72  1  0
 19 73  1  1
 20 74  1  1
 23 75  1  0
 23 76  1  0
 24 77  1  0
 25 78  1  0
 26 79  1  0
 27 80  1  0
 27 81  1  0
 28 82  1  0
 28 83  1  0
 29 84  1  0
 29 85  1  0
 30 86  1  6
 31 87  1  6
 33 88  1  0
 33 89  1  0
 33 90  1  0
 35 91  1  0
 36 92  1  0
 36 93  1  0
 37 94  1  0
 37 95  1  0
 38 96  1  0
 38 97  1  0
 39 98  1  0
 39 99  1  0
 40100  1  0
 40101  1  0
M  END
>  <PDBID>  (1) 
1OHR

>  <PDB ID>  (1) 
1OHR

>  <Generic Name>  (1) 
Nelfinavir

>  <Brand Name>  (1) 
Viracept#Viracept -250mg#Viracept -50mg

>  <DrugBank ID>  (1) 
DB00220

>  <ATC Codes>  (1) 
J05AE04

>  <Ligand ID>  (1) 
1UN

>  <Target Name>  (1) 
HIV-1 protease

>  <UniProt ID>  (1) 
O90777

>  <PDB ID.1>  (1) 
1OHR

>  <Seq. Identity>  (1) 
93%

$$$$
