PDB_DB09078_04
     RDKit          3D

 69 72  0  0  0  0  0  0  0  0999 V2000
   -5.4877    3.1624   -0.9913 C   0  0  0  0  0  0  0  0  0  0  0  0
   -5.7390    1.9476   -0.3683 O   0  0  0  0  0  0  0  0  0  0  0  0
   -4.5665    1.2100   -0.3269 C   0  0  0  0  0  0  0  0  0  0  0  0
   -4.8428   -0.0885   -1.0593 C   0  0  0  0  0  0  0  0  0  0  0  0
   -3.8801   -1.1928   -0.6779 C   0  0  0  0  0  0  0  0  0  0  0  0
   -3.6716   -2.0280   -1.8141 N   0  0  0  0  0  0  0  0  0  0  0  0
   -2.4827   -2.8218   -1.7706 C   0  0  0  0  0  0  0  0  0  0  0  0
   -2.0146   -2.8693   -0.3188 C   0  0  0  0  0  0  0  0  0  0  0  0
   -1.4546   -1.4802   -0.0230 C   0  0  2  0  0  0  0  0  0  0  0  0
   -2.6263   -0.5193   -0.1823 C   0  0  0  0  0  0  0  0  0  0  0  0
   -2.9742    0.0678    1.1786 C   0  0  0  0  0  0  0  0  0  0  0  0
   -4.1620    0.9619    1.1113 C   0  0  2  0  0  0  0  0  0  0  0  0
   -5.3632    0.4948    1.8710 C   0  0  2  0  0  0  0  0  0  0  0  0
   -6.3625    1.4939    1.8135 O   0  0  0  0  0  0  0  0  0  0  0  0
   -5.1112    0.2570    3.2643 N   0  0  0  0  0  0  0  0  0  0  0  0
   -0.5312   -1.1150   -0.9732 O   0  0  0  0  0  0  0  0  0  0  0  0
    0.7251   -0.7735   -0.4923 C   0  0  1  0  0  0  0  0  0  0  0  0
    1.8202   -1.6260   -1.0215 C   0  0  0  0  0  0  0  0  0  0  0  0
    3.1480   -1.1060   -0.4300 C   0  0  1  0  0  0  0  0  0  0  0  0
    3.4472    0.2810   -0.8962 C   0  0  2  0  0  0  0  0  0  0  0  0
    2.2562    0.8018   -1.6909 C   0  0  0  0  0  0  0  0  0  0  0  0
    1.0431    0.6850   -0.7705 C   0  0  0  0  0  0  0  0  0  0  0  0
    4.6423    0.4541   -1.6088 N   0  0  0  0  0  0  0  0  0  0  0  0
    5.8967    0.2624   -0.9359 C   0  0  0  0  0  0  0  0  0  0  0  0
    6.0344   -0.9805   -0.3764 O   0  0  0  0  0  0  0  0  0  0  0  0
    6.0634    1.3715   -0.0348 N   0  0  0  0  0  0  0  0  0  0  0  0
    7.3062    1.5028    0.6245 C   0  0  0  0  0  0  0  0  0  0  0  0
    7.9169    0.5759    1.5750 C   0  0  0  0  0  0  0  0  0  0  0  0
    8.5367    0.8049    0.1842 C   0  0  0  0  0  0  0  0  0  0  0  0
    2.9056   -1.0815    1.3294 Cl  0  0  0  0  0  0  0  0  0  0  0  0
   -6.3941    3.7967   -1.0533 H   0  0  0  0  0  0  0  0  0  0  0  0
   -5.0757    3.0241   -2.0126 H   0  0  0  0  0  0  0  0  0  0  0  0
   -4.7321    3.7372   -0.3912 H   0  0  0  0  0  0  0  0  0  0  0  0
   -3.7593    1.7978   -0.8025 H   0  0  0  0  0  0  0  0  0  0  0  0
   -5.9017   -0.3975   -0.9973 H   0  0  0  0  0  0  0  0  0  0  0  0
   -4.6631    0.1481   -2.1494 H   0  0  0  0  0  0  0  0  0  0  0  0
   -4.3974   -1.7846    0.1282 H   0  0  0  0  0  0  0  0  0  0  0  0
   -4.4844   -2.6726   -1.9220 H   0  0  0  0  0  0  0  0  0  0  0  0
   -1.7111   -2.2633   -2.3793 H   0  0  0  0  0  0  0  0  0  0  0  0
   -2.6405   -3.8260   -2.1984 H   0  0  0  0  0  0  0  0  0  0  0  0
   -1.2507   -3.6542   -0.1689 H   0  0  0  0  0  0  0  0  0  0  0  0
   -2.8455   -3.0630    0.3760 H   0  0  0  0  0  0  0  0  0  0  0  0
   -1.1148   -1.4750    1.0116 H   0  0  0  0  0  0  0  0  0  0  0  0
   -2.3926    0.3084   -0.8567 H   0  0  0  0  0  0  0  0  0  0  0  0
   -2.0834    0.6703    1.4836 H   0  0  0  0  0  0  0  0  0  0  0  0
   -3.0550   -0.7463    1.9412 H   0  0  0  0  0  0  0  0  0  0  0  0
   -3.9070    1.9817    1.5230 H   0  0  0  0  0  0  0  0  0  0  0  0
   -5.8309   -0.4029    1.4445 H   0  0  0  0  0  0  0  0  0  0  0  0
   -7.2094    1.0479    2.0731 H   0  0  0  0  0  0  0  0  0  0  0  0
   -5.0638    1.0996    3.8475 H   0  0  0  0  0  0  0  0  0  0  0  0
   -4.3944   -0.4502    3.4518 H   0  0  0  0  0  0  0  0  0  0  0  0
    0.6889   -0.8859    0.6105 H   0  0  0  0  0  0  0  0  0  0  0  0
    1.9596   -1.6167   -2.1043 H   0  0  0  0  0  0  0  0  0  0  0  0
    1.7676   -2.6857   -0.6428 H   0  0  0  0  0  0  0  0  0  0  0  0
    3.9443   -1.8546   -0.6490 H   0  0  0  0  0  0  0  0  0  0  0  0
    3.4931    1.0010   -0.0095 H   0  0  0  0  0  0  0  0  0  0  0  0
    2.1214    0.3261   -2.6599 H   0  0  0  0  0  0  0  0  0  0  0  0
    2.3846    1.8979   -1.8789 H   0  0  0  0  0  0  0  0  0  0  0  0
    1.3079    1.2287    0.1605 H   0  0  0  0  0  0  0  0  0  0  0  0
    0.1474    1.1504   -1.1862 H   0  0  0  0  0  0  0  0  0  0  0  0
    4.6482   -0.0754   -2.4981 H   0  0  0  0  0  0  0  0  0  0  0  0
    6.6730    0.3572   -1.7739 H   0  0  0  0  0  0  0  0  0  0  0  0
    5.7763   -1.0508    0.5542 H   0  0  0  0  0  0  0  0  0  0  0  0
    5.8084    2.2449   -0.5456 H   0  0  0  0  0  0  0  0  0  0  0  0
    7.5099    2.5989    0.8837 H   0  0  0  0  0  0  0  0  0  0  0  0
    7.6627   -0.4626    1.7562 H   0  0  0  0  0  0  0  0  0  0  0  0
    8.5101    0.9978    2.4495 H   0  0  0  0  0  0  0  0  0  0  0  0
    9.5123    1.3285    0.2086 H   0  0  0  0  0  0  0  0  0  0  0  0
    8.5195   -0.0283   -0.5316 H   0  0  0  0  0  0  0  0  0  0  0  0
  1  2  1  0
  2  3  1  0
  3  4  1  0
  4  5  1  0
  5  6  1  0
  6  7  1  0
  7  8  1  0
  8  9  1  0
  5 10  1  0
  9 10  1  0
 10 11  1  0
  3 12  1  0
 11 12  1  0
 12 13  1  0
 13 14  1  0
 13 15  1  0
  9 16  1  0
 16 17  1  0
 17 18  1  0
 18 19  1  0
 19 20  1  0
 20 21  1  0
 17 22  1  0
 21 22  1  0
 20 23  1  0
 23 24  1  0
 24 25  1  0
 24 26  1  0
 26 27  1  0
 27 28  1  0
 27 29  1  0
 28 29  1  0
 19 30  1  0
  1 31  1  0
  1 32  1  0
  1 33  1  0
  3 34  1  0
  4 35  1  0
  4 36  1  0
  5 37  1  0
  6 38  1  0
  7 39  1  0
  7 40  1  0
  8 41  1  0
  8 42  1  0
  9 43  1  1
 10 44  1  0
 11 45  1  0
 11 46  1  0
 12 47  1  1
 13 48  1  6
 14 49  1  0
 15 50  1  0
 15 51  1  0
 17 52  1  1
 18 53  1  0
 18 54  1  0
 19 55  1  1
 20 56  1  1
 21 57  1  0
 21 58  1  0
 22 59  1  0
 22 60  1  0
 23 61  1  0
 24 62  1  0
 25 63  1  0
 26 64  1  0
 27 65  1  0
 28 66  1  0
 28 67  1  0
 29 68  1  0
 29 69  1  0
M  END
>  <PDBID>  (1) 
3WZD

>  <PDB ID>  (1) 
3WZD

>  <Generic Name>  (1) 
Lenvatinib

>  <Brand Name>  (1) 
Lenvima

>  <DrugBank ID>  (1) 
DB09078

>  <ATC Codes>  (1) 
L01XE29

>  <Ligand ID>  (1) 
LEV

>  <Target Name>  (1) 
Vascular endothelial growth factor receptor 3

>  <UniProt ID>  (1) 
P35916

>  <PDB ID.1>  (1) 
3WZD

>  <Seq. Identity>  (1) 
67%

$$$$
