PDB_DB01597_05
     RDKit          3D

 82 82  0  0  0  0  0  0  0  0999 V2000
    3.2359   -0.0114    1.2574 C   0  0  0  0  0  0  0  0  0  0  0  0
    2.1242    0.6574    0.5315 C   0  0  1  0  0  0  0  0  0  0  0  0
    3.4734    0.7112   -0.0554 C   0  0  0  0  0  0  0  0  0  0  0  0
    3.9904   -0.1725   -1.1312 C   0  0  0  0  0  0  0  0  0  0  0  0
    4.1757    2.0721   -0.0287 C   0  0  0  0  0  0  0  0  0  0  0  0
    1.0080   -0.1297   -0.1240 C   0  0  0  0  0  0  0  0  0  0  0  0
    0.3125   -0.9063    0.8050 N   0  0  0  0  0  0  0  0  0  0  0  0
   -1.0754   -1.2310    0.5711 C   0  0  0  0  0  0  0  0  0  0  0  0
   -1.9802   -0.0653    0.6011 C   0  0  0  0  0  0  0  0  0  0  0  0
    0.2964    0.7727   -0.8946 O   0  0  0  0  0  0  0  0  0  0  0  0
   -1.1549   -2.1111   -0.6303 C   0  0  0  0  0  0  0  0  0  0  0  0
   -2.4377   -2.5266   -0.9067 O   0  0  0  0  0  0  0  0  0  0  0  0
   -0.3855   -3.2586   -0.3591 O   0  0  0  0  0  0  0  0  0  0  0  0
   -3.4242   -0.4172    0.3668 C   0  0  0  0  0  0  0  0  0  0  0  0
   -4.2995    0.8414    0.4942 C   0  0  0  0  0  0  0  0  0  0  0  0
   -3.9227    1.8994   -0.5016 C   0  0  0  0  0  0  0  0  0  0  0  0
    3.2359   -0.0114    1.2574 C   0  0  0  0  0  0  0  0  0  0  0  0
    2.1242    0.6574    0.5315 C   0  0  1  0  0  0  0  0  0  0  0  0
    3.4734    0.7112   -0.0554 C   0  0  0  0  0  0  0  0  0  0  0  0
    3.9904   -0.1725   -1.1312 C   0  0  0  0  0  0  0  0  0  0  0  0
    4.1757    2.0721   -0.0287 C   0  0  0  0  0  0  0  0  0  0  0  0
    1.0080   -0.1297   -0.1240 C   0  0  0  0  0  0  0  0  0  0  0  0
    0.3125   -0.9063    0.8050 N   0  0  0  0  0  0  0  0  0  0  0  0
   -1.0754   -1.2310    0.5711 C   0  0  0  0  0  0  0  0  0  0  0  0
   -1.9802   -0.0653    0.6011 C   0  0  0  0  0  0  0  0  0  0  0  0
    0.2964    0.7727   -0.8946 O   0  0  0  0  0  0  0  0  0  0  0  0
   -1.1549   -2.1111   -0.6303 C   0  0  0  0  0  0  0  0  0  0  0  0
   -2.4377   -2.5266   -0.9067 O   0  0  0  0  0  0  0  0  0  0  0  0
   -0.3855   -3.2586   -0.3591 O   0  0  0  0  0  0  0  0  0  0  0  0
   -3.4242   -0.4172    0.3668 C   0  0  0  0  0  0  0  0  0  0  0  0
   -4.2995    0.8414    0.4942 C   0  0  0  0  0  0  0  0  0  0  0  0
   -3.9227    1.8994   -0.5016 C   0  0  0  0  0  0  0  0  0  0  0  0
    3.6974    0.4678    2.1491 H   0  0  0  0  0  0  0  0  0  0  0  0
    3.2905   -1.1152    1.2880 H   0  0  0  0  0  0  0  0  0  0  0  0
    1.7597    1.5876    1.0173 H   0  0  0  0  0  0  0  0  0  0  0  0
    4.9177   -0.6888   -0.7389 H   0  0  0  0  0  0  0  0  0  0  0  0
    3.3481   -0.9715   -1.4858 H   0  0  0  0  0  0  0  0  0  0  0  0
    4.3461    0.4011   -2.0303 H   0  0  0  0  0  0  0  0  0  0  0  0
    3.9539    2.6509    0.8651 H   0  0  0  0  0  0  0  0  0  0  0  0
    3.7439    2.6262   -0.9152 H   0  0  0  0  0  0  0  0  0  0  0  0
    5.2493    1.9627   -0.2761 H   0  0  0  0  0  0  0  0  0  0  0  0
    1.4407   -0.8497   -0.8898 H   0  0  0  0  0  0  0  0  0  0  0  0
    0.5902   -0.8651    1.7889 H   0  0  0  0  0  0  0  0  0  0  0  0
   -1.3624   -1.8880    1.4475 H   0  0  0  0  0  0  0  0  0  0  0  0
   -1.9351    0.4317    1.6126 H   0  0  0  0  0  0  0  0  0  0  0  0
   -1.7653    0.7327   -0.1756 H   0  0  0  0  0  0  0  0  0  0  0  0
    0.8354    1.5688   -1.1418 H   0  0  0  0  0  0  0  0  0  0  0  0
   -0.7095   -1.5428   -1.4821 H   0  0  0  0  0  0  0  0  0  0  0  0
   -2.6000   -3.3690   -0.4303 H   0  0  0  0  0  0  0  0  0  0  0  0
   -0.0913   -3.6677   -1.2148 H   0  0  0  0  0  0  0  0  0  0  0  0
   -3.6184   -0.7342   -0.6941 H   0  0  0  0  0  0  0  0  0  0  0  0
   -3.8225   -1.1749    1.0253 H   0  0  0  0  0  0  0  0  0  0  0  0
   -4.2028    1.2302    1.5123 H   0  0  0  0  0  0  0  0  0  0  0  0
   -5.3387    0.4984    0.2440 H   0  0  0  0  0  0  0  0  0  0  0  0
   -2.9779    2.3830   -0.2380 H   0  0  0  0  0  0  0  0  0  0  0  0
   -3.9596    1.5123   -1.5452 H   0  0  0  0  0  0  0  0  0  0  0  0
   -4.7259    2.6890   -0.4538 H   0  0  0  0  0  0  0  0  0  0  0  0
    3.6974    0.4678    2.1491 H   0  0  0  0  0  0  0  0  0  0  0  0
    3.2905   -1.1152    1.2880 H   0  0  0  0  0  0  0  0  0  0  0  0
    1.7597    1.5876    1.0173 H   0  0  0  0  0  0  0  0  0  0  0  0
    4.9177   -0.6888   -0.7389 H   0  0  0  0  0  0  0  0  0  0  0  0
    3.3481   -0.9715   -1.4858 H   0  0  0  0  0  0  0  0  0  0  0  0
    4.3461    0.4011   -2.0303 H   0  0  0  0  0  0  0  0  0  0  0  0
    3.9539    2.6509    0.8651 H   0  0  0  0  0  0  0  0  0  0  0  0
    3.7439    2.6262   -0.9152 H   0  0  0  0  0  0  0  0  0  0  0  0
    5.2493    1.9627   -0.2761 H   0  0  0  0  0  0  0  0  0  0  0  0
    1.4407   -0.8497   -0.8898 H   0  0  0  0  0  0  0  0  0  0  0  0
    0.5902   -0.8651    1.7889 H   0  0  0  0  0  0  0  0  0  0  0  0
   -1.3624   -1.8880    1.4475 H   0  0  0  0  0  0  0  0  0  0  0  0
   -1.9351    0.4317    1.6126 H   0  0  0  0  0  0  0  0  0  0  0  0
   -1.7653    0.7327   -0.1756 H   0  0  0  0  0  0  0  0  0  0  0  0
    0.8354    1.5688   -1.1418 H   0  0  0  0  0  0  0  0  0  0  0  0
   -0.7095   -1.5428   -1.4821 H   0  0  0  0  0  0  0  0  0  0  0  0
   -2.6000   -3.3690   -0.4303 H   0  0  0  0  0  0  0  0  0  0  0  0
   -0.0913   -3.6677   -1.2148 H   0  0  0  0  0  0  0  0  0  0  0  0
   -3.6184   -0.7342   -0.6941 H   0  0  0  0  0  0  0  0  0  0  0  0
   -3.8225   -1.1749    1.0253 H   0  0  0  0  0  0  0  0  0  0  0  0
   -4.2028    1.2302    1.5123 H   0  0  0  0  0  0  0  0  0  0  0  0
   -5.3387    0.4984    0.2440 H   0  0  0  0  0  0  0  0  0  0  0  0
   -2.9779    2.3830   -0.2380 H   0  0  0  0  0  0  0  0  0  0  0  0
   -3.9596    1.5123   -1.5452 H   0  0  0  0  0  0  0  0  0  0  0  0
   -4.7259    2.6890   -0.4538 H   0  0  0  0  0  0  0  0  0  0  0  0
  1  2  1  0
  1  3  1  0
  2  3  1  0
  3  4  1  0
  3  5  1  0
  2  6  1  0
  6  7  1  0
  7  8  1  0
  8  9  1  0
  6 10  1  0
  8 11  1  0
 11 12  1  0
 11 13  1  0
  9 14  1  0
 14 15  1  0
 15 16  1  0
 17 18  1  0
 17 19  1  0
 18 19  1  0
 19 20  1  0
 19 21  1  0
 18 22  1  0
 22 23  1  0
 23 24  1  0
 24 25  1  0
 22 26  1  0
 24 27  1  0
 27 28  1  0
 27 29  1  0
 25 30  1  0
 30 31  1  0
 31 32  1  0
  1 33  1  0
  1 34  1  0
  2 35  1  1
  4 36  1  0
  4 37  1  0
  4 38  1  0
  5 39  1  0
  5 40  1  0
  5 41  1  0
  6 42  1  0
  7 43  1  0
  8 44  1  0
  9 45  1  0
  9 46  1  0
 10 47  1  0
 11 48  1  0
 12 49  1  0
 13 50  1  0
 14 51  1  0
 14 52  1  0
 15 53  1  0
 15 54  1  0
 16 55  1  0
 16 56  1  0
 16 57  1  0
 17 58  1  0
 17 59  1  0
 18 60  1  1
 20 61  1  0
 20 62  1  0
 20 63  1  0
 21 64  1  0
 21 65  1  0
 21 66  1  0
 22 67  1  0
 23 68  1  0
 24 69  1  0
 25 70  1  0
 25 71  1  0
 26 72  1  0
 27 73  1  0
 28 74  1  0
 29 75  1  0
 30 76  1  0
 30 77  1  0
 31 78  1  0
 31 79  1  0
 32 80  1  0
 32 81  1  0
 32 82  1  0
M  END
>  <PDBID>  (1) 
1ITU

>  <PDB ID>  (1) 
1ITU

>  <Generic Name>  (1) 
Cilastatin

>  <Brand Name>  (1) 
Imipenem and Cilastatin#Imipenem and Cilastatin for Injection#Imipenem and Cilastatin for Injection USP#Imipenem and Cilastatin for Injection, USP#Primaxin 250#Primaxin 500#Primaxin IV#Primaxin IV 250/250 Add-vantage Vial#Primaxin IV 500#Ran-imipenem-cilastatin

>  <DrugBank ID>  (1) 
DB01597

>  <ATC Codes>  (1) 
nan

>  <Ligand ID>  (1) 
CIL

>  <Target Name>  (1) 
Dipeptidase 1

>  <UniProt ID>  (1) 
P16444

>  <PDB ID.1>  (1) 
1ITU

>  <Seq. Identity>  (1) 
100%

$$$$
