PDB_DB00990_04
     RDKit          3D

 56 59  0  0  0  0  0  0  0  0999 V2000
    2.1023   -2.6442   -0.7476 C   0  0  0  0  0  0  0  0  0  0  0  0
    2.1497    1.8769   -0.5702 C   0  0  0  0  0  0  0  0  0  0  0  0
    5.5144    1.0161    0.5109 O   0  0  0  0  0  0  0  0  0  0  0  0
    3.3496    1.9572    0.3866 C   0  0  0  0  0  0  0  0  0  0  0  0
   -5.1800    1.0439    0.2846 O   0  0  0  0  0  0  0  0  0  0  0  0
    4.2724    0.8381   -0.0964 C   0  0  0  0  0  0  0  0  0  0  0  0
    3.6109   -0.4317    0.3508 C   0  0  0  0  0  0  0  0  0  0  0  0
    2.1429   -0.4153    0.4475 C   0  0  0  0  0  0  0  0  0  0  0  0
    1.5505   -1.7935    0.3487 C   0  0  0  0  0  0  0  0  0  0  0  0
    0.0547   -1.8170    0.3956 C   0  0  0  0  0  0  0  0  0  0  0  0
   -0.6695   -0.6186   -0.0401 C   0  0  2  0  0  0  0  0  0  0  0  0
    0.0472    0.7027    0.1903 C   0  0  1  0  0  0  0  0  0  0  0  0
    1.4060    0.5859   -0.4251 C   0  0  1  0  0  0  0  0  0  0  0  0
   -0.7429    1.8793   -0.2068 C   0  0  0  0  0  0  0  0  0  0  0  0
   -2.1381    1.8613    0.3670 C   0  0  0  0  0  0  0  0  0  0  0  0
   -2.8238    0.5780    0.1133 C   0  0  1  0  0  0  0  0  0  0  0  0
   -1.9653   -0.5065    0.7839 C   0  0  1  0  0  0  0  0  0  0  0  0
   -2.8465   -1.6929    0.6538 C   0  0  0  0  0  0  0  0  0  0  0  0
   -4.2611   -1.1248    0.7944 C   0  0  0  0  0  0  0  0  0  0  0  0
   -4.1012    0.3870    0.8636 C   0  0  0  0  0  0  0  0  0  0  0  0
   -3.0526    0.2745   -1.3366 C   0  0  0  0  0  0  0  0  0  0  0  0
    1.2162    0.0623   -1.8471 C   0  0  0  0  0  0  0  0  0  0  0  0
    2.7045   -2.1633   -1.5049 H   0  0  0  0  0  0  0  0  0  0  0  0
    2.7129   -3.5236   -0.3835 H   0  0  0  0  0  0  0  0  0  0  0  0
    1.2475   -3.1455   -1.2919 H   0  0  0  0  0  0  0  0  0  0  0  0
    1.5939    2.7916   -0.4007 H   0  0  0  0  0  0  0  0  0  0  0  0
    2.6293    1.9999   -1.5888 H   0  0  0  0  0  0  0  0  0  0  0  0
    5.8763    1.8850    0.1518 H   0  0  0  0  0  0  0  0  0  0  0  0
    3.0559    1.7507    1.4250 H   0  0  0  0  0  0  0  0  0  0  0  0
    3.8515    2.9129    0.2289 H   0  0  0  0  0  0  0  0  0  0  0  0
   -5.7183    0.3660   -0.2036 H   0  0  0  0  0  0  0  0  0  0  0  0
    4.4252    0.8900   -1.1906 H   0  0  0  0  0  0  0  0  0  0  0  0
    4.0770   -0.6540    1.3634 H   0  0  0  0  0  0  0  0  0  0  0  0
    4.0434   -1.2479   -0.2898 H   0  0  0  0  0  0  0  0  0  0  0  0
    1.9058   -0.0661    1.5041 H   0  0  0  0  0  0  0  0  0  0  0  0
    1.8891   -2.3075    1.3067 H   0  0  0  0  0  0  0  0  0  0  0  0
   -0.2662   -2.6675   -0.2825 H   0  0  0  0  0  0  0  0  0  0  0  0
   -0.3363   -2.1604    1.4020 H   0  0  0  0  0  0  0  0  0  0  0  0
   -1.0896   -0.6719   -1.0907 H   0  0  0  0  0  0  0  0  0  0  0  0
    0.1838    0.7534    1.3134 H   0  0  0  0  0  0  0  0  0  0  0  0
   -0.7458    2.0881   -1.2962 H   0  0  0  0  0  0  0  0  0  0  0  0
   -0.2965    2.7855    0.3057 H   0  0  0  0  0  0  0  0  0  0  0  0
   -2.6980    2.7523   -0.0012 H   0  0  0  0  0  0  0  0  0  0  0  0
   -2.0600    2.0026    1.4712 H   0  0  0  0  0  0  0  0  0  0  0  0
   -1.7590   -0.2097    1.8067 H   0  0  0  0  0  0  0  0  0  0  0  0
   -2.7194   -2.2863   -0.2483 H   0  0  0  0  0  0  0  0  0  0  0  0
   -2.6744   -2.3708    1.5217 H   0  0  0  0  0  0  0  0  0  0  0  0
   -4.7784   -1.5363    1.6749 H   0  0  0  0  0  0  0  0  0  0  0  0
   -4.7919   -1.3408   -0.1628 H   0  0  0  0  0  0  0  0  0  0  0  0
   -3.9657    0.6776    1.9279 H   0  0  0  0  0  0  0  0  0  0  0  0
   -2.2555    0.7464   -1.9797 H   0  0  0  0  0  0  0  0  0  0  0  0
   -3.1708   -0.7914   -1.5623 H   0  0  0  0  0  0  0  0  0  0  0  0
   -3.9973    0.7806   -1.6380 H   0  0  0  0  0  0  0  0  0  0  0  0
    0.5761    0.8194   -2.3557 H   0  0  0  0  0  0  0  0  0  0  0  0
    0.7325   -0.8935   -1.9315 H   0  0  0  0  0  0  0  0  0  0  0  0
    2.1828    0.0161   -2.3884 H   0  0  0  0  0  0  0  0  0  0  0  0
  2  4  1  0
  3  6  1  0
  4  6  1  0
  6  7  1  0
  7  8  1  0
  1  9  1  0
  8  9  1  0
  9 10  1  0
 10 11  1  0
 11 12  1  0
  2 13  1  0
  8 13  1  0
 12 13  1  0
 12 14  1  0
 14 15  1  0
 15 16  1  0
 11 17  1  0
 16 17  1  0
 17 18  1  0
 18 19  1  0
  5 20  1  0
 16 20  1  0
 19 20  1  0
 16 21  1  6
 13 22  1  6
  1 23  1  0
  1 24  1  0
  1 25  1  0
  2 26  1  0
  2 27  1  0
  3 28  1  0
  4 29  1  0
  4 30  1  0
  5 31  1  0
  6 32  1  0
  7 33  1  0
  7 34  1  0
  8 35  1  0
  9 36  1  0
 10 37  1  0
 10 38  1  0
 11 39  1  6
 12 40  1  1
 14 41  1  0
 14 42  1  0
 15 43  1  0
 15 44  1  0
 17 45  1  1
 18 46  1  0
 18 47  1  0
 19 48  1  0
 19 49  1  0
 20 50  1  0
 21 51  1  0
 21 52  1  0
 21 53  1  0
 22 54  1  0
 22 55  1  0
 22 56  1  0
M  END
>  <PDBID>  (1) 
3S7S

>  <PDB ID>  (1) 
3S7S

>  <Generic Name>  (1) 
Exemestane

>  <Brand Name>  (1) 
Act Exemestane#Apo-exemestane#Aromasin#Exemestane#Gd-exemestane#Med-exemestane#Mylan-exemestane#Teva-exemestane#Exemestance

>  <DrugBank ID>  (1) 
DB00990

>  <ATC Codes>  (1) 
L02BG06

>  <Ligand ID>  (1) 
EXM

>  <Target Name>  (1) 
Aromatase

>  <UniProt ID>  (1) 
P11511

>  <PDB ID.1>  (1) 
3S7S

>  <Seq. Identity>  (1) 
98%

$$$$
