PDB_DB06605_07
     RDKit          3D

 81 85  0  0  0  0  0  0  0  0999 V2000
   -5.7958    1.8791    0.5588 C   0  0  0  0  0  0  0  0  0  0  0  0
   -4.6012    1.6222    1.4452 C   0  0  0  0  0  0  0  0  0  0  0  0
   -3.6784    0.5524    0.8711 C   0  0  0  0  0  0  0  0  0  0  0  0
   -6.0095    3.2673    0.4976 O   0  0  0  0  0  0  0  0  0  0  0  0
   -3.4495   -0.9243   -1.5985 N   0  0  0  0  0  0  0  0  0  0  0  0
    1.8853   -1.2445    0.5543 C   0  0  0  0  0  0  0  0  0  0  0  0
   -0.3595   -0.3160    0.2082 C   0  0  0  0  0  0  0  0  0  0  0  0
   -3.1954   -2.2458   -1.1173 C   0  0  2  0  0  0  0  0  0  0  0  0
   -4.3892   -3.0191   -0.6792 C   0  0  0  0  0  0  0  0  0  0  0  0
   -2.1604   -2.0462   -0.0510 C   0  0  0  0  0  0  0  0  0  0  0  0
   -1.4440   -0.8560   -0.6632 C   0  0  0  0  0  0  0  0  0  0  0  0
    3.9222   -0.2485    1.4071 C   0  0  0  0  0  0  0  0  0  0  0  0
   -7.3050    3.5799    0.9248 C   0  0  0  0  0  0  0  0  0  0  0  0
    4.0852    0.6614    0.1862 C   0  0  0  0  0  0  0  0  0  0  0  0
    6.3829    0.0664   -0.3170 C   0  0  0  0  0  0  0  0  0  0  0  0
    5.9168    2.0641    0.8736 C   0  0  0  0  0  0  0  0  0  0  0  0
    7.0085    2.8493    0.1403 C   0  0  0  0  0  0  0  0  0  0  0  0
    2.4530   -1.0114   -0.8008 C   0  0  0  0  0  0  0  0  0  0  0  0
   -0.0350   -2.6224    0.9185 C   0  0  0  0  0  0  0  0  0  0  0  0
   -3.0031    1.0207   -0.3831 C   0  0  0  0  0  0  0  0  0  0  0  0
   -4.0605    1.7004   -1.2551 C   0  0  0  0  0  0  0  0  0  0  0  0
   -5.4612    1.3984   -0.8132 C   0  0  0  0  0  0  0  0  0  0  0  0
   -2.4675   -0.0512   -1.1120 N   0  0  0  0  0  0  0  0  0  0  0  0
    0.4951   -1.3677    0.5610 N   0  0  0  0  0  0  0  0  0  0  0  0
    2.4231   -0.3068    1.6283 C   0  0  0  0  0  0  0  0  0  0  0  0
    5.4258    1.0827   -0.0400 N   0  0  0  0  0  0  0  0  0  0  0  0
    3.3568    0.1320   -1.0024 C   0  0  0  0  0  0  0  0  0  0  0  0
    0.3156    0.6385   -0.5837 O   0  0  0  0  0  0  0  0  0  0  0  0
    8.1233    1.8476   -0.1649 C   0  0  0  0  0  0  0  0  0  0  0  0
    6.9639   -0.4530    0.8635 O   0  0  0  0  0  0  0  0  0  0  0  0
    7.5473    0.7573   -1.0440 C   0  0  0  0  0  0  0  0  0  0  0  0
   -3.9563   -4.2751   -0.2493 O   0  0  0  0  0  0  0  0  0  0  0  0
   -5.2357   -3.2278   -1.8598 N   0  0  0  0  0  0  0  0  0  0  0  0
   -1.1157   -3.1362   -0.0103 C   0  0  0  0  0  0  0  0  0  0  0  0
   -6.7164    1.3523    0.9316 H   0  0  0  0  0  0  0  0  0  0  0  0
   -5.0114    1.1598    2.3891 H   0  0  0  0  0  0  0  0  0  0  0  0
   -4.0674    2.5197    1.7626 H   0  0  0  0  0  0  0  0  0  0  0  0
   -4.3406   -0.3166    0.6758 H   0  0  0  0  0  0  0  0  0  0  0  0
   -2.9645    0.3268    1.6697 H   0  0  0  0  0  0  0  0  0  0  0  0
   -3.4627   -0.8576   -2.6419 H   0  0  0  0  0  0  0  0  0  0  0  0
    2.2966   -2.2528    0.8983 H   0  0  0  0  0  0  0  0  0  0  0  0
   -0.7190    0.1766    1.1440 H   0  0  0  0  0  0  0  0  0  0  0  0
   -2.7230   -2.8257   -1.9585 H   0  0  0  0  0  0  0  0  0  0  0  0
   -4.9716   -2.5516    0.1379 H   0  0  0  0  0  0  0  0  0  0  0  0
   -2.5665   -1.8803    0.9395 H   0  0  0  0  0  0  0  0  0  0  0  0
   -0.9039   -1.2726   -1.5702 H   0  0  0  0  0  0  0  0  0  0  0  0
    4.2615   -1.2764    1.1937 H   0  0  0  0  0  0  0  0  0  0  0  0
    4.4514    0.2321    2.2318 H   0  0  0  0  0  0  0  0  0  0  0  0
   -7.4290    4.6790    0.8659 H   0  0  0  0  0  0  0  0  0  0  0  0
   -8.0466    3.1351    0.2050 H   0  0  0  0  0  0  0  0  0  0  0  0
   -7.4483    3.2050    1.9574 H   0  0  0  0  0  0  0  0  0  0  0  0
    3.5259    1.5979    0.4995 H   0  0  0  0  0  0  0  0  0  0  0  0
    6.0155   -0.7148   -0.9845 H   0  0  0  0  0  0  0  0  0  0  0  0
    6.3715    1.5947    1.7459 H   0  0  0  0  0  0  0  0  0  0  0  0
    5.0764    2.7541    1.1211 H   0  0  0  0  0  0  0  0  0  0  0  0
    7.3279    3.6473    0.8110 H   0  0  0  0  0  0  0  0  0  0  0  0
    6.5760    3.2328   -0.7991 H   0  0  0  0  0  0  0  0  0  0  0  0
    1.6263   -0.9488   -1.5778 H   0  0  0  0  0  0  0  0  0  0  0  0
    3.0170   -1.9357   -1.1757 H   0  0  0  0  0  0  0  0  0  0  0  0
    0.7984   -3.3781    0.8718 H   0  0  0  0  0  0  0  0  0  0  0  0
   -0.4097   -2.6489    1.9528 H   0  0  0  0  0  0  0  0  0  0  0  0
   -2.2459    1.7767   -0.0555 H   0  0  0  0  0  0  0  0  0  0  0  0
   -3.8917    2.7942   -1.3247 H   0  0  0  0  0  0  0  0  0  0  0  0
   -3.9587    1.3118   -2.2866 H   0  0  0  0  0  0  0  0  0  0  0  0
   -6.1306    1.9453   -1.5322 H   0  0  0  0  0  0  0  0  0  0  0  0
   -5.6475    0.3098   -0.9796 H   0  0  0  0  0  0  0  0  0  0  0  0
    2.0523    0.7226    1.5221 H   0  0  0  0  0  0  0  0  0  0  0  0
    2.1601   -0.7602    2.5941 H   0  0  0  0  0  0  0  0  0  0  0  0
    4.1602   -0.1684   -1.7479 H   0  0  0  0  0  0  0  0  0  0  0  0
    2.8180    0.9458   -1.5641 H   0  0  0  0  0  0  0  0  0  0  0  0
   -0.2751    1.0576   -1.2371 H   0  0  0  0  0  0  0  0  0  0  0  0
    8.5218    1.4807    0.7851 H   0  0  0  0  0  0  0  0  0  0  0  0
    8.8719    2.4055   -0.7605 H   0  0  0  0  0  0  0  0  0  0  0  0
    7.7922   -0.9435    0.6170 H   0  0  0  0  0  0  0  0  0  0  0  0
    7.1764    1.2582   -1.9605 H   0  0  0  0  0  0  0  0  0  0  0  0
    8.3695    0.0466   -1.2552 H   0  0  0  0  0  0  0  0  0  0  0  0
   -3.9940   -4.3208    0.7323 H   0  0  0  0  0  0  0  0  0  0  0  0
   -5.4829   -4.2411   -1.9595 H   0  0  0  0  0  0  0  0  0  0  0  0
   -6.1432   -2.7253   -1.7476 H   0  0  0  0  0  0  0  0  0  0  0  0
   -1.5594   -4.0220    0.4805 H   0  0  0  0  0  0  0  0  0  0  0  0
   -0.7390   -3.3942   -0.9960 H   0  0  0  0  0  0  0  0  0  0  0  0
  1  2  1  0
  2  3  1  0
  1  4  1  0
  5  8  1  0
  8  9  1  0
  8 10  1  0
  7 11  1  0
 10 11  1  0
  4 13  1  0
 12 14  1  0
 16 17  1  0
  6 18  1  0
  3 20  1  0
 20 21  1  0
  1 22  1  0
 21 22  1  0
  5 23  1  0
 11 23  1  0
 20 23  1  0
  6 24  1  0
  7 24  1  0
 19 24  1  0
  6 25  1  0
 12 25  1  0
 14 26  1  0
 15 26  1  0
 16 26  1  0
 14 27  1  0
 18 27  1  0
  7 28  1  0
 17 29  1  0
 15 30  1  0
 15 31  1  0
 29 31  1  0
  9 32  1  0
  9 33  1  0
 10 34  1  0
 19 34  1  0
  1 35  1  0
  2 36  1  0
  2 37  1  0
  3 38  1  0
  3 39  1  0
  5 40  1  0
  6 41  1  0
  7 42  1  0
  8 43  1  6
  9 44  1  0
 10 45  1  0
 11 46  1  0
 12 47  1  0
 12 48  1  0
 13 49  1  0
 13 50  1  0
 13 51  1  0
 14 52  1  0
 15 53  1  0
 16 54  1  0
 16 55  1  0
 17 56  1  0
 17 57  1  0
 18 58  1  0
 18 59  1  0
 19 60  1  0
 19 61  1  0
 20 62  1  0
 21 63  1  0
 21 64  1  0
 22 65  1  0
 22 66  1  0
 25 67  1  0
 25 68  1  0
 27 69  1  0
 27 70  1  0
 28 71  1  0
 29 72  1  0
 29 73  1  0
 30 74  1  0
 31 75  1  0
 31 76  1  0
 32 77  1  0
 33 78  1  0
 33 79  1  0
 34 80  1  0
 34 81  1  0
M  END
>  <PDBID>  (1) 
2P16

>  <PDB ID>  (1) 
2P16

>  <Generic Name>  (1) 
Apixaban

>  <Brand Name>  (1) 
Eliquis

>  <DrugBank ID>  (1) 
DB06605

>  <ATC Codes>  (1) 
B01AF02

>  <Ligand ID>  (1) 
GG2

>  <Target Name>  (1) 
Coagulation factor X

>  <UniProt ID>  (1) 
P00742

>  <PDB ID.1>  (1) 
2P16

>  <Seq. Identity>  (1) 
100%

$$$$
