PDB_DB00884_04
     RDKit          3D

 38 38  0  0  0  0  0  0  0  0999 V2000
   -1.0777   -0.8227    2.0790 O   0  0  0  0  0  0  0  0  0  0  0  0
   -1.5612   -1.4081    0.7436 P   0  0  0  0  0  0  0  0  0  0  0  0
   -2.1668   -2.4794   -0.2285 O   0  0  0  0  0  0  0  0  0  0  0  0
   -3.0787   -1.4771    1.5034 O   0  0  0  0  0  0  0  0  0  0  0  0
   -1.3516   -0.0341   -0.2823 C   0  0  0  0  0  0  0  0  0  0  0  0
   -1.4102   -0.4852   -1.6478 O   0  0  0  0  0  0  0  0  0  0  0  0
   -2.7217    1.0618   -0.1300 P   0  0  0  0  0  0  0  0  0  0  0  0
   -3.4485    1.6925   -1.4830 O   0  0  0  0  0  0  0  0  0  0  0  0
   -3.4844    1.1845    1.3451 O   0  0  0  0  0  0  0  0  0  0  0  0
   -2.0714    2.4193    0.1261 O   0  0  0  0  0  0  0  0  0  0  0  0
   -0.0537    0.7105   -0.2630 C   0  0  0  0  0  0  0  0  0  0  0  0
    1.2019    0.0644   -0.6667 C   0  0  1  0  0  0  0  0  0  0  0  0
    2.2499    1.1860   -0.4977 C   0  0  0  0  0  0  0  0  0  0  0  0
    3.6472    0.7250   -0.4893 C   0  0  0  0  0  0  0  0  0  0  0  0
    3.7404   -0.4373    0.5061 C   0  0  0  0  0  0  0  0  0  0  0  0
    3.0092   -1.5101   -0.1398 N   0  0  0  0  0  0  0  0  0  0  0  0
    1.5902   -1.1840   -0.0044 C   0  0  0  0  0  0  0  0  0  0  0  0
   -1.0521    0.1770   -2.2492 H   0  0  0  0  0  0  0  0  0  0  0  0
    0.0919    1.2684    0.7028 H   0  0  0  0  0  0  0  0  0  0  0  0
   -0.1685    1.5892   -0.9939 H   0  0  0  0  0  0  0  0  0  0  0  0
    2.0426    1.7320    0.4627 H   0  0  0  0  0  0  0  0  0  0  0  0
    4.2734    1.5286   -0.0502 H   0  0  0  0  0  0  0  0  0  0  0  0
    3.1918   -0.1317    1.4199 H   0  0  0  0  0  0  0  0  0  0  0  0
    1.0813   -2.0261   -0.5650 H   0  0  0  0  0  0  0  0  0  0  0  0
    3.2841   -1.5972   -1.1494 H   0  0  0  0  0  0  0  0  0  0  0  0
   -1.0145   -1.2549    2.9263 H   0  0  0  0  0  0  0  0  0  0  0  0
   -0.6365   -2.3993    0.8839 H   0  0  0  0  0  0  0  0  0  0  0  0
   -2.7363   -2.1290   -0.9096 H   0  0  0  0  0  0  0  0  0  0  0  0
   -3.1420   -2.2477    2.0721 H   0  0  0  0  0  0  0  0  0  0  0  0
   -3.6133    0.1283   -0.3115 H   0  0  0  0  0  0  0  0  0  0  0  0
   -2.8106    1.6541   -2.1901 H   0  0  0  0  0  0  0  0  0  0  0  0
   -2.8504    0.8711    1.9971 H   0  0  0  0  0  0  0  0  0  0  0  0
   -2.5235    3.2627    0.2705 H   0  0  0  0  0  0  0  0  0  0  0  0
    1.2302   -0.1089   -1.7763 H   0  0  0  0  0  0  0  0  0  0  0  0
    2.1011    1.9294   -1.3086 H   0  0  0  0  0  0  0  0  0  0  0  0
    4.0676    0.4552   -1.4678 H   0  0  0  0  0  0  0  0  0  0  0  0
    4.7903   -0.6982    0.7116 H   0  0  0  0  0  0  0  0  0  0  0  0
    1.3803   -1.2090    1.0539 H   0  0  0  0  0  0  0  0  0  0  0  0
  1  2  1  0
  2  3  1  0
  2  4  1  0
  2  5  1  0
  5  6  1  0
  5  7  1  0
  7  8  1  0
  7  9  1  0
  7 10  1  0
  5 11  1  0
 11 12  1  0
 12 13  1  0
 13 14  1  0
 14 15  1  0
 15 16  1  0
 12 17  1  0
 16 17  1  0
 18  6  1  0
 11 19  1  0
 11 20  1  0
 13 21  1  0
 14 22  1  0
 15 23  1  0
 17 24  1  0
 25 16  1  0
  1 26  1  0
  2 27  1  0
  3 28  1  0
  4 29  1  0
  7 30  1  0
  8 31  1  0
  9 32  1  0
 10 33  1  0
 12 34  1  6
 13 35  1  0
 14 36  1  0
 15 37  1  0
 17 38  1  0
M  END
>  <PDBID>  (1) 
5CG5

>  <PDB ID>  (1) 
5CG5

>  <Generic Name>  (1) 
Risedronate

>  <Brand Name>  (1) 
Actonel#Actonel Dr#Actonel Plus Calcium#Actonel Sachet Kit#Apo-risedronate#Atelvia#Auro-risedronate#Dom-risedronate#Jamp-risedronate#Mylan-risedronate#Ntp-risedronate#PHL-risedronate#PMS-risedronate#PMS-risedronate Plus Calcium#Pendo-risedronate#Q-risedronate#Ratio-risedronate#Risedronate#Risedronate Sodium#Risedronate-35#Riva-risedronate#Sandoz Risedronate#Teva-risedronate#Benet

>  <DrugBank ID>  (1) 
DB00884

>  <ATC Codes>  (1) 
M05BB02#M05BA07#M05BB04#M05BB07

>  <Ligand ID>  (1) 
RIS

>  <Target Name>  (1) 
Farnesyl pyrophosphate synthase

>  <UniProt ID>  (1) 
P14324

>  <PDB ID.1>  (1) 
5CG5

>  <Seq. Identity>  (1) 
100%

$$$$
