PDB_DB04573_05
     RDKit          3D

102108  0  0  0  0  0  0  0  0999 V2000
    0.4208   -0.4146   -0.4456 C   0  0  1  0  0  0  0  0  0  0  0  0
   -0.3482   -1.6224   -0.7956 C   0  0  0  0  0  0  0  0  0  0  0  0
   -1.6482   -1.8123   -0.0976 C   0  0  0  0  0  0  0  0  0  0  0  0
   -2.4754   -0.6307    0.1291 C   0  0  2  0  0  0  0  0  0  0  0  0
   -2.8695   -0.4456    1.5743 C   0  0  0  0  0  0  0  0  0  0  0  0
   -3.7284   -0.5198   -0.6918 C   0  0  1  0  0  0  0  0  0  0  0  0
   -4.8079   -1.1767   -0.0978 O   0  0  0  0  0  0  0  0  0  0  0  0
   -3.9968    0.9722   -0.7170 C   0  0  2  0  0  0  0  0  0  0  0  0
   -4.0934    1.3433   -2.0563 O   0  0  0  0  0  0  0  0  0  0  0  0
   -2.7355    1.6417   -0.1619 C   0  0  0  0  0  0  0  0  0  0  0  0
   -1.7321    0.5992   -0.4117 C   0  0  1  0  0  0  0  0  0  0  0  0
   -0.4305    0.6693    0.2428 C   0  0  2  0  0  0  0  0  0  0  0  0
    0.3425    1.9354    0.0905 C   0  0  0  0  0  0  0  0  0  0  0  0
    1.6154    1.8227    0.8670 C   0  0  0  0  0  0  0  0  0  0  0  0
    2.3850    0.5852    0.7022 C   0  0  0  0  0  0  0  0  0  0  0  0
    3.4736    0.7775   -0.3524 C   0  0  0  0  0  0  0  0  0  0  0  0
    4.5642   -0.2087   -0.0289 C   0  0  0  0  0  0  0  0  0  0  0  0
    5.6327   -0.1345   -0.9118 O   0  0  0  0  0  0  0  0  0  0  0  0
    3.9696   -1.5652    0.0883 C   0  0  0  0  0  0  0  0  0  0  0  0
    2.5219   -1.6352   -0.3267 C   0  0  0  0  0  0  0  0  0  0  0  0
    1.6450   -0.6626    0.3995 C   0  0  2  0  0  0  0  0  0  0  0  0
    0.3820   -0.5004   -0.4864 C   0  0  1  0  0  0  0  0  0  0  0  0
   -0.3790   -1.7609   -0.5183 C   0  0  0  0  0  0  0  0  0  0  0  0
   -1.6392   -1.8136    0.2522 C   0  0  0  0  0  0  0  0  0  0  0  0
   -2.4676   -0.6080    0.2936 C   0  0  2  0  0  0  0  0  0  0  0  0
   -2.8160   -0.1558    1.6991 C   0  0  0  0  0  0  0  0  0  0  0  0
   -3.7372   -0.6308   -0.4961 C   0  0  1  0  0  0  0  0  0  0  0  0
   -4.7598   -1.3266    0.1143 O   0  0  0  0  0  0  0  0  0  0  0  0
   -4.0453    0.8457   -0.6597 C   0  0  2  0  0  0  0  0  0  0  0  0
   -4.3144    1.1519   -1.9937 O   0  0  0  0  0  0  0  0  0  0  0  0
   -2.7539    1.5875   -0.3045 C   0  0  0  0  0  0  0  0  0  0  0  0
   -1.7617    0.5149   -0.4835 C   0  0  1  0  0  0  0  0  0  0  0  0
   -0.4222    0.6829    0.0792 C   0  0  2  0  0  0  0  0  0  0  0  0
    0.2653    1.9281   -0.4490 C   0  0  0  0  0  0  0  0  0  0  0  0
    1.6765    1.9686    0.0859 C   0  0  0  0  0  0  0  0  0  0  0  0
    2.4518    0.7225   -0.1467 C   0  0  1  0  0  0  0  0  0  0  0  0
    3.6605    0.7150    0.7885 C   0  0  0  0  0  0  0  0  0  0  0  0
    4.5847   -0.3395    0.2789 C   0  0  0  0  0  0  0  0  0  0  0  0
    5.4836    0.3107   -0.6022 O   0  0  0  0  0  0  0  0  0  0  0  0
    3.9573   -1.4982   -0.3701 C   0  0  0  0  0  0  0  0  0  0  0  0
    2.5140   -1.7336   -0.1429 C   0  0  0  0  0  0  0  0  0  0  0  0
    1.6958   -0.5419    0.2170 C   0  0  2  0  0  0  0  0  0  0  0  0
    0.7891    0.0720   -1.3843 H   0  0  0  0  0  0  0  0  0  0  0  0
    0.2343   -2.5797   -0.6396 H   0  0  0  0  0  0  0  0  0  0  0  0
   -0.5721   -1.6441   -1.9048 H   0  0  0  0  0  0  0  0  0  0  0  0
   -2.2162   -2.6069   -0.6549 H   0  0  0  0  0  0  0  0  0  0  0  0
   -1.4217   -2.2956    0.8980 H   0  0  0  0  0  0  0  0  0  0  0  0
   -2.7530   -1.4608    2.0547 H   0  0  0  0  0  0  0  0  0  0  0  0
   -3.9440   -0.1977    1.6976 H   0  0  0  0  0  0  0  0  0  0  0  0
   -2.2863    0.2936    2.1146 H   0  0  0  0  0  0  0  0  0  0  0  0
   -3.5107   -0.9312   -1.6929 H   0  0  0  0  0  0  0  0  0  0  0  0
   -5.5069   -0.5126    0.1406 H   0  0  0  0  0  0  0  0  0  0  0  0
   -4.8922    1.2487   -0.1292 H   0  0  0  0  0  0  0  0  0  0  0  0
   -3.3854    1.9740   -2.3353 H   0  0  0  0  0  0  0  0  0  0  0  0
   -2.5531    2.6086   -0.6721 H   0  0  0  0  0  0  0  0  0  0  0  0
   -2.9367    1.8091    0.9154 H   0  0  0  0  0  0  0  0  0  0  0  0
   -1.6103    0.4341   -1.4965 H   0  0  0  0  0  0  0  0  0  0  0  0
   -0.4126    0.3927    1.3191 H   0  0  0  0  0  0  0  0  0  0  0  0
   -0.2128    2.8207    0.4696 H   0  0  0  0  0  0  0  0  0  0  0  0
    0.5202    2.1245   -0.9984 H   0  0  0  0  0  0  0  0  0  0  0  0
    1.3525    2.0200    1.9482 H   0  0  0  0  0  0  0  0  0  0  0  0
    2.2548    2.6931    0.5796 H   0  0  0  0  0  0  0  0  0  0  0  0
    2.9527    0.4080    1.6657 H   0  0  0  0  0  0  0  0  0  0  0  0
    3.0873    0.7050   -1.3704 H   0  0  0  0  0  0  0  0  0  0  0  0
    3.9099    1.7989   -0.1556 H   0  0  0  0  0  0  0  0  0  0  0  0
    4.9459    0.0772    0.9953 H   0  0  0  0  0  0  0  0  0  0  0  0
    5.9743    0.7752   -0.9291 H   0  0  0  0  0  0  0  0  0  0  0  0
    4.5277   -2.2580   -0.5791 H   0  0  0  0  0  0  0  0  0  0  0  0
    4.0411   -1.9946    1.1120 H   0  0  0  0  0  0  0  0  0  0  0  0
    2.4009   -1.4283   -1.4247 H   0  0  0  0  0  0  0  0  0  0  0  0
    2.2199   -2.6981   -0.1879 H   0  0  0  0  0  0  0  0  0  0  0  0
    1.2986   -1.1664    1.3357 H   0  0  0  0  0  0  0  0  0  0  0  0
    0.5963   -0.1973   -1.5548 H   0  0  0  0  0  0  0  0  0  0  0  0
    0.2931   -2.5810   -0.1271 H   0  0  0  0  0  0  0  0  0  0  0  0
   -0.6106   -2.1001   -1.5713 H   0  0  0  0  0  0  0  0  0  0  0  0
   -2.2458   -2.6771   -0.1270 H   0  0  0  0  0  0  0  0  0  0  0  0
   -1.3803   -2.1098    1.3117 H   0  0  0  0  0  0  0  0  0  0  0  0
   -2.6279   -1.0561    2.3544 H   0  0  0  0  0  0  0  0  0  0  0  0
   -3.9023    0.0523    1.8190 H   0  0  0  0  0  0  0  0  0  0  0  0
   -2.1768    0.6355    2.0817 H   0  0  0  0  0  0  0  0  0  0  0  0
   -3.4883   -1.0132   -1.5151 H   0  0  0  0  0  0  0  0  0  0  0  0
   -5.5366   -0.7304    0.2372 H   0  0  0  0  0  0  0  0  0  0  0  0
   -4.8697    1.1575    0.0218 H   0  0  0  0  0  0  0  0  0  0  0  0
   -3.7418    1.8660   -2.3540 H   0  0  0  0  0  0  0  0  0  0  0  0
   -2.5936    2.4461   -0.9886 H   0  0  0  0  0  0  0  0  0  0  0  0
   -2.8388    1.9862    0.7046 H   0  0  0  0  0  0  0  0  0  0  0  0
   -1.7145    0.2056   -1.5385 H   0  0  0  0  0  0  0  0  0  0  0  0
   -0.3464    0.6202    1.1844 H   0  0  0  0  0  0  0  0  0  0  0  0
   -0.2408    2.8574   -0.1587 H   0  0  0  0  0  0  0  0  0  0  0  0
    0.2982    1.8247   -1.5589 H   0  0  0  0  0  0  0  0  0  0  0  0
    1.6619    2.2244    1.1593 H   0  0  0  0  0  0  0  0  0  0  0  0
    2.1922    2.7993   -0.4391 H   0  0  0  0  0  0  0  0  0  0  0  0
    2.7573    0.6104   -1.2085 H   0  0  0  0  0  0  0  0  0  0  0  0
    4.1569    1.7063    0.7714 H   0  0  0  0  0  0  0  0  0  0  0  0
    3.2928    0.4633    1.7908 H   0  0  0  0  0  0  0  0  0  0  0  0
    5.2378   -0.6473    1.1468 H   0  0  0  0  0  0  0  0  0  0  0  0
    5.6930    1.2089   -0.2394 H   0  0  0  0  0  0  0  0  0  0  0  0
    4.1532   -1.4434   -1.4782 H   0  0  0  0  0  0  0  0  0  0  0  0
    4.5124   -2.4282   -0.0522 H   0  0  0  0  0  0  0  0  0  0  0  0
    2.0532   -2.1686   -1.0779 H   0  0  0  0  0  0  0  0  0  0  0  0
    2.3322   -2.5103    0.6377 H   0  0  0  0  0  0  0  0  0  0  0  0
    1.5089   -0.5197    1.3034 H   0  0  0  0  0  0  0  0  0  0  0  0
  1  2  1  0
  2  3  1  0
  3  4  1  0
  4  5  1  1
  4  6  1  0
  6  7  1  0
  6  8  1  0
  8  9  1  0
  8 10  1  0
  4 11  1  0
 10 11  1  0
  1 12  1  0
 11 12  1  0
 12 13  1  0
 13 14  1  0
 14 15  1  0
 15 16  1  0
 16 17  1  0
 17 18  1  0
 17 19  1  0
 19 20  1  0
  1 21  1  0
 15 21  1  0
 20 21  1  0
 22 23  1  0
 23 24  1  0
 24 25  1  0
 25 26  1  1
 25 27  1  0
 27 28  1  0
 27 29  1  0
 29 30  1  0
 29 31  1  0
 25 32  1  0
 31 32  1  0
 22 33  1  0
 32 33  1  0
 33 34  1  0
 34 35  1  0
 35 36  1  0
 36 37  1  0
 37 38  1  0
 38 39  1  0
 38 40  1  0
 40 41  1  0
 22 42  1  0
 36 42  1  0
 41 42  1  0
  1 43  1  6
  2 44  1  0
  2 45  1  0
  3 46  1  0
  3 47  1  0
  5 48  1  0
  5 49  1  0
  5 50  1  0
  6 51  1  6
  7 52  1  0
  8 53  1  1
  9 54  1  0
 10 55  1  0
 10 56  1  0
 11 57  1  6
 12 58  1  1
 13 59  1  0
 13 60  1  0
 14 61  1  0
 14 62  1  0
 15 63  1  0
 16 64  1  0
 16 65  1  0
 17 66  1  0
 18 67  1  0
 19 68  1  0
 19 69  1  0
 20 70  1  0
 20 71  1  0
 21 72  1  1
 22 73  1  6
 23 74  1  0
 23 75  1  0
 24 76  1  0
 24 77  1  0
 26 78  1  0
 26 79  1  0
 26 80  1  0
 27 81  1  6
 28 82  1  0
 29 83  1  1
 30 84  1  0
 31 85  1  0
 31 86  1  0
 32 87  1  6
 33 88  1  1
 34 89  1  0
 34 90  1  0
 35 91  1  0
 35 92  1  0
 36 93  1  6
 37 94  1  0
 37 95  1  0
 38 96  1  0
 39 97  1  0
 40 98  1  0
 40 99  1  0
 41100  1  0
 41101  1  0
 42102  1  1
M  END
>  <PDBID>  (1) 
3Q95

>  <PDB ID>  (1) 
3Q95

>  <Generic Name>  (1) 
Estriol

>  <Brand Name>  (1) 
Aacifemine#Colpoestriol#Ovestin#Synapause E

>  <DrugBank ID>  (1) 
DB04573

>  <ATC Codes>  (1) 
G03CC06#G03CA04

>  <Ligand ID>  (1) 
ESL

>  <Target Name>  (1) 
Estrogen receptor

>  <UniProt ID>  (1) 
P03372

>  <PDB ID.1>  (1) 
3Q95

>  <Seq. Identity>  (1) 
93%

$$$$
