PDB_DB04573_04
     RDKit          3D

102108  0  0  0  0  0  0  0  0999 V2000
    0.4067    0.2975    0.5786 C   0  0  1  0  0  0  0  0  0  0  0  0
   -0.2416    1.5987    0.8759 C   0  0  0  0  0  0  0  0  0  0  0  0
   -1.6741    1.5142    1.2926 C   0  0  0  0  0  0  0  0  0  0  0  0
   -2.4255    0.5927    0.4021 C   0  0  2  0  0  0  0  0  0  0  0  0
   -2.4314    1.0875   -1.0224 C   0  0  0  0  0  0  0  0  0  0  0  0
   -3.8120    0.2754    0.8254 C   0  0  1  0  0  0  0  0  0  0  0  0
   -4.6755    1.2336    0.2953 O   0  0  0  0  0  0  0  0  0  0  0  0
   -4.0876   -1.0161    0.0469 C   0  0  2  0  0  0  0  0  0  0  0  0
   -5.0092   -1.7711    0.7268 O   0  0  0  0  0  0  0  0  0  0  0  0
   -2.7423   -1.7000   -0.0970 C   0  0  0  0  0  0  0  0  0  0  0  0
   -1.7486   -0.7830    0.4983 C   0  0  1  0  0  0  0  0  0  0  0  0
   -0.4670   -0.6384   -0.2413 C   0  0  2  0  0  0  0  0  0  0  0  0
    0.2577   -1.9199   -0.5000 C   0  0  0  0  0  0  0  0  0  0  0  0
    1.4762   -1.5584   -1.3606 C   0  0  0  0  0  0  0  0  0  0  0  0
    2.3888   -0.7470   -0.4740 C   0  0  0  0  0  0  0  0  0  0  0  0
    3.7208   -0.4878   -1.1058 C   0  0  0  0  0  0  0  0  0  0  0  0
    4.6237    0.0995   -0.0177 C   0  0  0  0  0  0  0  0  0  0  0  0
    5.9045    0.3202   -0.4651 O   0  0  0  0  0  0  0  0  0  0  0  0
    4.0370    1.3953    0.4621 C   0  0  0  0  0  0  0  0  0  0  0  0
    2.6107    1.2844    0.8966 C   0  0  0  0  0  0  0  0  0  0  0  0
    1.7380    0.5588   -0.0998 C   0  0  2  0  0  0  0  0  0  0  0  0
    0.4154    0.3100    0.5926 C   0  0  1  0  0  0  0  0  0  0  0  0
   -0.2523    1.5936    0.9068 C   0  0  0  0  0  0  0  0  0  0  0  0
   -1.6829    1.4938    1.3210 C   0  0  0  0  0  0  0  0  0  0  0  0
   -2.4261    0.5856    0.4118 C   0  0  2  0  0  0  0  0  0  0  0  0
   -2.4338    1.0784   -1.0147 C   0  0  0  0  0  0  0  0  0  0  0  0
   -3.8097    0.2453    0.8213 C   0  0  1  0  0  0  0  0  0  0  0  0
   -4.6998    1.1895    0.2612 O   0  0  0  0  0  0  0  0  0  0  0  0
   -4.0584   -1.0539    0.0425 C   0  0  2  0  0  0  0  0  0  0  0  0
   -5.0116   -1.8292    0.6548 O   0  0  0  0  0  0  0  0  0  0  0  0
   -2.7043   -1.7360   -0.0507 C   0  0  0  0  0  0  0  0  0  0  0  0
   -1.7292   -0.7804    0.5089 C   0  0  1  0  0  0  0  0  0  0  0  0
   -0.4561   -0.6224   -0.2427 C   0  0  2  0  0  0  0  0  0  0  0  0
    0.2537   -1.8982   -0.5401 C   0  0  0  0  0  0  0  0  0  0  0  0
    1.5088   -1.5450   -1.3494 C   0  0  0  0  0  0  0  0  0  0  0  0
    2.3689   -0.6990   -0.4633 C   0  0  1  0  0  0  0  0  0  0  0  0
    3.7044   -0.4274   -1.0943 C   0  0  0  0  0  0  0  0  0  0  0  0
    4.6178    0.1072   -0.0041 C   0  0  0  0  0  0  0  0  0  0  0  0
    5.8733    0.3423   -0.5339 O   0  0  0  0  0  0  0  0  0  0  0  0
    4.0419    1.3968    0.4831 C   0  0  0  0  0  0  0  0  0  0  0  0
    2.6091    1.3168    0.8973 C   0  0  0  0  0  0  0  0  0  0  0  0
    1.7306    0.6074   -0.0996 C   0  0  2  0  0  0  0  0  0  0  0  0
    0.6605   -0.2063    1.5516 H   0  0  0  0  0  0  0  0  0  0  0  0
   -0.1079    2.3434    0.0425 H   0  0  0  0  0  0  0  0  0  0  0  0
    0.3189    2.0619    1.7399 H   0  0  0  0  0  0  0  0  0  0  0  0
   -2.1126    2.5457    1.1522 H   0  0  0  0  0  0  0  0  0  0  0  0
   -1.8285    1.2783    2.3578 H   0  0  0  0  0  0  0  0  0  0  0  0
   -3.3416    1.7256   -1.1411 H   0  0  0  0  0  0  0  0  0  0  0  0
   -1.5619    1.7122   -1.2511 H   0  0  0  0  0  0  0  0  0  0  0  0
   -2.5559    0.2625   -1.7590 H   0  0  0  0  0  0  0  0  0  0  0  0
   -3.9423    0.1247    1.9070 H   0  0  0  0  0  0  0  0  0  0  0  0
   -5.5283    0.8200    0.0642 H   0  0  0  0  0  0  0  0  0  0  0  0
   -4.4063   -0.7396   -0.9847 H   0  0  0  0  0  0  0  0  0  0  0  0
   -5.3659   -2.5018    0.1965 H   0  0  0  0  0  0  0  0  0  0  0  0
   -2.8025   -2.6206    0.5542 H   0  0  0  0  0  0  0  0  0  0  0  0
   -2.5430   -2.0257   -1.1269 H   0  0  0  0  0  0  0  0  0  0  0  0
   -1.5268   -0.9524    1.5695 H   0  0  0  0  0  0  0  0  0  0  0  0
   -0.6097   -0.1357   -1.2329 H   0  0  0  0  0  0  0  0  0  0  0  0
    0.5412   -2.4812    0.3872 H   0  0  0  0  0  0  0  0  0  0  0  0
   -0.4158   -2.5608   -1.1216 H   0  0  0  0  0  0  0  0  0  0  0  0
    1.0846   -0.8674   -2.1482 H   0  0  0  0  0  0  0  0  0  0  0  0
    1.9719   -2.4373   -1.7695 H   0  0  0  0  0  0  0  0  0  0  0  0
    2.5467   -1.3189    0.4716 H   0  0  0  0  0  0  0  0  0  0  0  0
    4.1557   -1.4596   -1.4188 H   0  0  0  0  0  0  0  0  0  0  0  0
    3.6610    0.2156   -1.9491 H   0  0  0  0  0  0  0  0  0  0  0  0
    4.6079   -0.6423    0.8091 H   0  0  0  0  0  0  0  0  0  0  0  0
    6.0149    0.0812   -1.4186 H   0  0  0  0  0  0  0  0  0  0  0  0
    4.6305    1.6984    1.3690 H   0  0  0  0  0  0  0  0  0  0  0  0
    4.2011    2.2046   -0.2799 H   0  0  0  0  0  0  0  0  0  0  0  0
    2.2178    2.3085    1.0362 H   0  0  0  0  0  0  0  0  0  0  0  0
    2.5713    0.7174    1.8620 H   0  0  0  0  0  0  0  0  0  0  0  0
    1.6160    1.2136   -0.9862 H   0  0  0  0  0  0  0  0  0  0  0  0
    0.6732   -0.2668    1.5116 H   0  0  0  0  0  0  0  0  0  0  0  0
   -0.1153    2.3343    0.0722 H   0  0  0  0  0  0  0  0  0  0  0  0
    0.3038    2.0606    1.7721 H   0  0  0  0  0  0  0  0  0  0  0  0
   -2.1043    2.5414    1.2895 H   0  0  0  0  0  0  0  0  0  0  0  0
   -1.7740    1.1484    2.3565 H   0  0  0  0  0  0  0  0  0  0  0  0
   -3.3361    1.7286   -1.1225 H   0  0  0  0  0  0  0  0  0  0  0  0
   -1.5665    1.7296   -1.2386 H   0  0  0  0  0  0  0  0  0  0  0  0
   -2.5521    0.2604   -1.7516 H   0  0  0  0  0  0  0  0  0  0  0  0
   -3.9712    0.1103    1.8902 H   0  0  0  0  0  0  0  0  0  0  0  0
   -5.5736    0.7327    0.0678 H   0  0  0  0  0  0  0  0  0  0  0  0
   -4.3332   -0.7762   -1.0018 H   0  0  0  0  0  0  0  0  0  0  0  0
   -5.5079   -2.3966    0.0072 H   0  0  0  0  0  0  0  0  0  0  0  0
   -2.7694   -2.6174    0.6521 H   0  0  0  0  0  0  0  0  0  0  0  0
   -2.4920   -2.1145   -1.0526 H   0  0  0  0  0  0  0  0  0  0  0  0
   -1.4885   -0.9219    1.5851 H   0  0  0  0  0  0  0  0  0  0  0  0
   -0.5973   -0.0864   -1.2231 H   0  0  0  0  0  0  0  0  0  0  0  0
    0.4885   -2.5079    0.3311 H   0  0  0  0  0  0  0  0  0  0  0  0
   -0.3877   -2.4768   -1.2566 H   0  0  0  0  0  0  0  0  0  0  0  0
    1.1757   -0.9803   -2.2404 H   0  0  0  0  0  0  0  0  0  0  0  0
    2.0373   -2.4690   -1.5884 H   0  0  0  0  0  0  0  0  0  0  0  0
    2.5335   -1.2609    0.4827 H   0  0  0  0  0  0  0  0  0  0  0  0
    4.0843   -1.3981   -1.4860 H   0  0  0  0  0  0  0  0  0  0  0  0
    3.6062    0.3150   -1.9262 H   0  0  0  0  0  0  0  0  0  0  0  0
    4.6613   -0.6761    0.7788 H   0  0  0  0  0  0  0  0  0  0  0  0
    5.9555   -0.0371   -1.4518 H   0  0  0  0  0  0  0  0  0  0  0  0
    4.6289    1.6893    1.4023 H   0  0  0  0  0  0  0  0  0  0  0  0
    4.2437    2.1854   -0.2659 H   0  0  0  0  0  0  0  0  0  0  0  0
    2.2297    2.3725    0.9734 H   0  0  0  0  0  0  0  0  0  0  0  0
    2.5316    0.8653    1.9079 H   0  0  0  0  0  0  0  0  0  0  0  0
    1.5559    1.2369   -0.9837 H   0  0  0  0  0  0  0  0  0  0  0  0
  1  2  1  0
  2  3  1  0
  3  4  1  0
  4  5  1  6
  4  6  1  0
  6  7  1  0
  6  8  1  0
  8  9  1  0
  8 10  1  0
  4 11  1  0
 10 11  1  0
  1 12  1  0
 11 12  1  0
 12 13  1  0
 13 14  1  0
 14 15  1  0
 15 16  1  0
 16 17  1  0
 17 18  1  0
 17 19  1  0
 19 20  1  0
  1 21  1  0
 15 21  1  0
 20 21  1  0
 22 23  1  0
 23 24  1  0
 24 25  1  0
 25 26  1  6
 25 27  1  0
 27 28  1  0
 27 29  1  0
 29 30  1  0
 29 31  1  0
 25 32  1  0
 31 32  1  0
 22 33  1  0
 32 33  1  0
 33 34  1  0
 34 35  1  0
 35 36  1  0
 36 37  1  0
 37 38  1  0
 38 39  1  0
 38 40  1  0
 40 41  1  0
 22 42  1  0
 36 42  1  0
 41 42  1  0
  1 43  1  1
  2 44  1  0
  2 45  1  0
  3 46  1  0
  3 47  1  0
  5 48  1  0
  5 49  1  0
  5 50  1  0
  6 51  1  1
  7 52  1  0
  8 53  1  6
  9 54  1  0
 10 55  1  0
 10 56  1  0
 11 57  1  1
 12 58  1  6
 13 59  1  0
 13 60  1  0
 14 61  1  0
 14 62  1  0
 15 63  1  0
 16 64  1  0
 16 65  1  0
 17 66  1  0
 18 67  1  0
 19 68  1  0
 19 69  1  0
 20 70  1  0
 20 71  1  0
 21 72  1  6
 22 73  1  1
 23 74  1  0
 23 75  1  0
 24 76  1  0
 24 77  1  0
 26 78  1  0
 26 79  1  0
 26 80  1  0
 27 81  1  1
 28 82  1  0
 29 83  1  6
 30 84  1  0
 31 85  1  0
 31 86  1  0
 32 87  1  1
 33 88  1  6
 34 89  1  0
 34 90  1  0
 35 91  1  0
 35 92  1  0
 36 93  1  1
 37 94  1  0
 37 95  1  0
 38 96  1  0
 39 97  1  0
 40 98  1  0
 40 99  1  0
 41100  1  0
 41101  1  0
 42102  1  6
M  END
>  <PDBID>  (1) 
3Q95

>  <PDB ID>  (1) 
3Q95

>  <Generic Name>  (1) 
Estriol

>  <Brand Name>  (1) 
Aacifemine#Colpoestriol#Ovestin#Synapause E

>  <DrugBank ID>  (1) 
DB04573

>  <ATC Codes>  (1) 
G03CC06#G03CA04

>  <Ligand ID>  (1) 
ESL

>  <Target Name>  (1) 
Estrogen receptor

>  <UniProt ID>  (1) 
P03372

>  <PDB ID.1>  (1) 
3Q95

>  <Seq. Identity>  (1) 
93%

$$$$
