PDB_DB06603_06
     RDKit          3D

134138  0  0  0  0  0  0  0  0999 V2000
    7.3905    0.8455   -2.1486 O   0  0  0  0  0  0  0  0  0  0  0  0
    7.2649    0.8540   -0.7783 C   0  0  0  0  0  0  0  0  0  0  0  0
    8.2338    0.0486   -0.0876 N   0  0  0  0  0  0  0  0  0  0  0  0
    8.2264   -1.2445   -0.4078 O   0  0  0  0  0  0  0  0  0  0  0  0
    5.8384    0.6012   -0.3472 C   0  0  0  0  0  0  0  0  0  0  0  0
    5.3076   -0.7188   -0.8143 C   0  0  0  0  0  0  0  0  0  0  0  0
    3.8917   -0.9499   -0.3789 C   0  0  0  0  0  0  0  0  0  0  0  0
    3.7458   -0.9378    1.1375 C   0  0  0  0  0  0  0  0  0  0  0  0
    3.0168    0.2898    1.6017 C   0  0  0  0  0  0  0  0  0  0  0  0
    2.9022   -0.0016   -1.0086 C   0  0  0  0  0  0  0  0  0  0  0  0
    1.5427   -0.2814   -0.3147 C   0  0  0  0  0  0  0  0  0  0  0  0
    1.5916    0.3723    1.0185 C   0  0  0  0  0  0  0  0  0  0  0  0
    0.6534   -0.2094    2.0045 C   0  0  0  0  0  0  0  0  0  0  0  0
   -0.7221   -0.2260    1.7460 N   0  0  0  0  0  0  0  0  0  0  0  0
   -1.2189   -1.1159    0.7835 C   0  0  0  0  0  0  0  0  0  0  0  0
   -2.7683   -1.0945    0.7517 C   0  0  0  0  0  0  0  0  0  0  0  0
   -3.2499    0.2519    0.3869 C   0  0  0  0  0  0  0  0  0  0  0  0
   -4.7490    0.3723    0.3388 C   0  0  0  0  0  0  0  0  0  0  0  0
   -5.0107    0.8258   -1.0822 C   0  0  0  0  0  0  0  0  0  0  0  0
   -3.8847    1.7170   -1.2802 N   0  0  0  0  0  0  0  0  0  0  0  0
   -2.7934    0.7664   -0.9579 C   0  0  0  0  0  0  0  0  0  0  0  0
   -2.8314   -0.2532   -2.0554 C   0  0  0  0  0  0  0  0  0  0  0  0
   -6.3477    1.4759   -1.1172 C   0  0  0  0  0  0  0  0  0  0  0  0
   -7.1846    0.9208    0.0181 C   0  0  0  0  0  0  0  0  0  0  0  0
   -6.9705   -0.5562    0.2521 C   0  0  0  0  0  0  0  0  0  0  0  0
   -5.5025   -0.8955    0.5285 C   0  0  0  0  0  0  0  0  0  0  0  0
    7.3905    0.8455   -2.1486 O   0  0  0  0  0  0  0  0  0  0  0  0
    7.2649    0.8540   -0.7783 C   0  0  0  0  0  0  0  0  0  0  0  0
    8.2338    0.0486   -0.0876 N   0  0  0  0  0  0  0  0  0  0  0  0
    8.2264   -1.2445   -0.4078 O   0  0  0  0  0  0  0  0  0  0  0  0
    5.8384    0.6012   -0.3472 C   0  0  0  0  0  0  0  0  0  0  0  0
    5.3076   -0.7188   -0.8143 C   0  0  0  0  0  0  0  0  0  0  0  0
    3.8917   -0.9499   -0.3789 C   0  0  0  0  0  0  0  0  0  0  0  0
    3.7458   -0.9378    1.1375 C   0  0  0  0  0  0  0  0  0  0  0  0
    3.0168    0.2898    1.6017 C   0  0  0  0  0  0  0  0  0  0  0  0
    2.9022   -0.0016   -1.0086 C   0  0  0  0  0  0  0  0  0  0  0  0
    1.5427   -0.2814   -0.3147 C   0  0  0  0  0  0  0  0  0  0  0  0
    1.5916    0.3723    1.0185 C   0  0  0  0  0  0  0  0  0  0  0  0
    0.6534   -0.2094    2.0045 C   0  0  0  0  0  0  0  0  0  0  0  0
   -0.7221   -0.2260    1.7460 N   0  0  0  0  0  0  0  0  0  0  0  0
   -1.2189   -1.1159    0.7835 C   0  0  0  0  0  0  0  0  0  0  0  0
   -2.7683   -1.0945    0.7517 C   0  0  0  0  0  0  0  0  0  0  0  0
   -3.2499    0.2519    0.3869 C   0  0  0  0  0  0  0  0  0  0  0  0
   -4.7490    0.3723    0.3388 C   0  0  0  0  0  0  0  0  0  0  0  0
   -5.0107    0.8258   -1.0822 C   0  0  0  0  0  0  0  0  0  0  0  0
   -3.8847    1.7170   -1.2802 N   0  0  0  0  0  0  0  0  0  0  0  0
   -2.7934    0.7664   -0.9579 C   0  0  0  0  0  0  0  0  0  0  0  0
   -2.8314   -0.2532   -2.0554 C   0  0  0  0  0  0  0  0  0  0  0  0
   -6.3477    1.4759   -1.1172 C   0  0  0  0  0  0  0  0  0  0  0  0
   -7.1846    0.9208    0.0181 C   0  0  0  0  0  0  0  0  0  0  0  0
   -6.9705   -0.5562    0.2521 C   0  0  0  0  0  0  0  0  0  0  0  0
   -5.5025   -0.8955    0.5285 C   0  0  0  0  0  0  0  0  0  0  0  0
    7.0614    1.7102   -2.4989 H   0  0  0  0  0  0  0  0  0  0  0  0
    7.4818    1.9178   -0.4588 H   0  0  0  0  0  0  0  0  0  0  0  0
    9.1793    0.4343   -0.2954 H   0  0  0  0  0  0  0  0  0  0  0  0
    8.6289   -1.3729   -1.3173 H   0  0  0  0  0  0  0  0  0  0  0  0
    5.2210    1.4385   -0.7297 H   0  0  0  0  0  0  0  0  0  0  0  0
    5.7490    0.6235    0.7644 H   0  0  0  0  0  0  0  0  0  0  0  0
    5.3163   -0.7785   -1.9377 H   0  0  0  0  0  0  0  0  0  0  0  0
    5.9141   -1.5412   -0.3479 H   0  0  0  0  0  0  0  0  0  0  0  0
    3.6024   -1.9850   -0.7068 H   0  0  0  0  0  0  0  0  0  0  0  0
    4.7143   -0.9543    1.6575 H   0  0  0  0  0  0  0  0  0  0  0  0
    3.1607   -1.8117    1.4940 H   0  0  0  0  0  0  0  0  0  0  0  0
    2.9178    0.2126    2.7011 H   0  0  0  0  0  0  0  0  0  0  0  0
    3.5390    1.2377    1.3969 H   0  0  0  0  0  0  0  0  0  0  0  0
    3.1065    1.0533   -0.8495 H   0  0  0  0  0  0  0  0  0  0  0  0
    2.8334   -0.2524   -2.0785 H   0  0  0  0  0  0  0  0  0  0  0  0
    0.8267    0.2606   -1.0034 H   0  0  0  0  0  0  0  0  0  0  0  0
    1.3292   -1.3479   -0.3389 H   0  0  0  0  0  0  0  0  0  0  0  0
    1.3692    1.4667    0.8827 H   0  0  0  0  0  0  0  0  0  0  0  0
    0.8265    0.3472    2.9813 H   0  0  0  0  0  0  0  0  0  0  0  0
    0.9597   -1.2873    2.2589 H   0  0  0  0  0  0  0  0  0  0  0  0
   -1.0758    0.7468    1.6906 H   0  0  0  0  0  0  0  0  0  0  0  0
   -0.9039   -2.1824    0.9697 H   0  0  0  0  0  0  0  0  0  0  0  0
   -0.9062   -0.8622   -0.2375 H   0  0  0  0  0  0  0  0  0  0  0  0
   -3.1101   -1.9114    0.1056 H   0  0  0  0  0  0  0  0  0  0  0  0
   -3.0516   -1.3138    1.8097 H   0  0  0  0  0  0  0  0  0  0  0  0
   -2.9156    0.9895    1.1457 H   0  0  0  0  0  0  0  0  0  0  0  0
   -5.1232    1.1304    1.0534 H   0  0  0  0  0  0  0  0  0  0  0  0
   -5.0231   -0.0256   -1.7910 H   0  0  0  0  0  0  0  0  0  0  0  0
   -3.7479    1.9447   -2.2813 H   0  0  0  0  0  0  0  0  0  0  0  0
   -1.8312    1.2844   -0.8815 H   0  0  0  0  0  0  0  0  0  0  0  0
   -3.2680   -1.2136   -1.7991 H   0  0  0  0  0  0  0  0  0  0  0  0
   -1.7679   -0.4457   -2.3878 H   0  0  0  0  0  0  0  0  0  0  0  0
   -3.3834    0.1236   -2.9653 H   0  0  0  0  0  0  0  0  0  0  0  0
   -6.8799    1.3139   -2.0933 H   0  0  0  0  0  0  0  0  0  0  0  0
   -6.2532    2.5828   -1.0040 H   0  0  0  0  0  0  0  0  0  0  0  0
   -8.2466    1.0174   -0.3203 H   0  0  0  0  0  0  0  0  0  0  0  0
   -7.0975    1.5187    0.9503 H   0  0  0  0  0  0  0  0  0  0  0  0
   -7.3855   -1.1007   -0.5963 H   0  0  0  0  0  0  0  0  0  0  0  0
   -7.5498   -0.8009    1.1730 H   0  0  0  0  0  0  0  0  0  0  0  0
   -5.2288   -1.6541   -0.2548 H   0  0  0  0  0  0  0  0  0  0  0  0
   -5.3602   -1.3698    1.5035 H   0  0  0  0  0  0  0  0  0  0  0  0
    7.0614    1.7102   -2.4989 H   0  0  0  0  0  0  0  0  0  0  0  0
    7.4818    1.9178   -0.4588 H   0  0  0  0  0  0  0  0  0  0  0  0
    9.1793    0.4343   -0.2954 H   0  0  0  0  0  0  0  0  0  0  0  0
    8.6289   -1.3729   -1.3173 H   0  0  0  0  0  0  0  0  0  0  0  0
    5.2210    1.4385   -0.7297 H   0  0  0  0  0  0  0  0  0  0  0  0
    5.7490    0.6235    0.7644 H   0  0  0  0  0  0  0  0  0  0  0  0
    5.3163   -0.7785   -1.9377 H   0  0  0  0  0  0  0  0  0  0  0  0
    5.9141   -1.5412   -0.3479 H   0  0  0  0  0  0  0  0  0  0  0  0
    3.6024   -1.9850   -0.7068 H   0  0  0  0  0  0  0  0  0  0  0  0
    4.7143   -0.9543    1.6575 H   0  0  0  0  0  0  0  0  0  0  0  0
    3.1607   -1.8117    1.4940 H   0  0  0  0  0  0  0  0  0  0  0  0
    2.9178    0.2126    2.7011 H   0  0  0  0  0  0  0  0  0  0  0  0
    3.5390    1.2377    1.3969 H   0  0  0  0  0  0  0  0  0  0  0  0
    3.1065    1.0533   -0.8495 H   0  0  0  0  0  0  0  0  0  0  0  0
    2.8334   -0.2524   -2.0785 H   0  0  0  0  0  0  0  0  0  0  0  0
    0.8267    0.2606   -1.0034 H   0  0  0  0  0  0  0  0  0  0  0  0
    1.3292   -1.3479   -0.3389 H   0  0  0  0  0  0  0  0  0  0  0  0
    1.3692    1.4667    0.8827 H   0  0  0  0  0  0  0  0  0  0  0  0
    0.8265    0.3472    2.9813 H   0  0  0  0  0  0  0  0  0  0  0  0
    0.9597   -1.2873    2.2589 H   0  0  0  0  0  0  0  0  0  0  0  0
   -1.0758    0.7468    1.6906 H   0  0  0  0  0  0  0  0  0  0  0  0
   -0.9039   -2.1824    0.9697 H   0  0  0  0  0  0  0  0  0  0  0  0
   -0.9062   -0.8622   -0.2375 H   0  0  0  0  0  0  0  0  0  0  0  0
   -3.1101   -1.9114    0.1056 H   0  0  0  0  0  0  0  0  0  0  0  0
   -3.0516   -1.3138    1.8097 H   0  0  0  0  0  0  0  0  0  0  0  0
   -2.9156    0.9895    1.1457 H   0  0  0  0  0  0  0  0  0  0  0  0
   -5.1232    1.1304    1.0534 H   0  0  0  0  0  0  0  0  0  0  0  0
   -5.0231   -0.0256   -1.7910 H   0  0  0  0  0  0  0  0  0  0  0  0
   -3.7479    1.9447   -2.2813 H   0  0  0  0  0  0  0  0  0  0  0  0
   -1.8312    1.2844   -0.8815 H   0  0  0  0  0  0  0  0  0  0  0  0
   -3.2680   -1.2136   -1.7991 H   0  0  0  0  0  0  0  0  0  0  0  0
   -1.7679   -0.4457   -2.3878 H   0  0  0  0  0  0  0  0  0  0  0  0
   -3.3834    0.1236   -2.9653 H   0  0  0  0  0  0  0  0  0  0  0  0
   -6.8799    1.3139   -2.0933 H   0  0  0  0  0  0  0  0  0  0  0  0
   -6.2532    2.5828   -1.0040 H   0  0  0  0  0  0  0  0  0  0  0  0
   -8.2466    1.0174   -0.3203 H   0  0  0  0  0  0  0  0  0  0  0  0
   -7.0975    1.5187    0.9503 H   0  0  0  0  0  0  0  0  0  0  0  0
   -7.3855   -1.1007   -0.5963 H   0  0  0  0  0  0  0  0  0  0  0  0
   -7.5498   -0.8009    1.1730 H   0  0  0  0  0  0  0  0  0  0  0  0
   -5.2288   -1.6541   -0.2548 H   0  0  0  0  0  0  0  0  0  0  0  0
   -5.3602   -1.3698    1.5035 H   0  0  0  0  0  0  0  0  0  0  0  0
  1  2  1  0
  2  3  1  0
  4  3  1  0
  2  5  1  0
  5  6  1  0
  6  7  1  0
  7  8  1  0
  8  9  1  0
  7 10  1  0
 10 11  1  0
  9 12  1  0
 11 12  1  0
 12 13  1  0
 13 14  1  0
 14 15  1  0
 15 16  1  0
 16 17  1  0
 17 18  1  0
 18 19  1  0
 19 20  1  0
 17 21  1  0
 20 21  1  0
 21 22  1  0
 19 23  1  0
 23 24  1  0
 24 25  1  0
 18 26  1  0
 25 26  1  0
 27 28  1  0
 28 29  1  0
 30 29  1  0
 28 31  1  0
 31 32  1  0
 32 33  1  0
 33 34  1  0
 34 35  1  0
 33 36  1  0
 36 37  1  0
 35 38  1  0
 37 38  1  0
 38 39  1  0
 39 40  1  0
 40 41  1  0
 41 42  1  0
 42 43  1  0
 43 44  1  0
 44 45  1  0
 45 46  1  0
 43 47  1  0
 46 47  1  0
 47 48  1  0
 45 49  1  0
 49 50  1  0
 50 51  1  0
 44 52  1  0
 51 52  1  0
  1 53  1  0
  2 54  1  0
  3 55  1  0
  4 56  1  0
  5 57  1  0
  5 58  1  0
  6 59  1  0
  6 60  1  0
  7 61  1  0
  8 62  1  0
  8 63  1  0
  9 64  1  0
  9 65  1  0
 10 66  1  0
 10 67  1  0
 11 68  1  0
 11 69  1  0
 12 70  1  0
 13 71  1  0
 13 72  1  0
 14 73  1  0
 15 74  1  0
 15 75  1  0
 16 76  1  0
 16 77  1  0
 17 78  1  0
 18 79  1  0
 19 80  1  0
 20 81  1  0
 21 82  1  0
 22 83  1  0
 22 84  1  0
 22 85  1  0
 23 86  1  0
 23 87  1  0
 24 88  1  0
 24 89  1  0
 25 90  1  0
 25 91  1  0
 26 92  1  0
 26 93  1  0
 27 94  1  0
 28 95  1  0
 29 96  1  0
 30 97  1  0
 31 98  1  0
 31 99  1  0
 32100  1  0
 32101  1  0
 33102  1  0
 34103  1  0
 34104  1  0
 35105  1  0
 35106  1  0
 36107  1  0
 36108  1  0
 37109  1  0
 37110  1  0
 38111  1  0
 39112  1  0
 39113  1  0
 40114  1  0
 41115  1  0
 41116  1  0
 42117  1  0
 42118  1  0
 43119  1  0
 44120  1  0
 45121  1  0
 46122  1  0
 47123  1  0
 48124  1  0
 48125  1  0
 48126  1  0
 49127  1  0
 49128  1  0
 50129  1  0
 50130  1  0
 51131  1  0
 51132  1  0
 52133  1  0
 52134  1  0
M  END
>  <PDBID>  (1) 
5EF8

>  <PDB ID>  (1) 
5EF8

>  <Generic Name>  (1) 
Panobinostat

>  <Brand Name>  (1) 
Farydak

>  <DrugBank ID>  (1) 
DB06603

>  <ATC Codes>  (1) 
L01XX42

>  <Ligand ID>  (1) 
LBH

>  <Target Name>  (1) 
Histone deacetylase 9

>  <UniProt ID>  (1) 
Q9UKV0

>  <PDB ID.1>  (1) 
5EF8

>  <Seq. Identity>  (1) 
46%

$$$$
