PDB_DB08877_07
     RDKit          3D

114120  0  0  0  0  0  0  0  0999 V2000
   -4.2803    1.0264    0.1681 C   0  0  0  0  0  0  0  0  0  0  0  0
   -4.6703    1.9927   -0.9489 C   0  0  0  0  0  0  0  0  0  0  0  0
   -3.3891    2.7733   -1.0747 C   0  0  0  0  0  0  0  0  0  0  0  0
   -2.3166    1.6726   -0.9727 C   0  0  0  0  0  0  0  0  0  0  0  0
   -3.0142    0.4345   -0.4536 C   0  0  0  0  0  0  0  0  0  0  0  0
   -2.2527   -0.3685    0.5283 C   0  0  1  0  0  0  0  0  0  0  0  0
   -3.0235   -1.5304    1.1253 C   0  0  0  0  0  0  0  0  0  0  0  0
   -3.4849   -2.5680    0.1829 C   0  0  0  0  0  0  0  0  0  0  0  0
   -4.3759   -2.1013   -0.8149 N   0  0  0  0  0  0  0  0  0  0  0  0
   -1.0401   -0.9210    0.0338 N   0  0  0  0  0  0  0  0  0  0  0  0
    0.0116   -0.0464   -0.3684 C   0  0  0  0  0  0  0  0  0  0  0  0
   -0.4414   -1.7620    0.9918 N   0  0  0  0  0  0  0  0  0  0  0  0
    0.9388   -1.9561    0.6022 C   0  0  0  0  0  0  0  0  0  0  0  0
    1.1416   -1.0533   -0.5522 C   0  0  0  0  0  0  0  0  0  0  0  0
    2.4706   -0.4655   -0.7526 C   0  0  0  0  0  0  0  0  0  0  0  0
    3.4170   -1.5829   -0.9043 N   0  0  0  0  0  0  0  0  0  0  0  0
    4.7699   -1.0779   -0.9756 C   0  0  0  0  0  0  0  0  0  0  0  0
    5.1920   -0.4175    0.2181 N   0  0  0  0  0  0  0  0  0  0  0  0
    4.1439    0.1386    1.0110 C   0  0  0  0  0  0  0  0  0  0  0  0
    2.9302    0.5556    0.2113 C   0  0  0  0  0  0  0  0  0  0  0  0
    3.4568    1.8080   -0.5043 C   0  0  0  0  0  0  0  0  0  0  0  0
    4.6646    2.2571    0.2750 C   0  0  0  0  0  0  0  0  0  0  0  0
    4.6199    1.4502    1.4814 N   0  0  0  0  0  0  0  0  0  0  0  0
   -4.1736    1.0655   -0.3449 C   0  0  0  0  0  0  0  0  0  0  0  0
   -4.3207    2.2282   -1.3089 C   0  0  0  0  0  0  0  0  0  0  0  0
   -2.9468    2.8278   -1.2876 C   0  0  0  0  0  0  0  0  0  0  0  0
   -1.9921    1.6552   -1.0978 C   0  0  0  0  0  0  0  0  0  0  0  0
   -2.8281    0.4468   -0.7389 C   0  0  0  0  0  0  0  0  0  0  0  0
   -2.2472   -0.3246    0.3805 C   0  0  1  0  0  0  0  0  0  0  0  0
   -3.1439   -1.4533    0.8758 C   0  0  0  0  0  0  0  0  0  0  0  0
   -3.4491   -2.4904   -0.1384 C   0  0  0  0  0  0  0  0  0  0  0  0
   -4.1287   -2.0878   -1.3159 N   0  0  0  0  0  0  0  0  0  0  0  0
   -0.9971   -0.9549    0.0932 N   0  0  0  0  0  0  0  0  0  0  0  0
    0.1492   -0.1921   -0.1783 C   0  0  0  0  0  0  0  0  0  0  0  0
   -0.5977   -1.7095    1.2327 N   0  0  0  0  0  0  0  0  0  0  0  0
    0.6001   -2.3566    0.7500 C   0  0  0  0  0  0  0  0  0  0  0  0
    1.2510   -1.2797   -0.0784 C   0  0  0  0  0  0  0  0  0  0  0  0
    2.4135   -0.6909    0.6500 C   0  0  1  0  0  0  0  0  0  0  0  0
    3.4754   -1.6736    0.8414 N   0  0  0  0  0  0  0  0  0  0  0  0
    4.3871   -1.7446   -0.2632 C   0  0  0  0  0  0  0  0  0  0  0  0
    5.2009   -0.5393   -0.3753 N   0  0  0  0  0  0  0  0  0  0  0  0
    4.5052    0.5237    0.3272 C   0  0  0  0  0  0  0  0  0  0  0  0
    3.0518    0.4495   -0.1142 C   0  0  0  0  0  0  0  0  0  0  0  0
    2.5448    1.8043    0.2511 C   0  0  0  0  0  0  0  0  0  0  0  0
    3.7491    2.7034    0.0138 C   0  0  0  0  0  0  0  0  0  0  0  0
    4.8962    1.8265   -0.1106 N   0  0  0  0  0  0  0  0  0  0  0  0
   -4.0395    1.6543    1.0469 H   0  0  0  0  0  0  0  0  0  0  0  0
   -5.0629    0.2882    0.3273 H   0  0  0  0  0  0  0  0  0  0  0  0
   -5.5073    2.5860   -0.5646 H   0  0  0  0  0  0  0  0  0  0  0  0
   -4.8995    1.4600   -1.8946 H   0  0  0  0  0  0  0  0  0  0  0  0
   -3.3696    3.2978   -2.0313 H   0  0  0  0  0  0  0  0  0  0  0  0
   -3.2765    3.4466   -0.1994 H   0  0  0  0  0  0  0  0  0  0  0  0
   -1.5343    1.9778   -0.2852 H   0  0  0  0  0  0  0  0  0  0  0  0
   -1.9808    1.5546   -2.0348 H   0  0  0  0  0  0  0  0  0  0  0  0
   -3.3106   -0.1456   -1.3326 H   0  0  0  0  0  0  0  0  0  0  0  0
   -1.9816    0.2818    1.3980 H   0  0  0  0  0  0  0  0  0  0  0  0
   -2.3433   -2.0184    1.8675 H   0  0  0  0  0  0  0  0  0  0  0  0
   -3.8870   -1.1815    1.7307 H   0  0  0  0  0  0  0  0  0  0  0  0
   -2.6219   -3.0857   -0.3486 H   0  0  0  0  0  0  0  0  0  0  0  0
   -3.9338   -3.4316    0.7695 H   0  0  0  0  0  0  0  0  0  0  0  0
   -5.3793   -2.1857   -0.5922 H   0  0  0  0  0  0  0  0  0  0  0  0
   -4.1235   -2.3575   -1.7946 H   0  0  0  0  0  0  0  0  0  0  0  0
    0.2211    0.6271    0.4910 H   0  0  0  0  0  0  0  0  0  0  0  0
   -0.0916    0.4455   -1.3365 H   0  0  0  0  0  0  0  0  0  0  0  0
   -0.4766   -1.2268    1.9098 H   0  0  0  0  0  0  0  0  0  0  0  0
    1.6382   -1.7599    1.4576 H   0  0  0  0  0  0  0  0  0  0  0  0
    1.1356   -3.0269    0.3224 H   0  0  0  0  0  0  0  0  0  0  0  0
    0.8672   -1.6240   -1.4825 H   0  0  0  0  0  0  0  0  0  0  0  0
    2.4684    0.0129   -1.7790 H   0  0  0  0  0  0  0  0  0  0  0  0
    3.3193   -2.2565   -0.1320 H   0  0  0  0  0  0  0  0  0  0  0  0
    4.8954   -0.4736   -1.9033 H   0  0  0  0  0  0  0  0  0  0  0  0
    5.4299   -1.9700   -1.1157 H   0  0  0  0  0  0  0  0  0  0  0  0
    5.7642   -1.0452    0.8427 H   0  0  0  0  0  0  0  0  0  0  0  0
    3.8621   -0.4449    1.8930 H   0  0  0  0  0  0  0  0  0  0  0  0
    2.1857    0.9204    0.9308 H   0  0  0  0  0  0  0  0  0  0  0  0
    3.6942    1.5953   -1.5642 H   0  0  0  0  0  0  0  0  0  0  0  0
    2.7015    2.6188   -0.5012 H   0  0  0  0  0  0  0  0  0  0  0  0
    4.6655    3.3290    0.4666 H   0  0  0  0  0  0  0  0  0  0  0  0
    5.5565    2.0041   -0.3342 H   0  0  0  0  0  0  0  0  0  0  0  0
    3.9466    1.8754    2.1558 H   0  0  0  0  0  0  0  0  0  0  0  0
   -4.1531    1.4830    0.6623 H   0  0  0  0  0  0  0  0  0  0  0  0
   -5.0222    0.3944   -0.5470 H   0  0  0  0  0  0  0  0  0  0  0  0
   -5.0734    2.9305   -0.8570 H   0  0  0  0  0  0  0  0  0  0  0  0
   -4.6618    1.9375   -2.3027 H   0  0  0  0  0  0  0  0  0  0  0  0
   -2.7454    3.3538   -2.2211 H   0  0  0  0  0  0  0  0  0  0  0  0
   -2.8487    3.5383   -0.4311 H   0  0  0  0  0  0  0  0  0  0  0  0
   -1.2603    1.9440   -0.3356 H   0  0  0  0  0  0  0  0  0  0  0  0
   -1.4740    1.5246   -2.0752 H   0  0  0  0  0  0  0  0  0  0  0  0
   -2.9452   -0.1318   -1.6511 H   0  0  0  0  0  0  0  0  0  0  0  0
   -2.0925    0.3545    1.2507 H   0  0  0  0  0  0  0  0  0  0  0  0
   -2.5215   -1.9626    1.6717 H   0  0  0  0  0  0  0  0  0  0  0  0
   -4.0251   -1.0798    1.4216 H   0  0  0  0  0  0  0  0  0  0  0  0
   -2.5322   -3.0622   -0.4586 H   0  0  0  0  0  0  0  0  0  0  0  0
   -4.0899   -3.2621    0.3750 H   0  0  0  0  0  0  0  0  0  0  0  0
   -5.1568   -2.0442   -1.2417 H   0  0  0  0  0  0  0  0  0  0  0  0
   -3.7724   -2.5137   -2.1988 H   0  0  0  0  0  0  0  0  0  0  0  0
    0.3242    0.5271    0.6625 H   0  0  0  0  0  0  0  0  0  0  0  0
    0.2037    0.2903   -1.1478 H   0  0  0  0  0  0  0  0  0  0  0  0
   -0.3183   -1.0654    2.0045 H   0  0  0  0  0  0  0  0  0  0  0  0
    1.2560   -2.6970    1.5802 H   0  0  0  0  0  0  0  0  0  0  0  0
    0.2584   -3.2135    0.1195 H   0  0  0  0  0  0  0  0  0  0  0  0
    1.4997   -1.6330   -1.0871 H   0  0  0  0  0  0  0  0  0  0  0  0
    2.1451   -0.3090    1.6510 H   0  0  0  0  0  0  0  0  0  0  0  0
    4.0197   -1.5182    1.7142 H   0  0  0  0  0  0  0  0  0  0  0  0
    3.8257   -1.9432   -1.2074 H   0  0  0  0  0  0  0  0  0  0  0  0
    5.0383   -2.6262   -0.1018 H   0  0  0  0  0  0  0  0  0  0  0  0
    6.1583   -0.6946    0.0395 H   0  0  0  0  0  0  0  0  0  0  0  0
    4.5927    0.4068    1.4346 H   0  0  0  0  0  0  0  0  0  0  0  0
    3.0442    0.2699   -1.2087 H   0  0  0  0  0  0  0  0  0  0  0  0
    1.7131    2.0727   -0.4570 H   0  0  0  0  0  0  0  0  0  0  0  0
    2.2050    1.8461    1.2924 H   0  0  0  0  0  0  0  0  0  0  0  0
    3.8208    3.3987    0.8751 H   0  0  0  0  0  0  0  0  0  0  0  0
    3.5472    3.2480   -0.9458 H   0  0  0  0  0  0  0  0  0  0  0  0
    5.6411    2.2025    0.5467 H   0  0  0  0  0  0  0  0  0  0  0  0
  1  2  1  0
  2  3  1  0
  3  4  1  0
  1  5  1  0
  4  5  1  0
  5  6  1  0
  6  7  1  0
  7  8  1  0
  8  9  1  0
  6 10  1  0
 10 11  1  0
 10 12  1  0
 12 13  1  0
 11 14  1  0
 13 14  1  0
 14 15  1  0
 15 16  1  0
 16 17  1  0
 17 18  1  0
 18 19  1  0
 15 20  1  0
 19 20  1  0
 20 21  1  0
 21 22  1  0
 19 23  1  0
 22 23  1  0
 24 25  1  0
 25 26  1  0
 26 27  1  0
 24 28  1  0
 27 28  1  0
 28 29  1  0
 29 30  1  0
 30 31  1  0
 31 32  1  0
 29 33  1  0
 33 34  1  0
 33 35  1  0
 35 36  1  0
 34 37  1  0
 36 37  1  0
 37 38  1  0
 38 39  1  0
 39 40  1  0
 40 41  1  0
 41 42  1  0
 38 43  1  0
 42 43  1  0
 43 44  1  0
 44 45  1  0
 42 46  1  0
 45 46  1  0
  1 47  1  0
  1 48  1  0
  2 49  1  0
  2 50  1  0
  3 51  1  0
  3 52  1  0
  4 53  1  0
  4 54  1  0
  5 55  1  0
  6 56  1  1
  7 57  1  0
  7 58  1  0
  8 59  1  0
  8 60  1  0
  9 61  1  0
  9 62  1  0
 11 63  1  0
 11 64  1  0
 12 65  1  0
 13 66  1  0
 13 67  1  0
 14 68  1  0
 15 69  1  0
 16 70  1  0
 17 71  1  0
 17 72  1  0
 18 73  1  0
 19 74  1  0
 20 75  1  0
 21 76  1  0
 21 77  1  0
 22 78  1  0
 22 79  1  0
 23 80  1  0
 24 81  1  0
 24 82  1  0
 25 83  1  0
 25 84  1  0
 26 85  1  0
 26 86  1  0
 27 87  1  0
 27 88  1  0
 28 89  1  0
 29 90  1  1
 30 91  1  0
 30 92  1  0
 31 93  1  0
 31 94  1  0
 32 95  1  0
 32 96  1  0
 34 97  1  0
 34 98  1  0
 35 99  1  0
 36100  1  0
 36101  1  0
 37102  1  0
 38103  1  1
 39104  1  0
 40105  1  0
 40106  1  0
 41107  1  0
 42108  1  0
 43109  1  0
 44110  1  0
 44111  1  0
 45112  1  0
 45113  1  0
 46114  1  0
M  END
>  <PDBID>  (1) 
4U5J

>  <PDB ID>  (1) 
4U5J

>  <Generic Name>  (1) 
Ruxolitinib

>  <Brand Name>  (1) 
Jakafi#Jakavi

>  <DrugBank ID>  (1) 
DB08877

>  <ATC Codes>  (1) 
L01XE18

>  <Ligand ID>  (1) 
RXT

>  <Target Name>  (1) 
Tyrosine-protein kinase JAK2

>  <UniProt ID>  (1) 
O60674

>  <PDB ID.1>  (1) 
4U5J

>  <Seq. Identity>  (1) 
30%

$$$$
