PDB_DB00259_02
     RDKit          3D

 27 27  0  0  0  0  0  0  0  0999 V2000
   -2.1387   -0.1884   -0.2228 C   0  0  0  0  0  0  0  0  0  0  0  0
   -3.2148   -0.4858   -1.1336 N   0  0  0  0  0  0  0  0  0  0  0  0
   -1.4096   -1.4011    0.2535 C   0  0  0  0  0  0  0  0  0  0  0  0
    0.0727   -1.3426    0.0754 C   0  0  0  0  0  0  0  0  0  0  0  0
    0.6969   -0.0585    0.5255 C   0  0  0  0  0  0  0  0  0  0  0  0
   -0.1645    1.1513    0.2317 C   0  0  0  0  0  0  0  0  0  0  0  0
   -1.1195    0.7395   -0.8870 C   0  0  0  0  0  0  0  0  0  0  0  0
    2.2622    0.2033   -0.1023 S   0  0  0  0  0  0  0  0  0  0  0  0
    2.8060    1.6575    0.5354 N   0  0  0  0  0  0  0  0  0  0  0  0
    3.2876   -0.9257    0.7683 O   0  0  0  0  0  0  0  0  0  0  0  0
    2.4406    0.0262   -1.5798 O   0  0  0  0  0  0  0  0  0  0  0  0
   -2.5051    0.3744    0.6733 H   0  0  0  0  0  0  0  0  0  0  0  0
   -4.0455   -0.7528   -0.5602 H   0  0  0  0  0  0  0  0  0  0  0  0
   -3.4731    0.4249   -1.6010 H   0  0  0  0  0  0  0  0  0  0  0  0
   -1.7784   -2.2727   -0.3614 H   0  0  0  0  0  0  0  0  0  0  0  0
   -1.6825   -1.6423    1.3066 H   0  0  0  0  0  0  0  0  0  0  0  0
    0.5120   -2.1584    0.7210 H   0  0  0  0  0  0  0  0  0  0  0  0
    0.3845   -1.6045   -0.9650 H   0  0  0  0  0  0  0  0  0  0  0  0
    0.7701   -0.1068    1.6518 H   0  0  0  0  0  0  0  0  0  0  0  0
   -0.7984    1.4204    1.1116 H   0  0  0  0  0  0  0  0  0  0  0  0
    0.4070    2.0418   -0.0378 H   0  0  0  0  0  0  0  0  0  0  0  0
   -0.5658    0.1562   -1.6590 H   0  0  0  0  0  0  0  0  0  0  0  0
   -1.6088    1.6059   -1.3543 H   0  0  0  0  0  0  0  0  0  0  0  0
    2.7415    2.4647   -0.1098 H   0  0  0  0  0  0  0  0  0  0  0  0
    2.3426    1.8022    1.4548 H   0  0  0  0  0  0  0  0  0  0  0  0
    2.6759   -1.6731    0.9259 H   0  0  0  0  0  0  0  0  0  0  0  0
    3.1049    0.5442   -2.0752 H   0  0  0  0  0  0  0  0  0  0  0  0
  1  2  1  0
  1  3  1  0
  3  4  1  0
  4  5  1  0
  5  6  1  0
  1  7  1  0
  6  7  1  0
  5  8  1  0
  8  9  1  0
  8 10  1  0
  8 11  1  0
  1 12  1  0
  2 13  1  0
  2 14  1  0
  3 15  1  0
  3 16  1  0
  4 17  1  0
  4 18  1  0
  5 19  1  0
  6 20  1  0
  6 21  1  0
  7 22  1  0
  7 23  1  0
  9 24  1  0
  9 25  1  0
 10 26  1  0
 11 27  1  0
M  END
>  <PDBID>  (1) 
1AJ0

>  <PDB ID>  (1) 
1AJ0

>  <Generic Name>  (1) 
Sulfanilamide

>  <Brand Name>  (1) 
AVC Vaginal#Avc#Avc Cream - 15%#Streptocid

>  <DrugBank ID>  (1) 
DB00259

>  <ATC Codes>  (1) 
J01EB06#D06BA05

>  <Ligand ID>  (1) 
SAN

>  <Target Name>  (1) 
Dihydropteroate synthase

>  <UniProt ID>  (1) 
P0AC13

>  <PDB ID.1>  (1) 
1AJ0

>  <Seq. Identity>  (1) 
100%

$$$$
