PDB_DB01201_07
     RDKit          3D

302312  0  0  0  0  0  0  0  0999 V2000
    1.6666   -0.1717   -2.3775 C   0  0  0  0  0  0  0  0  0  0  0  0
    2.3336    0.0586   -1.0800 C   0  0  0  0  0  0  0  0  0  0  0  0
    3.3041   -1.0956   -0.8729 C   0  0  2  0  0  0  0  0  0  0  0  0
    2.4503   -2.2611   -0.5004 C   0  0  0  0  0  0  0  0  0  0  0  0
    0.1427   -2.8217   -1.2350 C   0  0  0  0  0  0  0  0  0  0  0  0
   -0.4319   -3.7849   -2.2941 C   0  0  0  0  0  0  0  0  0  0  0  0
   -0.3626   -3.0897   -3.5886 C   0  0  0  0  0  0  0  0  0  0  0  0
    0.2345   -1.7121   -3.5588 C   0  0  0  0  0  0  0  0  0  0  0  0
    1.5253   -1.6198   -2.7700 C   0  0  0  0  0  0  0  0  0  0  0  0
    1.5563   -2.5931   -1.6280 C   0  0  1  0  0  0  0  0  0  0  0  0
   -0.1087   -3.6557   -0.0301 C   0  0  2  0  0  0  0  0  0  0  0  0
   -1.5262   -4.1562   -0.3699 C   0  0  2  0  0  0  0  0  0  0  0  0
   -1.6733   -5.5614    0.1083 C   0  0  0  0  0  0  0  0  0  0  0  0
    0.3371   -3.8814   -4.6859 C   0  0  0  0  0  0  0  0  0  0  0  0
    2.4725    2.4570   -1.4442 C   0  0  0  0  0  0  0  0  0  0  0  0
    2.0073    3.3715   -0.3308 C   0  0  0  0  0  0  0  0  0  0  0  0
    0.7184    2.9600    0.3019 C   0  0  0  0  0  0  0  0  0  0  0  0
   -0.3786    4.0127    0.1616 C   0  0  0  0  0  0  0  0  0  0  0  0
   -1.6854    3.2630    0.0170 C   0  0  0  0  0  0  0  0  0  0  0  0
   -2.9000    4.1066    0.2210 C   0  0  1  0  0  0  0  0  0  0  0  0
   -3.9062    3.3548    1.0808 C   0  0  1  0  0  0  0  0  0  0  0  0
   -4.9404    2.7749    0.1441 C   0  0  2  0  0  0  0  0  0  0  0  0
   -5.9803    1.9512    0.8377 C   0  0  2  0  0  0  0  0  0  0  0  0
   -5.6654    0.4880    0.9210 C   0  0  2  0  0  0  0  0  0  0  0  0
   -6.8853   -0.3944    0.6869 C   0  0  1  0  0  0  0  0  0  0  0  0
   -6.6066   -1.5137   -0.2951 C   0  0  1  0  0  0  0  0  0  0  0  0
   -5.9344   -2.6959    0.3138 C   0  0  2  0  0  0  0  0  0  0  0  0
   -4.6190   -2.9577   -0.3909 C   0  0  0  0  0  0  0  0  0  0  0  0
   -3.6509   -3.7305    0.4794 C   0  0  0  0  0  0  0  0  0  0  0  0
    1.9476    4.7965   -0.8572 C   0  0  0  0  0  0  0  0  0  0  0  0
   -2.5107    5.3538    0.9861 C   0  0  0  0  0  0  0  0  0  0  0  0
   -4.3553    2.0189   -1.0023 C   0  0  0  0  0  0  0  0  0  0  0  0
   -5.1946    0.2150    2.3507 C   0  0  0  0  0  0  0  0  0  0  0  0
   -7.8445   -1.8813   -1.0828 C   0  0  0  0  0  0  0  0  0  0  0  0
   -8.7176   -0.3692    2.0869 C   0  0  0  0  0  0  0  0  0  0  0  0
   -9.6965   -1.4857    2.2474 C   0  0  0  0  0  0  0  0  0  0  0  0
   -6.9347   -4.3116    1.6347 C   0  0  0  0  0  0  0  0  0  0  0  0
    9.5157    2.0155    2.1186 C   0  0  0  0  0  0  0  0  0  0  0  0
    8.0185    2.4443    0.2908 C   0  0  0  0  0  0  0  0  0  0  0  0
    6.7766    1.9395   -0.3483 C   0  0  0  0  0  0  0  0  0  0  0  0
    7.1539   -0.3012    0.4177 C   0  0  0  0  0  0  0  0  0  0  0  0
    8.5137    0.2280    0.8485 C   0  0  0  0  0  0  0  0  0  0  0  0
    4.4097   -0.7729    0.0715 C   0  0  0  0  0  0  0  0  0  0  0  0
   10.7676    2.0995    1.2871 C   0  0  0  0  0  0  0  0  0  0  0  0
    9.8346    1.2567    3.3469 C   0  0  0  0  0  0  0  0  0  0  0  0
   11.8619    1.4834    2.1129 C   0  0  0  0  0  0  0  0  0  0  0  0
   11.3324    1.5589    3.5089 C   0  0  0  0  0  0  0  0  0  0  0  0
    3.0461    1.2680   -0.8998 N   0  0  0  0  0  0  0  0  0  0  0  0
    5.1392    0.3468   -0.4848 N   0  0  0  0  0  0  0  0  0  0  0  0
    6.1935    0.7729    0.2941 N   0  0  0  0  0  0  0  0  0  0  0  0
    8.4015    1.5710    1.3712 N   0  0  0  0  0  0  0  0  0  0  0  0
    0.4048    0.4404   -2.3483 O   0  0  0  0  0  0  0  0  0  0  0  0
    0.3787   -1.2768   -4.8648 O   0  0  0  0  0  0  0  0  0  0  0  0
   -1.6600   -4.0340   -1.7539 O   0  0  0  0  0  0  0  0  0  0  0  0
   -0.1168   -2.9428    1.1537 O   0  0  0  0  0  0  0  0  0  0  0  0
   -2.3777   -3.2588    0.2762 O   0  0  0  0  0  0  0  0  0  0  0  0
   -6.7256   -3.8313    0.3750 O   0  0  0  0  0  0  0  0  0  0  0  0
   -7.4294   -0.8332    1.8667 O   0  0  0  0  0  0  0  0  0  0  0  0
   -8.7552    0.4730    3.1970 O   0  0  0  0  0  0  0  0  0  0  0  0
   -7.1906    2.1178    0.1506 O   0  0  0  0  0  0  0  0  0  0  0  0
   -3.2214    2.4127    1.8069 O   0  0  0  0  0  0  0  0  0  0  0  0
    3.5503    3.1492   -2.0561 O   0  0  0  0  0  0  0  0  0  0  0  0
    3.1756   -3.3561   -0.0396 O   0  0  0  0  0  0  0  0  0  0  0  0
    1.3304   -0.1353   -2.2355 C   0  0  0  0  0  0  0  0  0  0  0  0
    2.0828    0.1454   -0.9533 C   0  0  0  0  0  0  0  0  0  0  0  0
    2.9518   -1.0646   -0.6812 C   0  0  2  0  0  0  0  0  0  0  0  0
    2.0441   -2.1210   -0.0922 C   0  0  0  0  0  0  0  0  0  0  0  0
    0.7905   -3.7980   -1.3149 C   0  0  0  0  0  0  0  0  0  0  0  0
   -0.1866   -4.1971   -2.3674 C   0  0  0  0  0  0  0  0  0  0  0  0
   -0.2699   -3.2630   -3.5255 C   0  0  0  0  0  0  0  0  0  0  0  0
   -0.1730   -1.8107   -3.1794 C   0  0  0  0  0  0  0  0  0  0  0  0
    1.1228   -1.6251   -2.3782 C   0  0  0  0  0  0  0  0  0  0  0  0
    0.9079   -2.3267   -1.0718 C   0  0  0  0  0  0  0  0  0  0  0  0
    0.2017   -4.4293   -0.0777 C   0  0  2  0  0  0  0  0  0  0  0  0
   -1.2699   -4.4895   -0.4114 C   0  0  2  0  0  0  0  0  0  0  0  0
   -1.7835   -5.7730    0.2262 C   0  0  0  0  0  0  0  0  0  0  0  0
    0.7741   -3.6494   -4.5464 C   0  0  0  0  0  0  0  0  0  0  0  0
    2.3131    2.4494   -1.6478 C   0  0  0  0  0  0  0  0  0  0  0  0
    1.5977    3.3623   -0.6665 C   0  0  0  0  0  0  0  0  0  0  0  0
    0.4569    4.0110   -1.4193 C   0  0  0  0  0  0  0  0  0  0  0  0
   -0.5719    4.5996   -0.4767 C   0  0  0  0  0  0  0  0  0  0  0  0
   -1.8148    3.7232   -0.5841 C   0  0  0  0  0  0  0  0  0  0  0  0
   -3.0203    4.3804    0.0520 C   0  0  1  0  0  0  0  0  0  0  0  0
   -3.8039    3.3688    0.8145 C   0  0  1  0  0  0  0  0  0  0  0  0
   -4.9815    2.8230    0.0560 C   0  0  2  0  0  0  0  0  0  0  0  0
   -5.9164    2.0864    0.9521 C   0  0  2  0  0  0  0  0  0  0  0  0
   -5.6010    0.6175    1.1059 C   0  0  2  0  0  0  0  0  0  0  0  0
   -6.7647   -0.2712    0.7086 C   0  0  1  0  0  0  0  0  0  0  0  0
   -6.3259   -1.4668   -0.1164 C   0  0  1  0  0  0  0  0  0  0  0  0
   -5.4538   -2.4327    0.6013 C   0  0  2  0  0  0  0  0  0  0  0  0
   -4.1934   -2.6619   -0.2119 C   0  0  0  0  0  0  0  0  0  0  0  0
   -3.1948   -3.5565    0.5088 C   0  0  0  0  0  0  0  0  0  0  0  0
    2.5284    4.4113   -0.0976 C   0  0  0  0  0  0  0  0  0  0  0  0
   -2.6104    5.4817    1.0059 C   0  0  0  0  0  0  0  0  0  0  0  0
   -4.6224    2.0021   -1.1330 C   0  0  0  0  0  0  0  0  0  0  0  0
   -5.2669    0.3864    2.5641 C   0  0  0  0  0  0  0  0  0  0  0  0
   -7.5008   -2.1181   -0.8086 C   0  0  0  0  0  0  0  0  0  0  0  0
   -8.7441   -0.4136    1.8993 C   0  0  0  0  0  0  0  0  0  0  0  0
   -9.5881   -1.6734    1.9082 C   0  0  0  0  0  0  0  0  0  0  0  0
   -6.1152   -3.9609    2.2415 C   0  0  0  0  0  0  0  0  0  0  0  0
    9.3467    1.7990    2.1056 C   0  0  0  0  0  0  0  0  0  0  0  0
    7.7888    2.3375    0.3608 C   0  0  0  0  0  0  0  0  0  0  0  0
    6.5169    1.8775   -0.2979 C   0  0  0  0  0  0  0  0  0  0  0  0
    7.0717   -0.4161    0.1401 C   0  0  0  0  0  0  0  0  0  0  0  0
    8.4101    0.1006    0.6429 C   0  0  0  0  0  0  0  0  0  0  0  0
    4.1297   -0.7622    0.1899 C   0  0  0  0  0  0  0  0  0  0  0  0
   10.5730    2.1828    1.3178 C   0  0  0  0  0  0  0  0  0  0  0  0
    9.7735    0.8926    3.1952 C   0  0  0  0  0  0  0  0  0  0  0  0
   11.7179    1.5604    2.0461 C   0  0  0  0  0  0  0  0  0  0  0  0
   11.1992    1.4050    3.4591 C   0  0  0  0  0  0  0  0  0  0  0  0
    2.9097    1.3097   -0.9981 N   0  0  0  0  0  0  0  0  0  0  0  0
    4.9342    0.2359   -0.4841 N   0  0  0  0  0  0  0  0  0  0  0  0
    6.0520    0.6096    0.2199 N   0  0  0  0  0  0  0  0  0  0  0  0
    8.2986    1.3716    1.2718 N   0  0  0  0  0  0  0  0  0  0  0  0
    0.0875    0.4928   -2.2117 O   0  0  0  0  0  0  0  0  0  0  0  0
   -0.0161   -1.1141   -4.3987 O   0  0  0  0  0  0  0  0  0  0  0  0
   -1.3997   -4.4737   -1.7768 O   0  0  0  0  0  0  0  0  0  0  0  0
    0.3429   -3.6398    1.0503 O   0  0  0  0  0  0  0  0  0  0  0  0
   -1.9070   -3.3539    0.0812 O   0  0  0  0  0  0  0  0  0  0  0  0
   -6.0806   -3.6228    0.9257 O   0  0  0  0  0  0  0  0  0  0  0  0
   -7.4130   -0.7635    1.8393 O   0  0  0  0  0  0  0  0  0  0  0  0
   -8.9552    0.3438    3.0536 O   0  0  0  0  0  0  0  0  0  0  0  0
   -7.1982    2.1934    0.4162 O   0  0  0  0  0  0  0  0  0  0  0  0
   -2.9329    2.3740    1.2431 O   0  0  0  0  0  0  0  0  0  0  0  0
    3.3853    3.2156   -2.1615 O   0  0  0  0  0  0  0  0  0  0  0  0
    2.7825   -3.2707    0.1273 O   0  0  0  0  0  0  0  0  0  0  0  0
    2.2450    0.3782   -3.1695 H   0  0  0  0  0  0  0  0  0  0  0  0
    1.5570   -0.0369   -0.2714 H   0  0  0  0  0  0  0  0  0  0  0  0
    3.7411   -1.3061   -1.8724 H   0  0  0  0  0  0  0  0  0  0  0  0
    1.8249   -1.9252    0.3741 H   0  0  0  0  0  0  0  0  0  0  0  0
   -0.4576   -1.8920   -1.1882 H   0  0  0  0  0  0  0  0  0  0  0  0
    0.2364   -4.6821   -2.2371 H   0  0  0  0  0  0  0  0  0  0  0  0
   -1.4190   -2.9523   -3.9647 H   0  0  0  0  0  0  0  0  0  0  0  0
   -0.5312   -1.0673   -3.0508 H   0  0  0  0  0  0  0  0  0  0  0  0
    2.3431   -1.8529   -3.4851 H   0  0  0  0  0  0  0  0  0  0  0  0
    1.9502   -3.5596   -2.0683 H   0  0  0  0  0  0  0  0  0  0  0  0
    0.5954   -4.5104    0.0120 H   0  0  0  0  0  0  0  0  0  0  0  0
   -0.6850   -6.0983    0.1645 H   0  0  0  0  0  0  0  0  0  0  0  0
   -2.0377   -5.5249    1.1688 H   0  0  0  0  0  0  0  0  0  0  0  0
   -2.3881   -6.1416   -0.4758 H   0  0  0  0  0  0  0  0  0  0  0  0
    1.1798   -4.4730   -4.3048 H   0  0  0  0  0  0  0  0  0  0  0  0
   -0.3490   -4.5523   -5.2153 H   0  0  0  0  0  0  0  0  0  0  0  0
    0.7527   -3.1769   -5.4639 H   0  0  0  0  0  0  0  0  0  0  0  0
    1.7343    2.3316   -2.2328 H   0  0  0  0  0  0  0  0  0  0  0  0
    2.8352    3.3790    0.4349 H   0  0  0  0  0  0  0  0  0  0  0  0
    0.3562    2.0192   -0.1150 H   0  0  0  0  0  0  0  0  0  0  0  0
    0.8787    2.8636    1.4173 H   0  0  0  0  0  0  0  0  0  0  0  0
   -0.3882    4.6864    1.0502 H   0  0  0  0  0  0  0  0  0  0  0  0
   -0.2282    4.5885   -0.7779 H   0  0  0  0  0  0  0  0  0  0  0  0
   -1.6786    2.8524   -1.0360 H   0  0  0  0  0  0  0  0  0  0  0  0
   -1.6242    2.4077    0.7390 H   0  0  0  0  0  0  0  0  0  0  0  0
   -3.3647    4.4192   -0.7439 H   0  0  0  0  0  0  0  0  0  0  0  0
   -4.4333    4.0870    1.7240 H   0  0  0  0  0  0  0  0  0  0  0  0
   -5.4702    3.6681   -0.2951 H   0  0  0  0  0  0  0  0  0  0  0  0
   -6.1549    2.4035    1.8490 H   0  0  0  0  0  0  0  0  0  0  0  0
   -4.9045    0.1651    0.1873 H   0  0  0  0  0  0  0  0  0  0  0  0
   -7.6499    0.2544    0.1826 H   0  0  0  0  0  0  0  0  0  0  0  0
   -5.8883   -1.0576   -1.0385 H   0  0  0  0  0  0  0  0  0  0  0  0
   -5.6586   -2.4377    1.3577 H   0  0  0  0  0  0  0  0  0  0  0  0
   -4.7688   -3.4377   -1.3795 H   0  0  0  0  0  0  0  0  0  0  0  0
   -4.1585   -1.9691   -0.5898 H   0  0  0  0  0  0  0  0  0  0  0  0
   -3.8941   -3.5712    1.5527 H   0  0  0  0  0  0  0  0  0  0  0  0
   -3.7467   -4.8335    0.3031 H   0  0  0  0  0  0  0  0  0  0  0  0
    1.4977    4.8292   -1.8651 H   0  0  0  0  0  0  0  0  0  0  0  0
    3.0173    5.1142   -0.9918 H   0  0  0  0  0  0  0  0  0  0  0  0
    1.4966    5.4847   -0.1337 H   0  0  0  0  0  0  0  0  0  0  0  0
   -1.8105    5.9982    0.4151 H   0  0  0  0  0  0  0  0  0  0  0  0
   -2.1591    5.0778    1.9833 H   0  0  0  0  0  0  0  0  0  0  0  0
   -3.4281    5.9963    1.1333 H   0  0  0  0  0  0  0  0  0  0  0  0
   -5.1761    1.3772   -1.4306 H   0  0  0  0  0  0  0  0  0  0  0  0
   -3.5319    1.3573   -0.7273 H   0  0  0  0  0  0  0  0  0  0  0  0
   -4.1017    2.7289   -1.8166 H   0  0  0  0  0  0  0  0  0  0  0  0
   -5.3278    1.1213    3.0046 H   0  0  0  0  0  0  0  0  0  0  0  0
   -4.1377   -0.1222    2.3538 H   0  0  0  0  0  0  0  0  0  0  0  0
   -5.7989   -0.5701    2.8483 H   0  0  0  0  0  0  0  0  0  0  0  0
   -7.8025   -1.4652   -2.0957 H   0  0  0  0  0  0  0  0  0  0  0  0
   -8.7023   -1.3741   -0.5740 H   0  0  0  0  0  0  0  0  0  0  0  0
   -8.0650   -2.9641   -1.0471 H   0  0  0  0  0  0  0  0  0  0  0  0
   -9.0299    0.2729    1.2192 H   0  0  0  0  0  0  0  0  0  0  0  0
   -9.5147   -2.2766    1.5007 H   0  0  0  0  0  0  0  0  0  0  0  0
  -10.7448   -1.1543    2.1103 H   0  0  0  0  0  0  0  0  0  0  0  0
   -9.6011   -1.9500    3.2508 H   0  0  0  0  0  0  0  0  0  0  0  0
   -6.0188   -4.5963    2.1784 H   0  0  0  0  0  0  0  0  0  0  0  0
   -7.6340   -5.1916    1.6546 H   0  0  0  0  0  0  0  0  0  0  0  0
   -7.4493   -3.5391    2.2383 H   0  0  0  0  0  0  0  0  0  0  0  0
    9.2925    3.0777    2.4372 H   0  0  0  0  0  0  0  0  0  0  0  0
    7.8723    3.4940    0.6303 H   0  0  0  0  0  0  0  0  0  0  0  0
    8.8545    2.3830   -0.4505 H   0  0  0  0  0  0  0  0  0  0  0  0
    6.0346    2.7695   -0.4127 H   0  0  0  0  0  0  0  0  0  0  0  0
    7.0051    1.7075   -1.4269 H   0  0  0  0  0  0  0  0  0  0  0  0
    7.1853   -0.8603   -0.5334 H   0  0  0  0  0  0  0  0  0  0  0  0
    6.7949   -0.9868    1.2074 H   0  0  0  0  0  0  0  0  0  0  0  0
    9.0563   -0.4721    1.5125 H   0  0  0  0  0  0  0  0  0  0  0  0
    9.1168    0.3017   -0.0815 H   0  0  0  0  0  0  0  0  0  0  0  0
    4.0837   -0.5953    1.1043 H   0  0  0  0  0  0  0  0  0  0  0  0
    5.1005   -1.6401    0.0870 H   0  0  0  0  0  0  0  0  0  0  0  0
   11.0342    3.1437    1.0099 H   0  0  0  0  0  0  0  0  0  0  0  0
   10.6877    1.5344    0.3393 H   0  0  0  0  0  0  0  0  0  0  0  0
    9.3623    1.6545    4.2687 H   0  0  0  0  0  0  0  0  0  0  0  0
    9.7408    0.1756    3.3128 H   0  0  0  0  0  0  0  0  0  0  0  0
   12.8025    2.0642    2.0044 H   0  0  0  0  0  0  0  0  0  0  0  0
   11.9836    0.4255    1.8289 H   0  0  0  0  0  0  0  0  0  0  0  0
   11.4226    2.5778    3.9353 H   0  0  0  0  0  0  0  0  0  0  0  0
   11.7258    0.7853    4.1920 H   0  0  0  0  0  0  0  0  0  0  0  0
    3.1308    1.4117    0.1524 H   0  0  0  0  0  0  0  0  0  0  0  0
    5.3166    0.2639   -1.4881 H   0  0  0  0  0  0  0  0  0  0  0  0
    0.1830    0.8245   -3.2549 H   0  0  0  0  0  0  0  0  0  0  0  0
   -0.4993   -1.2567   -5.2811 H   0  0  0  0  0  0  0  0  0  0  0  0
    0.4534   -3.4315    1.8048 H   0  0  0  0  0  0  0  0  0  0  0  0
   -9.5194    0.2508    3.7985 H   0  0  0  0  0  0  0  0  0  0  0  0
   -7.2577    3.0087   -0.2628 H   0  0  0  0  0  0  0  0  0  0  0  0
   -3.0954    2.7852    2.7315 H   0  0  0  0  0  0  0  0  0  0  0  0
    3.2148    3.8086   -2.7096 H   0  0  0  0  0  0  0  0  0  0  0  0
    3.4045   -3.2128    0.9102 H   0  0  0  0  0  0  0  0  0  0  0  0
    1.8815    0.2224   -3.1059 H   0  0  0  0  0  0  0  0  0  0  0  0
    1.3382    0.2996   -0.1341 H   0  0  0  0  0  0  0  0  0  0  0  0
    3.3544   -1.3886   -1.6738 H   0  0  0  0  0  0  0  0  0  0  0  0
    1.6528   -1.7118    0.8674 H   0  0  0  0  0  0  0  0  0  0  0  0
    1.7960   -4.2389   -1.4787 H   0  0  0  0  0  0  0  0  0  0  0  0
    0.1819   -5.1846   -2.7786 H   0  0  0  0  0  0  0  0  0  0  0  0
   -1.2669   -3.4113   -4.0200 H   0  0  0  0  0  0  0  0  0  0  0  0
   -1.0457   -1.4646   -2.6274 H   0  0  0  0  0  0  0  0  0  0  0  0
    1.9141   -2.0949   -3.0078 H   0  0  0  0  0  0  0  0  0  0  0  0
   -0.0518   -1.9577   -0.6521 H   0  0  0  0  0  0  0  0  0  0  0  0
    0.6297   -5.4235    0.1489 H   0  0  0  0  0  0  0  0  0  0  0  0
   -0.9451   -6.5318    0.2646 H   0  0  0  0  0  0  0  0  0  0  0  0
   -2.0043   -5.5520    1.2772 H   0  0  0  0  0  0  0  0  0  0  0  0
   -2.5767   -6.2608   -0.3471 H   0  0  0  0  0  0  0  0  0  0  0  0
    1.6168   -4.2005   -4.0658 H   0  0  0  0  0  0  0  0  0  0  0  0
    0.3418   -4.3591   -5.2953 H   0  0  0  0  0  0  0  0  0  0  0  0
    1.1843   -2.7869   -5.0838 H   0  0  0  0  0  0  0  0  0  0  0  0
    1.7049    2.1630   -2.5046 H   0  0  0  0  0  0  0  0  0  0  0  0
    1.1926    2.7691    0.1523 H   0  0  0  0  0  0  0  0  0  0  0  0
    0.8779    4.7963   -2.1126 H   0  0  0  0  0  0  0  0  0  0  0  0
    0.0197    3.2405   -2.0871 H   0  0  0  0  0  0  0  0  0  0  0  0
   -0.1629    4.6081    0.5540 H   0  0  0  0  0  0  0  0  0  0  0  0
   -0.7901    5.6259   -0.8445 H   0  0  0  0  0  0  0  0  0  0  0  0
   -2.0181    3.5985   -1.6561 H   0  0  0  0  0  0  0  0  0  0  0  0
   -1.5788    2.7824   -0.0623 H   0  0  0  0  0  0  0  0  0  0  0  0
   -3.6298    4.8861   -0.7487 H   0  0  0  0  0  0  0  0  0  0  0  0
   -4.2102    3.8455    1.7299 H   0  0  0  0  0  0  0  0  0  0  0  0
   -5.5418    3.7256   -0.3250 H   0  0  0  0  0  0  0  0  0  0  0  0
   -5.9464    2.6200    1.9321 H   0  0  0  0  0  0  0  0  0  0  0  0
   -4.7446    0.3154    0.4432 H   0  0  0  0  0  0  0  0  0  0  0  0
   -7.4774    0.3145    0.0782 H   0  0  0  0  0  0  0  0  0  0  0  0
   -5.7181   -1.0133   -0.9533 H   0  0  0  0  0  0  0  0  0  0  0  0
   -5.1064   -1.9731    1.5472 H   0  0  0  0  0  0  0  0  0  0  0  0
   -4.4138   -3.0221   -1.2306 H   0  0  0  0  0  0  0  0  0  0  0  0
   -3.6938   -1.6790   -0.3167 H   0  0  0  0  0  0  0  0  0  0  0  0
   -3.2144   -3.2686    1.5899 H   0  0  0  0  0  0  0  0  0  0  0  0
   -3.5052   -4.5811    0.3121 H   0  0  0  0  0  0  0  0  0  0  0  0
    2.4547    5.3786   -0.6309 H   0  0  0  0  0  0  0  0  0  0  0  0
    3.5937    4.0601   -0.1029 H   0  0  0  0  0  0  0  0  0  0  0  0
    2.2635    4.6024    0.9556 H   0  0  0  0  0  0  0  0  0  0  0  0
   -2.4711    6.4520    0.4968 H   0  0  0  0  0  0  0  0  0  0  0  0
   -1.7839    5.1823    1.6487 H   0  0  0  0  0  0  0  0  0  0  0  0
   -3.5007    5.6347    1.6837 H   0  0  0  0  0  0  0  0  0  0  0  0
   -5.4865    1.3389   -1.3604 H   0  0  0  0  0  0  0  0  0  0  0  0
   -3.7444    1.3498   -1.0007 H   0  0  0  0  0  0  0  0  0  0  0  0
   -4.5176    2.6677   -2.0308 H   0  0  0  0  0  0  0  0  0  0  0  0
   -5.3656    1.3321    3.1750 H   0  0  0  0  0  0  0  0  0  0  0  0
   -4.2567   -0.0524    2.7018 H   0  0  0  0  0  0  0  0  0  0  0  0
   -5.9828   -0.3161    3.0377 H   0  0  0  0  0  0  0  0  0  0  0  0
   -7.1968   -2.4785   -1.8141 H   0  0  0  0  0  0  0  0  0  0  0  0
   -8.2846   -1.3497   -0.9670 H   0  0  0  0  0  0  0  0  0  0  0  0
   -7.9581   -2.9206   -0.1980 H   0  0  0  0  0  0  0  0  0  0  0  0
   -8.9849    0.1948    0.9968 H   0  0  0  0  0  0  0  0  0  0  0  0
   -9.8671   -1.9683    0.8968 H   0  0  0  0  0  0  0  0  0  0  0  0
  -10.5121   -1.4428    2.4844 H   0  0  0  0  0  0  0  0  0  0  0  0
   -9.0195   -2.5134    2.4036 H   0  0  0  0  0  0  0  0  0  0  0  0
   -5.1373   -4.0850    2.7447 H   0  0  0  0  0  0  0  0  0  0  0  0
   -6.7525   -4.8846    2.3781 H   0  0  0  0  0  0  0  0  0  0  0  0
   -6.6547   -3.1817    2.8132 H   0  0  0  0  0  0  0  0  0  0  0  0
    9.0042    2.7575    2.6021 H   0  0  0  0  0  0  0  0  0  0  0  0
    7.5251    3.2594    0.9500 H   0  0  0  0  0  0  0  0  0  0  0  0
    8.5653    2.5742   -0.3804 H   0  0  0  0  0  0  0  0  0  0  0  0
    5.6817    2.6015   -0.1849 H   0  0  0  0  0  0  0  0  0  0  0  0
    6.7147    1.7832   -1.3853 H   0  0  0  0  0  0  0  0  0  0  0  0
    7.1162   -0.7563   -0.9126 H   0  0  0  0  0  0  0  0  0  0  0  0
    6.7880   -1.2621    0.7631 H   0  0  0  0  0  0  0  0  0  0  0  0
    8.9501   -0.6694    1.2288 H   0  0  0  0  0  0  0  0  0  0  0  0
    9.0372    0.2437   -0.2872 H   0  0  0  0  0  0  0  0  0  0  0  0
    3.8148   -0.3233    1.1705 H   0  0  0  0  0  0  0  0  0  0  0  0
    4.6618   -1.6840    0.4146 H   0  0  0  0  0  0  0  0  0  0  0  0
   10.7016    3.2864    1.2201 H   0  0  0  0  0  0  0  0  0  0  0  0
   10.4644    1.8080    0.2738 H   0  0  0  0  0  0  0  0  0  0  0  0
    9.2214    1.0768    4.1610 H   0  0  0  0  0  0  0  0  0  0  0  0
    9.8733   -0.1638    2.9652 H   0  0  0  0  0  0  0  0  0  0  0  0
   12.5761    2.2720    2.0044 H   0  0  0  0  0  0  0  0  0  0  0  0
   11.9861    0.5665    1.6329 H   0  0  0  0  0  0  0  0  0  0  0  0
   11.1640    2.3897    3.9694 H   0  0  0  0  0  0  0  0  0  0  0  0
   11.7618    0.6374    4.0106 H   0  0  0  0  0  0  0  0  0  0  0  0
    3.0607    1.6102    0.0127 H   0  0  0  0  0  0  0  0  0  0  0  0
    5.2317   -0.0968   -1.4336 H   0  0  0  0  0  0  0  0  0  0  0  0
   -0.1917    0.8291   -3.1153 H   0  0  0  0  0  0  0  0  0  0  0  0
   -0.6953   -1.4156   -5.0503 H   0  0  0  0  0  0  0  0  0  0  0  0
    0.7369   -4.1216    1.8172 H   0  0  0  0  0  0  0  0  0  0  0  0
   -9.9291    0.3348    3.2381 H   0  0  0  0  0  0  0  0  0  0  0  0
   -7.2197    2.7691   -0.3925 H   0  0  0  0  0  0  0  0  0  0  0  0
   -2.4971    2.6417    2.0892 H   0  0  0  0  0  0  0  0  0  0  0  0
    3.0587    4.0776   -2.5121 H   0  0  0  0  0  0  0  0  0  0  0  0
    3.2108   -3.2302    1.0285 H   0  0  0  0  0  0  0  0  0  0  0  0
  1  2  1  0
  2  3  1  0
  3  4  1  0
  5  6  1  0
  6  7  1  0
  7  8  1  0
  1  9  1  0
  8  9  1  0
  4 10  1  0
  5 10  1  0
  9 10  1  0
  5 11  1  0
 11 12  1  0
 12 13  1  1
  7 14  1  0
 15 16  1  0
 16 17  1  0
 17 18  1  0
 18 19  1  0
 19 20  1  0
 20 21  1  0
 21 22  1  0
 22 23  1  0
 23 24  1  0
 24 25  1  0
 25 26  1  0
 26 27  1  0
 27 28  1  0
 28 29  1  0
 16 30  1  0
 20 31  1  0
 22 32  1  0
 24 33  1  0
 26 34  1  0
 35 36  1  0
 39 40  1  0
 41 42  1  0
  3 43  1  0
 38 44  1  0
 38 45  1  0
 44 46  1  0
 45 47  1  0
 46 47  1  0
  2 48  1  0
 15 48  1  0
 43 49  1  0
 40 50  1  0
 41 50  1  0
 49 50  1  0
 38 51  1  0
 39 51  1  0
 42 51  1  0
  1 52  1  0
  8 53  1  0
  6 54  1  0
 12 54  1  0
 11 55  1  0
 12 56  1  0
 29 56  1  0
 27 57  1  0
 37 57  1  0
 25 58  1  0
 35 58  1  0
 35 59  1  0
 23 60  1  0
 21 61  1  0
 15 62  1  0
  4 63  1  0
 64 65  1  0
 65 66  1  0
 66 67  1  0
 68 69  1  0
 69 70  1  0
 70 71  1  0
 64 72  1  0
 71 72  1  0
 67 73  1  0
 68 73  1  0
 72 73  1  0
 68 74  1  0
 74 75  1  0
 75 76  1  1
 70 77  1  0
 78 79  1  0
 79 80  1  0
 80 81  1  0
 81 82  1  0
 82 83  1  0
 83 84  1  0
 84 85  1  0
 85 86  1  0
 86 87  1  0
 87 88  1  0
 88 89  1  0
 89 90  1  0
 90 91  1  0
 91 92  1  0
 79 93  1  0
 83 94  1  0
 85 95  1  0
 87 96  1  0
 89 97  1  0
 98 99  1  0
102103  1  0
104105  1  0
 66106  1  0
101107  1  0
101108  1  0
107109  1  0
108110  1  0
109110  1  0
 65111  1  0
 78111  1  0
106112  1  0
103113  1  0
104113  1  0
112113  1  0
101114  1  0
102114  1  0
105114  1  0
 64115  1  0
 71116  1  0
 69117  1  0
 75117  1  0
 74118  1  0
 75119  1  0
 92119  1  0
 90120  1  0
100120  1  0
 88121  1  0
 98121  1  0
 98122  1  0
 86123  1  0
 84124  1  0
 78125  1  0
 67126  1  0
  1127  1  0
  2128  1  0
  3129  1  6
  4130  1  0
  5131  1  0
  6132  1  0
  7133  1  0
  8134  1  0
  9135  1  0
 10136  1  6
 11137  1  1
 13138  1  0
 13139  1  0
 13140  1  0
 14141  1  0
 14142  1  0
 14143  1  0
 15144  1  0
 16145  1  0
 17146  1  0
 17147  1  0
 18148  1  0
 18149  1  0
 19150  1  0
 19151  1  0
 20152  1  6
 21153  1  1
 22154  1  6
 23155  1  1
 24156  1  6
 25157  1  6
 26158  1  6
 27159  1  1
 28160  1  0
 28161  1  0
 29162  1  0
 29163  1  0
 30164  1  0
 30165  1  0
 30166  1  0
 31167  1  0
 31168  1  0
 31169  1  0
 32170  1  0
 32171  1  0
 32172  1  0
 33173  1  0
 33174  1  0
 33175  1  0
 34176  1  0
 34177  1  0
 34178  1  0
 35179  1  0
 36180  1  0
 36181  1  0
 36182  1  0
 37183  1  0
 37184  1  0
 37185  1  0
 38186  1  0
 39187  1  0
 39188  1  0
 40189  1  0
 40190  1  0
 41191  1  0
 41192  1  0
 42193  1  0
 42194  1  0
 43195  1  0
 43196  1  0
 44197  1  0
 44198  1  0
 45199  1  0
 45200  1  0
 46201  1  0
 46202  1  0
 47203  1  0
 47204  1  0
 48205  1  0
 49206  1  0
 52207  1  0
 53208  1  0
 55209  1  0
 59210  1  0
 60211  1  0
 61212  1  0
 62213  1  0
 63214  1  0
 64215  1  0
 65216  1  0
 66217  1  6
 67218  1  0
 68219  1  0
 69220  1  0
 70221  1  0
 71222  1  0
 72223  1  0
 73224  1  0
 74225  1  1
 76226  1  0
 76227  1  0
 76228  1  0
 77229  1  0
 77230  1  0
 77231  1  0
 78232  1  0
 79233  1  0
 80234  1  0
 80235  1  0
 81236  1  0
 81237  1  0
 82238  1  0
 82239  1  0
 83240  1  6
 84241  1  1
 85242  1  6
 86243  1  1
 87244  1  6
 88245  1  6
 89246  1  6
 90247  1  1
 91248  1  0
 91249  1  0
 92250  1  0
 92251  1  0
 93252  1  0
 93253  1  0
 93254  1  0
 94255  1  0
 94256  1  0
 94257  1  0
 95258  1  0
 95259  1  0
 95260  1  0
 96261  1  0
 96262  1  0
 96263  1  0
 97264  1  0
 97265  1  0
 97266  1  0
 98267  1  0
 99268  1  0
 99269  1  0
 99270  1  0
100271  1  0
100272  1  0
100273  1  0
101274  1  0
102275  1  0
102276  1  0
103277  1  0
103278  1  0
104279  1  0
104280  1  0
105281  1  0
105282  1  0
106283  1  0
106284  1  0
107285  1  0
107286  1  0
108287  1  0
108288  1  0
109289  1  0
109290  1  0
110291  1  0
110292  1  0
111293  1  0
112294  1  0
115295  1  0
116296  1  0
118297  1  0
122298  1  0
123299  1  0
124300  1  0
125301  1  0
126302  1  0
M  END
>  <PDBID>  (1) 
2A69

>  <PDB ID>  (1) 
2A69

>  <Generic Name>  (1) 
Rifapentine

>  <Brand Name>  (1) 
Priftin

>  <DrugBank ID>  (1) 
DB01201

>  <ATC Codes>  (1) 
J04AB05

>  <Ligand ID>  (1) 
RPT

>  <Target Name>  (1) 
DNA-directed RNA polymerase subunit beta'

>  <UniProt ID>  (1) 
P0A674

>  <PDB ID.1>  (1) 
2A69

>  <Seq. Identity>  (1) 
50%

$$$$
