PDB_DB00282_04
     RDKit          3D

 28 27  0  0  0  0  0  0  0  0999 V2000
   -0.7307   -1.4127   -0.2520 P   0  0  0  0  0  0  0  0  0  0  0  0
   -0.1529   -1.7620   -1.6486 O   0  0  0  0  0  0  0  0  0  0  0  0
   -2.2226   -1.4659   -0.9560 O   0  0  0  0  0  0  0  0  0  0  0  0
   -1.4682   -1.5819    1.1142 O   0  0  0  0  0  0  0  0  0  0  0  0
   -0.0865    0.2123    0.0174 C   0  0  0  0  0  0  0  0  0  0  0  0
   -1.2255    1.4427   -0.0466 P   0  0  0  0  0  0  0  0  0  0  0  0
   -2.4729    2.3079   -0.3369 O   0  0  0  0  0  0  0  0  0  0  0  0
   -1.4246    0.9450   -1.6763 O   0  0  0  0  0  0  0  0  0  0  0  0
   -0.1924    2.6120    0.2984 O   0  0  0  0  0  0  0  0  0  0  0  0
    0.5400    0.1887    1.2998 O   0  0  0  0  0  0  0  0  0  0  0  0
    1.1341    0.5416   -0.8740 C   0  0  0  0  0  0  0  0  0  0  0  0
    2.2059   -0.4261   -0.5744 C   0  0  0  0  0  0  0  0  0  0  0  0
    2.6032   -0.3436    0.8307 N   0  0  0  0  0  0  0  0  0  0  0  0
    0.0192   -2.4854    0.1835 H   0  0  0  0  0  0  0  0  0  0  0  0
   -0.3087   -2.5625   -2.1705 H   0  0  0  0  0  0  0  0  0  0  0  0
   -2.5389   -2.3666   -1.0435 H   0  0  0  0  0  0  0  0  0  0  0  0
   -2.0159   -2.3251    1.3998 H   0  0  0  0  0  0  0  0  0  0  0  0
   -1.9705    0.7923    0.9039 H   0  0  0  0  0  0  0  0  0  0  0  0
   -2.3529    3.1140   -0.8491 H   0  0  0  0  0  0  0  0  0  0  0  0
   -0.8526    1.5548   -2.1638 H   0  0  0  0  0  0  0  0  0  0  0  0
   -0.4412    3.4787    0.6343 H   0  0  0  0  0  0  0  0  0  0  0  0
    0.2345   -0.5559    1.8366 H   0  0  0  0  0  0  0  0  0  0  0  0
    1.4263    1.5786   -0.6947 H   0  0  0  0  0  0  0  0  0  0  0  0
    0.8380    0.4318   -1.9399 H   0  0  0  0  0  0  0  0  0  0  0  0
    3.1581   -0.1922   -1.1364 H   0  0  0  0  0  0  0  0  0  0  0  0
    1.9756   -1.4727   -0.7807 H   0  0  0  0  0  0  0  0  0  0  0  0
    2.8459    0.6573    1.0335 H   0  0  0  0  0  0  0  0  0  0  0  0
    3.4763   -0.9053    1.0059 H   0  0  0  0  0  0  0  0  0  0  0  0
  1  2  1  0
  1  3  1  0
  1  4  1  0
  1  5  1  0
  5  6  1  0
  6  7  1  0
  6  8  1  0
  6  9  1  0
  5 10  1  0
  5 11  1  0
 11 12  1  0
 12 13  1  0
  1 14  1  0
  2 15  1  0
  3 16  1  0
  4 17  1  0
  6 18  1  0
  7 19  1  0
  8 20  1  0
  9 21  1  0
 10 22  1  0
 11 23  1  0
 11 24  1  0
 12 25  1  0
 12 26  1  0
 13 27  1  0
 13 28  1  0
M  END
>  <PDBID>  (1) 
2F89

>  <PDB ID>  (1) 
2F89

>  <Generic Name>  (1) 
Pamidronate

>  <Brand Name>  (1) 
Aredia#Aredia 30mg#Aredia 90mg#Aredia Liq Inj 3mg/ml#PMS-pamidronate#Pamidronate Disodium#Pamidronate Disodium Omega 3 mg/ml#Pamidronate Disodium Omega 6 mg/ml#Pamidronate Disodium Omega 9 mg/ml#Pamidronate Disodium for Injection#Val-pamidronate Disodium#Aminomux#Pamimed

>  <DrugBank ID>  (1) 
DB00282

>  <ATC Codes>  (1) 
M05BA03

>  <Ligand ID>  (1) 
210

>  <Target Name>  (1) 
Farnesyl pyrophosphate synthase

>  <UniProt ID>  (1) 
P14324

>  <PDB ID.1>  (1) 
2F89

>  <Seq. Identity>  (1) 
100%

$$$$
