PDB_DB00299_09
     RDKit          3D

 82 84  0  0  0  0  0  0  0  0999 V2000
   -2.9763    0.2218   -1.1823 C   0  0  0  0  0  0  0  0  0  0  0  0
   -1.5249   -0.7174    0.5030 C   0  0  0  0  0  0  0  0  0  0  0  0
   -2.4134   -0.0681    1.4962 C   0  0  0  0  0  0  0  0  0  0  0  0
    4.4974    0.5565    0.0567 C   0  0  0  0  0  0  0  0  0  0  0  0
    4.8762   -0.5276    0.8413 O   0  0  0  0  0  0  0  0  0  0  0  0
    3.2361   -0.9362   -1.4320 C   0  0  0  0  0  0  0  0  0  0  0  0
    4.2107   -0.7380   -2.4331 O   0  0  0  0  0  0  0  0  0  0  0  0
    3.1362    0.2905   -0.5798 C   0  0  0  0  0  0  0  0  0  0  0  0
    2.1028    0.0653    0.5059 C   0  0  0  0  0  0  0  0  0  0  0  0
    0.7468   -0.2025   -0.0882 C   0  0  0  0  0  0  0  0  0  0  0  0
   -0.2001   -0.3845    0.9942 N   0  0  0  0  0  0  0  0  0  0  0  0
   -1.7624   -0.4514   -0.8553 N   0  0  0  0  0  0  0  0  0  0  0  0
   -3.3776   -0.2502   -2.5196 N   0  0  0  0  0  0  0  0  0  0  0  0
   -4.0644    0.0307   -0.3169 N   0  0  0  0  0  0  0  0  0  0  0  0
   -3.8418    0.0790    1.0713 C   0  0  0  0  0  0  0  0  0  0  0  0
   -4.6111   -0.8715    1.7400 O   0  0  0  0  0  0  0  0  0  0  0  0
   -1.7621    1.1731    1.7811 N   0  0  0  0  0  0  0  0  0  0  0  0
   -0.3520    0.7884    1.8072 C   0  0  0  0  0  0  0  0  0  0  0  0
   -2.9763    0.2218   -1.1823 C   0  0  0  0  0  0  0  0  0  0  0  0
   -1.5249   -0.7174    0.5030 C   0  0  0  0  0  0  0  0  0  0  0  0
   -2.4134   -0.0681    1.4962 C   0  0  0  0  0  0  0  0  0  0  0  0
    4.4974    0.5565    0.0567 C   0  0  0  0  0  0  0  0  0  0  0  0
    4.8762   -0.5276    0.8413 O   0  0  0  0  0  0  0  0  0  0  0  0
    3.2361   -0.9362   -1.4320 C   0  0  0  0  0  0  0  0  0  0  0  0
    4.2107   -0.7380   -2.4331 O   0  0  0  0  0  0  0  0  0  0  0  0
    3.1362    0.2905   -0.5798 C   0  0  0  0  0  0  0  0  0  0  0  0
    2.1028    0.0653    0.5059 C   0  0  0  0  0  0  0  0  0  0  0  0
    0.7468   -0.2025   -0.0882 C   0  0  0  0  0  0  0  0  0  0  0  0
   -0.2001   -0.3845    0.9942 N   0  0  0  0  0  0  0  0  0  0  0  0
   -1.7624   -0.4514   -0.8553 N   0  0  0  0  0  0  0  0  0  0  0  0
   -3.3776   -0.2502   -2.5196 N   0  0  0  0  0  0  0  0  0  0  0  0
   -4.0644    0.0307   -0.3169 N   0  0  0  0  0  0  0  0  0  0  0  0
   -3.8418    0.0790    1.0713 C   0  0  0  0  0  0  0  0  0  0  0  0
   -4.6111   -0.8715    1.7400 O   0  0  0  0  0  0  0  0  0  0  0  0
   -1.7621    1.1731    1.7811 N   0  0  0  0  0  0  0  0  0  0  0  0
   -0.3520    0.7884    1.8072 C   0  0  0  0  0  0  0  0  0  0  0  0
   -2.7248    1.3122   -1.3351 H   0  0  0  0  0  0  0  0  0  0  0  0
   -1.6168   -1.8322    0.6683 H   0  0  0  0  0  0  0  0  0  0  0  0
   -2.3725   -0.6676    2.4464 H   0  0  0  0  0  0  0  0  0  0  0  0
    4.3920    1.4293    0.7105 H   0  0  0  0  0  0  0  0  0  0  0  0
    5.2302    0.7848   -0.7323 H   0  0  0  0  0  0  0  0  0  0  0  0
    5.7156   -0.2640    1.3101 H   0  0  0  0  0  0  0  0  0  0  0  0
    2.2540   -1.1542   -1.9424 H   0  0  0  0  0  0  0  0  0  0  0  0
    3.5054   -1.8028   -0.8091 H   0  0  0  0  0  0  0  0  0  0  0  0
    4.3773   -1.6441   -2.8071 H   0  0  0  0  0  0  0  0  0  0  0  0
    2.8201    1.1679   -1.1848 H   0  0  0  0  0  0  0  0  0  0  0  0
    2.4745   -0.8464    1.0668 H   0  0  0  0  0  0  0  0  0  0  0  0
    2.1320    0.8695    1.2531 H   0  0  0  0  0  0  0  0  0  0  0  0
    0.4738    0.5712   -0.8049 H   0  0  0  0  0  0  0  0  0  0  0  0
    0.7943   -1.2064   -0.5875 H   0  0  0  0  0  0  0  0  0  0  0  0
   -1.6345   -1.3206   -1.4414 H   0  0  0  0  0  0  0  0  0  0  0  0
   -2.5702   -0.3534   -3.1473 H   0  0  0  0  0  0  0  0  0  0  0  0
   -4.0176    0.4717   -2.9234 H   0  0  0  0  0  0  0  0  0  0  0  0
   -4.9063   -0.4168   -0.6649 H   0  0  0  0  0  0  0  0  0  0  0  0
   -4.2062    1.0741    1.4623 H   0  0  0  0  0  0  0  0  0  0  0  0
   -4.3045   -0.8484    2.7015 H   0  0  0  0  0  0  0  0  0  0  0  0
   -1.8914    1.8398    0.9887 H   0  0  0  0  0  0  0  0  0  0  0  0
    0.2952    1.6378    1.5106 H   0  0  0  0  0  0  0  0  0  0  0  0
   -0.1395    0.5050    2.8719 H   0  0  0  0  0  0  0  0  0  0  0  0
   -2.7248    1.3122   -1.3351 H   0  0  0  0  0  0  0  0  0  0  0  0
   -1.6168   -1.8322    0.6683 H   0  0  0  0  0  0  0  0  0  0  0  0
   -2.3725   -0.6676    2.4464 H   0  0  0  0  0  0  0  0  0  0  0  0
    4.3920    1.4293    0.7105 H   0  0  0  0  0  0  0  0  0  0  0  0
    5.2302    0.7848   -0.7323 H   0  0  0  0  0  0  0  0  0  0  0  0
    5.7156   -0.2640    1.3101 H   0  0  0  0  0  0  0  0  0  0  0  0
    2.2540   -1.1542   -1.9424 H   0  0  0  0  0  0  0  0  0  0  0  0
    3.5054   -1.8028   -0.8091 H   0  0  0  0  0  0  0  0  0  0  0  0
    4.3773   -1.6441   -2.8071 H   0  0  0  0  0  0  0  0  0  0  0  0
    2.8201    1.1679   -1.1848 H   0  0  0  0  0  0  0  0  0  0  0  0
    2.4745   -0.8464    1.0668 H   0  0  0  0  0  0  0  0  0  0  0  0
    2.1320    0.8695    1.2531 H   0  0  0  0  0  0  0  0  0  0  0  0
    0.4738    0.5712   -0.8049 H   0  0  0  0  0  0  0  0  0  0  0  0
    0.7943   -1.2064   -0.5875 H   0  0  0  0  0  0  0  0  0  0  0  0
   -1.6345   -1.3206   -1.4414 H   0  0  0  0  0  0  0  0  0  0  0  0
   -2.5702   -0.3534   -3.1473 H   0  0  0  0  0  0  0  0  0  0  0  0
   -4.0176    0.4717   -2.9234 H   0  0  0  0  0  0  0  0  0  0  0  0
   -4.9063   -0.4168   -0.6649 H   0  0  0  0  0  0  0  0  0  0  0  0
   -4.2062    1.0741    1.4623 H   0  0  0  0  0  0  0  0  0  0  0  0
   -4.3045   -0.8484    2.7015 H   0  0  0  0  0  0  0  0  0  0  0  0
   -1.8914    1.8398    0.9887 H   0  0  0  0  0  0  0  0  0  0  0  0
    0.2952    1.6378    1.5106 H   0  0  0  0  0  0  0  0  0  0  0  0
   -0.1395    0.5050    2.8719 H   0  0  0  0  0  0  0  0  0  0  0  0
  2  3  1  0
  4  5  1  0
  6  7  1  0
  4  8  1  0
  6  8  1  0
  8  9  1  0
  9 10  1  0
  2 11  1  0
 10 11  1  0
  1 12  1  0
  2 12  1  0
  1 13  1  0
  1 14  1  0
  3 15  1  0
 14 15  1  0
 15 16  1  0
  3 17  1  0
 11 18  1  0
 17 18  1  0
 20 21  1  0
 22 23  1  0
 24 25  1  0
 22 26  1  0
 24 26  1  0
 26 27  1  0
 27 28  1  0
 20 29  1  0
 28 29  1  0
 19 30  1  0
 20 30  1  0
 19 31  1  0
 19 32  1  0
 21 33  1  0
 32 33  1  0
 33 34  1  0
 21 35  1  0
 29 36  1  0
 35 36  1  0
  1 37  1  0
  2 38  1  0
  3 39  1  0
  4 40  1  0
  4 41  1  0
  5 42  1  0
  6 43  1  0
  6 44  1  0
  7 45  1  0
  8 46  1  0
  9 47  1  0
  9 48  1  0
 10 49  1  0
 10 50  1  0
 12 51  1  0
 13 52  1  0
 13 53  1  0
 14 54  1  0
 15 55  1  0
 16 56  1  0
 17 57  1  0
 18 58  1  0
 18 59  1  0
 19 60  1  0
 20 61  1  0
 21 62  1  0
 22 63  1  0
 22 64  1  0
 23 65  1  0
 24 66  1  0
 24 67  1  0
 25 68  1  0
 26 69  1  0
 27 70  1  0
 27 71  1  0
 28 72  1  0
 28 73  1  0
 30 74  1  0
 31 75  1  0
 31 76  1  0
 32 77  1  0
 33 78  1  0
 34 79  1  0
 35 80  1  0
 36 81  1  0
 36 82  1  0
M  END
>  <PDBID>  (1) 
1KI3

>  <PDB ID>  (1) 
1KI3

>  <Generic Name>  (1) 
Penciclovir

>  <Brand Name>  (1) 
Denavir#Penciclovir

>  <DrugBank ID>  (1) 
DB00299

>  <ATC Codes>  (1) 
D06BB06#J05AB13

>  <Ligand ID>  (1) 
PE2

>  <Target Name>  (1) 
Thymidine kinase

>  <UniProt ID>  (1) 
P06478

>  <PDB ID.1>  (1) 
1KI3

>  <Seq. Identity>  (1) 
98%

$$$$
