PDB_DB00864_00
     RDKit          3D

140143  0  0  0  0  0  0  0  0999 V2000
    0.6396   -1.2857   -1.2176 C   0  0  0  0  0  0  0  0  0  0  0  0
    0.5618   -2.7442   -1.4947 C   0  0  2  0  0  0  0  0  0  0  0  0
   -0.1180   -3.0296   -2.8438 C   0  0  0  0  0  0  0  0  0  0  0  0
    0.2153   -4.4303   -3.2162 C   0  0  0  0  0  0  0  0  0  0  0  0
    0.2886   -5.4225   -2.1202 C   0  0  0  0  0  0  0  0  0  0  0  0
    0.7197   -4.9152   -0.7805 C   0  0  0  0  0  0  0  0  0  0  0  0
   -1.2752   -3.8332   -0.3193 C   0  0  0  0  0  0  0  0  0  0  0  0
   -1.9406   -3.1139    0.8435 C   0  0  0  0  0  0  0  0  0  0  0  0
   -3.3259   -2.6282    0.4486 C   0  0  1  0  0  0  0  0  0  0  0  0
   -4.3970   -3.6743    0.6983 C   0  0  1  0  0  0  0  0  0  0  0  0
   -5.4655   -3.1968    1.6250 C   0  0  0  0  0  0  0  0  0  0  0  0
   -5.9236   -1.7813    1.3947 C   0  0  1  0  0  0  0  0  0  0  0  0
   -4.9170   -1.0799    0.5673 C   0  0  1  0  0  0  0  0  0  0  0  0
   -5.0756    0.4346    0.5004 C   0  0  2  0  0  0  0  0  0  0  0  0
   -4.9157    1.0777    1.8313 C   0  0  0  0  0  0  0  0  0  0  0  0
   -4.9573    2.5623    1.7415 C   0  0  2  0  0  0  0  0  0  0  0  0
   -3.5810    3.1910    1.7135 C   0  0  0  0  0  0  0  0  0  0  0  0
   -3.2801    3.8158    0.3801 C   0  0  0  0  0  0  0  0  0  0  0  0
   -1.9392    4.5105    0.4485 C   0  0  0  0  0  0  0  0  0  0  0  0
   -0.9718    3.9207   -0.5503 C   0  0  2  0  0  0  0  0  0  0  0  0
    0.1693    3.2558    0.1362 C   0  0  0  0  0  0  0  0  0  0  0  0
    0.5906    1.9404   -0.5272 C   0  0  0  0  0  0  0  0  0  0  0  0
    1.9628    1.9980   -1.0960 C   0  0  1  0  0  0  0  0  0  0  0  0
    2.9670    1.0616   -0.4935 C   0  0  2  0  0  0  0  0  0  0  0  0
    2.7237   -0.3942   -0.5967 C   0  0  1  0  0  0  0  0  0  0  0  0
    3.8374   -1.0974    0.1595 C   0  0  0  0  0  0  0  0  0  0  0  0
    5.1546   -0.8136   -0.4384 C   0  0  0  0  0  0  0  0  0  0  0  0
    6.3158   -1.4833    0.2630 C   0  0  1  0  0  0  0  0  0  0  0  0
    7.5913   -1.1256   -0.4589 C   0  0  0  0  0  0  0  0  0  0  0  0
    8.5852   -0.3816    0.4044 C   0  0  2  0  0  0  0  0  0  0  0  0
    8.9042   -1.1368    1.6745 C   0  0  1  0  0  0  0  0  0  0  0  0
    7.6528   -1.7051    2.2991 C   0  0  0  0  0  0  0  0  0  0  0  0
    6.3980   -1.1109    1.7190 C   0  0  0  0  0  0  0  0  0  0  0  0
   -4.9173   -4.2617   -0.5906 C   0  0  0  0  0  0  0  0  0  0  0  0
   -5.6339    3.0768    3.0234 C   0  0  0  0  0  0  0  0  0  0  0  0
   -4.3012    4.8732    0.0079 C   0  0  0  0  0  0  0  0  0  0  0  0
   -0.5007    4.8858   -1.5840 C   0  0  0  0  0  0  0  0  0  0  0  0
    0.2099    6.0722   -1.0137 C   0  0  0  0  0  0  0  0  0  0  0  0
    0.6238    6.9601   -2.1932 C   0  0  0  0  0  0  0  0  0  0  0  0
    3.1787    1.5180    0.9429 C   0  0  0  0  0  0  0  0  0  0  0  0
    3.5516   -2.5729    0.3370 C   0  0  0  0  0  0  0  0  0  0  0  0
   -8.0987   -1.2619    1.6967 C   0  0  0  0  0  0  0  0  0  0  0  0
   -5.9146    1.3459   -1.4533 C   0  0  0  0  0  0  0  0  0  0  0  0
    9.0595    1.8145    0.0509 C   0  0  0  0  0  0  0  0  0  0  0  0
    0.1113   -3.6025   -0.4668 N   0  0  0  0  0  0  0  0  0  0  0  0
    1.4820   -0.8607   -0.2469 O   0  0  0  0  0  0  0  0  0  0  0  0
    0.8583   -0.6957   -2.4877 O   0  0  0  0  0  0  0  0  0  0  0  0
   -1.5296   -5.2085   -0.0824 O   0  0  0  0  0  0  0  0  0  0  0  0
   -1.1526   -2.1066    1.3839 O   0  0  0  0  0  0  0  0  0  0  0  0
   -3.6504   -1.4278    1.0463 O   0  0  0  0  0  0  0  0  0  0  0  0
   -3.3376   -2.3739   -0.9438 O   0  0  0  0  0  0  0  0  0  0  0  0
   -7.1897   -1.8414    0.8299 O   0  0  0  0  0  0  0  0  0  0  0  0
   -6.1790    0.7995   -0.2283 O   0  0  0  0  0  0  0  0  0  0  0  0
   -0.1518    3.0845    1.4812 O   0  0  0  0  0  0  0  0  0  0  0  0
    2.0343    2.0969   -2.4803 O   0  0  0  0  0  0  0  0  0  0  0  0
    8.1785    0.9178    0.6209 O   0  0  0  0  0  0  0  0  0  0  0  0
    9.7675   -2.1889    1.3686 O   0  0  0  0  0  0  0  0  0  0  0  0
   -0.3886   -0.8924   -0.9470 H   0  0  0  0  0  0  0  0  0  0  0  0
    1.6261   -3.0503   -1.7439 H   0  0  0  0  0  0  0  0  0  0  0  0
    0.4296   -2.3471   -3.5618 H   0  0  0  0  0  0  0  0  0  0  0  0
   -1.1543   -2.7336   -2.8914 H   0  0  0  0  0  0  0  0  0  0  0  0
   -0.5600   -4.7615   -3.9700 H   0  0  0  0  0  0  0  0  0  0  0  0
    1.1785   -4.4485   -3.8085 H   0  0  0  0  0  0  0  0  0  0  0  0
   -0.6642   -6.0030   -2.0961 H   0  0  0  0  0  0  0  0  0  0  0  0
    1.0576   -6.2007   -2.4128 H   0  0  0  0  0  0  0  0  0  0  0  0
    1.8199   -4.8216   -0.7909 H   0  0  0  0  0  0  0  0  0  0  0  0
    0.3675   -5.6295   -0.0091 H   0  0  0  0  0  0  0  0  0  0  0  0
   -1.8843   -3.6038   -1.2177 H   0  0  0  0  0  0  0  0  0  0  0  0
   -2.1299   -3.8162    1.7113 H   0  0  0  0  0  0  0  0  0  0  0  0
   -3.8721   -4.5280    1.2232 H   0  0  0  0  0  0  0  0  0  0  0  0
   -5.1136   -3.3515    2.6875 H   0  0  0  0  0  0  0  0  0  0  0  0
   -6.3227   -3.9266    1.5265 H   0  0  0  0  0  0  0  0  0  0  0  0
   -5.9687   -1.2879    2.3912 H   0  0  0  0  0  0  0  0  0  0  0  0
   -4.9462   -1.4160   -0.5077 H   0  0  0  0  0  0  0  0  0  0  0  0
   -4.1859    0.7507   -0.1245 H   0  0  0  0  0  0  0  0  0  0  0  0
   -5.6455    0.7301    2.5886 H   0  0  0  0  0  0  0  0  0  0  0  0
   -3.8908    0.8114    2.2305 H   0  0  0  0  0  0  0  0  0  0  0  0
   -5.5477    2.9692    0.9218 H   0  0  0  0  0  0  0  0  0  0  0  0
   -2.7840    2.4626    1.9396 H   0  0  0  0  0  0  0  0  0  0  0  0
   -3.4864    4.0023    2.4697 H   0  0  0  0  0  0  0  0  0  0  0  0
   -3.2388    3.0923   -0.4359 H   0  0  0  0  0  0  0  0  0  0  0  0
   -1.5380    4.4362    1.4949 H   0  0  0  0  0  0  0  0  0  0  0  0
   -2.0314    5.5991    0.2673 H   0  0  0  0  0  0  0  0  0  0  0  0
   -1.5279    3.0960   -1.0967 H   0  0  0  0  0  0  0  0  0  0  0  0
    1.0775    3.8890    0.1164 H   0  0  0  0  0  0  0  0  0  0  0  0
   -0.1760    1.6314   -1.2873 H   0  0  0  0  0  0  0  0  0  0  0  0
    0.5708    1.1941    0.2886 H   0  0  0  0  0  0  0  0  0  0  0  0
    2.3645    3.0237   -0.7704 H   0  0  0  0  0  0  0  0  0  0  0  0
    3.9141    1.2922   -1.0266 H   0  0  0  0  0  0  0  0  0  0  0  0
    2.8171   -0.6380   -1.7064 H   0  0  0  0  0  0  0  0  0  0  0  0
    3.8875   -0.7097    1.2257 H   0  0  0  0  0  0  0  0  0  0  0  0
    5.1928   -1.1046   -1.5237 H   0  0  0  0  0  0  0  0  0  0  0  0
    5.3767    0.2658   -0.4112 H   0  0  0  0  0  0  0  0  0  0  0  0
    6.1710   -2.5726    0.1911 H   0  0  0  0  0  0  0  0  0  0  0  0
    8.0754   -2.0328   -0.9010 H   0  0  0  0  0  0  0  0  0  0  0  0
    7.3677   -0.4649   -1.3214 H   0  0  0  0  0  0  0  0  0  0  0  0
    9.5330   -0.3510   -0.1818 H   0  0  0  0  0  0  0  0  0  0  0  0
    9.4502   -0.4389    2.3423 H   0  0  0  0  0  0  0  0  0  0  0  0
    7.6036   -2.8019    2.2291 H   0  0  0  0  0  0  0  0  0  0  0  0
    7.7235   -1.4654    3.3997 H   0  0  0  0  0  0  0  0  0  0  0  0
    6.4351   -0.0109    1.8584 H   0  0  0  0  0  0  0  0  0  0  0  0
    5.5464   -1.5736    2.2517 H   0  0  0  0  0  0  0  0  0  0  0  0
   -4.2157   -4.1252   -1.4428 H   0  0  0  0  0  0  0  0  0  0  0  0
   -5.9098   -3.8545   -0.8748 H   0  0  0  0  0  0  0  0  0  0  0  0
   -5.0670   -5.3792   -0.5071 H   0  0  0  0  0  0  0  0  0  0  0  0
   -5.3007    4.1128    3.1910 H   0  0  0  0  0  0  0  0  0  0  0  0
   -5.3038    2.4626    3.9100 H   0  0  0  0  0  0  0  0  0  0  0  0
   -6.7266    3.0314    2.9153 H   0  0  0  0  0  0  0  0  0  0  0  0
   -3.7861    5.5966   -0.6716 H   0  0  0  0  0  0  0  0  0  0  0  0
   -4.5474    5.4321    0.9300 H   0  0  0  0  0  0  0  0  0  0  0  0
   -5.1658    4.4997   -0.5335 H   0  0  0  0  0  0  0  0  0  0  0  0
    0.2501    4.3228   -2.2137 H   0  0  0  0  0  0  0  0  0  0  0  0
   -1.3159    5.1754   -2.2781 H   0  0  0  0  0  0  0  0  0  0  0  0
    1.1031    5.8158   -0.4121 H   0  0  0  0  0  0  0  0  0  0  0  0
   -0.4571    6.6800   -0.3576 H   0  0  0  0  0  0  0  0  0  0  0  0
    1.6931    6.7113   -2.4051 H   0  0  0  0  0  0  0  0  0  0  0  0
    0.4872    8.0139   -1.9113 H   0  0  0  0  0  0  0  0  0  0  0  0
    0.0583    6.6946   -3.1142 H   0  0  0  0  0  0  0  0  0  0  0  0
    2.5191    0.9588    1.6178 H   0  0  0  0  0  0  0  0  0  0  0  0
    2.9867    2.6245    0.9837 H   0  0  0  0  0  0  0  0  0  0  0  0
    4.2222    1.4070    1.2832 H   0  0  0  0  0  0  0  0  0  0  0  0
    2.5185   -2.7702    0.6313 H   0  0  0  0  0  0  0  0  0  0  0  0
    4.2042   -3.0879    1.0364 H   0  0  0  0  0  0  0  0  0  0  0  0
    3.7351   -3.0431   -0.6628 H   0  0  0  0  0  0  0  0  0  0  0  0
   -9.0944   -1.3292    1.2094 H   0  0  0  0  0  0  0  0  0  0  0  0
   -7.8729   -0.1973    1.9114 H   0  0  0  0  0  0  0  0  0  0  0  0
   -8.1956   -1.7927    2.6601 H   0  0  0  0  0  0  0  0  0  0  0  0
   -5.2991    2.2524   -1.3130 H   0  0  0  0  0  0  0  0  0  0  0  0
   -5.2684    0.6728   -2.0939 H   0  0  0  0  0  0  0  0  0  0  0  0
   -6.8130    1.6718   -2.0034 H   0  0  0  0  0  0  0  0  0  0  0  0
   10.0971    1.7322    0.4554 H   0  0  0  0  0  0  0  0  0  0  0  0
    8.7214    2.8541    0.2661 H   0  0  0  0  0  0  0  0  0  0  0  0
    9.0807    1.7328   -1.0673 H   0  0  0  0  0  0  0  0  0  0  0  0
    0.0410   -0.4430   -2.9422 H   0  0  0  0  0  0  0  0  0  0  0  0
   -1.5653   -5.3819    0.8965 H   0  0  0  0  0  0  0  0  0  0  0  0
   -0.6222   -2.4335    2.1740 H   0  0  0  0  0  0  0  0  0  0  0  0
   -2.8363   -1.5190   -1.0500 H   0  0  0  0  0  0  0  0  0  0  0  0
    0.0204    2.1551    1.7891 H   0  0  0  0  0  0  0  0  0  0  0  0
    1.1129    2.0750   -2.8766 H   0  0  0  0  0  0  0  0  0  0  0  0
   10.2911   -2.0204    0.5452 H   0  0  0  0  0  0  0  0  0  0  0  0
  1  2  1  0
  2  3  1  0
  3  4  1  0
  4  5  1  0
  5  6  1  0
  7  8  1  0
  8  9  1  0
  9 10  1  0
 10 11  1  0
 11 12  1  0
 12 13  1  0
 13 14  1  0
 14 15  1  0
 15 16  1  0
 16 17  1  0
 17 18  1  0
 18 19  1  0
 19 20  1  0
 20 21  1  0
 21 22  1  0
 22 23  1  0
 23 24  1  0
 24 25  1  0
 25 26  1  0
 26 27  1  0
 27 28  1  0
 28 29  1  0
 29 30  1  0
 30 31  1  0
 31 32  1  0
 28 33  1  0
 32 33  1  0
 10 34  1  0
 16 35  1  0
 18 36  1  0
 20 37  1  0
 37 38  1  0
 38 39  1  0
 24 40  1  0
 26 41  1  0
  2 45  1  0
  6 45  1  0
  7 45  1  0
  1 46  1  0
 25 46  1  0
  1 47  1  0
  7 48  1  0
  8 49  1  0
  9 50  1  0
 13 50  1  0
  9 51  1  6
 12 52  1  0
 42 52  1  0
 14 53  1  0
 43 53  1  0
 21 54  1  0
 23 55  1  0
 30 56  1  0
 44 56  1  0
 31 57  1  0
  1 58  1  0
  2 59  1  6
  3 60  1  0
  3 61  1  0
  4 62  1  0
  4 63  1  0
  5 64  1  0
  5 65  1  0
  6 66  1  0
  6 67  1  0
  7 68  1  0
  8 69  1  0
 10 70  1  1
 11 71  1  0
 11 72  1  0
 12 73  1  1
 13 74  1  6
 14 75  1  6
 15 76  1  0
 15 77  1  0
 16 78  1  6
 17 79  1  0
 17 80  1  0
 18 81  1  0
 19 82  1  0
 19 83  1  0
 20 84  1  6
 21 85  1  0
 22 86  1  0
 22 87  1  0
 23 88  1  1
 24 89  1  6
 25 90  1  6
 26 91  1  0
 27 92  1  0
 27 93  1  0
 28 94  1  1
 29 95  1  0
 29 96  1  0
 30 97  1  6
 31 98  1  1
 32 99  1  0
 32100  1  0
 33101  1  0
 33102  1  0
 34103  1  0
 34104  1  0
 34105  1  0
 35106  1  0
 35107  1  0
 35108  1  0
 36109  1  0
 36110  1  0
 36111  1  0
 37112  1  0
 37113  1  0
 38114  1  0
 38115  1  0
 39116  1  0
 39117  1  0
 39118  1  0
 40119  1  0
 40120  1  0
 40121  1  0
 41122  1  0
 41123  1  0
 41124  1  0
 42125  1  0
 42126  1  0
 42127  1  0
 43128  1  0
 43129  1  0
 43130  1  0
 44131  1  0
 44132  1  0
 44133  1  0
 47134  1  0
 48135  1  0
 49136  1  0
 51137  1  0
 54138  1  0
 55139  1  0
 57140  1  0
M  END
>  <PDBID>  (1) 
1FKF

>  <PDB ID>  (1) 
1FKF

>  <Generic Name>  (1) 
Tacrolimus

>  <Brand Name>  (1) 
Ach-tacrolimus#Advagraf#Astagraf XL#Envarsus XR#Hecoria#Prograf#Protopic#Ran-tacrolimus#Sandoz Tacrolimus#Tacrolimus

>  <DrugBank ID>  (1) 
DB00864

>  <ATC Codes>  (1) 
D11AH01#L04AD02

>  <Ligand ID>  (1) 
FK5

>  <Target Name>  (1) 
Peptidyl-prolyl cis-trans isomerase FKBP1A

>  <UniProt ID>  (1) 
P62942

>  <PDB ID.1>  (1) 
1FKF

>  <Seq. Identity>  (1) 
100%

$$$$
