PDB_DB00307_05
     RDKit          3D

 70 72  0  0  0  0  0  0  0  0999 V2000
    7.3090    0.4957   -0.5081 O   0  0  0  0  0  0  0  0  0  0  0  0
    6.5702    0.2567    0.6486 C   0  0  0  0  0  0  0  0  0  0  0  0
    7.0856   -0.8843    1.2448 O   0  0  0  0  0  0  0  0  0  0  0  0
    5.0903    0.0889    0.3257 C   0  0  0  0  0  0  0  0  0  0  0  0
    4.5422    1.3290   -0.3294 C   0  0  0  0  0  0  0  0  0  0  0  0
    4.2864   -0.1610    1.5562 C   0  0  0  0  0  0  0  0  0  0  0  0
    2.8575   -0.4954    1.0903 C   0  0  0  0  0  0  0  0  0  0  0  0
    2.2396    0.6989    0.5109 C   0  0  0  0  0  0  0  0  0  0  0  0
    3.2624    1.7992    0.2526 C   0  0  0  0  0  0  0  0  0  0  0  0
    1.4111    0.5690   -0.7191 C   0  0  0  0  0  0  0  0  0  0  0  0
    2.1629    0.0079   -1.9009 C   0  0  0  0  0  0  0  0  0  0  0  0
    0.0489   -0.0089   -0.5751 C   0  0  1  0  0  0  0  0  0  0  0  0
   -0.1111   -1.3707   -0.0499 C   0  0  0  0  0  0  0  0  0  0  0  0
   -0.1803   -2.3937   -1.1923 C   0  0  0  0  0  0  0  0  0  0  0  0
   -1.4827   -1.4654    0.6427 C   0  0  0  0  0  0  0  0  0  0  0  0
   -0.8813    0.9382    0.2075 C   0  0  0  0  0  0  0  0  0  0  0  0
   -2.3232    0.6497   -0.2355 C   0  0  0  0  0  0  0  0  0  0  0  0
   -3.2417    1.4401    0.6147 C   0  0  0  0  0  0  0  0  0  0  0  0
   -3.9058    2.5814   -0.1719 C   0  0  0  0  0  0  0  0  0  0  0  0
   -2.4885    2.1453    1.7531 C   0  0  0  0  0  0  0  0  0  0  0  0
   -4.3540    0.6708    1.2589 C   0  0  0  0  0  0  0  0  0  0  0  0
   -4.9105   -0.2702    0.2150 C   0  0  0  0  0  0  0  0  0  0  0  0
   -3.8882   -1.3235   -0.0371 C   0  0  0  0  0  0  0  0  0  0  0  0
   -2.5007   -0.8102   -0.2724 C   0  0  0  0  0  0  0  0  0  0  0  0
   -4.3992   -2.1839   -1.1885 C   0  0  0  0  0  0  0  0  0  0  0  0
   -3.8864   -2.2498    1.1872 C   0  0  0  0  0  0  0  0  0  0  0  0
    7.2884    1.4648   -0.6904 H   0  0  0  0  0  0  0  0  0  0  0  0
    6.6735    1.0951    1.3662 H   0  0  0  0  0  0  0  0  0  0  0  0
    7.0437   -1.6496    0.6157 H   0  0  0  0  0  0  0  0  0  0  0  0
    5.0251   -0.8023   -0.3311 H   0  0  0  0  0  0  0  0  0  0  0  0
    4.5541    1.1678   -1.4113 H   0  0  0  0  0  0  0  0  0  0  0  0
    5.2971    2.1498   -0.1430 H   0  0  0  0  0  0  0  0  0  0  0  0
    4.2866    0.7566    2.1852 H   0  0  0  0  0  0  0  0  0  0  0  0
    4.6802   -0.9824    2.1987 H   0  0  0  0  0  0  0  0  0  0  0  0
    2.9582   -1.3765    0.4598 H   0  0  0  0  0  0  0  0  0  0  0  0
    2.3738   -0.8467    2.0516 H   0  0  0  0  0  0  0  0  0  0  0  0
    1.5530    1.1618    1.2854 H   0  0  0  0  0  0  0  0  0  0  0  0
    3.4769    2.3619    1.2009 H   0  0  0  0  0  0  0  0  0  0  0  0
    2.8060    2.5426   -0.4371 H   0  0  0  0  0  0  0  0  0  0  0  0
    1.2104    1.6534   -1.0167 H   0  0  0  0  0  0  0  0  0  0  0  0
    1.4661   -0.6238   -2.4909 H   0  0  0  0  0  0  0  0  0  0  0  0
    2.9994   -0.6513   -1.6071 H   0  0  0  0  0  0  0  0  0  0  0  0
    2.5206    0.7841   -2.6165 H   0  0  0  0  0  0  0  0  0  0  0  0
   -0.4042    0.0100   -1.6099 H   0  0  0  0  0  0  0  0  0  0  0  0
    0.6015   -1.7081    0.7117 H   0  0  0  0  0  0  0  0  0  0  0  0
   -0.9004   -3.2011   -0.9543 H   0  0  0  0  0  0  0  0  0  0  0  0
   -0.5137   -1.9058   -2.1210 H   0  0  0  0  0  0  0  0  0  0  0  0
    0.8076   -2.8796   -1.3324 H   0  0  0  0  0  0  0  0  0  0  0  0
   -1.4515   -1.0267    1.6426 H   0  0  0  0  0  0  0  0  0  0  0  0
   -1.7192   -2.5613    0.6645 H   0  0  0  0  0  0  0  0  0  0  0  0
   -0.5690    1.9634   -0.1256 H   0  0  0  0  0  0  0  0  0  0  0  0
   -0.7472    0.8519    1.2819 H   0  0  0  0  0  0  0  0  0  0  0  0
   -2.3711    1.0814   -1.2794 H   0  0  0  0  0  0  0  0  0  0  0  0
   -4.1888    2.2080   -1.1978 H   0  0  0  0  0  0  0  0  0  0  0  0
   -4.8149    2.9074    0.3681 H   0  0  0  0  0  0  0  0  0  0  0  0
   -3.2217    3.4511   -0.2654 H   0  0  0  0  0  0  0  0  0  0  0  0
   -1.6849    2.7769    1.3774 H   0  0  0  0  0  0  0  0  0  0  0  0
   -3.2553    2.8458    2.1950 H   0  0  0  0  0  0  0  0  0  0  0  0
   -2.2210    1.4540    2.5576 H   0  0  0  0  0  0  0  0  0  0  0  0
   -5.1663    1.3989    1.5223 H   0  0  0  0  0  0  0  0  0  0  0  0
   -4.0633    0.1644    2.1904 H   0  0  0  0  0  0  0  0  0  0  0  0
   -5.8121   -0.7493    0.6538 H   0  0  0  0  0  0  0  0  0  0  0  0
   -5.1495    0.3337   -0.6773 H   0  0  0  0  0  0  0  0  0  0  0  0
   -2.2167   -1.1619   -1.3106 H   0  0  0  0  0  0  0  0  0  0  0  0
   -4.7815   -1.4763   -1.9543 H   0  0  0  0  0  0  0  0  0  0  0  0
   -3.5784   -2.7779   -1.6328 H   0  0  0  0  0  0  0  0  0  0  0  0
   -5.2341   -2.8209   -0.8289 H   0  0  0  0  0  0  0  0  0  0  0  0
   -3.6277   -3.2607    0.8371 H   0  0  0  0  0  0  0  0  0  0  0  0
   -3.2768   -1.8636    2.0016 H   0  0  0  0  0  0  0  0  0  0  0  0
   -4.9654   -2.3132    1.5097 H   0  0  0  0  0  0  0  0  0  0  0  0
  1  2  1  0
  2  3  1  0
  2  4  1  0
  4  5  1  0
  4  6  1  0
  6  7  1  0
  7  8  1  0
  5  9  1  0
  8  9  1  0
  8 10  1  0
 10 11  1  0
 10 12  1  0
 12 13  1  0
 13 14  1  0
 13 15  1  0
 12 16  1  0
 16 17  1  0
 17 18  1  0
 18 19  1  0
 18 20  1  0
 18 21  1  0
 21 22  1  0
 22 23  1  0
 15 24  1  0
 17 24  1  0
 23 24  1  0
 23 25  1  0
 23 26  1  0
  1 27  1  0
  2 28  1  0
  3 29  1  0
  4 30  1  0
  5 31  1  0
  5 32  1  0
  6 33  1  0
  6 34  1  0
  7 35  1  0
  7 36  1  0
  8 37  1  0
  9 38  1  0
  9 39  1  0
 10 40  1  0
 11 41  1  0
 11 42  1  0
 11 43  1  0
 12 44  1  6
 13 45  1  0
 14 46  1  0
 14 47  1  0
 14 48  1  0
 15 49  1  0
 15 50  1  0
 16 51  1  0
 16 52  1  0
 17 53  1  0
 19 54  1  0
 19 55  1  0
 19 56  1  0
 20 57  1  0
 20 58  1  0
 20 59  1  0
 21 60  1  0
 21 61  1  0
 22 62  1  0
 22 63  1  0
 24 64  1  0
 25 65  1  0
 25 66  1  0
 25 67  1  0
 26 68  1  0
 26 69  1  0
 26 70  1  0
M  END
>  <PDBID>  (1) 
3H0A

>  <PDB ID>  (1) 
3H0A

>  <Generic Name>  (1) 
Bexarotene

>  <Brand Name>  (1) 
Bexarotene#Targretin

>  <DrugBank ID>  (1) 
DB00307

>  <ATC Codes>  (1) 
L01XX25

>  <Ligand ID>  (1) 
9RA

>  <Target Name>  (1) 
Retinoic acid receptor RXR-beta

>  <UniProt ID>  (1) 
P28702

>  <PDB ID.1>  (1) 
3H0A

>  <Seq. Identity>  (1) 
87%

$$$$
