PDB_DB00284_02
     RDKit          3D

 89 92  0  0  0  0  0  0  0  0999 V2000
    5.8881    0.1108   -0.7134 C   0  0  2  0  0  0  0  0  0  0  0  0
    6.1538    1.5630   -0.7199 C   0  0  1  0  0  0  0  0  0  0  0  0
    7.7021    1.7548   -0.7511 C   0  0  2  0  0  0  0  0  0  0  0  0
    8.3169    0.7642    0.2386 C   0  0  1  0  0  0  0  0  0  0  0  0
    8.1973   -0.6431   -0.3519 C   0  0  0  0  0  0  0  0  0  0  0  0
    8.0756   -1.6120    0.7727 C   0  0  0  0  0  0  0  0  0  0  0  0
    7.0732   -0.6787   -1.3328 C   0  0  0  0  0  0  0  0  0  0  0  0
    5.7045    2.2341   -1.8631 O   0  0  0  0  0  0  0  0  0  0  0  0
    8.0046    3.0496   -0.3448 O   0  0  0  0  0  0  0  0  0  0  0  0
    9.6474    1.0552    0.4090 O   0  0  0  0  0  0  0  0  0  0  0  0
    7.9575   -2.9300    0.3022 O   0  0  0  0  0  0  0  0  0  0  0  0
    0.7042   -0.2911   -0.2827 C   0  0  2  0  0  0  0  0  0  0  0  0
    1.4863    0.8263    0.3083 C   0  0  1  0  0  0  0  0  0  0  0  0
    2.6967    1.0975   -0.6205 C   0  0  2  0  0  0  0  0  0  0  0  0
    3.4441   -0.1746   -0.7438 C   0  0  1  0  0  0  0  0  0  0  0  0
    2.4619   -1.1611   -1.4851 C   0  0  1  0  0  0  0  0  0  0  0  0
    2.6444   -2.5530   -0.9373 C   0  0  0  0  0  0  0  0  0  0  0  0
    4.6980   -0.3341   -1.2258 N   0  0  0  0  0  0  0  0  0  0  0  0
    0.7527    1.9982    0.4721 O   0  0  0  0  0  0  0  0  0  0  0  0
    3.3893    2.1213   -0.0175 O   0  0  0  0  0  0  0  0  0  0  0  0
    1.1887   -0.6979   -1.5175 O   0  0  0  0  0  0  0  0  0  0  0  0
   -4.3508   -0.4793    0.6506 C   0  0  2  0  0  0  0  0  0  0  0  0
   -3.4941    0.0409    1.7454 C   0  0  1  0  0  0  0  0  0  0  0  0
   -2.0945    0.4003    1.3035 C   0  0  2  0  0  0  0  0  0  0  0  0
   -1.5042   -0.5986    0.3405 C   0  0  1  0  0  0  0  0  0  0  0  0
   -2.5016   -1.2817   -0.5282 C   0  0  1  0  0  0  0  0  0  0  0  0
   -2.6238   -2.7640   -0.2544 C   0  0  0  0  0  0  0  0  0  0  0  0
   -4.0883    1.1141    2.3981 O   0  0  0  0  0  0  0  0  0  0  0  0
   -1.2509    0.6158    2.3935 O   0  0  0  0  0  0  0  0  0  0  0  0
   -0.6059    0.1449   -0.4589 O   0  0  0  0  0  0  0  0  0  0  0  0
   -3.7052   -0.6107   -0.5653 O   0  0  0  0  0  0  0  0  0  0  0  0
   -3.2137   -3.0772    0.9413 O   0  0  0  0  0  0  0  0  0  0  0  0
   -7.6417    2.1745   -0.1821 C   0  0  1  0  0  0  0  0  0  0  0  0
   -8.0322    1.8373    1.2331 C   0  0  1  0  0  0  0  0  0  0  0  0
   -7.4459    0.5601    1.7394 C   0  0  2  0  0  0  0  0  0  0  0  0
   -6.6454   -0.0981    0.6432 C   0  0  1  0  0  0  0  0  0  0  0  0
   -7.3864   -0.0826   -0.6766 C   0  0  1  0  0  0  0  0  0  0  0  0
   -8.6044   -1.0123   -0.6473 C   0  0  0  0  0  0  0  0  0  0  0  0
   -6.3817    2.7835   -0.1963 O   0  0  0  0  0  0  0  0  0  0  0  0
   -7.5688    2.8815    2.0392 O   0  0  0  0  0  0  0  0  0  0  0  0
   -8.4407   -0.3398    2.1655 O   0  0  0  0  0  0  0  0  0  0  0  0
   -5.3952    0.4296    0.4481 O   0  0  0  0  0  0  0  0  0  0  0  0
   -7.7750    1.1628   -1.0862 O   0  0  0  0  0  0  0  0  0  0  0  0
   -9.0915   -1.0279   -1.9685 O   0  0  0  0  0  0  0  0  0  0  0  0
    6.0133   -0.1908    0.4082 H   0  0  0  0  0  0  0  0  0  0  0  0
    5.8724    2.0335    0.2192 H   0  0  0  0  0  0  0  0  0  0  0  0
    8.0590    1.6000   -1.7802 H   0  0  0  0  0  0  0  0  0  0  0  0
    7.7358    0.8661    1.1740 H   0  0  0  0  0  0  0  0  0  0  0  0
    9.1432   -0.8181   -0.9272 H   0  0  0  0  0  0  0  0  0  0  0  0
    7.2593   -1.3528    1.4591 H   0  0  0  0  0  0  0  0  0  0  0  0
    9.0154   -1.6118    1.3787 H   0  0  0  0  0  0  0  0  0  0  0  0
    7.3025   -0.2139   -2.2949 H   0  0  0  0  0  0  0  0  0  0  0  0
    6.6692   -1.6927   -1.5187 H   0  0  0  0  0  0  0  0  0  0  0  0
    6.2448    3.0838   -1.8911 H   0  0  0  0  0  0  0  0  0  0  0  0
    7.3866    3.2802    0.4047 H   0  0  0  0  0  0  0  0  0  0  0  0
    9.7714    1.7730    1.0850 H   0  0  0  0  0  0  0  0  0  0  0  0
    8.6618   -3.1122   -0.3882 H   0  0  0  0  0  0  0  0  0  0  0  0
    0.6823   -1.1272    0.4549 H   0  0  0  0  0  0  0  0  0  0  0  0
    1.9215    0.5550    1.2891 H   0  0  0  0  0  0  0  0  0  0  0  0
    2.2516    1.4449   -1.5889 H   0  0  0  0  0  0  0  0  0  0  0  0
    3.3784   -0.6383    0.3372 H   0  0  0  0  0  0  0  0  0  0  0  0
    2.8674   -1.1685   -2.5279 H   0  0  0  0  0  0  0  0  0  0  0  0
    1.6983   -3.1141   -0.9592 H   0  0  0  0  0  0  0  0  0  0  0  0
    3.3596   -3.1564   -1.5545 H   0  0  0  0  0  0  0  0  0  0  0  0
    3.1006   -2.4701    0.0804 H   0  0  0  0  0  0  0  0  0  0  0  0
    4.7497   -0.8022   -2.1804 H   0  0  0  0  0  0  0  0  0  0  0  0
    1.2170    2.5455    1.1835 H   0  0  0  0  0  0  0  0  0  0  0  0
    3.1519    2.9849   -0.4513 H   0  0  0  0  0  0  0  0  0  0  0  0
   -4.8635   -1.4351    0.9489 H   0  0  0  0  0  0  0  0  0  0  0  0
   -3.3713   -0.7764    2.5068 H   0  0  0  0  0  0  0  0  0  0  0  0
   -2.1760    1.3703    0.7705 H   0  0  0  0  0  0  0  0  0  0  0  0
   -0.9597   -1.3842    0.9262 H   0  0  0  0  0  0  0  0  0  0  0  0
   -2.1129   -1.2281   -1.5911 H   0  0  0  0  0  0  0  0  0  0  0  0
   -3.1886   -3.2070   -1.0913 H   0  0  0  0  0  0  0  0  0  0  0  0
   -1.5842   -3.1633   -0.2758 H   0  0  0  0  0  0  0  0  0  0  0  0
   -4.0526    0.9857    3.3735 H   0  0  0  0  0  0  0  0  0  0  0  0
   -1.2337   -0.2148    2.9671 H   0  0  0  0  0  0  0  0  0  0  0  0
   -3.9487   -3.7565    0.8093 H   0  0  0  0  0  0  0  0  0  0  0  0
   -8.3501    2.9957   -0.5033 H   0  0  0  0  0  0  0  0  0  0  0  0
   -9.1562    1.8520    1.3344 H   0  0  0  0  0  0  0  0  0  0  0  0
   -6.7771    0.6959    2.6106 H   0  0  0  0  0  0  0  0  0  0  0  0
   -6.5260   -1.1718    0.9282 H   0  0  0  0  0  0  0  0  0  0  0  0
   -6.6988   -0.5075   -1.4371 H   0  0  0  0  0  0  0  0  0  0  0  0
   -9.3735   -0.6912    0.0532 H   0  0  0  0  0  0  0  0  0  0  0  0
   -8.2335   -2.0499   -0.4277 H   0  0  0  0  0  0  0  0  0  0  0  0
   -6.4030    3.6723    0.2053 H   0  0  0  0  0  0  0  0  0  0  0  0
   -7.1608    2.5467    2.8754 H   0  0  0  0  0  0  0  0  0  0  0  0
   -7.9436   -1.2046    2.3158 H   0  0  0  0  0  0  0  0  0  0  0  0
   -9.7454   -0.2984   -2.1152 H   0  0  0  0  0  0  0  0  0  0  0  0
  1  2  1  0
  2  3  1  0
  3  4  1  0
  4  5  1  0
  5  6  1  0
  1  7  1  0
  5  7  1  0
  2  8  1  0
  3  9  1  0
  4 10  1  0
  6 11  1  0
 12 13  1  0
 13 14  1  0
 14 15  1  0
 15 16  1  0
 16 17  1  0
  1 18  1  0
 15 18  1  0
 13 19  1  0
 14 20  1  0
 12 21  1  0
 16 21  1  0
 22 23  1  0
 23 24  1  0
 24 25  1  0
 25 26  1  0
 26 27  1  0
 23 28  1  0
 24 29  1  0
 12 30  1  0
 25 30  1  0
 22 31  1  0
 26 31  1  0
 27 32  1  0
 33 34  1  0
 34 35  1  0
 35 36  1  0
 36 37  1  0
 37 38  1  0
 33 39  1  0
 34 40  1  0
 35 41  1  0
 22 42  1  0
 36 42  1  0
 33 43  1  0
 37 43  1  0
 38 44  1  0
  1 45  1  1
  2 46  1  1
  3 47  1  6
  4 48  1  1
  5 49  1  0
  6 50  1  0
  6 51  1  0
  7 52  1  0
  7 53  1  0
  8 54  1  0
  9 55  1  0
 10 56  1  0
 11 57  1  0
 12 58  1  1
 13 59  1  1
 14 60  1  6
 15 61  1  1
 16 62  1  6
 17 63  1  0
 17 64  1  0
 17 65  1  0
 18 66  1  0
 19 67  1  0
 20 68  1  0
 22 69  1  1
 23 70  1  1
 24 71  1  6
 25 72  1  1
 26 73  1  6
 27 74  1  0
 27 75  1  0
 28 76  1  0
 29 77  1  0
 32 78  1  0
 33 79  1  6
 34 80  1  6
 35 81  1  1
 36 82  1  1
 37 83  1  6
 38 84  1  0
 38 85  1  0
 39 86  1  0
 40 87  1  0
 41 88  1  0
 44 89  1  0
M  END
>  <PDBID>  (1) 
2QMJ

>  <PDB ID>  (1) 
2QMJ

>  <Generic Name>  (1) 
Acarbose

>  <Brand Name>  (1) 
Acarbose#Glucobay#Precose#Prandase

>  <DrugBank ID>  (1) 
DB00284

>  <ATC Codes>  (1) 
A10BF01#A10BD17

>  <Ligand ID>  (1) 
ACR,QPS

>  <Target Name>  (1) 
Maltase-glucoamylase, intestinal

>  <UniProt ID>  (1) 
O43451

>  <PDB ID.1>  (1) 
2QMJ

>  <Seq. Identity>  (1) 
99%

$$$$
