PDB_DB00668_03
     RDKit          3D

 32 32  0  0  0  0  0  0  0  0999 V2000
    0.1298    0.5024   -0.0002 C   0  0  0  0  0  0  0  0  0  0  0  0
    0.8859   -0.1476   -1.0926 C   0  0  0  0  0  0  0  0  0  0  0  0
    2.1149   -0.8946   -0.6915 C   0  0  0  0  0  0  0  0  0  0  0  0
    2.9442    0.0457    0.1405 C   0  0  0  0  0  0  0  0  0  0  0  0
    2.2129    0.2315    1.4359 C   0  0  0  0  0  0  0  0  0  0  0  0
    0.7788    0.5776    1.3291 C   0  0  0  0  0  0  0  0  0  0  0  0
    2.8456   -1.1509   -1.8628 O   0  0  0  0  0  0  0  0  0  0  0  0
    4.1362   -0.6335    0.4407 O   0  0  0  0  0  0  0  0  0  0  0  0
   -1.8603    0.5375    1.2021 O   0  0  0  0  0  0  0  0  0  0  0  0
   -4.1103    0.2514    0.2383 C   0  0  0  0  0  0  0  0  0  0  0  0
   -3.3973   -0.6472   -0.6418 N   0  0  0  0  0  0  0  0  0  0  0  0
   -2.0865   -0.1140   -1.0225 C   0  0  0  0  0  0  0  0  0  0  0  0
   -1.2282   -0.1988    0.1921 C   0  0  1  0  0  0  0  0  0  0  0  0
   -0.1536    1.5254   -0.3580 H   0  0  0  0  0  0  0  0  0  0  0  0
    0.2529   -0.8770   -1.6599 H   0  0  0  0  0  0  0  0  0  0  0  0
    1.2117    0.5919   -1.8783 H   0  0  0  0  0  0  0  0  0  0  0  0
    1.9242   -1.8573   -0.2027 H   0  0  0  0  0  0  0  0  0  0  0  0
    3.1195    0.9697   -0.4241 H   0  0  0  0  0  0  0  0  0  0  0  0
    2.3693   -0.7195    2.0135 H   0  0  0  0  0  0  0  0  0  0  0  0
    2.7998    0.9935    2.0146 H   0  0  0  0  0  0  0  0  0  0  0  0
    0.6644    1.6265    1.7204 H   0  0  0  0  0  0  0  0  0  0  0  0
    0.2324   -0.0367    2.0965 H   0  0  0  0  0  0  0  0  0  0  0  0
    2.2368   -1.3524   -2.6196 H   0  0  0  0  0  0  0  0  0  0  0  0
    4.8814   -0.3095   -0.1080 H   0  0  0  0  0  0  0  0  0  0  0  0
   -1.4729    1.4213    1.3434 H   0  0  0  0  0  0  0  0  0  0  0  0
   -5.1848    0.2175   -0.0955 H   0  0  0  0  0  0  0  0  0  0  0  0
   -4.1198   -0.1020    1.2841 H   0  0  0  0  0  0  0  0  0  0  0  0
   -3.8098    1.3110    0.1334 H   0  0  0  0  0  0  0  0  0  0  0  0
   -3.2531   -1.5445   -0.1312 H   0  0  0  0  0  0  0  0  0  0  0  0
   -2.1879    0.8935   -1.4382 H   0  0  0  0  0  0  0  0  0  0  0  0
   -1.7617   -0.7714   -1.8602 H   0  0  0  0  0  0  0  0  0  0  0  0
   -1.1145   -1.2395    0.5024 H   0  0  0  0  0  0  0  0  0  0  0  0
  1  2  1  0
  2  3  1  0
  3  4  1  0
  4  5  1  0
  1  6  1  0
  5  6  1  0
  3  7  1  0
  4  8  1  0
 10 11  1  0
 11 12  1  0
  1 13  1  0
  9 13  1  0
 12 13  1  0
  1 14  1  0
  2 15  1  0
  2 16  1  0
  3 17  1  0
  4 18  1  0
  5 19  1  0
  5 20  1  0
  6 21  1  0
  6 22  1  0
  7 23  1  0
  8 24  1  0
  9 25  1  0
 10 26  1  0
 10 27  1  0
 10 28  1  0
 11 29  1  0
 12 30  1  0
 12 31  1  0
 13 32  1  1
M  END
>  <PDBID>  (1) 
4LDO

>  <PDB ID>  (1) 
4LDO

>  <Generic Name>  (1) 
Epinephrine

>  <Brand Name>  (1) 
2% Lidocaine and Epinephrine 1:100,000 Injection USP#4% Astracaine Dental With Epinephrine 1:200,000 (0.005mg/ml)#4% Astracaine Dental With Epinephrine Forte 1:100,000 (0.01mg/ml)#4% Citanest Forte Dental With Epinephrine 1:200,000#Adrenaclick#Adrenaclick 0.15mg Auto-injector#Adrenaclick 0.30mg Auto-injector#Adrenalin#Adrenalin Chloride Sol 1:1000#Adrenalin Chloride Sol 1:1000 Amp#Adyphren Amp II Kit#Adyphren Amp Kit#Adyphren II Kit#Allerject#Ana-kit#Ana-kit (2mg/tab Orl, 1mg/ml Liq Sc Im)#Anakit Insect Sting Treatment Kit#Anapen#Anapen Junior#Articadent#Articaine#Articaine HCl and Epinephrine#Articaine Hydrochloride and Epinephrine#Auvi-Q#Bronkaid Mistometer Aem 0.5%#Bupivacaine HCl 0.5% and Epinephrine 1:200,000 Injection#Bupivacaine Hydrochloride and Epinephrine#Citanest Forte#Dentsply 2% Lidocaine With Epinephrine 1:100,000#Dentsply 2% Lidocaine With Epinephrine 1:50,000#Dentsply 4% Prilocaine and Epinephrine Injection 1:200,000#Dysne Inhal#E-pilo 1 Ophthalmic Solution#E-pilo 2 Ophthalmic Solution#E-pilo 4 Ophthalmic Solution#E-pilo 6 Ophthalmic Solution#E-pilo-1 Oph Soln#E-pilo-2 Oph Soln#E-pilo-4 Oph Soln#E-pilo-6 Oph Soln#Ephinephrine#Epi E-Z Pen  -  Liquid - 0.3mg/0.3ml#Epinephrine#Epinephrine 1:1000 Inj 1mg/ml USP#Epinephrine Inj 0.1mg/ml USP#Epinephrine Inj 1mg/ml USP#Epinephrine Injection#Epinephrine Injection USP#Epinephrine Injection USP 1 mg/ml#Epipen#Epipen Jr#Episnap Epinephrine Convenience Kit#Gingi Pak Cord No 1#Karticaine#Karticaine Forte#Lidocaine#Lidocaine 2% and Epinephrine 1:100 000#Lidocaine 2% and Epinephrine 1:100,000#Lidocaine 2% and Epinephrine 1:100,000 Injection#Lidocaine 2% and Epinephrine 1:50 000#Lidocaine 2% and Epinephrine 1:50,000#Lidocaine HCl#Lidocaine Hydrochloride 0.5% and Epinephrine 1:200000 Injection USP#Lidocaine Hydrochloride 1% and Epinephrine 1:100 000 Injection USP#Lidocaine Hydrochloride 1.5% and Epinephrine 1:200000 Injection USP#Lidocaine Hydrochloride 1.5% and Epinephrine 1:200000 Injection USP Test Dose#Lidocaine Hydrochloride 2% and Epinephrine 1:100 000 Injection USP#Lidocaine Hydrochloride 2% and Epinephrine 1:200000 Injection USP#Lidocaine Hydrochloride and Epinephrine#Lidocaine Hydrochloride and Epinephrine Bitartrate#Lidocaine and Epinephrine Inj.usp 2% 1:100000#Lignospan Forte#Lignospan Speciale Inj#Lignospan Standard#Marcaine#Marcaine 0.5% and Epinephrine 1:200,000 Liq#Marcaine E 0.25% Liq Prt#Marcaine E 2.5 mg/ml#Marcaine E 5.0 mg/ml#Marcaine E Liq Prt 0.50%#Marcaine With Epinephrine#Numbing Hemorrhoidal Label#Numquick Analgesic#Numquick Topical Analgesic#Octocaine 100#Octocaine 100 Needleject Inj#Octocaine 50#Octocaine HCl 2% Epinephrine 1:100000#Octocaine HCl 2% Epinephrine 1:50000#Orabloc#Orabloc 1:100,000#Orabloc 1:200,000#Posicaine N#Posicaine Sp#Prilocaine HCl 4% Epineph 1:200000inj#Prilocaine Hydrochloride With Epinephrine#Prime Asthma Relief#Scandonest 2% Special Inj#Sensorcaine#Sensorcaine 0.25% With Epinephrine#Sensorcaine 0.5% With Epinephrine#Sensorcaine Forte#Sensorcaine Mpf#Septanest N#Septanest Sp#Septocaine and Epinephrine#Taro-epinephrine Auto-injector#Twinject 0.15mg Auto-injector#Twinject 0.3mg Auto-injector#Ultracaine D-S Forte Injection#Ultracaine D-S Injection#Ultracaine DS Forte Inj#Ultracaine DS Inj#Vivacaine#Xylocaine#Xylocaine 0.5% W Epinephrine 1:100000#Xylocaine 0.5% W Epinephrine 1:200000#Xylocaine 1% W Epinephrine 1:100000#Xylocaine 1% W Epinephrine 1:200000#Xylocaine 1.5% W Epinephrine 1:200000#Xylocaine 1.5% W Epinephrine 1:200000 Test Dose#Xylocaine 2% W Epinephrine 1:100000#Xylocaine 2% W Epinephrine 1:200000#Xylocaine Dental Lidocaine HCl 2% and Epinephrine 1:100,000#Xylocaine Dental Lidocaine Hydrochloride 2% and Epinephrine 1:50,000#Xylocaine Mpf#Xylocaine Mpf 1.5% With Epinephrine#Zorcaine#Epi EZ Pen JR#Medihaler-Epi#Twinject

>  <DrugBank ID>  (1) 
DB00668

>  <ATC Codes>  (1) 
R03AK01#R01AA14#S01EA51#C01CA24#R03AA01#S01EA01#A01AD01#B02BC09

>  <Ligand ID>  (1) 
ALE

>  <Target Name>  (1) 
Beta-1 adrenergic receptor

>  <UniProt ID>  (1) 
P08588

>  <PDB ID.1>  (1) 
4LDO

>  <Seq. Identity>  (1) 
54%

$$$$
