PDB_DB00428_00
     RDKit          3D

 37 37  0  0  0  0  0  0  0  0999 V2000
   -0.1948   -1.6506   -1.5420 O   0  0  0  0  0  0  0  0  0  0  0  0
   -0.7421   -0.6121   -0.7833 C   0  0  1  0  0  0  0  0  0  0  0  0
   -2.1981   -0.8791   -0.4681 C   0  0  2  0  0  0  0  0  0  0  0  0
   -2.9419   -1.0457   -1.6433 O   0  0  0  0  0  0  0  0  0  0  0  0
   -2.7143    0.3522    0.2458 C   0  0  1  0  0  0  0  0  0  0  0  0
   -4.2166    0.2931    0.4242 C   0  0  0  0  0  0  0  0  0  0  0  0
   -4.5977   -0.7059    1.3168 O   0  0  0  0  0  0  0  0  0  0  0  0
   -2.0413    0.6043    1.4120 O   0  0  0  0  0  0  0  0  0  0  0  0
   -0.9695   -0.2240    1.6451 C   0  0  1  0  0  0  0  0  0  0  0  0
   -1.3046   -1.4346    2.2468 O   0  0  0  0  0  0  0  0  0  0  0  0
   -0.0128   -0.3726    0.4875 C   0  0  2  0  0  0  0  0  0  0  0  0
    0.9504    0.7028    0.4525 N   0  0  0  0  0  0  0  0  0  0  0  0
    1.9997    0.3972   -0.4908 C   0  0  0  0  0  0  0  0  0  0  0  0
    1.5609    0.2500   -1.7820 O   0  0  0  0  0  0  0  0  0  0  0  0
    3.0633    1.3905   -0.4468 N   0  0  0  0  0  0  0  0  0  0  0  0
    4.0614    0.9842   -1.4194 C   0  0  0  0  0  0  0  0  0  0  0  0
    3.7007    1.3928    0.8105 N   0  0  0  0  0  0  0  0  0  0  0  0
    3.6691    0.1417    1.3507 O   0  0  0  0  0  0  0  0  0  0  0  0
   -0.4658   -1.4681   -2.4862 H   0  0  0  0  0  0  0  0  0  0  0  0
   -0.7195    0.3472   -1.3748 H   0  0  0  0  0  0  0  0  0  0  0  0
   -2.3011   -1.7526    0.1980 H   0  0  0  0  0  0  0  0  0  0  0  0
   -2.6427   -1.8812   -2.0688 H   0  0  0  0  0  0  0  0  0  0  0  0
   -2.5211    1.2140   -0.4457 H   0  0  0  0  0  0  0  0  0  0  0  0
   -4.5776    1.2755    0.7907 H   0  0  0  0  0  0  0  0  0  0  0  0
   -4.6553    0.1492   -0.5866 H   0  0  0  0  0  0  0  0  0  0  0  0
   -5.3639   -1.1909    0.8851 H   0  0  0  0  0  0  0  0  0  0  0  0
   -0.3566    0.3157    2.4375 H   0  0  0  0  0  0  0  0  0  0  0  0
   -0.7235   -1.6452    3.0161 H   0  0  0  0  0  0  0  0  0  0  0  0
    0.5452   -1.3374    0.7079 H   0  0  0  0  0  0  0  0  0  0  0  0
    1.3742    0.8143    1.3987 H   0  0  0  0  0  0  0  0  0  0  0  0
    2.4852   -0.5485   -0.1048 H   0  0  0  0  0  0  0  0  0  0  0  0
    2.1560   -0.3879   -2.2546 H   0  0  0  0  0  0  0  0  0  0  0  0
    5.0178    1.4873   -1.2218 H   0  0  0  0  0  0  0  0  0  0  0  0
    4.1482   -0.1372   -1.3215 H   0  0  0  0  0  0  0  0  0  0  0  0
    3.6840    1.1492   -2.4593 H   0  0  0  0  0  0  0  0  0  0  0  0
    3.2602    2.0548    1.4617 H   0  0  0  0  0  0  0  0  0  0  0  0
    4.5844   -0.1087    1.6123 H   0  0  0  0  0  0  0  0  0  0  0  0
  1  2  1  0
  2  3  1  0
  3  4  1  0
  3  5  1  0
  5  6  1  0
  6  7  1  0
  5  8  1  0
  8  9  1  0
  9 10  1  0
  2 11  1  0
  9 11  1  0
 11 12  1  0
 12 13  1  0
 13 14  1  0
 13 15  1  0
 15 16  1  0
 15 17  1  0
 17 18  1  0
  1 19  1  0
  2 20  1  6
  3 21  1  1
  4 22  1  0
  5 23  1  6
  6 24  1  0
  6 25  1  0
  7 26  1  0
  9 27  1  1
 10 28  1  0
 11 29  1  1
 12 30  1  0
 13 31  1  0
 14 32  1  0
 16 33  1  0
 16 34  1  0
 16 35  1  0
 17 36  1  0
 18 37  1  0
M  END
>  <PDBID>  (1) 
2W4X

>  <PDB ID>  (1) 
2W4X

>  <Generic Name>  (1) 
Streptozocin

>  <Brand Name>  (1) 
Zanosar#Zanosar Sterile Powder

>  <DrugBank ID>  (1) 
DB00428

>  <ATC Codes>  (1) 
L01AD04

>  <Ligand ID>  (1) 
STZ

>  <Target Name>  (1) 
O-GlcNAcase BT_4395

>  <UniProt ID>  (1) 
Q89ZI2

>  <PDB ID.1>  (1) 
2W4X

>  <Seq. Identity>  (1) 
100%

$$$$
