PDB_DB01268_02
     RDKit          3D

 72 74  0  0  0  0  0  0  0  0999 V2000
   -0.6102   -3.3143   -0.2264 C   0  0  0  0  0  0  0  0  0  0  0  0
   -6.6486   -0.4595   -0.9186 C   0  0  0  0  0  0  0  0  0  0  0  0
   -6.6960    0.3039    0.3749 C   0  0  0  0  0  0  0  0  0  0  0  0
   -4.2768    0.2551   -1.4023 C   0  0  0  0  0  0  0  0  0  0  0  0
    0.3427   -0.1282    0.4172 C   0  0  0  0  0  0  0  0  0  0  0  0
   -5.7113    0.1952   -1.9046 C   0  0  0  0  0  0  0  0  0  0  0  0
   -4.1973    0.4464    0.0964 C   0  0  0  0  0  0  0  0  0  0  0  0
   -3.1909    1.4346    0.5497 C   0  0  0  0  0  0  0  0  0  0  0  0
   -3.8266    1.9276    1.8771 C   0  0  0  0  0  0  0  0  0  0  0  0
    1.8519   -2.0954   -0.1290 C   0  0  0  0  0  0  0  0  0  0  0  0
    0.1918   -0.5730    1.8333 C   0  0  0  0  0  0  0  0  0  0  0  0
   -1.8378    0.9611    0.9244 C   0  0  0  0  0  0  0  0  0  0  0  0
   -0.5417   -1.9257   -0.8236 C   0  0  0  0  0  0  0  0  0  0  0  0
   -5.4945    1.2039    0.4454 C   0  0  0  0  0  0  0  0  0  0  0  0
   -1.0486    0.2511   -0.1202 C   0  0  0  0  0  0  0  0  0  0  0  0
    0.7493   -1.2052   -0.5239 C   0  0  0  0  0  0  0  0  0  0  0  0
   -1.5848   -1.0935   -0.3245 N   0  0  0  0  0  0  0  0  0  0  0  0
   -5.2350    1.6973    1.7652 N   0  0  0  0  0  0  0  0  0  0  0  0
    3.1248   -1.4880    0.0864 N   0  0  0  0  0  0  0  0  0  0  0  0
   -3.3251    1.0786    2.8977 O   0  0  0  0  0  0  0  0  0  0  0  0
    1.9333   -3.1179   -1.1095 O   0  0  0  0  0  0  0  0  0  0  0  0
   -6.2051    1.4029   -2.3084 F   0  0  0  0  0  0  0  0  0  0  0  0
    3.6511   -0.8552   -1.0997 C   0  0  0  0  0  0  0  0  0  0  0  0
    5.0869   -0.4425   -0.9404 C   0  0  0  0  0  0  0  0  0  0  0  0
    5.3835    0.4707    0.0940 N   0  0  0  0  0  0  0  0  0  0  0  0
    4.8905    1.7830   -0.0998 C   0  0  0  0  0  0  0  0  0  0  0  0
    6.7440    0.3413    0.5072 C   0  0  0  0  0  0  0  0  0  0  0  0
    7.7661    0.7560   -0.5035 C   0  0  0  0  0  0  0  0  0  0  0  0
    5.2344    2.7095    1.0517 C   0  0  0  0  0  0  0  0  0  0  0  0
   -1.7201   -3.5360   -0.1779 H   0  0  0  0  0  0  0  0  0  0  0  0
   -0.2713   -3.3800    0.8065 H   0  0  0  0  0  0  0  0  0  0  0  0
   -0.2052   -4.0394   -0.9316 H   0  0  0  0  0  0  0  0  0  0  0  0
   -7.6443   -0.4622   -1.3780 H   0  0  0  0  0  0  0  0  0  0  0  0
   -6.3802   -1.5297   -0.7444 H   0  0  0  0  0  0  0  0  0  0  0  0
   -7.6024    0.9504    0.3648 H   0  0  0  0  0  0  0  0  0  0  0  0
   -6.7823   -0.3700    1.2396 H   0  0  0  0  0  0  0  0  0  0  0  0
   -3.7888    1.1444   -1.8467 H   0  0  0  0  0  0  0  0  0  0  0  0
   -3.8272   -0.6960   -1.7538 H   0  0  0  0  0  0  0  0  0  0  0  0
    0.9869    0.7802    0.3572 H   0  0  0  0  0  0  0  0  0  0  0  0
   -5.7647   -0.4721   -2.8254 H   0  0  0  0  0  0  0  0  0  0  0  0
   -4.1819   -0.5014    0.6621 H   0  0  0  0  0  0  0  0  0  0  0  0
   -3.1588    2.3011   -0.1574 H   0  0  0  0  0  0  0  0  0  0  0  0
   -3.5236    2.9484    2.1155 H   0  0  0  0  0  0  0  0  0  0  0  0
    1.6193   -2.6625    0.8152 H   0  0  0  0  0  0  0  0  0  0  0  0
   -0.6404   -1.2657    1.9882 H   0  0  0  0  0  0  0  0  0  0  0  0
    1.1232   -1.0334    2.2397 H   0  0  0  0  0  0  0  0  0  0  0  0
    0.0185    0.3155    2.4715 H   0  0  0  0  0  0  0  0  0  0  0  0
   -1.2529    1.8471    1.2357 H   0  0  0  0  0  0  0  0  0  0  0  0
   -1.8897    0.3191    1.8407 H   0  0  0  0  0  0  0  0  0  0  0  0
   -0.6433   -2.0599   -1.9194 H   0  0  0  0  0  0  0  0  0  0  0  0
   -5.5732    2.0457   -0.2538 H   0  0  0  0  0  0  0  0  0  0  0  0
   -0.8866    0.7982   -1.0427 H   0  0  0  0  0  0  0  0  0  0  0  0
    1.0733   -0.6860   -1.4832 H   0  0  0  0  0  0  0  0  0  0  0  0
   -2.0324   -1.4545    0.5435 H   0  0  0  0  0  0  0  0  0  0  0  0
   -5.7232    2.6133    1.8767 H   0  0  0  0  0  0  0  0  0  0  0  0
    3.8215   -2.1838    0.4409 H   0  0  0  0  0  0  0  0  0  0  0  0
   -3.8552    0.2219    2.8510 H   0  0  0  0  0  0  0  0  0  0  0  0
    1.6194   -2.7940   -1.9976 H   0  0  0  0  0  0  0  0  0  0  0  0
    3.5727   -1.5450   -1.9656 H   0  0  0  0  0  0  0  0  0  0  0  0
    3.0046    0.0332   -1.3390 H   0  0  0  0  0  0  0  0  0  0  0  0
    5.4615   -0.0990   -1.9509 H   0  0  0  0  0  0  0  0  0  0  0  0
    5.6586   -1.3960   -0.7332 H   0  0  0  0  0  0  0  0  0  0  0  0
    5.2029    2.2008   -1.0658 H   0  0  0  0  0  0  0  0  0  0  0  0
    3.7715    1.7307   -0.1441 H   0  0  0  0  0  0  0  0  0  0  0  0
    6.8973   -0.7545    0.7371 H   0  0  0  0  0  0  0  0  0  0  0  0
    6.9311    0.8389    1.4972 H   0  0  0  0  0  0  0  0  0  0  0  0
    7.2266    0.9221   -1.4584 H   0  0  0  0  0  0  0  0  0  0  0  0
    8.4883   -0.0933   -0.6869 H   0  0  0  0  0  0  0  0  0  0  0  0
    8.3961    1.6130   -0.2101 H   0  0  0  0  0  0  0  0  0  0  0  0
    5.4137    2.1362    1.9883 H   0  0  0  0  0  0  0  0  0  0  0  0
    4.4249    3.4282    1.2729 H   0  0  0  0  0  0  0  0  0  0  0  0
    6.1158    3.3062    0.7405 H   0  0  0  0  0  0  0  0  0  0  0  0
  2  3  1  0
  2  6  1  0
  4  6  1  0
  4  7  1  0
  7  8  1  0
  8  9  1  0
  5 11  1  0
  8 12  1  0
  1 13  1  0
  3 14  1  0
  7 14  1  0
  5 15  1  0
 12 15  1  0
  5 16  1  0
 10 16  1  0
 13 16  1  0
 13 17  1  0
 15 17  1  0
  9 18  1  0
 14 18  1  0
 10 19  1  0
  9 20  1  0
 10 21  1  0
  6 22  1  0
 19 23  1  0
 23 24  1  0
 24 25  1  0
 25 26  1  0
 25 27  1  0
 27 28  1  0
 26 29  1  0
  1 30  1  0
  1 31  1  0
  1 32  1  0
  2 33  1  0
  2 34  1  0
  3 35  1  0
  3 36  1  0
  4 37  1  0
  4 38  1  0
  5 39  1  0
  6 40  1  0
  7 41  1  0
  8 42  1  0
  9 43  1  0
 10 44  1  0
 11 45  1  0
 11 46  1  0
 11 47  1  0
 12 48  1  0
 12 49  1  0
 13 50  1  0
 14 51  1  0
 15 52  1  0
 16 53  1  0
 17 54  1  0
 18 55  1  0
 19 56  1  0
 20 57  1  0
 21 58  1  0
 23 59  1  0
 23 60  1  0
 24 61  1  0
 24 62  1  0
 26 63  1  0
 26 64  1  0
 27 65  1  0
 27 66  1  0
 28 67  1  0
 28 68  1  0
 28 69  1  0
 29 70  1  0
 29 71  1  0
 29 72  1  0
M  END
>  <PDBID>  (1) 
4AGD

>  <PDB ID>  (1) 
4AGD

>  <Generic Name>  (1) 
Sunitinib

>  <Brand Name>  (1) 
Sutent

>  <DrugBank ID>  (1) 
DB01268

>  <ATC Codes>  (1) 
L01XE04

>  <Ligand ID>  (1) 
B49

>  <Target Name>  (1) 
Vascular endothelial growth factor receptor 3

>  <UniProt ID>  (1) 
P35916

>  <PDB ID.1>  (1) 
4AGD

>  <Seq. Identity>  (1) 
66%

$$$$
