PDB_DB00476_06
     RDKit          3D

 54 56  0  0  0  0  0  0  0  0999 V2000
    4.7684    0.6599   -2.2597 C   0  0  0  0  0  0  0  0  0  0  0  0
    3.6655    1.5591   -2.4426 N   0  0  0  0  0  0  0  0  0  0  0  0
    2.4313    1.0400   -1.8446 C   0  0  0  0  0  0  0  0  0  0  0  0
    2.5028    1.0034   -0.3701 C   0  0  0  0  0  0  0  0  0  0  0  0
    1.3236    0.4147    0.3719 C   0  0  1  0  0  0  0  0  0  0  0  0
    1.7357    0.5462    1.8279 C   0  0  0  0  0  0  0  0  0  0  0  0
    0.5339   -0.0647    3.0133 S   0  0  0  0  0  0  0  0  0  0  0  0
    1.6213   -1.1245    4.0516 C   0  0  0  0  0  0  0  0  0  0  0  0
    2.9746   -0.5408    3.6343 C   0  0  0  0  0  0  0  0  0  0  0  0
    2.8825   -0.4036    2.1063 C   0  0  0  0  0  0  0  0  0  0  0  0
    0.2067    1.0228   -0.0180 O   0  0  0  0  0  0  0  0  0  0  0  0
   -0.7699    0.3389   -0.7368 C   0  0  0  0  0  0  0  0  0  0  0  0
   -1.9851    0.1911    0.1516 C   0  0  0  0  0  0  0  0  0  0  0  0
   -1.8964   -1.1342    0.8571 C   0  0  0  0  0  0  0  0  0  0  0  0
   -2.9796   -2.1201    0.4987 C   0  0  0  0  0  0  0  0  0  0  0  0
   -4.2778   -1.4501    0.8800 C   0  0  0  0  0  0  0  0  0  0  0  0
   -4.4671   -0.2618    0.0217 C   0  0  0  0  0  0  0  0  0  0  0  0
   -3.2837    0.3886   -0.5677 C   0  0  0  0  0  0  0  0  0  0  0  0
   -3.1691   -0.0051   -2.0320 C   0  0  0  0  0  0  0  0  0  0  0  0
   -2.3182    1.0923   -2.6357 C   0  0  0  0  0  0  0  0  0  0  0  0
   -0.9782    1.0139   -2.0242 C   0  0  0  0  0  0  0  0  0  0  0  0
    5.4805    0.6674   -3.1365 H   0  0  0  0  0  0  0  0  0  0  0  0
    4.4656   -0.3908   -2.1226 H   0  0  0  0  0  0  0  0  0  0  0  0
    5.3810    1.0501   -1.4076 H   0  0  0  0  0  0  0  0  0  0  0  0
    3.4986    1.6862   -3.4613 H   0  0  0  0  0  0  0  0  0  0  0  0
    2.2055    0.0755   -2.3050 H   0  0  0  0  0  0  0  0  0  0  0  0
    1.6591    1.7863   -2.1442 H   0  0  0  0  0  0  0  0  0  0  0  0
    2.5732    2.0616    0.0424 H   0  0  0  0  0  0  0  0  0  0  0  0
    3.4572    0.4927   -0.1082 H   0  0  0  0  0  0  0  0  0  0  0  0
    1.2847   -0.6603    0.0724 H   0  0  0  0  0  0  0  0  0  0  0  0
    2.0908    1.5708    2.0564 H   0  0  0  0  0  0  0  0  0  0  0  0
    1.5368   -2.1765    3.7866 H   0  0  0  0  0  0  0  0  0  0  0  0
    1.4626   -0.9087    5.1213 H   0  0  0  0  0  0  0  0  0  0  0  0
    3.7340   -1.3294    3.8038 H   0  0  0  0  0  0  0  0  0  0  0  0
    3.1755    0.4075    4.1272 H   0  0  0  0  0  0  0  0  0  0  0  0
    2.6468   -1.4329    1.7592 H   0  0  0  0  0  0  0  0  0  0  0  0
    3.8642   -0.0406    1.7595 H   0  0  0  0  0  0  0  0  0  0  0  0
   -0.3441   -0.6711   -0.9156 H   0  0  0  0  0  0  0  0  0  0  0  0
   -1.9593    0.9696    0.9449 H   0  0  0  0  0  0  0  0  0  0  0  0
   -2.0171   -1.0117    1.9807 H   0  0  0  0  0  0  0  0  0  0  0  0
   -0.9249   -1.6523    0.7329 H   0  0  0  0  0  0  0  0  0  0  0  0
   -2.8602   -2.9542    1.2511 H   0  0  0  0  0  0  0  0  0  0  0  0
   -2.9809   -2.4847   -0.5187 H   0  0  0  0  0  0  0  0  0  0  0  0
   -5.0757   -2.2133    0.7129 H   0  0  0  0  0  0  0  0  0  0  0  0
   -4.2335   -1.1532    1.9606 H   0  0  0  0  0  0  0  0  0  0  0  0
   -5.1756   -0.5600   -0.8107 H   0  0  0  0  0  0  0  0  0  0  0  0
   -5.1100    0.4571    0.6205 H   0  0  0  0  0  0  0  0  0  0  0  0
   -3.5090    1.4948   -0.5894 H   0  0  0  0  0  0  0  0  0  0  0  0
   -4.1777   -0.0437   -2.5002 H   0  0  0  0  0  0  0  0  0  0  0  0
   -2.6229   -0.9364   -2.2027 H   0  0  0  0  0  0  0  0  0  0  0  0
   -2.8146    2.0864   -2.4894 H   0  0  0  0  0  0  0  0  0  0  0  0
   -2.3013    0.9433   -3.7344 H   0  0  0  0  0  0  0  0  0  0  0  0
   -0.2962    0.6040   -2.8265 H   0  0  0  0  0  0  0  0  0  0  0  0
   -0.6339    2.1007   -1.9421 H   0  0  0  0  0  0  0  0  0  0  0  0
  1  2  1  0
  2  3  1  0
  3  4  1  0
  4  5  1  0
  5  6  1  0
  6  7  1  0
  7  8  1  0
  8  9  1  0
  6 10  1  0
  9 10  1  0
  5 11  1  0
 11 12  1  0
 12 13  1  0
 13 14  1  0
 14 15  1  0
 15 16  1  0
 16 17  1  0
 13 18  1  0
 17 18  1  0
 18 19  1  0
 19 20  1  0
 12 21  1  0
 20 21  1  0
  1 22  1  0
  1 23  1  0
  1 24  1  0
  2 25  1  0
  3 26  1  0
  3 27  1  0
  4 28  1  0
  4 29  1  0
  5 30  1  6
  6 31  1  0
  8 32  1  0
  8 33  1  0
  9 34  1  0
  9 35  1  0
 10 36  1  0
 10 37  1  0
 12 38  1  0
 13 39  1  0
 14 40  1  0
 14 41  1  0
 15 42  1  0
 15 43  1  0
 16 44  1  0
 16 45  1  0
 17 46  1  0
 17 47  1  0
 18 48  1  0
 19 49  1  0
 19 50  1  0
 20 51  1  0
 20 52  1  0
 21 53  1  0
 21 54  1  0
M  END
>  <PDBID>  (1) 
4MM6

>  <PDB ID>  (1) 
4MM6

>  <Generic Name>  (1) 
Duloxetine

>  <Brand Name>  (1) 
Act Duloxetine#Apo-duloxetine#Auro-duloxetine#Cymbalta#Dom-duloxetine#Duloxetine#Duloxetine Delayed-release#Duloxetine Dr#Duloxetine Hydrochloride#Duloxetine Hydrochloride 20 mg#Duloxetine Hydrochloride 30 mg#Duloxetine Hydrochloride 60 mg#Ipg-duloxetine#Irenka#Jamp-duloxetine#Mar-duloxetine#Mint-duloxetine#Mylan-duloxetine#PMS-duloxetine#Ran-duloxetine#Riva-duloxetine#Sandoz Duloxetine#Taro-duloxetine#Teva-duloxetine Dr#Torrent-duloxetine#Ariclaim#Dulane#Duzela#Xeristar#Yentreve

>  <DrugBank ID>  (1) 
DB00476

>  <ATC Codes>  (1) 
N06AX21

>  <Ligand ID>  (1) 
29E

>  <Target Name>  (1) 
Sodium-dependent noradrenaline transporter

>  <UniProt ID>  (1) 
P23975

>  <PDB ID.1>  (1) 
4MM6

>  <Seq. Identity>  (1) 
30%

$$$$
