PDB_DB00939_05
     RDKit          3D

 88 90  0  0  0  0  0  0  0  0999 V2000
    1.7823   -0.0646    2.1226 O   0  0  0  0  0  0  0  0  0  0  0  0
    2.3328   -0.9745    1.2279 C   0  0  0  0  0  0  0  0  0  0  0  0
    1.7345   -2.2016    1.4407 O   0  0  0  0  0  0  0  0  0  0  0  0
    2.4162   -0.5175   -0.1664 C   0  0  0  0  0  0  0  0  0  0  0  0
    3.2879    0.7595   -0.1123 C   0  0  0  0  0  0  0  0  0  0  0  0
    3.7596    1.1404   -1.4790 C   0  0  0  0  0  0  0  0  0  0  0  0
    2.5407    1.2251   -2.3580 C   0  0  0  0  0  0  0  0  0  0  0  0
    1.2569    1.0588   -1.5630 C   0  0  0  0  0  0  0  0  0  0  0  0
    1.2174   -0.3849   -1.0200 C   0  0  0  0  0  0  0  0  0  0  0  0
   -0.0072   -0.8811   -0.7189 N   0  0  0  0  0  0  0  0  0  0  0  0
   -0.9395   -0.6141    0.2510 C   0  0  0  0  0  0  0  0  0  0  0  0
   -1.5613    0.7446    0.2864 C   0  0  0  0  0  0  0  0  0  0  0  0
   -1.0427    1.6180    1.7611 Cl  0  0  0  0  0  0  0  0  0  0  0  0
   -3.0345    0.8712    0.2950 C   0  0  0  0  0  0  0  0  0  0  0  0
   -3.6020    1.0158    1.7162 C   0  0  0  0  0  0  0  0  0  0  0  0
   -3.8379   -0.1099   -0.4735 C   0  0  0  0  0  0  0  0  0  0  0  0
   -2.9619   -1.1639   -1.0935 C   0  0  0  0  0  0  0  0  0  0  0  0
   -2.0767   -1.6506    0.0326 C   0  0  0  0  0  0  0  0  0  0  0  0
   -2.9245   -2.0579    1.4964 Cl  0  0  0  0  0  0  0  0  0  0  0  0
    4.2032    0.4328    0.4618 H   0  0  0  0  0  0  0  0  0  0  0  0
    4.4369    0.3691   -1.8825 H   0  0  0  0  0  0  0  0  0  0  0  0
    2.5766    0.5511   -3.2371 H   0  0  0  0  0  0  0  0  0  0  0  0
    1.2531    1.8106   -0.7847 H   0  0  0  0  0  0  0  0  0  0  0  0
   -0.3716   -1.5673   -1.4600 H   0  0  0  0  0  0  0  0  0  0  0  0
   -3.8700    2.0766    1.9535 H   0  0  0  0  0  0  0  0  0  0  0  0
   -2.8157    0.7664    2.4758 H   0  0  0  0  0  0  0  0  0  0  0  0
   -4.5281    0.4368    1.8464 H   0  0  0  0  0  0  0  0  0  0  0  0
   -4.4927    0.3177   -1.2602 H   0  0  0  0  0  0  0  0  0  0  0  0
   -3.5685   -1.9855   -1.4830 H   0  0  0  0  0  0  0  0  0  0  0  0
    1.7823   -0.0646    2.1226 O   0  0  0  0  0  0  0  0  0  0  0  0
    2.3328   -0.9745    1.2279 C   0  0  0  0  0  0  0  0  0  0  0  0
    1.7345   -2.2016    1.4407 O   0  0  0  0  0  0  0  0  0  0  0  0
    2.4162   -0.5175   -0.1664 C   0  0  0  0  0  0  0  0  0  0  0  0
    3.2879    0.7595   -0.1123 C   0  0  0  0  0  0  0  0  0  0  0  0
    3.7596    1.1404   -1.4790 C   0  0  0  0  0  0  0  0  0  0  0  0
    2.5407    1.2251   -2.3580 C   0  0  0  0  0  0  0  0  0  0  0  0
    1.2569    1.0588   -1.5630 C   0  0  0  0  0  0  0  0  0  0  0  0
    1.2174   -0.3849   -1.0200 C   0  0  0  0  0  0  0  0  0  0  0  0
   -0.0072   -0.8811   -0.7189 N   0  0  0  0  0  0  0  0  0  0  0  0
   -0.9395   -0.6141    0.2510 C   0  0  0  0  0  0  0  0  0  0  0  0
   -1.5613    0.7446    0.2864 C   0  0  0  0  0  0  0  0  0  0  0  0
   -1.0427    1.6180    1.7611 Cl  0  0  0  0  0  0  0  0  0  0  0  0
   -3.0345    0.8712    0.2950 C   0  0  0  0  0  0  0  0  0  0  0  0
   -3.6020    1.0158    1.7162 C   0  0  0  0  0  0  0  0  0  0  0  0
   -3.8379   -0.1099   -0.4735 C   0  0  0  0  0  0  0  0  0  0  0  0
   -2.9619   -1.1639   -1.0935 C   0  0  0  0  0  0  0  0  0  0  0  0
   -2.0767   -1.6506    0.0326 C   0  0  0  0  0  0  0  0  0  0  0  0
   -2.9245   -2.0579    1.4964 Cl  0  0  0  0  0  0  0  0  0  0  0  0
    4.2032    0.4328    0.4618 H   0  0  0  0  0  0  0  0  0  0  0  0
    4.4369    0.3691   -1.8825 H   0  0  0  0  0  0  0  0  0  0  0  0
    2.5766    0.5511   -3.2371 H   0  0  0  0  0  0  0  0  0  0  0  0
    1.2531    1.8106   -0.7847 H   0  0  0  0  0  0  0  0  0  0  0  0
   -0.3716   -1.5673   -1.4600 H   0  0  0  0  0  0  0  0  0  0  0  0
   -3.8700    2.0766    1.9535 H   0  0  0  0  0  0  0  0  0  0  0  0
   -2.8157    0.7664    2.4758 H   0  0  0  0  0  0  0  0  0  0  0  0
   -4.5281    0.4368    1.8464 H   0  0  0  0  0  0  0  0  0  0  0  0
   -4.4927    0.3177   -1.2602 H   0  0  0  0  0  0  0  0  0  0  0  0
   -3.5685   -1.9855   -1.4830 H   0  0  0  0  0  0  0  0  0  0  0  0
    2.0572   -0.2198    3.0511 H   0  0  0  0  0  0  0  0  0  0  0  0
    3.3864   -1.1311    1.6418 H   0  0  0  0  0  0  0  0  0  0  0  0
    2.0869   -2.9247    0.8804 H   0  0  0  0  0  0  0  0  0  0  0  0
    3.1889   -1.2409   -0.6516 H   0  0  0  0  0  0  0  0  0  0  0  0
    2.8318    1.5504    0.4699 H   0  0  0  0  0  0  0  0  0  0  0  0
    4.3105    2.0875   -1.4045 H   0  0  0  0  0  0  0  0  0  0  0  0
    2.5069    2.2593   -2.7765 H   0  0  0  0  0  0  0  0  0  0  0  0
    0.4802    1.1964   -2.3578 H   0  0  0  0  0  0  0  0  0  0  0  0
    1.5211   -0.9092   -2.0054 H   0  0  0  0  0  0  0  0  0  0  0  0
   -0.5963   -0.8497    1.2716 H   0  0  0  0  0  0  0  0  0  0  0  0
   -1.1786    1.2665   -0.6347 H   0  0  0  0  0  0  0  0  0  0  0  0
   -3.2771    1.8751   -0.1840 H   0  0  0  0  0  0  0  0  0  0  0  0
   -4.5399   -0.6558    0.2227 H   0  0  0  0  0  0  0  0  0  0  0  0
   -2.3291   -0.7187   -1.8829 H   0  0  0  0  0  0  0  0  0  0  0  0
   -1.6125   -2.6066   -0.3577 H   0  0  0  0  0  0  0  0  0  0  0  0
    2.0572   -0.2198    3.0511 H   0  0  0  0  0  0  0  0  0  0  0  0
    3.3864   -1.1311    1.6418 H   0  0  0  0  0  0  0  0  0  0  0  0
    2.0869   -2.9247    0.8804 H   0  0  0  0  0  0  0  0  0  0  0  0
    3.1889   -1.2409   -0.6516 H   0  0  0  0  0  0  0  0  0  0  0  0
    2.8318    1.5504    0.4699 H   0  0  0  0  0  0  0  0  0  0  0  0
    4.3105    2.0875   -1.4045 H   0  0  0  0  0  0  0  0  0  0  0  0
    2.5069    2.2593   -2.7765 H   0  0  0  0  0  0  0  0  0  0  0  0
    0.4802    1.1964   -2.3578 H   0  0  0  0  0  0  0  0  0  0  0  0
    1.5211   -0.9092   -2.0054 H   0  0  0  0  0  0  0  0  0  0  0  0
   -0.5963   -0.8497    1.2716 H   0  0  0  0  0  0  0  0  0  0  0  0
   -1.1786    1.2665   -0.6347 H   0  0  0  0  0  0  0  0  0  0  0  0
   -3.2771    1.8751   -0.1840 H   0  0  0  0  0  0  0  0  0  0  0  0
   -4.5399   -0.6558    0.2227 H   0  0  0  0  0  0  0  0  0  0  0  0
   -2.3291   -0.7187   -1.8829 H   0  0  0  0  0  0  0  0  0  0  0  0
   -1.6125   -2.6066   -0.3577 H   0  0  0  0  0  0  0  0  0  0  0  0
  1  2  1  0
  2  3  1  0
  2  4  1  0
  4  5  1  0
  5  6  1  0
  6  7  1  0
  7  8  1  0
  4  9  1  0
  8  9  1  0
  9 10  1  0
 10 11  1  0
 11 12  1  0
 12 13  1  0
 12 14  1  0
 14 15  1  0
 14 16  1  0
 16 17  1  0
 11 18  1  0
 17 18  1  0
 18 19  1  0
  5 20  1  0
  6 21  1  0
  7 22  1  0
  8 23  1  0
 10 24  1  0
 15 25  1  0
 15 26  1  0
 15 27  1  0
 16 28  1  0
 17 29  1  0
 30 31  1  0
 31 32  1  0
 31 33  1  0
 33 34  1  0
 34 35  1  0
 35 36  1  0
 36 37  1  0
 33 38  1  0
 37 38  1  0
 38 39  1  0
 39 40  1  0
 40 41  1  0
 41 42  1  0
 41 43  1  0
 43 44  1  0
 43 45  1  0
 45 46  1  0
 40 47  1  0
 46 47  1  0
 47 48  1  0
 34 49  1  0
 35 50  1  0
 36 51  1  0
 37 52  1  0
 39 53  1  0
 44 54  1  0
 44 55  1  0
 44 56  1  0
 45 57  1  0
 46 58  1  0
  1 59  1  0
  2 60  1  0
  3 61  1  0
  4 62  1  0
  5 63  1  0
  6 64  1  0
  7 65  1  0
  8 66  1  0
  9 67  1  0
 11 68  1  0
 12 69  1  0
 14 70  1  0
 16 71  1  0
 17 72  1  0
 18 73  1  0
 30 74  1  0
 31 75  1  0
 32 76  1  0
 33 77  1  0
 34 78  1  0
 35 79  1  0
 36 80  1  0
 37 81  1  0
 38 82  1  0
 40 83  1  0
 41 84  1  0
 43 85  1  0
 45 86  1  0
 46 87  1  0
 47 88  1  0
M  END
>  <PDBID>  (1) 
5IKQ

>  <PDB ID>  (1) 
5IKQ

>  <Generic Name>  (1) 
Meclofenamic acid

>  <Brand Name>  (1) 
Meclofenamate Sodium#Ethos#Eucome#Meclomen

>  <DrugBank ID>  (1) 
DB00939

>  <ATC Codes>  (1) 
M01AG04#M02AA18

>  <Ligand ID>  (1) 
JMS

>  <Target Name>  (1) 
Prostaglandin G/H synthase 1

>  <UniProt ID>  (1) 
P23219

>  <PDB ID.1>  (1) 
5IKQ

>  <Seq. Identity>  (1) 
61%

$$$$
