PDB_DB08895_05
     RDKit          3D

114118  0  0  0  0  0  0  0  0999 V2000
    0.3381   -0.7972   -0.4565 C   0  0  1  0  0  0  0  0  0  0  0  0
    1.6508   -0.0290   -0.1324 C   0  0  0  0  0  0  0  0  0  0  0  0
    2.3280   -2.3268   -0.1676 C   0  0  0  0  0  0  0  0  0  0  0  0
    1.1091   -2.8845    0.4706 C   0  0  0  0  0  0  0  0  0  0  0  0
    0.1088   -1.7294    0.6685 C   0  0  1  0  0  0  0  0  0  0  0  0
    2.6359   -0.9620    0.2616 N   0  0  0  0  0  0  0  0  0  0  0  0
    4.1114   -0.7242   -1.4438 O   0  0  0  0  0  0  0  0  0  0  0  0
    3.9786   -0.6956   -0.0292 C   0  0  0  0  0  0  0  0  0  0  0  0
    4.6646    0.4704    0.5543 C   0  0  0  0  0  0  0  0  0  0  0  0
    4.0959    1.8002    0.1904 C   0  0  0  0  0  0  0  0  0  0  0  0
    4.9443    2.8265    0.8447 N   0  0  0  0  0  0  0  0  0  0  0  0
    0.3303   -1.1925    2.0440 C   0  0  0  0  0  0  0  0  0  0  0  0
   -0.7053    0.0662   -0.8164 N   0  0  0  0  0  0  0  0  0  0  0  0
   -0.5437    0.8512   -1.9697 C   0  0  0  0  0  0  0  0  0  0  0  0
   -1.9667   -0.0389   -0.2082 C   0  0  0  0  0  0  0  0  0  0  0  0
   -2.7285    1.2358   -0.3011 C   0  0  0  0  0  0  0  0  0  0  0  0
   -3.5037    1.4194    1.0086 C   0  0  0  0  0  0  0  0  0  0  0  0
   -4.9477    1.2081    0.6608 C   0  0  0  0  0  0  0  0  0  0  0  0
   -5.0245    1.7346   -0.6822 N   0  0  0  0  0  0  0  0  0  0  0  0
   -3.7600    1.3603   -1.3352 C   0  0  0  0  0  0  0  0  0  0  0  0
   -3.9666    0.3063   -2.2404 N   0  0  0  0  0  0  0  0  0  0  0  0
   -3.4124   -0.9552   -1.9306 C   0  0  0  0  0  0  0  0  0  0  0  0
   -2.7689   -1.1048   -0.6932 N   0  0  0  0  0  0  0  0  0  0  0  0
    0.3381   -0.7972   -0.4565 C   0  0  1  0  0  0  0  0  0  0  0  0
    1.6508   -0.0290   -0.1324 C   0  0  0  0  0  0  0  0  0  0  0  0
    2.3280   -2.3268   -0.1676 C   0  0  0  0  0  0  0  0  0  0  0  0
    1.1091   -2.8845    0.4706 C   0  0  0  0  0  0  0  0  0  0  0  0
    0.1088   -1.7294    0.6685 C   0  0  1  0  0  0  0  0  0  0  0  0
    2.6359   -0.9620    0.2616 N   0  0  0  0  0  0  0  0  0  0  0  0
    4.1114   -0.7242   -1.4438 O   0  0  0  0  0  0  0  0  0  0  0  0
    3.9786   -0.6956   -0.0292 C   0  0  0  0  0  0  0  0  0  0  0  0
    4.6646    0.4704    0.5543 C   0  0  0  0  0  0  0  0  0  0  0  0
    4.0959    1.8002    0.1904 C   0  0  0  0  0  0  0  0  0  0  0  0
    4.9443    2.8265    0.8447 N   0  0  0  0  0  0  0  0  0  0  0  0
    0.3303   -1.1925    2.0440 C   0  0  0  0  0  0  0  0  0  0  0  0
   -0.7053    0.0662   -0.8164 N   0  0  0  0  0  0  0  0  0  0  0  0
   -0.5437    0.8512   -1.9697 C   0  0  0  0  0  0  0  0  0  0  0  0
   -1.9667   -0.0389   -0.2082 C   0  0  0  0  0  0  0  0  0  0  0  0
   -2.7285    1.2358   -0.3011 C   0  0  0  0  0  0  0  0  0  0  0  0
   -3.5037    1.4194    1.0086 C   0  0  0  0  0  0  0  0  0  0  0  0
   -4.9477    1.2081    0.6608 C   0  0  0  0  0  0  0  0  0  0  0  0
   -5.0245    1.7346   -0.6822 N   0  0  0  0  0  0  0  0  0  0  0  0
   -3.7600    1.3603   -1.3352 C   0  0  0  0  0  0  0  0  0  0  0  0
   -3.9666    0.3063   -2.2404 N   0  0  0  0  0  0  0  0  0  0  0  0
   -3.4124   -0.9552   -1.9306 C   0  0  0  0  0  0  0  0  0  0  0  0
   -2.7689   -1.1048   -0.6932 N   0  0  0  0  0  0  0  0  0  0  0  0
    0.6034   -1.3944   -1.3633 H   0  0  0  0  0  0  0  0  0  0  0  0
    1.9024    0.5862   -1.0150 H   0  0  0  0  0  0  0  0  0  0  0  0
    1.3438    0.5795    0.7605 H   0  0  0  0  0  0  0  0  0  0  0  0
    2.3452   -2.4080   -1.2827 H   0  0  0  0  0  0  0  0  0  0  0  0
    3.2080   -2.9357    0.1611 H   0  0  0  0  0  0  0  0  0  0  0  0
    1.2810   -3.4272    1.4096 H   0  0  0  0  0  0  0  0  0  0  0  0
    0.6224   -3.5516   -0.2987 H   0  0  0  0  0  0  0  0  0  0  0  0
   -0.8885   -2.2135    0.6708 H   0  0  0  0  0  0  0  0  0  0  0  0
    4.9894   -1.0948   -1.6996 H   0  0  0  0  0  0  0  0  0  0  0  0
    4.5658   -1.6174    0.3277 H   0  0  0  0  0  0  0  0  0  0  0  0
    5.7564    0.5125    0.2290 H   0  0  0  0  0  0  0  0  0  0  0  0
    4.7775    0.3737    1.6835 H   0  0  0  0  0  0  0  0  0  0  0  0
    3.0665    1.9997    0.4658 H   0  0  0  0  0  0  0  0  0  0  0  0
    4.1915    1.9482   -0.9217 H   0  0  0  0  0  0  0  0  0  0  0  0
    5.8835    2.3978    0.9613 H   0  0  0  0  0  0  0  0  0  0  0  0
    4.4670    3.0615    1.7386 H   0  0  0  0  0  0  0  0  0  0  0  0
   -0.3482   -1.7011    2.7951 H   0  0  0  0  0  0  0  0  0  0  0  0
    0.1488   -0.1227    2.1908 H   0  0  0  0  0  0  0  0  0  0  0  0
    1.3558   -1.4819    2.4199 H   0  0  0  0  0  0  0  0  0  0  0  0
    0.4490    0.5666   -2.4326 H   0  0  0  0  0  0  0  0  0  0  0  0
   -1.2704    0.6825   -2.7888 H   0  0  0  0  0  0  0  0  0  0  0  0
   -0.4932    1.9458   -1.8037 H   0  0  0  0  0  0  0  0  0  0  0  0
   -1.8031   -0.2254    0.8914 H   0  0  0  0  0  0  0  0  0  0  0  0
   -1.9874    2.0906   -0.2935 H   0  0  0  0  0  0  0  0  0  0  0  0
   -3.4080    2.4429    1.4143 H   0  0  0  0  0  0  0  0  0  0  0  0
   -3.1340    0.7121    1.7787 H   0  0  0  0  0  0  0  0  0  0  0  0
   -5.6090    1.8009    1.3376 H   0  0  0  0  0  0  0  0  0  0  0  0
   -5.2858    0.1699    0.7213 H   0  0  0  0  0  0  0  0  0  0  0  0
   -5.1754    2.7661   -0.6799 H   0  0  0  0  0  0  0  0  0  0  0  0
   -3.5008    2.2735   -1.9564 H   0  0  0  0  0  0  0  0  0  0  0  0
   -4.9881    0.1911   -2.4251 H   0  0  0  0  0  0  0  0  0  0  0  0
   -2.6882   -1.2326   -2.7529 H   0  0  0  0  0  0  0  0  0  0  0  0
   -4.1823   -1.7828   -2.0095 H   0  0  0  0  0  0  0  0  0  0  0  0
   -3.1630   -1.7509   -0.0077 H   0  0  0  0  0  0  0  0  0  0  0  0
    0.6034   -1.3944   -1.3633 H   0  0  0  0  0  0  0  0  0  0  0  0
    1.9024    0.5862   -1.0150 H   0  0  0  0  0  0  0  0  0  0  0  0
    1.3438    0.5795    0.7605 H   0  0  0  0  0  0  0  0  0  0  0  0
    2.3452   -2.4080   -1.2827 H   0  0  0  0  0  0  0  0  0  0  0  0
    3.2080   -2.9357    0.1611 H   0  0  0  0  0  0  0  0  0  0  0  0
    1.2810   -3.4272    1.4096 H   0  0  0  0  0  0  0  0  0  0  0  0
    0.6224   -3.5516   -0.2987 H   0  0  0  0  0  0  0  0  0  0  0  0
   -0.8885   -2.2135    0.6708 H   0  0  0  0  0  0  0  0  0  0  0  0
    4.9894   -1.0948   -1.6996 H   0  0  0  0  0  0  0  0  0  0  0  0
    4.5658   -1.6174    0.3277 H   0  0  0  0  0  0  0  0  0  0  0  0
    5.7564    0.5125    0.2290 H   0  0  0  0  0  0  0  0  0  0  0  0
    4.7775    0.3737    1.6835 H   0  0  0  0  0  0  0  0  0  0  0  0
    3.0665    1.9997    0.4658 H   0  0  0  0  0  0  0  0  0  0  0  0
    4.1915    1.9482   -0.9217 H   0  0  0  0  0  0  0  0  0  0  0  0
    5.8835    2.3978    0.9613 H   0  0  0  0  0  0  0  0  0  0  0  0
    4.4670    3.0615    1.7386 H   0  0  0  0  0  0  0  0  0  0  0  0
   -0.3482   -1.7011    2.7951 H   0  0  0  0  0  0  0  0  0  0  0  0
    0.1488   -0.1227    2.1908 H   0  0  0  0  0  0  0  0  0  0  0  0
    1.3558   -1.4819    2.4199 H   0  0  0  0  0  0  0  0  0  0  0  0
    0.4490    0.5666   -2.4326 H   0  0  0  0  0  0  0  0  0  0  0  0
   -1.2704    0.6825   -2.7888 H   0  0  0  0  0  0  0  0  0  0  0  0
   -0.4932    1.9458   -1.8037 H   0  0  0  0  0  0  0  0  0  0  0  0
   -1.8031   -0.2254    0.8914 H   0  0  0  0  0  0  0  0  0  0  0  0
   -1.9874    2.0906   -0.2935 H   0  0  0  0  0  0  0  0  0  0  0  0
   -3.4080    2.4429    1.4143 H   0  0  0  0  0  0  0  0  0  0  0  0
   -3.1340    0.7121    1.7787 H   0  0  0  0  0  0  0  0  0  0  0  0
   -5.6090    1.8009    1.3376 H   0  0  0  0  0  0  0  0  0  0  0  0
   -5.2858    0.1699    0.7213 H   0  0  0  0  0  0  0  0  0  0  0  0
   -5.1754    2.7661   -0.6799 H   0  0  0  0  0  0  0  0  0  0  0  0
   -3.5008    2.2735   -1.9564 H   0  0  0  0  0  0  0  0  0  0  0  0
   -4.9881    0.1911   -2.4251 H   0  0  0  0  0  0  0  0  0  0  0  0
   -2.6882   -1.2326   -2.7529 H   0  0  0  0  0  0  0  0  0  0  0  0
   -4.1823   -1.7828   -2.0095 H   0  0  0  0  0  0  0  0  0  0  0  0
   -3.1630   -1.7509   -0.0077 H   0  0  0  0  0  0  0  0  0  0  0  0
  1  2  1  0
  3  4  1  0
  1  5  1  0
  4  5  1  0
  2  6  1  0
  3  6  1  0
  6  8  1  0
  7  8  1  0
  8  9  1  0
  9 10  1  0
 10 11  1  0
  5 12  1  0
  1 13  1  0
 13 14  1  0
 13 15  1  0
 15 16  1  0
 16 17  1  0
 17 18  1  0
 18 19  1  0
 16 20  1  0
 19 20  1  0
 20 21  1  0
 21 22  1  0
 15 23  1  0
 22 23  1  0
 24 25  1  0
 26 27  1  0
 24 28  1  0
 27 28  1  0
 25 29  1  0
 26 29  1  0
 29 31  1  0
 30 31  1  0
 31 32  1  0
 32 33  1  0
 33 34  1  0
 28 35  1  0
 24 36  1  0
 36 37  1  0
 36 38  1  0
 38 39  1  0
 39 40  1  0
 40 41  1  0
 41 42  1  0
 39 43  1  0
 42 43  1  0
 43 44  1  0
 44 45  1  0
 38 46  1  0
 45 46  1  0
  1 47  1  6
  2 48  1  0
  2 49  1  0
  3 50  1  0
  3 51  1  0
  4 52  1  0
  4 53  1  0
  5 54  1  1
  7 55  1  0
  8 56  1  0
  9 57  1  0
  9 58  1  0
 10 59  1  0
 10 60  1  0
 11 61  1  0
 11 62  1  0
 12 63  1  0
 12 64  1  0
 12 65  1  0
 14 66  1  0
 14 67  1  0
 14 68  1  0
 15 69  1  0
 16 70  1  0
 17 71  1  0
 17 72  1  0
 18 73  1  0
 18 74  1  0
 19 75  1  0
 20 76  1  0
 21 77  1  0
 22 78  1  0
 22 79  1  0
 23 80  1  0
 24 81  1  6
 25 82  1  0
 25 83  1  0
 26 84  1  0
 26 85  1  0
 27 86  1  0
 27 87  1  0
 28 88  1  1
 30 89  1  0
 31 90  1  0
 32 91  1  0
 32 92  1  0
 33 93  1  0
 33 94  1  0
 34 95  1  0
 34 96  1  0
 35 97  1  0
 35 98  1  0
 35 99  1  0
 37100  1  0
 37101  1  0
 37102  1  0
 38103  1  0
 39104  1  0
 40105  1  0
 40106  1  0
 41107  1  0
 41108  1  0
 42109  1  0
 43110  1  0
 44111  1  0
 45112  1  0
 45113  1  0
 46114  1  0
M  END
>  <PDBID>  (1) 
3FUP

>  <PDB ID>  (1) 
3FUP

>  <Generic Name>  (1) 
Tofacitinib

>  <Brand Name>  (1) 
Xeljanz#Xeljanz XR

>  <DrugBank ID>  (1) 
DB08895

>  <ATC Codes>  (1) 
L04AA29

>  <Ligand ID>  (1) 
MI1

>  <Target Name>  (1) 
Tyrosine-protein kinase JAK2

>  <UniProt ID>  (1) 
O60674

>  <PDB ID.1>  (1) 
3FUP

>  <Seq. Identity>  (1) 
100%

$$$$
