PDB_DB00773_09
     RDKit          3D

176188  0  0  0  0  0  0  0  0999 V2000
    0.4775   -5.4661   -2.1706 C   0  0  0  0  0  0  0  0  0  0  0  0
    1.2845   -4.3293   -2.1589 O   0  0  0  0  0  0  0  0  0  0  0  0
   -0.4733   -4.0658   -0.8346 C   0  0  0  0  0  0  0  0  0  0  0  0
   -0.7858   -5.0669   -1.7362 O   0  0  0  0  0  0  0  0  0  0  0  0
   -1.5825   -3.1366   -0.5257 C   0  0  0  0  0  0  0  0  0  0  0  0
    0.1786    2.4244   -0.0147 O   0  0  0  0  0  0  0  0  0  0  0  0
   -1.1193   -1.8629    0.0929 C   0  0  0  0  0  0  0  0  0  0  0  0
   -0.3791    2.1790   -2.1123 O   0  0  0  0  0  0  0  0  0  0  0  0
   -1.6005   -0.6922   -0.7728 C   0  0  2  0  0  0  0  0  0  0  0  0
   -6.2833   -1.5544    0.5034 O   0  0  0  0  0  0  0  0  0  0  0  0
   -0.5919    0.3854   -0.5924 C   0  0  1  0  0  0  0  0  0  0  0  0
   -5.9634   -0.4323   -2.1722 O   0  0  0  0  0  0  0  0  0  0  0  0
   -0.8272    1.7857   -0.8278 C   0  0  1  0  0  0  0  0  0  0  0  0
   -4.3954    1.9370   -0.0202 O   0  0  0  0  0  0  0  0  0  0  0  0
    0.0472    1.7739    1.2160 C   0  0  0  0  0  0  0  0  0  0  0  0
    1.8329   -0.0949    0.1481 O   0  0  0  0  0  0  0  0  0  0  0  0
   -0.2939    0.3597    0.9158 C   0  0  2  0  0  0  0  0  0  0  0  0
    3.1834    1.6292    0.4400 O   0  0  0  0  0  0  0  0  0  0  0  0
    0.8675   -0.6091    0.9976 C   0  0  1  0  0  0  0  0  0  0  0  0
    5.4588    4.1520    0.7771 O   0  0  0  0  0  0  0  0  0  0  0  0
    0.3461   -1.8868    0.3895 C   0  0  0  0  0  0  0  0  0  0  0  0
    6.6312    2.1581    0.9097 O   0  0  0  0  0  0  0  0  0  0  0  0
    1.2408   -2.4152   -0.6806 C   0  0  0  0  0  0  0  0  0  0  0  0
    6.2544   -0.1395   -0.9194 O   0  0  0  0  0  0  0  0  0  0  0  0
    0.5316   -3.2846   -1.6711 C   0  0  0  0  0  0  0  0  0  0  0  0
    4.2084   -1.7437    0.6020 O   0  0  0  0  0  0  0  0  0  0  0  0
   -2.9740   -0.2437   -0.4061 C   0  0  0  0  0  0  0  0  0  0  0  0
   -4.0021   -1.3539   -0.2526 C   0  0  0  0  0  0  0  0  0  0  0  0
   -5.3154   -0.6516    0.1405 C   0  0  0  0  0  0  0  0  0  0  0  0
   -5.8186    0.2505   -0.9620 C   0  0  0  0  0  0  0  0  0  0  0  0
   -4.7003    1.2817   -1.2076 C   0  0  0  0  0  0  0  0  0  0  0  0
   -3.5208    0.4910   -1.6526 C   0  0  0  0  0  0  0  0  0  0  0  0
   -6.7084   -1.4482    1.8066 C   0  0  0  0  0  0  0  0  0  0  0  0
   -4.6038    3.3119   -0.1621 C   0  0  0  0  0  0  0  0  0  0  0  0
    3.0233    0.2531    0.7487 C   0  0  2  0  0  0  0  0  0  0  0  0
    4.2748    2.1399    1.1303 C   0  0  2  0  0  0  0  0  0  0  0  0
    4.2405    3.6328    1.1402 C   0  0  0  0  0  0  0  0  0  0  0  0
    6.5394    3.4886    1.3198 C   0  0  2  0  0  0  0  0  0  0  0  0
    5.4848    1.6823    0.3229 C   0  0  2  0  0  0  0  0  0  0  0  0
    5.5010    0.1995    0.2289 C   0  0  1  0  0  0  0  0  0  0  0  0
    4.1543   -0.4560    0.0518 C   0  0  1  0  0  0  0  0  0  0  0  0
    6.6267    3.5958    2.8181 C   0  0  0  0  0  0  0  0  0  0  0  0
    0.4775   -5.4661   -2.1706 C   0  0  0  0  0  0  0  0  0  0  0  0
    1.2845   -4.3293   -2.1589 O   0  0  0  0  0  0  0  0  0  0  0  0
   -0.4733   -4.0658   -0.8346 C   0  0  0  0  0  0  0  0  0  0  0  0
   -0.7858   -5.0669   -1.7362 O   0  0  0  0  0  0  0  0  0  0  0  0
   -1.5825   -3.1366   -0.5257 C   0  0  0  0  0  0  0  0  0  0  0  0
    0.1786    2.4244   -0.0147 O   0  0  0  0  0  0  0  0  0  0  0  0
   -1.1193   -1.8629    0.0929 C   0  0  0  0  0  0  0  0  0  0  0  0
   -0.3791    2.1790   -2.1123 O   0  0  0  0  0  0  0  0  0  0  0  0
   -1.6005   -0.6922   -0.7728 C   0  0  2  0  0  0  0  0  0  0  0  0
   -6.2833   -1.5544    0.5034 O   0  0  0  0  0  0  0  0  0  0  0  0
   -0.5919    0.3854   -0.5924 C   0  0  1  0  0  0  0  0  0  0  0  0
   -5.9634   -0.4323   -2.1722 O   0  0  0  0  0  0  0  0  0  0  0  0
   -0.8272    1.7857   -0.8278 C   0  0  1  0  0  0  0  0  0  0  0  0
   -4.3954    1.9370   -0.0202 O   0  0  0  0  0  0  0  0  0  0  0  0
    0.0472    1.7739    1.2160 C   0  0  0  0  0  0  0  0  0  0  0  0
    1.8329   -0.0949    0.1481 O   0  0  0  0  0  0  0  0  0  0  0  0
   -0.2939    0.3597    0.9158 C   0  0  2  0  0  0  0  0  0  0  0  0
    3.1834    1.6292    0.4400 O   0  0  0  0  0  0  0  0  0  0  0  0
    0.8675   -0.6091    0.9976 C   0  0  1  0  0  0  0  0  0  0  0  0
    5.4588    4.1520    0.7771 O   0  0  0  0  0  0  0  0  0  0  0  0
    0.3461   -1.8868    0.3895 C   0  0  0  0  0  0  0  0  0  0  0  0
    6.6312    2.1581    0.9097 O   0  0  0  0  0  0  0  0  0  0  0  0
    1.2408   -2.4152   -0.6806 C   0  0  0  0  0  0  0  0  0  0  0  0
    6.2544   -0.1395   -0.9194 O   0  0  0  0  0  0  0  0  0  0  0  0
    0.5316   -3.2846   -1.6711 C   0  0  0  0  0  0  0  0  0  0  0  0
    4.2084   -1.7437    0.6020 O   0  0  0  0  0  0  0  0  0  0  0  0
   -2.9740   -0.2437   -0.4061 C   0  0  0  0  0  0  0  0  0  0  0  0
   -4.0021   -1.3539   -0.2526 C   0  0  0  0  0  0  0  0  0  0  0  0
   -5.3154   -0.6516    0.1405 C   0  0  0  0  0  0  0  0  0  0  0  0
   -5.8186    0.2505   -0.9620 C   0  0  0  0  0  0  0  0  0  0  0  0
   -4.7003    1.2817   -1.2076 C   0  0  0  0  0  0  0  0  0  0  0  0
   -3.5208    0.4910   -1.6526 C   0  0  0  0  0  0  0  0  0  0  0  0
   -6.7084   -1.4482    1.8066 C   0  0  0  0  0  0  0  0  0  0  0  0
   -4.6038    3.3119   -0.1621 C   0  0  0  0  0  0  0  0  0  0  0  0
    3.0233    0.2531    0.7487 C   0  0  2  0  0  0  0  0  0  0  0  0
    4.2748    2.1399    1.1303 C   0  0  2  0  0  0  0  0  0  0  0  0
    4.2405    3.6328    1.1402 C   0  0  0  0  0  0  0  0  0  0  0  0
    6.5394    3.4886    1.3198 C   0  0  2  0  0  0  0  0  0  0  0  0
    5.4848    1.6823    0.3229 C   0  0  2  0  0  0  0  0  0  0  0  0
    5.5010    0.1995    0.2289 C   0  0  1  0  0  0  0  0  0  0  0  0
    4.1543   -0.4560    0.0518 C   0  0  1  0  0  0  0  0  0  0  0  0
    6.6267    3.5958    2.8181 C   0  0  0  0  0  0  0  0  0  0  0  0
    0.4601   -5.9686   -3.1520 H   0  0  0  0  0  0  0  0  0  0  0  0
    0.8707   -6.1429   -1.3569 H   0  0  0  0  0  0  0  0  0  0  0  0
   -0.0048   -4.5444    0.0427 H   0  0  0  0  0  0  0  0  0  0  0  0
   -2.1312   -2.9422   -1.4716 H   0  0  0  0  0  0  0  0  0  0  0  0
   -2.2916   -3.7379    0.1109 H   0  0  0  0  0  0  0  0  0  0  0  0
   -1.6493   -1.8228    1.0932 H   0  0  0  0  0  0  0  0  0  0  0  0
    0.2012    1.4724   -2.4841 H   0  0  0  0  0  0  0  0  0  0  0  0
   -1.5854   -1.0503   -1.8092 H   0  0  0  0  0  0  0  0  0  0  0  0
    0.2987    0.0882   -1.2006 H   0  0  0  0  0  0  0  0  0  0  0  0
   -6.0125    0.2739   -2.8808 H   0  0  0  0  0  0  0  0  0  0  0  0
   -1.7792    2.2599   -0.6585 H   0  0  0  0  0  0  0  0  0  0  0  0
   -0.8253    2.2989    1.7090 H   0  0  0  0  0  0  0  0  0  0  0  0
    0.8906    1.9398    1.8966 H   0  0  0  0  0  0  0  0  0  0  0  0
   -1.1502    0.0752    1.5174 H   0  0  0  0  0  0  0  0  0  0  0  0
    1.2402   -0.7013    2.0362 H   0  0  0  0  0  0  0  0  0  0  0  0
    0.4291   -2.6374    1.2498 H   0  0  0  0  0  0  0  0  0  0  0  0
    1.8487   -1.6855   -1.2204 H   0  0  0  0  0  0  0  0  0  0  0  0
    2.0027   -3.0972   -0.1901 H   0  0  0  0  0  0  0  0  0  0  0  0
    5.8854    0.3541   -1.7089 H   0  0  0  0  0  0  0  0  0  0  0  0
   -0.0394   -2.7515   -2.4465 H   0  0  0  0  0  0  0  0  0  0  0  0
    4.4780   -2.4178   -0.0846 H   0  0  0  0  0  0  0  0  0  0  0  0
   -3.0359    0.3610    0.5020 H   0  0  0  0  0  0  0  0  0  0  0  0
   -3.8015   -2.0039    0.5947 H   0  0  0  0  0  0  0  0  0  0  0  0
   -4.2039   -1.8067   -1.2169 H   0  0  0  0  0  0  0  0  0  0  0  0
   -5.0752   -0.0092    1.0019 H   0  0  0  0  0  0  0  0  0  0  0  0
   -6.7332    0.7204   -0.6070 H   0  0  0  0  0  0  0  0  0  0  0  0
   -5.0283    2.0314   -1.9513 H   0  0  0  0  0  0  0  0  0  0  0  0
   -3.9404   -0.3294   -2.3298 H   0  0  0  0  0  0  0  0  0  0  0  0
   -2.7774    0.9707   -2.2556 H   0  0  0  0  0  0  0  0  0  0  0  0
   -7.4870   -2.2339    1.9631 H   0  0  0  0  0  0  0  0  0  0  0  0
   -5.8959   -1.7091    2.5433 H   0  0  0  0  0  0  0  0  0  0  0  0
   -7.1832   -0.4902    2.0536 H   0  0  0  0  0  0  0  0  0  0  0  0
   -4.3728    3.8580    0.7561 H   0  0  0  0  0  0  0  0  0  0  0  0
   -5.6685    3.4649   -0.4098 H   0  0  0  0  0  0  0  0  0  0  0  0
   -3.9958    3.7255   -0.9791 H   0  0  0  0  0  0  0  0  0  0  0  0
    3.0708    0.0779    1.8253 H   0  0  0  0  0  0  0  0  0  0  0  0
    4.2646    1.6836    2.1369 H   0  0  0  0  0  0  0  0  0  0  0  0
    3.4705    4.0521    0.4347 H   0  0  0  0  0  0  0  0  0  0  0  0
    3.9392    3.9902    2.1662 H   0  0  0  0  0  0  0  0  0  0  0  0
    7.4586    3.9907    0.8994 H   0  0  0  0  0  0  0  0  0  0  0  0
    5.3548    2.1418   -0.6931 H   0  0  0  0  0  0  0  0  0  0  0  0
    6.0506   -0.2504    1.0916 H   0  0  0  0  0  0  0  0  0  0  0  0
    3.9232   -0.5260   -1.0319 H   0  0  0  0  0  0  0  0  0  0  0  0
    6.8352    2.5764    3.2431 H   0  0  0  0  0  0  0  0  0  0  0  0
    5.7431    4.0581    3.2812 H   0  0  0  0  0  0  0  0  0  0  0  0
    7.5032    4.2160    3.1427 H   0  0  0  0  0  0  0  0  0  0  0  0
    0.4601   -5.9686   -3.1520 H   0  0  0  0  0  0  0  0  0  0  0  0
    0.8707   -6.1429   -1.3569 H   0  0  0  0  0  0  0  0  0  0  0  0
   -0.0048   -4.5444    0.0427 H   0  0  0  0  0  0  0  0  0  0  0  0
   -2.1312   -2.9422   -1.4716 H   0  0  0  0  0  0  0  0  0  0  0  0
   -2.2916   -3.7379    0.1109 H   0  0  0  0  0  0  0  0  0  0  0  0
   -1.6493   -1.8228    1.0932 H   0  0  0  0  0  0  0  0  0  0  0  0
    0.2012    1.4724   -2.4841 H   0  0  0  0  0  0  0  0  0  0  0  0
   -1.5854   -1.0503   -1.8092 H   0  0  0  0  0  0  0  0  0  0  0  0
    0.2987    0.0882   -1.2006 H   0  0  0  0  0  0  0  0  0  0  0  0
   -6.0125    0.2739   -2.8808 H   0  0  0  0  0  0  0  0  0  0  0  0
   -1.7792    2.2599   -0.6585 H   0  0  0  0  0  0  0  0  0  0  0  0
   -0.8253    2.2989    1.7090 H   0  0  0  0  0  0  0  0  0  0  0  0
    0.8906    1.9398    1.8966 H   0  0  0  0  0  0  0  0  0  0  0  0
   -1.1502    0.0752    1.5174 H   0  0  0  0  0  0  0  0  0  0  0  0
    1.2402   -0.7013    2.0362 H   0  0  0  0  0  0  0  0  0  0  0  0
    0.4291   -2.6374    1.2498 H   0  0  0  0  0  0  0  0  0  0  0  0
    1.8487   -1.6855   -1.2204 H   0  0  0  0  0  0  0  0  0  0  0  0
    2.0027   -3.0972   -0.1901 H   0  0  0  0  0  0  0  0  0  0  0  0
    5.8854    0.3541   -1.7089 H   0  0  0  0  0  0  0  0  0  0  0  0
   -0.0394   -2.7515   -2.4465 H   0  0  0  0  0  0  0  0  0  0  0  0
    4.4780   -2.4178   -0.0846 H   0  0  0  0  0  0  0  0  0  0  0  0
   -3.0359    0.3610    0.5020 H   0  0  0  0  0  0  0  0  0  0  0  0
   -3.8015   -2.0039    0.5947 H   0  0  0  0  0  0  0  0  0  0  0  0
   -4.2039   -1.8067   -1.2169 H   0  0  0  0  0  0  0  0  0  0  0  0
   -5.0752   -0.0092    1.0019 H   0  0  0  0  0  0  0  0  0  0  0  0
   -6.7332    0.7204   -0.6070 H   0  0  0  0  0  0  0  0  0  0  0  0
   -5.0283    2.0314   -1.9513 H   0  0  0  0  0  0  0  0  0  0  0  0
   -3.9404   -0.3294   -2.3298 H   0  0  0  0  0  0  0  0  0  0  0  0
   -2.7774    0.9707   -2.2556 H   0  0  0  0  0  0  0  0  0  0  0  0
   -7.4870   -2.2339    1.9631 H   0  0  0  0  0  0  0  0  0  0  0  0
   -5.8959   -1.7091    2.5433 H   0  0  0  0  0  0  0  0  0  0  0  0
   -7.1832   -0.4902    2.0536 H   0  0  0  0  0  0  0  0  0  0  0  0
   -4.3728    3.8580    0.7561 H   0  0  0  0  0  0  0  0  0  0  0  0
   -5.6685    3.4649   -0.4098 H   0  0  0  0  0  0  0  0  0  0  0  0
   -3.9958    3.7255   -0.9791 H   0  0  0  0  0  0  0  0  0  0  0  0
    3.0708    0.0779    1.8253 H   0  0  0  0  0  0  0  0  0  0  0  0
    4.2646    1.6836    2.1369 H   0  0  0  0  0  0  0  0  0  0  0  0
    3.4705    4.0521    0.4347 H   0  0  0  0  0  0  0  0  0  0  0  0
    3.9392    3.9902    2.1662 H   0  0  0  0  0  0  0  0  0  0  0  0
    7.4586    3.9907    0.8994 H   0  0  0  0  0  0  0  0  0  0  0  0
    5.3548    2.1418   -0.6931 H   0  0  0  0  0  0  0  0  0  0  0  0
    6.0506   -0.2504    1.0916 H   0  0  0  0  0  0  0  0  0  0  0  0
    3.9232   -0.5260   -1.0319 H   0  0  0  0  0  0  0  0  0  0  0  0
    6.8352    2.5764    3.2431 H   0  0  0  0  0  0  0  0  0  0  0  0
    5.7431    4.0581    3.2812 H   0  0  0  0  0  0  0  0  0  0  0  0
    7.5032    4.2160    3.1427 H   0  0  0  0  0  0  0  0  0  0  0  0
  1  2  1  0
  1  4  1  0
  3  4  1  0
  3  5  1  0
  5  7  1  0
  7  9  1  0
  9 11  1  0
  6 13  1  0
  8 13  1  0
 11 13  1  0
  6 15  1  0
 11 17  1  0
 15 17  1  0
 16 19  1  0
 17 19  1  0
  7 21  1  0
 19 21  1  0
 21 23  1  0
  2 25  1  0
  3 25  1  0
 23 25  1  0
  9 27  1  0
 27 28  1  0
 10 29  1  0
 28 29  1  0
 12 30  1  0
 29 30  1  0
 14 31  1  0
 30 31  1  0
 27 32  1  0
 31 32  1  0
 10 33  1  0
 14 34  1  0
 16 35  1  0
 18 35  1  0
 18 36  1  0
 20 37  1  0
 36 37  1  0
 20 38  1  0
 22 38  1  0
 22 39  1  0
 36 39  1  0
 24 40  1  0
 39 40  1  0
 26 41  1  0
 35 41  1  0
 40 41  1  0
 38 42  1  0
 43 44  1  0
 43 46  1  0
 45 46  1  0
 45 47  1  0
 47 49  1  0
 49 51  1  0
 51 53  1  0
 48 55  1  0
 50 55  1  0
 53 55  1  0
 48 57  1  0
 53 59  1  0
 57 59  1  0
 58 61  1  0
 59 61  1  0
 49 63  1  0
 61 63  1  0
 63 65  1  0
 44 67  1  0
 45 67  1  0
 65 67  1  0
 51 69  1  0
 69 70  1  0
 52 71  1  0
 70 71  1  0
 54 72  1  0
 71 72  1  0
 56 73  1  0
 72 73  1  0
 69 74  1  0
 73 74  1  0
 52 75  1  0
 56 76  1  0
 58 77  1  0
 60 77  1  0
 60 78  1  0
 62 79  1  0
 78 79  1  0
 62 80  1  0
 64 80  1  0
 64 81  1  0
 78 81  1  0
 66 82  1  0
 81 82  1  0
 68 83  1  0
 77 83  1  0
 82 83  1  0
 80 84  1  0
  1 85  1  0
  1 86  1  0
  3 87  1  0
  5 88  1  0
  5 89  1  0
  7 90  1  0
  8 91  1  0
  9 92  1  6
 11 93  1  6
 12 94  1  0
 13 95  1  1
 15 96  1  0
 15 97  1  0
 17 98  1  1
 19 99  1  1
 21100  1  0
 23101  1  0
 23102  1  0
 24103  1  0
 25104  1  0
 26105  1  0
 27106  1  0
 28107  1  0
 28108  1  0
 29109  1  0
 30110  1  0
 31111  1  0
 32112  1  0
 32113  1  0
 33114  1  0
 33115  1  0
 33116  1  0
 34117  1  0
 34118  1  0
 34119  1  0
 35120  1  1
 36121  1  1
 37122  1  0
 37123  1  0
 38124  1  6
 39125  1  6
 40126  1  1
 41127  1  6
 42128  1  0
 42129  1  0
 42130  1  0
 43131  1  0
 43132  1  0
 45133  1  0
 47134  1  0
 47135  1  0
 49136  1  0
 50137  1  0
 51138  1  6
 53139  1  6
 54140  1  0
 55141  1  1
 57142  1  0
 57143  1  0
 59144  1  1
 61145  1  1
 63146  1  0
 65147  1  0
 65148  1  0
 66149  1  0
 67150  1  0
 68151  1  0
 69152  1  0
 70153  1  0
 70154  1  0
 71155  1  0
 72156  1  0
 73157  1  0
 74158  1  0
 74159  1  0
 75160  1  0
 75161  1  0
 75162  1  0
 76163  1  0
 76164  1  0
 76165  1  0
 77166  1  1
 78167  1  1
 79168  1  0
 79169  1  0
 80170  1  6
 81171  1  6
 82172  1  1
 83173  1  6
 84174  1  0
 84175  1  0
 84176  1  0
M  END
>  <PDBID>  (1) 
5GWK

>  <PDB ID>  (1) 
5GWK

>  <Generic Name>  (1) 
Etoposide

>  <Brand Name>  (1) 
Dom-etoposide#Eposin#Etopophos#Etoposide#Etoposide - Liq IV 20mg/ml#Etoposide Injection#Etoposide Injection USP#Etoposide Injection, USP#PMS-etoposide#Toposar#Vepesid#Vepesid Inj 20mg/ml#Etopofos#Lastet#Nexvep#Vepesid K#Vépéside

>  <DrugBank ID>  (1) 
DB00773

>  <ATC Codes>  (1) 
L01CB01

>  <Ligand ID>  (1) 
EVP

>  <Target Name>  (1) 
DNA topoisomerase 2-alpha

>  <UniProt ID>  (1) 
P11388

>  <PDB ID.1>  (1) 
5GWK

>  <Seq. Identity>  (1) 
96%

$$$$
