PDB_DB00410_01
     RDKit          3D

 85 86  0  0  0  0  0  0  0  0999 V2000
   -2.2339    1.1453    0.4517 C   0  0  0  0  0  0  0  0  0  0  0  0
   -0.8083    0.1857    0.8730 C   0  0  0  0  0  0  0  0  0  0  0  0
    0.2116    1.2400    0.9592 C   0  0  0  0  0  0  0  0  0  0  0  0
    1.5713    0.7443    1.3322 C   0  0  0  0  0  0  0  0  0  0  0  0
    2.2159   -0.2666    0.4797 C   0  0  1  0  0  0  0  0  0  0  0  0
    2.4922    0.0619   -0.9414 C   0  0  1  0  0  0  0  0  0  0  0  0
    3.4099   -1.0551   -1.4883 C   0  0  1  0  0  0  0  0  0  0  0  0
    4.7649   -0.8356   -0.8644 C   0  0  1  0  0  0  0  0  0  0  0  0
    5.6333    0.0111   -1.7777 C   0  0  0  0  0  0  0  0  0  0  0  0
    6.9758    0.1647   -1.0523 C   0  0  1  0  0  0  0  0  0  0  0  0
    7.6389   -1.1604   -0.7976 C   0  0  2  0  0  0  0  0  0  0  0  0
    8.3516   -1.3881    0.4699 C   0  0  2  0  0  0  0  0  0  0  0  0
    9.5146   -0.5469    0.8117 C   0  0  2  0  0  0  0  0  0  0  0  0
    9.1610    0.9089    0.9159 C   0  0  0  0  0  0  0  0  0  0  0  0
    0.2139    2.2145   -0.1955 C   0  0  0  0  0  0  0  0  0  0  0  0
    4.5280   -0.0725    0.4259 C   0  0  0  0  0  0  0  0  0  0  0  0
   -9.5209   -1.9834    0.1244 C   0  0  0  0  0  0  0  0  0  0  0  0
  -10.2801   -3.1350   -0.1839 O   0  0  0  0  0  0  0  0  0  0  0  0
   -8.3638   -2.1272   -0.6786 O   0  0  0  0  0  0  0  0  0  0  0  0
  -10.2942   -0.7408   -0.2162 C   0  0  0  0  0  0  0  0  0  0  0  0
   -9.6022    0.5399    0.0864 C   0  0  0  0  0  0  0  0  0  0  0  0
   -8.3088    0.6764   -0.6590 C   0  0  0  0  0  0  0  0  0  0  0  0
   -7.6530    2.0220   -0.3486 C   0  0  0  0  0  0  0  0  0  0  0  0
   -6.3768    2.1041   -1.1210 C   0  0  0  0  0  0  0  0  0  0  0  0
   -5.4190    0.9989   -0.7563 C   0  0  0  0  0  0  0  0  0  0  0  0
   -5.0796    1.0904    0.7222 C   0  0  0  0  0  0  0  0  0  0  0  0
   -4.1371    0.0033    1.1250 C   0  0  0  0  0  0  0  0  0  0  0  0
   -2.9807    0.0724    0.4103 O   0  0  0  0  0  0  0  0  0  0  0  0
   -2.6020    1.4744    2.0042 O   0  0  0  0  0  0  0  0  0  0  0  0
    3.4445   -0.5951    1.1169 O   0  0  0  0  0  0  0  0  0  0  0  0
    2.8936   -2.2704   -1.0521 O   0  0  0  0  0  0  0  0  0  0  0  0
    1.3515   -0.0332   -1.7622 O   0  0  0  0  0  0  0  0  0  0  0  0
    8.1149   -0.2138   -1.7084 O   0  0  0  0  0  0  0  0  0  0  0  0
    8.6785   -2.8848    0.5780 C   0  0  0  0  0  0  0  0  0  0  0  0
   10.5625   -0.7459   -0.0966 O   0  0  0  0  0  0  0  0  0  0  0  0
   -1.6819    1.9564    0.4910 H   0  0  0  0  0  0  0  0  0  0  0  0
   -0.8358   -0.3900   -0.0429 H   0  0  0  0  0  0  0  0  0  0  0  0
   -1.1825   -0.2006    1.7809 H   0  0  0  0  0  0  0  0  0  0  0  0
   -0.0900    1.8970    1.8543 H   0  0  0  0  0  0  0  0  0  0  0  0
    1.5612    0.3821    2.3855 H   0  0  0  0  0  0  0  0  0  0  0  0
    2.2549    1.6453    1.3524 H   0  0  0  0  0  0  0  0  0  0  0  0
    1.6703   -1.2681    0.5077 H   0  0  0  0  0  0  0  0  0  0  0  0
    3.0588    0.9844   -1.1257 H   0  0  0  0  0  0  0  0  0  0  0  0
    3.4236   -0.9632   -2.5812 H   0  0  0  0  0  0  0  0  0  0  0  0
    5.2498   -1.8194   -0.6630 H   0  0  0  0  0  0  0  0  0  0  0  0
    5.2042    1.0124   -1.9369 H   0  0  0  0  0  0  0  0  0  0  0  0
    5.7841   -0.4564   -2.7583 H   0  0  0  0  0  0  0  0  0  0  0  0
    6.9353    0.9571   -0.3157 H   0  0  0  0  0  0  0  0  0  0  0  0
    7.2503   -2.0621   -1.3313 H   0  0  0  0  0  0  0  0  0  0  0  0
    7.5845   -1.2397    1.3015 H   0  0  0  0  0  0  0  0  0  0  0  0
    9.8467   -0.8694    1.8494 H   0  0  0  0  0  0  0  0  0  0  0  0
   10.0240    1.3713    1.5135 H   0  0  0  0  0  0  0  0  0  0  0  0
    9.1907    1.4502   -0.0367 H   0  0  0  0  0  0  0  0  0  0  0  0
    8.2926    1.0840    1.5552 H   0  0  0  0  0  0  0  0  0  0  0  0
   -0.1496    3.2467    0.1133 H   0  0  0  0  0  0  0  0  0  0  0  0
    1.2698    2.3922   -0.4781 H   0  0  0  0  0  0  0  0  0  0  0  0
   -0.4144    1.8383   -1.0345 H   0  0  0  0  0  0  0  0  0  0  0  0
    4.5076    1.0188    0.2909 H   0  0  0  0  0  0  0  0  0  0  0  0
    5.4166   -0.2751    1.0687 H   0  0  0  0  0  0  0  0  0  0  0  0
   -9.2944   -2.0089    1.1912 H   0  0  0  0  0  0  0  0  0  0  0  0
  -10.0602   -3.4936   -1.0867 H   0  0  0  0  0  0  0  0  0  0  0  0
   -7.6448   -2.5977   -0.1861 H   0  0  0  0  0  0  0  0  0  0  0  0
  -10.5219   -0.8132   -1.3127 H   0  0  0  0  0  0  0  0  0  0  0  0
  -11.2963   -0.7392    0.3099 H   0  0  0  0  0  0  0  0  0  0  0  0
  -10.2366    1.4330   -0.1130 H   0  0  0  0  0  0  0  0  0  0  0  0
   -9.3442    0.5096    1.1840 H   0  0  0  0  0  0  0  0  0  0  0  0
   -8.4367    0.5881   -1.7502 H   0  0  0  0  0  0  0  0  0  0  0  0
   -7.6085   -0.0806   -0.2277 H   0  0  0  0  0  0  0  0  0  0  0  0
   -7.4737    2.1869    0.7088 H   0  0  0  0  0  0  0  0  0  0  0  0
   -8.3238    2.8405   -0.7117 H   0  0  0  0  0  0  0  0  0  0  0  0
   -6.5809    2.1117   -2.2141 H   0  0  0  0  0  0  0  0  0  0  0  0
   -5.8795    3.0599   -0.8278 H   0  0  0  0  0  0  0  0  0  0  0  0
   -4.4824    1.1789   -1.3655 H   0  0  0  0  0  0  0  0  0  0  0  0
   -5.7643   -0.0001   -1.0069 H   0  0  0  0  0  0  0  0  0  0  0  0
   -4.7078    2.0931    1.0081 H   0  0  0  0  0  0  0  0  0  0  0  0
   -6.0219    0.9357    1.3288 H   0  0  0  0  0  0  0  0  0  0  0  0
   -3.8885    0.0397    2.2089 H   0  0  0  0  0  0  0  0  0  0  0  0
   -4.6088   -0.9931    0.9436 H   0  0  0  0  0  0  0  0  0  0  0  0
   -1.8129    1.1351    2.3822 H   0  0  0  0  0  0  0  0  0  0  0  0
    3.3039   -2.5674   -0.1966 H   0  0  0  0  0  0  0  0  0  0  0  0
    0.9750   -0.9492   -1.5751 H   0  0  0  0  0  0  0  0  0  0  0  0
    7.8621   -3.4959    0.2029 H   0  0  0  0  0  0  0  0  0  0  0  0
    8.8164   -3.0944    1.6571 H   0  0  0  0  0  0  0  0  0  0  0  0
    9.6664   -3.0966    0.0977 H   0  0  0  0  0  0  0  0  0  0  0  0
   11.1255   -1.4782    0.3033 H   0  0  0  0  0  0  0  0  0  0  0  0
  1  2  1  0
  2  3  1  0
  3  4  1  0
  4  5  1  0
  5  6  1  0
  6  7  1  0
  7  8  1  0
  8  9  1  0
  9 10  1  0
 10 11  1  0
 11 12  1  0
 12 13  1  0
 13 14  1  0
  3 15  1  0
  8 16  1  0
 17 18  1  0
 17 19  1  0
 17 20  1  0
 20 21  1  0
 21 22  1  0
 22 23  1  0
 23 24  1  0
 24 25  1  0
 25 26  1  0
 26 27  1  0
  1 28  1  0
 27 28  1  0
  1 29  1  0
  5 30  1  0
 16 30  1  0
  7 31  1  0
  6 32  1  0
 10 33  1  0
 11 33  1  0
 12 34  1  0
 13 35  1  0
  1 36  1  0
  2 37  1  0
  2 38  1  0
  3 39  1  0
  4 40  1  0
  4 41  1  0
  5 42  1  6
  6 43  1  1
  7 44  1  6
  8 45  1  1
  9 46  1  0
  9 47  1  0
 10 48  1  1
 11 49  1  6
 12 50  1  1
 13 51  1  1
 14 52  1  0
 14 53  1  0
 14 54  1  0
 15 55  1  0
 15 56  1  0
 15 57  1  0
 16 58  1  0
 16 59  1  0
 17 60  1  0
 18 61  1  0
 19 62  1  0
 20 63  1  0
 20 64  1  0
 21 65  1  0
 21 66  1  0
 22 67  1  0
 22 68  1  0
 23 69  1  0
 23 70  1  0
 24 71  1  0
 24 72  1  0
 25 73  1  0
 25 74  1  0
 26 75  1  0
 26 76  1  0
 27 77  1  0
 27 78  1  0
 29 79  1  0
 31 80  1  0
 32 81  1  0
 34 82  1  0
 34 83  1  0
 34 84  1  0
 35 85  1  0
M  END
>  <PDBID>  (1) 
1FFY

>  <PDB ID>  (1) 
1FFY

>  <Generic Name>  (1) 
Mupirocin

>  <Brand Name>  (1) 
Bactroban#Bactroban Cream#Bactroban Nasal Ointment#Centany#Centany At#Mupirocin#Mupirocin 2%#Mupirocin Calcium#Taro-mupirocin#Bactroban Nasal#Plasimine#Spectroderm#T-Bact#Turixin

>  <DrugBank ID>  (1) 
DB00410

>  <ATC Codes>  (1) 
R01AX06#D06AX09

>  <Ligand ID>  (1) 
MRC

>  <Target Name>  (1) 
Isoleucine--tRNA ligase

>  <UniProt ID>  (1) 
P41972

>  <PDB ID.1>  (1) 
1FFY

>  <Seq. Identity>  (1) 
95%

$$$$
