PDB_DB01199_04
     RDKit          3D

550580  0  0  0  0  0  0  0  0999 V2000
    4.1154   -2.6126    0.6721 N   0  0  0  0  0  0  0  0  0  0  0  0
    5.0341   -2.0556    1.6430 C   0  0  0  0  0  0  0  0  0  0  0  0
    5.8597   -0.9206    1.0783 C   0  0  0  0  0  0  0  0  0  0  0  0
    4.8402    0.0963    0.6629 C   0  0  0  0  0  0  0  0  0  0  0  0
    3.9434   -0.3980   -0.4535 C   0  0  0  0  0  0  0  0  0  0  0  0
    4.0481   -1.8490   -0.5635 C   0  0  2  0  0  0  0  0  0  0  0  0
    5.3728    1.4119    0.2534 C   0  0  0  0  0  0  0  0  0  0  0  0
    4.2266    2.2814   -0.1715 C   0  0  0  0  0  0  0  0  0  0  0  0
    2.8591    1.7434   -0.0473 C   0  0  1  0  0  0  0  0  0  0  0  0
    2.6624    0.2781   -0.1703 C   0  0  0  0  0  0  0  0  0  0  0  0
    2.3426    2.1006    1.2214 O   0  0  0  0  0  0  0  0  0  0  0  0
    1.0881    2.6385    1.1369 C   0  0  2  0  0  0  0  0  0  0  0  0
    1.0933    3.8582    2.0742 C   0  0  0  0  0  0  0  0  0  0  0  0
   -0.2925    4.0477    2.6556 C   0  0  0  0  0  0  0  0  0  0  0  0
   -1.2636    3.6932    1.5167 C   0  0  0  0  0  0  0  0  0  0  0  0
   -1.3592    2.2091    1.4688 C   0  0  2  0  0  0  0  0  0  0  0  0
    0.0434    1.6782    1.7141 C   0  0  0  0  0  0  0  0  0  0  0  0
   -1.9157    1.6611    0.1517 C   0  0  0  0  0  0  0  0  0  0  0  0
   -3.3342    1.2210    0.2208 C   0  0  1  0  0  0  0  0  0  0  0  0
   -4.1621    1.9965   -0.6970 N   0  0  0  0  0  0  0  0  0  0  0  0
   -5.5757    1.7205   -0.5811 C   0  0  0  0  0  0  0  0  0  0  0  0
   -5.8699    0.5392    0.3175 C   0  0  0  0  0  0  0  0  0  0  0  0
   -5.0177   -0.5657   -0.2730 C   0  0  0  0  0  0  0  0  0  0  0  0
   -3.5819   -0.2443    0.1724 C   0  0  1  0  0  0  0  0  0  0  0  0
   -5.4768   -1.8788    0.2558 C   0  0  0  0  0  0  0  0  0  0  0  0
   -4.3378   -2.8574    0.0417 C   0  0  0  0  0  0  0  0  0  0  0  0
   -3.3840   -2.3854   -1.0255 C   0  0  2  0  0  0  0  0  0  0  0  0
   -2.6425   -1.0987   -0.6208 C   0  0  2  0  0  0  0  0  0  0  0  0
   -1.6106   -1.5358    0.1761 O   0  0  0  0  0  0  0  0  0  0  0  0
   -0.4551   -1.9392   -0.3672 C   0  0  0  0  0  0  0  0  0  0  0  0
   -0.2112   -1.6799   -1.8112 C   0  0  0  0  0  0  0  0  0  0  0  0
    1.0340   -2.1948   -2.3801 C   0  0  0  0  0  0  0  0  0  0  0  0
    1.9495   -3.0273   -1.5276 C   0  0  0  0  0  0  0  0  0  0  0  0
    1.4662   -3.3844   -0.1799 C   0  0  0  0  0  0  0  0  0  0  0  0
   -0.0716   -3.3951   -0.1404 C   0  0  0  0  0  0  0  0  0  0  0  0
    3.3351   -2.5494   -1.6562 C   0  0  0  0  0  0  0  0  0  0  0  0
    4.4104    2.7759   -1.4681 O   0  0  0  0  0  0  0  0  0  0  0  0
    4.5658    4.1364   -1.5240 C   0  0  0  0  0  0  0  0  0  0  0  0
    1.5023    4.9765    1.3884 O   0  0  0  0  0  0  0  0  0  0  0  0
   -3.7187   -3.1672    1.2239 O   0  0  0  0  0  0  0  0  0  0  0  0
   -3.8902   -4.5186    1.5041 C   0  0  0  0  0  0  0  0  0  0  0  0
   -4.0021   -2.3007   -2.2422 O   0  0  0  0  0  0  0  0  0  0  0  0
    4.7202   -3.9185    0.3425 C   0  0  0  0  0  0  0  0  0  0  0  0
   -3.7077    1.9823   -2.0507 C   0  0  0  0  0  0  0  0  0  0  0  0
   -4.0605    3.3936   -0.2403 C   0  0  0  0  0  0  0  0  0  0  0  0
    4.8905   -2.3870   -1.0412 N   0  0  0  0  0  0  0  0  0  0  0  0
    5.5787   -1.5810   -2.0068 C   0  0  0  0  0  0  0  0  0  0  0  0
    5.1407   -0.1392   -1.9863 C   0  0  0  0  0  0  0  0  0  0  0  0
    4.8798    0.3333   -0.5493 C   0  0  0  0  0  0  0  0  0  0  0  0
    3.9749   -0.5789    0.2043 C   0  0  2  0  0  0  0  0  0  0  0  0
    3.6128   -1.7827   -0.6396 C   0  0  2  0  0  0  0  0  0  0  0  0
    4.3391    1.7345   -0.6862 C   0  0  0  0  0  0  0  0  0  0  0  0
    3.9229    2.3617    0.6252 C   0  0  0  0  0  0  0  0  0  0  0  0
    3.1551    1.3941    1.4558 C   0  0  0  0  0  0  0  0  0  0  0  0
    2.7527    0.2309    0.5753 C   0  0  0  0  0  0  0  0  0  0  0  0
    2.1434    1.8908    2.2081 O   0  0  0  0  0  0  0  0  0  0  0  0
    0.9976    2.2919    1.6238 C   0  0  0  0  0  0  0  0  0  0  0  0
    0.7752    3.7441    2.0551 C   0  0  0  0  0  0  0  0  0  0  0  0
   -0.6258    3.9487    2.5776 C   0  0  0  0  0  0  0  0  0  0  0  0
   -1.5622    3.5009    1.4776 C   0  0  0  0  0  0  0  0  0  0  0  0
   -1.4816    1.9929    1.4186 C   0  0  0  0  0  0  0  0  0  0  0  0
   -0.2183    1.4500    2.0515 C   0  0  0  0  0  0  0  0  0  0  0  0
   -1.6278    1.5314   -0.0147 C   0  0  0  0  0  0  0  0  0  0  0  0
   -3.0328    1.2037   -0.3999 C   0  0  1  0  0  0  0  0  0  0  0  0
   -3.3046    1.6035   -1.7703 N   0  0  0  0  0  0  0  0  0  0  0  0
   -4.7368    1.6241   -2.0454 C   0  0  0  0  0  0  0  0  0  0  0  0
   -5.5573    1.0999   -0.9058 C   0  0  0  0  0  0  0  0  0  0  0  0
   -4.9497   -0.2586   -0.5817 C   0  0  0  0  0  0  0  0  0  0  0  0
   -3.5436   -0.1071   -0.0044 C   0  0  1  0  0  0  0  0  0  0  0  0
   -5.7496   -1.0509    0.3906 C   0  0  0  0  0  0  0  0  0  0  0  0
   -4.8690   -2.1733    0.8749 C   0  0  0  0  0  0  0  0  0  0  0  0
   -3.7646   -2.5177   -0.1037 C   0  0  0  0  0  0  0  0  0  0  0  0
   -2.7817   -1.3565   -0.3308 C   0  0  2  0  0  0  0  0  0  0  0  0
   -1.7087   -1.6033    0.4270 O   0  0  0  0  0  0  0  0  0  0  0  0
   -0.6253   -2.2740    0.0914 C   0  0  0  0  0  0  0  0  0  0  0  0
    0.0518   -1.8425   -1.1916 C   0  0  0  0  0  0  0  0  0  0  0  0
    1.0558   -2.8418   -1.6892 C   0  0  0  0  0  0  0  0  0  0  0  0
    1.8142   -3.5699   -0.6559 C   0  0  0  0  0  0  0  0  0  0  0  0
    0.8359   -4.2106    0.2894 C   0  0  0  0  0  0  0  0  0  0  0  0
   -0.6031   -3.7594    0.0835 C   0  0  0  0  0  0  0  0  0  0  0  0
    2.8630   -2.8368    0.0975 C   0  0  0  0  0  0  0  0  0  0  0  0
    5.0631    2.7874    1.3015 O   0  0  0  0  0  0  0  0  0  0  0  0
    5.0855    4.1765    1.3893 C   0  0  0  0  0  0  0  0  0  0  0  0
    1.0340    4.5830    0.9799 O   0  0  0  0  0  0  0  0  0  0  0  0
   -4.4229   -2.0411    2.1624 O   0  0  0  0  0  0  0  0  0  0  0  0
   -4.9145   -3.0588    3.0113 C   0  0  0  0  0  0  0  0  0  0  0  0
   -4.2836   -2.9998   -1.3033 O   0  0  0  0  0  0  0  0  0  0  0  0
    5.7634   -2.6413    0.0715 C   0  0  0  0  0  0  0  0  0  0  0  0
   -2.5898    0.8466   -2.7566 C   0  0  0  0  0  0  0  0  0  0  0  0
   -2.8762    3.0016   -1.9381 C   0  0  0  0  0  0  0  0  0  0  0  0
    5.2080   -2.4848   -0.5472 N   0  0  0  0  0  0  0  0  0  0  0  0
    6.1851   -1.8206   -1.3235 C   0  0  0  0  0  0  0  0  0  0  0  0
    5.9686   -0.3248   -1.4288 C   0  0  0  0  0  0  0  0  0  0  0  0
    5.2698    0.1125   -0.1861 C   0  0  0  0  0  0  0  0  0  0  0  0
    3.8628   -0.5087   -0.2068 C   0  0  0  0  0  0  0  0  0  0  0  0
    3.8652   -1.9275   -0.6548 C   0  0  2  0  0  0  0  0  0  0  0  0
    5.1457    1.5905   -0.1521 C   0  0  0  0  0  0  0  0  0  0  0  0
    3.6965    2.0707    0.1745 C   0  0  0  0  0  0  0  0  0  0  0  0
    3.2702    1.3112    1.3564 C   0  0  0  0  0  0  0  0  0  0  0  0
    3.3018   -0.2144    1.1356 C   0  0  0  0  0  0  0  0  0  0  0  0
    2.2473    1.6664    2.1201 O   0  0  0  0  0  0  0  0  0  0  0  0
    1.1522    2.3403    1.7688 C   0  0  0  0  0  0  0  0  0  0  0  0
    0.4852    2.8143    3.0658 C   0  0  0  0  0  0  0  0  0  0  0  0
   -0.9235    3.2139    2.9160 C   0  0  0  0  0  0  0  0  0  0  0  0
   -1.3014    3.3476    1.4533 C   0  0  0  0  0  0  0  0  0  0  0  0
   -1.1975    1.9348    0.9038 C   0  0  2  0  0  0  0  0  0  0  0  0
    0.2344    1.4588    0.9680 C   0  0  0  0  0  0  0  0  0  0  0  0
   -1.7477    1.8102   -0.5044 C   0  0  0  0  0  0  0  0  0  0  0  0
   -3.1616    1.3656   -0.5920 C   0  0  1  0  0  0  0  0  0  0  0  0
   -3.6393    1.6560   -1.9419 N   0  0  0  0  0  0  0  0  0  0  0  0
   -5.0794    1.5863   -2.0571 C   0  0  0  0  0  0  0  0  0  0  0  0
   -5.6844    1.0471   -0.7705 C   0  0  0  0  0  0  0  0  0  0  0  0
   -4.9751   -0.2377   -0.5103 C   0  0  0  0  0  0  0  0  0  0  0  0
   -3.5482    0.0813   -0.0445 C   0  0  1  0  0  0  0  0  0  0  0  0
   -5.6529   -0.9978    0.5623 C   0  0  0  0  0  0  0  0  0  0  0  0
   -4.6801   -1.8867    1.2372 C   0  0  0  0  0  0  0  0  0  0  0  0
   -3.4745   -2.2982    0.4405 C   0  0  0  0  0  0  0  0  0  0  0  0
   -2.7696   -1.1657   -0.3066 C   0  0  2  0  0  0  0  0  0  0  0  0
   -1.4943   -1.1681    0.0276 O   0  0  0  0  0  0  0  0  0  0  0  0
   -0.5385   -2.0210   -0.2129 C   0  0  0  0  0  0  0  0  0  0  0  0
    0.4209   -1.3941   -1.2444 C   0  0  0  0  0  0  0  0  0  0  0  0
    1.2256   -2.4043   -1.9945 C   0  0  0  0  0  0  0  0  0  0  0  0
    1.8266   -3.3756   -1.0571 C   0  0  0  0  0  0  0  0  0  0  0  0
    0.7040   -4.0875   -0.3558 C   0  0  0  0  0  0  0  0  0  0  0  0
   -0.6705   -3.4231   -0.5988 C   0  0  0  0  0  0  0  0  0  0  0  0
    2.8502   -2.8394   -0.0886 C   0  0  0  0  0  0  0  0  0  0  0  0
    3.9154    3.4103    0.5443 O   0  0  0  0  0  0  0  0  0  0  0  0
    3.3996    4.2282   -0.4517 C   0  0  0  0  0  0  0  0  0  0  0  0
    1.2072    3.9104    3.5638 O   0  0  0  0  0  0  0  0  0  0  0  0
   -4.3251   -1.4794    2.5226 O   0  0  0  0  0  0  0  0  0  0  0  0
   -4.7677   -2.3581    3.5120 C   0  0  0  0  0  0  0  0  0  0  0  0
   -3.8868   -3.2766   -0.4609 O   0  0  0  0  0  0  0  0  0  0  0  0
    5.5745   -2.9632    0.7275 C   0  0  0  0  0  0  0  0  0  0  0  0
   -3.0273    0.8619   -2.9557 C   0  0  0  0  0  0  0  0  0  0  0  0
   -3.3133    3.0545   -2.2063 C   0  0  0  0  0  0  0  0  0  0  0  0
    5.2280   -2.4969   -0.6830 N   0  0  0  0  0  0  0  0  0  0  0  0
    6.2134   -1.8568   -1.4586 C   0  0  0  0  0  0  0  0  0  0  0  0
    6.0960   -0.3442   -1.4754 C   0  0  0  0  0  0  0  0  0  0  0  0
    5.2494    0.0280   -0.3079 C   0  0  0  0  0  0  0  0  0  0  0  0
    3.8286   -0.5417   -0.4995 C   0  0  0  0  0  0  0  0  0  0  0  0
    3.8757   -1.9825   -0.8278 C   0  0  2  0  0  0  0  0  0  0  0  0
    5.2309    1.4710    0.0540 C   0  0  0  0  0  0  0  0  0  0  0  0
    3.8857    2.1452   -0.1079 C   0  0  1  0  0  0  0  0  0  0  0  0
    2.7504    1.3832    0.5202 C   0  0  1  0  0  0  0  0  0  0  0  0
    3.0999   -0.1037    0.7128 C   0  0  0  0  0  0  0  0  0  0  0  0
    2.2108    1.9504    1.6441 O   0  0  0  0  0  0  0  0  0  0  0  0
    0.9049    2.4146    1.4702 C   0  0  2  0  0  0  0  0  0  0  0  0
    0.6447    3.7310    2.1400 C   0  0  0  0  0  0  0  0  0  0  0  0
   -0.6112    3.7248    2.9544 C   0  0  0  0  0  0  0  0  0  0  0  0
   -1.7708    3.1158    2.2266 C   0  0  0  0  0  0  0  0  0  0  0  0
   -1.4932    1.7279    1.6915 C   0  0  0  0  0  0  0  0  0  0  0  0
   -0.0493    1.4099    2.0581 C   0  0  0  0  0  0  0  0  0  0  0  0
   -1.6974    1.6622    0.1926 C   0  0  0  0  0  0  0  0  0  0  0  0
   -3.0685    1.2586   -0.2339 C   0  0  1  0  0  0  0  0  0  0  0  0
   -3.2862    1.6845   -1.6039 N   0  0  0  0  0  0  0  0  0  0  0  0
   -4.6289    1.5074   -2.0771 C   0  0  0  0  0  0  0  0  0  0  0  0
   -5.5465    1.0028   -0.9628 C   0  0  0  0  0  0  0  0  0  0  0  0
   -4.9132   -0.2853   -0.5160 C   0  0  0  0  0  0  0  0  0  0  0  0
   -3.5624   -0.0516    0.1619 C   0  0  1  0  0  0  0  0  0  0  0  0
   -5.7410   -1.0907    0.4030 C   0  0  0  0  0  0  0  0  0  0  0  0
   -4.9079   -2.0956    1.0889 C   0  0  0  0  0  0  0  0  0  0  0  0
   -3.6031   -2.4581    0.4538 C   0  0  0  0  0  0  0  0  0  0  0  0
   -2.7810   -1.2962   -0.0738 C   0  0  2  0  0  0  0  0  0  0  0  0
   -1.5598   -1.3617    0.4841 O   0  0  0  0  0  0  0  0  0  0  0  0
   -0.5448   -2.0725   -0.0111 C   0  0  0  0  0  0  0  0  0  0  0  0
    0.1378   -1.4386   -1.2348 C   0  0  0  0  0  0  0  0  0  0  0  0
    1.1002   -2.3685   -1.9035 C   0  0  0  0  0  0  0  0  0  0  0  0
    1.7716   -3.3589   -1.0487 C   0  0  0  0  0  0  0  0  0  0  0  0
    0.7489   -4.1164   -0.2554 C   0  0  0  0  0  0  0  0  0  0  0  0
   -0.6569   -3.4985   -0.3414 C   0  0  0  0  0  0  0  0  0  0  0  0
    2.8925   -2.8830   -0.1748 C   0  0  0  0  0  0  0  0  0  0  0  0
    4.0261    3.4205    0.4236 O   0  0  0  0  0  0  0  0  0  0  0  0
    3.9303    4.3356   -0.6176 C   0  0  0  0  0  0  0  0  0  0  0  0
    0.6991    4.8145    1.2564 O   0  0  0  0  0  0  0  0  0  0  0  0
   -4.7467   -1.7937    2.4397 O   0  0  0  0  0  0  0  0  0  0  0  0
   -5.3542   -2.7407    3.2617 C   0  0  0  0  0  0  0  0  0  0  0  0
   -3.8050   -3.4406   -0.5146 O   0  0  0  0  0  0  0  0  0  0  0  0
    5.5731   -2.9668    0.6031 C   0  0  0  0  0  0  0  0  0  0  0  0
   -2.3810    1.1472   -2.5617 C   0  0  0  0  0  0  0  0  0  0  0  0
   -3.0648    3.1452   -1.6131 C   0  0  0  0  0  0  0  0  0  0  0  0
    5.2378   -2.5222   -0.4777 N   0  0  0  0  0  0  0  0  0  0  0  0
    6.1937   -2.0055   -1.3863 C   0  0  0  0  0  0  0  0  0  0  0  0
    6.0865   -0.5047   -1.5334 C   0  0  0  0  0  0  0  0  0  0  0  0
    5.2467    0.0404   -0.3812 C   0  0  0  0  0  0  0  0  0  0  0  0
    3.8347   -0.5634   -0.4816 C   0  0  0  0  0  0  0  0  0  0  0  0
    3.8810   -2.0310   -0.6854 C   0  0  2  0  0  0  0  0  0  0  0  0
    5.1754    1.5244   -0.5417 C   0  0  0  0  0  0  0  0  0  0  0  0
    4.1611    2.2011    0.3180 C   0  0  0  0  0  0  0  0  0  0  0  0
    2.8841    1.4548    0.4986 C   0  0  1  0  0  0  0  0  0  0  0  0
    3.1143   -0.0515    0.7107 C   0  0  0  0  0  0  0  0  0  0  0  0
    2.1580    1.8753    1.6092 O   0  0  0  0  0  0  0  0  0  0  0  0
    0.9109    2.3666    1.3171 C   0  0  0  0  0  0  0  0  0  0  0  0
    0.7349    3.6679    2.0709 C   0  0  0  0  0  0  0  0  0  0  0  0
   -0.5860    3.7382    2.8054 C   0  0  0  0  0  0  0  0  0  0  0  0
   -1.6624    3.3394    1.8518 C   0  0  0  0  0  0  0  0  0  0  0  0
   -1.5492    1.8830    1.5130 C   0  0  0  0  0  0  0  0  0  0  0  0
   -0.1330    1.4044    1.8211 C   0  0  0  0  0  0  0  0  0  0  0  0
   -1.7645    1.6552    0.0096 C   0  0  0  0  0  0  0  0  0  0  0  0
   -3.1723    1.3007   -0.3303 C   0  0  1  0  0  0  0  0  0  0  0  0
   -3.5354    1.7685   -1.6768 N   0  0  0  0  0  0  0  0  0  0  0  0
   -4.9698    1.7959   -1.8650 C   0  0  0  0  0  0  0  0  0  0  0  0
   -5.7262    1.1288   -0.7438 C   0  0  0  0  0  0  0  0  0  0  0  0
   -5.0287   -0.2227   -0.5868 C   0  0  0  0  0  0  0  0  0  0  0  0
   -3.6267   -0.0475   -0.0038 C   0  0  0  0  0  0  0  0  0  0  0  0
   -5.8080   -1.0888    0.3397 C   0  0  0  0  0  0  0  0  0  0  0  0
   -4.8802   -2.2036    0.7462 C   0  0  0  0  0  0  0  0  0  0  0  0
   -3.7740   -2.4411   -0.2623 C   0  0  0  0  0  0  0  0  0  0  0  0
   -2.8119   -1.2479   -0.3884 C   0  0  2  0  0  0  0  0  0  0  0  0
   -1.7492   -1.5120    0.3776 O   0  0  0  0  0  0  0  0  0  0  0  0
   -0.6378   -2.1353    0.0139 C   0  0  0  0  0  0  0  0  0  0  0  0
    0.1192   -1.5970   -1.1791 C   0  0  0  0  0  0  0  0  0  0  0  0
    1.1185   -2.5493   -1.7514 C   0  0  0  0  0  0  0  0  0  0  0  0
    1.7911   -3.4487   -0.8048 C   0  0  0  0  0  0  0  0  0  0  0  0
    0.8095   -4.1038    0.1051 C   0  0  0  0  0  0  0  0  0  0  0  0
   -0.6293   -3.6278   -0.0802 C   0  0  0  0  0  0  0  0  0  0  0  0
    2.8903   -2.8655    0.0386 C   0  0  0  0  0  0  0  0  0  0  0  0
    3.8588    3.4268   -0.2729 O   0  0  0  0  0  0  0  0  0  0  0  0
    4.1943    4.4958    0.5531 C   0  0  0  0  0  0  0  0  0  0  0  0
    0.8827    4.7695    1.2059 O   0  0  0  0  0  0  0  0  0  0  0  0
   -4.4297   -2.1371    2.0358 O   0  0  0  0  0  0  0  0  0  0  0  0
   -4.8692   -3.2173    2.8238 C   0  0  0  0  0  0  0  0  0  0  0  0
   -4.2886   -2.8283   -1.4929 O   0  0  0  0  0  0  0  0  0  0  0  0
    5.6268   -2.6383    0.8825 C   0  0  0  0  0  0  0  0  0  0  0  0
   -2.8231    1.0937   -2.7165 C   0  0  0  0  0  0  0  0  0  0  0  0
   -3.1219    3.1836   -1.7399 C   0  0  0  0  0  0  0  0  0  0  0  0
    5.6808   -2.7819    2.1278 H   0  0  0  0  0  0  0  0  0  0  0  0
    4.3853   -1.5927    2.4439 H   0  0  0  0  0  0  0  0  0  0  0  0
    6.5805   -1.2063    0.3257 H   0  0  0  0  0  0  0  0  0  0  0  0
    6.4132   -0.4806    1.9354 H   0  0  0  0  0  0  0  0  0  0  0  0
    4.2532    0.2842    1.6178 H   0  0  0  0  0  0  0  0  0  0  0  0
    4.3234    0.0427   -1.4284 H   0  0  0  0  0  0  0  0  0  0  0  0
    5.1433   -1.9651   -0.9035 H   0  0  0  0  0  0  0  0  0  0  0  0
    5.9599    1.9304    1.0432 H   0  0  0  0  0  0  0  0  0  0  0  0
    6.0476    1.2213   -0.6383 H   0  0  0  0  0  0  0  0  0  0  0  0
    4.2676    3.2137    0.4758 H   0  0  0  0  0  0  0  0  0  0  0  0
    2.2105    2.3226   -0.7672 H   0  0  0  0  0  0  0  0  0  0  0  0
    2.2965   -0.1226    0.7956 H   0  0  0  0  0  0  0  0  0  0  0  0
    1.8587    0.1175   -0.8996 H   0  0  0  0  0  0  0  0  0  0  0  0
    0.8574    2.9310    0.1093 H   0  0  0  0  0  0  0  0  0  0  0  0
    1.8068    3.6706    2.9024 H   0  0  0  0  0  0  0  0  0  0  0  0
   -0.4645    3.3392    3.4670 H   0  0  0  0  0  0  0  0  0  0  0  0
   -0.4463    5.1026    2.9375 H   0  0  0  0  0  0  0  0  0  0  0  0
   -0.8409    4.1252    0.5748 H   0  0  0  0  0  0  0  0  0  0  0  0
   -2.1638    4.2499    1.7560 H   0  0  0  0  0  0  0  0  0  0  0  0
   -2.0000    1.8430    2.2731 H   0  0  0  0  0  0  0  0  0  0  0  0
    0.2733    1.5690    2.7948 H   0  0  0  0  0  0  0  0  0  0  0  0
    0.0898    0.6899    1.2736 H   0  0  0  0  0  0  0  0  0  0  0  0
   -1.7609    2.4724   -0.5897 H   0  0  0  0  0  0  0  0  0  0  0  0
   -1.2161    0.8573   -0.1671 H   0  0  0  0  0  0  0  0  0  0  0  0
   -3.7029    1.5680    1.2395 H   0  0  0  0  0  0  0  0  0  0  0  0
   -5.9229    1.4190   -1.6047 H   0  0  0  0  0  0  0  0  0  0  0  0
   -6.2036    2.5481   -0.2685 H   0  0  0  0  0  0  0  0  0  0  0  0
   -6.9402    0.3079    0.2378 H   0  0  0  0  0  0  0  0  0  0  0  0
   -5.5471    0.6912    1.3503 H   0  0  0  0  0  0  0  0  0  0  0  0
   -5.1362   -0.4909   -1.3710 H   0  0  0  0  0  0  0  0  0  0  0  0
   -3.5445   -0.6692    1.2242 H   0  0  0  0  0  0  0  0  0  0  0  0
   -6.3842   -2.1760   -0.3171 H   0  0  0  0  0  0  0  0  0  0  0  0
   -5.7641   -1.7780    1.3169 H   0  0  0  0  0  0  0  0  0  0  0  0
   -4.8055   -3.7763   -0.3664 H   0  0  0  0  0  0  0  0  0  0  0  0
   -2.6361   -3.2284   -1.1133 H   0  0  0  0  0  0  0  0  0  0  0  0
   -2.3569   -0.6215   -1.5494 H   0  0  0  0  0  0  0  0  0  0  0  0
    0.3543   -1.3707    0.1904 H   0  0  0  0  0  0  0  0  0  0  0  0
   -1.1063   -1.9681   -2.4421 H   0  0  0  0  0  0  0  0  0  0  0  0
   -0.2021   -0.5517   -1.9194 H   0  0  0  0  0  0  0  0  0  0  0  0
    0.7620   -2.7111   -3.3590 H   0  0  0  0  0  0  0  0  0  0  0  0
    1.6709   -1.3405   -2.7762 H   0  0  0  0  0  0  0  0  0  0  0  0
    1.9050   -4.0345   -2.0820 H   0  0  0  0  0  0  0  0  0  0  0  0
    1.7757   -2.7498    0.6538 H   0  0  0  0  0  0  0  0  0  0  0  0
    1.7642   -4.4156    0.0834 H   0  0  0  0  0  0  0  0  0  0  0  0
   -0.3539   -4.0498   -0.9657 H   0  0  0  0  0  0  0  0  0  0  0  0
   -0.4016   -3.6986    0.8536 H   0  0  0  0  0  0  0  0  0  0  0  0
    3.9939   -3.4138   -1.9623 H   0  0  0  0  0  0  0  0  0  0  0  0
    3.4037   -1.8699   -2.5603 H   0  0  0  0  0  0  0  0  0  0  0  0
    3.6325    4.6019   -1.0958 H   0  0  0  0  0  0  0  0  0  0  0  0
    4.8419    4.5301   -2.4974 H   0  0  0  0  0  0  0  0  0  0  0  0
    5.3806    4.4290   -0.8031 H   0  0  0  0  0  0  0  0  0  0  0  0
    1.1358    5.8013    1.7974 H   0  0  0  0  0  0  0  0  0  0  0  0
   -3.4500   -5.1619    0.6916 H   0  0  0  0  0  0  0  0  0  0  0  0
   -3.4159   -4.7748    2.4837 H   0  0  0  0  0  0  0  0  0  0  0  0
   -4.9552   -4.8135    1.5785 H   0  0  0  0  0  0  0  0  0  0  0  0
   -3.4622   -2.5800   -3.0004 H   0  0  0  0  0  0  0  0  0  0  0  0
    4.1138   -4.5479   -0.2867 H   0  0  0  0  0  0  0  0  0  0  0  0
    5.7666   -3.7896    0.0166 H   0  0  0  0  0  0  0  0  0  0  0  0
    4.7879   -4.4354    1.3444 H   0  0  0  0  0  0  0  0  0  0  0  0
   -4.3529    1.3346   -2.7149 H   0  0  0  0  0  0  0  0  0  0  0  0
   -3.7885    3.0016   -2.5354 H   0  0  0  0  0  0  0  0  0  0  0  0
   -2.6829    1.6591   -2.2123 H   0  0  0  0  0  0  0  0  0  0  0  0
   -4.9329    3.9815   -0.6469 H   0  0  0  0  0  0  0  0  0  0  0  0
   -3.1753    3.9098   -0.6314 H   0  0  0  0  0  0  0  0  0  0  0  0
   -4.1923    3.4385    0.8590 H   0  0  0  0  0  0  0  0  0  0  0  0
    5.3501   -1.9786   -3.0151 H   0  0  0  0  0  0  0  0  0  0  0  0
    6.6966   -1.6475   -1.8988 H   0  0  0  0  0  0  0  0  0  0  0  0
    4.2365    0.0118   -2.6153 H   0  0  0  0  0  0  0  0  0  0  0  0
    5.9513    0.4565   -2.4230 H   0  0  0  0  0  0  0  0  0  0  0  0
    5.8849    0.4236   -0.0766 H   0  0  0  0  0  0  0  0  0  0  0  0
    4.4439   -0.8979    1.1330 H   0  0  0  0  0  0  0  0  0  0  0  0
    3.1616   -1.4288   -1.5741 H   0  0  0  0  0  0  0  0  0  0  0  0
    5.2030    2.3580   -1.0615 H   0  0  0  0  0  0  0  0  0  0  0  0
    3.5668    1.8148   -1.4690 H   0  0  0  0  0  0  0  0  0  0  0  0
    3.3515    3.2687    0.3451 H   0  0  0  0  0  0  0  0  0  0  0  0
    3.9018    0.9481    2.1835 H   0  0  0  0  0  0  0  0  0  0  0  0
    2.1080   -0.4065    1.1722 H   0  0  0  0  0  0  0  0  0  0  0  0
    2.3357    0.6429   -0.3409 H   0  0  0  0  0  0  0  0  0  0  0  0
    0.9707    2.2835    0.5287 H   0  0  0  0  0  0  0  0  0  0  0  0
    1.4612    4.0148    2.8798 H   0  0  0  0  0  0  0  0  0  0  0  0
   -0.7918    3.2843    3.4432 H   0  0  0  0  0  0  0  0  0  0  0  0
   -0.7363    4.9965    2.8546 H   0  0  0  0  0  0  0  0  0  0  0  0
   -2.5919    3.8266    1.6100 H   0  0  0  0  0  0  0  0  0  0  0  0
   -1.1677    3.8832    0.4919 H   0  0  0  0  0  0  0  0  0  0  0  0
   -2.3416    1.6066    2.0063 H   0  0  0  0  0  0  0  0  0  0  0  0
   -0.2746    1.3356    3.1324 H   0  0  0  0  0  0  0  0  0  0  0  0
   -0.0671    0.4507    1.5971 H   0  0  0  0  0  0  0  0  0  0  0  0
   -1.2148    2.3371   -0.6423 H   0  0  0  0  0  0  0  0  0  0  0  0
   -1.0103    0.6449   -0.1766 H   0  0  0  0  0  0  0  0  0  0  0  0
   -3.6504    1.9511    0.2011 H   0  0  0  0  0  0  0  0  0  0  0  0
   -5.1236    2.5928   -2.3485 H   0  0  0  0  0  0  0  0  0  0  0  0
   -4.9221    0.9273   -2.9152 H   0  0  0  0  0  0  0  0  0  0  0  0
   -6.5741    0.8851   -1.2947 H   0  0  0  0  0  0  0  0  0  0  0  0
   -5.6588    1.7561   -0.0500 H   0  0  0  0  0  0  0  0  0  0  0  0
   -4.8770   -0.7672   -1.5887 H   0  0  0  0  0  0  0  0  0  0  0  0
   -3.6591   -0.1032    1.1212 H   0  0  0  0  0  0  0  0  0  0  0  0
   -6.7274   -1.3869    0.0051 H   0  0  0  0  0  0  0  0  0  0  0  0
   -5.9670   -0.4013    1.2653 H   0  0  0  0  0  0  0  0  0  0  0  0
   -5.5288   -3.0931    0.8573 H   0  0  0  0  0  0  0  0  0  0  0  0
   -3.2747   -3.3929    0.3711 H   0  0  0  0  0  0  0  0  0  0  0  0
   -2.5263   -1.4370   -1.4072 H   0  0  0  0  0  0  0  0  0  0  0  0
    0.1411   -1.9928    0.8941 H   0  0  0  0  0  0  0  0  0  0  0  0
   -0.6367   -1.6118   -2.0145 H   0  0  0  0  0  0  0  0  0  0  0  0
    0.6224   -0.8917   -1.0152 H   0  0  0  0  0  0  0  0  0  0  0  0
    0.4453   -3.6165   -2.2456 H   0  0  0  0  0  0  0  0  0  0  0  0
    1.6480   -2.3577   -2.4883 H   0  0  0  0  0  0  0  0  0  0  0  0
    2.3307   -4.4287   -1.1872 H   0  0  0  0  0  0  0  0  0  0  0  0
    1.0960   -3.9086    1.3322 H   0  0  0  0  0  0  0  0  0  0  0  0
    0.9065   -5.3239    0.2915 H   0  0  0  0  0  0  0  0  0  0  0  0
   -0.9864   -4.1419   -0.8696 H   0  0  0  0  0  0  0  0  0  0  0  0
   -1.1422   -4.2464    0.9148 H   0  0  0  0  0  0  0  0  0  0  0  0
    2.4945   -2.3792    1.0473 H   0  0  0  0  0  0  0  0  0  0  0  0
    3.5620   -3.6440    0.4962 H   0  0  0  0  0  0  0  0  0  0  0  0
    5.9813    4.5097    1.9206 H   0  0  0  0  0  0  0  0  0  0  0  0
    5.0519    4.6410    0.3647 H   0  0  0  0  0  0  0  0  0  0  0  0
    4.1832    4.5631    1.9221 H   0  0  0  0  0  0  0  0  0  0  0  0
    0.8753    4.0342    0.1541 H   0  0  0  0  0  0  0  0  0  0  0  0
   -4.6023   -4.0625    2.6660 H   0  0  0  0  0  0  0  0  0  0  0  0
   -4.7107   -2.8458    4.0597 H   0  0  0  0  0  0  0  0  0  0  0  0
   -6.0390   -3.0504    2.9031 H   0  0  0  0  0  0  0  0  0  0  0  0
   -3.6320   -2.7765   -2.0056 H   0  0  0  0  0  0  0  0  0  0  0  0
    6.3330   -3.5925   -0.1387 H   0  0  0  0  0  0  0  0  0  0  0  0
    6.5651   -1.8599    0.1748 H   0  0  0  0  0  0  0  0  0  0  0  0
    5.2890   -2.7386    1.0446 H   0  0  0  0  0  0  0  0  0  0  0  0
   -3.2063    0.0218   -3.1788 H   0  0  0  0  0  0  0  0  0  0  0  0
   -2.3862    1.5103   -3.6498 H   0  0  0  0  0  0  0  0  0  0  0  0
   -1.6082    0.5467   -2.3901 H   0  0  0  0  0  0  0  0  0  0  0  0
   -1.8707    3.0651   -2.4157 H   0  0  0  0  0  0  0  0  0  0  0  0
   -3.5461    3.5045   -2.7011 H   0  0  0  0  0  0  0  0  0  0  0  0
   -2.9971    3.5934   -1.0292 H   0  0  0  0  0  0  0  0  0  0  0  0
    6.2562   -2.2064   -2.3809 H   0  0  0  0  0  0  0  0  0  0  0  0
    7.1911   -1.9844   -0.8897 H   0  0  0  0  0  0  0  0  0  0  0  0
    5.3416   -0.0573   -2.3005 H   0  0  0  0  0  0  0  0  0  0  0  0
    6.9204    0.2337   -1.5153 H   0  0  0  0  0  0  0  0  0  0  0  0
    5.8081   -0.2765    0.7222 H   0  0  0  0  0  0  0  0  0  0  0  0
    3.3109    0.1129   -0.9520 H   0  0  0  0  0  0  0  0  0  0  0  0
    3.7114   -1.9251   -1.7804 H   0  0  0  0  0  0  0  0  0  0  0  0
    5.7591    1.9672    0.7085 H   0  0  0  0  0  0  0  0  0  0  0  0
    5.5235    2.1208   -1.0404 H   0  0  0  0  0  0  0  0  0  0  0  0
    3.1130    2.0707   -0.7320 H   0  0  0  0  0  0  0  0  0  0  0  0
    4.1853    1.4339    2.0600 H   0  0  0  0  0  0  0  0  0  0  0  0
    3.8777   -0.7280    1.9620 H   0  0  0  0  0  0  0  0  0  0  0  0
    2.2697   -0.5555    1.2893 H   0  0  0  0  0  0  0  0  0  0  0  0
    1.2539    3.2720    1.1893 H   0  0  0  0  0  0  0  0  0  0  0  0
    0.5651    2.0334    3.8543 H   0  0  0  0  0  0  0  0  0  0  0  0
   -1.5844    2.4307    3.3809 H   0  0  0  0  0  0  0  0  0  0  0  0
   -1.1389    4.1678    3.4442 H   0  0  0  0  0  0  0  0  0  0  0  0
   -2.3689    3.6574    1.4243 H   0  0  0  0  0  0  0  0  0  0  0  0
   -0.6364    4.0547    0.9431 H   0  0  0  0  0  0  0  0  0  0  0  0
   -1.8565    1.3164    1.5469 H   0  0  0  0  0  0  0  0  0  0  0  0
    0.2090    0.4467    1.4024 H   0  0  0  0  0  0  0  0  0  0  0  0
    0.6002    1.5025   -0.0752 H   0  0  0  0  0  0  0  0  0  0  0  0
   -1.5989    2.7938   -0.9672 H   0  0  0  0  0  0  0  0  0  0  0  0
   -1.0539    1.1311   -1.0437 H   0  0  0  0  0  0  0  0  0  0  0  0
   -3.7157    2.1580    0.0189 H   0  0  0  0  0  0  0  0  0  0  0  0
   -5.5698    2.5234   -2.3164 H   0  0  0  0  0  0  0  0  0  0  0  0
   -5.3469    0.8373   -2.8450 H   0  0  0  0  0  0  0  0  0  0  0  0
   -6.7774    0.8345   -0.9575 H   0  0  0  0  0  0  0  0  0  0  0  0
   -5.6859    1.7629    0.0561 H   0  0  0  0  0  0  0  0  0  0  0  0
   -4.9631   -0.8359   -1.4417 H   0  0  0  0  0  0  0  0  0  0  0  0
   -3.6116    0.1799    1.0816 H   0  0  0  0  0  0  0  0  0  0  0  0
   -6.5869   -1.5058    0.2050 H   0  0  0  0  0  0  0  0  0  0  0  0
   -6.0244   -0.2579    1.3314 H   0  0  0  0  0  0  0  0  0  0  0  0
   -5.2467   -2.8583    1.4028 H   0  0  0  0  0  0  0  0  0  0  0  0
   -2.8080   -2.7305    1.2193 H   0  0  0  0  0  0  0  0  0  0  0  0
   -2.8747   -1.3705   -1.4129 H   0  0  0  0  0  0  0  0  0  0  0  0
    0.1206   -2.0338    0.7293 H   0  0  0  0  0  0  0  0  0  0  0  0
   -0.2129   -0.8762   -2.0026 H   0  0  0  0  0  0  0  0  0  0  0  0
    1.0615   -0.6612   -0.7764 H   0  0  0  0  0  0  0  0  0  0  0  0
    0.5903   -2.9861   -2.7066 H   0  0  0  0  0  0  0  0  0  0  0  0
    1.9220   -1.8575   -2.6322 H   0  0  0  0  0  0  0  0  0  0  0  0
    2.3542   -4.1845   -1.6578 H   0  0  0  0  0  0  0  0  0  0  0  0
    0.8725   -3.9797    0.7351 H   0  0  0  0  0  0  0  0  0  0  0  0
    0.6508   -5.1683   -0.5623 H   0  0  0  0  0  0  0  0  0  0  0  0
   -1.0182   -3.6104   -1.6490 H   0  0  0  0  0  0  0  0  0  0  0  0
   -1.3299   -4.0782    0.0124 H   0  0  0  0  0  0  0  0  0  0  0  0
    2.4165   -2.5006    0.8783 H   0  0  0  0  0  0  0  0  0  0  0  0
    3.4086   -3.7824    0.2446 H   0  0  0  0  0  0  0  0  0  0  0  0
    3.9878    3.9443   -1.3803 H   0  0  0  0  0  0  0  0  0  0  0  0
    2.3597    4.0479   -0.7141 H   0  0  0  0  0  0  0  0  0  0  0  0
    3.5279    5.2948   -0.2185 H   0  0  0  0  0  0  0  0  0  0  0  0
    1.4237    4.4768    2.7810 H   0  0  0  0  0  0  0  0  0  0  0  0
   -4.3411   -3.3817    3.3745 H   0  0  0  0  0  0  0  0  0  0  0  0
   -4.6558   -1.9547    4.5188 H   0  0  0  0  0  0  0  0  0  0  0  0
   -5.8795   -2.5143    3.3747 H   0  0  0  0  0  0  0  0  0  0  0  0
   -3.6215   -3.0223   -1.3995 H   0  0  0  0  0  0  0  0  0  0  0  0
    5.7928   -4.0682    0.6267 H   0  0  0  0  0  0  0  0  0  0  0  0
    6.5684   -2.5290    1.0190 H   0  0  0  0  0  0  0  0  0  0  0  0
    4.8307   -2.8837    1.5212 H   0  0  0  0  0  0  0  0  0  0  0  0
   -3.6230   -0.0237   -3.2549 H   0  0  0  0  0  0  0  0  0  0  0  0
   -2.9474    1.4840   -3.8851 H   0  0  0  0  0  0  0  0  0  0  0  0
   -2.0193    0.5157   -2.7292 H   0  0  0  0  0  0  0  0  0  0  0  0
   -2.3750    3.1712   -2.7881 H   0  0  0  0  0  0  0  0  0  0  0  0
   -4.0923    3.5092   -2.8952 H   0  0  0  0  0  0  0  0  0  0  0  0
   -3.3777    3.6875   -1.3027 H   0  0  0  0  0  0  0  0  0  0  0  0
    6.2486   -2.2284   -2.5085 H   0  0  0  0  0  0  0  0  0  0  0  0
    7.2125   -2.0798   -1.0166 H   0  0  0  0  0  0  0  0  0  0  0  0
    5.7021    0.0316   -2.4304 H   0  0  0  0  0  0  0  0  0  0  0  0
    7.0941    0.1487   -1.3356 H   0  0  0  0  0  0  0  0  0  0  0  0
    5.6608   -0.5107    0.5874 H   0  0  0  0  0  0  0  0  0  0  0  0
    3.4317    0.0606   -1.3723 H   0  0  0  0  0  0  0  0  0  0  0  0
    3.6991   -2.0867   -1.9458 H   0  0  0  0  0  0  0  0  0  0  0  0
    5.5652    1.6808    1.1040 H   0  0  0  0  0  0  0  0  0  0  0  0
    5.9295    2.0099   -0.6284 H   0  0  0  0  0  0  0  0  0  0  0  0
    3.7390    2.2481   -1.2016 H   0  0  0  0  0  0  0  0  0  0  0  0
    1.9197    1.3776   -0.2425 H   0  0  0  0  0  0  0  0  0  0  0  0
    3.7694   -0.2078    1.6024 H   0  0  0  0  0  0  0  0  0  0  0  0
    2.1617   -0.5845    0.9553 H   0  0  0  0  0  0  0  0  0  0  0  0
    0.6922    2.5150    0.3796 H   0  0  0  0  0  0  0  0  0  0  0  0
    1.5053    3.8974    2.8523 H   0  0  0  0  0  0  0  0  0  0  0  0
   -0.4755    3.3041    3.9831 H   0  0  0  0  0  0  0  0  0  0  0  0
   -0.8827    4.7950    3.1320 H   0  0  0  0  0  0  0  0  0  0  0  0
   -2.6917    3.1574    2.8288 H   0  0  0  0  0  0  0  0  0  0  0  0
   -1.9698    3.7723    1.3352 H   0  0  0  0  0  0  0  0  0  0  0  0
   -2.1604    1.0106    2.1671 H   0  0  0  0  0  0  0  0  0  0  0  0
    0.0153    1.5065    3.1713 H   0  0  0  0  0  0  0  0  0  0  0  0
    0.1293    0.3776    1.7576 H   0  0  0  0  0  0  0  0  0  0  0  0
   -0.8793    1.1153   -0.3123 H   0  0  0  0  0  0  0  0  0  0  0  0
   -1.5421    2.7295   -0.1487 H   0  0  0  0  0  0  0  0  0  0  0  0
   -3.7349    2.0010    0.3291 H   0  0  0  0  0  0  0  0  0  0  0  0
   -4.6721    0.7049   -2.8651 H   0  0  0  0  0  0  0  0  0  0  0  0
   -5.0625    2.4077   -2.5549 H   0  0  0  0  0  0  0  0  0  0  0  0
   -6.5218    0.7529   -1.4021 H   0  0  0  0  0  0  0  0  0  0  0  0
   -5.6934    1.7351   -0.1698 H   0  0  0  0  0  0  0  0  0  0  0  0
   -4.7498   -0.8937   -1.4537 H   0  0  0  0  0  0  0  0  0  0  0  0
   -3.7615   -0.0278    1.2777 H   0  0  0  0  0  0  0  0  0  0  0  0
   -6.5959   -1.5303   -0.1808 H   0  0  0  0  0  0  0  0  0  0  0  0
   -6.2505   -0.4564    1.1848 H   0  0  0  0  0  0  0  0  0  0  0  0
   -5.5079   -3.0576    1.0798 H   0  0  0  0  0  0  0  0  0  0  0  0
   -3.0565   -2.9764    1.2947 H   0  0  0  0  0  0  0  0  0  0  0  0
   -2.6918   -1.4623   -1.1696 H   0  0  0  0  0  0  0  0  0  0  0  0
    0.2688   -2.0125    0.7854 H   0  0  0  0  0  0  0  0  0  0  0  0
   -0.6565   -1.1319   -1.9199 H   0  0  0  0  0  0  0  0  0  0  0  0
    0.6855   -0.5324   -0.9137 H   0  0  0  0  0  0  0  0  0  0  0  0
    0.4880   -2.9525   -2.6553 H   0  0  0  0  0  0  0  0  0  0  0  0
    1.7975   -1.7874   -2.5074 H   0  0  0  0  0  0  0  0  0  0  0  0
    2.2262   -4.1310   -1.7468 H   0  0  0  0  0  0  0  0  0  0  0  0
    1.0299   -4.0659    0.8154 H   0  0  0  0  0  0  0  0  0  0  0  0
    0.6343   -5.1646   -0.5336 H   0  0  0  0  0  0  0  0  0  0  0  0
   -0.9612   -3.6645   -1.4167 H   0  0  0  0  0  0  0  0  0  0  0  0
   -1.2675   -4.1468    0.2732 H   0  0  0  0  0  0  0  0  0  0  0  0
    2.5766   -2.5467    0.8381 H   0  0  0  0  0  0  0  0  0  0  0  0
    3.4560   -3.8417    0.0860 H   0  0  0  0  0  0  0  0  0  0  0  0
    4.0280    5.3829   -0.3012 H   0  0  0  0  0  0  0  0  0  0  0  0
    4.7179    4.1399   -1.3981 H   0  0  0  0  0  0  0  0  0  0  0  0
    2.9451    4.2399   -1.1561 H   0  0  0  0  0  0  0  0  0  0  0  0
    0.9990    4.5491    0.3577 H   0  0  0  0  0  0  0  0  0  0  0  0
   -6.4638   -2.8024    3.0636 H   0  0  0  0  0  0  0  0  0  0  0  0
   -5.1110   -2.6109    4.3171 H   0  0  0  0  0  0  0  0  0  0  0  0
   -4.9879   -3.7754    2.9909 H   0  0  0  0  0  0  0  0  0  0  0  0
   -3.6329   -3.0794   -1.4242 H   0  0  0  0  0  0  0  0  0  0  0  0
    4.8186   -2.6903    1.3859 H   0  0  0  0  0  0  0  0  0  0  0  0
    5.5729   -4.0899    0.6040 H   0  0  0  0  0  0  0  0  0  0  0  0
    6.6064   -2.6883    0.9349 H   0  0  0  0  0  0  0  0  0  0  0  0
   -2.7736    0.1602   -2.9268 H   0  0  0  0  0  0  0  0  0  0  0  0
   -2.4342    1.7968   -3.4877 H   0  0  0  0  0  0  0  0  0  0  0  0
   -1.3285    1.1353   -2.2911 H   0  0  0  0  0  0  0  0  0  0  0  0
   -2.0556    3.3945   -1.9983 H   0  0  0  0  0  0  0  0  0  0  0  0
   -3.7644    3.6409   -2.3512 H   0  0  0  0  0  0  0  0  0  0  0  0
   -3.3129    3.6007   -0.6439 H   0  0  0  0  0  0  0  0  0  0  0  0
    6.0864   -2.5260   -2.3692 H   0  0  0  0  0  0  0  0  0  0  0  0
    7.2011   -2.2249   -1.0161 H   0  0  0  0  0  0  0  0  0  0  0  0
    5.5560   -0.2882   -2.4617 H   0  0  0  0  0  0  0  0  0  0  0  0
    7.0592   -0.0127   -1.5430 H   0  0  0  0  0  0  0  0  0  0  0  0
    5.7048   -0.1750    0.5981 H   0  0  0  0  0  0  0  0  0  0  0  0
    3.3898   -0.0313   -1.3764 H   0  0  0  0  0  0  0  0  0  0  0  0
    3.7113   -2.2167   -1.7910 H   0  0  0  0  0  0  0  0  0  0  0  0
    6.1826    1.9330   -0.2542 H   0  0  0  0  0  0  0  0  0  0  0  0
    5.0543    1.7538   -1.6204 H   0  0  0  0  0  0  0  0  0  0  0  0
    4.5943    2.4221    1.3171 H   0  0  0  0  0  0  0  0  0  0  0  0
    2.2490    1.5428   -0.3986 H   0  0  0  0  0  0  0  0  0  0  0  0
    3.7899   -0.0906    1.6114 H   0  0  0  0  0  0  0  0  0  0  0  0
    2.1263   -0.4536    0.9135 H   0  0  0  0  0  0  0  0  0  0  0  0
    0.8439    2.5168    0.2189 H   0  0  0  0  0  0  0  0  0  0  0  0
    1.5254    3.7751    2.8410 H   0  0  0  0  0  0  0  0  0  0  0  0
   -0.5885    3.0452    3.6617 H   0  0  0  0  0  0  0  0  0  0  0  0
   -0.6937    4.8047    3.1357 H   0  0  0  0  0  0  0  0  0  0  0  0
   -2.6814    3.5847    2.2683 H   0  0  0  0  0  0  0  0  0  0  0  0
   -1.5086    3.9067    0.9048 H   0  0  0  0  0  0  0  0  0  0  0  0
   -2.2327    1.2379    2.0993 H   0  0  0  0  0  0  0  0  0  0  0  0
    0.0327    1.2625    2.9078 H   0  0  0  0  0  0  0  0  0  0  0  0
   -0.0561    0.4062    1.3652 H   0  0  0  0  0  0  0  0  0  0  0  0
   -1.4922    2.6261   -0.4533 H   0  0  0  0  0  0  0  0  0  0  0  0
   -1.0527    0.9214   -0.3804 H   0  0  0  0  0  0  0  0  0  0  0  0
   -3.7893    1.9969    0.3280 H   0  0  0  0  0  0  0  0  0  0  0  0
   -5.3947    2.7848   -2.0140 H   0  0  0  0  0  0  0  0  0  0  0  0
   -5.2205    1.2057   -2.7953 H   0  0  0  0  0  0  0  0  0  0  0  0
   -6.7520    0.8916   -1.0905 H   0  0  0  0  0  0  0  0  0  0  0  0
   -5.7952    1.6963    0.1761 H   0  0  0  0  0  0  0  0  0  0  0  0
   -4.9801   -0.6162   -1.6399 H   0  0  0  0  0  0  0  0  0  0  0  0
   -3.7477   -0.1078    1.1197 H   0  0  0  0  0  0  0  0  0  0  0  0
   -6.7604   -1.4448   -0.1003 H   0  0  0  0  0  0  0  0  0  0  0  0
   -6.0472   -0.4933    1.2444 H   0  0  0  0  0  0  0  0  0  0  0  0
   -5.5033   -3.1457    0.6752 H   0  0  0  0  0  0  0  0  0  0  0  0
   -3.2729   -3.3457    0.1371 H   0  0  0  0  0  0  0  0  0  0  0  0
   -2.5414   -1.2412   -1.4668 H   0  0  0  0  0  0  0  0  0  0  0  0
    0.1004   -1.9352    0.8696 H   0  0  0  0  0  0  0  0  0  0  0  0
   -0.6189   -1.3426   -1.9625 H   0  0  0  0  0  0  0  0  0  0  0  0
    0.6481   -0.6382   -0.9551 H   0  0  0  0  0  0  0  0  0  0  0  0
    0.5475   -3.2030   -2.4765 H   0  0  0  0  0  0  0  0  0  0  0  0
    1.7995   -1.9650   -2.3996 H   0  0  0  0  0  0  0  0  0  0  0  0
    2.2675   -4.2766   -1.4120 H   0  0  0  0  0  0  0  0  0  0  0  0
    1.0508   -3.9179    1.1922 H   0  0  0  0  0  0  0  0  0  0  0  0
    0.7965   -5.2113    0.0108 H   0  0  0  0  0  0  0  0  0  0  0  0
   -0.9749   -3.9433   -1.0754 H   0  0  0  0  0  0  0  0  0  0  0  0
   -1.1452   -4.1380    0.7619 H   0  0  0  0  0  0  0  0  0  0  0  0
    2.5097   -2.4279    0.9893 H   0  0  0  0  0  0  0  0  0  0  0  0
    3.4472   -3.7786    0.4291 H   0  0  0  0  0  0  0  0  0  0  0  0
    5.2858    4.5101    0.7914 H   0  0  0  0  0  0  0  0  0  0  0  0
    3.9093    5.4533    0.0760 H   0  0  0  0  0  0  0  0  0  0  0  0
    3.5883    4.4022    1.4774 H   0  0  0  0  0  0  0  0  0  0  0  0
    0.9560    4.4816    0.2692 H   0  0  0  0  0  0  0  0  0  0  0  0
   -4.5115   -4.1734    2.4003 H   0  0  0  0  0  0  0  0  0  0  0  0
   -4.6436   -3.0631    3.8777 H   0  0  0  0  0  0  0  0  0  0  0  0
   -5.9951   -3.2661    2.7494 H   0  0  0  0  0  0  0  0  0  0  0  0
   -3.6129   -3.3852   -1.9349 H   0  0  0  0  0  0  0  0  0  0  0  0
    6.6887   -2.3086    1.0813 H   0  0  0  0  0  0  0  0  0  0  0  0
    5.6521   -3.7418    1.1267 H   0  0  0  0  0  0  0  0  0  0  0  0
    4.9172   -2.2066    1.6095 H   0  0  0  0  0  0  0  0  0  0  0  0
   -3.3451    0.2433   -3.1692 H   0  0  0  0  0  0  0  0  0  0  0  0
   -2.6545    1.8210   -3.5655 H   0  0  0  0  0  0  0  0  0  0  0  0
   -1.8012    0.8613   -2.3487 H   0  0  0  0  0  0  0  0  0  0  0  0
   -2.1467    3.2975   -2.2515 H   0  0  0  0  0  0  0  0  0  0  0  0
   -3.8394    3.7480   -2.4109 H   0  0  0  0  0  0  0  0  0  0  0  0
   -3.2051    3.6804   -0.7677 H   0  0  0  0  0  0  0  0  0  0  0  0
  1  2  1  0
  2  3  1  0
  3  4  1  0
  4  5  1  0
  1  6  1  0
  5  6  1  0
  4  7  1  0
  7  8  1  0
  8  9  1  0
  5 10  1  0
  9 10  1  0
  9 11  1  0
 11 12  1  0
 12 13  1  0
 13 14  1  0
 14 15  1  0
 15 16  1  0
 12 17  1  0
 16 17  1  0
 16 18  1  0
 18 19  1  0
 19 20  1  0
 20 21  1  0
 21 22  1  0
 22 23  1  0
 19 24  1  0
 23 24  1  0
 23 25  1  0
 25 26  1  0
 26 27  1  0
 24 28  1  0
 27 28  1  0
 28 29  1  0
 29 30  1  0
 30 31  1  0
 31 32  1  0
 32 33  1  0
 33 34  1  0
 30 35  1  0
 34 35  1  0
  6 36  1  0
 33 36  1  0
  8 37  1  0
 37 38  1  0
 13 39  1  0
 26 40  1  0
 40 41  1  0
 27 42  1  0
  1 43  1  0
 20 44  1  0
 20 45  1  0
 46 47  1  0
 47 48  1  0
 48 49  1  0
 49 50  1  0
 46 51  1  0
 50 51  1  0
 49 52  1  0
 52 53  1  0
 53 54  1  0
 50 55  1  0
 54 55  1  0
 54 56  1  0
 56 57  1  0
 57 58  1  0
 58 59  1  0
 59 60  1  0
 60 61  1  0
 57 62  1  0
 61 62  1  0
 61 63  1  0
 63 64  1  0
 64 65  1  0
 65 66  1  0
 66 67  1  0
 67 68  1  0
 64 69  1  0
 68 69  1  0
 68 70  1  0
 70 71  1  0
 71 72  1  0
 69 73  1  0
 72 73  1  0
 73 74  1  0
 74 75  1  0
 75 76  1  0
 76 77  1  0
 77 78  1  0
 78 79  1  0
 75 80  1  0
 79 80  1  0
 51 81  1  0
 78 81  1  0
 53 82  1  0
 82 83  1  0
 58 84  1  0
 71 85  1  0
 85 86  1  0
 72 87  1  0
 46 88  1  0
 65 89  1  0
 65 90  1  0
 91 92  1  0
 92 93  1  0
 93 94  1  0
 94 95  1  0
 91 96  1  0
 95 96  1  0
 94 97  1  0
 97 98  1  0
 98 99  1  0
 95100  1  0
 99100  1  0
 99101  1  0
101102  1  0
102103  1  0
103104  1  0
104105  1  0
105106  1  0
102107  1  0
106107  1  0
106108  1  0
108109  1  0
109110  1  0
110111  1  0
111112  1  0
112113  1  0
109114  1  0
113114  1  0
113115  1  0
115116  1  0
116117  1  0
114118  1  0
117118  1  0
118119  1  0
119120  1  0
120121  1  0
121122  1  0
122123  1  0
123124  1  0
120125  1  0
124125  1  0
 96126  1  0
123126  1  0
 98127  1  0
127128  1  0
103129  1  0
116130  1  0
130131  1  0
117132  1  0
 91133  1  0
110134  1  0
110135  1  0
136137  1  0
137138  1  0
138139  1  0
139140  1  0
136141  1  0
140141  1  0
139142  1  0
142143  1  0
143144  1  0
140145  1  0
144145  1  0
144146  1  0
146147  1  0
147148  1  0
148149  1  0
149150  1  0
150151  1  0
147152  1  0
151152  1  0
151153  1  0
153154  1  0
154155  1  0
155156  1  0
156157  1  0
157158  1  0
154159  1  0
158159  1  0
158160  1  0
160161  1  0
161162  1  0
159163  1  0
162163  1  0
163164  1  0
164165  1  0
165166  1  0
166167  1  0
167168  1  0
168169  1  0
165170  1  0
169170  1  0
141171  1  0
168171  1  0
143172  1  0
172173  1  0
148174  1  0
161175  1  0
175176  1  0
162177  1  0
136178  1  0
155179  1  0
155180  1  0
181182  1  0
182183  1  0
183184  1  0
184185  1  0
181186  1  0
185186  1  0
184187  1  0
187188  1  0
188189  1  0
185190  1  0
189190  1  0
189191  1  0
191192  1  0
192193  1  0
193194  1  0
194195  1  0
195196  1  0
192197  1  0
196197  1  0
196198  1  0
198199  1  0
199200  1  0
200201  1  0
201202  1  0
202203  1  0
199204  1  0
203204  1  0
203205  1  0
205206  1  0
206207  1  0
204208  1  0
207208  1  0
208209  1  0
209210  1  0
210211  1  0
211212  1  0
212213  1  0
213214  1  0
210215  1  0
214215  1  0
186216  1  0
213216  1  0
188217  1  0
217218  1  0
193219  1  0
206220  1  0
220221  1  0
207222  1  0
181223  1  0
200224  1  0
200225  1  0
  2226  1  0
  2227  1  0
  3228  1  0
  3229  1  0
  4230  1  0
  5231  1  0
  6232  1  6
  7233  1  0
  7234  1  0
  8235  1  0
  9236  1  6
 10237  1  0
 10238  1  0
 12239  1  6
 13240  1  0
 14241  1  0
 14242  1  0
 15243  1  0
 15244  1  0
 16245  1  1
 17246  1  0
 17247  1  0
 18248  1  0
 18249  1  0
 19250  1  1
 21251  1  0
 21252  1  0
 22253  1  0
 22254  1  0
 23255  1  0
 24256  1  1
 25257  1  0
 25258  1  0
 26259  1  0
 27260  1  6
 28261  1  6
 30262  1  0
 31263  1  0
 31264  1  0
 32265  1  0
 32266  1  0
 33267  1  0
 34268  1  0
 34269  1  0
 35270  1  0
 35271  1  0
 36272  1  0
 36273  1  0
 38274  1  0
 38275  1  0
 38276  1  0
 39277  1  0
 41278  1  0
 41279  1  0
 41280  1  0
 42281  1  0
 43282  1  0
 43283  1  0
 43284  1  0
 44285  1  0
 44286  1  0
 44287  1  0
 45288  1  0
 45289  1  0
 45290  1  0
 47291  1  0
 47292  1  0
 48293  1  0
 48294  1  0
 49295  1  0
 50296  1  1
 51297  1  6
 52298  1  0
 52299  1  0
 53300  1  0
 54301  1  0
 55302  1  0
 55303  1  0
 57304  1  0
 58305  1  0
 59306  1  0
 59307  1  0
 60308  1  0
 60309  1  0
 61310  1  0
 62311  1  0
 62312  1  0
 63313  1  0
 63314  1  0
 64315  1  1
 66316  1  0
 66317  1  0
 67318  1  0
 67319  1  0
 68320  1  0
 69321  1  1
 70322  1  0
 70323  1  0
 71324  1  0
 72325  1  0
 73326  1  6
 75327  1  0
 76328  1  0
 76329  1  0
 77330  1  0
 77331  1  0
 78332  1  0
 79333  1  0
 79334  1  0
 80335  1  0
 80336  1  0
 81337  1  0
 81338  1  0
 83339  1  0
 83340  1  0
 83341  1  0
 84342  1  0
 86343  1  0
 86344  1  0
 86345  1  0
 87346  1  0
 88347  1  0
 88348  1  0
 88349  1  0
 89350  1  0
 89351  1  0
 89352  1  0
 90353  1  0
 90354  1  0
 90355  1  0
 92356  1  0
 92357  1  0
 93358  1  0
 93359  1  0
 94360  1  0
 95361  1  0
 96362  1  6
 97363  1  0
 97364  1  0
 98365  1  0
 99366  1  0
100367  1  0
100368  1  0
102369  1  0
103370  1  0
104371  1  0
104372  1  0
105373  1  0
105374  1  0
106375  1  1
107376  1  0
107377  1  0
108378  1  0
108379  1  0
109380  1  1
111381  1  0
111382  1  0
112383  1  0
112384  1  0
113385  1  0
114386  1  1
115387  1  0
115388  1  0
116389  1  0
117390  1  0
118391  1  6
120392  1  0
121393  1  0
121394  1  0
122395  1  0
122396  1  0
123397  1  0
124398  1  0
124399  1  0
125400  1  0
125401  1  0
126402  1  0
126403  1  0
128404  1  0
128405  1  0
128406  1  0
129407  1  0
131408  1  0
131409  1  0
131410  1  0
132411  1  0
133412  1  0
133413  1  0
133414  1  0
134415  1  0
134416  1  0
134417  1  0
135418  1  0
135419  1  0
135420  1  0
137421  1  0
137422  1  0
138423  1  0
138424  1  0
139425  1  0
140426  1  0
141427  1  6
142428  1  0
142429  1  0
143430  1  6
144431  1  6
145432  1  0
145433  1  0
147434  1  6
148435  1  0
149436  1  0
149437  1  0
150438  1  0
150439  1  0
151440  1  0
152441  1  0
152442  1  0
153443  1  0
153444  1  0
154445  1  1
156446  1  0
156447  1  0
157448  1  0
157449  1  0
158450  1  0
159451  1  1
160452  1  0
160453  1  0
161454  1  0
162455  1  0
163456  1  6
165457  1  0
166458  1  0
166459  1  0
167460  1  0
167461  1  0
168462  1  0
169463  1  0
169464  1  0
170465  1  0
170466  1  0
171467  1  0
171468  1  0
173469  1  0
173470  1  0
173471  1  0
174472  1  0
176473  1  0
176474  1  0
176475  1  0
177476  1  0
178477  1  0
178478  1  0
178479  1  0
179480  1  0
179481  1  0
179482  1  0
180483  1  0
180484  1  0
180485  1  0
182486  1  0
182487  1  0
183488  1  0
183489  1  0
184490  1  0
185491  1  0
186492  1  6
187493  1  0
187494  1  0
188495  1  0
189496  1  6
190497  1  0
190498  1  0
192499  1  0
193500  1  0
194501  1  0
194502  1  0
195503  1  0
195504  1  0
196505  1  0
197506  1  0
197507  1  0
198508  1  0
198509  1  0
199510  1  1
201511  1  0
201512  1  0
202513  1  0
202514  1  0
203515  1  0
204516  1  0
205517  1  0
205518  1  0
206519  1  0
207520  1  0
208521  1  6
210522  1  0
211523  1  0
211524  1  0
212525  1  0
212526  1  0
213527  1  0
214528  1  0
214529  1  0
215530  1  0
215531  1  0
216532  1  0
216533  1  0
218534  1  0
218535  1  0
218536  1  0
219537  1  0
221538  1  0
221539  1  0
221540  1  0
222541  1  0
223542  1  0
223543  1  0
223544  1  0
224545  1  0
224546  1  0
224547  1  0
225548  1  0
225549  1  0
225550  1  0
M  CHG  5  20   1  65   1 110   1 155   1 200   1
M  END
>  <PDBID>  (1) 
2XYT

>  <PDB ID>  (1) 
2XYT

>  <Generic Name>  (1) 
Tubocurarine

>  <Brand Name>  (1) 
Tubocurarine Chloride Inj 3mg/ml#Tubocurarine Chloride Inj 3mg/ml USP#Tubarine

>  <DrugBank ID>  (1) 
DB01199

>  <ATC Codes>  (1) 
M03AA02

>  <Ligand ID>  (1) 
TC9,TUB

>  <Target Name>  (1) 
Neuronal acetylcholine receptor subunit alpha-2

>  <UniProt ID>  (1) 
Q15822

>  <PDB ID.1>  (1) 
2XYT

>  <Seq. Identity>  (1) 
31%

$$$$
