PDB_DB00696_03
     RDKit          3D

100107  0  0  0  0  0  0  0  0999 V2000
   -7.8097    0.8614    1.1165 C   0  0  0  0  0  0  0  0  0  0  0  0
   -8.5831    0.7669   -0.1168 N   0  0  0  0  0  0  0  0  0  0  0  0
   -0.8893    0.2811   -0.3918 O   0  0  0  0  0  0  0  0  0  0  0  0
   -5.4384   -0.4874   -2.6300 C   0  0  0  0  0  0  0  0  0  0  0  0
   -6.6905    0.0956   -3.3059 C   0  0  0  0  0  0  0  0  0  0  0  0
   -7.6040    0.7833   -2.3585 C   0  0  0  0  0  0  0  0  0  0  0  0
   -7.7695    0.0320   -1.0593 C   0  0  0  0  0  0  0  0  0  0  0  0
   -6.4194   -0.1264   -0.4561 C   0  0  0  0  0  0  0  0  0  0  0  0
   -4.4167   -1.6092    2.6472 C   0  0  0  0  0  0  0  0  0  0  0  0
   -0.8993   -1.0644   -0.6073 C   0  0  0  0  0  0  0  0  0  0  0  0
    1.1208   -0.7883    0.7099 C   0  0  2  0  0  0  0  0  0  0  0  0
    2.5116   -1.3900    0.7956 C   0  0  0  0  0  0  0  0  0  0  0  0
    3.4734    0.8244    0.5557 C   0  0  2  0  0  0  0  0  0  0  0  0
   -4.0419   -1.3988    1.2827 N   0  0  0  0  0  0  0  0  0  0  0  0
   -6.4341    1.0251    0.5671 C   0  0  0  0  0  0  0  0  0  0  0  0
    1.2575    0.2061   -0.2713 O   0  0  0  0  0  0  0  0  0  0  0  0
    3.8704    1.8345   -0.4546 C   0  0  0  0  0  0  0  0  0  0  0  0
    3.6560    2.5539   -2.6991 C   0  0  0  0  0  0  0  0  0  0  0  0
    4.4608    1.5020   -3.3906 C   0  0  0  0  0  0  0  0  0  0  0  0
    3.9425    0.1670   -2.8374 C   0  0  0  0  0  0  0  0  0  0  0  0
    2.7045    0.6157   -2.1202 C   0  0  1  0  0  0  0  0  0  0  0  0
    2.2804   -0.3219   -1.0733 C   0  0  1  0  0  0  0  0  0  0  0  0
    0.7739   -0.2859    2.0512 C   0  0  0  0  0  0  0  0  0  0  0  0
    4.3618    0.8554    1.7468 C   0  0  0  0  0  0  0  0  0  0  0  0
    5.8086    0.5900    1.5114 C   0  0  0  0  0  0  0  0  0  0  0  0
    6.4994    0.6419    2.8715 C   0  0  0  0  0  0  0  0  0  0  0  0
   -5.3175    0.7121    1.4811 C   0  0  0  0  0  0  0  0  0  0  0  0
    0.1670   -1.7242    0.1610 N   0  0  0  0  0  0  0  0  0  0  0  0
    2.9310   -1.6257    2.0667 O   0  0  0  0  0  0  0  0  0  0  0  0
    7.9859    0.6874    2.6070 C   0  0  0  0  0  0  0  0  0  0  0  0
    8.4162   -0.5352    1.8615 C   0  0  0  0  0  0  0  0  0  0  0  0
    7.6376   -0.6760    0.5832 C   0  0  0  0  0  0  0  0  0  0  0  0
    6.1342   -0.7180    0.9027 C   0  0  0  0  0  0  0  0  0  0  0  0
   -4.1625    0.0136    0.8779 C   0  0  2  0  0  0  0  0  0  0  0  0
    3.2893   -0.4957   -0.0082 N   0  0  0  0  0  0  0  0  0  0  0  0
    5.1284    1.7348   -0.9784 O   0  0  0  0  0  0  0  0  0  0  0  0
   -2.5906   -1.6583    1.1897 C   0  0  0  0  0  0  0  0  0  0  0  0
    2.9547    1.9158   -1.5804 N   0  0  0  0  0  0  0  0  0  0  0  0
    2.0086   -1.6069   -1.5143 O   0  0  0  0  0  0  0  0  0  0  0  0
   -2.2263   -1.7462   -0.2477 C   0  0  1  0  0  0  0  0  0  0  0  0
   -3.3197   -1.2070   -1.1518 C   0  0  0  0  0  0  0  0  0  0  0  0
   -3.9975    0.0384   -0.5987 C   0  0  1  0  0  0  0  0  0  0  0  0
   -5.2710    0.2619   -1.3595 C   0  0  0  0  0  0  0  0  0  0  0  0
   -8.0650    1.7795    1.6811 H   0  0  0  0  0  0  0  0  0  0  0  0
   -7.9183   -0.0484    1.7453 H   0  0  0  0  0  0  0  0  0  0  0  0
   -9.4222    0.1958    0.1056 H   0  0  0  0  0  0  0  0  0  0  0  0
   -1.1575    0.6350    0.4481 H   0  0  0  0  0  0  0  0  0  0  0  0
   -4.5848   -0.4032   -3.3108 H   0  0  0  0  0  0  0  0  0  0  0  0
   -5.7200   -1.5676   -2.4484 H   0  0  0  0  0  0  0  0  0  0  0  0
   -7.2008   -0.6709   -3.9160 H   0  0  0  0  0  0  0  0  0  0  0  0
   -6.2976    0.8815   -4.0136 H   0  0  0  0  0  0  0  0  0  0  0  0
   -7.3332    1.8432   -2.1476 H   0  0  0  0  0  0  0  0  0  0  0  0
   -8.6155    0.8242   -2.8219 H   0  0  0  0  0  0  0  0  0  0  0  0
   -8.2182   -0.9697   -1.3074 H   0  0  0  0  0  0  0  0  0  0  0  0
   -6.2602   -1.0964    0.0515 H   0  0  0  0  0  0  0  0  0  0  0  0
   -4.1022   -0.7950    3.3245 H   0  0  0  0  0  0  0  0  0  0  0  0
   -3.8560   -2.5196    2.9929 H   0  0  0  0  0  0  0  0  0  0  0  0
   -5.5027   -1.8781    2.7819 H   0  0  0  0  0  0  0  0  0  0  0  0
   -0.7197   -1.2819   -1.6650 H   0  0  0  0  0  0  0  0  0  0  0  0
    2.4639   -2.3591    0.2604 H   0  0  0  0  0  0  0  0  0  0  0  0
    2.4490    1.1293    0.9195 H   0  0  0  0  0  0  0  0  0  0  0  0
   -6.3631    1.9772    0.0337 H   0  0  0  0  0  0  0  0  0  0  0  0
    3.7997    2.8491    0.0391 H   0  0  0  0  0  0  0  0  0  0  0  0
    2.8401    2.9245   -3.3748 H   0  0  0  0  0  0  0  0  0  0  0  0
    4.3105    3.3661   -2.3861 H   0  0  0  0  0  0  0  0  0  0  0  0
    5.5427    1.5819   -3.2665 H   0  0  0  0  0  0  0  0  0  0  0  0
    4.2021    1.4937   -4.4895 H   0  0  0  0  0  0  0  0  0  0  0  0
    3.6345   -0.5216   -3.6540 H   0  0  0  0  0  0  0  0  0  0  0  0
    4.6922   -0.3367   -2.2159 H   0  0  0  0  0  0  0  0  0  0  0  0
    1.8982    0.6919   -2.8684 H   0  0  0  0  0  0  0  0  0  0  0  0
    0.4117    0.7551    2.1340 H   0  0  0  0  0  0  0  0  0  0  0  0
    0.0369   -0.9394    2.5550 H   0  0  0  0  0  0  0  0  0  0  0  0
    1.6682   -0.3180    2.7647 H   0  0  0  0  0  0  0  0  0  0  0  0
    4.0307    0.3120    2.6344 H   0  0  0  0  0  0  0  0  0  0  0  0
    4.3322    1.9448    2.0910 H   0  0  0  0  0  0  0  0  0  0  0  0
    6.3280    1.4265    0.9469 H   0  0  0  0  0  0  0  0  0  0  0  0
    6.1253    1.4543    3.5069 H   0  0  0  0  0  0  0  0  0  0  0  0
    6.3208   -0.3610    3.3658 H   0  0  0  0  0  0  0  0  0  0  0  0
   -5.0178    1.6888    1.9659 H   0  0  0  0  0  0  0  0  0  0  0  0
   -5.6965    0.0983    2.3272 H   0  0  0  0  0  0  0  0  0  0  0  0
   -0.2813   -2.3099    0.9118 H   0  0  0  0  0  0  0  0  0  0  0  0
    3.6727   -2.2773    2.0544 H   0  0  0  0  0  0  0  0  0  0  0  0
    8.5697    0.7318    3.5572 H   0  0  0  0  0  0  0  0  0  0  0  0
    8.1788    1.6001    2.0244 H   0  0  0  0  0  0  0  0  0  0  0  0
    8.2902   -1.4402    2.4824 H   0  0  0  0  0  0  0  0  0  0  0  0
    9.4760   -0.4222    1.5975 H   0  0  0  0  0  0  0  0  0  0  0  0
    7.9576   -1.5156   -0.0305 H   0  0  0  0  0  0  0  0  0  0  0  0
    7.8268    0.2499   -0.0188 H   0  0  0  0  0  0  0  0  0  0  0  0
    5.9722   -1.5607    1.5905 H   0  0  0  0  0  0  0  0  0  0  0  0
    5.6488   -0.9090   -0.0753 H   0  0  0  0  0  0  0  0  0  0  0  0
   -3.2524    0.4907    1.3416 H   0  0  0  0  0  0  0  0  0  0  0  0
    5.6084    2.6082   -1.0106 H   0  0  0  0  0  0  0  0  0  0  0  0
   -2.3505   -2.5981    1.7491 H   0  0  0  0  0  0  0  0  0  0  0  0
   -2.1177   -0.7687    1.6296 H   0  0  0  0  0  0  0  0  0  0  0  0
    1.9023   -1.6499   -2.4903 H   0  0  0  0  0  0  0  0  0  0  0  0
   -2.0853   -2.8107   -0.5144 H   0  0  0  0  0  0  0  0  0  0  0  0
   -4.0173   -2.0161   -1.3561 H   0  0  0  0  0  0  0  0  0  0  0  0
   -2.8098   -0.9525   -2.1127 H   0  0  0  0  0  0  0  0  0  0  0  0
   -3.3141    0.8831   -0.9016 H   0  0  0  0  0  0  0  0  0  0  0  0
   -5.4043    1.3458   -1.5925 H   0  0  0  0  0  0  0  0  0  0  0  0
  1  2  1  0
  4  5  1  0
  5  6  1  0
  2  7  1  0
  6  7  1  0
  7  8  1  0
  3 10  1  0
 11 12  1  0
  9 14  1  0
  1 15  1  0
  8 15  1  0
 11 16  1  0
 13 17  1  0
 18 19  1  0
 19 20  1  0
 20 21  1  0
 16 22  1  0
 21 22  1  0
 11 23  1  0
 13 24  1  0
 24 25  1  0
 25 26  1  0
 15 27  1  0
 10 28  1  0
 11 28  1  6
 12 29  1  0
 26 30  1  0
 30 31  1  0
 31 32  1  0
 25 33  1  0
 32 33  1  0
 14 34  1  0
 27 34  1  0
 12 35  1  0
 13 35  1  0
 22 35  1  0
 17 36  1  0
 14 37  1  0
 17 38  1  0
 18 38  1  0
 21 38  1  0
 22 39  1  6
 10 40  1  0
 37 40  1  0
 40 41  1  0
 34 42  1  0
 41 42  1  0
  4 43  1  0
  8 43  1  0
 42 43  1  0
  1 44  1  0
  1 45  1  0
  2 46  1  0
  3 47  1  0
  4 48  1  0
  4 49  1  0
  5 50  1  0
  5 51  1  0
  6 52  1  0
  6 53  1  0
  7 54  1  0
  8 55  1  0
  9 56  1  0
  9 57  1  0
  9 58  1  0
 10 59  1  0
 12 60  1  0
 13 61  1  1
 15 62  1  0
 17 63  1  0
 18 64  1  0
 18 65  1  0
 19 66  1  0
 19 67  1  0
 20 68  1  0
 20 69  1  0
 21 70  1  6
 23 71  1  0
 23 72  1  0
 23 73  1  0
 24 74  1  0
 24 75  1  0
 25 76  1  0
 26 77  1  0
 26 78  1  0
 27 79  1  0
 27 80  1  0
 28 81  1  0
 29 82  1  0
 30 83  1  0
 30 84  1  0
 31 85  1  0
 31 86  1  0
 32 87  1  0
 32 88  1  0
 33 89  1  0
 33 90  1  0
 34 91  1  1
 36 92  1  0
 37 93  1  0
 37 94  1  0
 39 95  1  0
 40 96  1  6
 41 97  1  0
 41 98  1  0
 42 99  1  1
 43100  1  0
M  END
>  <PDBID>  (1) 
4IB4

>  <PDB ID>  (1) 
4IB4

>  <Generic Name>  (1) 
Ergotamine

>  <Brand Name>  (1) 
Cafergot#Cafergot Sup#Cafergot Tab#Ergodryl Cap#Ergomar#Ergomar Slt 2mg#Ergomar Sublingual#Ergotamine#Ergotamine Tartrate and Caffeine#Gravergol Capsules#Megral Tabs#Migergot#Anervan#Antimigraine#Enxak#Ergam#Ergo-Kranit#Gynaemine#Wigrettes

>  <DrugBank ID>  (1) 
DB00696

>  <ATC Codes>  (1) 
N02CA52#N02CA72#N02CA02

>  <Ligand ID>  (1) 
ERM

>  <Target Name>  (1) 
5-hydroxytryptamine receptor 2A

>  <UniProt ID>  (1) 
P28223

>  <PDB ID.1>  (1) 
4IB4

>  <Seq. Identity>  (1) 
58%

$$$$
