PDB_DB00775_04
     RDKit          3D

 76 77  0  0  0  0  0  0  0  0999 V2000
   -9.0701    1.7002    0.8838 C   0  0  0  0  0  0  0  0  0  0  0  0
   -8.8697    0.2018    0.8349 C   0  0  0  0  0  0  0  0  0  0  0  0
   -8.4685   -0.2253   -0.5295 C   0  0  0  0  0  0  0  0  0  0  0  0
   -7.2349    0.3596   -1.1002 C   0  0  0  0  0  0  0  0  0  0  0  0
   -5.7865    0.0274   -0.1465 S   0  0  0  0  0  0  0  0  0  0  0  0
   -6.2314    0.8775    1.4317 O   0  0  0  0  0  0  0  0  0  0  0  0
   -5.7581   -1.3974    0.2520 O   0  0  0  0  0  0  0  0  0  0  0  0
   -4.6211    0.8532   -0.7357 N   0  0  0  0  0  0  0  0  0  0  0  0
   -3.4210    0.2732   -1.2743 C   0  0  1  0  0  0  0  0  0  0  0  0
   -2.7482   -0.5059   -0.1974 C   0  0  0  0  0  0  0  0  0  0  0  0
   -1.4646   -1.1830   -0.6087 C   0  0  0  0  0  0  0  0  0  0  0  0
   -0.9507   -1.9188    0.6187 C   0  0  0  0  0  0  0  0  0  0  0  0
    0.5590   -1.9910    0.6218 C   0  0  0  0  0  0  0  0  0  0  0  0
    1.2158   -0.6241    0.6405 C   0  0  0  0  0  0  0  0  0  0  0  0
    1.6966   -0.2851    1.8757 O   0  0  0  0  0  0  0  0  0  0  0  0
    0.1985    0.4208    0.1745 C   0  0  0  0  0  0  0  0  0  0  0  0
   -0.4650   -0.1428   -1.0630 C   0  0  0  0  0  0  0  0  0  0  0  0
   -3.7066   -0.6153   -2.4489 C   0  0  0  0  0  0  0  0  0  0  0  0
   -4.5391   -1.6398   -2.0643 O   0  0  0  0  0  0  0  0  0  0  0  0
   -4.2760    0.1426   -3.4985 O   0  0  0  0  0  0  0  0  0  0  0  0
    3.0555   -0.0426    1.8576 C   0  0  0  0  0  0  0  0  0  0  0  0
    3.5028    1.0817    0.9948 C   0  0  0  0  0  0  0  0  0  0  0  0
    4.9946    1.2980    1.0200 C   0  0  0  0  0  0  0  0  0  0  0  0
    5.7478    0.0742    0.5440 C   0  0  0  0  0  0  0  0  0  0  0  0
    7.2226    0.3063    0.5758 C   0  0  0  0  0  0  0  0  0  0  0  0
    7.6757    1.4397   -0.2858 C   0  0  0  0  0  0  0  0  0  0  0  0
    9.1581    1.2242   -0.5906 C   0  0  0  0  0  0  0  0  0  0  0  0
    9.8045    0.4818    0.4674 N   0  0  0  0  0  0  0  0  0  0  0  0
    9.3484   -0.8878    0.5517 C   0  0  0  0  0  0  0  0  0  0  0  0
    7.9096   -0.9601    0.0888 C   0  0  0  0  0  0  0  0  0  0  0  0
  -10.1653    1.9232    0.9372 H   0  0  0  0  0  0  0  0  0  0  0  0
   -8.6505    2.2233    0.0210 H   0  0  0  0  0  0  0  0  0  0  0  0
   -8.6407    2.1363    1.8280 H   0  0  0  0  0  0  0  0  0  0  0  0
   -9.8760   -0.2907    1.0457 H   0  0  0  0  0  0  0  0  0  0  0  0
   -8.1924   -0.1292    1.6193 H   0  0  0  0  0  0  0  0  0  0  0  0
   -8.3938   -1.3378   -0.6312 H   0  0  0  0  0  0  0  0  0  0  0  0
   -9.3112    0.0423   -1.2317 H   0  0  0  0  0  0  0  0  0  0  0  0
   -7.3198    1.4565   -1.2970 H   0  0  0  0  0  0  0  0  0  0  0  0
   -7.0664   -0.1038   -2.1047 H   0  0  0  0  0  0  0  0  0  0  0  0
   -5.9697    1.7933    1.2365 H   0  0  0  0  0  0  0  0  0  0  0  0
   -6.3342   -2.1468   -0.0414 H   0  0  0  0  0  0  0  0  0  0  0  0
   -4.4367    1.8041   -0.2946 H   0  0  0  0  0  0  0  0  0  0  0  0
   -2.8159    1.1250   -1.6668 H   0  0  0  0  0  0  0  0  0  0  0  0
   -2.5031    0.1139    0.6965 H   0  0  0  0  0  0  0  0  0  0  0  0
   -3.4388   -1.3411    0.0998 H   0  0  0  0  0  0  0  0  0  0  0  0
   -1.6037   -1.9268   -1.4170 H   0  0  0  0  0  0  0  0  0  0  0  0
   -1.3446   -2.9325    0.5919 H   0  0  0  0  0  0  0  0  0  0  0  0
   -1.2871   -1.3653    1.5041 H   0  0  0  0  0  0  0  0  0  0  0  0
    0.9116   -2.6241   -0.2164 H   0  0  0  0  0  0  0  0  0  0  0  0
    0.8544   -2.5057    1.5604 H   0  0  0  0  0  0  0  0  0  0  0  0
    1.9947   -0.6505   -0.1286 H   0  0  0  0  0  0  0  0  0  0  0  0
    0.7301    1.3665   -0.0091 H   0  0  0  0  0  0  0  0  0  0  0  0
   -0.5482    0.6181    0.9735 H   0  0  0  0  0  0  0  0  0  0  0  0
    0.3394   -0.6890   -1.6381 H   0  0  0  0  0  0  0  0  0  0  0  0
   -0.8671    0.6589   -1.6694 H   0  0  0  0  0  0  0  0  0  0  0  0
   -2.7311   -1.0010   -2.8394 H   0  0  0  0  0  0  0  0  0  0  0  0
   -4.1506   -2.5357   -2.2279 H   0  0  0  0  0  0  0  0  0  0  0  0
   -3.9613    1.0687   -3.3536 H   0  0  0  0  0  0  0  0  0  0  0  0
    3.5266   -1.0126    1.5153 H   0  0  0  0  0  0  0  0  0  0  0  0
    3.3714    0.0537    2.9167 H   0  0  0  0  0  0  0  0  0  0  0  0
    3.0556    2.0236    1.4267 H   0  0  0  0  0  0  0  0  0  0  0  0
    3.0948    1.0054   -0.0166 H   0  0  0  0  0  0  0  0  0  0  0  0
    5.3178    1.6461    2.0090 H   0  0  0  0  0  0  0  0  0  0  0  0
    5.2197    2.1157    0.2962 H   0  0  0  0  0  0  0  0  0  0  0  0
    5.5354   -0.7640    1.2634 H   0  0  0  0  0  0  0  0  0  0  0  0
    5.4225   -0.1545   -0.4732 H   0  0  0  0  0  0  0  0  0  0  0  0
    7.5519    0.5122    1.6154 H   0  0  0  0  0  0  0  0  0  0  0  0
    7.1611    1.4992   -1.2558 H   0  0  0  0  0  0  0  0  0  0  0  0
    7.5986    2.4309    0.1965 H   0  0  0  0  0  0  0  0  0  0  0  0
    9.2825    0.6508   -1.5228 H   0  0  0  0  0  0  0  0  0  0  0  0
    9.6867    2.1870   -0.6990 H   0  0  0  0  0  0  0  0  0  0  0  0
    9.8021    0.9773    1.3762 H   0  0  0  0  0  0  0  0  0  0  0  0
   10.0106   -1.5928    0.0271 H   0  0  0  0  0  0  0  0  0  0  0  0
    9.3609   -1.1838    1.6267 H   0  0  0  0  0  0  0  0  0  0  0  0
    7.3852   -1.8400    0.4814 H   0  0  0  0  0  0  0  0  0  0  0  0
    7.9161   -0.9076   -1.0211 H   0  0  0  0  0  0  0  0  0  0  0  0
  1  2  1  0
  2  3  1  0
  3  4  1  0
  4  5  1  0
  5  6  1  0
  5  7  1  0
  5  8  1  0
  8  9  1  0
  9 10  1  0
 10 11  1  0
 11 12  1  0
 12 13  1  0
 13 14  1  0
 14 15  1  0
 14 16  1  0
 11 17  1  0
 16 17  1  0
  9 18  1  0
 18 19  1  0
 18 20  1  0
 15 21  1  0
 21 22  1  0
 22 23  1  0
 23 24  1  0
 24 25  1  0
 25 26  1  0
 26 27  1  0
 27 28  1  0
 28 29  1  0
 25 30  1  0
 29 30  1  0
  1 31  1  0
  1 32  1  0
  1 33  1  0
  2 34  1  0
  2 35  1  0
  3 36  1  0
  3 37  1  0
  4 38  1  0
  4 39  1  0
  6 40  1  0
  7 41  1  0
  8 42  1  0
  9 43  1  6
 10 44  1  0
 10 45  1  0
 11 46  1  0
 12 47  1  0
 12 48  1  0
 13 49  1  0
 13 50  1  0
 14 51  1  0
 16 52  1  0
 16 53  1  0
 17 54  1  0
 17 55  1  0
 18 56  1  0
 19 57  1  0
 20 58  1  0
 21 59  1  0
 21 60  1  0
 22 61  1  0
 22 62  1  0
 23 63  1  0
 23 64  1  0
 24 65  1  0
 24 66  1  0
 25 67  1  0
 26 68  1  0
 26 69  1  0
 27 70  1  0
 27 71  1  0
 28 72  1  0
 29 73  1  0
 29 74  1  0
 30 75  1  0
 30 76  1  0
M  END
>  <PDBID>  (1) 
2VDM

>  <PDB ID>  (1) 
2VDM

>  <Generic Name>  (1) 
Tirofiban

>  <Brand Name>  (1) 
Aggrastat#Aggribloc#Agrastat

>  <DrugBank ID>  (1) 
DB00775

>  <ATC Codes>  (1) 
B01AC17

>  <Ligand ID>  (1) 
AGG

>  <Target Name>  (1) 
Integrin alpha-IIb

>  <UniProt ID>  (1) 
P08514

>  <PDB ID.1>  (1) 
2VDM

>  <Seq. Identity>  (1) 
100%

$$$$
